1-deazapurine
 OpenBabel12072022113D
libRbt.so/2013.1/901 2013/11/27
 10 11  0  0  0  0  0  0  0  0999 V2000
    5.7744   17.0409    2.8277 C   0  0  0  0  0  0  0  0  0  0  0  0
    5.3347   16.9447    4.1514 C   0  0  0  0  0  0  0  0  0  0  0  0
    5.7172   17.9681    5.0242 C   0  0  0  0  0  0  0  0  0  0  0  0
    6.4997   18.9936    4.5097 C   0  0  0  0  0  0  0  0  0  0  0  0
    6.7160   19.8318    5.5631 N   0  0  0  0  0  0  0  0  0  0  0  0
    7.2538   20.6836    5.5257 H   0  0  0  0  0  0  0  0  0  0  0  0
    6.0757   19.3017    6.6499 C   0  0  0  0  0  0  0  0  0  0  0  0
    5.4613   18.1738    6.3583 N   0  0  0  0  0  0  0  0  0  0  0  0
    6.9547   19.1455    3.2532 N   0  0  0  0  0  0  0  0  0  0  0  0
    6.5575   18.1293    2.4465 C   0  0  0  0  0  0  0  0  0  0  0  0
  1  2  2  0  0  0  0
  1 10  1  0  0  0  0
  2  3  1  0  0  0  0
  3  4  2  0  0  0  0
  3  8  1  0  0  0  0
  4  5  1  0  0  0  0
  4  9  1  0  0  0  0
  5  6  1  0  0  0  0
  5  7  1  0  0  0  0
  7  8  2  0  0  0  0
  9 10  2  0  0  0  0
M  END
>  <CHROM.0>
-59.66278723,-173.18351702,-68.91727797,-46.99648401,-178.65759895,-64.85311129
-67.74055127,-61.12744589,-168.27246417

>  <CHROM.1>
6.13741725,18.42641459,4.54907352,1.53594395,-0.97205345,-2.00534963

>  <Name>
1-deazapurine

>  <RI>
3.51561e+07

>  <Rbt.Current_Directory>
/home/fstefaniak/projects/zuza/docking/adenine/4XNR

>  <Rbt.Executable>
rbdock ($Id: //depot/dev/client3/rdock/2013.1/src/exe/rbdock.cxx#4 $)

>  <Rbt.Library>
libRbt.so (2013.1, Build901 2013/11/27)

>  <Rbt.Parameter_File>
/home/fstefaniak/progs/rDock//data/scripts/dock_solv.prm

>  <Rbt.Receptor>
4xnr.prm

>  <SCORE>
-54.2368

>  <SCORE.INTER>
-33.447

>  <SCORE.INTER.CONST>
1

>  <SCORE.INTER.POLAR>
-3.18988

>  <SCORE.INTER.ROT>
0

>  <SCORE.INTER.SOLV>
10.2162

>  <SCORE.INTER.VDW>
-18.6705

>  <SCORE.INTER.norm>
-3.71633

>  <SCORE.INTRA>
0

>  <SCORE.INTRA.DIHEDRAL>
0

>  <SCORE.INTRA.DIHEDRAL.0>
0

>  <SCORE.INTRA.POLAR>
0

>  <SCORE.INTRA.POLAR.0>
0

>  <SCORE.INTRA.REPUL>
0

>  <SCORE.INTRA.REPUL.0>
0

>  <SCORE.INTRA.SOLV>
0

>  <SCORE.INTRA.SOLV.lig_0>
-10.015

>  <SCORE.INTRA.VDW>
0

>  <SCORE.INTRA.VDW.0>
0

>  <SCORE.INTRA.norm>
0

>  <SCORE.RESTR>
0

>  <SCORE.RESTR.CAVITY>
0

>  <SCORE.RESTR.norm>
0

>  <SCORE.SYSTEM>
-20.7898

>  <SCORE.SYSTEM.CONST>
0

>  <SCORE.SYSTEM.DIHEDRAL>
4.49491

>  <SCORE.SYSTEM.POLAR>
-2.96995

>  <SCORE.SYSTEM.SOLV>
0.0703818

>  <SCORE.SYSTEM.VDW>
-5.48179

>  <SCORE.SYSTEM.norm>
-2.30998

>  <SCORE.heavy>
9

>  <SCORE.norm>
-6.02631

$$$$
1-deazapurine
 OpenBabel12072022113D
libRbt.so/2013.1/901 2013/11/27
 10 11  0  0  0  0  0  0  0  0999 V2000
    5.7777   17.0361    2.8206 C   0  0  0  0  0  0  0  0  0  0  0  0
    5.3306   16.9442    4.1422 C   0  0  0  0  0  0  0  0  0  0  0  0
    5.7268   17.9588    5.0192 C   0  0  0  0  0  0  0  0  0  0  0  0
    6.5290   18.9720    4.5107 C   0  0  0  0  0  0  0  0  0  0  0  0
    6.7549   19.8038    5.5672 N   0  0  0  0  0  0  0  0  0  0  0  0
    7.3074   20.6464    5.5343 H   0  0  0  0  0  0  0  0  0  0  0  0
    6.1009   19.2820    6.6498 C   0  0  0  0  0  0  0  0  0  0  0  0
    5.4686   18.1656    6.3527 N   0  0  0  0  0  0  0  0  0  0  0  0
    6.9919   19.1192    3.2566 N   0  0  0  0  0  0  0  0  0  0  0  0
    6.5809   18.1119    2.4456 C   0  0  0  0  0  0  0  0  0  0  0  0
  1  2  2  0  0  0  0
  1 10  1  0  0  0  0
  2  3  1  0  0  0  0
  3  4  2  0  0  0  0
  3  8  1  0  0  0  0
  4  5  1  0  0  0  0
  4  9  1  0  0  0  0
  5  6  1  0  0  0  0
  5  7  1  0  0  0  0
  7  8  2  0  0  0  0
  9 10  2  0  0  0  0
M  END
>  <CHROM.0>
-62.00087538,-173.62759905,-66.75611883,-45.50217380,-60.51967877,-64.62549865
-67.96264540,-61.97706454,-167.92341876

>  <CHROM.1>
6.15682299,18.41100568,4.54707759,1.54156780,-0.95467784,-1.99824220

>  <Name>
1-deazapurine

>  <RI>
3.51561e+07

>  <Rbt.Current_Directory>
/home/fstefaniak/projects/zuza/docking/adenine/4XNR

>  <Rbt.Executable>
rbdock ($Id: //depot/dev/client3/rdock/2013.1/src/exe/rbdock.cxx#4 $)

>  <Rbt.Library>
libRbt.so (2013.1, Build901 2013/11/27)

>  <Rbt.Parameter_File>
/home/fstefaniak/progs/rDock//data/scripts/dock_solv.prm

>  <Rbt.Receptor>
4xnr.prm

>  <SCORE>
-54.2235

>  <SCORE.INTER>
-33.4547

>  <SCORE.INTER.CONST>
1

>  <SCORE.INTER.POLAR>
-3.1933

>  <SCORE.INTER.ROT>
0

>  <SCORE.INTER.SOLV>
10.161

>  <SCORE.INTER.VDW>
-18.6458

>  <SCORE.INTER.norm>
-3.71719

>  <SCORE.INTRA>
0

>  <SCORE.INTRA.DIHEDRAL>
0

>  <SCORE.INTRA.DIHEDRAL.0>
0

>  <SCORE.INTRA.POLAR>
0

>  <SCORE.INTRA.POLAR.0>
0

>  <SCORE.INTRA.REPUL>
0

>  <SCORE.INTRA.REPUL.0>
0

>  <SCORE.INTRA.SOLV>
0

>  <SCORE.INTRA.SOLV.lig_0>
-10.015

>  <SCORE.INTRA.VDW>
0

>  <SCORE.INTRA.VDW.0>
0

>  <SCORE.INTRA.norm>
0

>  <SCORE.RESTR>
0

>  <SCORE.RESTR.CAVITY>
0

>  <SCORE.RESTR.norm>
0

>  <SCORE.SYSTEM>
-20.7688

>  <SCORE.SYSTEM.CONST>
0

>  <SCORE.SYSTEM.DIHEDRAL>
4.56156

>  <SCORE.SYSTEM.POLAR>
-2.9883

>  <SCORE.SYSTEM.SOLV>
0.243573

>  <SCORE.SYSTEM.VDW>
-5.48661

>  <SCORE.SYSTEM.norm>
-2.30765

>  <SCORE.heavy>
9

>  <SCORE.norm>
-6.02484

$$$$
1-deazapurine
 OpenBabel12072022113D
libRbt.so/2013.1/901 2013/11/27
 10 11  0  0  0  0  0  0  0  0999 V2000
    5.8006   17.0189    2.8480 C   0  0  0  0  0  0  0  0  0  0  0  0
    5.3483   16.9361    4.1684 C   0  0  0  0  0  0  0  0  0  0  0  0
    5.7242   17.9674    5.0349 C   0  0  0  0  0  0  0  0  0  0  0  0
    6.5130   18.9868    4.5178 C   0  0  0  0  0  0  0  0  0  0  0  0
    6.7205   19.8349    5.5652 N   0  0  0  0  0  0  0  0  0  0  0  0
    7.2599   20.6855    5.5246 H   0  0  0  0  0  0  0  0  0  0  0  0
    6.0693   19.3160    6.6509 C   0  0  0  0  0  0  0  0  0  0  0  0
    5.4561   18.1862    6.3644 N   0  0  0  0  0  0  0  0  0  0  0  0
    6.9799   19.1260    3.2643 N   0  0  0  0  0  0  0  0  0  0  0  0
    6.5888   18.1025    2.4637 C   0  0  0  0  0  0  0  0  0  0  0  0
  1  2  2  0  0  0  0
  1 10  1  0  0  0  0
  2  3  1  0  0  0  0
  3  4  2  0  0  0  0
  3  8  1  0  0  0  0
  4  5  1  0  0  0  0
  4  9  1  0  0  0  0
  5  6  1  0  0  0  0
  5  7  1  0  0  0  0
  7  8  2  0  0  0  0
  9 10  2  0  0  0  0
M  END
>  <CHROM.0>
-62.48361247,-173.42931007,-65.98485485,-46.54358644,-62.04430979,-63.09450819
-69.45176282,-62.34269030,-167.51996451

>  <CHROM.1>
6.14947692,18.42049493,4.55930275,1.52205906,-0.96675243,-2.02643526

>  <Name>
1-deazapurine

>  <RI>
3.51561e+07

>  <Rbt.Current_Directory>
/home/fstefaniak/projects/zuza/docking/adenine/4XNR

>  <Rbt.Executable>
rbdock ($Id: //depot/dev/client3/rdock/2013.1/src/exe/rbdock.cxx#4 $)

>  <Rbt.Library>
libRbt.so (2013.1, Build901 2013/11/27)

>  <Rbt.Parameter_File>
/home/fstefaniak/progs/rDock//data/scripts/dock_solv.prm

>  <Rbt.Receptor>
4xnr.prm

>  <SCORE>
-54.2007

>  <SCORE.INTER>
-33.4552

>  <SCORE.INTER.CONST>
1

>  <SCORE.INTER.POLAR>
-3.1933

>  <SCORE.INTER.ROT>
0

>  <SCORE.INTER.SOLV>
10.2307

>  <SCORE.INTER.VDW>
-18.6694

>  <SCORE.INTER.norm>
-3.71725

>  <SCORE.INTRA>
0

>  <SCORE.INTRA.DIHEDRAL>
0

>  <SCORE.INTRA.DIHEDRAL.0>
0

>  <SCORE.INTRA.POLAR>
0

>  <SCORE.INTRA.POLAR.0>
0

>  <SCORE.INTRA.REPUL>
0

>  <SCORE.INTRA.REPUL.0>
0

>  <SCORE.INTRA.SOLV>
0

>  <SCORE.INTRA.SOLV.lig_0>
-10.015

>  <SCORE.INTRA.VDW>
0

>  <SCORE.INTRA.VDW.0>
0

>  <SCORE.INTRA.norm>
0

>  <SCORE.RESTR>
0

>  <SCORE.RESTR.CAVITY>
0

>  <SCORE.RESTR.norm>
0

>  <SCORE.SYSTEM>
-20.7454

>  <SCORE.SYSTEM.CONST>
0

>  <SCORE.SYSTEM.DIHEDRAL>
4.53949

>  <SCORE.SYSTEM.POLAR>
-2.97018

>  <SCORE.SYSTEM.SOLV>
0.238058

>  <SCORE.SYSTEM.VDW>
-5.5222

>  <SCORE.SYSTEM.norm>
-2.30505

>  <SCORE.heavy>
9

>  <SCORE.norm>
-6.0223

$$$$
1-methyladenine
 OpenBabel12072022113D
libRbt.so/2013.1/901 2013/11/27
 13 14  0  0  0  0  0  0  0  0999 V2000
    5.7574   18.5319    6.9387 C   0  0  0  0  0  0  0  0  0  0  0  0
    5.9131   18.1411    5.5418 N   0  0  0  0  0  0  0  0  0  0  0  0
    4.9191   17.3910    4.9256 C   0  0  0  0  0  0  0  0  0  0  0  0
    4.8333   17.0668    3.6744 N   0  0  0  0  0  0  0  0  0  0  0  0
    5.8423   17.5499    2.9023 C   0  0  0  0  0  0  0  0  0  0  0  0
    6.0178   17.3773    1.6295 N   0  0  0  0  0  0  0  0  0  0  0  0
    7.1878   18.0875    1.3899 C   0  0  0  0  0  0  0  0  0  0  0  0
    7.7599   18.6836    2.4029 N   0  0  0  0  0  0  0  0  0  0  0  0
    6.9199   18.3738    3.4389 C   0  0  0  0  0  0  0  0  0  0  0  0
    6.9473   18.6650    4.7515 C   0  0  0  0  0  0  0  0  0  0  0  0
    7.9701   19.4448    5.2759 N   0  0  0  0  0  0  0  0  0  0  0  0
    7.9414   19.4079    6.2984 H   0  0  0  0  0  0  0  0  0  0  0  0
    7.8943   20.4066    4.9606 H   0  0  0  0  0  0  0  0  0  0  0  0
  1  2  1  0  0  0  0
  2  3  1  0  0  0  0
  2 10  1  0  0  0  0
  3  4  2  0  0  0  0
  4  5  1  0  0  0  0
  5  6  2  0  0  0  0
  5  9  1  0  0  0  0
  6  7  1  0  0  0  0
  7  8  2  0  0  0  0
  8  9  1  0  0  0  0
  9 10  2  0  0  0  0
 10 11  1  0  0  0  0
 11 12  1  0  0  0  0
 11 13  1  0  0  0  0
M  END
>  <CHROM.0>
-58.85340463,-64.29261105,-68.20548243,-47.01400832,-173.16172033,-61.59976276
-64.86103480,-58.56274306,-168.32844052

>  <CHROM.1>
10.96077571,6.38267276,18.14829141,3.95959131,1.72638135,0.56946077,1.33874914

>  <Name>
1-methyladenine

>  <RI>
3.51561e+07

>  <Rbt.Current_Directory>
/home/fstefaniak/projects/zuza/docking/adenine/4XNR

>  <Rbt.Executable>
rbdock ($Id: //depot/dev/client3/rdock/2013.1/src/exe/rbdock.cxx#4 $)

>  <Rbt.Library>
libRbt.so (2013.1, Build901 2013/11/27)

>  <Rbt.Parameter_File>
/home/fstefaniak/progs/rDock//data/scripts/dock_solv.prm

>  <Rbt.Receptor>
4xnr.prm

>  <SCORE>
-58.4033

>  <SCORE.INTER>
-38.4137

>  <SCORE.INTER.CONST>
1

>  <SCORE.INTER.POLAR>
-4.51623

>  <SCORE.INTER.ROT>
1

>  <SCORE.INTER.SOLV>
10.5653

>  <SCORE.INTER.VDW>
-18.3435

>  <SCORE.INTER.norm>
-3.49215

>  <SCORE.INTRA>
0.868887

>  <SCORE.INTRA.DIHEDRAL>
-0.00043285

>  <SCORE.INTRA.DIHEDRAL.0>
0.477737

>  <SCORE.INTRA.POLAR>
0.0117728

>  <SCORE.INTRA.POLAR.0>
-0.0117728

>  <SCORE.INTRA.REPUL>
0

>  <SCORE.INTRA.REPUL.0>
0

>  <SCORE.INTRA.SOLV>
0.00595868

>  <SCORE.INTRA.SOLV.lig_0>
-9.36054

>  <SCORE.INTRA.VDW>
0.826096

>  <SCORE.INTRA.VDW.0>
-0.0766114

>  <SCORE.INTRA.norm>
0.0789897

>  <SCORE.RESTR>
0

>  <SCORE.RESTR.CAVITY>
0

>  <SCORE.RESTR.norm>
0

>  <SCORE.SYSTEM>
-20.8585

>  <SCORE.SYSTEM.CONST>
0

>  <SCORE.SYSTEM.DIHEDRAL>
4.25278

>  <SCORE.SYSTEM.POLAR>
-2.97667

>  <SCORE.SYSTEM.SOLV>
0.114513

>  <SCORE.SYSTEM.VDW>
-5.43915

>  <SCORE.SYSTEM.norm>
-1.89622

>  <SCORE.heavy>
11

>  <SCORE.norm>
-5.30939

$$$$
1-methyladenine
 OpenBabel12072022113D
libRbt.so/2013.1/901 2013/11/27
 13 14  0  0  0  0  0  0  0  0999 V2000
    5.7640   18.5190    6.9424 C   0  0  0  0  0  0  0  0  0  0  0  0
    5.9212   18.1318    5.5447 N   0  0  0  0  0  0  0  0  0  0  0  0
    4.9314   17.3768    4.9277 C   0  0  0  0  0  0  0  0  0  0  0  0
    4.8468   17.0544    3.6760 N   0  0  0  0  0  0  0  0  0  0  0  0
    5.8522   17.5452    2.9041 C   0  0  0  0  0  0  0  0  0  0  0  0
    6.0279   17.3761    1.6309 N   0  0  0  0  0  0  0  0  0  0  0  0
    7.1933   18.0939    1.3918 C   0  0  0  0  0  0  0  0  0  0  0  0
    7.7624   18.6917    2.4055 N   0  0  0  0  0  0  0  0  0  0  0  0
    6.9251   18.3748    3.4415 C   0  0  0  0  0  0  0  0  0  0  0  0
    6.9515   18.6636    4.7547 C   0  0  0  0  0  0  0  0  0  0  0  0
    7.9699   19.4487    5.2798 N   0  0  0  0  0  0  0  0  0  0  0  0
    7.9399   19.4126    6.3023 H   0  0  0  0  0  0  0  0  0  0  0  0
    7.8900   20.4099    4.9636 H   0  0  0  0  0  0  0  0  0  0  0  0
  1  2  1  0  0  0  0
  2  3  1  0  0  0  0
  2 10  1  0  0  0  0
  3  4  2  0  0  0  0
  4  5  1  0  0  0  0
  5  6  2  0  0  0  0
  5  9  1  0  0  0  0
  6  7  1  0  0  0  0
  7  8  2  0  0  0  0
  8  9  1  0  0  0  0
  9 10  2  0  0  0  0
 10 11  1  0  0  0  0
 11 12  1  0  0  0  0
 11 13  1  0  0  0  0
M  END
>  <CHROM.0>
-55.23464225,-63.19891760,-67.81167054,-47.54073448,-56.50155240,-60.71713780
-69.11950447,-55.67813614,-167.96641471

>  <CHROM.1>
10.74380686,6.38960662,18.14492311,3.96214772,1.72731406,0.57566002,1.34013737

>  <Name>
1-methyladenine

>  <RI>
3.51561e+07

>  <Rbt.Current_Directory>
/home/fstefaniak/projects/zuza/docking/adenine/4XNR

>  <Rbt.Executable>
rbdock ($Id: //depot/dev/client3/rdock/2013.1/src/exe/rbdock.cxx#4 $)

>  <Rbt.Library>
libRbt.so (2013.1, Build901 2013/11/27)

>  <Rbt.Parameter_File>
/home/fstefaniak/progs/rDock//data/scripts/dock_solv.prm

>  <Rbt.Receptor>
4xnr.prm

>  <SCORE>
-58.3569

>  <SCORE.INTER>
-38.405

>  <SCORE.INTER.CONST>
1

>  <SCORE.INTER.POLAR>
-4.52869

>  <SCORE.INTER.ROT>
1

>  <SCORE.INTER.SOLV>
10.5665

>  <SCORE.INTER.VDW>
-18.2965

>  <SCORE.INTER.norm>
-3.49136

>  <SCORE.INTRA>
0.876163

>  <SCORE.INTRA.DIHEDRAL>
-0.000381298

>  <SCORE.INTRA.DIHEDRAL.0>
0.477737

>  <SCORE.INTRA.POLAR>
0.0117728

>  <SCORE.INTRA.POLAR.0>
-0.0117728

>  <SCORE.INTRA.REPUL>
0

>  <SCORE.INTRA.REPUL.0>
0

>  <SCORE.INTRA.SOLV>
0.00598247

>  <SCORE.INTRA.SOLV.lig_0>
-9.36054

>  <SCORE.INTRA.VDW>
0.833335

>  <SCORE.INTRA.VDW.0>
-0.0766114

>  <SCORE.INTRA.norm>
0.0796512

>  <SCORE.RESTR>
0

>  <SCORE.RESTR.CAVITY>
0

>  <SCORE.RESTR.norm>
0

>  <SCORE.SYSTEM>
-20.8281

>  <SCORE.SYSTEM.CONST>
0

>  <SCORE.SYSTEM.DIHEDRAL>
4.4365

>  <SCORE.SYSTEM.POLAR>
-3.01547

>  <SCORE.SYSTEM.SOLV>
0.29203

>  <SCORE.SYSTEM.VDW>
-5.40996

>  <SCORE.SYSTEM.norm>
-1.89346

>  <SCORE.heavy>
11

>  <SCORE.norm>
-5.30517

$$$$
1-methyladenine
 OpenBabel12072022113D
libRbt.so/2013.1/901 2013/11/27
 13 14  0  0  0  0  0  0  0  0999 V2000
    5.7545   18.5249    6.9441 C   0  0  0  0  0  0  0  0  0  0  0  0
    5.9144   18.1317    5.5483 N   0  0  0  0  0  0  0  0  0  0  0  0
    4.9266   17.3727    4.9332 C   0  0  0  0  0  0  0  0  0  0  0  0
    4.8444   17.0446    3.6828 N   0  0  0  0  0  0  0  0  0  0  0  0
    5.8504   17.5334    2.9103 C   0  0  0  0  0  0  0  0  0  0  0  0
    6.0282   17.3590    1.6381 N   0  0  0  0  0  0  0  0  0  0  0  0
    7.1931   18.0774    1.3977 C   0  0  0  0  0  0  0  0  0  0  0  0
    7.7597   18.6803    2.4096 N   0  0  0  0  0  0  0  0  0  0  0  0
    6.9213   18.3668    3.4457 C   0  0  0  0  0  0  0  0  0  0  0  0
    6.9453   18.6615    4.7576 C   0  0  0  0  0  0  0  0  0  0  0  0
    7.9618   19.4503    5.2809 N   0  0  0  0  0  0  0  0  0  0  0  0
    7.9325   19.4158    6.3034 H   0  0  0  0  0  0  0  0  0  0  0  0
    7.8789   20.4107    4.9631 H   0  0  0  0  0  0  0  0  0  0  0  0
  1  2  1  0  0  0  0
  2  3  1  0  0  0  0
  2 10  1  0  0  0  0
  3  4  2  0  0  0  0
  4  5  1  0  0  0  0
  5  6  2  0  0  0  0
  5  9  1  0  0  0  0
  6  7  1  0  0  0  0
  7  8  2  0  0  0  0
  8  9  1  0  0  0  0
  9 10  2  0  0  0  0
 10 11  1  0  0  0  0
 11 12  1  0  0  0  0
 11 13  1  0  0  0  0
M  END
>  <CHROM.0>
-53.52752463,-61.74647930,-66.26400450,-48.15706166,-55.86999051,-63.25256638
-66.34192013,-58.01929015,-168.21791251

>  <CHROM.1>
10.96275534,6.38527160,18.13853058,3.96651355,1.72945057,0.57660992,1.33456806

>  <Name>
1-methyladenine

>  <RI>
3.51561e+07

>  <Rbt.Current_Directory>
/home/fstefaniak/projects/zuza/docking/adenine/4XNR

>  <Rbt.Executable>
rbdock ($Id: //depot/dev/client3/rdock/2013.1/src/exe/rbdock.cxx#4 $)

>  <Rbt.Library>
libRbt.so (2013.1, Build901 2013/11/27)

>  <Rbt.Parameter_File>
/home/fstefaniak/progs/rDock//data/scripts/dock_solv.prm

>  <Rbt.Receptor>
4xnr.prm

>  <SCORE>
-58.3429

>  <SCORE.INTER>
-38.3491

>  <SCORE.INTER.CONST>
1

>  <SCORE.INTER.POLAR>
-4.5278

>  <SCORE.INTER.ROT>
1

>  <SCORE.INTER.SOLV>
10.5709

>  <SCORE.INTER.VDW>
-18.2637

>  <SCORE.INTER.norm>
-3.48628

>  <SCORE.INTRA>
0.86882

>  <SCORE.INTRA.DIHEDRAL>
-0.000433319

>  <SCORE.INTRA.DIHEDRAL.0>
0.477737

>  <SCORE.INTRA.POLAR>
0.0117728

>  <SCORE.INTRA.POLAR.0>
-0.0117728

>  <SCORE.INTRA.REPUL>
0

>  <SCORE.INTRA.REPUL.0>
0

>  <SCORE.INTRA.SOLV>
0.00595846

>  <SCORE.INTRA.SOLV.lig_0>
-9.36054

>  <SCORE.INTRA.VDW>
0.82603

>  <SCORE.INTRA.VDW.0>
-0.0766114

>  <SCORE.INTRA.norm>
0.0789837

>  <SCORE.RESTR>
0

>  <SCORE.RESTR.CAVITY>
0

>  <SCORE.RESTR.norm>
0

>  <SCORE.SYSTEM>
-20.8626

>  <SCORE.SYSTEM.CONST>
0

>  <SCORE.SYSTEM.DIHEDRAL>
4.10871

>  <SCORE.SYSTEM.POLAR>
-3.01888

>  <SCORE.SYSTEM.SOLV>
0.297072

>  <SCORE.SYSTEM.VDW>
-5.31406

>  <SCORE.SYSTEM.norm>
-1.8966

>  <SCORE.heavy>
11

>  <SCORE.norm>
-5.3039

$$$$
2,4,6-triaminopyrimidine
 OpenBabel12072022113D
libRbt.so/2013.1/901 2013/11/27
 16 16  0  0  0  0  0  0  0  0999 V2000
    5.8930   17.7548    2.4993 C   0  0  0  0  0  0  0  0  0  0  0  0
    5.3963   17.7648    3.7961 C   0  0  0  0  0  0  0  0  0  0  0  0
    6.2192   18.1075    4.7870 N   0  3  0  0  0  0  0  0  0  0  0  0
    5.9043   18.1174    5.7450 H   0  0  0  0  0  0  0  0  0  0  0  0
    7.4716   18.4782    4.5381 C   0  0  0  0  0  0  0  0  0  0  0  0
    7.9945   18.5389    3.3077 N   0  0  0  0  0  0  0  0  0  0  0  0
    7.1962   18.1707    2.2981 C   0  0  0  0  0  0  0  0  0  0  0  0
    7.7587   18.1331    1.0335 N   0  0  0  0  0  0  0  0  0  0  0  0
    8.2721   18.8448    5.6037 N   0  0  0  0  0  0  0  0  0  0  0  0
    4.1179   17.3216    4.0879 N   0  0  0  0  0  0  0  0  0  0  0  0
    8.2345   19.0084    0.8230 H   0  0  0  0  0  0  0  0  0  0  0  0
    7.1246   17.8670    0.2867 H   0  0  0  0  0  0  0  0  0  0  0  0
    7.9759   19.6703    6.1124 H   0  0  0  0  0  0  0  0  0  0  0  0
    8.3521   18.0421    6.2307 H   0  0  0  0  0  0  0  0  0  0  0  0
    3.3615   17.8306    3.6305 H   0  0  0  0  0  0  0  0  0  0  0  0
    3.8679   17.0412    5.0295 H   0  0  0  0  0  0  0  0  0  0  0  0
  1  2  2  0  0  0  0
  1  7  1  0  0  0  0
  2  3  1  0  0  0  0
  2 10  1  0  0  0  0
  3  4  1  0  0  0  0
  3  5  2  0  0  0  0
  5  6  1  0  0  0  0
  5  9  1  0  0  0  0
  6  7  2  0  0  0  0
  7  8  1  0  0  0  0
  8 11  1  0  0  0  0
  8 12  1  0  0  0  0
  9 13  1  0  0  0  0
  9 14  1  0  0  0  0
 10 15  1  0  0  0  0
 10 16  1  0  0  0  0
M  CHG  1   3   1
M  END
>  <CHROM.0>
-58.67902265,-69.06394382,-65.01848928,-48.03703515,-62.26697706,-63.47974852
-70.94281807,-60.77697556,-168.27922039

>  <CHROM.1>
-60.69912176,-63.95489370,132.94793119,6.69245647,18.13171221,3.58271494
0.79441014,-0.30875952,-1.67544279

>  <Name>
2,4,6-triaminopyrimidine

>  <RI>
3.51561e+07

>  <Rbt.Current_Directory>
/home/fstefaniak/projects/zuza/docking/adenine/4XNR

>  <Rbt.Executable>
rbdock ($Id: //depot/dev/client3/rdock/2013.1/src/exe/rbdock.cxx#4 $)

>  <Rbt.Library>
libRbt.so (2013.1, Build901 2013/11/27)

>  <Rbt.Parameter_File>
/home/fstefaniak/progs/rDock//data/scripts/dock_solv.prm

>  <Rbt.Receptor>
4xnr.prm

>  <SCORE>
-61.0875

>  <SCORE.INTER>
-40.6826

>  <SCORE.INTER.CONST>
1

>  <SCORE.INTER.POLAR>
-7.13465

>  <SCORE.INTER.ROT>
3

>  <SCORE.INTER.SOLV>
17.1059

>  <SCORE.INTER.VDW>
-14.6415

>  <SCORE.INTER.norm>
-4.52029

>  <SCORE.INTRA>
0.413087

>  <SCORE.INTRA.DIHEDRAL>
-0.0735599

>  <SCORE.INTRA.DIHEDRAL.0>
1.50958

>  <SCORE.INTRA.POLAR>
0

>  <SCORE.INTRA.POLAR.0>
0

>  <SCORE.INTRA.REPUL>
0

>  <SCORE.INTRA.REPUL.0>
0

>  <SCORE.INTRA.SOLV>
0.806825

>  <SCORE.INTRA.SOLV.lig_0>
-35.25

>  <SCORE.INTRA.VDW>
0.0464551

>  <SCORE.INTRA.VDW.0>
-0.396343

>  <SCORE.INTRA.norm>
0.0458986

>  <SCORE.RESTR>
0

>  <SCORE.RESTR.CAVITY>
0

>  <SCORE.RESTR.norm>
0

>  <SCORE.SYSTEM>
-20.818

>  <SCORE.SYSTEM.CONST>
0

>  <SCORE.SYSTEM.DIHEDRAL>
4.53368

>  <SCORE.SYSTEM.POLAR>
-2.96539

>  <SCORE.SYSTEM.SOLV>
0.261199

>  <SCORE.SYSTEM.VDW>
-5.59234

>  <SCORE.SYSTEM.norm>
-2.31311

>  <SCORE.heavy>
9

>  <SCORE.norm>
-6.7875

$$$$
2,4,6-triaminopyrimidine
 OpenBabel12072022113D
libRbt.so/2013.1/901 2013/11/27
 16 16  0  0  0  0  0  0  0  0999 V2000
    5.7682   17.8224    2.5985 C   0  0  0  0  0  0  0  0  0  0  0  0
    5.4163   17.5995    3.9232 C   0  0  0  0  0  0  0  0  0  0  0  0
    6.2916   17.9244    4.8745 N   0  3  0  0  0  0  0  0  0  0  0  0
    6.0826   17.7693    5.8488 H   0  0  0  0  0  0  0  0  0  0  0  0
    7.4539   18.4929    4.5685 C   0  0  0  0  0  0  0  0  0  0  0  0
    7.8300   18.7804    3.3168 N   0  0  0  0  0  0  0  0  0  0  0  0
    6.9801   18.4364    2.3414 C   0  0  0  0  0  0  0  0  0  0  0  0
    7.4039   18.6372    1.0386 N   0  0  0  0  0  0  0  0  0  0  0  0
    8.3121   18.8287    5.5988 N   0  0  0  0  0  0  0  0  0  0  0  0
    4.2420   16.9507    4.2637 N   0  0  0  0  0  0  0  0  0  0  0  0
    7.0659   17.8943    0.4296 H   0  0  0  0  0  0  0  0  0  0  0  0
    8.4024   18.7825    0.9269 H   0  0  0  0  0  0  0  0  0  0  0  0
    8.0841   19.6792    6.1013 H   0  0  0  0  0  0  0  0  0  0  0  0
    8.3659   18.0335    6.2381 H   0  0  0  0  0  0  0  0  0  0  0  0
    4.0475   16.8903    5.2632 H   0  0  0  0  0  0  0  0  0  0  0  0
    3.9497   16.1140    3.7717 H   0  0  0  0  0  0  0  0  0  0  0  0
  1  2  2  0  0  0  0
  1  7  1  0  0  0  0
  2  3  1  0  0  0  0
  2 10  1  0  0  0  0
  3  4  1  0  0  0  0
  3  5  2  0  0  0  0
  5  6  1  0  0  0  0
  5  9  1  0  0  0  0
  6  7  2  0  0  0  0
  7  8  1  0  0  0  0
  8 11  1  0  0  0  0
  8 12  1  0  0  0  0
  9 13  1  0  0  0  0
  9 14  1  0  0  0  0
 10 15  1  0  0  0  0
 10 16  1  0  0  0  0
M  CHG  1   3   1
M  END
>  <CHROM.0>
-57.02305182,-64.68805996,-47.81597905,-46.48089669,-55.94698414,-55.54380543
-65.86882336,-56.28339783,-167.63668205

>  <CHROM.1>
-176.22726841,-78.50974516,-31.86343394,6.63721526,18.14984345,3.64808715
0.84531077,-0.45349933,-1.52556561

>  <Name>
2,4,6-triaminopyrimidine

>  <RI>
3.51561e+07

>  <Rbt.Current_Directory>
/home/fstefaniak/projects/zuza/docking/adenine/4XNR

>  <Rbt.Executable>
rbdock ($Id: //depot/dev/client3/rdock/2013.1/src/exe/rbdock.cxx#4 $)

>  <Rbt.Library>
libRbt.so (2013.1, Build901 2013/11/27)

>  <Rbt.Parameter_File>
/home/fstefaniak/progs/rDock//data/scripts/dock_solv.prm

>  <Rbt.Receptor>
4xnr.prm

>  <SCORE>
-60.9824

>  <SCORE.INTER>
-41.184

>  <SCORE.INTER.CONST>
1

>  <SCORE.INTER.POLAR>
-7.03928

>  <SCORE.INTER.ROT>
3

>  <SCORE.INTER.SOLV>
17.5907

>  <SCORE.INTER.VDW>
-15.4553

>  <SCORE.INTER.norm>
-4.576

>  <SCORE.INTRA>
0.458745

>  <SCORE.INTRA.DIHEDRAL>
-0.11725

>  <SCORE.INTRA.DIHEDRAL.0>
1.50958

>  <SCORE.INTRA.POLAR>
0

>  <SCORE.INTRA.POLAR.0>
0

>  <SCORE.INTRA.REPUL>
0

>  <SCORE.INTRA.REPUL.0>
0

>  <SCORE.INTRA.SOLV>
0.864431

>  <SCORE.INTRA.SOLV.lig_0>
-35.25

>  <SCORE.INTRA.VDW>
0.0851539

>  <SCORE.INTRA.VDW.0>
-0.396343

>  <SCORE.INTRA.norm>
0.0509716

>  <SCORE.RESTR>
0

>  <SCORE.RESTR.CAVITY>
0

>  <SCORE.RESTR.norm>
0

>  <SCORE.SYSTEM>
-20.2572

>  <SCORE.SYSTEM.CONST>
0

>  <SCORE.SYSTEM.DIHEDRAL>
4.83413

>  <SCORE.SYSTEM.POLAR>
-3.12418

>  <SCORE.SYSTEM.SOLV>
0.334172

>  <SCORE.SYSTEM.VDW>
-4.81361

>  <SCORE.SYSTEM.norm>
-2.2508

>  <SCORE.heavy>
9

>  <SCORE.norm>
-6.77582

$$$$
2,4,6-triaminopyrimidine
 OpenBabel12072022113D
libRbt.so/2013.1/901 2013/11/27
 16 16  0  0  0  0  0  0  0  0999 V2000
    6.5691   18.5602    3.4684 C   0  0  0  0  0  0  0  0  0  0  0  0
    6.0491   17.9552    4.6051 C   0  0  0  0  0  0  0  0  0  0  0  0
    5.2475   16.9015    4.4515 N   0  3  0  0  0  0  0  0  0  0  0  0
    4.8385   16.4382    5.2484 H   0  0  0  0  0  0  0  0  0  0  0  0
    4.9893   16.4095    3.2435 C   0  0  0  0  0  0  0  0  0  0  0  0
    5.4997   16.9148    2.1143 N   0  0  0  0  0  0  0  0  0  0  0  0
    6.2843   17.9921    2.2405 C   0  0  0  0  0  0  0  0  0  0  0  0
    6.7345   18.5822    1.0716 N   0  0  0  0  0  0  0  0  0  0  0  0
    4.1690   15.3010    3.1474 N   0  0  0  0  0  0  0  0  0  0  0  0
    6.2500   18.4864    5.8674 N   0  0  0  0  0  0  0  0  0  0  0  0
    6.0316   19.2130    0.6908 H   0  0  0  0  0  0  0  0  0  0  0  0
    7.0750   17.9371    0.3656 H   0  0  0  0  0  0  0  0  0  0  0  0
    3.1809   15.4945    3.0287 H   0  0  0  0  0  0  0  0  0  0  0  0
    4.5173   14.7142    2.3870 H   0  0  0  0  0  0  0  0  0  0  0  0
    6.7305   17.8767    6.5291 H   0  0  0  0  0  0  0  0  0  0  0  0
    5.5299   19.0391    6.3187 H   0  0  0  0  0  0  0  0  0  0  0  0
  1  2  2  0  0  0  0
  1  7  1  0  0  0  0
  2  3  1  0  0  0  0
  2 10  1  0  0  0  0
  3  4  1  0  0  0  0
  3  5  2  0  0  0  0
  5  6  1  0  0  0  0
  5  9  1  0  0  0  0
  6  7  2  0  0  0  0
  7  8  1  0  0  0  0
  8 11  1  0  0  0  0
  8 12  1  0  0  0  0
  9 13  1  0  0  0  0
  9 14  1  0  0  0  0
 10 15  1  0  0  0  0
 10 16  1  0  0  0  0
M  CHG  1   3   1
M  END
>  <CHROM.0>
-55.94644965,60.18365390,-66.57767181,-46.46887931,-55.22453985,-61.08286492
-68.91411335,-54.17780701,-168.10877997

>  <CHROM.1>
-120.41990524,91.38542712,-92.80563809,5.72837788,17.43558513,3.36403563
-1.64175449,-0.93448277,-1.69064162

>  <Name>
2,4,6-triaminopyrimidine

>  <RI>
3.51561e+07

>  <Rbt.Current_Directory>
/home/fstefaniak/projects/zuza/docking/adenine/4XNR

>  <Rbt.Executable>
rbdock ($Id: //depot/dev/client3/rdock/2013.1/src/exe/rbdock.cxx#4 $)

>  <Rbt.Library>
libRbt.so (2013.1, Build901 2013/11/27)

>  <Rbt.Parameter_File>
/home/fstefaniak/progs/rDock//data/scripts/dock_solv.prm

>  <Rbt.Receptor>
4xnr.prm

>  <SCORE>
-60.6436

>  <SCORE.INTER>
-40.5611

>  <SCORE.INTER.CONST>
1

>  <SCORE.INTER.POLAR>
-6.72688

>  <SCORE.INTER.ROT>
3

>  <SCORE.INTER.SOLV>
19.7596

>  <SCORE.INTER.VDW>
-16.8043

>  <SCORE.INTER.norm>
-4.50679

>  <SCORE.INTRA>
-0.151185

>  <SCORE.INTRA.DIHEDRAL>
-0.013156

>  <SCORE.INTRA.DIHEDRAL.0>
1.50958

>  <SCORE.INTRA.POLAR>
0

>  <SCORE.INTRA.POLAR.0>
0

>  <SCORE.INTRA.REPUL>
0

>  <SCORE.INTRA.REPUL.0>
0

>  <SCORE.INTRA.SOLV>
-0.00553413

>  <SCORE.INTRA.SOLV.lig_0>
-35.25

>  <SCORE.INTRA.VDW>
-0.14184

>  <SCORE.INTRA.VDW.0>
-0.396343

>  <SCORE.INTRA.norm>
-0.0167984

>  <SCORE.RESTR>
0

>  <SCORE.RESTR.CAVITY>
0

>  <SCORE.RESTR.norm>
0

>  <SCORE.SYSTEM>
-19.9313

>  <SCORE.SYSTEM.CONST>
0

>  <SCORE.SYSTEM.DIHEDRAL>
4.49132

>  <SCORE.SYSTEM.POLAR>
-3.03689

>  <SCORE.SYSTEM.SOLV>
0.374153

>  <SCORE.SYSTEM.VDW>
-4.7864

>  <SCORE.SYSTEM.norm>
-2.21459

>  <SCORE.heavy>
9

>  <SCORE.norm>
-6.73818

$$$$
2,6-diaminopurine
 OpenBabel12072022113D
libRbt.so/2013.1/901 2013/11/27
 16 17  0  0  0  0  0  0  0  0999 V2000
    5.9636   18.9107    6.2180 C   0  0  0  0  0  0  0  0  0  0  0  0
    6.6013   19.6361    5.2475 N   0  0  0  0  0  0  0  0  0  0  0  0
    7.0291   20.5442    5.3479 H   0  0  0  0  0  0  0  0  0  0  0  0
    6.5497   18.9109    4.0934 C   0  0  0  0  0  0  0  0  0  0  0  0
    5.8775   17.7508    4.4256 C   0  0  0  0  0  0  0  0  0  0  0  0
    5.5094   17.7640    5.7564 N   0  0  0  0  0  0  0  0  0  0  0  0
    5.6963   16.8259    3.3881 C   0  0  0  0  0  0  0  0  0  0  0  0
    6.1616   17.1414    2.1563 N   0  0  0  0  0  0  0  0  0  0  0  0
    6.7907   18.3172    1.9706 C   0  0  0  0  0  0  0  0  0  0  0  0
    7.0429   19.2555    2.8979 N   0  0  0  0  0  0  0  0  0  0  0  0
    7.2645   18.5620    0.6952 N   0  0  0  0  0  0  0  0  0  0  0  0
    5.0447   15.6084    3.5564 N   0  0  0  0  0  0  0  0  0  0  0  0
    7.0208   17.7835    0.0976 H   0  0  0  0  0  0  0  0  0  0  0  0
    8.2391   18.8232    0.7376 H   0  0  0  0  0  0  0  0  0  0  0  0
    5.4033   14.8800    2.9484 H   0  0  0  0  0  0  0  0  0  0  0  0
    4.9254   15.3816    4.5351 H   0  0  0  0  0  0  0  0  0  0  0  0
  1  2  1  0  0  0  0
  1  6  2  0  0  0  0
  2  3  1  0  0  0  0
  2  4  1  0  0  0  0
  4  5  2  0  0  0  0
  4 10  1  0  0  0  0
  5  6  1  0  0  0  0
  5  7  1  0  0  0  0
  7  8  2  0  0  0  0
  7 12  1  0  0  0  0
  8  9  1  0  0  0  0
  9 10  2  0  0  0  0
  9 11  1  0  0  0  0
 11 13  1  0  0  0  0
 11 14  1  0  0  0  0
 12 15  1  0  0  0  0
 12 16  1  0  0  0  0
M  END
>  <CHROM.0>
-55.14669032,-175.78174476,-66.12240023,-46.73304167,-64.94266341,-63.96753677
-69.14549019,-59.80897814,-168.29963915

>  <CHROM.1>
-148.69158365,1.40854101,6.23908163,18.04293098,3.63575995,-2.00216786,-1.05757920
-2.07451805

>  <Name>
2,6-diaminopurine

>  <RI>
3.51561e+07

>  <Rbt.Current_Directory>
/home/fstefaniak/projects/zuza/docking/adenine/4XNR

>  <Rbt.Executable>
rbdock ($Id: //depot/dev/client3/rdock/2013.1/src/exe/rbdock.cxx#4 $)

>  <Rbt.Library>
libRbt.so (2013.1, Build901 2013/11/27)

>  <Rbt.Parameter_File>
/home/fstefaniak/progs/rDock//data/scripts/dock_solv.prm

>  <Rbt.Receptor>
4xnr.prm

>  <SCORE>
-77.0504

>  <SCORE.INTER>
-56.3502

>  <SCORE.INTER.CONST>
1

>  <SCORE.INTER.POLAR>
-7.36274

>  <SCORE.INTER.ROT>
2

>  <SCORE.INTER.SOLV>
16.325

>  <SCORE.INTER.VDW>
-23.3994

>  <SCORE.INTER.norm>
-5.12275

>  <SCORE.INTRA>
0.0430262

>  <SCORE.INTRA.DIHEDRAL>
0.0404368

>  <SCORE.INTRA.DIHEDRAL.0>
0.924116

>  <SCORE.INTRA.POLAR>
0

>  <SCORE.INTRA.POLAR.0>
0

>  <SCORE.INTRA.REPUL>
0

>  <SCORE.INTRA.REPUL.0>
0

>  <SCORE.INTRA.SOLV>
-0.00617175

>  <SCORE.INTRA.SOLV.lig_0>
-19.4041

>  <SCORE.INTRA.VDW>
0.0258937

>  <SCORE.INTRA.VDW.0>
-0.225225

>  <SCORE.INTRA.norm>
0.00391148

>  <SCORE.RESTR>
0

>  <SCORE.RESTR.CAVITY>
0

>  <SCORE.RESTR.norm>
0

>  <SCORE.SYSTEM>
-20.7432

>  <SCORE.SYSTEM.CONST>
0

>  <SCORE.SYSTEM.DIHEDRAL>
4.47265

>  <SCORE.SYSTEM.POLAR>
-3.01531

>  <SCORE.SYSTEM.SOLV>
0.250646

>  <SCORE.SYSTEM.VDW>
-5.35218

>  <SCORE.SYSTEM.norm>
-1.88574

>  <SCORE.heavy>
11

>  <SCORE.norm>
-7.00458

$$$$
2,6-diaminopurine
 OpenBabel12072022113D
libRbt.so/2013.1/901 2013/11/27
 16 17  0  0  0  0  0  0  0  0999 V2000
    6.0229   18.8630    6.2339 C   0  0  0  0  0  0  0  0  0  0  0  0
    6.6502   19.5968    5.2629 N   0  0  0  0  0  0  0  0  0  0  0  0
    7.0899   20.4985    5.3694 H   0  0  0  0  0  0  0  0  0  0  0  0
    6.5688   18.8906    4.0988 C   0  0  0  0  0  0  0  0  0  0  0  0
    5.8902   17.7327    4.4255 C   0  0  0  0  0  0  0  0  0  0  0  0
    5.5473   17.7287    5.7630 N   0  0  0  0  0  0  0  0  0  0  0  0
    5.6792   16.8265    3.3772 C   0  0  0  0  0  0  0  0  0  0  0  0
    6.1247   17.1564    2.1419 N   0  0  0  0  0  0  0  0  0  0  0  0
    6.7632   18.3281    1.9627 C   0  0  0  0  0  0  0  0  0  0  0  0
    7.0432   19.2488    2.8996 N   0  0  0  0  0  0  0  0  0  0  0  0
    7.2156   18.5880    0.6826 N   0  0  0  0  0  0  0  0  0  0  0  0
    5.0173   15.6135    3.5387 N   0  0  0  0  0  0  0  0  0  0  0  0
    6.9592   17.8180    0.0794 H   0  0  0  0  0  0  0  0  0  0  0  0
    8.1917   18.8459    0.7114 H   0  0  0  0  0  0  0  0  0  0  0  0
    5.3720   14.8847    2.9291 H   0  0  0  0  0  0  0  0  0  0  0  0
    4.8931   15.3839    4.5162 H   0  0  0  0  0  0  0  0  0  0  0  0
  1  2  1  0  0  0  0
  1  6  2  0  0  0  0
  2  3  1  0  0  0  0
  2  4  1  0  0  0  0
  4  5  2  0  0  0  0
  4 10  1  0  0  0  0
  5  6  1  0  0  0  0
  5  7  1  0  0  0  0
  7  8  2  0  0  0  0
  7 12  1  0  0  0  0
  8  9  1  0  0  0  0
  9 10  2  0  0  0  0
  9 11  1  0  0  0  0
 11 13  1  0  0  0  0
 11 14  1  0  0  0  0
 12 15  1  0  0  0  0
 12 16  1  0  0  0  0
M  END
>  <CHROM.0>
-55.66974309,-174.32260849,-66.14916087,-47.60638245,-57.57968783,-174.60054128
-69.89383118,-62.08851727,-167.65913304

>  <CHROM.1>
-147.24435285,0.91297068,6.24002817,18.03348641,3.63370587,-1.95828205,-1.05645355
-2.02019606

>  <Name>
2,6-diaminopurine

>  <RI>
3.51561e+07

>  <Rbt.Current_Directory>
/home/fstefaniak/projects/zuza/docking/adenine/4XNR

>  <Rbt.Executable>
rbdock ($Id: //depot/dev/client3/rdock/2013.1/src/exe/rbdock.cxx#4 $)

>  <Rbt.Library>
libRbt.so (2013.1, Build901 2013/11/27)

>  <Rbt.Parameter_File>
/home/fstefaniak/progs/rDock//data/scripts/dock_solv.prm

>  <Rbt.Receptor>
4xnr.prm

>  <SCORE>
-76.8242

>  <SCORE.INTER>
-56.3798

>  <SCORE.INTER.CONST>
1

>  <SCORE.INTER.POLAR>
-7.38112

>  <SCORE.INTER.ROT>
2

>  <SCORE.INTER.SOLV>
16.1656

>  <SCORE.INTER.VDW>
-23.3047

>  <SCORE.INTER.norm>
-5.12544

>  <SCORE.INTRA>
0.0436738

>  <SCORE.INTRA.DIHEDRAL>
0.0393868

>  <SCORE.INTRA.DIHEDRAL.0>
0.924116

>  <SCORE.INTRA.POLAR>
0

>  <SCORE.INTRA.POLAR.0>
0

>  <SCORE.INTRA.REPUL>
0

>  <SCORE.INTRA.REPUL.0>
0

>  <SCORE.INTRA.SOLV>
-0.0068993

>  <SCORE.INTRA.SOLV.lig_0>
-19.4041

>  <SCORE.INTRA.VDW>
0.02743

>  <SCORE.INTRA.VDW.0>
-0.225225

>  <SCORE.INTRA.norm>
0.00397034

>  <SCORE.RESTR>
0

>  <SCORE.RESTR.CAVITY>
0

>  <SCORE.RESTR.norm>
0

>  <SCORE.SYSTEM>
-20.4881

>  <SCORE.SYSTEM.CONST>
0

>  <SCORE.SYSTEM.DIHEDRAL>
4.54551

>  <SCORE.SYSTEM.POLAR>
-3.00195

>  <SCORE.SYSTEM.SOLV>
0.144128

>  <SCORE.SYSTEM.VDW>
-5.21542

>  <SCORE.SYSTEM.norm>
-1.86255

>  <SCORE.heavy>
11

>  <SCORE.norm>
-6.98402

$$$$
2,6-diaminopurine
 OpenBabel12072022113D
libRbt.so/2013.1/901 2013/11/27
 16 17  0  0  0  0  0  0  0  0999 V2000
    5.9932   18.8664    6.1939 C   0  0  0  0  0  0  0  0  0  0  0  0
    6.6613   19.5775    5.2335 N   0  0  0  0  0  0  0  0  0  0  0  0
    7.1281   20.4647    5.3467 H   0  0  0  0  0  0  0  0  0  0  0  0
    6.5779   18.8722    4.0690 C   0  0  0  0  0  0  0  0  0  0  0  0
    5.8562   17.7376    4.3849 C   0  0  0  0  0  0  0  0  0  0  0  0
    5.4895   17.7472    5.7160 N   0  0  0  0  0  0  0  0  0  0  0  0
    5.6348   16.8367    3.3341 C   0  0  0  0  0  0  0  0  0  0  0  0
    6.1128   17.1497    2.1066 N   0  0  0  0  0  0  0  0  0  0  0  0
    6.7922   18.2998    1.9375 C   0  0  0  0  0  0  0  0  0  0  0  0
    7.0851   19.2126    2.8781 N   0  0  0  0  0  0  0  0  0  0  0  0
    7.2757   18.5424    0.6653 N   0  0  0  0  0  0  0  0  0  0  0  0
    4.9310   15.6463    3.4853 N   0  0  0  0  0  0  0  0  0  0  0  0
    7.0775   17.7429    0.0789 H   0  0  0  0  0  0  0  0  0  0  0  0
    8.2367   18.8486    0.7182 H   0  0  0  0  0  0  0  0  0  0  0  0
    3.9255   15.7726    3.4431 H   0  0  0  0  0  0  0  0  0  0  0  0
    5.3311   14.9032    2.9271 H   0  0  0  0  0  0  0  0  0  0  0  0
  1  2  1  0  0  0  0
  1  6  2  0  0  0  0
  2  3  1  0  0  0  0
  2  4  1  0  0  0  0
  4  5  2  0  0  0  0
  4 10  1  0  0  0  0
  5  6  1  0  0  0  0
  5  7  1  0  0  0  0
  7  8  2  0  0  0  0
  7 12  1  0  0  0  0
  8  9  1  0  0  0  0
  9 10  2  0  0  0  0
  9 11  1  0  0  0  0
 11 13  1  0  0  0  0
 11 14  1  0  0  0  0
 12 15  1  0  0  0  0
 12 16  1  0  0  0  0
M  END
>  <CHROM.0>
-55.88768595,-177.48394217,-67.61686380,-41.13816022,-57.32516148,-67.26236882
-67.61236408,-57.30365078,-168.30965521

>  <CHROM.1>
82.05980396,-4.11141323,6.22479250,18.02801521,3.59276762,-1.94417818,-1.00752953
-2.01780928

>  <Name>
2,6-diaminopurine

>  <RI>
3.51561e+07

>  <Rbt.Current_Directory>
/home/fstefaniak/projects/zuza/docking/adenine/4XNR

>  <Rbt.Executable>
rbdock ($Id: //depot/dev/client3/rdock/2013.1/src/exe/rbdock.cxx#4 $)

>  <Rbt.Library>
libRbt.so (2013.1, Build901 2013/11/27)

>  <Rbt.Parameter_File>
/home/fstefaniak/progs/rDock//data/scripts/dock_solv.prm

>  <Rbt.Receptor>
4xnr.prm

>  <SCORE>
-76.5103

>  <SCORE.INTER>
-55.9874

>  <SCORE.INTER.CONST>
1

>  <SCORE.INTER.POLAR>
-7.41594

>  <SCORE.INTER.ROT>
2

>  <SCORE.INTER.SOLV>
15.9263

>  <SCORE.INTER.VDW>
-22.8472

>  <SCORE.INTER.norm>
-5.08976

>  <SCORE.INTRA>
-0.0177078

>  <SCORE.INTRA.DIHEDRAL>
0.0351896

>  <SCORE.INTRA.DIHEDRAL.0>
0.924116

>  <SCORE.INTRA.POLAR>
0

>  <SCORE.INTRA.POLAR.0>
0

>  <SCORE.INTRA.REPUL>
0

>  <SCORE.INTRA.REPUL.0>
0

>  <SCORE.INTRA.SOLV>
0.012378

>  <SCORE.INTRA.SOLV.lig_0>
-19.4041

>  <SCORE.INTRA.VDW>
-0.0414916

>  <SCORE.INTRA.VDW.0>
-0.225225

>  <SCORE.INTRA.norm>
-0.0016098

>  <SCORE.RESTR>
0

>  <SCORE.RESTR.CAVITY>
0

>  <SCORE.RESTR.norm>
0

>  <SCORE.SYSTEM>
-20.5052

>  <SCORE.SYSTEM.CONST>
0

>  <SCORE.SYSTEM.DIHEDRAL>
5.24838

>  <SCORE.SYSTEM.POLAR>
-3.10017

>  <SCORE.SYSTEM.SOLV>
0.269324

>  <SCORE.SYSTEM.VDW>
-5.17545

>  <SCORE.SYSTEM.norm>
-1.86411

>  <SCORE.heavy>
11

>  <SCORE.norm>
-6.95548

$$$$
2-aminopurine
 OpenBabel12072022113D
libRbt.so/2013.1/901 2013/11/27
 13 14  0  0  0  0  0  0  0  0999 V2000
    5.6004   16.8990    3.3878 C   0  0  0  0  0  0  0  0  0  0  0  0
    5.8131   17.7877    4.4317 C   0  0  0  0  0  0  0  0  0  0  0  0
    6.5384   18.9213    4.1137 C   0  0  0  0  0  0  0  0  0  0  0  0
    6.6159   19.6302    5.2764 N   0  0  0  0  0  0  0  0  0  0  0  0
    7.0790   20.5193    5.3888 H   0  0  0  0  0  0  0  0  0  0  0  0
    5.9509   18.9158    6.2365 C   0  0  0  0  0  0  0  0  0  0  0  0
    5.4548   17.7929    5.7586 N   0  0  0  0  0  0  0  0  0  0  0  0
    7.0547   19.2575    2.9240 N   0  0  0  0  0  0  0  0  0  0  0  0
    6.7745   18.3409    1.9831 C   0  0  0  0  0  0  0  0  0  0  0  0
    6.0988   17.1888    2.1561 N   0  0  0  0  0  0  0  0  0  0  0  0
    7.2695   18.5748    0.7154 N   0  0  0  0  0  0  0  0  0  0  0  0
    8.2287   18.8852    0.7724 H   0  0  0  0  0  0  0  0  0  0  0  0
    7.0733   17.7762    0.1278 H   0  0  0  0  0  0  0  0  0  0  0  0
  1  2  2  0  0  0  0
  1 10  1  0  0  0  0
  2  3  1  0  0  0  0
  2  7  1  0  0  0  0
  3  4  1  0  0  0  0
  3  8  2  0  0  0  0
  4  5  1  0  0  0  0
  4  6  1  0  0  0  0
  6  7  2  0  0  0  0
  8  9  1  0  0  0  0
  9 10  2  0  0  0  0
  9 11  1  0  0  0  0
 11 12  1  0  0  0  0
 11 13  1  0  0  0  0
M  END
>  <CHROM.0>
-59.57223139,-175.37161960,-65.24022906,-48.19892387,-58.26014217,-62.66406554
-69.96364012,-61.37897102,-168.25498429

>  <CHROM.1>
44.11806932,6.34803472,18.35254287,3.65456101,1.15886673,-1.00456370,-2.02732999

>  <Name>
2-aminopurine

>  <RI>
3.51561e+07

>  <Rbt.Current_Directory>
/home/fstefaniak/projects/zuza/docking/adenine/4XNR

>  <Rbt.Executable>
rbdock ($Id: //depot/dev/client3/rdock/2013.1/src/exe/rbdock.cxx#4 $)

>  <Rbt.Library>
libRbt.so (2013.1, Build901 2013/11/27)

>  <Rbt.Parameter_File>
/home/fstefaniak/progs/rDock//data/scripts/dock_solv.prm

>  <Rbt.Receptor>
4xnr.prm

>  <SCORE>
-71.1365

>  <SCORE.INTER>
-50.3712

>  <SCORE.INTER.CONST>
1

>  <SCORE.INTER.POLAR>
-6.41536

>  <SCORE.INTER.ROT>
1

>  <SCORE.INTER.SOLV>
13.9566

>  <SCORE.INTER.VDW>
-21.1151

>  <SCORE.INTER.norm>
-5.03712

>  <SCORE.INTRA>
0.00794803

>  <SCORE.INTRA.DIHEDRAL>
0.0141377

>  <SCORE.INTRA.DIHEDRAL.0>
0.452546

>  <SCORE.INTRA.POLAR>
0

>  <SCORE.INTRA.POLAR.0>
0

>  <SCORE.INTRA.REPUL>
0

>  <SCORE.INTRA.REPUL.0>
0

>  <SCORE.INTRA.SOLV>
0.00153547

>  <SCORE.INTRA.SOLV.lig_0>
-16.2208

>  <SCORE.INTRA.VDW>
0.000111464

>  <SCORE.INTRA.VDW.0>
-0.0899246

>  <SCORE.INTRA.norm>
0.000794803

>  <SCORE.RESTR>
0

>  <SCORE.RESTR.CAVITY>
0

>  <SCORE.RESTR.norm>
0

>  <SCORE.SYSTEM>
-20.7733

>  <SCORE.SYSTEM.CONST>
0

>  <SCORE.SYSTEM.DIHEDRAL>
4.12024

>  <SCORE.SYSTEM.POLAR>
-2.95984

>  <SCORE.SYSTEM.SOLV>
0.249565

>  <SCORE.SYSTEM.VDW>
-5.43932

>  <SCORE.SYSTEM.norm>
-2.07733

>  <SCORE.heavy>
10

>  <SCORE.norm>
-7.11365

$$$$
2-aminopurine
 OpenBabel12072022113D
libRbt.so/2013.1/901 2013/11/27
 13 14  0  0  0  0  0  0  0  0999 V2000
    5.5772   16.9027    3.3961 C   0  0  0  0  0  0  0  0  0  0  0  0
    5.8037   17.7893    4.4388 C   0  0  0  0  0  0  0  0  0  0  0  0
    6.5273   18.9221    4.1142 C   0  0  0  0  0  0  0  0  0  0  0  0
    6.6196   19.6290    5.2770 N   0  0  0  0  0  0  0  0  0  0  0  0
    7.0856   20.5171    5.3853 H   0  0  0  0  0  0  0  0  0  0  0  0
    5.9645   18.9143    6.2436 C   0  0  0  0  0  0  0  0  0  0  0  0
    5.4607   17.7932    5.7699 N   0  0  0  0  0  0  0  0  0  0  0  0
    7.0304   19.2592    2.9191 N   0  0  0  0  0  0  0  0  0  0  0  0
    6.7376   18.3446    1.9801 C   0  0  0  0  0  0  0  0  0  0  0  0
    6.0618   17.1935    2.1592 N   0  0  0  0  0  0  0  0  0  0  0  0
    7.2183   18.5795    0.7071 N   0  0  0  0  0  0  0  0  0  0  0  0
    8.1940   18.8360    0.7497 H   0  0  0  0  0  0  0  0  0  0  0  0
    6.9664   17.8061    0.1072 H   0  0  0  0  0  0  0  0  0  0  0  0
  1  2  2  0  0  0  0
  1 10  1  0  0  0  0
  2  3  1  0  0  0  0
  2  7  1  0  0  0  0
  3  4  1  0  0  0  0
  3  8  2  0  0  0  0
  4  5  1  0  0  0  0
  4  6  1  0  0  0  0
  6  7  2  0  0  0  0
  8  9  1  0  0  0  0
  9 10  2  0  0  0  0
  9 11  1  0  0  0  0
 11 12  1  0  0  0  0
 11 13  1  0  0  0  0
M  END
>  <CHROM.0>
-62.65385574,-177.44870825,-74.60212688,-46.48891446,-176.12303852,-64.62080998
-173.70930343,-60.47917783,-168.03431899

>  <CHROM.1>
47.40192052,6.33032663,18.35420790,3.65627909,1.18070723,-1.00771459,-2.00750972

>  <Name>
2-aminopurine

>  <RI>
3.51561e+07

>  <Rbt.Current_Directory>
/home/fstefaniak/projects/zuza/docking/adenine/4XNR

>  <Rbt.Executable>
rbdock ($Id: //depot/dev/client3/rdock/2013.1/src/exe/rbdock.cxx#4 $)

>  <Rbt.Library>
libRbt.so (2013.1, Build901 2013/11/27)

>  <Rbt.Parameter_File>
/home/fstefaniak/progs/rDock//data/scripts/dock_solv.prm

>  <Rbt.Receptor>
4xnr.prm

>  <SCORE>
-70.6865

>  <SCORE.INTER>
-50.4187

>  <SCORE.INTER.CONST>
1

>  <SCORE.INTER.POLAR>
-6.4203

>  <SCORE.INTER.ROT>
1

>  <SCORE.INTER.SOLV>
13.9051

>  <SCORE.INTER.VDW>
-21.1132

>  <SCORE.INTER.norm>
-5.04187

>  <SCORE.INTRA>
0.0102501

>  <SCORE.INTRA.DIHEDRAL>
0.0184542

>  <SCORE.INTRA.DIHEDRAL.0>
0.452546

>  <SCORE.INTRA.POLAR>
0

>  <SCORE.INTRA.POLAR.0>
0

>  <SCORE.INTRA.REPUL>
0

>  <SCORE.INTRA.REPUL.0>
0

>  <SCORE.INTRA.SOLV>
0.00155986

>  <SCORE.INTRA.SOLV.lig_0>
-16.2208

>  <SCORE.INTRA.VDW>
0.000243093

>  <SCORE.INTRA.VDW.0>
-0.0899246

>  <SCORE.INTRA.norm>
0.00102501

>  <SCORE.RESTR>
0

>  <SCORE.RESTR.CAVITY>
0

>  <SCORE.RESTR.norm>
0

>  <SCORE.SYSTEM>
-20.2781

>  <SCORE.SYSTEM.CONST>
0

>  <SCORE.SYSTEM.DIHEDRAL>
4.94411

>  <SCORE.SYSTEM.POLAR>
-2.94347

>  <SCORE.SYSTEM.SOLV>
0.0183465

>  <SCORE.SYSTEM.VDW>
-5.36129

>  <SCORE.SYSTEM.norm>
-2.02781

>  <SCORE.heavy>
10

>  <SCORE.norm>
-7.06865

$$$$
2-aminopurine
 OpenBabel12072022113D
libRbt.so/2013.1/901 2013/11/27
 13 14  0  0  0  0  0  0  0  0999 V2000
    5.5657   16.9078    3.3691 C   0  0  0  0  0  0  0  0  0  0  0  0
    5.8043   17.7782    4.4228 C   0  0  0  0  0  0  0  0  0  0  0  0
    6.5508   18.9006    4.1143 C   0  0  0  0  0  0  0  0  0  0  0  0
    6.6513   19.5924    5.2854 N   0  0  0  0  0  0  0  0  0  0  0  0
    7.1336   20.4701    5.4059 H   0  0  0  0  0  0  0  0  0  0  0  0
    5.9782   18.8794    6.2410 C   0  0  0  0  0  0  0  0  0  0  0  0
    5.4554   17.7735    5.7523 N   0  0  0  0  0  0  0  0  0  0  0  0
    7.0657   19.2415    2.9253 N   0  0  0  0  0  0  0  0  0  0  0  0
    6.7598   18.3433    1.9747 C   0  0  0  0  0  0  0  0  0  0  0  0
    6.0614   17.2034    2.1377 N   0  0  0  0  0  0  0  0  0  0  0  0
    7.2507   18.5834    0.7065 N   0  0  0  0  0  0  0  0  0  0  0  0
    8.2082   18.8990    0.7623 H   0  0  0  0  0  0  0  0  0  0  0  0
    7.0576   17.7853    0.1172 H   0  0  0  0  0  0  0  0  0  0  0  0
  1  2  2  0  0  0  0
  1 10  1  0  0  0  0
  2  3  1  0  0  0  0
  2  7  1  0  0  0  0
  3  4  1  0  0  0  0
  3  8  2  0  0  0  0
  4  5  1  0  0  0  0
  4  6  1  0  0  0  0
  6  7  2  0  0  0  0
  8  9  1  0  0  0  0
  9 10  2  0  0  0  0
  9 11  1  0  0  0  0
 11 12  1  0  0  0  0
 11 13  1  0  0  0  0
M  END
>  <CHROM.0>
-55.84481620,-176.37810634,-73.20115652,-48.76897422,-61.25859623,-65.96627347
-172.70088457,-62.23192313,-168.08093472

>  <CHROM.1>
42.46757495,6.34548430,18.34203120,3.64927691,1.18668514,-0.98883721,-1.99086180

>  <Name>
2-aminopurine

>  <RI>
3.51561e+07

>  <Rbt.Current_Directory>
/home/fstefaniak/projects/zuza/docking/adenine/4XNR

>  <Rbt.Executable>
rbdock ($Id: //depot/dev/client3/rdock/2013.1/src/exe/rbdock.cxx#4 $)

>  <Rbt.Library>
libRbt.so (2013.1, Build901 2013/11/27)

>  <Rbt.Parameter_File>
/home/fstefaniak/progs/rDock//data/scripts/dock_solv.prm

>  <Rbt.Receptor>
4xnr.prm

>  <SCORE>
-70.5342

>  <SCORE.INTER>
-50.3322

>  <SCORE.INTER.CONST>
1

>  <SCORE.INTER.POLAR>
-6.43148

>  <SCORE.INTER.ROT>
1

>  <SCORE.INTER.SOLV>
13.8552

>  <SCORE.INTER.VDW>
-21.0016

>  <SCORE.INTER.norm>
-5.03322

>  <SCORE.INTRA>
0.0068601

>  <SCORE.INTRA.DIHEDRAL>
0.0121089

>  <SCORE.INTRA.DIHEDRAL.0>
0.452546

>  <SCORE.INTRA.POLAR>
0

>  <SCORE.INTRA.POLAR.0>
0

>  <SCORE.INTRA.REPUL>
0

>  <SCORE.INTRA.REPUL.0>
0

>  <SCORE.INTRA.SOLV>
0.00149792

>  <SCORE.INTRA.SOLV.lig_0>
-16.2208

>  <SCORE.INTRA.VDW>
5.66977e-05

>  <SCORE.INTRA.VDW.0>
-0.0899246

>  <SCORE.INTRA.norm>
0.00068601

>  <SCORE.RESTR>
0

>  <SCORE.RESTR.CAVITY>
0

>  <SCORE.RESTR.norm>
0

>  <SCORE.SYSTEM>
-20.2089

>  <SCORE.SYSTEM.CONST>
0

>  <SCORE.SYSTEM.DIHEDRAL>
4.68894

>  <SCORE.SYSTEM.POLAR>
-2.95762

>  <SCORE.SYSTEM.SOLV>
0.191594

>  <SCORE.SYSTEM.VDW>
-5.24071

>  <SCORE.SYSTEM.norm>
-2.02089

>  <SCORE.heavy>
10

>  <SCORE.norm>
-7.05342

$$$$
2-chloroadenine
 OpenBabel12072022113D
libRbt.so/2013.1/901 2013/11/27
 14 15  0  0  0  0  0  0  0  0999 V2000
    5.9905   19.0168    6.5165 C   0  0  0  0  0  0  0  0  0  0  0  0
    6.6926   19.6459    5.5236 N   0  0  0  0  0  0  0  0  0  0  0  0
    7.2321   20.4950    5.6044 H   0  0  0  0  0  0  0  0  0  0  0  0
    6.5369   18.9117    4.3839 C   0  0  0  0  0  0  0  0  0  0  0  0
    5.7202   17.8534    4.7432 C   0  0  0  0  0  0  0  0  0  0  0  0
    5.3937   17.9263    6.0819 N   0  0  0  0  0  0  0  0  0  0  0  0
    5.3979   16.9352    3.7281 C   0  0  0  0  0  0  0  0  0  0  0  0
    5.9140   17.1269    2.4942 N   0  0  0  0  0  0  0  0  0  0  0  0
    6.6921   18.2119    2.3005 C   0  0  0  0  0  0  0  0  0  0  0  0
    7.0652   19.1654    3.1792 N   0  0  0  0  0  0  0  0  0  0  0  0
    7.3090   18.3985    0.7143 Cl  0  0  0  0  0  0  0  0  0  0  0  0
    4.5852   15.8292    3.9371 N   0  0  0  0  0  0  0  0  0  0  0  0
    3.9089   15.9508    4.6830 H   0  0  0  0  0  0  0  0  0  0  0  0
    5.0939   14.9557    3.8981 H   0  0  0  0  0  0  0  0  0  0  0  0
  1  2  1  0  0  0  0
  1  6  2  0  0  0  0
  2  3  1  0  0  0  0
  2  4  1  0  0  0  0
  4  5  2  0  0  0  0
  4 10  1  0  0  0  0
  5  6  1  0  0  0  0
  5  7  1  0  0  0  0
  7  8  2  0  0  0  0
  7 12  1  0  0  0  0
  8  9  1  0  0  0  0
  9 10  2  0  0  0  0
  9 11  1  0  0  0  0
 12 13  1  0  0  0  0
 12 14  1  0  0  0  0
M  END
>  <CHROM.0>
-56.65928904,-164.02399838,-66.33399412,-48.21178542,-58.27750735,-60.61713760
-68.71814494,-58.93848832,-168.12281818

>  <CHROM.1>
27.78311481,6.25818517,18.11439407,3.55988983,-2.06428528,-0.93855249,-1.99322990

>  <Name>
2-chloroadenine

>  <RI>
3.51561e+07

>  <Rbt.Current_Directory>
/home/fstefaniak/projects/zuza/docking/adenine/4XNR

>  <Rbt.Executable>
rbdock ($Id: //depot/dev/client3/rdock/2013.1/src/exe/rbdock.cxx#4 $)

>  <Rbt.Library>
libRbt.so (2013.1, Build901 2013/11/27)

>  <Rbt.Parameter_File>
/home/fstefaniak/progs/rDock//data/scripts/dock_solv.prm

>  <Rbt.Receptor>
4xnr.prm

>  <SCORE>
-66.2572

>  <SCORE.INTER>
-45.8882

>  <SCORE.INTER.CONST>
1

>  <SCORE.INTER.POLAR>
-5.16725

>  <SCORE.INTER.ROT>
1

>  <SCORE.INTER.SOLV>
13.4599

>  <SCORE.INTER.VDW>
-22.1213

>  <SCORE.INTER.norm>
-4.17166

>  <SCORE.INTRA>
-0.0376329

>  <SCORE.INTRA.DIHEDRAL>
0.0159969

>  <SCORE.INTRA.DIHEDRAL.0>
0.471229

>  <SCORE.INTRA.POLAR>
0

>  <SCORE.INTRA.POLAR.0>
0

>  <SCORE.INTRA.REPUL>
0

>  <SCORE.INTRA.REPUL.0>
0

>  <SCORE.INTRA.SOLV>
-0.0303961

>  <SCORE.INTRA.SOLV.lig_0>
-16.2646

>  <SCORE.INTRA.VDW>
-0.0304333

>  <SCORE.INTRA.VDW.0>
-0.134537

>  <SCORE.INTRA.norm>
-0.00342117

>  <SCORE.RESTR>
0

>  <SCORE.RESTR.CAVITY>
0

>  <SCORE.RESTR.norm>
0

>  <SCORE.SYSTEM>
-20.3314

>  <SCORE.SYSTEM.CONST>
0

>  <SCORE.SYSTEM.DIHEDRAL>
5.16089

>  <SCORE.SYSTEM.POLAR>
-2.98315

>  <SCORE.SYSTEM.SOLV>
0.257629

>  <SCORE.SYSTEM.VDW>
-5.41661

>  <SCORE.SYSTEM.norm>
-1.84831

>  <SCORE.heavy>
11

>  <SCORE.norm>
-6.02339

$$$$
2-chloroadenine
 OpenBabel12072022113D
libRbt.so/2013.1/901 2013/11/27
 14 15  0  0  0  0  0  0  0  0999 V2000
    5.9802   19.0351    6.5093 C   0  0  0  0  0  0  0  0  0  0  0  0
    6.6713   19.6708    5.5129 N   0  0  0  0  0  0  0  0  0  0  0  0
    7.1929   20.5316    5.5880 H   0  0  0  0  0  0  0  0  0  0  0  0
    6.5334   18.9246    4.3787 C   0  0  0  0  0  0  0  0  0  0  0  0
    5.7381   17.8524    4.7447 C   0  0  0  0  0  0  0  0  0  0  0  0
    5.4071   17.9291    6.0821 N   0  0  0  0  0  0  0  0  0  0  0  0
    5.4371   16.9197    3.7362 C   0  0  0  0  0  0  0  0  0  0  0  0
    5.9519   17.1123    2.5019 N   0  0  0  0  0  0  0  0  0  0  0  0
    6.7077   18.2117    2.3012 C   0  0  0  0  0  0  0  0  0  0  0  0
    7.0590   19.1797    3.1730 N   0  0  0  0  0  0  0  0  0  0  0  0
    7.3241   18.3986    0.7148 Cl  0  0  0  0  0  0  0  0  0  0  0  0
    4.6471   15.7988    3.9524 N   0  0  0  0  0  0  0  0  0  0  0  0
    3.9728   15.9092    4.7018 H   0  0  0  0  0  0  0  0  0  0  0  0
    5.1723   14.9352    3.9125 H   0  0  0  0  0  0  0  0  0  0  0  0
  1  2  1  0  0  0  0
  1  6  2  0  0  0  0
  2  3  1  0  0  0  0
  2  4  1  0  0  0  0
  4  5  2  0  0  0  0
  4 10  1  0  0  0  0
  5  6  1  0  0  0  0
  5  7  1  0  0  0  0
  7  8  2  0  0  0  0
  7 12  1  0  0  0  0
  8  9  1  0  0  0  0
  9 10  2  0  0  0  0
  9 11  1  0  0  0  0
 12 13  1  0  0  0  0
 12 14  1  0  0  0  0
M  END
>  <CHROM.0>
-57.93505879,-164.39485533,-65.77146257,-49.40310290,-64.24109148,-64.34619001
-65.01502801,-59.01963470,-168.17898283

>  <CHROM.1>
27.22977692,6.27314707,18.11517070,3.56043402,-2.08255603,-0.95655221,-2.01603281

>  <Name>
2-chloroadenine

>  <RI>
3.51561e+07

>  <Rbt.Current_Directory>
/home/fstefaniak/projects/zuza/docking/adenine/4XNR

>  <Rbt.Executable>
rbdock ($Id: //depot/dev/client3/rdock/2013.1/src/exe/rbdock.cxx#4 $)

>  <Rbt.Library>
libRbt.so (2013.1, Build901 2013/11/27)

>  <Rbt.Parameter_File>
/home/fstefaniak/progs/rDock//data/scripts/dock_solv.prm

>  <Rbt.Receptor>
4xnr.prm

>  <SCORE>
-66.2367

>  <SCORE.INTER>
-45.8344

>  <SCORE.INTER.CONST>
1

>  <SCORE.INTER.POLAR>
-5.15768

>  <SCORE.INTER.ROT>
1

>  <SCORE.INTER.SOLV>
13.5961

>  <SCORE.INTER.VDW>
-22.1627

>  <SCORE.INTER.norm>
-4.16676

>  <SCORE.INTRA>
-0.0366942

>  <SCORE.INTRA.DIHEDRAL>
0.0158496

>  <SCORE.INTRA.DIHEDRAL.0>
0.471229

>  <SCORE.INTRA.POLAR>
0

>  <SCORE.INTRA.POLAR.0>
0

>  <SCORE.INTRA.REPUL>
0

>  <SCORE.INTRA.REPUL.0>
0

>  <SCORE.INTRA.SOLV>
-0.0301662

>  <SCORE.INTRA.SOLV.lig_0>
-16.2646

>  <SCORE.INTRA.VDW>
-0.029536

>  <SCORE.INTRA.VDW.0>
-0.134537

>  <SCORE.INTRA.norm>
-0.00333584

>  <SCORE.RESTR>
0

>  <SCORE.RESTR.CAVITY>
0

>  <SCORE.RESTR.norm>
0

>  <SCORE.SYSTEM>
-20.3656

>  <SCORE.SYSTEM.CONST>
0

>  <SCORE.SYSTEM.DIHEDRAL>
4.84551

>  <SCORE.SYSTEM.POLAR>
-2.95037

>  <SCORE.SYSTEM.SOLV>
0.247516

>  <SCORE.SYSTEM.VDW>
-5.44016

>  <SCORE.SYSTEM.norm>
-1.85142

>  <SCORE.heavy>
11

>  <SCORE.norm>
-6.02151

$$$$
2-chloroadenine
 OpenBabel12072022113D
libRbt.so/2013.1/901 2013/11/27
 14 15  0  0  0  0  0  0  0  0999 V2000
    5.9666   19.0191    6.4901 C   0  0  0  0  0  0  0  0  0  0  0  0
    6.6435   19.6781    5.4991 N   0  0  0  0  0  0  0  0  0  0  0  0
    7.1662   20.5370    5.5870 H   0  0  0  0  0  0  0  0  0  0  0  0
    6.4896   18.9585    4.3499 C   0  0  0  0  0  0  0  0  0  0  0  0
    5.6995   17.8778    4.7020 C   0  0  0  0  0  0  0  0  0  0  0  0
    5.3875   17.9231    6.0454 N   0  0  0  0  0  0  0  0  0  0  0  0
    5.3843   16.9688    3.6764 C   0  0  0  0  0  0  0  0  0  0  0  0
    5.8816   17.1904    2.4398 N   0  0  0  0  0  0  0  0  0  0  0  0
    6.6345   18.2944    2.2541 C   0  0  0  0  0  0  0  0  0  0  0  0
    6.9981   19.2419    3.1432 N   0  0  0  0  0  0  0  0  0  0  0  0
    7.2284   18.5184    0.6640 Cl  0  0  0  0  0  0  0  0  0  0  0  0
    4.5974   15.8429    3.8775 N   0  0  0  0  0  0  0  0  0  0  0  0
    4.0558   15.8674    4.7345 H   0  0  0  0  0  0  0  0  0  0  0  0
    5.0769   14.9828    3.6457 H   0  0  0  0  0  0  0  0  0  0  0  0
  1  2  1  0  0  0  0
  1  6  2  0  0  0  0
  2  3  1  0  0  0  0
  2  4  1  0  0  0  0
  4  5  2  0  0  0  0
  4 10  1  0  0  0  0
  5  6  1  0  0  0  0
  5  7  1  0  0  0  0
  7  8  2  0  0  0  0
  7 12  1  0  0  0  0
  8  9  1  0  0  0  0
  9 10  2  0  0  0  0
  9 11  1  0  0  0  0
 12 13  1  0  0  0  0
 12 14  1  0  0  0  0
M  END
>  <CHROM.0>
-60.06977564,-165.27504067,-67.65018311,-48.89909750,-60.23496813,-63.19373572
-68.31919813,-61.66992851,-168.11593443

>  <CHROM.1>
16.74214581,6.21825141,18.16793488,3.51633502,-2.05984396,-0.96340146,-1.97492706

>  <Name>
2-chloroadenine

>  <RI>
3.51561e+07

>  <Rbt.Current_Directory>
/home/fstefaniak/projects/zuza/docking/adenine/4XNR

>  <Rbt.Executable>
rbdock ($Id: //depot/dev/client3/rdock/2013.1/src/exe/rbdock.cxx#4 $)

>  <Rbt.Library>
libRbt.so (2013.1, Build901 2013/11/27)

>  <Rbt.Parameter_File>
/home/fstefaniak/progs/rDock//data/scripts/dock_solv.prm

>  <Rbt.Receptor>
4xnr.prm

>  <SCORE>
-66.1497

>  <SCORE.INTER>
-45.659

>  <SCORE.INTER.CONST>
1

>  <SCORE.INTER.POLAR>
-5.1408

>  <SCORE.INTER.ROT>
1

>  <SCORE.INTER.SOLV>
13.4512

>  <SCORE.INTER.VDW>
-22.0537

>  <SCORE.INTER.norm>
-4.15082

>  <SCORE.INTRA>
-0.020063

>  <SCORE.INTRA.DIHEDRAL>
0.0121009

>  <SCORE.INTRA.DIHEDRAL.0>
0.471229

>  <SCORE.INTRA.POLAR>
0

>  <SCORE.INTRA.POLAR.0>
0

>  <SCORE.INTRA.REPUL>
0

>  <SCORE.INTRA.REPUL.0>
0

>  <SCORE.INTRA.SOLV>
-0.0249178

>  <SCORE.INTRA.SOLV.lig_0>
-16.2646

>  <SCORE.INTRA.VDW>
-0.0136546

>  <SCORE.INTRA.VDW.0>
-0.134537

>  <SCORE.INTRA.norm>
-0.00182391

>  <SCORE.RESTR>
0

>  <SCORE.RESTR.CAVITY>
0

>  <SCORE.RESTR.norm>
0

>  <SCORE.SYSTEM>
-20.4706

>  <SCORE.SYSTEM.CONST>
0

>  <SCORE.SYSTEM.DIHEDRAL>
4.96453

>  <SCORE.SYSTEM.POLAR>
-2.94064

>  <SCORE.SYSTEM.SOLV>
0.237896

>  <SCORE.SYSTEM.VDW>
-5.57909

>  <SCORE.SYSTEM.norm>
-1.86097

>  <SCORE.heavy>
11

>  <SCORE.norm>
-6.01361

$$$$
3-methyladenine
 OpenBabel12072022113D
libRbt.so/2013.1/901 2013/11/27
 13 14  0  0  0  0  0  0  0  0999 V2000
    3.9733   16.0286    3.6564 C   0  0  0  0  0  0  0  0  0  0  0  0
    5.0384   16.9136    4.0763 N   0  0  0  0  0  0  0  0  0  0  0  0
    5.2263   17.2700    5.3932 C   0  0  0  0  0  0  0  0  0  0  0  0
    6.1503   18.0657    5.8471 N   0  0  0  0  0  0  0  0  0  0  0  0
    7.0230   18.6326    4.9230 C   0  0  0  0  0  0  0  0  0  0  0  0
    6.9549   18.3474    3.6045 C   0  0  0  0  0  0  0  0  0  0  0  0
    7.6903   18.7292    2.5173 N   0  0  0  0  0  0  0  0  0  0  0  0
    7.0961   18.1034    1.5412 C   0  0  0  0  0  0  0  0  0  0  0  0
    6.0059   17.3020    1.8624 N   0  0  0  0  0  0  0  0  0  0  0  0
    5.8993   17.4379    3.1507 C   0  0  0  0  0  0  0  0  0  0  0  0
    8.0002   19.4929    5.3898 N   0  0  0  0  0  0  0  0  0  0  0  0
    7.8859   20.4072    4.9656 H   0  0  0  0  0  0  0  0  0  0  0  0
    8.0293   19.5063    6.4070 H   0  0  0  0  0  0  0  0  0  0  0  0
  1  2  1  0  0  0  0
  2  3  1  0  0  0  0
  2 10  1  0  0  0  0
  3  4  2  0  0  0  0
  4  5  1  0  0  0  0
  5  6  2  0  0  0  0
  5 11  1  0  0  0  0
  6  7  1  0  0  0  0
  6 10  1  0  0  0  0
  7  8  2  0  0  0  0
  8  9  1  0  0  0  0
  9 10  2  0  0  0  0
 11 12  1  0  0  0  0
 11 13  1  0  0  0  0
M  END
>  <CHROM.0>
-57.12325840,-63.48389956,-69.46169464,-47.93263259,-177.28782288,-63.46268942
-70.55670955,-64.46294260,-167.89045602

>  <CHROM.1>
-119.93713120,6.27240990,17.85396936,3.84039542,2.70568599,-0.66585722,-1.74140505

>  <Name>
3-methyladenine

>  <RI>
3.51561e+07

>  <Rbt.Current_Directory>
/home/fstefaniak/projects/zuza/docking/adenine/4XNR

>  <Rbt.Executable>
rbdock ($Id: //depot/dev/client3/rdock/2013.1/src/exe/rbdock.cxx#4 $)

>  <Rbt.Library>
libRbt.so (2013.1, Build901 2013/11/27)

>  <Rbt.Parameter_File>
/home/fstefaniak/progs/rDock//data/scripts/dock_solv.prm

>  <Rbt.Receptor>
4xnr.prm

>  <SCORE>
-60.252

>  <SCORE.INTER>
-39.1766

>  <SCORE.INTER.CONST>
1

>  <SCORE.INTER.POLAR>
-4.72603

>  <SCORE.INTER.ROT>
1

>  <SCORE.INTER.SOLV>
10.8052

>  <SCORE.INTER.VDW>
-18.2327

>  <SCORE.INTER.norm>
-3.56151

>  <SCORE.INTRA>
-0.118869

>  <SCORE.INTRA.DIHEDRAL>
0.0110252

>  <SCORE.INTRA.DIHEDRAL.0>
0.465519

>  <SCORE.INTRA.POLAR>
0

>  <SCORE.INTRA.POLAR.0>
0

>  <SCORE.INTRA.REPUL>
0

>  <SCORE.INTRA.REPUL.0>
0

>  <SCORE.INTRA.SOLV>
0.0139357

>  <SCORE.INTRA.SOLV.lig_0>
-9.50567

>  <SCORE.INTRA.VDW>
-0.13135

>  <SCORE.INTRA.VDW.0>
-0.0334473

>  <SCORE.INTRA.norm>
-0.0108063

>  <SCORE.RESTR>
0

>  <SCORE.RESTR.CAVITY>
0

>  <SCORE.RESTR.norm>
0

>  <SCORE.SYSTEM>
-20.9565

>  <SCORE.SYSTEM.CONST>
0

>  <SCORE.SYSTEM.DIHEDRAL>
4.62981

>  <SCORE.SYSTEM.POLAR>
-2.97355

>  <SCORE.SYSTEM.SOLV>
0.0853092

>  <SCORE.SYSTEM.VDW>
-5.63089

>  <SCORE.SYSTEM.norm>
-1.90514

>  <SCORE.heavy>
11

>  <SCORE.norm>
-5.47746

$$$$
3-methyladenine
 OpenBabel12072022113D
libRbt.so/2013.1/901 2013/11/27
 13 14  0  0  0  0  0  0  0  0999 V2000
    3.9601   16.0535    3.6035 C   0  0  0  0  0  0  0  0  0  0  0  0
    5.0325   16.9281    4.0265 N   0  0  0  0  0  0  0  0  0  0  0  0
    5.2207   17.2819    5.3440 C   0  0  0  0  0  0  0  0  0  0  0  0
    6.1511   18.0686    5.8005 N   0  0  0  0  0  0  0  0  0  0  0  0
    7.0312   18.6279    4.8789 C   0  0  0  0  0  0  0  0  0  0  0  0
    6.9635   18.3441    3.5600 C   0  0  0  0  0  0  0  0  0  0  0  0
    7.7049   18.7197    2.4748 N   0  0  0  0  0  0  0  0  0  0  0  0
    7.1072   18.1001    1.4969 C   0  0  0  0  0  0  0  0  0  0  0  0
    6.0088   17.3088    1.8150 N   0  0  0  0  0  0  0  0  0  0  0  0
    5.9004   17.4448    3.1032 C   0  0  0  0  0  0  0  0  0  0  0  0
    8.0154   19.4786    5.3485 N   0  0  0  0  0  0  0  0  0  0  0  0
    7.8790   20.4081    4.9658 H   0  0  0  0  0  0  0  0  0  0  0  0
    8.0777   19.4511    6.3639 H   0  0  0  0  0  0  0  0  0  0  0  0
  1  2  1  0  0  0  0
  2  3  1  0  0  0  0
  2 10  1  0  0  0  0
  3  4  2  0  0  0  0
  4  5  1  0  0  0  0
  5  6  2  0  0  0  0
  5 11  1  0  0  0  0
  6  7  1  0  0  0  0
  6 10  1  0  0  0  0
  7  8  2  0  0  0  0
  8  9  1  0  0  0  0
  9 10  2  0  0  0  0
 11 12  1  0  0  0  0
 11 13  1  0  0  0  0
M  END
>  <CHROM.0>
-56.70210579,-63.60104062,-66.62851978,-49.23300189,-174.08469535,-64.60212696
-67.43767228,-62.03325838,-168.11699162

>  <CHROM.1>
-116.70330121,6.27587468,17.85681325,3.79426123,2.70295383,-0.65600581,-1.74102346

>  <Name>
3-methyladenine

>  <RI>
3.51561e+07

>  <Rbt.Current_Directory>
/home/fstefaniak/projects/zuza/docking/adenine/4XNR

>  <Rbt.Executable>
rbdock ($Id: //depot/dev/client3/rdock/2013.1/src/exe/rbdock.cxx#4 $)

>  <Rbt.Library>
libRbt.so (2013.1, Build901 2013/11/27)

>  <Rbt.Parameter_File>
/home/fstefaniak/progs/rDock//data/scripts/dock_solv.prm

>  <Rbt.Receptor>
4xnr.prm

>  <SCORE>
-60.2183

>  <SCORE.INTER>
-39.1037

>  <SCORE.INTER.CONST>
1

>  <SCORE.INTER.POLAR>
-4.67343

>  <SCORE.INTER.ROT>
1

>  <SCORE.INTER.SOLV>
10.7539

>  <SCORE.INTER.VDW>
-18.3424

>  <SCORE.INTER.norm>
-3.55489

>  <SCORE.INTRA>
-0.126946

>  <SCORE.INTRA.DIHEDRAL>
0.00862397

>  <SCORE.INTRA.DIHEDRAL.0>
0.465519

>  <SCORE.INTRA.POLAR>
0

>  <SCORE.INTRA.POLAR.0>
0

>  <SCORE.INTRA.REPUL>
0

>  <SCORE.INTRA.REPUL.0>
0

>  <SCORE.INTRA.SOLV>
0.0148696

>  <SCORE.INTRA.SOLV.lig_0>
-9.50567

>  <SCORE.INTRA.VDW>
-0.138692

>  <SCORE.INTRA.VDW.0>
-0.0334473

>  <SCORE.INTRA.norm>
-0.0115405

>  <SCORE.RESTR>
0

>  <SCORE.RESTR.CAVITY>
0

>  <SCORE.RESTR.norm>
0

>  <SCORE.SYSTEM>
-20.9876

>  <SCORE.SYSTEM.CONST>
0

>  <SCORE.SYSTEM.DIHEDRAL>
4.13389

>  <SCORE.SYSTEM.POLAR>
-2.9613

>  <SCORE.SYSTEM.SOLV>
0.0981188

>  <SCORE.SYSTEM.VDW>
-5.53139

>  <SCORE.SYSTEM.norm>
-1.90796

>  <SCORE.heavy>
11

>  <SCORE.norm>
-5.47439

$$$$
3-methyladenine
 OpenBabel12072022113D
libRbt.so/2013.1/901 2013/11/27
 13 14  0  0  0  0  0  0  0  0999 V2000
    3.9597   16.0438    3.6470 C   0  0  0  0  0  0  0  0  0  0  0  0
    5.0288   16.9228    4.0691 N   0  0  0  0  0  0  0  0  0  0  0  0
    5.2150   17.2794    5.3861 C   0  0  0  0  0  0  0  0  0  0  0  0
    6.1423   18.0701    5.8418 N   0  0  0  0  0  0  0  0  0  0  0  0
    7.0210   18.6309    4.9198 C   0  0  0  0  0  0  0  0  0  0  0  0
    6.9551   18.3448    3.6013 C   0  0  0  0  0  0  0  0  0  0  0  0
    7.6958   18.7211    2.5159 N   0  0  0  0  0  0  0  0  0  0  0  0
    7.1008   18.0978    1.5387 C   0  0  0  0  0  0  0  0  0  0  0  0
    6.0049   17.3032    1.8575 N   0  0  0  0  0  0  0  0  0  0  0  0
    5.8954   17.4410    3.1454 C   0  0  0  0  0  0  0  0  0  0  0  0
    8.0020   19.4859    5.3885 N   0  0  0  0  0  0  0  0  0  0  0  0
    7.8969   20.3992    4.9598 H   0  0  0  0  0  0  0  0  0  0  0  0
    8.0254   19.5034    6.4058 H   0  0  0  0  0  0  0  0  0  0  0  0
  1  2  1  0  0  0  0
  2  3  1  0  0  0  0
  2 10  1  0  0  0  0
  3  4  2  0  0  0  0
  4  5  1  0  0  0  0
  5  6  2  0  0  0  0
  5 11  1  0  0  0  0
  6  7  1  0  0  0  0
  6 10  1  0  0  0  0
  7  8  2  0  0  0  0
  8  9  1  0  0  0  0
  9 10  2  0  0  0  0
 11 12  1  0  0  0  0
 11 13  1  0  0  0  0
M  END
>  <CHROM.0>
-61.95365483,-60.09196665,-67.91329179,-48.28273482,-60.28765689,-63.28651808
-66.86409517,-59.36343887,-167.72284823

>  <CHROM.1>
-120.19615136,6.26898570,17.85564414,3.83573694,2.70352080,-0.65954463,-1.74387061

>  <Name>
3-methyladenine

>  <RI>
3.51561e+07

>  <Rbt.Current_Directory>
/home/fstefaniak/projects/zuza/docking/adenine/4XNR

>  <Rbt.Executable>
rbdock ($Id: //depot/dev/client3/rdock/2013.1/src/exe/rbdock.cxx#4 $)

>  <Rbt.Library>
libRbt.so (2013.1, Build901 2013/11/27)

>  <Rbt.Parameter_File>
/home/fstefaniak/progs/rDock//data/scripts/dock_solv.prm

>  <Rbt.Receptor>
4xnr.prm

>  <SCORE>
-60.2177

>  <SCORE.INTER>
-39.1909

>  <SCORE.INTER.CONST>
1

>  <SCORE.INTER.POLAR>
-4.72668

>  <SCORE.INTER.ROT>
1

>  <SCORE.INTER.SOLV>
10.7958

>  <SCORE.INTER.VDW>
-18.237

>  <SCORE.INTER.norm>
-3.56281

>  <SCORE.INTRA>
-0.118174

>  <SCORE.INTRA.DIHEDRAL>
0.0112227

>  <SCORE.INTRA.DIHEDRAL.0>
0.465519

>  <SCORE.INTRA.POLAR>
0

>  <SCORE.INTRA.POLAR.0>
0

>  <SCORE.INTRA.REPUL>
0

>  <SCORE.INTRA.REPUL.0>
0

>  <SCORE.INTRA.SOLV>
0.0138542

>  <SCORE.INTRA.SOLV.lig_0>
-9.50567

>  <SCORE.INTRA.VDW>
-0.130712

>  <SCORE.INTRA.VDW.0>
-0.0334473

>  <SCORE.INTRA.norm>
-0.010743

>  <SCORE.RESTR>
0

>  <SCORE.RESTR.CAVITY>
0

>  <SCORE.RESTR.norm>
0

>  <SCORE.SYSTEM>
-20.9086

>  <SCORE.SYSTEM.CONST>
0

>  <SCORE.SYSTEM.DIHEDRAL>
4.00231

>  <SCORE.SYSTEM.POLAR>
-2.94228

>  <SCORE.SYSTEM.SOLV>
0.273358

>  <SCORE.SYSTEM.VDW>
-5.5567

>  <SCORE.SYSTEM.norm>
-1.90078

>  <SCORE.heavy>
11

>  <SCORE.norm>
-5.47434

$$$$
6-cyanopurine
 OpenBabel12072022113D
libRbt.so/2013.1/901 2013/11/27
 12 13  0  0  0  0  0  0  0  0999 V2000
    5.9999   19.0342    6.2960 C   0  0  0  0  0  0  0  0  0  0  0  0
    6.6515   19.6803    5.2810 N   0  0  0  0  0  0  0  0  0  0  0  0
    7.1280   20.5686    5.3313 H   0  0  0  0  0  0  0  0  0  0  0  0
    6.5441   18.9012    4.1656 C   0  0  0  0  0  0  0  0  0  0  0  0
    5.8154   17.7915    4.5630 C   0  0  0  0  0  0  0  0  0  0  0  0
    5.4835   17.8906    5.8969 N   0  0  0  0  0  0  0  0  0  0  0  0
    5.5834   16.8500    3.5681 C   0  0  0  0  0  0  0  0  0  0  0  0
    6.0576   17.0466    2.3079 N   0  0  0  0  0  0  0  0  0  0  0  0
    6.7510   18.1793    2.0763 C   0  0  0  0  0  0  0  0  0  0  0  0
    7.0424   19.1643    2.9489 N   0  0  0  0  0  0  0  0  0  0  0  0
    4.8448   15.6651    3.8563 C   0  0  0  0  0  0  0  0  0  0  0  0
    4.2447   14.6930    4.0726 N   0  0  0  0  0  0  0  0  0  0  0  0
  1  2  1  0  0  0  0
  1  6  2  0  0  0  0
  2  3  1  0  0  0  0
  2  4  1  0  0  0  0
  4  5  2  0  0  0  0
  4 10  1  0  0  0  0
  5  6  1  0  0  0  0
  5  7  1  0  0  0  0
  7  8  2  0  0  0  0
  7 11  1  0  0  0  0
  8  9  1  0  0  0  0
  9 10  2  0  0  0  0
 11 12  3  0  0  0  0
M  END
>  <CHROM.0>
-62.71353115,-178.02271717,-66.83895080,-46.86057704,-178.25321275,-64.26320693
-69.92693632,-58.02877909,-168.25674553

>  <CHROM.1>
5.92465372,17.74842686,4.10428084,0.72712142,1.01271571,1.08772463

>  <Name>
6-cyanopurine

>  <RI>
3.51561e+07

>  <Rbt.Current_Directory>
/home/fstefaniak/projects/zuza/docking/adenine/4XNR

>  <Rbt.Executable>
rbdock ($Id: //depot/dev/client3/rdock/2013.1/src/exe/rbdock.cxx#4 $)

>  <Rbt.Library>
libRbt.so (2013.1, Build901 2013/11/27)

>  <Rbt.Parameter_File>
/home/fstefaniak/progs/rDock//data/scripts/dock_solv.prm

>  <Rbt.Receptor>
4xnr.prm

>  <SCORE>
-62.3389

>  <SCORE.INTER>
-41.5116

>  <SCORE.INTER.CONST>
1

>  <SCORE.INTER.POLAR>
-4.20321

>  <SCORE.INTER.ROT>
0

>  <SCORE.INTER.SOLV>
13.329

>  <SCORE.INTER.VDW>
-21.7067

>  <SCORE.INTER.norm>
-3.77378

>  <SCORE.INTRA>
0

>  <SCORE.INTRA.DIHEDRAL>
0

>  <SCORE.INTRA.DIHEDRAL.0>
0

>  <SCORE.INTRA.POLAR>
0

>  <SCORE.INTRA.POLAR.0>
0

>  <SCORE.INTRA.REPUL>
0

>  <SCORE.INTRA.REPUL.0>
0

>  <SCORE.INTRA.SOLV>
0

>  <SCORE.INTRA.SOLV.lig_0>
-16.4455

>  <SCORE.INTRA.VDW>
0

>  <SCORE.INTRA.VDW.0>
0

>  <SCORE.INTRA.norm>
0

>  <SCORE.RESTR>
0

>  <SCORE.RESTR.CAVITY>
0

>  <SCORE.RESTR.norm>
0

>  <SCORE.SYSTEM>
-20.8273

>  <SCORE.SYSTEM.CONST>
0

>  <SCORE.SYSTEM.DIHEDRAL>
4.36087

>  <SCORE.SYSTEM.POLAR>
-2.96504

>  <SCORE.SYSTEM.SOLV>
0.0741114

>  <SCORE.SYSTEM.VDW>
-5.47972

>  <SCORE.SYSTEM.norm>
-1.89339

>  <SCORE.heavy>
11

>  <SCORE.norm>
-5.66717

$$$$
6-cyanopurine
 OpenBabel12072022113D
libRbt.so/2013.1/901 2013/11/27
 12 13  0  0  0  0  0  0  0  0999 V2000
    5.9598   19.0134    6.2142 C   0  0  0  0  0  0  0  0  0  0  0  0
    6.6026   19.6710    5.2010 N   0  0  0  0  0  0  0  0  0  0  0  0
    7.0638   20.5672    5.2527 H   0  0  0  0  0  0  0  0  0  0  0  0
    6.5110   18.8906    4.0851 C   0  0  0  0  0  0  0  0  0  0  0  0
    5.8005   17.7685    4.4803 C   0  0  0  0  0  0  0  0  0  0  0  0
    5.4638   17.8613    5.8135 N   0  0  0  0  0  0  0  0  0  0  0  0
    5.5868   16.8236    3.4846 C   0  0  0  0  0  0  0  0  0  0  0  0
    6.0605   17.0288    2.2255 N   0  0  0  0  0  0  0  0  0  0  0  0
    6.7349   18.1733    1.9960 C   0  0  0  0  0  0  0  0  0  0  0  0
    7.0076   19.1627    2.8696 N   0  0  0  0  0  0  0  0  0  0  0  0
    4.8679   15.6262    3.7705 C   0  0  0  0  0  0  0  0  0  0  0  0
    4.2839   14.6439    3.9851 N   0  0  0  0  0  0  0  0  0  0  0  0
  1  2  1  0  0  0  0
  1  6  2  0  0  0  0
  2  3  1  0  0  0  0
  2  4  1  0  0  0  0
  4  5  2  0  0  0  0
  4 10  1  0  0  0  0
  5  6  1  0  0  0  0
  5  7  1  0  0  0  0
  7  8  2  0  0  0  0
  7 11  1  0  0  0  0
  8  9  1  0  0  0  0
  9 10  2  0  0  0  0
 11 12  3  0  0  0  0
M  END
>  <CHROM.0>
-58.49772700,-175.97606255,-65.50205090,-46.11828683,-176.52509106,-63.16472078
-70.24860919,-60.10951051,-167.53828920

>  <CHROM.1>
5.91147866,17.72747381,4.02183617,0.74633332,1.02667238,1.07178069

>  <Name>
6-cyanopurine

>  <RI>
3.51561e+07

>  <Rbt.Current_Directory>
/home/fstefaniak/projects/zuza/docking/adenine/4XNR

>  <Rbt.Executable>
rbdock ($Id: //depot/dev/client3/rdock/2013.1/src/exe/rbdock.cxx#4 $)

>  <Rbt.Library>
libRbt.so (2013.1, Build901 2013/11/27)

>  <Rbt.Parameter_File>
/home/fstefaniak/progs/rDock//data/scripts/dock_solv.prm

>  <Rbt.Receptor>
4xnr.prm

>  <SCORE>
-62.3338

>  <SCORE.INTER>
-41.5561

>  <SCORE.INTER.CONST>
1

>  <SCORE.INTER.POLAR>
-4.2131

>  <SCORE.INTER.ROT>
0

>  <SCORE.INTER.SOLV>
13.4003

>  <SCORE.INTER.VDW>
-21.7272

>  <SCORE.INTER.norm>
-3.77783

>  <SCORE.INTRA>
0

>  <SCORE.INTRA.DIHEDRAL>
0

>  <SCORE.INTRA.DIHEDRAL.0>
0

>  <SCORE.INTRA.POLAR>
0

>  <SCORE.INTRA.POLAR.0>
0

>  <SCORE.INTRA.REPUL>
0

>  <SCORE.INTRA.REPUL.0>
0

>  <SCORE.INTRA.SOLV>
0

>  <SCORE.INTRA.SOLV.lig_0>
-16.4455

>  <SCORE.INTRA.VDW>
0

>  <SCORE.INTRA.VDW.0>
0

>  <SCORE.INTRA.norm>
0

>  <SCORE.RESTR>
0

>  <SCORE.RESTR.CAVITY>
0

>  <SCORE.RESTR.norm>
0

>  <SCORE.SYSTEM>
-20.7776

>  <SCORE.SYSTEM.CONST>
0

>  <SCORE.SYSTEM.DIHEDRAL>
4.49921

>  <SCORE.SYSTEM.POLAR>
-2.99869

>  <SCORE.SYSTEM.SOLV>
0.0802115

>  <SCORE.SYSTEM.VDW>
-5.3826

>  <SCORE.SYSTEM.norm>
-1.88888

>  <SCORE.heavy>
11

>  <SCORE.norm>
-5.66671

$$$$
6-cyanopurine
 OpenBabel12072022113D
libRbt.so/2013.1/901 2013/11/27
 12 13  0  0  0  0  0  0  0  0999 V2000
    5.9582   18.9881    6.1843 C   0  0  0  0  0  0  0  0  0  0  0  0
    6.6237   19.6472    5.1869 N   0  0  0  0  0  0  0  0  0  0  0  0
    7.0863   20.5419    5.2512 H   0  0  0  0  0  0  0  0  0  0  0  0
    6.5529   18.8710    4.0665 C   0  0  0  0  0  0  0  0  0  0  0  0
    5.8311   17.7497    4.4430 C   0  0  0  0  0  0  0  0  0  0  0  0
    5.4672   17.8389    5.7694 N   0  0  0  0  0  0  0  0  0  0  0  0
    5.6353   16.8088    3.4398 C   0  0  0  0  0  0  0  0  0  0  0  0
    6.1354   17.0170    2.1915 N   0  0  0  0  0  0  0  0  0  0  0  0
    6.8178   18.1602    1.9800 C   0  0  0  0  0  0  0  0  0  0  0  0
    7.0753   19.1458    2.8626 N   0  0  0  0  0  0  0  0  0  0  0  0
    4.9071   15.6126    3.7067 C   0  0  0  0  0  0  0  0  0  0  0  0
    4.3160   14.6313    3.9057 N   0  0  0  0  0  0  0  0  0  0  0  0
  1  2  1  0  0  0  0
  1  6  2  0  0  0  0
  2  3  1  0  0  0  0
  2  4  1  0  0  0  0
  4  5  2  0  0  0  0
  4 10  1  0  0  0  0
  5  6  1  0  0  0  0
  5  7  1  0  0  0  0
  7  8  2  0  0  0  0
  7 11  1  0  0  0  0
  8  9  1  0  0  0  0
  9 10  2  0  0  0  0
 11 12  3  0  0  0  0
M  END
>  <CHROM.0>
-59.14047055,-176.25642286,-64.44535850,-48.88384758,-176.53663146,-62.47799911
-69.16628485,-58.40072930,-168.22482896

>  <CHROM.1>
5.95140676,17.70986803,3.98686154,0.77802523,1.01399962,1.04824346

>  <Name>
6-cyanopurine

>  <RI>
3.51561e+07

>  <Rbt.Current_Directory>
/home/fstefaniak/projects/zuza/docking/adenine/4XNR

>  <Rbt.Executable>
rbdock ($Id: //depot/dev/client3/rdock/2013.1/src/exe/rbdock.cxx#4 $)

>  <Rbt.Library>
libRbt.so (2013.1, Build901 2013/11/27)

>  <Rbt.Parameter_File>
/home/fstefaniak/progs/rDock//data/scripts/dock_solv.prm

>  <Rbt.Receptor>
4xnr.prm

>  <SCORE>
-62.3333

>  <SCORE.INTER>
-41.5317

>  <SCORE.INTER.CONST>
1

>  <SCORE.INTER.POLAR>
-4.2131

>  <SCORE.INTER.ROT>
0

>  <SCORE.INTER.SOLV>
13.4548

>  <SCORE.INTER.VDW>
-21.729

>  <SCORE.INTER.norm>
-3.77561

>  <SCORE.INTRA>
0

>  <SCORE.INTRA.DIHEDRAL>
0

>  <SCORE.INTRA.DIHEDRAL.0>
0

>  <SCORE.INTRA.POLAR>
0

>  <SCORE.INTRA.POLAR.0>
0

>  <SCORE.INTRA.REPUL>
0

>  <SCORE.INTRA.REPUL.0>
0

>  <SCORE.INTRA.SOLV>
0

>  <SCORE.INTRA.SOLV.lig_0>
-16.4455

>  <SCORE.INTRA.VDW>
0

>  <SCORE.INTRA.VDW.0>
0

>  <SCORE.INTRA.norm>
0

>  <SCORE.RESTR>
0

>  <SCORE.RESTR.CAVITY>
0

>  <SCORE.RESTR.norm>
0

>  <SCORE.SYSTEM>
-20.8016

>  <SCORE.SYSTEM.CONST>
0

>  <SCORE.SYSTEM.DIHEDRAL>
3.95674

>  <SCORE.SYSTEM.POLAR>
-2.95157

>  <SCORE.SYSTEM.SOLV>
0.0828963

>  <SCORE.SYSTEM.VDW>
-5.37574

>  <SCORE.SYSTEM.norm>
-1.89106

>  <SCORE.heavy>
11

>  <SCORE.norm>
-5.66667

$$$$
6-mercaptopurine
 OpenBabel12072022113D
libRbt.so/2013.1/901 2013/11/27
 12 13  0  0  0  0  0  0  0  0999 V2000
    6.0119   18.6763    6.7174 C   0  0  0  0  0  0  0  0  0  0  0  0
    6.9728   19.1618    5.8679 N   0  0  0  0  0  0  0  0  0  0  0  0
    7.7861   19.7053    6.1161 H   0  0  0  0  0  0  0  0  0  0  0  0
    6.6270   18.7729    4.6092 C   0  0  0  0  0  0  0  0  0  0  0  0
    5.4566   18.0605    4.7596 C   0  0  0  0  0  0  0  0  0  0  0  0
    5.0774   18.0031    6.0762 N   0  0  0  0  0  0  0  0  0  0  0  0
    4.8639   17.5252    3.5613 C   0  0  0  0  0  0  0  0  0  0  0  0
    3.4603   16.6490    3.5832 S   0  0  0  0  0  0  0  0  0  0  0  0
    5.5753   17.8130    2.4087 N   0  0  0  0  0  0  0  0  0  0  0  0
    5.2042   17.4613    1.5376 H   0  0  0  0  0  0  0  0  0  0  0  0
    6.7505   18.5505    2.4190 C   0  0  0  0  0  0  0  0  0  0  0  0
    7.3170   19.0503    3.4778 N   0  0  0  0  0  0  0  0  0  0  0  0
  1  2  1  0  0  0  0
  1  6  2  0  0  0  0
  2  3  1  0  0  0  0
  2  4  1  0  0  0  0
  4  5  2  0  0  0  0
  4 12  1  0  0  0  0
  5  6  1  0  0  0  0
  5  7  1  0  0  0  0
  7  8  2  0  0  0  0
  7  9  1  0  0  0  0
  9 10  1  0  0  0  0
  9 11  1  0  0  0  0
 11 12  2  0  0  0  0
M  END
>  <CHROM.0>
-60.67148657,-174.06436912,-67.26898465,-48.07007335,-60.45832939,-63.39901833
-68.57096046,-59.93622665,-168.11659464

>  <CHROM.1>
5.54039645,18.04305702,4.24902541,0.63769422,0.55540709,1.43476676

>  <Name>
6-mercaptopurine

>  <RI>
3.51561e+07

>  <Rbt.Current_Directory>
/home/fstefaniak/projects/zuza/docking/adenine/4XNR

>  <Rbt.Executable>
rbdock ($Id: //depot/dev/client3/rdock/2013.1/src/exe/rbdock.cxx#4 $)

>  <Rbt.Library>
libRbt.so (2013.1, Build901 2013/11/27)

>  <Rbt.Parameter_File>
/home/fstefaniak/progs/rDock//data/scripts/dock_solv.prm

>  <Rbt.Receptor>
4xnr.prm

>  <SCORE>
-52.7466

>  <SCORE.INTER>
-31.9657

>  <SCORE.INTER.CONST>
1

>  <SCORE.INTER.POLAR>
-2.93109

>  <SCORE.INTER.ROT>
0

>  <SCORE.INTER.SOLV>
10.8902

>  <SCORE.INTER.VDW>
-18.7702

>  <SCORE.INTER.norm>
-3.19657

>  <SCORE.INTRA>
0

>  <SCORE.INTRA.DIHEDRAL>
0

>  <SCORE.INTRA.DIHEDRAL.0>
0

>  <SCORE.INTRA.POLAR>
0

>  <SCORE.INTRA.POLAR.0>
0

>  <SCORE.INTRA.REPUL>
0

>  <SCORE.INTRA.REPUL.0>
0

>  <SCORE.INTRA.SOLV>
0

>  <SCORE.INTRA.SOLV.lig_0>
-15.5074

>  <SCORE.INTRA.VDW>
0

>  <SCORE.INTRA.VDW.0>
0

>  <SCORE.INTRA.norm>
0

>  <SCORE.RESTR>
0

>  <SCORE.RESTR.CAVITY>
0

>  <SCORE.RESTR.norm>
0

>  <SCORE.SYSTEM>
-20.7809

>  <SCORE.SYSTEM.CONST>
0

>  <SCORE.SYSTEM.DIHEDRAL>
4.21394

>  <SCORE.SYSTEM.POLAR>
-2.95252

>  <SCORE.SYSTEM.SOLV>
0.244924

>  <SCORE.SYSTEM.VDW>
-5.4985

>  <SCORE.SYSTEM.norm>
-2.07809

>  <SCORE.heavy>
10

>  <SCORE.norm>
-5.27466

$$$$
6-mercaptopurine
 OpenBabel12072022113D
libRbt.so/2013.1/901 2013/11/27
 12 13  0  0  0  0  0  0  0  0999 V2000
    6.0072   18.6833    6.7216 C   0  0  0  0  0  0  0  0  0  0  0  0
    6.9744   19.1631    5.8760 N   0  0  0  0  0  0  0  0  0  0  0  0
    7.7882   19.7043    6.1272 H   0  0  0  0  0  0  0  0  0  0  0  0
    6.6341   18.7718    4.6166 C   0  0  0  0  0  0  0  0  0  0  0  0
    5.4603   18.0639    4.7626 C   0  0  0  0  0  0  0  0  0  0  0  0
    5.0738   18.0116    6.0772 N   0  0  0  0  0  0  0  0  0  0  0  0
    4.8723   17.5272    3.5626 C   0  0  0  0  0  0  0  0  0  0  0  0
    3.4656   16.6561    3.5794 S   0  0  0  0  0  0  0  0  0  0  0  0
    5.5910   17.8093    2.4131 N   0  0  0  0  0  0  0  0  0  0  0  0
    5.2235   17.4563    1.5410 H   0  0  0  0  0  0  0  0  0  0  0  0
    6.7688   18.5426    2.4278 C   0  0  0  0  0  0  0  0  0  0  0  0
    7.3312   19.0434    3.4882 N   0  0  0  0  0  0  0  0  0  0  0  0
  1  2  1  0  0  0  0
  1  6  2  0  0  0  0
  2  3  1  0  0  0  0
  2  4  1  0  0  0  0
  4  5  2  0  0  0  0
  4 12  1  0  0  0  0
  5  6  1  0  0  0  0
  5  7  1  0  0  0  0
  7  8  2  0  0  0  0
  7  9  1  0  0  0  0
  9 10  1  0  0  0  0
  9 11  1  0  0  0  0
 11 12  2  0  0  0  0
M  END
>  <CHROM.0>
-56.47621354,-177.07191181,-68.86109230,-47.91251270,-60.88223384,-63.99093040
-68.71955994,-60.09589872,-168.08653734

>  <CHROM.1>
5.54691737,18.04467627,4.25256594,0.64348544,0.55115874,1.42886209

>  <Name>
6-mercaptopurine

>  <RI>
3.51561e+07

>  <Rbt.Current_Directory>
/home/fstefaniak/projects/zuza/docking/adenine/4XNR

>  <Rbt.Executable>
rbdock ($Id: //depot/dev/client3/rdock/2013.1/src/exe/rbdock.cxx#4 $)

>  <Rbt.Library>
libRbt.so (2013.1, Build901 2013/11/27)

>  <Rbt.Parameter_File>
/home/fstefaniak/progs/rDock//data/scripts/dock_solv.prm

>  <Rbt.Receptor>
4xnr.prm

>  <SCORE>
-52.6539

>  <SCORE.INTER>
-31.8655

>  <SCORE.INTER.CONST>
1

>  <SCORE.INTER.POLAR>
-2.94191

>  <SCORE.INTER.ROT>
0

>  <SCORE.INTER.SOLV>
10.8881

>  <SCORE.INTER.VDW>
-18.6666

>  <SCORE.INTER.norm>
-3.18655

>  <SCORE.INTRA>
0

>  <SCORE.INTRA.DIHEDRAL>
0

>  <SCORE.INTRA.DIHEDRAL.0>
0

>  <SCORE.INTRA.POLAR>
0

>  <SCORE.INTRA.POLAR.0>
0

>  <SCORE.INTRA.REPUL>
0

>  <SCORE.INTRA.REPUL.0>
0

>  <SCORE.INTRA.SOLV>
0

>  <SCORE.INTRA.SOLV.lig_0>
-15.5074

>  <SCORE.INTRA.VDW>
0

>  <SCORE.INTRA.VDW.0>
0

>  <SCORE.INTRA.norm>
0

>  <SCORE.RESTR>
0

>  <SCORE.RESTR.CAVITY>
0

>  <SCORE.RESTR.norm>
0

>  <SCORE.SYSTEM>
-20.7884

>  <SCORE.SYSTEM.CONST>
0

>  <SCORE.SYSTEM.DIHEDRAL>
4.30878

>  <SCORE.SYSTEM.POLAR>
-2.98096

>  <SCORE.SYSTEM.SOLV>
0.25029

>  <SCORE.SYSTEM.VDW>
-5.4421

>  <SCORE.SYSTEM.norm>
-2.07884

>  <SCORE.heavy>
10

>  <SCORE.norm>
-5.26539

$$$$
6-mercaptopurine
 OpenBabel12072022113D
libRbt.so/2013.1/901 2013/11/27
 12 13  0  0  0  0  0  0  0  0999 V2000
    6.0119   18.6914    6.7255 C   0  0  0  0  0  0  0  0  0  0  0  0
    6.9771   19.1639    5.8734 N   0  0  0  0  0  0  0  0  0  0  0  0
    7.7940   19.7032    6.1185 H   0  0  0  0  0  0  0  0  0  0  0  0
    6.6296   18.7684    4.6173 C   0  0  0  0  0  0  0  0  0  0  0  0
    5.4539   18.0655    4.7717 C   0  0  0  0  0  0  0  0  0  0  0  0
    5.0731   18.0204    6.0883 N   0  0  0  0  0  0  0  0  0  0  0  0
    4.8585   17.5257    3.5768 C   0  0  0  0  0  0  0  0  0  0  0  0
    3.4486   16.6599    3.6037 S   0  0  0  0  0  0  0  0  0  0  0  0
    5.5730   17.8001    2.4228 N   0  0  0  0  0  0  0  0  0  0  0  0
    5.2002   17.4448    1.5539 H   0  0  0  0  0  0  0  0  0  0  0  0
    6.7535   18.5291    2.4289 C   0  0  0  0  0  0  0  0  0  0  0  0
    7.3226   19.0325    3.4846 N   0  0  0  0  0  0  0  0  0  0  0  0
  1  2  1  0  0  0  0
  1  6  2  0  0  0  0
  2  3  1  0  0  0  0
  2  4  1  0  0  0  0
  4  5  2  0  0  0  0
  4 12  1  0  0  0  0
  5  6  1  0  0  0  0
  5  7  1  0  0  0  0
  7  8  2  0  0  0  0
  7  9  1  0  0  0  0
  9 10  1  0  0  0  0
  9 11  1  0  0  0  0
 11 12  2  0  0  0  0
M  END
>  <CHROM.0>
-57.22572841,-173.73193789,-68.83528123,-45.66276060,-59.51866540,-63.46862046
-66.61896498,-59.92805557,-168.38357448

>  <CHROM.1>
5.53811003,18.04373056,4.26137461,0.63761278,0.54814064,1.42755283

>  <Name>
6-mercaptopurine

>  <RI>
3.51561e+07

>  <Rbt.Current_Directory>
/home/fstefaniak/projects/zuza/docking/adenine/4XNR

>  <Rbt.Executable>
rbdock ($Id: //depot/dev/client3/rdock/2013.1/src/exe/rbdock.cxx#4 $)

>  <Rbt.Library>
libRbt.so (2013.1, Build901 2013/11/27)

>  <Rbt.Parameter_File>
/home/fstefaniak/progs/rDock//data/scripts/dock_solv.prm

>  <Rbt.Receptor>
4xnr.prm

>  <SCORE>
-52.6162

>  <SCORE.INTER>
-31.9103

>  <SCORE.INTER.CONST>
1

>  <SCORE.INTER.POLAR>
-2.90979

>  <SCORE.INTER.ROT>
0

>  <SCORE.INTER.SOLV>
10.873

>  <SCORE.INTER.VDW>
-18.7986

>  <SCORE.INTER.norm>
-3.19103

>  <SCORE.INTRA>
0

>  <SCORE.INTRA.DIHEDRAL>
0

>  <SCORE.INTRA.DIHEDRAL.0>
0

>  <SCORE.INTRA.POLAR>
0

>  <SCORE.INTRA.POLAR.0>
0

>  <SCORE.INTRA.REPUL>
0

>  <SCORE.INTRA.REPUL.0>
0

>  <SCORE.INTRA.SOLV>
0

>  <SCORE.INTRA.SOLV.lig_0>
-15.5074

>  <SCORE.INTRA.VDW>
0

>  <SCORE.INTRA.VDW.0>
0

>  <SCORE.INTRA.norm>
0

>  <SCORE.RESTR>
0

>  <SCORE.RESTR.CAVITY>
0

>  <SCORE.RESTR.norm>
0

>  <SCORE.SYSTEM>
-20.7058

>  <SCORE.SYSTEM.CONST>
0

>  <SCORE.SYSTEM.DIHEDRAL>
4.50197

>  <SCORE.SYSTEM.POLAR>
-3.00761

>  <SCORE.SYSTEM.SOLV>
0.258858

>  <SCORE.SYSTEM.VDW>
-5.36548

>  <SCORE.SYSTEM.norm>
-2.07058

>  <SCORE.heavy>
10

>  <SCORE.norm>
-5.26162

$$$$
8-azaadenine
 OpenBabel12072022113D
libRbt.so/2013.1/901 2013/11/27
 12 13  0  0  0  0  0  0  0  0999 V2000
    3.8223   16.5038    3.3067 C   0  0  0  0  0  0  0  0  0  0  0  0
    4.1559   16.9382    4.5480 N   0  0  0  0  0  0  0  0  0  0  0  0
    5.2730   17.7067    4.6797 C   0  0  0  0  0  0  0  0  0  0  0  0
    6.0555   17.9843    3.5405 C   0  0  0  0  0  0  0  0  0  0  0  0
    5.6070   17.4674    2.3361 C   0  0  0  0  0  0  0  0  0  0  0  0
    4.4666   16.7061    2.1475 N   0  0  0  0  0  0  0  0  0  0  0  0
    6.4587   17.7878    1.3513 N   0  0  0  0  0  0  0  0  0  0  0  0
    7.4433   18.5063    1.9767 N   0  5  0  0  0  0  0  0  0  0  0  0
    7.2229   18.6408    3.3201 N   0  0  0  0  0  0  0  0  0  0  0  0
    5.6183   18.1399    5.9684 N   0  0  0  0  0  0  0  0  0  0  0  0
    6.4989   17.7318    6.2460 H   0  0  0  0  0  0  0  0  0  0  0  0
    5.5449   19.1560    6.0026 H   0  0  0  0  0  0  0  0  0  0  0  0
  1  2  1  0  0  0  0
  1  6  2  0  0  0  0
  2  3  2  0  0  0  0
  3  4  1  0  0  0  0
  3 10  1  0  0  0  0
  4  5  1  0  0  0  0
  4  9  2  0  0  0  0
  5  6  1  0  0  0  0
  5  7  2  0  0  0  0
  7  8  1  0  0  0  0
  8  9  1  0  0  0  0
 10 11  1  0  0  0  0
 10 12  1  0  0  0  0
M  CHG  1   8  -1
M  END
>  <CHROM.0>
-56.22911821,178.59988422,-68.27663393,-48.06464812,-56.41152477,-62.08055354
-69.11157093,-57.43961982,-167.86731266

>  <CHROM.1>
115.23775393,5.63010567,17.65484488,3.35054926,2.32215517,0.55080675,1.38229774

>  <Name>
8-azaadenine

>  <RI>
3.51561e+07

>  <Rbt.Current_Directory>
/home/fstefaniak/projects/zuza/docking/adenine/4XNR

>  <Rbt.Executable>
rbdock ($Id: //depot/dev/client3/rdock/2013.1/src/exe/rbdock.cxx#4 $)

>  <Rbt.Library>
libRbt.so (2013.1, Build901 2013/11/27)

>  <Rbt.Parameter_File>
/home/fstefaniak/progs/rDock//data/scripts/dock_solv.prm

>  <Rbt.Receptor>
4xnr.prm

>  <SCORE>
-62.0504

>  <SCORE.INTER>
-41.3054

>  <SCORE.INTER.CONST>
1

>  <SCORE.INTER.POLAR>
-6.95885

>  <SCORE.INTER.ROT>
1

>  <SCORE.INTER.SOLV>
12.5875

>  <SCORE.INTER.VDW>
-12.8032

>  <SCORE.INTER.norm>
-4.13054

>  <SCORE.INTRA>
-0.104457

>  <SCORE.INTRA.DIHEDRAL>
0.0283195

>  <SCORE.INTRA.DIHEDRAL.0>
0.449342

>  <SCORE.INTRA.POLAR>
0

>  <SCORE.INTRA.POLAR.0>
0

>  <SCORE.INTRA.REPUL>
0

>  <SCORE.INTRA.REPUL.0>
0

>  <SCORE.INTRA.SOLV>
-0.0500326

>  <SCORE.INTRA.SOLV.lig_0>
-16.5613

>  <SCORE.INTRA.VDW>
-0.0936009

>  <SCORE.INTRA.VDW.0>
-0.0951435

>  <SCORE.INTRA.norm>
-0.0104457

>  <SCORE.RESTR>
0

>  <SCORE.RESTR.CAVITY>
0

>  <SCORE.RESTR.norm>
0

>  <SCORE.SYSTEM>
-20.6405

>  <SCORE.SYSTEM.CONST>
0

>  <SCORE.SYSTEM.DIHEDRAL>
4.30922

>  <SCORE.SYSTEM.POLAR>
-2.99283

>  <SCORE.SYSTEM.SOLV>
0.268359

>  <SCORE.SYSTEM.VDW>
-5.31011

>  <SCORE.SYSTEM.norm>
-2.06405

>  <SCORE.heavy>
10

>  <SCORE.norm>
-6.20504

$$$$
8-azaadenine
 OpenBabel12072022113D
libRbt.so/2013.1/901 2013/11/27
 12 13  0  0  0  0  0  0  0  0999 V2000
    3.8320   16.4920    3.3320 C   0  0  0  0  0  0  0  0  0  0  0  0
    4.1590   16.9355    4.5719 N   0  0  0  0  0  0  0  0  0  0  0  0
    5.2784   17.7005    4.7047 C   0  0  0  0  0  0  0  0  0  0  0  0
    6.0697   17.9653    3.5687 C   0  0  0  0  0  0  0  0  0  0  0  0
    5.6272   17.4403    2.3656 C   0  0  0  0  0  0  0  0  0  0  0  0
    4.4849   16.6821    2.1755 N   0  0  0  0  0  0  0  0  0  0  0  0
    6.4869   17.7489    1.3840 N   0  0  0  0  0  0  0  0  0  0  0  0
    7.4702   18.4686    2.0100 N   0  5  0  0  0  0  0  0  0  0  0  0
    7.2412   18.6151    3.3507 N   0  0  0  0  0  0  0  0  0  0  0  0
    5.6167   18.1430    5.9922 N   0  0  0  0  0  0  0  0  0  0  0  0
    6.4917   17.7303    6.2807 H   0  0  0  0  0  0  0  0  0  0  0  0
    5.5515   19.1599    6.0162 H   0  0  0  0  0  0  0  0  0  0  0  0
  1  2  1  0  0  0  0
  1  6  2  0  0  0  0
  2  3  2  0  0  0  0
  3  4  1  0  0  0  0
  3 10  1  0  0  0  0
  4  5  1  0  0  0  0
  4  9  2  0  0  0  0
  5  6  1  0  0  0  0
  5  7  2  0  0  0  0
  7  8  1  0  0  0  0
  8  9  1  0  0  0  0
 10 11  1  0  0  0  0
 10 12  1  0  0  0  0
M  CHG  1   8  -1
M  END
>  <CHROM.0>
-57.01449113,-178.92418027,-63.60049931,-48.26099507,-59.11562709,-61.96868778
-68.21926847,-59.59100318,-168.33367760

>  <CHROM.1>
114.98382036,5.64423453,17.63601662,3.37855515,2.32897798,0.54545835,1.37044893

>  <Name>
8-azaadenine

>  <RI>
3.51561e+07

>  <Rbt.Current_Directory>
/home/fstefaniak/projects/zuza/docking/adenine/4XNR

>  <Rbt.Executable>
rbdock ($Id: //depot/dev/client3/rdock/2013.1/src/exe/rbdock.cxx#4 $)

>  <Rbt.Library>
libRbt.so (2013.1, Build901 2013/11/27)

>  <Rbt.Parameter_File>
/home/fstefaniak/progs/rDock//data/scripts/dock_solv.prm

>  <Rbt.Receptor>
4xnr.prm

>  <SCORE>
-61.9856

>  <SCORE.INTER>
-41.2041

>  <SCORE.INTER.CONST>
1

>  <SCORE.INTER.POLAR>
-6.94375

>  <SCORE.INTER.ROT>
1

>  <SCORE.INTER.SOLV>
12.6027

>  <SCORE.INTER.VDW>
-12.7911

>  <SCORE.INTER.norm>
-4.12041

>  <SCORE.INTRA>
-0.10427

>  <SCORE.INTRA.DIHEDRAL>
0.0287562

>  <SCORE.INTRA.DIHEDRAL.0>
0.449342

>  <SCORE.INTRA.POLAR>
0

>  <SCORE.INTRA.POLAR.0>
0

>  <SCORE.INTRA.REPUL>
0

>  <SCORE.INTRA.REPUL.0>
0

>  <SCORE.INTRA.SOLV>
-0.0500224

>  <SCORE.INTRA.SOLV.lig_0>
-16.5613

>  <SCORE.INTRA.VDW>
-0.0936366

>  <SCORE.INTRA.VDW.0>
-0.0951435

>  <SCORE.INTRA.norm>
-0.010427

>  <SCORE.RESTR>
0

>  <SCORE.RESTR.CAVITY>
0

>  <SCORE.RESTR.norm>
0

>  <SCORE.SYSTEM>
-20.6772

>  <SCORE.SYSTEM.CONST>
0

>  <SCORE.SYSTEM.DIHEDRAL>
3.81052

>  <SCORE.SYSTEM.POLAR>
-2.97692

>  <SCORE.SYSTEM.SOLV>
0.268352

>  <SCORE.SYSTEM.VDW>
-5.22137

>  <SCORE.SYSTEM.norm>
-2.06772

>  <SCORE.heavy>
10

>  <SCORE.norm>
-6.19856

$$$$
8-azaadenine
 OpenBabel12072022113D
libRbt.so/2013.1/901 2013/11/27
 12 13  0  0  0  0  0  0  0  0999 V2000
    3.8267   16.4917    3.3081 C   0  0  0  0  0  0  0  0  0  0  0  0
    4.1584   16.9297    4.5487 N   0  0  0  0  0  0  0  0  0  0  0  0
    5.2714   17.7044    4.6789 C   0  0  0  0  0  0  0  0  0  0  0  0
    6.0519   17.9847    3.5391 C   0  0  0  0  0  0  0  0  0  0  0  0
    5.6058   17.4638    2.3356 C   0  0  0  0  0  0  0  0  0  0  0  0
    4.4694   16.6961    2.1484 N   0  0  0  0  0  0  0  0  0  0  0  0
    6.4554   17.7874    1.3500 N   0  0  0  0  0  0  0  0  0  0  0  0
    7.4363   18.5121    1.9741 N   0  5  0  0  0  0  0  0  0  0  0  0
    7.2156   18.6472    3.3174 N   0  0  0  0  0  0  0  0  0  0  0  0
    5.6147   18.1412    5.9670 N   0  0  0  0  0  0  0  0  0  0  0  0
    6.4965   17.7363    6.2457 H   0  0  0  0  0  0  0  0  0  0  0  0
    5.5383   19.1571    5.9991 H   0  0  0  0  0  0  0  0  0  0  0  0
  1  2  1  0  0  0  0
  1  6  2  0  0  0  0
  2  3  2  0  0  0  0
  3  4  1  0  0  0  0
  3 10  1  0  0  0  0
  4  5  1  0  0  0  0
  4  9  2  0  0  0  0
  5  6  1  0  0  0  0
  5  7  2  0  0  0  0
  7  8  1  0  0  0  0
  8  9  1  0  0  0  0
 10 11  1  0  0  0  0
 10 12  1  0  0  0  0
M  CHG  1   8  -1
M  END
>  <CHROM.0>
-56.95315352,179.60824984,-74.65923943,-44.94252331,-62.12228653,-65.90449285
-174.55008879,-62.19830483,-167.64663458

>  <CHROM.1>
115.09057688,5.62823412,17.65267271,3.34973271,2.32291404,0.55621151,1.38057689

>  <Name>
8-azaadenine

>  <RI>
3.51561e+07

>  <Rbt.Current_Directory>
/home/fstefaniak/projects/zuza/docking/adenine/4XNR

>  <Rbt.Executable>
rbdock ($Id: //depot/dev/client3/rdock/2013.1/src/exe/rbdock.cxx#4 $)

>  <Rbt.Library>
libRbt.so (2013.1, Build901 2013/11/27)

>  <Rbt.Parameter_File>
/home/fstefaniak/progs/rDock//data/scripts/dock_solv.prm

>  <Rbt.Receptor>
4xnr.prm

>  <SCORE>
-61.4858

>  <SCORE.INTER>
-41.254

>  <SCORE.INTER.CONST>
1

>  <SCORE.INTER.POLAR>
-6.93972

>  <SCORE.INTER.ROT>
1

>  <SCORE.INTER.SOLV>
12.587

>  <SCORE.INTER.VDW>
-12.8326

>  <SCORE.INTER.norm>
-4.1254

>  <SCORE.INTRA>
-0.10435

>  <SCORE.INTRA.DIHEDRAL>
0.0285726

>  <SCORE.INTRA.DIHEDRAL.0>
0.449342

>  <SCORE.INTRA.POLAR>
0

>  <SCORE.INTRA.POLAR.0>
0

>  <SCORE.INTRA.REPUL>
0

>  <SCORE.INTRA.REPUL.0>
0

>  <SCORE.INTRA.SOLV>
-0.0500268

>  <SCORE.INTRA.SOLV.lig_0>
-16.5613

>  <SCORE.INTRA.VDW>
-0.0936224

>  <SCORE.INTRA.VDW.0>
-0.0951435

>  <SCORE.INTRA.norm>
-0.010435

>  <SCORE.RESTR>
0

>  <SCORE.RESTR.CAVITY>
0

>  <SCORE.RESTR.norm>
0

>  <SCORE.SYSTEM>
-20.1275

>  <SCORE.SYSTEM.CONST>
0

>  <SCORE.SYSTEM.DIHEDRAL>
5.15308

>  <SCORE.SYSTEM.POLAR>
-3.00274

>  <SCORE.SYSTEM.SOLV>
0.198848

>  <SCORE.SYSTEM.VDW>
-5.19316

>  <SCORE.SYSTEM.norm>
-2.01275

>  <SCORE.heavy>
10

>  <SCORE.norm>
-6.14858

$$$$
8-chloroadenine
 OpenBabel12072022113D
libRbt.so/2013.1/901 2013/11/27
 14 15  0  0  0  0  0  0  0  0999 V2000
    5.4975   18.3281    6.8566 C   0  0  0  0  0  0  0  0  0  0  0  0
    6.8126   18.5899    7.1423 N   0  0  0  0  0  0  0  0  0  0  0  0
    7.0951   18.8855    8.0677 H   0  0  0  0  0  0  0  0  0  0  0  0
    7.7516   18.7363    6.1459 C   0  0  0  0  0  0  0  0  0  0  0  0
    7.3164   18.5564    4.8880 C   0  0  0  0  0  0  0  0  0  0  0  0
    7.9348   18.5876    3.6703 N   0  0  0  0  0  0  0  0  0  0  0  0
    6.9461   18.3121    2.8615 C   0  0  0  0  0  0  0  0  0  0  0  0
    5.6874   18.0850    3.3936 N   0  0  0  0  0  0  0  0  0  0  0  0
    5.9043   18.2358    4.6616 C   0  0  0  0  0  0  0  0  0  0  0  0
    4.9991   18.1340    5.6767 N   0  0  0  0  0  0  0  0  0  0  0  0
    7.1626   18.2197    1.1820 Cl  0  0  0  0  0  0  0  0  0  0  0  0
    9.0598   19.0482    6.4459 N   0  0  0  0  0  0  0  0  0  0  0  0
    9.1324   19.8866    7.0149 H   0  0  0  0  0  0  0  0  0  0  0  0
    9.5214   18.2602    6.9072 H   0  0  0  0  0  0  0  0  0  0  0  0
  1  2  1  0  0  0  0
  1 10  2  0  0  0  0
  2  3  1  0  0  0  0
  2  4  1  0  0  0  0
  4  5  2  0  0  0  0
  4 12  1  0  0  0  0
  5  6  1  0  0  0  0
  5  9  1  0  0  0  0
  6  7  2  0  0  0  0
  7  8  1  0  0  0  0
  7 11  1  0  0  0  0
  8  9  2  0  0  0  0
  9 10  1  0  0  0  0
 12 13  1  0  0  0  0
 12 14  1  0  0  0  0
M  END
>  <CHROM.0>
-54.95405585,164.03224649,-64.08535680,-48.21974991,-59.07753183,-61.35115924
-71.45003571,-60.43264441,-167.70470434

>  <CHROM.1>
-54.42402664,6.89926417,18.42143928,4.39340474,1.59146306,0.20534775,1.49165975

>  <Name>
8-chloroadenine

>  <RI>
3.51561e+07

>  <Rbt.Current_Directory>
/home/fstefaniak/projects/zuza/docking/adenine/4XNR

>  <Rbt.Executable>
rbdock ($Id: //depot/dev/client3/rdock/2013.1/src/exe/rbdock.cxx#4 $)

>  <Rbt.Library>
libRbt.so (2013.1, Build901 2013/11/27)

>  <Rbt.Parameter_File>
/home/fstefaniak/progs/rDock//data/scripts/dock_solv.prm

>  <Rbt.Receptor>
4xnr.prm

>  <SCORE>
-60.7764

>  <SCORE.INTER>
-40.8889

>  <SCORE.INTER.CONST>
1

>  <SCORE.INTER.POLAR>
-4.93669

>  <SCORE.INTER.ROT>
1

>  <SCORE.INTER.SOLV>
14.533

>  <SCORE.INTER.VDW>
-19.9146

>  <SCORE.INTER.norm>
-3.71717

>  <SCORE.INTRA>
-0.173508

>  <SCORE.INTRA.DIHEDRAL>
0.00131422

>  <SCORE.INTRA.DIHEDRAL.0>
0.479227

>  <SCORE.INTRA.POLAR>
0

>  <SCORE.INTRA.POLAR.0>
0

>  <SCORE.INTRA.REPUL>
0

>  <SCORE.INTRA.REPUL.0>
0

>  <SCORE.INTRA.SOLV>
0.0446775

>  <SCORE.INTRA.SOLV.lig_0>
-14.9066

>  <SCORE.INTRA.VDW>
-0.196504

>  <SCORE.INTRA.VDW.0>
-0.188036

>  <SCORE.INTRA.norm>
-0.0157735

>  <SCORE.RESTR>
0

>  <SCORE.RESTR.CAVITY>
0

>  <SCORE.RESTR.norm>
0

>  <SCORE.SYSTEM>
-19.714

>  <SCORE.SYSTEM.CONST>
0

>  <SCORE.SYSTEM.DIHEDRAL>
5.39413

>  <SCORE.SYSTEM.POLAR>
-2.99753

>  <SCORE.SYSTEM.SOLV>
0.277198

>  <SCORE.SYSTEM.VDW>
-5.04132

>  <SCORE.SYSTEM.norm>
-1.79218

>  <SCORE.heavy>
11

>  <SCORE.norm>
-5.52513

$$$$
8-chloroadenine
 OpenBabel12072022113D
libRbt.so/2013.1/901 2013/11/27
 14 15  0  0  0  0  0  0  0  0999 V2000
    5.4986   18.3043    6.8463 C   0  0  0  0  0  0  0  0  0  0  0  0
    6.8141   18.5637    7.1327 N   0  0  0  0  0  0  0  0  0  0  0  0
    7.0984   18.8464    8.0615 H   0  0  0  0  0  0  0  0  0  0  0  0
    7.7506   18.7257    6.1363 C   0  0  0  0  0  0  0  0  0  0  0  0
    7.3126   18.5632    4.8770 C   0  0  0  0  0  0  0  0  0  0  0  0
    7.9281   18.6127    3.6584 N   0  0  0  0  0  0  0  0  0  0  0  0
    6.9378   18.3476    2.8480 C   0  0  0  0  0  0  0  0  0  0  0  0
    5.6806   18.1112    3.3798 N   0  0  0  0  0  0  0  0  0  0  0  0
    5.9004   18.2440    4.6494 C   0  0  0  0  0  0  0  0  0  0  0  0
    4.9977   18.1265    5.6650 N   0  0  0  0  0  0  0  0  0  0  0  0
    7.1505   18.2796    1.1668 Cl  0  0  0  0  0  0  0  0  0  0  0  0
    9.0590   19.0350    6.4377 N   0  0  0  0  0  0  0  0  0  0  0  0
    9.1336   19.8821    6.9934 H   0  0  0  0  0  0  0  0  0  0  0  0
    9.5138   18.2519    6.9139 H   0  0  0  0  0  0  0  0  0  0  0  0
  1  2  1  0  0  0  0
  1 10  2  0  0  0  0
  2  3  1  0  0  0  0
  2  4  1  0  0  0  0
  4  5  2  0  0  0  0
  4 12  1  0  0  0  0
  5  6  1  0  0  0  0
  5  9  1  0  0  0  0
  6  7  2  0  0  0  0
  7  8  1  0  0  0  0
  7 11  1  0  0  0  0
  8  9  2  0  0  0  0
  9 10  1  0  0  0  0
 12 13  1  0  0  0  0
 12 14  1  0  0  0  0
M  END
>  <CHROM.0>
-55.32484676,163.97643377,-65.16346606,-48.48800555,-179.25404783,-173.75862464
-67.02304992,-61.96845703,-167.58810911

>  <CHROM.1>
-56.26225225,6.89441223,18.43504582,4.38148383,1.58914991,0.20719075,1.50643793

>  <Name>
8-chloroadenine

>  <RI>
3.51561e+07

>  <Rbt.Current_Directory>
/home/fstefaniak/projects/zuza/docking/adenine/4XNR

>  <Rbt.Executable>
rbdock ($Id: //depot/dev/client3/rdock/2013.1/src/exe/rbdock.cxx#4 $)

>  <Rbt.Library>
libRbt.so (2013.1, Build901 2013/11/27)

>  <Rbt.Parameter_File>
/home/fstefaniak/progs/rDock//data/scripts/dock_solv.prm

>  <Rbt.Receptor>
4xnr.prm

>  <SCORE>
-60.7375

>  <SCORE.INTER>
-41.0066

>  <SCORE.INTER.CONST>
1

>  <SCORE.INTER.POLAR>
-4.9469

>  <SCORE.INTER.ROT>
1

>  <SCORE.INTER.SOLV>
14.5149

>  <SCORE.INTER.VDW>
-19.953

>  <SCORE.INTER.norm>
-3.72787

>  <SCORE.INTRA>
-0.174459

>  <SCORE.INTRA.DIHEDRAL>
0.00118755

>  <SCORE.INTRA.DIHEDRAL.0>
0.479227

>  <SCORE.INTRA.POLAR>
0

>  <SCORE.INTRA.POLAR.0>
0

>  <SCORE.INTRA.REPUL>
0

>  <SCORE.INTRA.REPUL.0>
0

>  <SCORE.INTRA.SOLV>
0.0448548

>  <SCORE.INTRA.SOLV.lig_0>
-14.9066

>  <SCORE.INTRA.VDW>
-0.19748

>  <SCORE.INTRA.VDW.0>
-0.188036

>  <SCORE.INTRA.norm>
-0.0158599

>  <SCORE.RESTR>
0

>  <SCORE.RESTR.CAVITY>
0

>  <SCORE.RESTR.norm>
0

>  <SCORE.SYSTEM>
-19.5565

>  <SCORE.SYSTEM.CONST>
0

>  <SCORE.SYSTEM.DIHEDRAL>
5.2383

>  <SCORE.SYSTEM.POLAR>
-2.98765

>  <SCORE.SYSTEM.SOLV>
-0.00140952

>  <SCORE.SYSTEM.VDW>
-4.82445

>  <SCORE.SYSTEM.norm>
-1.77786

>  <SCORE.heavy>
11

>  <SCORE.norm>
-5.52159

$$$$
8-chloroadenine
 OpenBabel12072022113D
libRbt.so/2013.1/901 2013/11/27
 14 15  0  0  0  0  0  0  0  0999 V2000
    5.4991   18.3321    6.8518 C   0  0  0  0  0  0  0  0  0  0  0  0
    6.8147   18.5850    7.1435 N   0  0  0  0  0  0  0  0  0  0  0  0
    7.0965   18.8671    8.0733 H   0  0  0  0  0  0  0  0  0  0  0  0
    7.7562   18.7413    6.1509 C   0  0  0  0  0  0  0  0  0  0  0  0
    7.3227   18.5799    4.8899 C   0  0  0  0  0  0  0  0  0  0  0  0
    7.9436   18.6252    3.6740 N   0  0  0  0  0  0  0  0  0  0  0  0
    6.9554   18.3644    2.8596 C   0  0  0  0  0  0  0  0  0  0  0  0
    5.6948   18.1349    3.3862 N   0  0  0  0  0  0  0  0  0  0  0  0
    5.9099   18.2678    4.6566 C   0  0  0  0  0  0  0  0  0  0  0  0
    5.0023   18.1558    5.6685 N   0  0  0  0  0  0  0  0  0  0  0  0
    7.1749   18.2938    1.1794 Cl  0  0  0  0  0  0  0  0  0  0  0  0
    9.0649   19.0442    6.4576 N   0  0  0  0  0  0  0  0  0  0  0  0
    9.1421   19.8954    7.0066 H   0  0  0  0  0  0  0  0  0  0  0  0
    9.5115   18.2620    6.9432 H   0  0  0  0  0  0  0  0  0  0  0  0
  1  2  1  0  0  0  0
  1 10  2  0  0  0  0
  2  3  1  0  0  0  0
  2  4  1  0  0  0  0
  4  5  2  0  0  0  0
  4 12  1  0  0  0  0
  5  6  1  0  0  0  0
  5  9  1  0  0  0  0
  6  7  2  0  0  0  0
  7  8  1  0  0  0  0
  7 11  1  0  0  0  0
  8  9  2  0  0  0  0
  9 10  1  0  0  0  0
 12 13  1  0  0  0  0
 12 14  1  0  0  0  0
M  END
>  <CHROM.0>
-55.36144725,165.90013694,-74.82001849,-44.97742182,-59.40244568,-65.94181527
-173.81175388,-61.63865277,-167.78158733

>  <CHROM.1>
-56.72338602,6.90601239,18.45347452,4.39277308,1.59313065,0.20188601,1.50472520

>  <Name>
8-chloroadenine

>  <RI>
3.51561e+07

>  <Rbt.Current_Directory>
/home/fstefaniak/projects/zuza/docking/adenine/4XNR

>  <Rbt.Executable>
rbdock ($Id: //depot/dev/client3/rdock/2013.1/src/exe/rbdock.cxx#4 $)

>  <Rbt.Library>
libRbt.so (2013.1, Build901 2013/11/27)

>  <Rbt.Parameter_File>
/home/fstefaniak/progs/rDock//data/scripts/dock_solv.prm

>  <Rbt.Receptor>
4xnr.prm

>  <SCORE>
-60.3399

>  <SCORE.INTER>
-40.8158

>  <SCORE.INTER.CONST>
1

>  <SCORE.INTER.POLAR>
-4.92416

>  <SCORE.INTER.ROT>
1

>  <SCORE.INTER.SOLV>
14.5713

>  <SCORE.INTER.VDW>
-19.9204

>  <SCORE.INTER.norm>
-3.71053

>  <SCORE.INTRA>
-0.174654

>  <SCORE.INTRA.DIHEDRAL>
0.00115513

>  <SCORE.INTRA.DIHEDRAL.0>
0.479227

>  <SCORE.INTRA.POLAR>
0

>  <SCORE.INTRA.POLAR.0>
0

>  <SCORE.INTRA.REPUL>
0

>  <SCORE.INTRA.REPUL.0>
0

>  <SCORE.INTRA.SOLV>
0.0448938

>  <SCORE.INTRA.SOLV.lig_0>
-14.9066

>  <SCORE.INTRA.VDW>
-0.197678

>  <SCORE.INTRA.VDW.0>
-0.188036

>  <SCORE.INTRA.norm>
-0.0158776

>  <SCORE.RESTR>
0

>  <SCORE.RESTR.CAVITY>
0

>  <SCORE.RESTR.norm>
0

>  <SCORE.SYSTEM>
-19.3494

>  <SCORE.SYSTEM.CONST>
0

>  <SCORE.SYSTEM.DIHEDRAL>
6.13759

>  <SCORE.SYSTEM.POLAR>
-3.01597

>  <SCORE.SYSTEM.SOLV>
0.21801

>  <SCORE.SYSTEM.VDW>
-4.96492

>  <SCORE.SYSTEM.norm>
-1.75904

>  <SCORE.heavy>
11

>  <SCORE.norm>
-5.48544

$$$$
N6,N6-dimethyladenine
 OpenBabel12072022113D
libRbt.so/2013.1/901 2013/11/27
 13 14  0  0  0  0  0  0  0  0999 V2000
    4.1622   14.6347    3.8454 C   0  0  0  0  0  0  0  0  0  0  0  0
    3.8036   16.0304    4.0538 N   0  0  0  0  0  0  0  0  0  0  0  0
    2.4370   16.4153    3.7300 C   0  0  0  0  0  0  0  0  0  0  0  0
    4.8142   16.9510    3.7326 C   0  0  0  0  0  0  0  0  0  0  0  0
    5.4481   17.8345    4.6483 C   0  0  0  0  0  0  0  0  0  0  0  0
    6.4479   18.6539    4.1464 C   0  0  0  0  0  0  0  0  0  0  0  0
    6.8878   19.3888    5.2082 N   0  0  0  0  0  0  0  0  0  0  0  0
    7.6213   20.0799    5.1718 H   0  0  0  0  0  0  0  0  0  0  0  0
    6.1605   19.0134    6.3013 C   0  0  0  0  0  0  0  0  0  0  0  0
    5.2797   18.0830    6.0040 N   0  0  0  0  0  0  0  0  0  0  0  0
    6.9079   18.7294    2.8915 N   0  0  0  0  0  0  0  0  0  0  0  0
    6.2546   17.8606    2.1014 C   0  0  0  0  0  0  0  0  0  0  0  0
    5.2661   17.0058    2.4383 N   0  0  0  0  0  0  0  0  0  0  0  0
  1  2  1  0  0  0  0
  2  3  1  0  0  0  0
  2  4  1  0  0  0  0
  4  5  2  0  0  0  0
  4 13  1  0  0  0  0
  5  6  1  0  0  0  0
  5 10  1  0  0  0  0
  6  7  1  0  0  0  0
  6 11  2  0  0  0  0
  7  8  1  0  0  0  0
  7  9  1  0  0  0  0
  9 10  2  0  0  0  0
 11 12  1  0  0  0  0
 12 13  2  0  0  0  0
M  END
>  <CHROM.0>
-57.46682792,-173.89673080,-68.20510442,-47.10655420,-58.73299514,-64.24670709
-69.12011433,-59.29094903,-168.00985498

>  <CHROM.1>
-116.94769527,5.29136912,17.51978056,4.09017906,2.63537623,-0.73248296,-1.90486378

>  <Name>
N6,N6-dimethyladenine

>  <RI>
3.51561e+07

>  <Rbt.Current_Directory>
/home/fstefaniak/projects/zuza/docking/adenine/4XNR

>  <Rbt.Executable>
rbdock ($Id: //depot/dev/client3/rdock/2013.1/src/exe/rbdock.cxx#4 $)

>  <Rbt.Library>
libRbt.so (2013.1, Build901 2013/11/27)

>  <Rbt.Parameter_File>
/home/fstefaniak/progs/rDock//data/scripts/dock_solv.prm

>  <Rbt.Receptor>
4xnr.prm

>  <SCORE>
-62.4746

>  <SCORE.INTER>
-39.1347

>  <SCORE.INTER.CONST>
1

>  <SCORE.INTER.POLAR>
-4.2131

>  <SCORE.INTER.ROT>
1

>  <SCORE.INTER.SOLV>
12.4139

>  <SCORE.INTER.VDW>
-20.4508

>  <SCORE.INTER.norm>
-3.26122

>  <SCORE.INTRA>
-2.58801

>  <SCORE.INTRA.DIHEDRAL>
-0.0207694

>  <SCORE.INTRA.DIHEDRAL.0>
0.494379

>  <SCORE.INTRA.POLAR>
0

>  <SCORE.INTRA.POLAR.0>
0

>  <SCORE.INTRA.REPUL>
0

>  <SCORE.INTRA.REPUL.0>
0

>  <SCORE.INTRA.SOLV>
0.0233019

>  <SCORE.INTRA.SOLV.lig_0>
-15.6396

>  <SCORE.INTRA.VDW>
-2.58927

>  <SCORE.INTRA.VDW.0>
2.19664

>  <SCORE.INTRA.norm>
-0.215667

>  <SCORE.RESTR>
0

>  <SCORE.RESTR.CAVITY>
0

>  <SCORE.RESTR.norm>
0

>  <SCORE.SYSTEM>
-20.7519

>  <SCORE.SYSTEM.CONST>
0

>  <SCORE.SYSTEM.DIHEDRAL>
4.51374

>  <SCORE.SYSTEM.POLAR>
-2.98975

>  <SCORE.SYSTEM.SOLV>
0.250201

>  <SCORE.SYSTEM.VDW>
-5.45672

>  <SCORE.SYSTEM.norm>
-1.72932

>  <SCORE.heavy>
12

>  <SCORE.norm>
-5.20621

$$$$
N6,N6-dimethyladenine
 OpenBabel12072022113D
libRbt.so/2013.1/901 2013/11/27
 13 14  0  0  0  0  0  0  0  0999 V2000
    4.2222   14.6192    3.8678 C   0  0  0  0  0  0  0  0  0  0  0  0
    3.8653   16.0141    4.0843 N   0  0  0  0  0  0  0  0  0  0  0  0
    2.5031   16.4055    3.7501 C   0  0  0  0  0  0  0  0  0  0  0  0
    4.8815   16.9344    3.7809 C   0  0  0  0  0  0  0  0  0  0  0  0
    5.4746   17.8426    4.6998 C   0  0  0  0  0  0  0  0  0  0  0  0
    6.4876   18.6578    4.2178 C   0  0  0  0  0  0  0  0  0  0  0  0
    6.8822   19.4193    5.2787 N   0  0  0  0  0  0  0  0  0  0  0  0
    7.6121   20.1146    5.2545 H   0  0  0  0  0  0  0  0  0  0  0  0
    6.1162   19.0631    6.3516 C   0  0  0  0  0  0  0  0  0  0  0  0
    5.2533   18.1201    6.0422 N   0  0  0  0  0  0  0  0  0  0  0  0
    6.9945   18.7086    2.9799 N   0  0  0  0  0  0  0  0  0  0  0  0
    6.3772   17.8178    2.1854 C   0  0  0  0  0  0  0  0  0  0  0  0
    5.3820   16.9637    2.5037 N   0  0  0  0  0  0  0  0  0  0  0  0
  1  2  1  0  0  0  0
  2  3  1  0  0  0  0
  2  4  1  0  0  0  0
  4  5  2  0  0  0  0
  4 13  1  0  0  0  0
  5  6  1  0  0  0  0
  5 10  1  0  0  0  0
  6  7  1  0  0  0  0
  6 11  2  0  0  0  0
  7  8  1  0  0  0  0
  7  9  1  0  0  0  0
  9 10  2  0  0  0  0
 11 12  1  0  0  0  0
 12 13  2  0  0  0  0
M  END
>  <CHROM.0>
-55.08961731,-171.16508750,-66.24706837,-49.01947857,-59.21926882,-63.13184129
-67.79937903,-176.13888772,-167.94259742

>  <CHROM.1>
-119.38988120,5.33892880,17.51689382,4.14309337,2.57816354,-0.71950495,-1.97065454

>  <Name>
N6,N6-dimethyladenine

>  <RI>
3.51561e+07

>  <Rbt.Current_Directory>
/home/fstefaniak/projects/zuza/docking/adenine/4XNR

>  <Rbt.Executable>
rbdock ($Id: //depot/dev/client3/rdock/2013.1/src/exe/rbdock.cxx#4 $)

>  <Rbt.Library>
libRbt.so (2013.1, Build901 2013/11/27)

>  <Rbt.Parameter_File>
/home/fstefaniak/progs/rDock//data/scripts/dock_solv.prm

>  <Rbt.Receptor>
4xnr.prm

>  <SCORE>
-62.2126

>  <SCORE.INTER>
-39.035

>  <SCORE.INTER.CONST>
1

>  <SCORE.INTER.POLAR>
-4.2131

>  <SCORE.INTER.ROT>
1

>  <SCORE.INTER.SOLV>
12.5716

>  <SCORE.INTER.VDW>
-20.4368

>  <SCORE.INTER.norm>
-3.25291

>  <SCORE.INTRA>
-2.55303

>  <SCORE.INTRA.DIHEDRAL>
-0.02236

>  <SCORE.INTRA.DIHEDRAL.0>
0.494379

>  <SCORE.INTRA.POLAR>
0

>  <SCORE.INTRA.POLAR.0>
0

>  <SCORE.INTRA.REPUL>
0

>  <SCORE.INTRA.REPUL.0>
0

>  <SCORE.INTRA.SOLV>
0.0233976

>  <SCORE.INTRA.SOLV.lig_0>
-15.6396

>  <SCORE.INTRA.VDW>
-2.55355

>  <SCORE.INTRA.VDW.0>
2.19664

>  <SCORE.INTRA.norm>
-0.212752

>  <SCORE.RESTR>
0

>  <SCORE.RESTR.CAVITY>
0

>  <SCORE.RESTR.norm>
0

>  <SCORE.SYSTEM>
-20.6246

>  <SCORE.SYSTEM.CONST>
0

>  <SCORE.SYSTEM.DIHEDRAL>
4.38539

>  <SCORE.SYSTEM.POLAR>
-2.98058

>  <SCORE.SYSTEM.SOLV>
0.1193

>  <SCORE.SYSTEM.VDW>
-5.31603

>  <SCORE.SYSTEM.norm>
-1.71872

>  <SCORE.heavy>
12

>  <SCORE.norm>
-5.18438

$$$$
N6,N6-dimethyladenine
 OpenBabel12072022113D
libRbt.so/2013.1/901 2013/11/27
 13 14  0  0  0  0  0  0  0  0999 V2000
    4.2138   14.6464    3.8209 C   0  0  0  0  0  0  0  0  0  0  0  0
    3.8616   16.0379    4.0653 N   0  0  0  0  0  0  0  0  0  0  0  0
    2.4928   16.4340    3.7650 C   0  0  0  0  0  0  0  0  0  0  0  0
    4.8715   16.9629    3.7548 C   0  0  0  0  0  0  0  0  0  0  0  0
    5.4869   17.8540    4.6757 C   0  0  0  0  0  0  0  0  0  0  0  0
    6.4892   18.6770    4.1847 C   0  0  0  0  0  0  0  0  0  0  0  0
    6.9094   19.4190    5.2495 N   0  0  0  0  0  0  0  0  0  0  0  0
    7.6394   20.1142    5.2207 H   0  0  0  0  0  0  0  0  0  0  0  0
    6.1684   19.0442    6.3336 C   0  0  0  0  0  0  0  0  0  0  0  0
    5.2974   18.1075    6.0276 N   0  0  0  0  0  0  0  0  0  0  0  0
    6.9670   18.7497    2.9363 N   0  0  0  0  0  0  0  0  0  0  0  0
    6.3303   17.8737    2.1407 C   0  0  0  0  0  0  0  0  0  0  0  0
    5.3418   17.0147    2.4669 N   0  0  0  0  0  0  0  0  0  0  0  0
  1  2  1  0  0  0  0
  2  3  1  0  0  0  0
  2  4  1  0  0  0  0
  4  5  2  0  0  0  0
  4 13  1  0  0  0  0
  5  6  1  0  0  0  0
  5 10  1  0  0  0  0
  6  7  1  0  0  0  0
  6 11  2  0  0  0  0
  7  8  1  0  0  0  0
  7  9  1  0  0  0  0
  9 10  2  0  0  0  0
 11 12  1  0  0  0  0
 12 13  2  0  0  0  0
M  END
>  <CHROM.0>
-56.35034646,-172.02557875,-66.75742484,-44.54134343,-58.58636800,-62.12105157
-67.40623824,-175.19574637,-168.06111133

>  <CHROM.1>
-119.14033882,5.33809295,17.53813976,4.11651200,2.60831446,-0.72795493,-1.93220271

>  <Name>
N6,N6-dimethyladenine

>  <RI>
3.51561e+07

>  <Rbt.Current_Directory>
/home/fstefaniak/projects/zuza/docking/adenine/4XNR

>  <Rbt.Executable>
rbdock ($Id: //depot/dev/client3/rdock/2013.1/src/exe/rbdock.cxx#4 $)

>  <Rbt.Library>
libRbt.so (2013.1, Build901 2013/11/27)

>  <Rbt.Parameter_File>
/home/fstefaniak/progs/rDock//data/scripts/dock_solv.prm

>  <Rbt.Receptor>
4xnr.prm

>  <SCORE>
-62.1589

>  <SCORE.INTER>
-39.007

>  <SCORE.INTER.CONST>
1

>  <SCORE.INTER.POLAR>
-4.2131

>  <SCORE.INTER.ROT>
1

>  <SCORE.INTER.SOLV>
12.5459

>  <SCORE.INTER.VDW>
-20.4097

>  <SCORE.INTER.norm>
-3.25059

>  <SCORE.INTRA>
-2.55693

>  <SCORE.INTRA.DIHEDRAL>
-0.022203

>  <SCORE.INTRA.DIHEDRAL.0>
0.494379

>  <SCORE.INTRA.POLAR>
0

>  <SCORE.INTRA.POLAR.0>
0

>  <SCORE.INTRA.REPUL>
0

>  <SCORE.INTRA.REPUL.0>
0

>  <SCORE.INTRA.SOLV>
0.0233889

>  <SCORE.INTRA.SOLV.lig_0>
-15.6396

>  <SCORE.INTRA.VDW>
-2.55753

>  <SCORE.INTRA.VDW.0>
2.19664

>  <SCORE.INTRA.norm>
-0.213078

>  <SCORE.RESTR>
0

>  <SCORE.RESTR.CAVITY>
0

>  <SCORE.RESTR.norm>
0

>  <SCORE.SYSTEM>
-20.5949

>  <SCORE.SYSTEM.CONST>
0

>  <SCORE.SYSTEM.DIHEDRAL>
4.8023

>  <SCORE.SYSTEM.POLAR>
-3.04203

>  <SCORE.SYSTEM.SOLV>
0.129916

>  <SCORE.SYSTEM.VDW>
-5.23392

>  <SCORE.SYSTEM.norm>
-1.71624

>  <SCORE.heavy>
12

>  <SCORE.norm>
-5.17991

$$$$
N6-methyladenine
 OpenBabel12072022113D
libRbt.so/2013.1/901 2013/11/27
 13 14  0  0  0  0  0  0  0  0999 V2000
    4.0583   15.4404    3.6444 C   0  0  0  0  0  0  0  0  0  0  0  0
    5.3630   15.4927    3.0233 N   0  0  0  0  0  0  0  0  0  0  0  0
    5.8869   16.7780    2.8484 C   0  0  0  0  0  0  0  0  0  0  0  0
    5.9990   17.6792    3.9259 C   0  0  0  0  0  0  0  0  0  0  0  0
    6.5493   18.9186    3.6511 C   0  0  0  0  0  0  0  0  0  0  0  0
    6.5450   19.5823    4.8430 N   0  0  0  0  0  0  0  0  0  0  0  0
    6.8882   20.5195    4.9891 H   0  0  0  0  0  0  0  0  0  0  0  0
    5.9955   18.7481    5.7787 C   0  0  0  0  0  0  0  0  0  0  0  0
    5.6471   17.5890    5.2604 N   0  0  0  0  0  0  0  0  0  0  0  0
    6.9942   19.3786    2.4741 N   0  0  0  0  0  0  0  0  0  0  0  0
    6.8384   18.4432    1.5150 C   0  0  0  0  0  0  0  0  0  0  0  0
    6.3176   17.2012    1.6287 N   0  0  0  0  0  0  0  0  0  0  0  0
    6.0718   14.8853    3.4303 H   0  0  0  0  0  0  0  0  0  0  0  0
  1  2  1  0  0  0  0
  2  3  1  0  0  0  0
  2 13  1  0  0  0  0
  3  4  2  0  0  0  0
  3 12  1  0  0  0  0
  4  5  1  0  0  0  0
  4  9  1  0  0  0  0
  5  6  1  0  0  0  0
  5 10  2  0  0  0  0
  6  7  1  0  0  0  0
  6  8  1  0  0  0  0
  8  9  2  0  0  0  0
 10 11  1  0  0  0  0
 11 12  2  0  0  0  0
M  END
>  <CHROM.0>
-60.07226432,-175.67750137,-63.78530973,-47.48240867,-60.80586573,-61.35960449
-70.30043785,-63.11314742,-168.29019952

>  <CHROM.1>
53.88869672,6.00002344,17.72067491,3.51838300,2.42768381,-1.02769367,-2.04621867

>  <Name>
N6-methyladenine

>  <RI>
3.51561e+07

>  <Rbt.Current_Directory>
/home/fstefaniak/projects/zuza/docking/adenine/4XNR

>  <Rbt.Executable>
rbdock ($Id: //depot/dev/client3/rdock/2013.1/src/exe/rbdock.cxx#4 $)

>  <Rbt.Library>
libRbt.so (2013.1, Build901 2013/11/27)

>  <Rbt.Parameter_File>
/home/fstefaniak/progs/rDock//data/scripts/dock_solv.prm

>  <Rbt.Receptor>
4xnr.prm

>  <SCORE>
-65.6594

>  <SCORE.INTER>
-44.5579

>  <SCORE.INTER.CONST>
1

>  <SCORE.INTER.POLAR>
-5.44322

>  <SCORE.INTER.ROT>
1

>  <SCORE.INTER.SOLV>
14.9027

>  <SCORE.INTER.VDW>
-20.7955

>  <SCORE.INTER.norm>
-4.05072

>  <SCORE.INTRA>
-0.408535

>  <SCORE.INTRA.DIHEDRAL>
-0.0019377

>  <SCORE.INTRA.DIHEDRAL.0>
0.485619

>  <SCORE.INTRA.POLAR>
0

>  <SCORE.INTRA.POLAR.0>
0

>  <SCORE.INTRA.REPUL>
0

>  <SCORE.INTRA.REPUL.0>
0

>  <SCORE.INTRA.SOLV>
-0.130173

>  <SCORE.INTRA.SOLV.lig_0>
-16.3399

>  <SCORE.INTRA.VDW>
-0.34248

>  <SCORE.INTRA.VDW.0>
0.597698

>  <SCORE.INTRA.norm>
-0.0371396

>  <SCORE.RESTR>
0

>  <SCORE.RESTR.CAVITY>
0

>  <SCORE.RESTR.norm>
0

>  <SCORE.SYSTEM>
-20.6929

>  <SCORE.SYSTEM.CONST>
0

>  <SCORE.SYSTEM.DIHEDRAL>
4.15194

>  <SCORE.SYSTEM.POLAR>
-2.9673

>  <SCORE.SYSTEM.SOLV>
0.248311

>  <SCORE.SYSTEM.VDW>
-5.37102

>  <SCORE.SYSTEM.norm>
-1.88117

>  <SCORE.heavy>
11

>  <SCORE.norm>
-5.96903

$$$$
N6-methyladenine
 OpenBabel12072022113D
libRbt.so/2013.1/901 2013/11/27
 13 14  0  0  0  0  0  0  0  0999 V2000
    4.0659   15.4386    3.6481 C   0  0  0  0  0  0  0  0  0  0  0  0
    5.3761   15.4853    3.0382 N   0  0  0  0  0  0  0  0  0  0  0  0
    5.8993   16.7693    2.8515 C   0  0  0  0  0  0  0  0  0  0  0  0
    6.0030   17.6834    3.9191 C   0  0  0  0  0  0  0  0  0  0  0  0
    6.5534   18.9202    3.6332 C   0  0  0  0  0  0  0  0  0  0  0  0
    6.5403   19.5980    4.8171 N   0  0  0  0  0  0  0  0  0  0  0  0
    6.8811   20.5373    4.9544 H   0  0  0  0  0  0  0  0  0  0  0  0
    5.9857   18.7741    5.7590 C   0  0  0  0  0  0  0  0  0  0  0  0
    5.6425   17.6084    5.2522 N   0  0  0  0  0  0  0  0  0  0  0  0
    7.0054   19.3669    2.4538 N   0  0  0  0  0  0  0  0  0  0  0  0
    6.8573   18.4201    1.5049 C   0  0  0  0  0  0  0  0  0  0  0  0
    6.3374   17.1787    1.6298 N   0  0  0  0  0  0  0  0  0  0  0  0
    6.0823   14.8846    3.4593 H   0  0  0  0  0  0  0  0  0  0  0  0
  1  2  1  0  0  0  0
  2  3  1  0  0  0  0
  2 13  1  0  0  0  0
  3  4  2  0  0  0  0
  3 12  1  0  0  0  0
  4  5  1  0  0  0  0
  4  9  1  0  0  0  0
  5  6  1  0  0  0  0
  5 10  2  0  0  0  0
  6  7  1  0  0  0  0
  6  8  1  0  0  0  0
  8  9  2  0  0  0  0
 10 11  1  0  0  0  0
 11 12  2  0  0  0  0
M  END
>  <CHROM.0>
-59.05939030,-177.33397047,-66.09108924,-46.79326666,-58.32648964,-59.67389940
-69.21137175,-59.58205096,-167.94469625

>  <CHROM.1>
54.03951497,6.00650506,17.72001653,3.51075780,2.41471084,-1.02566647,-2.06853794

>  <Name>
N6-methyladenine

>  <RI>
3.51561e+07

>  <Rbt.Current_Directory>
/home/fstefaniak/projects/zuza/docking/adenine/4XNR

>  <Rbt.Executable>
rbdock ($Id: //depot/dev/client3/rdock/2013.1/src/exe/rbdock.cxx#4 $)

>  <Rbt.Library>
libRbt.so (2013.1, Build901 2013/11/27)

>  <Rbt.Parameter_File>
/home/fstefaniak/progs/rDock//data/scripts/dock_solv.prm

>  <Rbt.Receptor>
4xnr.prm

>  <SCORE>
-65.6556

>  <SCORE.INTER>
-44.5396

>  <SCORE.INTER.CONST>
1

>  <SCORE.INTER.POLAR>
-5.43356

>  <SCORE.INTER.ROT>
1

>  <SCORE.INTER.SOLV>
14.9564

>  <SCORE.INTER.VDW>
-20.8334

>  <SCORE.INTER.norm>
-4.04906

>  <SCORE.INTRA>
-0.415213

>  <SCORE.INTRA.DIHEDRAL>
-0.0019748

>  <SCORE.INTRA.DIHEDRAL.0>
0.485619

>  <SCORE.INTRA.POLAR>
0

>  <SCORE.INTRA.POLAR.0>
0

>  <SCORE.INTRA.REPUL>
0

>  <SCORE.INTRA.REPUL.0>
0

>  <SCORE.INTRA.SOLV>
-0.130117

>  <SCORE.INTRA.SOLV.lig_0>
-16.3399

>  <SCORE.INTRA.VDW>
-0.349167

>  <SCORE.INTRA.VDW.0>
0.597698

>  <SCORE.INTRA.norm>
-0.0377466

>  <SCORE.RESTR>
0

>  <SCORE.RESTR.CAVITY>
0

>  <SCORE.RESTR.norm>
0

>  <SCORE.SYSTEM>
-20.7008

>  <SCORE.SYSTEM.CONST>
0

>  <SCORE.SYSTEM.DIHEDRAL>
4.18269

>  <SCORE.SYSTEM.POLAR>
-2.98547

>  <SCORE.SYSTEM.SOLV>
0.264813

>  <SCORE.SYSTEM.VDW>
-5.33146

>  <SCORE.SYSTEM.norm>
-1.88189

>  <SCORE.heavy>
11

>  <SCORE.norm>
-5.9687

$$$$
N6-methyladenine
 OpenBabel12072022113D
libRbt.so/2013.1/901 2013/11/27
 13 14  0  0  0  0  0  0  0  0999 V2000
    4.0732   15.4207    3.6749 C   0  0  0  0  0  0  0  0  0  0  0  0
    5.3805   15.4724    3.0593 N   0  0  0  0  0  0  0  0  0  0  0  0
    5.9008   16.7581    2.8765 C   0  0  0  0  0  0  0  0  0  0  0  0
    6.0047   17.6684    3.9472 C   0  0  0  0  0  0  0  0  0  0  0  0
    6.5521   18.9073    3.6650 C   0  0  0  0  0  0  0  0  0  0  0  0
    6.5398   19.5807    4.8515 N   0  0  0  0  0  0  0  0  0  0  0  0
    6.8790   20.5202    4.9917 H   0  0  0  0  0  0  0  0  0  0  0  0
    5.9885   18.7522    5.7913 C   0  0  0  0  0  0  0  0  0  0  0  0
    5.6466   17.5877    5.2807 N   0  0  0  0  0  0  0  0  0  0  0  0
    7.0011   19.3593    2.4865 N   0  0  0  0  0  0  0  0  0  0  0  0
    6.8532   18.4158    1.5343 C   0  0  0  0  0  0  0  0  0  0  0  0
    6.3360   17.1729    1.6555 N   0  0  0  0  0  0  0  0  0  0  0  0
    6.0895   14.8707    3.4742 H   0  0  0  0  0  0  0  0  0  0  0  0
  1  2  1  0  0  0  0
  2  3  1  0  0  0  0
  2 13  1  0  0  0  0
  3  4  2  0  0  0  0
  3 12  1  0  0  0  0
  4  5  1  0  0  0  0
  4  9  1  0  0  0  0
  5  6  1  0  0  0  0
  5 10  2  0  0  0  0
  6  7  1  0  0  0  0
  6  8  1  0  0  0  0
  8  9  2  0  0  0  0
 10 11  1  0  0  0  0
 11 12  2  0  0  0  0
M  END
>  <CHROM.0>
-56.74931840,-176.85004322,-66.32408080,-47.61293330,-59.47594264,-175.96062940
-69.09109922,-60.39787553,-168.05616329

>  <CHROM.1>
53.86567985,6.00754157,17.70652238,3.53940974,2.41635951,-1.02850134,-2.06409635

>  <Name>
N6-methyladenine

>  <RI>
3.51561e+07

>  <Rbt.Current_Directory>
/home/fstefaniak/projects/zuza/docking/adenine/4XNR

>  <Rbt.Executable>
rbdock ($Id: //depot/dev/client3/rdock/2013.1/src/exe/rbdock.cxx#4 $)

>  <Rbt.Library>
libRbt.so (2013.1, Build901 2013/11/27)

>  <Rbt.Parameter_File>
/home/fstefaniak/progs/rDock//data/scripts/dock_solv.prm

>  <Rbt.Receptor>
4xnr.prm

>  <SCORE>
-65.4986

>  <SCORE.INTER>
-44.53

>  <SCORE.INTER.CONST>
1

>  <SCORE.INTER.POLAR>
-5.37452

>  <SCORE.INTER.ROT>
1

>  <SCORE.INTER.SOLV>
14.9285

>  <SCORE.INTER.VDW>
-21.0145

>  <SCORE.INTER.norm>
-4.04819

>  <SCORE.INTRA>
-0.407512

>  <SCORE.INTRA.DIHEDRAL>
-0.00193206

>  <SCORE.INTRA.DIHEDRAL.0>
0.485619

>  <SCORE.INTRA.POLAR>
0

>  <SCORE.INTRA.POLAR.0>
0

>  <SCORE.INTRA.REPUL>
0

>  <SCORE.INTRA.REPUL.0>
0

>  <SCORE.INTRA.SOLV>
-0.130182

>  <SCORE.INTRA.SOLV.lig_0>
-16.3399

>  <SCORE.INTRA.VDW>
-0.341455

>  <SCORE.INTRA.VDW.0>
0.597698

>  <SCORE.INTRA.norm>
-0.0370465

>  <SCORE.RESTR>
0

>  <SCORE.RESTR.CAVITY>
0

>  <SCORE.RESTR.norm>
0

>  <SCORE.SYSTEM>
-20.561

>  <SCORE.SYSTEM.CONST>
0

>  <SCORE.SYSTEM.DIHEDRAL>
4.201

>  <SCORE.SYSTEM.POLAR>
-2.98891

>  <SCORE.SYSTEM.SOLV>
0.148164

>  <SCORE.SYSTEM.VDW>
-5.19403

>  <SCORE.SYSTEM.norm>
-1.86918

>  <SCORE.heavy>
11

>  <SCORE.norm>
-5.95442

$$$$
P04819452
 OpenBabel12072022113D
libRbt.so/2013.1/901 2013/11/27
 13 13  0  0  0  0  0  0  0  0999 V2000
    4.9184   18.4152    4.2204 C   0  0  0  0  0  0  0  0  0  0  0  0
    5.4886   17.0212    4.2857 C   0  0  2  0  0  0  0  0  0  0  0  0
    6.1053   18.1294    5.1050 C   0  0  1  0  0  0  0  0  0  0  0  0
    7.4260   18.7614    4.8134 C   0  0  0  0  0  0  0  0  0  0  0  0
    8.3047   18.8862    5.7089 O   0  0  0  0  0  0  0  0  0  0  0  0
    7.5308   19.0592    3.5750 O   0  5  0  0  0  0  0  0  0  0  0  0
    5.8773   18.0415    6.5782 N   0  3  0  0  0  0  0  0  0  0  0  0
    6.5994   17.5079    7.0570 H   0  0  0  0  0  0  0  0  0  0  0  0
    5.6525   18.9454    6.9903 H   0  0  0  0  0  0  0  0  0  0  0  0
    4.9939   17.4633    6.6015 H   0  0  0  0  0  0  0  0  0  0  0  0
    6.1960   16.4149    3.1227 C   0  0  0  0  0  0  0  0  0  0  0  0
    6.0461   17.3105    2.0284 O   0  0  0  0  0  0  0  0  0  0  0  0
    6.5325   18.1184    2.2730 H   0  0  0  0  0  0  0  0  0  0  0  0
  1  2  1  0  0  0  0
  1  3  1  0  0  0  0
  2  3  1  0  0  0  0
  2 11  1  6  0  0  0
  3  4  1  6  0  0  0
  3  7  1  0  0  0  0
  4  5  2  0  0  0  0
  4  6  1  0  0  0  0
  7  8  1  0  0  0  0
  7  9  1  0  0  0  0
  7 10  1  0  0  0  0
 11 12  1  0  0  0  0
 12 13  1  0  0  0  0
M  CHG  2   6  -1   7   1
M  END
>  <CHROM.0>
-56.01675045,63.97264326,-57.19743339,-44.71816584,-55.47994185,-57.75678891
-65.23818795,-172.84115574,-169.14172335

>  <CHROM.1>
-6.93220903,158.14498245,157.57419643,65.71877118,6.45354512,18.01722203
4.37850307,1.97705166,-0.52372019,-1.79938469

>  <Name>
P04819452

>  <RI>
2.22087e+07

>  <Rbt.Current_Directory>
/home/fstefaniak/projects/zuza/docking/adenine/4XNR

>  <Rbt.Executable>
rbdock ($Id: //depot/dev/client3/rdock/2013.1/src/exe/rbdock.cxx#4 $)

>  <Rbt.Library>
libRbt.so (2013.1, Build901 2013/11/27)

>  <Rbt.Parameter_File>
/home/fstefaniak/progs/rDock//data/scripts/dock_solv.prm

>  <Rbt.Receptor>
4xnr.prm

>  <SCORE>
-50.0031

>  <SCORE.INTER>
-26.9497

>  <SCORE.INTER.CONST>
1

>  <SCORE.INTER.POLAR>
-5.72064

>  <SCORE.INTER.ROT>
2

>  <SCORE.INTER.SOLV>
26.5205

>  <SCORE.INTER.VDW>
-12.6711

>  <SCORE.INTER.norm>
-2.99441

>  <SCORE.INTRA>
-3.67409

>  <SCORE.INTRA.DIHEDRAL>
-3.09464

>  <SCORE.INTRA.DIHEDRAL.0>
7.09876

>  <SCORE.INTRA.POLAR>
-1.15299

>  <SCORE.INTRA.POLAR.0>
0

>  <SCORE.INTRA.REPUL>
0

>  <SCORE.INTRA.REPUL.0>
0

>  <SCORE.INTRA.SOLV>
0.796882

>  <SCORE.INTRA.SOLV.lig_0>
-48.565

>  <SCORE.INTRA.VDW>
1.39495

>  <SCORE.INTRA.VDW.0>
0.225516

>  <SCORE.INTRA.norm>
-0.408233

>  <SCORE.RESTR>
0

>  <SCORE.RESTR.CAVITY>
0

>  <SCORE.RESTR.norm>
0

>  <SCORE.SYSTEM>
-19.3793

>  <SCORE.SYSTEM.CONST>
0

>  <SCORE.SYSTEM.DIHEDRAL>
4.37618

>  <SCORE.SYSTEM.POLAR>
-3.04482

>  <SCORE.SYSTEM.SOLV>
0.248909

>  <SCORE.SYSTEM.VDW>
-4.31183

>  <SCORE.SYSTEM.norm>
-2.15325

>  <SCORE.heavy>
9

>  <SCORE.norm>
-5.5559

$$$$
P04819452
 OpenBabel12072022113D
libRbt.so/2013.1/901 2013/11/27
 13 13  0  0  0  0  0  0  0  0999 V2000
    3.2007   15.1518    3.5932 C   0  0  0  0  0  0  0  0  0  0  0  0
    2.0475   15.8103    4.3070 C   0  0  2  0  0  0  0  0  0  0  0  0
    2.1605   14.3049    4.2816 C   0  0  1  0  0  0  0  0  0  0  0  0
    1.2786   13.4046    3.4813 C   0  0  0  0  0  0  0  0  0  0  0  0
    0.4578   12.6266    4.0386 O   0  0  0  0  0  0  0  0  0  0  0  0
    1.4341   13.6023    2.2282 O   0  5  0  0  0  0  0  0  0  0  0  0
    2.5238   13.6665    5.5817 N   0  3  0  0  0  0  0  0  0  0  0  0
    1.8188   13.0092    5.9080 H   0  0  0  0  0  0  0  0  0  0  0  0
    3.4827   13.3230    5.5905 H   0  0  0  0  0  0  0  0  0  0  0  0
    2.4904   14.5048    6.2231 H   0  0  0  0  0  0  0  0  0  0  0  0
    0.9800   16.5323    3.5590 C   0  0  0  0  0  0  0  0  0  0  0  0
    1.6273   17.3666    2.6067 O   0  0  0  0  0  0  0  0  0  0  0  0
    0.9180   17.7612    2.0680 H   0  0  0  0  0  0  0  0  0  0  0  0
  1  2  1  0  0  0  0
  1  3  1  0  0  0  0
  2  3  1  0  0  0  0
  2 11  1  6  0  0  0
  3  4  1  6  0  0  0
  3  7  1  0  0  0  0
  4  5  2  0  0  0  0
  4  6  1  0  0  0  0
  7  8  1  0  0  0  0
  7  9  1  0  0  0  0
  7 10  1  0  0  0  0
 11 12  1  0  0  0  0
 12 13  1  0  0  0  0
M  CHG  2   6  -1   7   1
M  END
>  <CHROM.0>
-56.67922285,-175.25174315,-72.17546394,-47.13465770,-59.70817894,-61.66890525
-170.55146017,-59.49433995,-167.44894256

>  <CHROM.1>
-46.35690102,175.60778786,-171.68327997,174.42110145,1.73138873,14.72620868
3.73468747,-1.47591269,0.94205740,2.76625204

>  <Name>
P04819452

>  <RI>
2.22087e+07

>  <Rbt.Current_Directory>
/home/fstefaniak/projects/zuza/docking/adenine/4XNR

>  <Rbt.Executable>
rbdock ($Id: //depot/dev/client3/rdock/2013.1/src/exe/rbdock.cxx#4 $)

>  <Rbt.Library>
libRbt.so (2013.1, Build901 2013/11/27)

>  <Rbt.Parameter_File>
/home/fstefaniak/progs/rDock//data/scripts/dock_solv.prm

>  <Rbt.Receptor>
4xnr.prm

>  <SCORE>
-49.209

>  <SCORE.INTER>
-28.7603

>  <SCORE.INTER.CONST>
1

>  <SCORE.INTER.POLAR>
-5.15941

>  <SCORE.INTER.ROT>
2

>  <SCORE.INTER.SOLV>
17.9683

>  <SCORE.INTER.VDW>
-12.8982

>  <SCORE.INTER.norm>
-3.19559

>  <SCORE.INTRA>
-0.33707

>  <SCORE.INTRA.DIHEDRAL>
-0.955671

>  <SCORE.INTRA.DIHEDRAL.0>
7.09876

>  <SCORE.INTRA.POLAR>
0

>  <SCORE.INTRA.POLAR.0>
0

>  <SCORE.INTRA.REPUL>
0

>  <SCORE.INTRA.REPUL.0>
0

>  <SCORE.INTRA.SOLV>
-0.427362

>  <SCORE.INTRA.SOLV.lig_0>
-48.565

>  <SCORE.INTRA.VDW>
0.354446

>  <SCORE.INTRA.VDW.0>
0.225516

>  <SCORE.INTRA.norm>
-0.0374523

>  <SCORE.RESTR>
0

>  <SCORE.RESTR.CAVITY>
0

>  <SCORE.RESTR.norm>
0

>  <SCORE.SYSTEM>
-20.1116

>  <SCORE.SYSTEM.CONST>
0

>  <SCORE.SYSTEM.DIHEDRAL>
4.82072

>  <SCORE.SYSTEM.POLAR>
-2.98249

>  <SCORE.SYSTEM.SOLV>
0.210855

>  <SCORE.SYSTEM.VDW>
-5.14331

>  <SCORE.SYSTEM.norm>
-2.23463

>  <SCORE.heavy>
9

>  <SCORE.norm>
-5.46767

$$$$
P04819452
 OpenBabel12072022113D
libRbt.so/2013.1/901 2013/11/27
 13 13  0  0  0  0  0  0  0  0999 V2000
    4.8967   18.5160    4.2573 C   0  0  0  0  0  0  0  0  0  0  0  0
    5.5250   17.1457    4.2390 C   0  0  2  0  0  0  0  0  0  0  0  0
    6.0797   18.2196    5.1438 C   0  0  1  0  0  0  0  0  0  0  0  0
    7.3768   18.9247    4.9220 C   0  0  0  0  0  0  0  0  0  0  0  0
    8.3092   18.8630    5.7684 O   0  0  0  0  0  0  0  0  0  0  0  0
    7.4026   19.4925    3.7773 O   0  5  0  0  0  0  0  0  0  0  0  0
    5.8308   18.0213    6.6028 N   0  3  0  0  0  0  0  0  0  0  0  0
    5.8100   18.8967    7.1210 H   0  0  0  0  0  0  0  0  0  0  0  0
    5.0546   17.3863    6.7809 H   0  0  0  0  0  0  0  0  0  0  0  0
    6.7145   17.5142    6.8810 H   0  0  0  0  0  0  0  0  0  0  0  0
    6.2772   16.6509    3.0517 C   0  0  0  0  0  0  0  0  0  0  0  0
    5.8302   15.3255    2.7955 O   0  0  0  0  0  0  0  0  0  0  0  0
    6.2064   14.7727    3.5040 H   0  0  0  0  0  0  0  0  0  0  0  0
  1  2  1  0  0  0  0
  1  3  1  0  0  0  0
  2  3  1  0  0  0  0
  2 11  1  6  0  0  0
  3  4  1  6  0  0  0
  3  7  1  0  0  0  0
  4  5  2  0  0  0  0
  4  6  1  0  0  0  0
  7  8  1  0  0  0  0
  7  9  1  0  0  0  0
  7 10  1  0  0  0  0
 11 12  1  0  0  0  0
 12 13  1  0  0  0  0
M  CHG  2   6  -1   7   1
M  END
>  <CHROM.0>
-55.55688165,57.91961849,62.22651190,-47.52647678,-57.29575498,-62.46744529
53.08251947,-58.21705003,-167.77046915

>  <CHROM.1>
-133.84675271,168.37040611,-85.24478417,-72.41331576,6.41034060,17.86787376
4.52239139,2.07510558,-0.66902275,-2.12494333

>  <Name>
P04819452

>  <RI>
2.22087e+07

>  <Rbt.Current_Directory>
/home/fstefaniak/projects/zuza/docking/adenine/4XNR

>  <Rbt.Executable>
rbdock ($Id: //depot/dev/client3/rdock/2013.1/src/exe/rbdock.cxx#4 $)

>  <Rbt.Library>
libRbt.so (2013.1, Build901 2013/11/27)

>  <Rbt.Parameter_File>
/home/fstefaniak/progs/rDock//data/scripts/dock_solv.prm

>  <Rbt.Receptor>
4xnr.prm

>  <SCORE>
-48.6087

>  <SCORE.INTER>
-28.6032

>  <SCORE.INTER.CONST>
1

>  <SCORE.INTER.POLAR>
-6.54562

>  <SCORE.INTER.ROT>
2

>  <SCORE.INTER.SOLV>
28.7807

>  <SCORE.INTER.VDW>
-11.777

>  <SCORE.INTER.norm>
-3.17814

>  <SCORE.INTRA>
-1.95227

>  <SCORE.INTRA.DIHEDRAL>
-2.46754

>  <SCORE.INTRA.DIHEDRAL.0>
7.09876

>  <SCORE.INTRA.POLAR>
0

>  <SCORE.INTRA.POLAR.0>
0

>  <SCORE.INTRA.REPUL>
0

>  <SCORE.INTRA.REPUL.0>
0

>  <SCORE.INTRA.SOLV>
-0.811876

>  <SCORE.INTRA.SOLV.lig_0>
-48.565

>  <SCORE.INTRA.VDW>
-0.31256

>  <SCORE.INTRA.VDW.0>
0.225516

>  <SCORE.INTRA.norm>
-0.216919

>  <SCORE.RESTR>
0

>  <SCORE.RESTR.CAVITY>
0

>  <SCORE.RESTR.norm>
0

>  <SCORE.SYSTEM>
-18.0532

>  <SCORE.SYSTEM.CONST>
0

>  <SCORE.SYSTEM.DIHEDRAL>
3.94082

>  <SCORE.SYSTEM.POLAR>
-2.99075

>  <SCORE.SYSTEM.SOLV>
0.280552

>  <SCORE.SYSTEM.VDW>
-3.47342

>  <SCORE.SYSTEM.norm>
-2.00591

>  <SCORE.heavy>
9

>  <SCORE.norm>
-5.40097

$$$$
P05621203
 OpenBabel12072022113D
libRbt.so/2013.1/901 2013/11/27
 16 16  0  0  0  0  0  0  0  0999 V2000
    7.1347   18.3453    3.4093 C   0  0  0  0  0  0  0  0  0  0  0  0
    6.2055   17.7684    4.5042 C   0  0  2  0  0  0  0  0  0  0  0  0
    4.9944   17.1578    3.7569 C   0  0  1  0  0  0  0  0  0  0  0  0
    5.1271   17.6848    2.3270 C   0  0  1  0  0  0  0  0  0  0  0  0
    6.6410   17.6785    2.1399 C   0  0  1  0  0  0  0  0  0  0  0  0
    7.0048   18.4080    0.9068 N   0  3  0  0  0  0  0  0  0  0  0  0
    6.4855   19.3020    0.9105 H   0  0  0  0  0  0  0  0  0  0  0  0
    8.0013   18.6491    0.8495 H   0  0  0  0  0  0  0  0  0  0  0  0
    6.7350   17.8991    0.0566 H   0  0  0  0  0  0  0  0  0  0  0  0
    4.5211   16.8696    1.3365 O   0  0  0  0  0  0  0  0  0  0  0  0
    5.1412   15.7363    3.6881 O   0  0  0  0  0  0  0  0  0  0  0  0
    5.7877   18.8311    5.5165 C   0  0  0  0  0  0  0  0  0  0  0  0
    5.5557   18.1890    6.7581 O   0  0  0  0  0  0  0  0  0  0  0  0
    4.4247   17.4380    0.5388 H   0  0  0  0  0  0  0  0  0  0  0  0
    5.1194   15.4073    4.6110 H   0  0  0  0  0  0  0  0  0  0  0  0
    6.3767   17.7296    7.0171 H   0  0  0  0  0  0  0  0  0  0  0  0
  1  2  1  0  0  0  0
  1  5  1  0  0  0  0
  2  3  1  0  0  0  0
  2 12  1  1  0  0  0
  3 11  1  6  0  0  0
  3  4  1  0  0  0  0
  4 10  1  6  0  0  0
  4  5  1  0  0  0  0
  5  6  1  6  0  0  0
  6  7  1  0  0  0  0
  6  8  1  0  0  0  0
  6  9  1  0  0  0  0
 10 14  1  0  0  0  0
 11 15  1  0  0  0  0
 12 13  1  0  0  0  0
 13 16  1  0  0  0  0
M  CHG  1   6   1
M  END
>  <CHROM.0>
-56.91633261,-170.73122139,62.53512506,-48.96055015,-174.51476047,-56.30323313
54.84143685,-175.05017263,-167.46745250

>  <CHROM.1>
-150.99426755,63.67599101,162.48373193,-67.09338648,58.09999773,5.79902185
17.64287641,3.41619304,-1.62963503,-0.78930059,-1.71773157

>  <Name>
P05621203

>  <RI>
3.02409e+07

>  <Rbt.Current_Directory>
/home/fstefaniak/projects/zuza/docking/adenine/4XNR

>  <Rbt.Executable>
rbdock ($Id: //depot/dev/client3/rdock/2013.1/src/exe/rbdock.cxx#4 $)

>  <Rbt.Library>
libRbt.so (2013.1, Build901 2013/11/27)

>  <Rbt.Parameter_File>
/home/fstefaniak/progs/rDock//data/scripts/dock_solv.prm

>  <Rbt.Receptor>
4xnr.prm

>  <SCORE>
-61.6167

>  <SCORE.INTER>
-41.9152

>  <SCORE.INTER.CONST>
1

>  <SCORE.INTER.POLAR>
-6.52475

>  <SCORE.INTER.ROT>
1

>  <SCORE.INTER.SOLV>
23.8937

>  <SCORE.INTER.VDW>
-18.4255

>  <SCORE.INTER.norm>
-4.19152

>  <SCORE.INTRA>
-1.20217

>  <SCORE.INTRA.DIHEDRAL>
-3.53526

>  <SCORE.INTRA.DIHEDRAL.0>
7.97804

>  <SCORE.INTRA.POLAR>
0.277109

>  <SCORE.INTRA.POLAR.0>
-0.277109

>  <SCORE.INTRA.REPUL>
0

>  <SCORE.INTRA.REPUL.0>
0

>  <SCORE.INTRA.SOLV>
0.0195059

>  <SCORE.INTRA.SOLV.lig_0>
-36.6266

>  <SCORE.INTRA.VDW>
-0.386465

>  <SCORE.INTRA.VDW.0>
-0.310771

>  <SCORE.INTRA.norm>
-0.120217

>  <SCORE.RESTR>
0

>  <SCORE.RESTR.CAVITY>
0

>  <SCORE.RESTR.norm>
0

>  <SCORE.SYSTEM>
-18.4994

>  <SCORE.SYSTEM.CONST>
0

>  <SCORE.SYSTEM.DIHEDRAL>
4.30299

>  <SCORE.SYSTEM.POLAR>
-2.96592

>  <SCORE.SYSTEM.SOLV>
-0.141612

>  <SCORE.SYSTEM.VDW>
-3.83365

>  <SCORE.SYSTEM.norm>
-1.84994

>  <SCORE.heavy>
10

>  <SCORE.norm>
-6.16167

$$$$
P05621203
 OpenBabel12072022113D
libRbt.so/2013.1/901 2013/11/27
 16 16  0  0  0  0  0  0  0  0999 V2000
    7.1790   18.3058    3.3993 C   0  0  0  0  0  0  0  0  0  0  0  0
    6.2350   17.7496    4.4922 C   0  0  2  0  0  0  0  0  0  0  0  0
    5.0004   17.1893    3.7441 C   0  0  1  0  0  0  0  0  0  0  0  0
    5.1452   17.7267    2.3193 C   0  0  1  0  0  0  0  0  0  0  0  0
    6.6572   17.6702    2.1252 C   0  0  1  0  0  0  0  0  0  0  0  0
    7.0406   18.3999    0.8982 N   0  3  0  0  0  0  0  0  0  0  0  0
    6.4990   19.2803    0.8786 H   0  0  0  0  0  0  0  0  0  0  0  0
    8.0320   18.6660    0.8699 H   0  0  0  0  0  0  0  0  0  0  0  0
    6.8105   17.8782    0.0441 H   0  0  0  0  0  0  0  0  0  0  0  0
    4.5071   16.9436    1.3231 O   0  0  0  0  0  0  0  0  0  0  0  0
    5.0977   15.7643    3.6596 O   0  0  0  0  0  0  0  0  0  0  0  0
    5.8586   18.8152    5.5177 C   0  0  0  0  0  0  0  0  0  0  0  0
    5.5336   18.1617    6.7322 O   0  0  0  0  0  0  0  0  0  0  0  0
    4.4300   17.5225    0.5308 H   0  0  0  0  0  0  0  0  0  0  0  0
    4.3015   15.4572    3.1778 H   0  0  0  0  0  0  0  0  0  0  0  0
    6.3273   17.6838    7.0384 H   0  0  0  0  0  0  0  0  0  0  0  0
  1  2  1  0  0  0  0
  1  5  1  0  0  0  0
  2  3  1  0  0  0  0
  2 12  1  1  0  0  0
  3 11  1  6  0  0  0
  3  4  1  0  0  0  0
  4 10  1  6  0  0  0
  4  5  1  0  0  0  0
  5  6  1  6  0  0  0
  6  7  1  0  0  0  0
  6  8  1  0  0  0  0
  6  9  1  0  0  0  0
 10 14  1  0  0  0  0
 11 15  1  0  0  0  0
 12 13  1  0  0  0  0
 13 16  1  0  0  0  0
M  CHG  1   6   1
M  END
>  <CHROM.0>
-56.39454838,-169.22724843,61.66257846,-46.75560215,-63.26907105,-178.43855496
54.60250977,-64.42646274,-167.46145080

>  <CHROM.1>
-154.37531213,-179.75179515,162.68395014,-71.22706330,61.78428211,5.80579053
17.64941025,3.39324686,-1.62606858,-0.74653952,-1.70999716

>  <Name>
P05621203

>  <RI>
3.02409e+07

>  <Rbt.Current_Directory>
/home/fstefaniak/projects/zuza/docking/adenine/4XNR

>  <Rbt.Executable>
rbdock ($Id: //depot/dev/client3/rdock/2013.1/src/exe/rbdock.cxx#4 $)

>  <Rbt.Library>
libRbt.so (2013.1, Build901 2013/11/27)

>  <Rbt.Parameter_File>
/home/fstefaniak/progs/rDock//data/scripts/dock_solv.prm

>  <Rbt.Receptor>
4xnr.prm

>  <SCORE>
-61.137

>  <SCORE.INTER>
-41.5318

>  <SCORE.INTER.CONST>
1

>  <SCORE.INTER.POLAR>
-6.46649

>  <SCORE.INTER.ROT>
1

>  <SCORE.INTER.SOLV>
23.7515

>  <SCORE.INTER.VDW>
-18.3168

>  <SCORE.INTER.norm>
-4.15318

>  <SCORE.INTRA>
-1.24422

>  <SCORE.INTRA.DIHEDRAL>
-3.91444

>  <SCORE.INTRA.DIHEDRAL.0>
7.97804

>  <SCORE.INTRA.POLAR>
0.277109

>  <SCORE.INTRA.POLAR.0>
-0.277109

>  <SCORE.INTRA.REPUL>
0

>  <SCORE.INTRA.REPUL.0>
0

>  <SCORE.INTRA.SOLV>
0.198459

>  <SCORE.INTRA.SOLV.lig_0>
-36.6266

>  <SCORE.INTRA.VDW>
-0.328403

>  <SCORE.INTRA.VDW.0>
-0.310771

>  <SCORE.INTRA.norm>
-0.124422

>  <SCORE.RESTR>
0

>  <SCORE.RESTR.CAVITY>
0

>  <SCORE.RESTR.norm>
0

>  <SCORE.SYSTEM>
-18.3609

>  <SCORE.SYSTEM.CONST>
0

>  <SCORE.SYSTEM.DIHEDRAL>
4.53329

>  <SCORE.SYSTEM.POLAR>
-2.99482

>  <SCORE.SYSTEM.SOLV>
0.0390491

>  <SCORE.SYSTEM.VDW>
-3.78202

>  <SCORE.SYSTEM.norm>
-1.83609

>  <SCORE.heavy>
10

>  <SCORE.norm>
-6.1137

$$$$
P05621203
 OpenBabel12072022113D
libRbt.so/2013.1/901 2013/11/27
 16 16  0  0  0  0  0  0  0  0999 V2000
    7.1649   18.3575    3.3726 C   0  0  0  0  0  0  0  0  0  0  0  0
    6.2327   17.7777    4.4633 C   0  0  2  0  0  0  0  0  0  0  0  0
    5.0085   17.1976    3.7132 C   0  0  1  0  0  0  0  0  0  0  0  0
    5.1418   17.7448    2.2911 C   0  0  1  0  0  0  0  0  0  0  0  0
    6.6544   17.7184    2.0956 C   0  0  1  0  0  0  0  0  0  0  0  0
    7.0229   18.4615    0.8720 N   0  3  0  0  0  0  0  0  0  0  0  0
    6.8217   17.8485    0.0642 H   0  0  0  0  0  0  0  0  0  0  0  0
    6.4766   19.3195    0.7309 H   0  0  0  0  0  0  0  0  0  0  0  0
    8.0228   18.6934    0.8407 H   0  0  0  0  0  0  0  0  0  0  0  0
    4.5181   16.9547    1.2913 O   0  0  0  0  0  0  0  0  0  0  0  0
    5.1331   15.7752    3.6214 O   0  0  0  0  0  0  0  0  0  0  0  0
    5.8366   18.8307    5.4944 C   0  0  0  0  0  0  0  0  0  0  0  0
    5.3526   18.1599    6.6448 O   0  0  0  0  0  0  0  0  0  0  0  0
    4.5160   17.5030    0.4740 H   0  0  0  0  0  0  0  0  0  0  0  0
    5.0979   15.4310    4.5384 H   0  0  0  0  0  0  0  0  0  0  0  0
    5.1493   18.8324    7.3219 H   0  0  0  0  0  0  0  0  0  0  0  0
  1  2  1  0  0  0  0
  1  5  1  0  0  0  0
  2  3  1  0  0  0  0
  2 12  1  1  0  0  0
  3 11  1  6  0  0  0
  3  4  1  0  0  0  0
  4 10  1  6  0  0  0
  4  5  1  0  0  0  0
  5  6  1  6  0  0  0
  6  7  1  0  0  0  0
  6  8  1  0  0  0  0
  6  9  1  0  0  0  0
 10 14  1  0  0  0  0
 11 15  1  0  0  0  0
 12 13  1  0  0  0  0
 13 16  1  0  0  0  0
M  CHG  1   6   1
M  END
>  <CHROM.0>
-58.56933943,-173.17695612,-63.73047242,-47.87907950,-59.35656058,-175.94130431
-67.32634446,-57.98388778,-168.18633037

>  <CHROM.1>
-162.16932012,64.48587082,168.55465733,167.46546861,176.72639383,5.78400442
17.68055011,3.36844803,-1.45651738,0.77154674,1.39900556

>  <Name>
P05621203

>  <RI>
3.02409e+07

>  <Rbt.Current_Directory>
/home/fstefaniak/projects/zuza/docking/adenine/4XNR

>  <Rbt.Executable>
rbdock ($Id: //depot/dev/client3/rdock/2013.1/src/exe/rbdock.cxx#4 $)

>  <Rbt.Library>
libRbt.so (2013.1, Build901 2013/11/27)

>  <Rbt.Parameter_File>
/home/fstefaniak/progs/rDock//data/scripts/dock_solv.prm

>  <Rbt.Receptor>
4xnr.prm

>  <SCORE>
-59.5967

>  <SCORE.INTER>
-36.8019

>  <SCORE.INTER.CONST>
1

>  <SCORE.INTER.POLAR>
-5.51651

>  <SCORE.INTER.ROT>
1

>  <SCORE.INTER.SOLV>
23.8537

>  <SCORE.INTER.VDW>
-18.3642

>  <SCORE.INTER.norm>
-3.68019

>  <SCORE.INTRA>
-2.32204

>  <SCORE.INTRA.DIHEDRAL>
-5.40715

>  <SCORE.INTRA.DIHEDRAL.0>
7.97804

>  <SCORE.INTRA.POLAR>
0.277109

>  <SCORE.INTRA.POLAR.0>
-0.277109

>  <SCORE.INTRA.REPUL>
0

>  <SCORE.INTRA.REPUL.0>
0

>  <SCORE.INTRA.SOLV>
0.125487

>  <SCORE.INTRA.SOLV.lig_0>
-36.6266

>  <SCORE.INTRA.VDW>
-0.623376

>  <SCORE.INTRA.VDW.0>
-0.310771

>  <SCORE.INTRA.norm>
-0.232204

>  <SCORE.RESTR>
0

>  <SCORE.RESTR.CAVITY>
0

>  <SCORE.RESTR.norm>
0

>  <SCORE.SYSTEM>
-20.4727

>  <SCORE.SYSTEM.CONST>
0

>  <SCORE.SYSTEM.DIHEDRAL>
4.06711

>  <SCORE.SYSTEM.POLAR>
-2.97504

>  <SCORE.SYSTEM.SOLV>
0.153001

>  <SCORE.SYSTEM.VDW>
-5.13834

>  <SCORE.SYSTEM.norm>
-2.04727

>  <SCORE.heavy>
10

>  <SCORE.norm>
-5.95967

$$$$
P06850086
 OpenBabel12072022113D
libRbt.so/2013.1/901 2013/11/27
 14 13  0  0  0  0  0  0  0  0999 V2000
    4.5470   15.7872    3.7855 C   0  0  0  0  0  0  0  0  0  0  0  0
    5.6418   16.8438    3.6815 C   0  0  2  0  0  0  0  0  0  0  0  0
    5.3765   18.1241    4.4963 C   0  0  2  0  0  0  0  0  0  0  0  0
    6.3960   19.2333    4.2543 C   0  0  0  0  0  0  0  0  0  0  0  0
    7.0890   19.2195    3.2387 O   0  0  0  0  0  0  0  0  0  0  0  0
    6.5037   20.2217    5.1804 N   0  0  0  0  0  0  0  0  0  0  0  0
    5.3652   17.7390    5.9591 N   0  3  0  0  0  0  0  0  0  0  0  0
    4.7337   16.9542    6.1463 H   0  0  0  0  0  0  0  0  0  0  0  0
    6.3295   17.4962    6.2364 H   0  0  0  0  0  0  0  0  0  0  0  0
    5.0341   18.5363    6.5214 H   0  0  0  0  0  0  0  0  0  0  0  0
    5.7211   17.2541    2.3024 O   0  0  0  0  0  0  0  0  0  0  0  0
    6.0826   20.2157    6.1025 H   0  0  0  0  0  0  0  0  0  0  0  0
    7.2142   20.9334    5.0227 H   0  0  0  0  0  0  0  0  0  0  0  0
    6.5434   17.7772    2.1956 H   0  0  0  0  0  0  0  0  0  0  0  0
  2 11  1  0  0  0  0
  2  1  1  6  0  0  0
  3  4  1  1  0  0  0
  3  7  1  0  0  0  0
  3  2  1  0  0  0  0
  4  5  2  0  0  0  0
  4  6  1  0  0  0  0
  6 12  1  0  0  0  0
  6 13  1  0  0  0  0
  7  8  1  0  0  0  0
  7  9  1  0  0  0  0
  7 10  1  0  0  0  0
 11 14  1  0  0  0  0
M  CHG  1   7   1
M  END
>  <CHROM.0>
-56.97644047,-56.35448983,-64.85631338,-48.40981177,-175.28288955,-65.39706353
-70.01102067,-56.87255891,-167.71047229

>  <CHROM.1>
-167.71215116,19.72829433,-51.73664738,-173.20732132,5.84214932,18.05950920
4.12645082,2.38644193,-1.00378432,-2.05973459

>  <Name>
P06850086

>  <RI>
3.02409e+07

>  <Rbt.Current_Directory>
/home/fstefaniak/projects/zuza/docking/adenine/4XNR

>  <Rbt.Executable>
rbdock ($Id: //depot/dev/client3/rdock/2013.1/src/exe/rbdock.cxx#4 $)

>  <Rbt.Library>
libRbt.so (2013.1, Build901 2013/11/27)

>  <Rbt.Parameter_File>
/home/fstefaniak/progs/rDock//data/scripts/dock_solv.prm

>  <Rbt.Receptor>
4xnr.prm

>  <SCORE>
-56.4229

>  <SCORE.INTER>
-35.7134

>  <SCORE.INTER.CONST>
1

>  <SCORE.INTER.POLAR>
-5.12247

>  <SCORE.INTER.ROT>
2

>  <SCORE.INTER.SOLV>
21.0943

>  <SCORE.INTER.VDW>
-18.6988

>  <SCORE.INTER.norm>
-4.46417

>  <SCORE.INTRA>
0.0726651

>  <SCORE.INTRA.DIHEDRAL>
-0.334287

>  <SCORE.INTRA.DIHEDRAL.0>
2.68325

>  <SCORE.INTRA.POLAR>
0.204188

>  <SCORE.INTRA.POLAR.0>
-0.30659

>  <SCORE.INTRA.REPUL>
0

>  <SCORE.INTRA.REPUL.0>
0

>  <SCORE.INTRA.SOLV>
-0.420401

>  <SCORE.INTRA.SOLV.lig_0>
-33.0667

>  <SCORE.INTRA.VDW>
-0.244232

>  <SCORE.INTRA.VDW.0>
0.205649

>  <SCORE.INTRA.norm>
0.00908314

>  <SCORE.RESTR>
0

>  <SCORE.RESTR.CAVITY>
0

>  <SCORE.RESTR.norm>
0

>  <SCORE.SYSTEM>
-20.7822

>  <SCORE.SYSTEM.CONST>
0

>  <SCORE.SYSTEM.DIHEDRAL>
4.36364

>  <SCORE.SYSTEM.POLAR>
-2.98051

>  <SCORE.SYSTEM.SOLV>
0.1054

>  <SCORE.SYSTEM.VDW>
-5.40941

>  <SCORE.SYSTEM.norm>
-2.59777

>  <SCORE.heavy>
8

>  <SCORE.norm>
-7.05286

$$$$
P06850086
 OpenBabel12072022113D
libRbt.so/2013.1/901 2013/11/27
 14 13  0  0  0  0  0  0  0  0999 V2000
    4.5368   15.8081    3.7609 C   0  0  0  0  0  0  0  0  0  0  0  0
    5.6487   16.8498    3.6957 C   0  0  2  0  0  0  0  0  0  0  0  0
    5.3700   18.1359    4.4968 C   0  0  2  0  0  0  0  0  0  0  0  0
    6.3942   19.2429    4.2649 C   0  0  0  0  0  0  0  0  0  0  0  0
    7.1107   19.2171    3.2660 O   0  0  0  0  0  0  0  0  0  0  0  0
    6.4798   20.2427    5.1810 N   0  0  0  0  0  0  0  0  0  0  0  0
    5.3329   17.7610    5.9618 N   0  3  0  0  0  0  0  0  0  0  0  0
    4.6934   16.9817    6.1443 H   0  0  0  0  0  0  0  0  0  0  0  0
    6.2911   17.5139    6.2561 H   0  0  0  0  0  0  0  0  0  0  0  0
    4.9984   18.5644    6.5133 H   0  0  0  0  0  0  0  0  0  0  0  0
    5.7853   17.2550    2.3196 O   0  0  0  0  0  0  0  0  0  0  0  0
    6.0373   20.2478    6.0930 H   0  0  0  0  0  0  0  0  0  0  0  0
    7.1933   20.9531    5.0311 H   0  0  0  0  0  0  0  0  0  0  0  0
    6.6114   17.7777    2.2451 H   0  0  0  0  0  0  0  0  0  0  0  0
  2 11  1  0  0  0  0
  2  1  1  6  0  0  0
  3  4  1  1  0  0  0
  3  7  1  0  0  0  0
  3  2  1  0  0  0  0
  4  5  2  0  0  0  0
  4  6  1  0  0  0  0
  6 12  1  0  0  0  0
  6 13  1  0  0  0  0
  7  8  1  0  0  0  0
  7  9  1  0  0  0  0
  7 10  1  0  0  0  0
 11 14  1  0  0  0  0
M  CHG  1   7   1
M  END
>  <CHROM.0>
-57.85790394,-58.71192972,-54.09904725,-46.87195019,-57.98292666,-63.13208776
-68.84182910,-59.69041987,-166.56246133

>  <CHROM.1>
-168.50110093,19.26696336,-52.09716561,-171.81554403,5.84469831,18.07100315
4.13288392,2.34797736,-0.98914638,-2.09904124

>  <Name>
P06850086

>  <RI>
3.02409e+07

>  <Rbt.Current_Directory>
/home/fstefaniak/projects/zuza/docking/adenine/4XNR

>  <Rbt.Executable>
rbdock ($Id: //depot/dev/client3/rdock/2013.1/src/exe/rbdock.cxx#4 $)

>  <Rbt.Library>
libRbt.so (2013.1, Build901 2013/11/27)

>  <Rbt.Parameter_File>
/home/fstefaniak/progs/rDock//data/scripts/dock_solv.prm

>  <Rbt.Receptor>
4xnr.prm

>  <SCORE>
-56.0849

>  <SCORE.INTER>
-35.661

>  <SCORE.INTER.CONST>
1

>  <SCORE.INTER.POLAR>
-5.12347

>  <SCORE.INTER.ROT>
2

>  <SCORE.INTER.SOLV>
21.1885

>  <SCORE.INTER.VDW>
-18.6919

>  <SCORE.INTER.norm>
-4.45762

>  <SCORE.INTRA>
0.0437357

>  <SCORE.INTRA.DIHEDRAL>
-0.385049

>  <SCORE.INTRA.DIHEDRAL.0>
2.68325

>  <SCORE.INTRA.POLAR>
0.194225

>  <SCORE.INTRA.POLAR.0>
-0.30659

>  <SCORE.INTRA.REPUL>
0

>  <SCORE.INTRA.REPUL.0>
0

>  <SCORE.INTRA.SOLV>
-0.435827

>  <SCORE.INTRA.SOLV.lig_0>
-33.0667

>  <SCORE.INTRA.VDW>
-0.206191

>  <SCORE.INTRA.VDW.0>
0.205649

>  <SCORE.INTRA.norm>
0.00546696

>  <SCORE.RESTR>
0

>  <SCORE.RESTR.CAVITY>
0

>  <SCORE.RESTR.norm>
0

>  <SCORE.SYSTEM>
-20.4677

>  <SCORE.SYSTEM.CONST>
0

>  <SCORE.SYSTEM.DIHEDRAL>
4.32173

>  <SCORE.SYSTEM.POLAR>
-3.02764

>  <SCORE.SYSTEM.SOLV>
0.300112

>  <SCORE.SYSTEM.VDW>
-5.09359

>  <SCORE.SYSTEM.norm>
-2.55846

>  <SCORE.heavy>
8

>  <SCORE.norm>
-7.01061

$$$$
P06850086
 OpenBabel12072022113D
libRbt.so/2013.1/901 2013/11/27
 14 13  0  0  0  0  0  0  0  0999 V2000
    4.6007   15.7692    3.8191 C   0  0  0  0  0  0  0  0  0  0  0  0
    5.7030   16.8213    3.7572 C   0  0  2  0  0  0  0  0  0  0  0  0
    5.3790   18.1335    4.4966 C   0  0  2  0  0  0  0  0  0  0  0  0
    6.3676   19.2614    4.2162 C   0  0  0  0  0  0  0  0  0  0  0  0
    7.0958   19.2079    3.2269 O   0  0  0  0  0  0  0  0  0  0  0  0
    6.4088   20.3104    5.0789 N   0  0  0  0  0  0  0  0  0  0  0  0
    5.3477   17.8262    5.9774 N   0  3  0  0  0  0  0  0  0  0  0  0
    5.0430   18.6319    6.5320 H   0  0  0  0  0  0  0  0  0  0  0  0
    4.7116   17.0271    6.1279 H   0  0  0  0  0  0  0  0  0  0  0  0
    6.2955   17.5784    6.2966 H   0  0  0  0  0  0  0  0  0  0  0  0
    5.8896   17.1753    2.3729 O   0  0  0  0  0  0  0  0  0  0  0  0
    5.9561   20.3481    5.9851 H   0  0  0  0  0  0  0  0  0  0  0  0
    7.0995   21.0360    4.8984 H   0  0  0  0  0  0  0  0  0  0  0  0
    6.6945   17.7321    2.3152 H   0  0  0  0  0  0  0  0  0  0  0  0
  2 11  1  0  0  0  0
  2  1  1  6  0  0  0
  3  4  1  1  0  0  0
  3  7  1  0  0  0  0
  3  2  1  0  0  0  0
  4  5  2  0  0  0  0
  4  6  1  0  0  0  0
  6 12  1  0  0  0  0
  6 13  1  0  0  0  0
  7  8  1  0  0  0  0
  7  9  1  0  0  0  0
  7 10  1  0  0  0  0
 11 14  1  0  0  0  0
M  CHG  1   7   1
M  END
>  <CHROM.0>
-58.35588969,-60.26808149,-59.78572423,-46.14148907,-61.96398329,-62.64180318
-69.11914225,59.08291463,-168.43997117

>  <CHROM.1>
-170.51330210,18.73737598,-174.13503865,-169.39107452,5.86219458,18.07091955
4.13266655,2.29402530,-1.00536186,-2.18990678

>  <Name>
P06850086

>  <RI>
3.02409e+07

>  <Rbt.Current_Directory>
/home/fstefaniak/projects/zuza/docking/adenine/4XNR

>  <Rbt.Executable>
rbdock ($Id: //depot/dev/client3/rdock/2013.1/src/exe/rbdock.cxx#4 $)

>  <Rbt.Library>
libRbt.so (2013.1, Build901 2013/11/27)

>  <Rbt.Parameter_File>
/home/fstefaniak/progs/rDock//data/scripts/dock_solv.prm

>  <Rbt.Receptor>
4xnr.prm

>  <SCORE>
-55.3234

>  <SCORE.INTER>
-35.7722

>  <SCORE.INTER.CONST>
1

>  <SCORE.INTER.POLAR>
-5.17027

>  <SCORE.INTER.ROT>
2

>  <SCORE.INTER.SOLV>
21.3184

>  <SCORE.INTER.VDW>
-18.6534

>  <SCORE.INTER.norm>
-4.47153

>  <SCORE.INTRA>
0.19853

>  <SCORE.INTRA.DIHEDRAL>
-0.532451

>  <SCORE.INTRA.DIHEDRAL.0>
2.68325

>  <SCORE.INTRA.POLAR>
0.178305

>  <SCORE.INTRA.POLAR.0>
-0.30659

>  <SCORE.INTRA.REPUL>
0

>  <SCORE.INTRA.REPUL.0>
0

>  <SCORE.INTRA.SOLV>
-0.460869

>  <SCORE.INTRA.SOLV.lig_0>
-33.0667

>  <SCORE.INTRA.VDW>
0.0889515

>  <SCORE.INTRA.VDW.0>
0.205649

>  <SCORE.INTRA.norm>
0.0248163

>  <SCORE.RESTR>
0

>  <SCORE.RESTR.CAVITY>
0

>  <SCORE.RESTR.norm>
0

>  <SCORE.SYSTEM>
-19.7497

>  <SCORE.SYSTEM.CONST>
0

>  <SCORE.SYSTEM.DIHEDRAL>
4.04932

>  <SCORE.SYSTEM.POLAR>
-2.99617

>  <SCORE.SYSTEM.SOLV>
0.114361

>  <SCORE.SYSTEM.VDW>
-4.56715

>  <SCORE.SYSTEM.norm>
-2.46872

>  <SCORE.heavy>
8

>  <SCORE.norm>
-6.91543

$$$$
P07497363
 OpenBabel12072022113D
libRbt.so/2013.1/901 2013/11/27
 16 16  0  0  0  0  0  0  0  0999 V2000
    5.4429   17.2882    5.3611 C   0  0  0  0  0  0  0  0  0  0  0  0
    6.0266   17.5440    3.9501 C   0  0  2  0  0  0  0  0  0  0  0  0
    6.7461   18.8958    4.0641 C   0  0  1  0  0  0  0  0  0  0  0  0
    5.8820   19.6644    5.0770 C   0  0  1  0  0  0  0  0  0  0  0  0
    5.6232   18.5912    6.1431 C   0  0  2  0  0  0  0  0  0  0  0  0
    6.8484   18.5241    6.9973 N   0  3  0  0  0  0  0  0  0  0  0  0
    6.6188   18.9107    7.9351 H   0  0  0  0  0  0  0  0  0  0  0  0
    7.0346   17.5274    7.1917 H   0  0  0  0  0  0  0  0  0  0  0  0
    7.6843   18.9765    6.6201 H   0  0  0  0  0  0  0  0  0  0  0  0
    6.5578   20.7699    5.6753 O   0  0  0  0  0  0  0  0  0  0  0  0
    8.0414   18.6485    4.6509 O   0  0  0  0  0  0  0  0  0  0  0  0
    4.9352   17.5498    2.8780 C   0  0  0  0  0  0  0  0  0  0  0  0
    5.5561   17.6755    1.6111 O   0  0  0  0  0  0  0  0  0  0  0  0
    7.0036   21.2652    4.9591 H   0  0  0  0  0  0  0  0  0  0  0  0
    8.4945   18.0257    4.0417 H   0  0  0  0  0  0  0  0  0  0  0  0
    5.6817   18.6270    1.4322 H   0  0  0  0  0  0  0  0  0  0  0  0
  1  2  1  0  0  0  0
  1  5  1  0  0  0  0
  2  3  1  0  0  0  0
  2 12  1  6  0  0  0
  3  4  1  0  0  0  0
  3 11  1  1  0  0  0
  4 10  1  1  0  0  0
  4  5  1  0  0  0  0
  5  6  1  1  0  0  0
  6  7  1  0  0  0  0
  6  8  1  0  0  0  0
  6  9  1  0  0  0  0
 10 14  1  0  0  0  0
 11 15  1  0  0  0  0
 12 13  1  0  0  0  0
 13 16  1  0  0  0  0
M  CHG  1   6   1
M  END
>  <CHROM.0>
-39.98527171,-62.75817064,-68.12130231,-46.63446428,-54.96655684,-174.82260010
-67.00152692,-58.93683476,-167.72782554

>  <CHROM.1>
-175.13753649,59.26599387,46.27407501,-136.10598459,-86.44151396,6.22814230
18.54668360,4.63895906,2.12253686,-1.02314723,-1.51087120

>  <Name>
P07497363

>  <RI>
3.02409e+07

>  <Rbt.Current_Directory>
/home/fstefaniak/projects/zuza/docking/adenine/4XNR

>  <Rbt.Executable>
rbdock ($Id: //depot/dev/client3/rdock/2013.1/src/exe/rbdock.cxx#4 $)

>  <Rbt.Library>
libRbt.so (2013.1, Build901 2013/11/27)

>  <Rbt.Parameter_File>
/home/fstefaniak/progs/rDock//data/scripts/dock_solv.prm

>  <Rbt.Receptor>
4xnr.prm

>  <SCORE>
-56.9232

>  <SCORE.INTER>
-40.4995

>  <SCORE.INTER.CONST>
1

>  <SCORE.INTER.POLAR>
-6.56686

>  <SCORE.INTER.ROT>
1

>  <SCORE.INTER.SOLV>
22.0619

>  <SCORE.INTER.VDW>
-16.7307

>  <SCORE.INTER.norm>
-4.04995

>  <SCORE.INTRA>
3.38452

>  <SCORE.INTRA.DIHEDRAL>
2.74035

>  <SCORE.INTRA.DIHEDRAL.0>
4.17105

>  <SCORE.INTRA.POLAR>
0.531624

>  <SCORE.INTRA.POLAR.0>
-0.89341

>  <SCORE.INTRA.REPUL>
0

>  <SCORE.INTRA.REPUL.0>
0

>  <SCORE.INTRA.SOLV>
-0.643481

>  <SCORE.INTRA.SOLV.lig_0>
-32.1591

>  <SCORE.INTRA.VDW>
0.528568

>  <SCORE.INTRA.VDW.0>
-0.592581

>  <SCORE.INTRA.norm>
0.338452

>  <SCORE.RESTR>
0

>  <SCORE.RESTR.CAVITY>
0

>  <SCORE.RESTR.norm>
0

>  <SCORE.SYSTEM>
-19.8082

>  <SCORE.SYSTEM.CONST>
0

>  <SCORE.SYSTEM.DIHEDRAL>
6.08995

>  <SCORE.SYSTEM.POLAR>
-3.14367

>  <SCORE.SYSTEM.SOLV>
0.201341

>  <SCORE.SYSTEM.VDW>
-4.82369

>  <SCORE.SYSTEM.norm>
-1.98082

>  <SCORE.heavy>
10

>  <SCORE.norm>
-5.69232

$$$$
P07497363
 OpenBabel12072022113D
libRbt.so/2013.1/901 2013/11/27
 16 16  0  0  0  0  0  0  0  0999 V2000
    5.4026   17.2750    5.3360 C   0  0  0  0  0  0  0  0  0  0  0  0
    6.0272   17.5284    3.9422 C   0  0  2  0  0  0  0  0  0  0  0  0
    6.7576   18.8721    4.0799 C   0  0  1  0  0  0  0  0  0  0  0  0
    5.8744   19.6471    5.0712 C   0  0  1  0  0  0  0  0  0  0  0  0
    5.5753   18.5738    6.1266 C   0  0  2  0  0  0  0  0  0  0  0  0
    6.7760   18.4912    7.0136 N   0  3  0  0  0  0  0  0  0  0  0  0
    6.9754   17.4890    7.2071 H   0  0  0  0  0  0  0  0  0  0  0  0
    7.5919   18.7911    6.4567 H   0  0  0  0  0  0  0  0  0  0  0  0
    6.7262   19.0200    7.8873 H   0  0  0  0  0  0  0  0  0  0  0  0
    6.5454   20.7436    5.6911 O   0  0  0  0  0  0  0  0  0  0  0  0
    8.0337   18.6094    4.7009 O   0  0  0  0  0  0  0  0  0  0  0  0
    4.9655   17.5488    2.8408 C   0  0  0  0  0  0  0  0  0  0  0  0
    5.6205   17.6964    1.5936 O   0  0  0  0  0  0  0  0  0  0  0  0
    7.0092   21.2408    4.9876 H   0  0  0  0  0  0  0  0  0  0  0  0
    8.5186   18.0277    4.0759 H   0  0  0  0  0  0  0  0  0  0  0  0
    5.7364   18.6514    1.4274 H   0  0  0  0  0  0  0  0  0  0  0  0
  1  2  1  0  0  0  0
  1  5  1  0  0  0  0
  2  3  1  0  0  0  0
  2 12  1  6  0  0  0
  3  4  1  0  0  0  0
  3 11  1  1  0  0  0
  4 10  1  1  0  0  0
  4  5  1  0  0  0  0
  5  6  1  1  0  0  0
  6  7  1  0  0  0  0
  6  8  1  0  0  0  0
  6  9  1  0  0  0  0
 10 14  1  0  0  0  0
 11 15  1  0  0  0  0
 12 13  1  0  0  0  0
 13 16  1  0  0  0  0
M  CHG  1   6   1
M  END
>  <CHROM.0>
-44.65566657,-63.38547028,-71.24000840,-47.22371425,-58.52667613,-58.83222393
-169.30873123,-171.71775911,-168.80028231

>  <CHROM.1>
-176.21024342,62.66932385,46.76977602,-24.00509646,-87.26619840,6.22159960
18.53016796,4.63763509,2.07665492,-1.01566610,-1.54412061

>  <Name>
P07497363

>  <RI>
3.02409e+07

>  <Rbt.Current_Directory>
/home/fstefaniak/projects/zuza/docking/adenine/4XNR

>  <Rbt.Executable>
rbdock ($Id: //depot/dev/client3/rdock/2013.1/src/exe/rbdock.cxx#4 $)

>  <Rbt.Library>
libRbt.so (2013.1, Build901 2013/11/27)

>  <Rbt.Parameter_File>
/home/fstefaniak/progs/rDock//data/scripts/dock_solv.prm

>  <Rbt.Receptor>
4xnr.prm

>  <SCORE>
-56.9038

>  <SCORE.INTER>
-39.6528

>  <SCORE.INTER.CONST>
1

>  <SCORE.INTER.POLAR>
-6.3212

>  <SCORE.INTER.ROT>
1

>  <SCORE.INTER.SOLV>
21.7962

>  <SCORE.INTER.VDW>
-16.8966

>  <SCORE.INTER.norm>
-3.96528

>  <SCORE.INTRA>
2.33955

>  <SCORE.INTRA.DIHEDRAL>
2.16009

>  <SCORE.INTRA.DIHEDRAL.0>
4.17105

>  <SCORE.INTRA.POLAR>
0.120857

>  <SCORE.INTRA.POLAR.0>
-0.89341

>  <SCORE.INTRA.REPUL>
0

>  <SCORE.INTRA.REPUL.0>
0

>  <SCORE.INTRA.SOLV>
-0.169061

>  <SCORE.INTRA.SOLV.lig_0>
-32.1591

>  <SCORE.INTRA.VDW>
0.933122

>  <SCORE.INTRA.VDW.0>
-0.592581

>  <SCORE.INTRA.norm>
0.233955

>  <SCORE.RESTR>
0

>  <SCORE.RESTR.CAVITY>
0

>  <SCORE.RESTR.norm>
0

>  <SCORE.SYSTEM>
-19.5906

>  <SCORE.SYSTEM.CONST>
0

>  <SCORE.SYSTEM.DIHEDRAL>
5.91459

>  <SCORE.SYSTEM.POLAR>
-3.07484

>  <SCORE.SYSTEM.SOLV>
0.12339

>  <SCORE.SYSTEM.VDW>
-4.82356

>  <SCORE.SYSTEM.norm>
-1.95906

>  <SCORE.heavy>
10

>  <SCORE.norm>
-5.69038

$$$$
P07497363
 OpenBabel12072022113D
libRbt.so/2013.1/901 2013/11/27
 16 16  0  0  0  0  0  0  0  0999 V2000
    5.4413   17.3126    5.3697 C   0  0  0  0  0  0  0  0  0  0  0  0
    6.0440   17.5486    3.9632 C   0  0  2  0  0  0  0  0  0  0  0  0
    6.7703   18.8973    4.0707 C   0  0  1  0  0  0  0  0  0  0  0  0
    5.8985   19.6827    5.0638 C   0  0  1  0  0  0  0  0  0  0  0  0
    5.6199   18.6234    6.1389 C   0  0  2  0  0  0  0  0  0  0  0  0
    6.8340   18.5589    7.0090 N   0  3  0  0  0  0  0  0  0  0  0  0
    7.5212   19.2620    6.6697 H   0  0  0  0  0  0  0  0  0  0  0  0
    6.5666   18.9193    7.9387 H   0  0  0  0  0  0  0  0  0  0  0  0
    7.2763   17.6410    7.0955 H   0  0  0  0  0  0  0  0  0  0  0  0
    6.5736   20.7909    5.6578 O   0  0  0  0  0  0  0  0  0  0  0  0
    8.0567   18.6491    4.6763 O   0  0  0  0  0  0  0  0  0  0  0  0
    4.9660   17.5485    2.8776 C   0  0  0  0  0  0  0  0  0  0  0  0
    5.6020   17.6772    1.6185 O   0  0  0  0  0  0  0  0  0  0  0  0
    6.9904   21.3031    4.9360 H   0  0  0  0  0  0  0  0  0  0  0  0
    8.5137   18.0171    4.0797 H   0  0  0  0  0  0  0  0  0  0  0  0
    5.7257   18.6292    1.4414 H   0  0  0  0  0  0  0  0  0  0  0  0
  1  2  1  0  0  0  0
  1  5  1  0  0  0  0
  2  3  1  0  0  0  0
  2 12  1  6  0  0  0
  3  4  1  0  0  0  0
  3 11  1  1  0  0  0
  4 10  1  1  0  0  0
  4  5  1  0  0  0  0
  5  6  1  1  0  0  0
  6  7  1  0  0  0  0
  6  8  1  0  0  0  0
  6  9  1  0  0  0  0
 10 14  1  0  0  0  0
 11 15  1  0  0  0  0
 12 13  1  0  0  0  0
 13 16  1  0  0  0  0
M  CHG  1   6   1
M  END
>  <CHROM.0>
-36.87331153,-62.40117853,-60.90462619,-46.14479751,-172.32291232,-56.30858271
-67.33698465,-56.59236376,-167.23019996

>  <CHROM.1>
-176.04603947,59.31111240,49.32841138,115.40443174,-86.38296865,6.24319222
18.56264719,4.64260466,2.10255592,-1.01987199,-1.53798847

>  <Name>
P07497363

>  <RI>
3.02409e+07

>  <Rbt.Current_Directory>
/home/fstefaniak/projects/zuza/docking/adenine/4XNR

>  <Rbt.Executable>
rbdock ($Id: //depot/dev/client3/rdock/2013.1/src/exe/rbdock.cxx#4 $)

>  <Rbt.Library>
libRbt.so (2013.1, Build901 2013/11/27)

>  <Rbt.Parameter_File>
/home/fstefaniak/progs/rDock//data/scripts/dock_solv.prm

>  <Rbt.Receptor>
4xnr.prm

>  <SCORE>
-56.8417

>  <SCORE.INTER>
-41.5867

>  <SCORE.INTER.CONST>
1

>  <SCORE.INTER.POLAR>
-6.68963

>  <SCORE.INTER.ROT>
1

>  <SCORE.INTER.SOLV>
21.8072

>  <SCORE.INTER.VDW>
-16.9615

>  <SCORE.INTER.norm>
-4.15867

>  <SCORE.INTRA>
4.16162

>  <SCORE.INTRA.DIHEDRAL>
3.09167

>  <SCORE.INTRA.DIHEDRAL.0>
4.17105

>  <SCORE.INTRA.POLAR>
0.612362

>  <SCORE.INTRA.POLAR.0>
-0.89341

>  <SCORE.INTRA.REPUL>
0

>  <SCORE.INTRA.REPUL.0>
0

>  <SCORE.INTRA.SOLV>
-0.373538

>  <SCORE.INTRA.SOLV.lig_0>
-32.1591

>  <SCORE.INTRA.VDW>
0.720522

>  <SCORE.INTRA.VDW.0>
-0.592581

>  <SCORE.INTRA.norm>
0.416162

>  <SCORE.RESTR>
0

>  <SCORE.RESTR.CAVITY>
0

>  <SCORE.RESTR.norm>
0

>  <SCORE.SYSTEM>
-19.4165

>  <SCORE.SYSTEM.CONST>
0

>  <SCORE.SYSTEM.DIHEDRAL>
6.54936

>  <SCORE.SYSTEM.POLAR>
-3.17515

>  <SCORE.SYSTEM.SOLV>
0.158566

>  <SCORE.SYSTEM.VDW>
-4.59649

>  <SCORE.SYSTEM.norm>
-1.94165

>  <SCORE.heavy>
10

>  <SCORE.norm>
-5.68417

$$$$
P08390249
 OpenBabel12072022113D
libRbt.so/2013.1/901 2013/11/27
 12 12  0  0  0  0  0  0  0  0999 V2000
    7.3744   18.2686    4.2857 C   0  0  0  0  0  0  0  0  0  0  0  0
    7.0205   18.1466    2.8038 C   0  0  1  0  0  0  0  0  0  0  0  0
    5.7259   17.3438    2.5930 C   0  0  2  0  0  0  0  0  0  0  0  0
    4.6182   17.8477    3.5218 C   0  0  0  0  0  0  0  0  0  0  0  0
    5.0684   17.7885    4.8821 O   0  0  0  0  0  0  0  0  0  0  0  0
    6.1589   18.6697    5.1148 C   0  0  1  0  0  0  0  0  0  0  0  0
    6.4728   18.6305    6.4929 O   0  0  0  0  0  0  0  0  0  0  0  0
    5.9743   15.9610    2.8802 O   0  0  0  0  0  0  0  0  0  0  0  0
    6.9313   19.4407    2.2026 O   0  0  0  0  0  0  0  0  0  0  0  0
    6.7092   17.7093    6.6876 H   0  0  0  0  0  0  0  0  0  0  0  0
    6.2912   15.9083    3.8021 H   0  0  0  0  0  0  0  0  0  0  0  0
    6.6925   19.3646    1.2648 H   0  0  0  0  0  0  0  0  0  0  0  0
  1  2  1  0  0  0  0
  1  6  1  0  0  0  0
  2  9  1  1  0  0  0
  2  3  1  0  0  0  0
  3  4  1  0  0  0  0
  3  8  1  1  0  0  0
  4  5  1  0  0  0  0
  5  6  1  0  0  0  0
  6  7  1  1  0  0  0
  7 10  1  0  0  0  0
  8 11  1  0  0  0  0
  9 12  1  0  0  0  0
M  END
>  <CHROM.0>
-57.08963033,-175.68183137,-64.99630518,-44.74779529,-60.67211059,57.55516989
-68.52433623,-60.89895497,-167.91107954

>  <CHROM.1>
-179.08782412,58.37091546,-61.53038834,6.15312096,17.99868607,3.88815770
-1.58551302,-0.89529888,-1.81596435

>  <Name>
P08390249

>  <RI>
9.71178e+06

>  <Rbt.Current_Directory>
/home/fstefaniak/projects/zuza/docking/adenine/4XNR

>  <Rbt.Executable>
rbdock ($Id: //depot/dev/client3/rdock/2013.1/src/exe/rbdock.cxx#4 $)

>  <Rbt.Library>
libRbt.so (2013.1, Build901 2013/11/27)

>  <Rbt.Parameter_File>
/home/fstefaniak/progs/rDock//data/scripts/dock_solv.prm

>  <Rbt.Receptor>
4xnr.prm

>  <SCORE>
-51.3699

>  <SCORE.INTER>
-29.5414

>  <SCORE.INTER.CONST>
1

>  <SCORE.INTER.POLAR>
-4.54089

>  <SCORE.INTER.ROT>
0

>  <SCORE.INTER.SOLV>
13.495

>  <SCORE.INTER.VDW>
-12.6563

>  <SCORE.INTER.norm>
-3.28238

>  <SCORE.INTRA>
-2.18999

>  <SCORE.INTRA.DIHEDRAL>
-3.31417

>  <SCORE.INTRA.DIHEDRAL.0>
3.42521

>  <SCORE.INTRA.POLAR>
0.0342254

>  <SCORE.INTRA.POLAR.0>
-0.0344378

>  <SCORE.INTRA.REPUL>
0

>  <SCORE.INTRA.REPUL.0>
0

>  <SCORE.INTRA.SOLV>
0.036703

>  <SCORE.INTRA.SOLV.lig_0>
-17.1361

>  <SCORE.INTRA.VDW>
-0.667624

>  <SCORE.INTRA.VDW.0>
1.11222

>  <SCORE.INTRA.norm>
-0.243332

>  <SCORE.RESTR>
0

>  <SCORE.RESTR.CAVITY>
0

>  <SCORE.RESTR.norm>
0

>  <SCORE.SYSTEM>
-19.6385

>  <SCORE.SYSTEM.CONST>
0

>  <SCORE.SYSTEM.DIHEDRAL>
4.44117

>  <SCORE.SYSTEM.POLAR>
-3.03262

>  <SCORE.SYSTEM.SOLV>
0.136955

>  <SCORE.SYSTEM.VDW>
-4.50962

>  <SCORE.SYSTEM.norm>
-2.18205

>  <SCORE.heavy>
9

>  <SCORE.norm>
-5.70776

$$$$
P08390249
 OpenBabel12072022113D
libRbt.so/2013.1/901 2013/11/27
 12 12  0  0  0  0  0  0  0  0999 V2000
    5.9276   18.7178    3.9371 C   0  0  0  0  0  0  0  0  0  0  0  0
    4.9494   17.8529    4.7316 C   0  0  1  0  0  0  0  0  0  0  0  0
    4.3925   16.6982    3.8820 C   0  0  2  0  0  0  0  0  0  0  0  0
    5.5236   15.9633    3.1581 C   0  0  0  0  0  0  0  0  0  0  0  0
    6.2730   16.8956    2.3673 O   0  0  0  0  0  0  0  0  0  0  0  0
    6.9330   17.8607    3.1753 C   0  0  1  0  0  0  0  0  0  0  0  0
    7.7287   18.6722    2.3342 O   0  0  0  0  0  0  0  0  0  0  0  0
    3.4853   17.2247    2.9042 O   0  0  0  0  0  0  0  0  0  0  0  0
    5.5675   17.3663    5.9254 O   0  0  0  0  0  0  0  0  0  0  0  0
    8.3034   18.0644    1.8415 H   0  0  0  0  0  0  0  0  0  0  0  0
    2.7642   17.6712    3.3879 H   0  0  0  0  0  0  0  0  0  0  0  0
    4.9553   16.7960    6.4177 H   0  0  0  0  0  0  0  0  0  0  0  0
  1  2  1  0  0  0  0
  1  6  1  0  0  0  0
  2  9  1  1  0  0  0
  2  3  1  0  0  0  0
  3  4  1  0  0  0  0
  3  8  1  6  0  0  0
  4  5  1  0  0  0  0
  5  6  1  0  0  0  0
  6  7  1  6  0  0  0
  7 10  1  0  0  0  0
  8 11  1  0  0  0  0
  9 12  1  0  0  0  0
M  END
>  <CHROM.0>
-60.21951543,-47.49663971,-67.14384186,-47.06224905,-63.87912983,-63.38724593
-69.33839384,-172.70714532,-168.26204824

>  <CHROM.1>
-178.36717088,-60.20766163,-176.54318618,5.64752788,17.47727580,3.58775223
-0.41859430,0.47442481,1.32340753

>  <Name>
P08390249

>  <RI>
9.71178e+06

>  <Rbt.Current_Directory>
/home/fstefaniak/projects/zuza/docking/adenine/4XNR

>  <Rbt.Executable>
rbdock ($Id: //depot/dev/client3/rdock/2013.1/src/exe/rbdock.cxx#4 $)

>  <Rbt.Library>
libRbt.so (2013.1, Build901 2013/11/27)

>  <Rbt.Parameter_File>
/home/fstefaniak/progs/rDock//data/scripts/dock_solv.prm

>  <Rbt.Receptor>
4xnr.prm

>  <SCORE>
-50.592

>  <SCORE.INTER>
-27.5591

>  <SCORE.INTER.CONST>
1

>  <SCORE.INTER.POLAR>
-3.92438

>  <SCORE.INTER.ROT>
0

>  <SCORE.INTER.SOLV>
12.6548

>  <SCORE.INTER.VDW>
-13.1097

>  <SCORE.INTER.norm>
-3.06212

>  <SCORE.INTRA>
-2.82595

>  <SCORE.INTRA.DIHEDRAL>
-3.27102

>  <SCORE.INTRA.DIHEDRAL.0>
3.42521

>  <SCORE.INTRA.POLAR>
0.0344378

>  <SCORE.INTRA.POLAR.0>
-0.0344378

>  <SCORE.INTRA.REPUL>
0

>  <SCORE.INTRA.REPUL.0>
0

>  <SCORE.INTRA.SOLV>
0.0941389

>  <SCORE.INTRA.SOLV.lig_0>
-17.1361

>  <SCORE.INTRA.VDW>
-1.35459

>  <SCORE.INTRA.VDW.0>
1.11222

>  <SCORE.INTRA.norm>
-0.313994

>  <SCORE.RESTR>
0

>  <SCORE.RESTR.CAVITY>
0

>  <SCORE.RESTR.norm>
0

>  <SCORE.SYSTEM>
-20.207

>  <SCORE.SYSTEM.CONST>
0

>  <SCORE.SYSTEM.DIHEDRAL>
5.22542

>  <SCORE.SYSTEM.POLAR>
-2.9705

>  <SCORE.SYSTEM.SOLV>
0.175588

>  <SCORE.SYSTEM.VDW>
-5.36997

>  <SCORE.SYSTEM.norm>
-2.24522

>  <SCORE.heavy>
9

>  <SCORE.norm>
-5.62133

$$$$
P08390249
 OpenBabel12072022113D
libRbt.so/2013.1/901 2013/11/27
 12 12  0  0  0  0  0  0  0  0999 V2000
    5.9251   18.6577    3.8823 C   0  0  0  0  0  0  0  0  0  0  0  0
    4.9286   17.8547    4.7178 C   0  0  1  0  0  0  0  0  0  0  0  0
    4.3072   16.7034    3.9095 C   0  0  2  0  0  0  0  0  0  0  0  0
    5.3918   15.9038    3.1830 C   0  0  0  0  0  0  0  0  0  0  0  0
    6.1627   16.7838    2.3538 O   0  0  0  0  0  0  0  0  0  0  0  0
    6.8784   17.7405    3.1235 C   0  0  1  0  0  0  0  0  0  0  0  0
    7.6895   18.4966    2.2463 O   0  0  0  0  0  0  0  0  0  0  0  0
    3.4026   17.2426    2.9362 O   0  0  0  0  0  0  0  0  0  0  0  0
    5.5505   17.3728    5.9116 O   0  0  0  0  0  0  0  0  0  0  0  0
    7.0831   18.9118    1.6119 H   0  0  0  0  0  0  0  0  0  0  0  0
    2.7208   17.7460    3.4210 H   0  0  0  0  0  0  0  0  0  0  0  0
    4.9190   16.8598    6.4411 H   0  0  0  0  0  0  0  0  0  0  0  0
  1  2  1  0  0  0  0
  1  6  1  0  0  0  0
  2  9  1  1  0  0  0
  2  3  1  0  0  0  0
  3  4  1  0  0  0  0
  3  8  1  6  0  0  0
  4  5  1  0  0  0  0
  5  6  1  0  0  0  0
  6  7  1  6  0  0  0
  7 10  1  0  0  0  0
  8 11  1  0  0  0  0
  9 12  1  0  0  0  0
M  END
>  <CHROM.0>
-56.42180186,-46.94700168,-66.21287172,-47.24727306,-60.80595985,-175.56545737
-65.21688850,58.23271234,-168.25849023

>  <CHROM.1>
-179.78590844,-59.08387031,-62.39385112,5.57839222,17.42980959,3.56967644
-0.46067137,0.45350842,1.32727346

>  <Name>
P08390249

>  <RI>
9.71178e+06

>  <Rbt.Current_Directory>
/home/fstefaniak/projects/zuza/docking/adenine/4XNR

>  <Rbt.Executable>
rbdock ($Id: //depot/dev/client3/rdock/2013.1/src/exe/rbdock.cxx#4 $)

>  <Rbt.Library>
libRbt.so (2013.1, Build901 2013/11/27)

>  <Rbt.Parameter_File>
/home/fstefaniak/progs/rDock//data/scripts/dock_solv.prm

>  <Rbt.Receptor>
4xnr.prm

>  <SCORE>
-49.63

>  <SCORE.INTER>
-28.0661

>  <SCORE.INTER.CONST>
1

>  <SCORE.INTER.POLAR>
-3.92733

>  <SCORE.INTER.ROT>
0

>  <SCORE.INTER.SOLV>
12.5767

>  <SCORE.INTER.VDW>
-13.4119

>  <SCORE.INTER.norm>
-3.11846

>  <SCORE.INTRA>
-2.57707

>  <SCORE.INTRA.DIHEDRAL>
-3.31026

>  <SCORE.INTRA.DIHEDRAL.0>
3.42521

>  <SCORE.INTRA.POLAR>
0.0344378

>  <SCORE.INTRA.POLAR.0>
-0.0344378

>  <SCORE.INTRA.REPUL>
0

>  <SCORE.INTRA.REPUL.0>
0

>  <SCORE.INTRA.SOLV>
0.0681988

>  <SCORE.INTRA.SOLV.lig_0>
-17.1361

>  <SCORE.INTRA.VDW>
-1.07313

>  <SCORE.INTRA.VDW.0>
1.11222

>  <SCORE.INTRA.norm>
-0.286341

>  <SCORE.RESTR>
0

>  <SCORE.RESTR.CAVITY>
0

>  <SCORE.RESTR.norm>
0

>  <SCORE.SYSTEM>
-18.9868

>  <SCORE.SYSTEM.CONST>
0

>  <SCORE.SYSTEM.DIHEDRAL>
4.75127

>  <SCORE.SYSTEM.POLAR>
-2.9966

>  <SCORE.SYSTEM.SOLV>
0.0553326

>  <SCORE.SYSTEM.VDW>
-4.27138

>  <SCORE.SYSTEM.norm>
-2.10964

>  <SCORE.heavy>
9

>  <SCORE.norm>
-5.51444

$$$$
P09082078
 OpenBabel12072022113D
libRbt.so/2013.1/901 2013/11/27
 10 10  0  0  0  0  0  0  0  0999 V2000
    4.8996   17.7070    4.6227 C   0  0  0  0  0  0  0  0  0  0  0  0
    5.7262   17.7104    5.9041 C   0  0  0  0  0  0  0  0  0  0  0  0
    6.7781   19.1496    5.7830 S   0  0  0  0  0  0  0  0  0  0  0  0
    8.1587   18.7232    5.8869 O   0  0  0  0  0  0  0  0  0  0  0  0
    6.2308   20.2076    6.6053 O   0  0  0  0  0  0  0  0  0  0  0  0
    6.4329   19.5202    4.0692 C   0  0  0  0  0  0  0  0  0  0  0  0
    5.7952   18.2537    3.4964 C   0  0  1  0  0  0  0  0  0  0  0  0
    6.8551   17.2504    3.0282 C   0  0  0  0  0  0  0  0  0  0  0  0
    6.2067   16.0607    2.6051 O   0  0  0  0  0  0  0  0  0  0  0  0
    6.3106   15.4057    3.3184 H   0  0  0  0  0  0  0  0  0  0  0  0
  1  2  1  0  0  0  0
  1  7  1  0  0  0  0
  2  3  1  0  0  0  0
  3  4  2  0  0  0  0
  3  5  2  0  0  0  0
  3  6  1  0  0  0  0
  6  7  1  0  0  0  0
  7  8  1  1  0  0  0
  8  9  1  0  0  0  0
  9 10  1  0  0  0  0
M  END
>  <CHROM.0>
-58.79771763,-63.36371693,-67.29791229,-47.80925823,-60.78259801,-63.81621611
-69.06687316,-60.81968037,-168.25186481

>  <CHROM.1>
57.08107237,-102.42039816,6.41894400,18.37312585,4.81399241,1.72471118,-0.12827718
-2.26269156

>  <Name>
P09082078

>  <RI>
4.17015e+07

>  <Rbt.Current_Directory>
/home/fstefaniak/projects/zuza/docking/adenine/4XNR

>  <Rbt.Executable>
rbdock ($Id: //depot/dev/client3/rdock/2013.1/src/exe/rbdock.cxx#4 $)

>  <Rbt.Library>
libRbt.so (2013.1, Build901 2013/11/27)

>  <Rbt.Parameter_File>
/home/fstefaniak/progs/rDock//data/scripts/dock_solv.prm

>  <Rbt.Receptor>
4xnr.prm

>  <SCORE>
-39.5737

>  <SCORE.INTER>
-21.4495

>  <SCORE.INTER.CONST>
1

>  <SCORE.INTER.POLAR>
-2.87342

>  <SCORE.INTER.ROT>
1

>  <SCORE.INTER.SOLV>
11.2172

>  <SCORE.INTER.VDW>
-12.7273

>  <SCORE.INTER.norm>
-2.38328

>  <SCORE.INTRA>
2.8529

>  <SCORE.INTRA.DIHEDRAL>
5.76969

>  <SCORE.INTRA.DIHEDRAL.0>
0.0449445

>  <SCORE.INTRA.POLAR>
0

>  <SCORE.INTRA.POLAR.0>
0

>  <SCORE.INTRA.REPUL>
0

>  <SCORE.INTRA.REPUL.0>
0

>  <SCORE.INTRA.SOLV>
-0.0285163

>  <SCORE.INTRA.SOLV.lig_0>
-10.6788

>  <SCORE.INTRA.VDW>
-0.0176838

>  <SCORE.INTRA.VDW.0>
-0.232893

>  <SCORE.INTRA.norm>
0.316989

>  <SCORE.RESTR>
0

>  <SCORE.RESTR.CAVITY>
0

>  <SCORE.RESTR.norm>
0

>  <SCORE.SYSTEM>
-20.9771

>  <SCORE.SYSTEM.CONST>
0

>  <SCORE.SYSTEM.DIHEDRAL>
4.17803

>  <SCORE.SYSTEM.POLAR>
-2.96582

>  <SCORE.SYSTEM.SOLV>
0.268781

>  <SCORE.SYSTEM.VDW>
-5.58092

>  <SCORE.SYSTEM.norm>
-2.33079

>  <SCORE.heavy>
9

>  <SCORE.norm>
-4.39708

$$$$
P09082078
 OpenBabel12072022113D
libRbt.so/2013.1/901 2013/11/27
 10 10  0  0  0  0  0  0  0  0999 V2000
    4.9082   17.7043    4.6132 C   0  0  0  0  0  0  0  0  0  0  0  0
    5.7418   17.6934    5.8901 C   0  0  0  0  0  0  0  0  0  0  0  0
    6.7811   19.1431    5.7873 S   0  0  0  0  0  0  0  0  0  0  0  0
    8.1657   18.7265    5.8768 O   0  0  0  0  0  0  0  0  0  0  0  0
    6.2296   20.1827    6.6300 O   0  0  0  0  0  0  0  0  0  0  0  0
    6.4235   19.5391    4.0818 C   0  0  0  0  0  0  0  0  0  0  0  0
    5.7932   18.2771    3.4914 C   0  0  1  0  0  0  0  0  0  0  0  0
    6.8588   17.2905    3.0011 C   0  0  0  0  0  0  0  0  0  0  0  0
    6.2214   16.0868    2.6010 O   0  0  0  0  0  0  0  0  0  0  0  0
    6.3284   15.4479    3.3282 H   0  0  0  0  0  0  0  0  0  0  0  0
  1  2  1  0  0  0  0
  1  7  1  0  0  0  0
  2  3  1  0  0  0  0
  3  4  2  0  0  0  0
  3  5  2  0  0  0  0
  3  6  1  0  0  0  0
  6  7  1  0  0  0  0
  7  8  1  1  0  0  0
  8  9  1  0  0  0  0
  9 10  1  0  0  0  0
M  END
>  <CHROM.0>
-64.70208340,-62.48432914,-65.42543336,-44.64874163,-177.63397728,-59.21831552
-68.65205143,-176.02053101,-168.28321163

>  <CHROM.1>
55.26737366,-100.44377283,6.42346881,18.37822942,4.81211565,1.72399704,-0.13553999
-2.25160701

>  <Name>
P09082078

>  <RI>
4.17015e+07

>  <Rbt.Current_Directory>
/home/fstefaniak/projects/zuza/docking/adenine/4XNR

>  <Rbt.Executable>
rbdock ($Id: //depot/dev/client3/rdock/2013.1/src/exe/rbdock.cxx#4 $)

>  <Rbt.Library>
libRbt.so (2013.1, Build901 2013/11/27)

>  <Rbt.Parameter_File>
/home/fstefaniak/progs/rDock//data/scripts/dock_solv.prm

>  <Rbt.Receptor>
4xnr.prm

>  <SCORE>
-39.4867

>  <SCORE.INTER>
-21.4671

>  <SCORE.INTER.CONST>
1

>  <SCORE.INTER.POLAR>
-2.92532

>  <SCORE.INTER.ROT>
1

>  <SCORE.INTER.SOLV>
11.1914

>  <SCORE.INTER.VDW>
-12.5575

>  <SCORE.INTER.norm>
-2.38523

>  <SCORE.INTRA>
2.76234

>  <SCORE.INTRA.DIHEDRAL>
5.51089

>  <SCORE.INTRA.DIHEDRAL.0>
0.0449445

>  <SCORE.INTRA.POLAR>
0

>  <SCORE.INTRA.POLAR.0>
0

>  <SCORE.INTRA.REPUL>
0

>  <SCORE.INTRA.REPUL.0>
0

>  <SCORE.INTRA.SOLV>
-0.0158366

>  <SCORE.INTRA.SOLV.lig_0>
-10.6788

>  <SCORE.INTRA.VDW>
0.0148174

>  <SCORE.INTRA.VDW.0>
-0.232893

>  <SCORE.INTRA.norm>
0.306927

>  <SCORE.RESTR>
0

>  <SCORE.RESTR.CAVITY>
0

>  <SCORE.RESTR.norm>
0

>  <SCORE.SYSTEM>
-20.782

>  <SCORE.SYSTEM.CONST>
0

>  <SCORE.SYSTEM.DIHEDRAL>
4.51527

>  <SCORE.SYSTEM.POLAR>
-2.98644

>  <SCORE.SYSTEM.SOLV>
-0.0278001

>  <SCORE.SYSTEM.VDW>
-5.39565

>  <SCORE.SYSTEM.norm>
-2.30911

>  <SCORE.heavy>
9

>  <SCORE.norm>
-4.38741

$$$$
P09082078
 OpenBabel12072022113D
libRbt.so/2013.1/901 2013/11/27
 10 10  0  0  0  0  0  0  0  0999 V2000
    4.8925   17.7093    4.6353 C   0  0  0  0  0  0  0  0  0  0  0  0
    5.7281   17.7183    5.9109 C   0  0  0  0  0  0  0  0  0  0  0  0
    6.7845   19.1525    5.7728 S   0  0  0  0  0  0  0  0  0  0  0  0
    8.1641   18.7216    5.8700 O   0  0  0  0  0  0  0  0  0  0  0  0
    6.2469   20.2181    6.5917 O   0  0  0  0  0  0  0  0  0  0  0  0
    6.4287   19.5129    4.0589 C   0  0  0  0  0  0  0  0  0  0  0  0
    5.7824   18.2450    3.4991 C   0  0  1  0  0  0  0  0  0  0  0  0
    6.8352   17.2345    3.0305 C   0  0  0  0  0  0  0  0  0  0  0  0
    6.1796   16.0431    2.6234 O   0  0  0  0  0  0  0  0  0  0  0  0
    6.3107   15.3855    3.3297 H   0  0  0  0  0  0  0  0  0  0  0  0
  1  2  1  0  0  0  0
  1  7  1  0  0  0  0
  2  3  1  0  0  0  0
  3  4  2  0  0  0  0
  3  5  2  0  0  0  0
  3  6  1  0  0  0  0
  6  7  1  0  0  0  0
  7  8  1  1  0  0  0
  8  9  1  0  0  0  0
  9 10  1  0  0  0  0
M  END
>  <CHROM.0>
-58.22094876,-59.76357905,-65.34498958,-45.34996768,-55.08561036,-61.50268138
-68.82518206,-59.50623155,-168.10620945

>  <CHROM.1>
56.91961621,-104.08358956,6.41586137,18.37073594,4.81189392,1.73227914,-0.12837599
-2.26917957

>  <Name>
P09082078

>  <RI>
4.17015e+07

>  <Rbt.Current_Directory>
/home/fstefaniak/projects/zuza/docking/adenine/4XNR

>  <Rbt.Executable>
rbdock ($Id: //depot/dev/client3/rdock/2013.1/src/exe/rbdock.cxx#4 $)

>  <Rbt.Library>
libRbt.so (2013.1, Build901 2013/11/27)

>  <Rbt.Parameter_File>
/home/fstefaniak/progs/rDock//data/scripts/dock_solv.prm

>  <Rbt.Receptor>
4xnr.prm

>  <SCORE>
-39.421

>  <SCORE.INTER>
-21.5791

>  <SCORE.INTER.CONST>
1

>  <SCORE.INTER.POLAR>
-2.90874

>  <SCORE.INTER.ROT>
1

>  <SCORE.INTER.SOLV>
11.2049

>  <SCORE.INTER.VDW>
-12.6919

>  <SCORE.INTER.norm>
-2.39768

>  <SCORE.INTRA>
2.97821

>  <SCORE.INTRA.DIHEDRAL>
6.01403

>  <SCORE.INTRA.DIHEDRAL.0>
0.0449445

>  <SCORE.INTRA.POLAR>
0

>  <SCORE.INTRA.POLAR.0>
0

>  <SCORE.INTRA.REPUL>
0

>  <SCORE.INTRA.REPUL.0>
0

>  <SCORE.INTRA.SOLV>
-0.0252318

>  <SCORE.INTRA.SOLV.lig_0>
-10.6788

>  <SCORE.INTRA.VDW>
-0.0161868

>  <SCORE.INTRA.VDW.0>
-0.232893

>  <SCORE.INTRA.norm>
0.330913

>  <SCORE.RESTR>
0

>  <SCORE.RESTR.CAVITY>
0

>  <SCORE.RESTR.norm>
0

>  <SCORE.SYSTEM>
-20.8201

>  <SCORE.SYSTEM.CONST>
0

>  <SCORE.SYSTEM.DIHEDRAL>
4.35652

>  <SCORE.SYSTEM.POLAR>
-3.02399

>  <SCORE.SYSTEM.SOLV>
0.293898

>  <SCORE.SYSTEM.VDW>
-5.35023

>  <SCORE.SYSTEM.norm>
-2.31334

>  <SCORE.heavy>
9

>  <SCORE.norm>
-4.38011

$$$$
P09577449
 OpenBabel12072022113D
libRbt.so/2013.1/901 2013/11/27
 14 14  0  0  0  0  0  0  0  0999 V2000
    4.4176   15.1100    3.5347 C   0  0  0  0  0  0  0  0  0  0  0  0
    4.3113   16.6340    3.5860 C   0  0  1  0  0  0  0  0  0  0  0  0
    2.8687   17.0149    3.4402 C   0  0  0  0  0  0  0  0  0  0  0  0
    1.9788   16.0212    3.5456 C   0  0  0  0  0  0  0  0  0  0  0  0
    2.7635   14.5103    3.8534 S   0  0  0  0  0  0  0  0  0  0  0  0
    2.4013   13.5632    2.8198 O   0  0  0  0  0  0  0  0  0  0  0  0
    2.6408   14.1953    5.2613 O   0  0  0  0  0  0  0  0  0  0  0  0
    4.7781   17.1881    4.8461 N   0  0  0  0  0  0  0  0  0  0  0  0
    5.8388   18.0050    5.0322 C   0  0  0  0  0  0  0  0  0  0  0  0
    6.7128   18.5763    3.7459 S   0  0  0  0  0  0  0  0  0  0  0  0
    6.1441   18.3718    6.2921 N   0  0  0  0  0  0  0  0  0  0  0  0
    4.5042   16.7034    5.6977 H   0  0  0  0  0  0  0  0  0  0  0  0
    5.4336   18.8112    6.8598 H   0  0  0  0  0  0  0  0  0  0  0  0
    6.7200   17.7090    6.8023 H   0  0  0  0  0  0  0  0  0  0  0  0
  1  2  1  0  0  0  0
  1  5  1  0  0  0  0
  2  3  1  0  0  0  0
  2  8  1  1  0  0  0
  3  4  2  0  0  0  0
  4  5  1  0  0  0  0
  5  6  2  0  0  0  0
  5  7  2  0  0  0  0
  8  9  1  0  0  0  0
  8 12  1  0  0  0  0
  9 10  2  0  0  0  0
  9 11  1  0  0  0  0
 11 13  1  0  0  0  0
 11 14  1  0  0  0  0
M  END
>  <CHROM.0>
-57.94745650,29.56091000,-72.49818185,-47.55712422,-59.21599986,-60.51910170
-171.62854585,-57.11694990,-168.43162254

>  <CHROM.1>
115.73664909,4.37366086,-55.22841862,4.19028420,16.28836849,4.14098265,-3.02984936
0.82162446,1.64943564

>  <Name>
P09577449

>  <RI>
9.71178e+06

>  <Rbt.Current_Directory>
/home/fstefaniak/projects/zuza/docking/adenine/4XNR

>  <Rbt.Executable>
rbdock ($Id: //depot/dev/client3/rdock/2013.1/src/exe/rbdock.cxx#4 $)

>  <Rbt.Library>
libRbt.so (2013.1, Build901 2013/11/27)

>  <Rbt.Parameter_File>
/home/fstefaniak/progs/rDock//data/scripts/dock_solv.prm

>  <Rbt.Receptor>
4xnr.prm

>  <SCORE>
-53.2365

>  <SCORE.INTER>
-35.0205

>  <SCORE.INTER.CONST>
1

>  <SCORE.INTER.POLAR>
-4.5342

>  <SCORE.INTER.ROT>
3

>  <SCORE.INTER.SOLV>
12.0483

>  <SCORE.INTER.VDW>
-17.8491

>  <SCORE.INTER.norm>
-3.18368

>  <SCORE.INTRA>
0.132131

>  <SCORE.INTRA.DIHEDRAL>
0.864804

>  <SCORE.INTRA.DIHEDRAL.0>
1.51463

>  <SCORE.INTRA.POLAR>
0

>  <SCORE.INTRA.POLAR.0>
0

>  <SCORE.INTRA.REPUL>
0

>  <SCORE.INTRA.REPUL.0>
0

>  <SCORE.INTRA.SOLV>
-0.232479

>  <SCORE.INTRA.SOLV.lig_0>
-16.5034

>  <SCORE.INTRA.VDW>
-0.184031

>  <SCORE.INTRA.VDW.0>
-0.810208

>  <SCORE.INTRA.norm>
0.0120119

>  <SCORE.RESTR>
0

>  <SCORE.RESTR.CAVITY>
0

>  <SCORE.RESTR.norm>
0

>  <SCORE.SYSTEM>
-18.3482

>  <SCORE.SYSTEM.CONST>
0

>  <SCORE.SYSTEM.DIHEDRAL>
8.11052

>  <SCORE.SYSTEM.POLAR>
-3.14342

>  <SCORE.SYSTEM.SOLV>
0.390243

>  <SCORE.SYSTEM.VDW>
-4.58767

>  <SCORE.SYSTEM.norm>
-1.66802

>  <SCORE.heavy>
11

>  <SCORE.norm>
-4.83969

$$$$
P09577449
 OpenBabel12072022113D
libRbt.so/2013.1/901 2013/11/27
 14 14  0  0  0  0  0  0  0  0999 V2000
    6.0756   16.7943    3.6103 C   0  0  0  0  0  0  0  0  0  0  0  0
    7.1641   17.8301    3.3297 C   0  0  1  0  0  0  0  0  0  0  0  0
    6.9302   18.4078    1.9662 C   0  0  0  0  0  0  0  0  0  0  0  0
    5.7542   18.1233    1.3948 C   0  0  0  0  0  0  0  0  0  0  0  0
    4.7761   17.1442    2.4330 S   0  0  0  0  0  0  0  0  0  0  0  0
    4.4248   15.9195    1.7453 O   0  0  0  0  0  0  0  0  0  0  0  0
    3.7801   17.9818    3.0676 O   0  0  0  0  0  0  0  0  0  0  0  0
    7.1465   18.9346    4.2745 N   0  0  0  0  0  0  0  0  0  0  0  0
    7.1424   18.8509    5.6235 C   0  0  0  0  0  0  0  0  0  0  0  0
    5.7245   18.6890    6.4649 S   0  0  0  0  0  0  0  0  0  0  0  0
    8.3276   18.8663    6.2640 N   0  0  0  0  0  0  0  0  0  0  0  0
    6.8000   19.8299    3.9376 H   0  0  0  0  0  0  0  0  0  0  0  0
    8.5635   19.6632    6.8381 H   0  0  0  0  0  0  0  0  0  0  0  0
    8.6064   17.9773    6.6679 H   0  0  0  0  0  0  0  0  0  0  0  0
  1  2  1  0  0  0  0
  1  5  1  0  0  0  0
  2  3  1  0  0  0  0
  2  8  1  1  0  0  0
  3  4  2  0  0  0  0
  4  5  1  0  0  0  0
  5  6  2  0  0  0  0
  5  7  2  0  0  0  0
  8  9  1  0  0  0  0
  8 12  1  0  0  0  0
  9 10  2  0  0  0  0
  9 11  1  0  0  0  0
 11 13  1  0  0  0  0
 11 14  1  0  0  0  0
M  END
>  <CHROM.0>
-59.08698624,-170.05548402,-63.42219517,-47.42334449,-175.24783991,-61.53672916
-68.71496247,-175.78851109,-167.39958683

>  <CHROM.1>
51.33336856,-86.31634977,112.03109123,5.92059049,17.93657582,3.81143953,-2.05100527
0.31718461,1.32325852

>  <Name>
P09577449

>  <RI>
9.71178e+06

>  <Rbt.Current_Directory>
/home/fstefaniak/projects/zuza/docking/adenine/4XNR

>  <Rbt.Executable>
rbdock ($Id: //depot/dev/client3/rdock/2013.1/src/exe/rbdock.cxx#4 $)

>  <Rbt.Library>
libRbt.so (2013.1, Build901 2013/11/27)

>  <Rbt.Parameter_File>
/home/fstefaniak/progs/rDock//data/scripts/dock_solv.prm

>  <Rbt.Receptor>
4xnr.prm

>  <SCORE>
-53.0052

>  <SCORE.INTER>
-32.3576

>  <SCORE.INTER.CONST>
1

>  <SCORE.INTER.POLAR>
-4.76351

>  <SCORE.INTER.ROT>
3

>  <SCORE.INTER.SOLV>
14.0198

>  <SCORE.INTER.VDW>
-15.9667

>  <SCORE.INTER.norm>
-2.9416

>  <SCORE.INTRA>
-0.113312

>  <SCORE.INTRA.DIHEDRAL>
0.574788

>  <SCORE.INTRA.DIHEDRAL.0>
1.51463

>  <SCORE.INTRA.POLAR>
0

>  <SCORE.INTRA.POLAR.0>
0

>  <SCORE.INTRA.REPUL>
0

>  <SCORE.INTRA.REPUL.0>
0

>  <SCORE.INTRA.SOLV>
-0.0401701

>  <SCORE.INTRA.SOLV.lig_0>
-16.5034

>  <SCORE.INTRA.VDW>
-0.380621

>  <SCORE.INTRA.VDW.0>
-0.810208

>  <SCORE.INTRA.norm>
-0.0103011

>  <SCORE.RESTR>
0

>  <SCORE.RESTR.CAVITY>
0

>  <SCORE.RESTR.norm>
0

>  <SCORE.SYSTEM>
-20.5342

>  <SCORE.SYSTEM.CONST>
0

>  <SCORE.SYSTEM.DIHEDRAL>
4.62355

>  <SCORE.SYSTEM.POLAR>
-2.97448

>  <SCORE.SYSTEM.SOLV>
-0.0539134

>  <SCORE.SYSTEM.VDW>
-5.29776

>  <SCORE.SYSTEM.norm>
-1.86675

>  <SCORE.heavy>
11

>  <SCORE.norm>
-4.81865

$$$$
P09577449
 OpenBabel12072022113D
libRbt.so/2013.1/901 2013/11/27
 14 14  0  0  0  0  0  0  0  0999 V2000
    1.1607   15.6243    4.1119 C   0  0  0  0  0  0  0  0  0  0  0  0
    1.8547   16.9188    3.6882 C   0  0  1  0  0  0  0  0  0  0  0  0
    3.3261   16.6545    3.5763 C   0  0  0  0  0  0  0  0  0  0  0  0
    3.7029   15.3710    3.6107 C   0  0  0  0  0  0  0  0  0  0  0  0
    2.3351   14.3224    3.7610 S   0  0  0  0  0  0  0  0  0  0  0  0
    2.4896   13.5000    4.9426 O   0  0  0  0  0  0  0  0  0  0  0  0
    2.0336   13.7545    2.4637 O   0  0  0  0  0  0  0  0  0  0  0  0
    1.4036   17.4008    2.3933 N   0  0  0  0  0  0  0  0  0  0  0  0
    1.7353   18.5688    1.7995 C   0  0  0  0  0  0  0  0  0  0  0  0
    1.1401   20.0103    2.3586 S   0  0  0  0  0  0  0  0  0  0  0  0
    2.5934   18.5320    0.7615 N   0  0  0  0  0  0  0  0  0  0  0  0
    0.5418   17.0057    2.0239 H   0  0  0  0  0  0  0  0  0  0  0  0
    2.3191   18.0513   -0.0835 H   0  0  0  0  0  0  0  0  0  0  0  0
    3.0961   19.3979    0.5919 H   0  0  0  0  0  0  0  0  0  0  0  0
  1  2  1  0  0  0  0
  1  5  1  0  0  0  0
  2  3  1  0  0  0  0
  2  8  1  6  0  0  0
  3  4  2  0  0  0  0
  4  5  1  0  0  0  0
  5  6  2  0  0  0  0
  5  7  2  0  0  0  0
  8  9  1  0  0  0  0
  8 12  1  0  0  0  0
  9 10  2  0  0  0  0
  9 11  1  0  0  0  0
 11 13  1  0  0  0  0
 11 14  1  0  0  0  0
M  END
>  <CHROM.0>
-58.78465774,-63.19880131,59.89448974,-47.65255515,-60.77850929,-62.85717756
52.71899110,-176.94077534,-167.72910908

>  <CHROM.1>
173.79105215,-72.05515567,63.95831772,2.07309412,16.51145753,3.02888945,1.26234407
-1.04235303,2.51294906

>  <Name>
P09577449

>  <RI>
9.71178e+06

>  <Rbt.Current_Directory>
/home/fstefaniak/projects/zuza/docking/adenine/4XNR

>  <Rbt.Executable>
rbdock ($Id: //depot/dev/client3/rdock/2013.1/src/exe/rbdock.cxx#4 $)

>  <Rbt.Library>
libRbt.so (2013.1, Build901 2013/11/27)

>  <Rbt.Parameter_File>
/home/fstefaniak/progs/rDock//data/scripts/dock_solv.prm

>  <Rbt.Receptor>
4xnr.prm

>  <SCORE>
-52.0363

>  <SCORE.INTER>
-33.0585

>  <SCORE.INTER.CONST>
1

>  <SCORE.INTER.POLAR>
-4.73528

>  <SCORE.INTER.ROT>
3

>  <SCORE.INTER.SOLV>
12.343

>  <SCORE.INTER.VDW>
-15.969

>  <SCORE.INTER.norm>
-3.00532

>  <SCORE.INTRA>
-0.0338405

>  <SCORE.INTRA.DIHEDRAL>
0.471185

>  <SCORE.INTRA.DIHEDRAL.0>
1.51463

>  <SCORE.INTRA.POLAR>
0

>  <SCORE.INTRA.POLAR.0>
0

>  <SCORE.INTRA.REPUL>
0

>  <SCORE.INTRA.REPUL.0>
0

>  <SCORE.INTRA.SOLV>
-0.0935159

>  <SCORE.INTRA.SOLV.lig_0>
-16.5034

>  <SCORE.INTRA.VDW>
-0.222675

>  <SCORE.INTRA.VDW.0>
-0.810208

>  <SCORE.INTRA.norm>
-0.00307641

>  <SCORE.RESTR>
0

>  <SCORE.RESTR.CAVITY>
0

>  <SCORE.RESTR.norm>
0

>  <SCORE.SYSTEM>
-18.944

>  <SCORE.SYSTEM.CONST>
0

>  <SCORE.SYSTEM.DIHEDRAL>
3.88377

>  <SCORE.SYSTEM.POLAR>
-2.95207

>  <SCORE.SYSTEM.SOLV>
0.0480467

>  <SCORE.SYSTEM.VDW>
-4.09968

>  <SCORE.SYSTEM.norm>
-1.72218

>  <SCORE.heavy>
11

>  <SCORE.norm>
-4.73057

$$$$
P101123070
 OpenBabel12072022113D
libRbt.so/2013.1/901 2013/11/27
 12 11  0  0  0  0  0  0  0  0999 V2000
    6.8368   18.0502    1.8373 C   0  0  0  0  0  0  0  0  0  0  0  0
    6.5533   18.2107    3.3159 C   0  0  0  0  0  0  0  0  0  0  0  0
    5.7533   17.3512    3.9766 C   0  0  0  0  0  0  0  0  0  0  0  0
    5.0012   16.1148    3.6189 C   0  0  0  0  0  0  0  0  0  0  0  0
    4.8930   15.7635    2.4474 O   0  0  0  0  0  0  0  0  0  0  0  0
    4.4487   15.4989    4.6863 O   0  0  0  0  0  0  0  0  0  0  0  0
    3.6687   14.3463    4.3681 C   0  0  0  0  0  0  0  0  0  0  0  0
    5.6250   17.7730    5.3342 N   0  3  0  0  0  0  0  0  0  0  0  0
    5.3564   18.7506    5.4087 H   0  0  0  0  0  0  0  0  0  0  0  0
    4.8278   17.1884    5.6829 H   0  0  0  0  0  0  0  0  0  0  0  0
    6.4517   17.5468    5.8817 H   0  0  0  0  0  0  0  0  0  0  0  0
    7.1242   19.2248    3.8186 O   0  5  0  0  0  0  0  0  0  0  0  0
  1  2  1  0  0  0  0
  2  3  2  0  0  0  0
  2 12  1  0  0  0  0
  3  4  1  0  0  0  0
  3  8  1  0  0  0  0
  4  5  2  0  0  0  0
  4  6  1  0  0  0  0
  6  7  1  0  0  0  0
  8  9  1  0  0  0  0
  8 10  1  0  0  0  0
  8 11  1  0  0  0  0
M  CHG  2   8   1  12  -1
M  END
>  <CHROM.0>
-50.85802354,-62.59532643,-64.15577873,-47.30375825,-57.68824862,-64.32813537
-68.15539644,-64.12726016,-168.35946335

>  <CHROM.1>
-9.57649122,51.34393446,177.17913036,5.52751739,16.91725245,3.74744052,-0.08669388
-0.94276663,-1.90871884

>  <Name>
P101123070

>  <RI>
1.00763e+07

>  <Rbt.Current_Directory>
/home/fstefaniak/projects/zuza/docking/adenine/4XNR

>  <Rbt.Executable>
rbdock ($Id: //depot/dev/client3/rdock/2013.1/src/exe/rbdock.cxx#4 $)

>  <Rbt.Library>
libRbt.so (2013.1, Build901 2013/11/27)

>  <Rbt.Parameter_File>
/home/fstefaniak/progs/rDock//data/scripts/dock_solv.prm

>  <Rbt.Receptor>
4xnr.prm

>  <SCORE>
-47.2025

>  <SCORE.INTER>
-23.6497

>  <SCORE.INTER.CONST>
1

>  <SCORE.INTER.POLAR>
-4.14955

>  <SCORE.INTER.ROT>
2

>  <SCORE.INTER.SOLV>
23.148

>  <SCORE.INTER.VDW>
-14.584

>  <SCORE.INTER.norm>
-2.62774

>  <SCORE.INTRA>
-2.78857

>  <SCORE.INTRA.DIHEDRAL>
0.051492

>  <SCORE.INTRA.DIHEDRAL.0>
1.44363

>  <SCORE.INTRA.POLAR>
-0.390697

>  <SCORE.INTRA.POLAR.0>
0

>  <SCORE.INTRA.REPUL>
0

>  <SCORE.INTRA.REPUL.0>
0

>  <SCORE.INTRA.SOLV>
0.28971

>  <SCORE.INTRA.SOLV.lig_0>
-48.0682

>  <SCORE.INTRA.VDW>
-1.6308

>  <SCORE.INTRA.VDW.0>
3.1995

>  <SCORE.INTRA.norm>
-0.309841

>  <SCORE.RESTR>
0

>  <SCORE.RESTR.CAVITY>
0

>  <SCORE.RESTR.norm>
0

>  <SCORE.SYSTEM>
-20.7643

>  <SCORE.SYSTEM.CONST>
0

>  <SCORE.SYSTEM.DIHEDRAL>
4.45312

>  <SCORE.SYSTEM.POLAR>
-3.04822

>  <SCORE.SYSTEM.SOLV>
0.286562

>  <SCORE.SYSTEM.VDW>
-5.26201

>  <SCORE.SYSTEM.norm>
-2.30714

>  <SCORE.heavy>
9

>  <SCORE.norm>
-5.24473

$$$$
P101123070
 OpenBabel12072022113D
libRbt.so/2013.1/901 2013/11/27
 12 11  0  0  0  0  0  0  0  0999 V2000
    6.8574   18.0532    1.8351 C   0  0  0  0  0  0  0  0  0  0  0  0
    6.5896   18.2068    3.3174 C   0  0  0  0  0  0  0  0  0  0  0  0
    5.7684   17.3653    3.9753 C   0  0  0  0  0  0  0  0  0  0  0  0
    4.9763   16.1563    3.6106 C   0  0  0  0  0  0  0  0  0  0  0  0
    4.8643   15.8102    2.4379 O   0  0  0  0  0  0  0  0  0  0  0  0
    4.3950   15.5588    4.6732 O   0  0  0  0  0  0  0  0  0  0  0  0
    3.6126   14.4086    4.3525 C   0  0  0  0  0  0  0  0  0  0  0  0
    5.6629   17.7766    5.3380 N   0  3  0  0  0  0  0  0  0  0  0  0
    5.3896   18.7519    5.4246 H   0  0  0  0  0  0  0  0  0  0  0  0
    4.8761   17.1844    5.6972 H   0  0  0  0  0  0  0  0  0  0  0  0
    6.5011   17.5519    5.8683 H   0  0  0  0  0  0  0  0  0  0  0  0
    7.1949   19.1977    3.8261 O   0  5  0  0  0  0  0  0  0  0  0  0
  1  2  1  0  0  0  0
  2  3  2  0  0  0  0
  2 12  1  0  0  0  0
  3  4  1  0  0  0  0
  3  8  1  0  0  0  0
  4  5  2  0  0  0  0
  4  6  1  0  0  0  0
  6  7  1  0  0  0  0
  8  9  1  0  0  0  0
  8 10  1  0  0  0  0
  8 11  1  0  0  0  0
M  CHG  2   8   1  12  -1
M  END
>  <CHROM.0>
-56.99589335,-64.40658111,-63.14412280,-44.77013310,-61.20971312,-64.42030596
-67.54003081,-170.45770963,-168.06944554

>  <CHROM.1>
-8.56555136,53.56991871,179.11137334,5.52952409,16.93957575,3.74334280,-0.06511467
-0.91720701,-1.88353941

>  <Name>
P101123070

>  <RI>
1.00763e+07

>  <Rbt.Current_Directory>
/home/fstefaniak/projects/zuza/docking/adenine/4XNR

>  <Rbt.Executable>
rbdock ($Id: //depot/dev/client3/rdock/2013.1/src/exe/rbdock.cxx#4 $)

>  <Rbt.Library>
libRbt.so (2013.1, Build901 2013/11/27)

>  <Rbt.Parameter_File>
/home/fstefaniak/progs/rDock//data/scripts/dock_solv.prm

>  <Rbt.Receptor>
4xnr.prm

>  <SCORE>
-47.1482

>  <SCORE.INTER>
-23.4868

>  <SCORE.INTER.CONST>
1

>  <SCORE.INTER.POLAR>
-4.19239

>  <SCORE.INTER.ROT>
2

>  <SCORE.INTER.SOLV>
23.0655

>  <SCORE.INTER.VDW>
-14.3051

>  <SCORE.INTER.norm>
-2.60964

>  <SCORE.INTRA>
-2.91255

>  <SCORE.INTRA.DIHEDRAL>
-0.0251787

>  <SCORE.INTRA.DIHEDRAL.0>
1.44363

>  <SCORE.INTRA.POLAR>
-0.418978

>  <SCORE.INTRA.POLAR.0>
0

>  <SCORE.INTRA.REPUL>
0

>  <SCORE.INTRA.REPUL.0>
0

>  <SCORE.INTRA.SOLV>
0.294796

>  <SCORE.INTRA.SOLV.lig_0>
-48.0682

>  <SCORE.INTRA.VDW>
-1.62283

>  <SCORE.INTRA.VDW.0>
3.1995

>  <SCORE.INTRA.norm>
-0.323616

>  <SCORE.RESTR>
0

>  <SCORE.RESTR.CAVITY>
0

>  <SCORE.RESTR.norm>
0

>  <SCORE.SYSTEM>
-20.7489

>  <SCORE.SYSTEM.CONST>
0

>  <SCORE.SYSTEM.DIHEDRAL>
4.75524

>  <SCORE.SYSTEM.POLAR>
-3.03436

>  <SCORE.SYSTEM.SOLV>
0.150047

>  <SCORE.SYSTEM.VDW>
-5.35315

>  <SCORE.SYSTEM.norm>
-2.30543

>  <SCORE.heavy>
9

>  <SCORE.norm>
-5.23869

$$$$
P101123070
 OpenBabel12072022113D
libRbt.so/2013.1/901 2013/11/27
 12 11  0  0  0  0  0  0  0  0999 V2000
    6.8521   18.0605    1.8291 C   0  0  0  0  0  0  0  0  0  0  0  0
    6.5625   18.2150    3.3071 C   0  0  0  0  0  0  0  0  0  0  0  0
    5.7449   17.3639    3.9570 C   0  0  0  0  0  0  0  0  0  0  0  0
    4.9751   16.1424    3.5860 C   0  0  0  0  0  0  0  0  0  0  0  0
    4.8904   15.7865    2.4140 O   0  0  0  0  0  0  0  0  0  0  0  0
    4.3806   15.5454    4.6416 O   0  0  0  0  0  0  0  0  0  0  0  0
    3.6260   14.3782    4.3155 C   0  0  0  0  0  0  0  0  0  0  0  0
    5.6155   17.7780    5.3168 N   0  3  0  0  0  0  0  0  0  0  0  0
    5.3455   18.7548    5.3966 H   0  0  0  0  0  0  0  0  0  0  0  0
    4.8189   17.1905    5.6619 H   0  0  0  0  0  0  0  0  0  0  0  0
    6.4422   17.5499    5.8634 H   0  0  0  0  0  0  0  0  0  0  0  0
    7.1468   19.2162    3.8205 O   0  5  0  0  0  0  0  0  0  0  0  0
  1  2  1  0  0  0  0
  2  3  2  0  0  0  0
  2 12  1  0  0  0  0
  3  4  1  0  0  0  0
  3  8  1  0  0  0  0
  4  5  2  0  0  0  0
  4  6  1  0  0  0  0
  6  7  1  0  0  0  0
  8  9  1  0  0  0  0
  8 10  1  0  0  0  0
  8 11  1  0  0  0  0
M  CHG  2   8   1  12  -1
M  END
>  <CHROM.0>
-57.45379854,-63.51810949,-62.49713535,-46.29473008,-174.31809320,-170.39003359
-65.25240521,-54.86527569,-166.94154187

>  <CHROM.1>
-8.12167907,52.39703434,179.49500380,5.51496440,16.93420623,3.72329444,-0.09605685
-0.92596572,-1.91272073

>  <Name>
P101123070

>  <RI>
1.00763e+07

>  <Rbt.Current_Directory>
/home/fstefaniak/projects/zuza/docking/adenine/4XNR

>  <Rbt.Executable>
rbdock ($Id: //depot/dev/client3/rdock/2013.1/src/exe/rbdock.cxx#4 $)

>  <Rbt.Library>
libRbt.so (2013.1, Build901 2013/11/27)

>  <Rbt.Parameter_File>
/home/fstefaniak/progs/rDock//data/scripts/dock_solv.prm

>  <Rbt.Receptor>
4xnr.prm

>  <SCORE>
-46.7771

>  <SCORE.INTER>
-23.4432

>  <SCORE.INTER.CONST>
1

>  <SCORE.INTER.POLAR>
-4.09309

>  <SCORE.INTER.ROT>
2

>  <SCORE.INTER.SOLV>
23.0932

>  <SCORE.INTER.VDW>
-14.6162

>  <SCORE.INTER.norm>
-2.6048

>  <SCORE.INTRA>
-2.89506

>  <SCORE.INTRA.DIHEDRAL>
-0.0450559

>  <SCORE.INTRA.DIHEDRAL.0>
1.44363

>  <SCORE.INTRA.POLAR>
-0.410438

>  <SCORE.INTRA.POLAR.0>
0

>  <SCORE.INTRA.REPUL>
0

>  <SCORE.INTRA.REPUL.0>
0

>  <SCORE.INTRA.SOLV>
0.292791

>  <SCORE.INTRA.SOLV.lig_0>
-48.0682

>  <SCORE.INTRA.VDW>
-1.62344

>  <SCORE.INTRA.VDW.0>
3.1995

>  <SCORE.INTRA.norm>
-0.321673

>  <SCORE.RESTR>
0

>  <SCORE.RESTR.CAVITY>
0

>  <SCORE.RESTR.norm>
0

>  <SCORE.SYSTEM>
-20.4388

>  <SCORE.SYSTEM.CONST>
0

>  <SCORE.SYSTEM.DIHEDRAL>
4.66554

>  <SCORE.SYSTEM.POLAR>
-3.01806

>  <SCORE.SYSTEM.SOLV>
0.0179132

>  <SCORE.SYSTEM.VDW>
-5.12681

>  <SCORE.SYSTEM.norm>
-2.27097

>  <SCORE.heavy>
9

>  <SCORE.norm>
-5.19745

$$$$
P101128085
 OpenBabel12072022113D
libRbt.so/2013.1/901 2013/11/27
 13 13  0  0  0  0  0  0  0  0999 V2000
    5.1809   18.4067    4.0951 C   0  0  0  0  0  0  0  0  0  0  0  0
    6.3667   19.3448    4.1763 C   0  0  2  0  0  0  0  0  0  0  0  0
    7.3905   18.7220    3.3671 O   0  0  0  0  0  0  0  0  0  0  0  0
    7.1223   17.3311    3.3123 N   0  0  0  0  0  0  0  0  0  0  0  0
    5.9106   17.1809    3.7257 C   0  0  0  0  0  0  0  0  0  0  0  0
    5.1605   15.6684    3.8283 Cl  0  0  0  0  0  0  0  0  0  0  0  0
    6.9570   19.6439    5.5810 C   0  0  1  0  0  0  0  0  0  0  0  0
    5.9784   19.2636    6.7063 C   0  0  0  0  0  0  0  0  0  0  0  0
    5.7049   17.8651    6.6951 O   0  0  0  0  0  0  0  0  0  0  0  0
    8.2787   19.0236    5.8274 N   0  0  0  0  0  0  0  0  0  0  0  0
    6.5462   17.4425    6.9542 H   0  0  0  0  0  0  0  0  0  0  0  0
    8.1167   18.0402    6.0741 H   0  0  0  0  0  0  0  0  0  0  0  0
    8.7102   19.4341    6.6541 H   0  0  0  0  0  0  0  0  0  0  0  0
  1  2  1  0  0  0  0
  1  5  1  0  0  0  0
  2  3  1  0  0  0  0
  2  7  1  1  0  0  0
  3  4  1  0  0  0  0
  4  5  2  0  0  0  0
  5  6  1  0  0  0  0
  7  8  1  1  0  0  0
  7 10  1  0  0  0  0
  8  9  1  0  0  0  0
  9 11  1  0  0  0  0
 10 12  1  0  0  0  0
 10 13  1  0  0  0  0
M  END
>  <CHROM.0>
-62.02779314,-171.92231705,-74.24973035,-46.14848860,-60.92417442,-64.35503052
-170.74572954,-61.61361688,-166.78097615

>  <CHROM.1>
-17.11826628,62.30978850,-80.07157472,67.91416769,6.27453209,17.90962640
4.66523149,2.19323602,-0.83696653,-2.05164594

>  <Name>
P101128085

>  <RI>
1.00763e+07

>  <Rbt.Current_Directory>
/home/fstefaniak/projects/zuza/docking/adenine/4XNR

>  <Rbt.Executable>
rbdock ($Id: //depot/dev/client3/rdock/2013.1/src/exe/rbdock.cxx#4 $)

>  <Rbt.Library>
libRbt.so (2013.1, Build901 2013/11/27)

>  <Rbt.Parameter_File>
/home/fstefaniak/progs/rDock//data/scripts/dock_solv.prm

>  <Rbt.Receptor>
4xnr.prm

>  <SCORE>
-55.1661

>  <SCORE.INTER>
-40.2329

>  <SCORE.INTER.CONST>
1

>  <SCORE.INTER.POLAR>
-5.95009

>  <SCORE.INTER.ROT>
3

>  <SCORE.INTER.SOLV>
11.532

>  <SCORE.INTER.VDW>
-16.4323

>  <SCORE.INTER.norm>
-4.02329

>  <SCORE.INTRA>
5.15319

>  <SCORE.INTRA.DIHEDRAL>
2.76547

>  <SCORE.INTRA.DIHEDRAL.0>
2.47533

>  <SCORE.INTRA.POLAR>
0

>  <SCORE.INTRA.POLAR.0>
0

>  <SCORE.INTRA.REPUL>
0

>  <SCORE.INTRA.REPUL.0>
0

>  <SCORE.INTRA.SOLV>
0.611969

>  <SCORE.INTRA.SOLV.lig_0>
-9.65475

>  <SCORE.INTRA.VDW>
3.46447

>  <SCORE.INTRA.VDW.0>
-1.18991

>  <SCORE.INTRA.norm>
0.515319

>  <SCORE.RESTR>
0

>  <SCORE.RESTR.CAVITY>
0

>  <SCORE.RESTR.norm>
0

>  <SCORE.SYSTEM>
-20.0865

>  <SCORE.SYSTEM.CONST>
0

>  <SCORE.SYSTEM.DIHEDRAL>
5.4818

>  <SCORE.SYSTEM.POLAR>
-2.95419

>  <SCORE.SYSTEM.SOLV>
0.183826

>  <SCORE.SYSTEM.VDW>
-5.43222

>  <SCORE.SYSTEM.norm>
-2.00865

>  <SCORE.heavy>
10

>  <SCORE.norm>
-5.51661

$$$$
P101128085
 OpenBabel12072022113D
libRbt.so/2013.1/901 2013/11/27
 13 13  0  0  0  0  0  0  0  0999 V2000
    3.9474   16.7986    4.0291 C   0  0  0  0  0  0  0  0  0  0  0  0
    5.1081   17.7074    3.6834 C   0  0  2  0  0  0  0  0  0  0  0  0
    5.7619   17.0670    2.5638 O   0  0  0  0  0  0  0  0  0  0  0  0
    5.4565   15.6834    2.6087 N   0  0  0  0  0  0  0  0  0  0  0  0
    4.4670   15.5588    3.4255 C   0  0  0  0  0  0  0  0  0  0  0  0
    3.7641   14.0639    3.7888 Cl  0  0  0  0  0  0  0  0  0  0  0  0
    6.1660   17.9804    4.7867 C   0  0  1  0  0  0  0  0  0  0  0  0
    6.9816   19.2527    4.4958 C   0  0  0  0  0  0  0  0  0  0  0  0
    8.1576   19.3010    5.2992 O   0  0  0  0  0  0  0  0  0  0  0  0
    5.6105   18.0369    6.1581 N   0  0  0  0  0  0  0  0  0  0  0  0
    7.8492   19.5918    6.1788 H   0  0  0  0  0  0  0  0  0  0  0  0
    6.3439   17.7162    6.8013 H   0  0  0  0  0  0  0  0  0  0  0  0
    4.8571   17.3585    6.2597 H   0  0  0  0  0  0  0  0  0  0  0  0
  1  2  1  0  0  0  0
  1  5  1  0  0  0  0
  2  3  1  0  0  0  0
  2  7  1  1  0  0  0
  3  4  1  0  0  0  0
  4  5  2  0  0  0  0
  5  6  1  0  0  0  0
  7  8  1  6  0  0  0
  7 10  1  0  0  0  0
  8  9  1  0  0  0  0
  9 11  1  0  0  0  0
 10 12  1  0  0  0  0
 10 13  1  0  0  0  0
M  END
>  <CHROM.0>
-61.83343909,-53.40251561,-72.40852174,-47.59337973,-176.97800825,-65.69771147
-173.01680072,-63.69615680,-168.59060412

>  <CHROM.1>
-160.08630321,-164.59808844,150.01815257,-78.24674534,5.37146944,16.79957356
4.09078829,2.60512472,-0.86506242,-1.89143066

>  <Name>
P101128085

>  <RI>
1.00763e+07

>  <Rbt.Current_Directory>
/home/fstefaniak/projects/zuza/docking/adenine/4XNR

>  <Rbt.Executable>
rbdock ($Id: //depot/dev/client3/rdock/2013.1/src/exe/rbdock.cxx#4 $)

>  <Rbt.Library>
libRbt.so (2013.1, Build901 2013/11/27)

>  <Rbt.Parameter_File>
/home/fstefaniak/progs/rDock//data/scripts/dock_solv.prm

>  <Rbt.Receptor>
4xnr.prm

>  <SCORE>
-52.954

>  <SCORE.INTER>
-34.3005

>  <SCORE.INTER.CONST>
1

>  <SCORE.INTER.POLAR>
-4.70115

>  <SCORE.INTER.ROT>
3

>  <SCORE.INTER.SOLV>
11.7056

>  <SCORE.INTER.VDW>
-16.6984

>  <SCORE.INTER.norm>
-3.43005

>  <SCORE.INTRA>
1.41119

>  <SCORE.INTRA.DIHEDRAL>
2.32228

>  <SCORE.INTRA.DIHEDRAL.0>
2.47533

>  <SCORE.INTRA.POLAR>
0

>  <SCORE.INTRA.POLAR.0>
0

>  <SCORE.INTRA.REPUL>
0

>  <SCORE.INTRA.REPUL.0>
0

>  <SCORE.INTRA.SOLV>
-1.25659

>  <SCORE.INTRA.SOLV.lig_0>
-9.65475

>  <SCORE.INTRA.VDW>
0.878344

>  <SCORE.INTRA.VDW.0>
-1.18991

>  <SCORE.INTRA.norm>
0.141119

>  <SCORE.RESTR>
0

>  <SCORE.RESTR.CAVITY>
0

>  <SCORE.RESTR.norm>
0

>  <SCORE.SYSTEM>
-20.0646

>  <SCORE.SYSTEM.CONST>
0

>  <SCORE.SYSTEM.DIHEDRAL>
4.79824

>  <SCORE.SYSTEM.POLAR>
-2.93088

>  <SCORE.SYSTEM.SOLV>
0.0498872

>  <SCORE.SYSTEM.VDW>
-5.22287

>  <SCORE.SYSTEM.norm>
-2.00646

>  <SCORE.heavy>
10

>  <SCORE.norm>
-5.2954

$$$$
P101128085
 OpenBabel12072022113D
libRbt.so/2013.1/901 2013/11/27
 13 13  0  0  0  0  0  0  0  0999 V2000
    4.1621   17.0412    4.0984 C   0  0  0  0  0  0  0  0  0  0  0  0
    5.3513   17.9713    3.9834 C   0  0  2  0  0  0  0  0  0  0  0  0
    6.1779   17.3927    2.9475 O   0  0  0  0  0  0  0  0  0  0  0  0
    5.8857   16.0075    2.8741 N   0  0  0  0  0  0  0  0  0  0  0  0
    4.7835   15.8366    3.5203 C   0  0  0  0  0  0  0  0  0  0  0  0
    4.0508   14.3221    3.6936 Cl  0  0  0  0  0  0  0  0  0  0  0  0
    6.2227   18.1905    5.2498 C   0  0  1  0  0  0  0  0  0  0  0  0
    7.2587   19.3101    5.0453 C   0  0  0  0  0  0  0  0  0  0  0  0
    8.3910   19.1192    5.8894 O   0  0  0  0  0  0  0  0  0  0  0  0
    5.4448   18.4391    6.4849 N   0  0  0  0  0  0  0  0  0  0  0  0
    8.1327   19.5069    6.7475 H   0  0  0  0  0  0  0  0  0  0  0  0
    6.1137   18.5176    7.2600 H   0  0  0  0  0  0  0  0  0  0  0  0
    4.8755   17.6249    6.7108 H   0  0  0  0  0  0  0  0  0  0  0  0
  1  2  1  0  0  0  0
  1  5  1  0  0  0  0
  2  3  1  0  0  0  0
  2  7  1  1  0  0  0
  3  4  1  0  0  0  0
  4  5  2  0  0  0  0
  5  6  1  0  0  0  0
  7  8  1  6  0  0  0
  7 10  1  0  0  0  0
  8  9  1  0  0  0  0
  9 11  1  0  0  0  0
 10 12  1  0  0  0  0
 10 13  1  0  0  0  0
M  END
>  <CHROM.0>
-54.49819519,55.03113359,-74.89705811,-48.54182813,-58.68387279,-60.31406392
-173.92121123,-57.50660179,-169.05656554

>  <CHROM.1>
-171.49859877,-153.66682659,176.96502050,-83.74395507,5.60793338,17.02031428
4.34438441,2.33598995,-0.69073624,-2.12048229

>  <Name>
P101128085

>  <RI>
1.00763e+07

>  <Rbt.Current_Directory>
/home/fstefaniak/projects/zuza/docking/adenine/4XNR

>  <Rbt.Executable>
rbdock ($Id: //depot/dev/client3/rdock/2013.1/src/exe/rbdock.cxx#4 $)

>  <Rbt.Library>
libRbt.so (2013.1, Build901 2013/11/27)

>  <Rbt.Parameter_File>
/home/fstefaniak/progs/rDock//data/scripts/dock_solv.prm

>  <Rbt.Receptor>
4xnr.prm

>  <SCORE>
-52.7634

>  <SCORE.INTER>
-34.4655

>  <SCORE.INTER.CONST>
1

>  <SCORE.INTER.POLAR>
-4.2131

>  <SCORE.INTER.ROT>
3

>  <SCORE.INTER.SOLV>
11.9161

>  <SCORE.INTER.VDW>
-18.5054

>  <SCORE.INTER.norm>
-3.44655

>  <SCORE.INTRA>
1.08258

>  <SCORE.INTRA.DIHEDRAL>
2.53939

>  <SCORE.INTRA.DIHEDRAL.0>
2.47533

>  <SCORE.INTRA.POLAR>
0

>  <SCORE.INTRA.POLAR.0>
0

>  <SCORE.INTRA.REPUL>
0

>  <SCORE.INTRA.REPUL.0>
0

>  <SCORE.INTRA.SOLV>
-1.33867

>  <SCORE.INTRA.SOLV.lig_0>
-9.65475

>  <SCORE.INTRA.VDW>
0.482217

>  <SCORE.INTRA.VDW.0>
-1.18991

>  <SCORE.INTRA.norm>
0.108258

>  <SCORE.RESTR>
0

>  <SCORE.RESTR.CAVITY>
0

>  <SCORE.RESTR.norm>
0

>  <SCORE.SYSTEM>
-19.3805

>  <SCORE.SYSTEM.CONST>
0

>  <SCORE.SYSTEM.DIHEDRAL>
4.70255

>  <SCORE.SYSTEM.POLAR>
-2.95993

>  <SCORE.SYSTEM.SOLV>
0.331556

>  <SCORE.SYSTEM.VDW>
-4.73189

>  <SCORE.SYSTEM.norm>
-1.93805

>  <SCORE.heavy>
10

>  <SCORE.norm>
-5.27634

$$$$
P105879035
 OpenBabel12072022113D
libRbt.so/2013.1/901 2013/11/27
 15 15  0  0  0  0  0  0  0  0999 V2000
    4.7038   17.8310    5.0939 C   0  0  0  0  0  0  0  0  0  0  0  0
    5.0087   16.6315    4.1958 C   0  0  0  0  0  0  0  0  0  0  0  0
    5.9973   16.9093    3.0481 C   0  0  2  0  0  0  0  0  0  0  0  0
    7.3289   17.4597    3.5380 C   0  0  0  0  0  0  0  0  0  0  0  0
    7.1450   18.9115    4.5325 S   0  0  0  0  0  0  0  0  0  0  0  0
    6.5651   19.9602    3.7204 O   0  0  0  0  0  0  0  0  0  0  0  0
    8.4022   19.1264    5.2236 O   0  0  0  0  0  0  0  0  0  0  0  0
    5.9499   18.3996    5.7449 C   0  0  0  0  0  0  0  0  0  0  0  0
    5.3762   17.7824    1.9330 C   0  0  0  0  0  0  0  0  0  0  0  0
    4.1919   17.7545    1.6194 O   0  0  0  0  0  0  0  0  0  0  0  0
    6.2629   18.5570    1.2395 N   0  0  0  0  0  0  0  0  0  0  0  0
    6.2904   15.6356    2.4245 O   0  0  0  0  0  0  0  0  0  0  0  0
    6.7912   19.2796    1.7136 H   0  0  0  0  0  0  0  0  0  0  0  0
    6.6554   18.1593    0.3952 H   0  0  0  0  0  0  0  0  0  0  0  0
    6.4860   15.0022    3.1413 H   0  0  0  0  0  0  0  0  0  0  0  0
  1  2  1  0  0  0  0
  1  8  1  0  0  0  0
  2  3  1  0  0  0  0
  3  4  1  0  0  0  0
  3  9  1  6  0  0  0
  3 12  1  0  0  0  0
  4  5  1  0  0  0  0
  5  6  2  0  0  0  0
  5  7  2  0  0  0  0
  5  8  1  0  0  0  0
  9 10  2  0  0  0  0
  9 11  1  0  0  0  0
 11 13  1  0  0  0  0
 11 14  1  0  0  0  0
 12 15  1  0  0  0  0
M  END
>  <CHROM.0>
-56.07028081,-62.93046707,-73.21908621,-47.71640422,-63.10298712,-59.59693721
-170.89477159,-59.61290332,-167.68805493

>  <CHROM.1>
-32.32405110,-47.12731657,-62.62672501,6.22698131,18.01980151,3.60270695
0.73409698,0.86145347,1.69406704

>  <Name>
P105879035

>  <RI>
1.34432e+07

>  <Rbt.Current_Directory>
/home/fstefaniak/projects/zuza/docking/adenine/4XNR

>  <Rbt.Executable>
rbdock ($Id: //depot/dev/client3/rdock/2013.1/src/exe/rbdock.cxx#4 $)

>  <Rbt.Library>
libRbt.so (2013.1, Build901 2013/11/27)

>  <Rbt.Parameter_File>
/home/fstefaniak/progs/rDock//data/scripts/dock_solv.prm

>  <Rbt.Receptor>
4xnr.prm

>  <SCORE>
-39.7259

>  <SCORE.INTER>
-20.3779

>  <SCORE.INTER.CONST>
1

>  <SCORE.INTER.POLAR>
-4.35114

>  <SCORE.INTER.ROT>
2

>  <SCORE.INTER.SOLV>
16.3395

>  <SCORE.INTER.VDW>
-9.46132

>  <SCORE.INTER.norm>
-1.69816

>  <SCORE.INTRA>
0.939108

>  <SCORE.INTRA.DIHEDRAL>
2.97645

>  <SCORE.INTRA.DIHEDRAL.0>
0.752795

>  <SCORE.INTRA.POLAR>
-0.344164

>  <SCORE.INTRA.POLAR.0>
0

>  <SCORE.INTRA.REPUL>
0

>  <SCORE.INTRA.REPUL.0>
0

>  <SCORE.INTRA.SOLV>
0.00435047

>  <SCORE.INTRA.SOLV.lig_0>
-16.6204

>  <SCORE.INTRA.VDW>
0.618862

>  <SCORE.INTRA.VDW.0>
-0.42874

>  <SCORE.INTRA.norm>
0.078259

>  <SCORE.RESTR>
0

>  <SCORE.RESTR.CAVITY>
0

>  <SCORE.RESTR.norm>
0

>  <SCORE.SYSTEM>
-20.2871

>  <SCORE.SYSTEM.CONST>
0

>  <SCORE.SYSTEM.DIHEDRAL>
4.79851

>  <SCORE.SYSTEM.POLAR>
-2.9734

>  <SCORE.SYSTEM.SOLV>
0.229881

>  <SCORE.SYSTEM.VDW>
-5.28953

>  <SCORE.SYSTEM.norm>
-1.69059

>  <SCORE.heavy>
12

>  <SCORE.norm>
-3.3105

$$$$
P105879035
 OpenBabel12072022113D
libRbt.so/2013.1/901 2013/11/27
 15 15  0  0  0  0  0  0  0  0999 V2000
    4.7253   17.8564    5.1656 C   0  0  0  0  0  0  0  0  0  0  0  0
    5.0118   16.6379    4.2873 C   0  0  0  0  0  0  0  0  0  0  0  0
    5.9821   16.8890    3.1180 C   0  0  2  0  0  0  0  0  0  0  0  0
    7.3232   17.4449    3.5745 C   0  0  0  0  0  0  0  0  0  0  0  0
    7.1601   18.9173    4.5420 S   0  0  0  0  0  0  0  0  0  0  0  0
    6.5698   19.9511    3.7183 O   0  0  0  0  0  0  0  0  0  0  0  0
    8.4292   19.1422    5.2077 O   0  0  0  0  0  0  0  0  0  0  0  0
    5.9837   18.4342    5.7842 C   0  0  0  0  0  0  0  0  0  0  0  0
    5.3451   17.7412    1.9957 C   0  0  0  0  0  0  0  0  0  0  0  0
    4.1454   17.7618    1.7469 O   0  0  0  0  0  0  0  0  0  0  0  0
    6.2302   18.4345    1.2189 N   0  0  0  0  0  0  0  0  0  0  0  0
    6.2611   15.6019    2.5159 O   0  0  0  0  0  0  0  0  0  0  0  0
    6.3142   18.2287    0.2307 H   0  0  0  0  0  0  0  0  0  0  0  0
    6.4866   19.3619    1.5337 H   0  0  0  0  0  0  0  0  0  0  0  0
    6.4764   14.9851    3.2414 H   0  0  0  0  0  0  0  0  0  0  0  0
  1  2  1  0  0  0  0
  1  8  1  0  0  0  0
  2  3  1  0  0  0  0
  3  4  1  0  0  0  0
  3  9  1  6  0  0  0
  3 12  1  0  0  0  0
  4  5  1  0  0  0  0
  5  6  2  0  0  0  0
  5  7  2  0  0  0  0
  5  8  1  0  0  0  0
  9 10  2  0  0  0  0
  9 11  1  0  0  0  0
 11 13  1  0  0  0  0
 11 14  1  0  0  0  0
 12 15  1  0  0  0  0
M  END
>  <CHROM.0>
-55.37966479,-61.76107593,-68.25823837,-45.32362801,-58.73248644,-53.87245003
-67.21317392,-58.31993041,-167.18111397

>  <CHROM.1>
-28.45535587,-47.74395348,116.37928177,6.22099272,18.01086744,3.64373632
0.71623657,0.85579227,1.69515713

>  <Name>
P105879035

>  <RI>
1.34432e+07

>  <Rbt.Current_Directory>
/home/fstefaniak/projects/zuza/docking/adenine/4XNR

>  <Rbt.Executable>
rbdock ($Id: //depot/dev/client3/rdock/2013.1/src/exe/rbdock.cxx#4 $)

>  <Rbt.Library>
libRbt.so (2013.1, Build901 2013/11/27)

>  <Rbt.Parameter_File>
/home/fstefaniak/progs/rDock//data/scripts/dock_solv.prm

>  <Rbt.Receptor>
4xnr.prm

>  <SCORE>
-39.3957

>  <SCORE.INTER>
-19.5576

>  <SCORE.INTER.CONST>
1

>  <SCORE.INTER.POLAR>
-4.26664

>  <SCORE.INTER.ROT>
2

>  <SCORE.INTER.SOLV>
16.2444

>  <SCORE.INTER.VDW>
-9.16439

>  <SCORE.INTER.norm>
-1.6298

>  <SCORE.INTRA>
0.841442

>  <SCORE.INTRA.DIHEDRAL>
2.5452

>  <SCORE.INTRA.DIHEDRAL.0>
0.752795

>  <SCORE.INTRA.POLAR>
-0.25191

>  <SCORE.INTRA.POLAR.0>
0

>  <SCORE.INTRA.REPUL>
0

>  <SCORE.INTRA.REPUL.0>
0

>  <SCORE.INTRA.SOLV>
-0.0721622

>  <SCORE.INTRA.SOLV.lig_0>
-16.6204

>  <SCORE.INTRA.VDW>
0.461418

>  <SCORE.INTRA.VDW.0>
-0.42874

>  <SCORE.INTRA.norm>
0.0701201

>  <SCORE.RESTR>
0

>  <SCORE.RESTR.CAVITY>
0

>  <SCORE.RESTR.norm>
0

>  <SCORE.SYSTEM>
-20.6796

>  <SCORE.SYSTEM.CONST>
0

>  <SCORE.SYSTEM.DIHEDRAL>
4.68512

>  <SCORE.SYSTEM.POLAR>
-3.06074

>  <SCORE.SYSTEM.SOLV>
0.30668

>  <SCORE.SYSTEM.VDW>
-5.24788

>  <SCORE.SYSTEM.norm>
-1.7233

>  <SCORE.heavy>
12

>  <SCORE.norm>
-3.28298

$$$$
P105879035
 OpenBabel12072022113D
libRbt.so/2013.1/901 2013/11/27
 15 15  0  0  0  0  0  0  0  0999 V2000
    4.7427   17.8618    5.1848 C   0  0  0  0  0  0  0  0  0  0  0  0
    5.0309   16.6401    4.3113 C   0  0  0  0  0  0  0  0  0  0  0  0
    5.9962   16.8893    3.1375 C   0  0  2  0  0  0  0  0  0  0  0  0
    7.3366   17.4527    3.5867 C   0  0  0  0  0  0  0  0  0  0  0  0
    7.1711   18.9290    4.5477 S   0  0  0  0  0  0  0  0  0  0  0  0
    6.5741   19.9566    3.7211 O   0  0  0  0  0  0  0  0  0  0  0  0
    8.4416   19.1620    5.2079 O   0  0  0  0  0  0  0  0  0  0  0  0
    6.0009   18.4473    5.7962 C   0  0  0  0  0  0  0  0  0  0  0  0
    5.3520   17.7337    2.0133 C   0  0  0  0  0  0  0  0  0  0  0  0
    4.1517   17.7472    1.7675 O   0  0  0  0  0  0  0  0  0  0  0  0
    6.2316   18.4282    1.2314 N   0  0  0  0  0  0  0  0  0  0  0  0
    6.2781   15.6005    2.5406 O   0  0  0  0  0  0  0  0  0  0  0  0
    6.3165   18.2166    0.2445 H   0  0  0  0  0  0  0  0  0  0  0  0
    6.4816   19.3595    1.5400 H   0  0  0  0  0  0  0  0  0  0  0  0
    6.4831   14.9841    3.2695 H   0  0  0  0  0  0  0  0  0  0  0  0
  1  2  1  0  0  0  0
  1  8  1  0  0  0  0
  2  3  1  0  0  0  0
  3  4  1  0  0  0  0
  3  9  1  6  0  0  0
  3 12  1  0  0  0  0
  4  5  1  0  0  0  0
  5  6  2  0  0  0  0
  5  7  2  0  0  0  0
  5  8  1  0  0  0  0
  9 10  2  0  0  0  0
  9 11  1  0  0  0  0
 11 13  1  0  0  0  0
 11 14  1  0  0  0  0
 12 15  1  0  0  0  0
M  END
>  <CHROM.0>
-56.98461402,60.89810035,-67.47238763,-47.18737792,-175.93716577,-61.84966025
-69.36252838,-61.43727783,-167.96877907

>  <CHROM.1>
-28.54840326,-46.77473208,116.16750150,6.23243459,18.01468489,3.65704180
0.70952270,0.85960787,1.69556841

>  <Name>
P105879035

>  <RI>
1.34432e+07

>  <Rbt.Current_Directory>
/home/fstefaniak/projects/zuza/docking/adenine/4XNR

>  <Rbt.Executable>
rbdock ($Id: //depot/dev/client3/rdock/2013.1/src/exe/rbdock.cxx#4 $)

>  <Rbt.Library>
libRbt.so (2013.1, Build901 2013/11/27)

>  <Rbt.Parameter_File>
/home/fstefaniak/progs/rDock//data/scripts/dock_solv.prm

>  <Rbt.Receptor>
4xnr.prm

>  <SCORE>
-38.7641

>  <SCORE.INTER>
-19.5775

>  <SCORE.INTER.CONST>
1

>  <SCORE.INTER.POLAR>
-4.26308

>  <SCORE.INTER.ROT>
2

>  <SCORE.INTER.SOLV>
16.2195

>  <SCORE.INTER.VDW>
-9.18118

>  <SCORE.INTER.norm>
-1.63145

>  <SCORE.INTRA>
0.919975

>  <SCORE.INTRA.DIHEDRAL>
2.66816

>  <SCORE.INTRA.DIHEDRAL.0>
0.752795

>  <SCORE.INTRA.POLAR>
-0.252871

>  <SCORE.INTRA.POLAR.0>
0

>  <SCORE.INTRA.REPUL>
0

>  <SCORE.INTRA.REPUL.0>
0

>  <SCORE.INTRA.SOLV>
-0.0715744

>  <SCORE.INTRA.SOLV.lig_0>
-16.6204

>  <SCORE.INTRA.VDW>
0.481445

>  <SCORE.INTRA.VDW.0>
-0.42874

>  <SCORE.INTRA.norm>
0.0766646

>  <SCORE.RESTR>
0

>  <SCORE.RESTR.CAVITY>
0

>  <SCORE.RESTR.norm>
0

>  <SCORE.SYSTEM>
-20.1066

>  <SCORE.SYSTEM.CONST>
0

>  <SCORE.SYSTEM.DIHEDRAL>
4.32334

>  <SCORE.SYSTEM.POLAR>
-2.99135

>  <SCORE.SYSTEM.SOLV>
0.176266

>  <SCORE.SYSTEM.VDW>
-4.93312

>  <SCORE.SYSTEM.norm>
-1.67555

>  <SCORE.heavy>
12

>  <SCORE.norm>
-3.23034

$$$$
P107007207
 OpenBabel12072022113D
libRbt.so/2013.1/901 2013/11/27
 16 16  0  0  0  0  0  0  0  0999 V2000
    1.1098   15.9836    3.4479 C   0  0  0  0  0  0  0  0  0  0  0  0
    1.4433   14.6894    4.1849 C   0  0  0  0  0  0  0  0  0  0  0  0
    2.8856   14.1657    3.9593 C   0  0  1  0  0  0  0  0  0  0  0  0
    3.2541   13.0365    4.9492 C   0  0  0  0  0  0  0  0  0  0  0  0
    2.7124   11.6583    4.5778 C   0  0  1  0  0  0  0  0  0  0  0  0
    2.8832   11.3608    3.0916 C   0  0  0  0  0  0  0  0  0  0  0  0
    2.4191   12.5244    2.2352 C   0  0  0  0  0  0  0  0  0  0  0  0
    3.0704   13.7302    2.6076 O   0  0  0  0  0  0  0  0  0  0  0  0
    3.4493   10.5042    5.3521 C   0  0  0  0  0  0  0  0  0  0  0  0
    4.6949   10.4865    5.3701 O   0  0  0  0  0  0  0  0  0  0  0  0
    2.5636    9.7546    5.8929 O   0  5  0  0  0  0  0  0  0  0  0  0
    1.2310   11.5497    4.9488 N   0  3  0  0  0  0  0  0  0  0  0  0
    1.0553   11.6279    5.9518 H   0  0  0  0  0  0  0  0  0  0  0  0
    0.5663   12.0541    4.3652 H   0  0  0  0  0  0  0  0  0  0  0  0
    1.0859   10.5174    4.7630 H   0  0  0  0  0  0  0  0  0  0  0  0
    3.8872   15.3190    4.1614 C   0  0  0  0  0  0  0  0  0  0  0  0
  1  2  1  0  0  0  0
  3  2  1  0  0  0  0
  3  4  1  0  0  0  0
  3  8  1  0  0  0  0
  3 16  1  1  0  0  0
  4  5  1  0  0  0  0
  5  6  1  0  0  0  0
  5 12  1  0  0  0  0
  5  9  1  1  0  0  0
  6  7  1  0  0  0  0
  7  8  1  0  0  0  0
  9 10  2  0  0  0  0
  9 11  1  0  0  0  0
 12 13  1  0  0  0  0
 12 14  1  0  0  0  0
 12 15  1  0  0  0  0
M  CHG  2  11  -1  12   1
M  END
>  <CHROM.0>
-57.06848859,-60.57996861,-64.10101759,-47.10289343,-176.31238521,-60.34312746
-68.12605726,-57.69222898,-168.07247832

>  <CHROM.1>
168.02007517,-63.31403577,-49.27635639,2.71999422,12.66121920,4.22193683
1.76471222,-0.01450760,-0.36000733

>  <Name>
P107007207

>  <RI>
1.34432e+07

>  <Rbt.Current_Directory>
/home/fstefaniak/projects/zuza/docking/adenine/4XNR

>  <Rbt.Executable>
rbdock ($Id: //depot/dev/client3/rdock/2013.1/src/exe/rbdock.cxx#4 $)

>  <Rbt.Library>
libRbt.so (2013.1, Build901 2013/11/27)

>  <Rbt.Parameter_File>
/home/fstefaniak/progs/rDock//data/scripts/dock_solv.prm

>  <Rbt.Receptor>
4xnr.prm

>  <SCORE>
-33.9062

>  <SCORE.INTER>
-13.2831

>  <SCORE.INTER.CONST>
1

>  <SCORE.INTER.POLAR>
-1.99611

>  <SCORE.INTER.ROT>
2

>  <SCORE.INTER.SOLV>
10.0601

>  <SCORE.INTER.VDW>
-10.4884

>  <SCORE.INTER.norm>
-1.02178

>  <SCORE.INTRA>
-0.841308

>  <SCORE.INTRA.DIHEDRAL>
-2.09064

>  <SCORE.INTRA.DIHEDRAL.0>
3.53771

>  <SCORE.INTRA.POLAR>
0

>  <SCORE.INTRA.POLAR.0>
0

>  <SCORE.INTRA.REPUL>
0

>  <SCORE.INTRA.REPUL.0>
0

>  <SCORE.INTRA.SOLV>
0.129183

>  <SCORE.INTRA.SOLV.lig_0>
-41.78

>  <SCORE.INTRA.VDW>
0.139419

>  <SCORE.INTRA.VDW.0>
2.76684

>  <SCORE.INTRA.norm>
-0.064716

>  <SCORE.RESTR>
1.11549

>  <SCORE.RESTR.CAVITY>
1.11549

>  <SCORE.RESTR.norm>
0.0858071

>  <SCORE.SYSTEM>
-20.8973

>  <SCORE.SYSTEM.CONST>
0

>  <SCORE.SYSTEM.DIHEDRAL>
4.03382

>  <SCORE.SYSTEM.POLAR>
-2.99991

>  <SCORE.SYSTEM.SOLV>
0.121976

>  <SCORE.SYSTEM.VDW>
-5.31708

>  <SCORE.SYSTEM.norm>
-1.60748

>  <SCORE.heavy>
13

>  <SCORE.norm>
-2.60817

$$$$
P107007207
 OpenBabel12072022113D
libRbt.so/2013.1/901 2013/11/27
 16 16  0  0  0  0  0  0  0  0999 V2000
    1.1585   16.0240    3.4168 C   0  0  0  0  0  0  0  0  0  0  0  0
    1.4073   14.6690    4.0738 C   0  0  0  0  0  0  0  0  0  0  0  0
    2.8549   14.1318    3.9283 C   0  0  1  0  0  0  0  0  0  0  0  0
    3.1573   12.9993    4.9367 C   0  0  0  0  0  0  0  0  0  0  0  0
    2.6241   11.6262    4.5354 C   0  0  1  0  0  0  0  0  0  0  0  0
    2.8742   11.3269    3.0609 C   0  0  0  0  0  0  0  0  0  0  0  0
    2.4693   12.4946    2.1804 C   0  0  0  0  0  0  0  0  0  0  0  0
    3.1102   13.6943    2.5888 O   0  0  0  0  0  0  0  0  0  0  0  0
    3.3061   10.4654    5.3490 C   0  0  0  0  0  0  0  0  0  0  0  0
    2.5893    9.5932    5.8758 O   0  0  0  0  0  0  0  0  0  0  0  0
    4.5750   10.6238    5.2870 O   0  5  0  0  0  0  0  0  0  0  0  0
    1.1235   11.5317    4.8237 N   0  3  0  0  0  0  0  0  0  0  0  0
    0.8869   11.6823    5.8057 H   0  0  0  0  0  0  0  0  0  0  0  0
    0.4930   11.9852    4.1653 H   0  0  0  0  0  0  0  0  0  0  0  0
    0.9949   10.4871    4.7070 H   0  0  0  0  0  0  0  0  0  0  0  0
    3.8546   15.2757    4.1859 C   0  0  0  0  0  0  0  0  0  0  0  0
  1  2  1  0  0  0  0
  3  2  1  0  0  0  0
  3  4  1  0  0  0  0
  3  8  1  0  0  0  0
  3 16  1  1  0  0  0
  4  5  1  0  0  0  0
  5  6  1  0  0  0  0
  5 12  1  0  0  0  0
  5  9  1  1  0  0  0
  6  7  1  0  0  0  0
  7  8  1  0  0  0  0
  9 10  2  0  0  0  0
  9 11  1  0  0  0  0
 12 13  1  0  0  0  0
 12 14  1  0  0  0  0
 12 15  1  0  0  0  0
M  CHG  2  11  -1  12   1
M  END
>  <CHROM.0>
-53.48696969,-59.44006280,-67.74962764,-45.36560326,-173.42578406,-58.68717218
-66.18955448,-55.96034005,-168.58761485

>  <CHROM.1>
163.17445531,-58.93361555,131.50559573,2.68312029,12.63845725,4.17912929
1.74133161,-0.02951111,-0.35147533

>  <Name>
P107007207

>  <RI>
1.34432e+07

>  <Rbt.Current_Directory>
/home/fstefaniak/projects/zuza/docking/adenine/4XNR

>  <Rbt.Executable>
rbdock ($Id: //depot/dev/client3/rdock/2013.1/src/exe/rbdock.cxx#4 $)

>  <Rbt.Library>
libRbt.so (2013.1, Build901 2013/11/27)

>  <Rbt.Parameter_File>
/home/fstefaniak/progs/rDock//data/scripts/dock_solv.prm

>  <Rbt.Receptor>
4xnr.prm

>  <SCORE>
-33.7203

>  <SCORE.INTER>
-14.1051

>  <SCORE.INTER.CONST>
1

>  <SCORE.INTER.POLAR>
-2.13328

>  <SCORE.INTER.ROT>
2

>  <SCORE.INTER.SOLV>
9.53797

>  <SCORE.INTER.VDW>
-10.4051

>  <SCORE.INTER.norm>
-1.08501

>  <SCORE.INTRA>
-0.152528

>  <SCORE.INTRA.DIHEDRAL>
-1.45454

>  <SCORE.INTRA.DIHEDRAL.0>
3.53771

>  <SCORE.INTRA.POLAR>
0

>  <SCORE.INTRA.POLAR.0>
0

>  <SCORE.INTRA.REPUL>
0

>  <SCORE.INTRA.REPUL.0>
0

>  <SCORE.INTRA.SOLV>
-0.131357

>  <SCORE.INTRA.SOLV.lig_0>
-41.78

>  <SCORE.INTRA.VDW>
0.640422

>  <SCORE.INTRA.VDW.0>
2.76684

>  <SCORE.INTRA.norm>
-0.0117329

>  <SCORE.RESTR>
1.22895

>  <SCORE.RESTR.CAVITY>
1.22895

>  <SCORE.RESTR.norm>
0.094535

>  <SCORE.SYSTEM>
-20.6917

>  <SCORE.SYSTEM.CONST>
0

>  <SCORE.SYSTEM.DIHEDRAL>
4.60545

>  <SCORE.SYSTEM.POLAR>
-3.05206

>  <SCORE.SYSTEM.SOLV>
0.134997

>  <SCORE.SYSTEM.VDW>
-5.20108

>  <SCORE.SYSTEM.norm>
-1.59167

>  <SCORE.heavy>
13

>  <SCORE.norm>
-2.59387

$$$$
P107007207
 OpenBabel12072022113D
libRbt.so/2013.1/901 2013/11/27
 16 16  0  0  0  0  0  0  0  0999 V2000
    0.8256   15.7997    4.6517 C   0  0  0  0  0  0  0  0  0  0  0  0
    1.1977   14.8333    3.5305 C   0  0  0  0  0  0  0  0  0  0  0  0
    2.6523   14.2984    3.5892 C   0  0  1  0  0  0  0  0  0  0  0  0
    2.8536   13.2911    4.7450 C   0  0  0  0  0  0  0  0  0  0  0  0
    2.3616   11.8758    4.4529 C   0  0  1  0  0  0  0  0  0  0  0  0
    2.7551   11.4135    3.0535 C   0  0  0  0  0  0  0  0  0  0  0  0
    2.4392   12.4693    2.0103 C   0  0  0  0  0  0  0  0  0  0  0  0
    3.0376   13.7143    2.3397 O   0  0  0  0  0  0  0  0  0  0  0  0
    2.9597   10.8222    5.4562 C   0  0  0  0  0  0  0  0  0  0  0  0
    4.1808   10.8459    5.7021 O   0  0  0  0  0  0  0  0  0  0  0  0
    2.0004   10.0980    5.8967 O   0  5  0  0  0  0  0  0  0  0  0  0
    0.8399   11.7986    4.6022 N   0  3  0  0  0  0  0  0  0  0  0  0
    0.5159   11.9530    5.5583 H   0  0  0  0  0  0  0  0  0  0  0  0
    0.2777   12.2586    3.8887 H   0  0  0  0  0  0  0  0  0  0  0  0
    0.7106   10.7555    4.4742 H   0  0  0  0  0  0  0  0  0  0  0  0
    3.6225   15.4748    3.8110 C   0  0  0  0  0  0  0  0  0  0  0  0
  1  2  1  0  0  0  0
  3  2  1  0  0  0  0
  3  4  1  0  0  0  0
  3  8  1  0  0  0  0
  3 16  1  1  0  0  0
  4  5  1  0  0  0  0
  5  6  1  0  0  0  0
  5 12  1  0  0  0  0
  5  9  1  1  0  0  0
  6  7  1  0  0  0  0
  7  8  1  0  0  0  0
  9 10  2  0  0  0  0
  9 11  1  0  0  0  0
 12 13  1  0  0  0  0
 12 14  1  0  0  0  0
 12 15  1  0  0  0  0
M  CHG  2  11  -1  12   1
M  END
>  <CHROM.0>
-59.68865657,-174.63919711,-63.99879366,-44.49284288,-171.23486204,-63.29140152
-68.41194947,-173.22988792,-168.35307818

>  <CHROM.1>
71.85210373,-65.52362185,-46.81730176,2.41994999,12.81295133,4.15499147,1.76081442
0.85829133,-0.52526013

>  <Name>
P107007207

>  <RI>
1.34432e+07

>  <Rbt.Current_Directory>
/home/fstefaniak/projects/zuza/docking/adenine/4XNR

>  <Rbt.Executable>
rbdock ($Id: //depot/dev/client3/rdock/2013.1/src/exe/rbdock.cxx#4 $)

>  <Rbt.Library>
libRbt.so (2013.1, Build901 2013/11/27)

>  <Rbt.Parameter_File>
/home/fstefaniak/progs/rDock//data/scripts/dock_solv.prm

>  <Rbt.Receptor>
4xnr.prm

>  <SCORE>
-33.4759

>  <SCORE.INTER>
-13.3635

>  <SCORE.INTER.CONST>
1

>  <SCORE.INTER.POLAR>
-2.11768

>  <SCORE.INTER.ROT>
2

>  <SCORE.INTER.SOLV>
10.5114

>  <SCORE.INTER.VDW>
-10.2872

>  <SCORE.INTER.norm>
-1.02796

>  <SCORE.INTRA>
-0.285471

>  <SCORE.INTRA.DIHEDRAL>
-1.90792

>  <SCORE.INTRA.DIHEDRAL.0>
3.53771

>  <SCORE.INTRA.POLAR>
0

>  <SCORE.INTRA.POLAR.0>
0

>  <SCORE.INTRA.REPUL>
0

>  <SCORE.INTRA.REPUL.0>
0

>  <SCORE.INTRA.SOLV>
0.358543

>  <SCORE.INTRA.SOLV.lig_0>
-41.78

>  <SCORE.INTRA.VDW>
0.489219

>  <SCORE.INTRA.VDW.0>
2.76684

>  <SCORE.INTRA.norm>
-0.0219593

>  <SCORE.RESTR>
0.768893

>  <SCORE.RESTR.CAVITY>
0.768893

>  <SCORE.RESTR.norm>
0.0591456

>  <SCORE.SYSTEM>
-20.5958

>  <SCORE.SYSTEM.CONST>
0

>  <SCORE.SYSTEM.DIHEDRAL>
4.95479

>  <SCORE.SYSTEM.POLAR>
-3.0146

>  <SCORE.SYSTEM.SOLV>
-0.0498116

>  <SCORE.SYSTEM.VDW>
-5.31686

>  <SCORE.SYSTEM.norm>
-1.58429

>  <SCORE.heavy>
13

>  <SCORE.norm>
-2.57507

$$$$
P107007208
 OpenBabel12072022113D
libRbt.so/2013.1/901 2013/11/27
 16 16  0  0  0  0  0  0  0  0999 V2000
    4.8774   16.3110    4.1394 C   0  0  0  0  0  0  0  0  0  0  0  0
    4.6623   14.8999    3.6110 C   0  0  0  0  0  0  0  0  0  0  0  0
    3.3661   14.1814    4.0832 C   0  0  2  0  0  0  0  0  0  0  0  0
    2.9970   13.0585    3.0880 C   0  0  0  0  0  0  0  0  0  0  0  0
    1.5215   12.6367    3.1241 C   0  0  2  0  0  0  0  0  0  0  0  0
    0.5753   13.8220    3.2188 C   0  0  0  0  0  0  0  0  0  0  0  0
    1.0287   14.7910    4.2961 C   0  0  0  0  0  0  0  0  0  0  0  0
    2.3643   15.2126    4.0369 O   0  0  0  0  0  0  0  0  0  0  0  0
    1.3103   11.5235    4.2134 C   0  0  0  0  0  0  0  0  0  0  0  0
    0.0612   11.4188    4.4585 O   0  0  0  0  0  0  0  0  0  0  0  0
    2.3157   11.0590    4.7871 O   0  5  0  0  0  0  0  0  0  0  0  0
    1.2397   11.9281    1.7783 N   0  3  0  0  0  0  0  0  0  0  0  0
    0.2695   11.6905    1.5809 H   0  0  0  0  0  0  0  0  0  0  0  0
    1.5908   12.6515    1.1022 H   0  0  0  0  0  0  0  0  0  0  0  0
    1.8851   11.1460    1.6408 H   0  0  0  0  0  0  0  0  0  0  0  0
    3.5735   13.6797    5.5199 C   0  0  0  0  0  0  0  0  0  0  0  0
  1  2  1  0  0  0  0
  3  4  1  0  0  0  0
  3  8  1  0  0  0  0
  3 16  1  1  0  0  0
  3  2  1  0  0  0  0
  4  5  1  0  0  0  0
  5  6  1  0  0  0  0
  5  9  1  1  0  0  0
  5 12  1  0  0  0  0
  6  7  1  0  0  0  0
  7  8  1  0  0  0  0
  9 10  2  0  0  0  0
  9 11  1  0  0  0  0
 12 13  1  0  0  0  0
 12 14  1  0  0  0  0
 12 15  1  0  0  0  0
M  CHG  2  11  -1  12   1
M  END
>  <CHROM.0>
-65.16354612,76.64897125,-63.42889296,-45.87230008,-56.68321431,-59.84563671
-71.80396190,-60.64176319,-168.76933904

>  <CHROM.1>
157.75609831,164.41436027,-172.12017617,2.28814096,13.40966652,3.86434000
0.72064788,-0.52304274,-0.37762405

>  <Name>
P107007208

>  <RI>
1.34432e+07

>  <Rbt.Current_Directory>
/home/fstefaniak/projects/zuza/docking/adenine/4XNR

>  <Rbt.Executable>
rbdock ($Id: //depot/dev/client3/rdock/2013.1/src/exe/rbdock.cxx#4 $)

>  <Rbt.Library>
libRbt.so (2013.1, Build901 2013/11/27)

>  <Rbt.Parameter_File>
/home/fstefaniak/progs/rDock//data/scripts/dock_solv.prm

>  <Rbt.Receptor>
4xnr.prm

>  <SCORE>
-30.3572

>  <SCORE.INTER>
-12.863

>  <SCORE.INTER.CONST>
1

>  <SCORE.INTER.POLAR>
-1.73633

>  <SCORE.INTER.ROT>
2

>  <SCORE.INTER.SOLV>
9.77115

>  <SCORE.INTER.VDW>
-10.978

>  <SCORE.INTER.norm>
-0.989461

>  <SCORE.INTRA>
0.133875

>  <SCORE.INTRA.DIHEDRAL>
0.550666

>  <SCORE.INTRA.DIHEDRAL.0>
1.91281

>  <SCORE.INTRA.POLAR>
0

>  <SCORE.INTRA.POLAR.0>
0

>  <SCORE.INTRA.REPUL>
0

>  <SCORE.INTRA.REPUL.0>
0

>  <SCORE.INTRA.SOLV>
-0.873317

>  <SCORE.INTRA.SOLV.lig_0>
-41.8455

>  <SCORE.INTRA.VDW>
0.2952

>  <SCORE.INTRA.VDW.0>
2.55128

>  <SCORE.INTRA.norm>
0.0102981

>  <SCORE.RESTR>
1.31777

>  <SCORE.RESTR.CAVITY>
1.31777

>  <SCORE.RESTR.norm>
0.101367

>  <SCORE.SYSTEM>
-18.9458

>  <SCORE.SYSTEM.CONST>
0

>  <SCORE.SYSTEM.DIHEDRAL>
5.71

>  <SCORE.SYSTEM.POLAR>
-2.95792

>  <SCORE.SYSTEM.SOLV>
0.285067

>  <SCORE.SYSTEM.VDW>
-4.76918

>  <SCORE.SYSTEM.norm>
-1.45737

>  <SCORE.heavy>
13

>  <SCORE.norm>
-2.33517

$$$$
P107007208
 OpenBabel12072022113D
libRbt.so/2013.1/901 2013/11/27
 16 16  0  0  0  0  0  0  0  0999 V2000
    4.4921   16.0317    2.9922 C   0  0  0  0  0  0  0  0  0  0  0  0
    4.5939   14.9755    4.0835 C   0  0  0  0  0  0  0  0  0  0  0  0
    3.2908   14.1862    4.3971 C   0  0  2  0  0  0  0  0  0  0  0  0
    3.0685   13.0949    3.3262 C   0  0  0  0  0  0  0  0  0  0  0  0
    1.6161   12.6140    3.2004 C   0  0  2  0  0  0  0  0  0  0  0  0
    0.6145   13.7558    3.2495 C   0  0  0  0  0  0  0  0  0  0  0  0
    0.9194   14.6933    4.4041 C   0  0  0  0  0  0  0  0  0  0  0  0
    2.2541   15.1782    4.2943 O   0  0  0  0  0  0  0  0  0  0  0  0
    1.3497   11.4463    4.2181 C   0  0  0  0  0  0  0  0  0  0  0  0
    0.0999   11.4038    4.4782 O   0  0  0  0  0  0  0  0  0  0  0  0
    2.3313   10.8827    4.7420 O   0  5  0  0  0  0  0  0  0  0  0  0
    1.4962   11.9552    1.8061 N   0  3  0  0  0  0  0  0  0  0  0  0
    2.0081   11.0863    1.6652 H   0  0  0  0  0  0  0  0  0  0  0  0
    0.4600   11.7886    1.7599 H   0  0  0  0  0  0  0  0  0  0  0  0
    1.6559   12.6447    1.0669 H   0  0  0  0  0  0  0  0  0  0  0  0
    3.3805   13.6301    5.8258 C   0  0  0  0  0  0  0  0  0  0  0  0
  1  2  1  0  0  0  0
  3  4  1  0  0  0  0
  3  8  1  0  0  0  0
  3 16  1  1  0  0  0
  3  2  1  0  0  0  0
  4  5  1  0  0  0  0
  5  6  1  0  0  0  0
  5  9  1  1  0  0  0
  5 12  1  0  0  0  0
  6  7  1  0  0  0  0
  7  8  1  0  0  0  0
  9 10  2  0  0  0  0
  9 11  1  0  0  0  0
 12 13  1  0  0  0  0
 12 14  1  0  0  0  0
 12 15  1  0  0  0  0
M  CHG  2  11  -1  12   1
M  END
>  <CHROM.0>
-63.07441360,-179.20082643,-66.04891190,-47.37196030,58.60889189,58.21933933
-68.14217496,-61.94849387,-168.34720849

>  <CHROM.1>
78.67355346,155.47447409,67.87137576,2.25690724,13.35618223,3.90854991,0.65558503
-0.69356028,-0.65479896

>  <Name>
P107007208

>  <RI>
1.34432e+07

>  <Rbt.Current_Directory>
/home/fstefaniak/projects/zuza/docking/adenine/4XNR

>  <Rbt.Executable>
rbdock ($Id: //depot/dev/client3/rdock/2013.1/src/exe/rbdock.cxx#4 $)

>  <Rbt.Library>
libRbt.so (2013.1, Build901 2013/11/27)

>  <Rbt.Parameter_File>
/home/fstefaniak/progs/rDock//data/scripts/dock_solv.prm

>  <Rbt.Receptor>
4xnr.prm

>  <SCORE>
-28.172

>  <SCORE.INTER>
-10.8009

>  <SCORE.INTER.CONST>
1

>  <SCORE.INTER.POLAR>
-1.19588

>  <SCORE.INTER.ROT>
2

>  <SCORE.INTER.SOLV>
10.0561

>  <SCORE.INTER.VDW>
-11.4997

>  <SCORE.INTER.norm>
-0.830841

>  <SCORE.INTRA>
-0.0919757

>  <SCORE.INTRA.DIHEDRAL>
0.774743

>  <SCORE.INTRA.DIHEDRAL.0>
1.91281

>  <SCORE.INTRA.POLAR>
0

>  <SCORE.INTRA.POLAR.0>
0

>  <SCORE.INTRA.REPUL>
0

>  <SCORE.INTRA.REPUL.0>
0

>  <SCORE.INTRA.SOLV>
-0.770643

>  <SCORE.INTRA.SOLV.lig_0>
-41.8455

>  <SCORE.INTRA.VDW>
-0.0940255

>  <SCORE.INTRA.VDW.0>
2.55128

>  <SCORE.INTRA.norm>
-0.00707505

>  <SCORE.RESTR>
1.4347

>  <SCORE.RESTR.CAVITY>
1.4347

>  <SCORE.RESTR.norm>
0.110361

>  <SCORE.SYSTEM>
-18.7138

>  <SCORE.SYSTEM.CONST>
0

>  <SCORE.SYSTEM.DIHEDRAL>
4.02579

>  <SCORE.SYSTEM.POLAR>
-2.95032

>  <SCORE.SYSTEM.SOLV>
-0.0815135

>  <SCORE.SYSTEM.VDW>
-3.95623

>  <SCORE.SYSTEM.norm>
-1.43952

>  <SCORE.heavy>
13

>  <SCORE.norm>
-2.16708

$$$$
P107007208
 OpenBabel12072022113D
libRbt.so/2013.1/901 2013/11/27
 16 16  0  0  0  0  0  0  0  0999 V2000
    3.7342   10.9746    8.4504 C   0  0  0  0  0  0  0  0  0  0  0  0
    2.6434   10.4410    7.5327 C   0  0  0  0  0  0  0  0  0  0  0  0
    2.7164   10.8931    6.0462 C   0  0  2  0  0  0  0  0  0  0  0  0
    2.9050   12.4249    5.9729 C   0  0  0  0  0  0  0  0  0  0  0  0
    2.4735   13.0556    4.6416 C   0  0  2  0  0  0  0  0  0  0  0  0
    1.1620   12.4899    4.1230 C   0  0  0  0  0  0  0  0  0  0  0  0
    1.1661   10.9728    4.1832 C   0  0  0  0  0  0  0  0  0  0  0  0
    1.4262   10.5421    5.5158 O   0  0  0  0  0  0  0  0  0  0  0  0
    3.6681   13.0189    3.6208 C   0  0  0  0  0  0  0  0  0  0  0  0
    3.6570   11.8950    3.0142 O   0  0  0  0  0  0  0  0  0  0  0  0
    4.5130   13.9353    3.6658 O   0  5  0  0  0  0  0  0  0  0  0  0
    2.2464   14.5588    4.9269 N   0  3  0  0  0  0  0  0  0  0  0  0
    1.9561   15.1351    4.1393 H   0  0  0  0  0  0  0  0  0  0  0  0
    1.4855   14.5053    5.6494 H   0  0  0  0  0  0  0  0  0  0  0  0
    3.0362   14.9502    5.4469 H   0  0  0  0  0  0  0  0  0  0  0  0
    3.8328   10.1064    5.3437 C   0  0  0  0  0  0  0  0  0  0  0  0
  1  2  1  0  0  0  0
  3  4  1  0  0  0  0
  3  8  1  0  0  0  0
  3 16  1  6  0  0  0
  3  2  1  0  0  0  0
  4  5  1  0  0  0  0
  5  6  1  0  0  0  0
  5  9  1  6  0  0  0
  5 12  1  0  0  0  0
  6  7  1  0  0  0  0
  7  8  1  0  0  0  0
  9 10  2  0  0  0  0
  9 11  1  0  0  0  0
 12 13  1  0  0  0  0
 12 14  1  0  0  0  0
 12 15  1  0  0  0  0
M  CHG  2  11  -1  12   1
M  END
>  <CHROM.0>
-57.05695695,-175.28742362,-65.64938708,-46.83786370,-59.89898936,-60.15078260
-66.70011706,-58.28611941,-167.25736032

>  <CHROM.1>
-48.83059704,86.33666677,179.71977914,2.78879249,11.97196021,5.15220974,-1.66116717
-0.78353804,-0.91988946

>  <Name>
P107007208

>  <RI>
1.34432e+07

>  <Rbt.Current_Directory>
/home/fstefaniak/projects/zuza/docking/adenine/4XNR

>  <Rbt.Executable>
rbdock ($Id: //depot/dev/client3/rdock/2013.1/src/exe/rbdock.cxx#4 $)

>  <Rbt.Library>
libRbt.so (2013.1, Build901 2013/11/27)

>  <Rbt.Parameter_File>
/home/fstefaniak/progs/rDock//data/scripts/dock_solv.prm

>  <Rbt.Receptor>
4xnr.prm

>  <SCORE>
-27.2165

>  <SCORE.INTER>
-7.1489

>  <SCORE.INTER.CONST>
1

>  <SCORE.INTER.POLAR>
-1.88469

>  <SCORE.INTER.ROT>
2

>  <SCORE.INTER.SOLV>
16.0219

>  <SCORE.INTER.VDW>
-8.7576

>  <SCORE.INTER.norm>
-0.549915

>  <SCORE.INTRA>
-0.205594

>  <SCORE.INTRA.DIHEDRAL>
-0.35575

>  <SCORE.INTRA.DIHEDRAL.0>
1.91281

>  <SCORE.INTRA.POLAR>
0

>  <SCORE.INTRA.POLAR.0>
0

>  <SCORE.INTRA.REPUL>
0

>  <SCORE.INTRA.REPUL.0>
0

>  <SCORE.INTRA.SOLV>
-0.465198

>  <SCORE.INTRA.SOLV.lig_0>
-41.8455

>  <SCORE.INTRA.VDW>
0.20488

>  <SCORE.INTRA.VDW.0>
2.55128

>  <SCORE.INTRA.norm>
-0.0158149

>  <SCORE.RESTR>
0.790174

>  <SCORE.RESTR.CAVITY>
0.790174

>  <SCORE.RESTR.norm>
0.0607826

>  <SCORE.SYSTEM>
-20.6521

>  <SCORE.SYSTEM.CONST>
0

>  <SCORE.SYSTEM.DIHEDRAL>
4.15573

>  <SCORE.SYSTEM.POLAR>
-3.00176

>  <SCORE.SYSTEM.SOLV>
0.271646

>  <SCORE.SYSTEM.VDW>
-5.23801

>  <SCORE.SYSTEM.norm>
-1.58863

>  <SCORE.heavy>
13

>  <SCORE.norm>
-2.09357

$$$$
P107221164
 OpenBabel12072022113D
libRbt.so/2013.1/901 2013/11/27
 14 14  0  0  0  0  0  0  0  0999 V2000
    1.1071   16.5252    3.8328 C   0  0  0  0  0  0  0  0  0  0  0  0
    1.2858   15.0138    3.9496 C   0  0  2  0  0  0  0  0  0  0  0  0
    2.7773   14.6611    4.1571 C   0  0  0  0  0  0  0  0  0  0  0  0
    2.9360   13.2072    4.1916 N   0  0  0  0  0  0  0  0  0  0  0  0
    2.4738   12.5580    2.9665 C   0  0  0  0  0  0  0  0  0  0  0  0
    0.9894   12.9121    2.6872 C   0  0  2  0  0  0  0  0  0  0  0  0
    0.7217   14.3706    2.7421 N   0  0  0  0  0  0  0  0  0  0  0  0
    0.0451   12.1394    3.6150 C   0  0  0  0  0  0  0  0  0  0  0  0
    3.1836   12.4407    5.2984 C   0  0  0  0  0  0  0  0  0  0  0  0
    3.2437   11.2156    5.2981 O   0  0  0  0  0  0  0  0  0  0  0  0
    3.3684   13.1038    6.4653 N   0  0  0  0  0  0  0  0  0  0  0  0
   -0.2835   14.5366    2.7019 H   0  0  0  0  0  0  0  0  0  0  0  0
    2.5853   13.1472    7.0971 H   0  0  0  0  0  0  0  0  0  0  0  0
    4.2348   12.8361    6.9159 H   0  0  0  0  0  0  0  0  0  0  0  0
  2  3  1  0  0  0  0
  2  7  1  0  0  0  0
  2  1  1  6  0  0  0
  3  4  1  0  0  0  0
  4  5  1  0  0  0  0
  4  9  1  0  0  0  0
  5  6  1  0  0  0  0
  6  7  1  0  0  0  0
  6  8  1  1  0  0  0
  7 12  1  0  0  0  0
  9 10  2  0  0  0  0
  9 11  1  0  0  0  0
 11 13  1  0  0  0  0
 11 14  1  0  0  0  0
M  END
>  <CHROM.0>
-56.68594658,-37.54462844,-69.99880910,-45.64621417,-60.60969429,-62.84632859
-70.23807981,-60.04413667,-168.18730546

>  <CHROM.1>
100.04537690,2.00830604,13.45829197,4.14228840,-2.46505896,0.80159450,-3.05825573

>  <Name>
P107221164

>  <RI>
3.02409e+07

>  <Rbt.Current_Directory>
/home/fstefaniak/projects/zuza/docking/adenine/4XNR

>  <Rbt.Executable>
rbdock ($Id: //depot/dev/client3/rdock/2013.1/src/exe/rbdock.cxx#4 $)

>  <Rbt.Library>
libRbt.so (2013.1, Build901 2013/11/27)

>  <Rbt.Parameter_File>
/home/fstefaniak/progs/rDock//data/scripts/dock_solv.prm

>  <Rbt.Receptor>
4xnr.prm

>  <SCORE>
-50.6836

>  <SCORE.INTER>
-31.2418

>  <SCORE.INTER.CONST>
1

>  <SCORE.INTER.POLAR>
-3.94732

>  <SCORE.INTER.ROT>
1

>  <SCORE.INTER.SOLV>
9.13716

>  <SCORE.INTER.VDW>
-14.9825

>  <SCORE.INTER.norm>
-2.84017

>  <SCORE.INTRA>
-0.177459

>  <SCORE.INTRA.DIHEDRAL>
0.00251264

>  <SCORE.INTRA.DIHEDRAL.0>
0.478811

>  <SCORE.INTRA.POLAR>
0

>  <SCORE.INTRA.POLAR.0>
0

>  <SCORE.INTRA.REPUL>
0

>  <SCORE.INTRA.REPUL.0>
0

>  <SCORE.INTRA.SOLV>
-0.027486

>  <SCORE.INTRA.SOLV.lig_0>
-13.7031

>  <SCORE.INTRA.VDW>
-0.164973

>  <SCORE.INTRA.VDW.0>
-0.125422

>  <SCORE.INTRA.norm>
-0.0161327

>  <SCORE.RESTR>
0

>  <SCORE.RESTR.CAVITY>
0

>  <SCORE.RESTR.norm>
0

>  <SCORE.SYSTEM>
-19.2643

>  <SCORE.SYSTEM.CONST>
0

>  <SCORE.SYSTEM.DIHEDRAL>
6.86445

>  <SCORE.SYSTEM.POLAR>
-3.01276

>  <SCORE.SYSTEM.SOLV>
0.363919

>  <SCORE.SYSTEM.VDW>
-5.2098

>  <SCORE.SYSTEM.norm>
-1.7513

>  <SCORE.heavy>
11

>  <SCORE.norm>
-4.6076

$$$$
P107221164
 OpenBabel12072022113D
libRbt.so/2013.1/901 2013/11/27
 14 14  0  0  0  0  0  0  0  0999 V2000
    1.1615   16.5224    3.8299 C   0  0  0  0  0  0  0  0  0  0  0  0
    1.2972   15.0092    3.9780 C   0  0  2  0  0  0  0  0  0  0  0  0
    2.7756   14.6204    4.2134 C   0  0  0  0  0  0  0  0  0  0  0  0
    2.8941   13.1637    4.2777 N   0  0  0  0  0  0  0  0  0  0  0  0
    2.4313   12.5037    3.0586 C   0  0  0  0  0  0  0  0  0  0  0  0
    0.9611   12.8922    2.7515 C   0  0  2  0  0  0  0  0  0  0  0  0
    0.7325   14.3582    2.7750 N   0  0  0  0  0  0  0  0  0  0  0  0
   -0.0166   12.1634    3.6802 C   0  0  0  0  0  0  0  0  0  0  0  0
    3.1055   12.4124    5.4022 C   0  0  0  0  0  0  0  0  0  0  0  0
    3.1321   11.1863    5.4261 O   0  0  0  0  0  0  0  0  0  0  0  0
    3.2922   13.0928    6.5589 N   0  0  0  0  0  0  0  0  0  0  0  0
   -0.2671   14.5505    2.7173 H   0  0  0  0  0  0  0  0  0  0  0  0
    2.5482   13.0577    7.2368 H   0  0  0  0  0  0  0  0  0  0  0  0
    4.2068   12.9149    6.9554 H   0  0  0  0  0  0  0  0  0  0  0  0
  2  3  1  0  0  0  0
  2  7  1  0  0  0  0
  2  1  1  6  0  0  0
  3  4  1  0  0  0  0
  4  5  1  0  0  0  0
  4  9  1  0  0  0  0
  5  6  1  0  0  0  0
  6  7  1  0  0  0  0
  6  8  1  1  0  0  0
  7 12  1  0  0  0  0
  9 10  2  0  0  0  0
  9 11  1  0  0  0  0
 11 13  1  0  0  0  0
 11 14  1  0  0  0  0
M  END
>  <CHROM.0>
-57.98443270,-37.45580822,60.48501161,-47.67691719,-172.06075105,-177.37290081
54.03241805,-58.72202928,-168.21175399

>  <CHROM.1>
108.63343487,1.97506015,13.43875569,4.21031251,-2.42703684,0.81630837,-3.10605035

>  <Name>
P107221164

>  <RI>
3.02409e+07

>  <Rbt.Current_Directory>
/home/fstefaniak/projects/zuza/docking/adenine/4XNR

>  <Rbt.Executable>
rbdock ($Id: //depot/dev/client3/rdock/2013.1/src/exe/rbdock.cxx#4 $)

>  <Rbt.Library>
libRbt.so (2013.1, Build901 2013/11/27)

>  <Rbt.Parameter_File>
/home/fstefaniak/progs/rDock//data/scripts/dock_solv.prm

>  <Rbt.Receptor>
4xnr.prm

>  <SCORE>
-48.4819

>  <SCORE.INTER>
-31.207

>  <SCORE.INTER.CONST>
1

>  <SCORE.INTER.POLAR>
-3.9447

>  <SCORE.INTER.ROT>
1

>  <SCORE.INTER.SOLV>
9.07787

>  <SCORE.INTER.VDW>
-14.9483

>  <SCORE.INTER.norm>
-2.837

>  <SCORE.INTRA>
-0.173389

>  <SCORE.INTRA.DIHEDRAL>
0.00168941

>  <SCORE.INTRA.DIHEDRAL.0>
0.478811

>  <SCORE.INTRA.POLAR>
0

>  <SCORE.INTRA.POLAR.0>
0

>  <SCORE.INTRA.REPUL>
0

>  <SCORE.INTRA.REPUL.0>
0

>  <SCORE.INTRA.SOLV>
-0.0312686

>  <SCORE.INTRA.SOLV.lig_0>
-13.7031

>  <SCORE.INTRA.VDW>
-0.158599

>  <SCORE.INTRA.VDW.0>
-0.125422

>  <SCORE.INTRA.norm>
-0.0157626

>  <SCORE.RESTR>
0.00776872

>  <SCORE.RESTR.CAVITY>
0.00776872

>  <SCORE.RESTR.norm>
0.000706247

>  <SCORE.SYSTEM>
-17.1092

>  <SCORE.SYSTEM.CONST>
0

>  <SCORE.SYSTEM.DIHEDRAL>
6.13598

>  <SCORE.SYSTEM.POLAR>
-2.96602

>  <SCORE.SYSTEM.SOLV>
-0.00310143

>  <SCORE.SYSTEM.VDW>
-3.56369

>  <SCORE.SYSTEM.norm>
-1.55538

>  <SCORE.heavy>
11

>  <SCORE.norm>
-4.40744

$$$$
P107221164
 OpenBabel12072022113D
libRbt.so/2013.1/901 2013/11/27
 14 14  0  0  0  0  0  0  0  0999 V2000
    1.1466   16.5789    3.7108 C   0  0  0  0  0  0  0  0  0  0  0  0
    1.2567   15.0673    3.8924 C   0  0  2  0  0  0  0  0  0  0  0  0
    2.7187   14.6655    4.1977 C   0  0  0  0  0  0  0  0  0  0  0  0
    2.8158   13.2089    4.2939 N   0  0  0  0  0  0  0  0  0  0  0  0
    2.3967   12.5314    3.0686 C   0  0  0  0  0  0  0  0  0  0  0  0
    0.9459   12.9316    2.6920 C   0  0  2  0  0  0  0  0  0  0  0  0
    0.7352   14.4004    2.6786 N   0  0  0  0  0  0  0  0  0  0  0  0
   -0.0795   12.2323    3.5915 C   0  0  0  0  0  0  0  0  0  0  0  0
    2.9697   12.4766    5.4401 C   0  0  0  0  0  0  0  0  0  0  0  0
    2.9797   11.2510    5.4876 O   0  0  0  0  0  0  0  0  0  0  0  0
    3.1159   13.1765    6.5908 N   0  0  0  0  0  0  0  0  0  0  0  0
   -0.2586   14.6035    2.5749 H   0  0  0  0  0  0  0  0  0  0  0  0
    4.0346   13.1942    7.0033 H   0  0  0  0  0  0  0  0  0  0  0  0
    2.6835   14.0902    6.5319 H   0  0  0  0  0  0  0  0  0  0  0  0
  2  3  1  0  0  0  0
  2  7  1  0  0  0  0
  2  1  1  6  0  0  0
  3  4  1  0  0  0  0
  4  5  1  0  0  0  0
  4  9  1  0  0  0  0
  5  6  1  0  0  0  0
  6  7  1  0  0  0  0
  6  8  1  1  0  0  0
  7 12  1  0  0  0  0
  9 10  2  0  0  0  0
  9 11  1  0  0  0  0
 11 13  1  0  0  0  0
 11 14  1  0  0  0  0
M  END
>  <CHROM.0>
-56.62228664,-81.83006562,-73.69624029,-47.86603038,-177.48770176,57.95131264
-172.80577096,-174.18179106,-168.18774038

>  <CHROM.1>
-106.97747354,1.90635065,13.50079322,4.17763238,-2.40913076,0.85206791,-3.13547319

>  <Name>
P107221164

>  <RI>
3.02409e+07

>  <Rbt.Current_Directory>
/home/fstefaniak/projects/zuza/docking/adenine/4XNR

>  <Rbt.Executable>
rbdock ($Id: //depot/dev/client3/rdock/2013.1/src/exe/rbdock.cxx#4 $)

>  <Rbt.Library>
libRbt.so (2013.1, Build901 2013/11/27)

>  <Rbt.Parameter_File>
/home/fstefaniak/progs/rDock//data/scripts/dock_solv.prm

>  <Rbt.Receptor>
4xnr.prm

>  <SCORE>
-45.6767

>  <SCORE.INTER>
-27.9001

>  <SCORE.INTER.CONST>
1

>  <SCORE.INTER.POLAR>
-3.21052

>  <SCORE.INTER.ROT>
1

>  <SCORE.INTER.SOLV>
9.32616

>  <SCORE.INTER.VDW>
-15.2737

>  <SCORE.INTER.norm>
-2.53637

>  <SCORE.INTRA>
0.678416

>  <SCORE.INTRA.DIHEDRAL>
-0.000588848

>  <SCORE.INTRA.DIHEDRAL.0>
0.478811

>  <SCORE.INTRA.POLAR>
0

>  <SCORE.INTRA.POLAR.0>
0

>  <SCORE.INTRA.REPUL>
0

>  <SCORE.INTRA.REPUL.0>
0

>  <SCORE.INTRA.SOLV>
0.0074745

>  <SCORE.INTRA.SOLV.lig_0>
-13.7031

>  <SCORE.INTRA.VDW>
0.674973

>  <SCORE.INTRA.VDW.0>
-0.125422

>  <SCORE.INTRA.norm>
0.0616742

>  <SCORE.RESTR>
0

>  <SCORE.RESTR.CAVITY>
0

>  <SCORE.RESTR.norm>
0

>  <SCORE.SYSTEM>
-18.455

>  <SCORE.SYSTEM.CONST>
0

>  <SCORE.SYSTEM.DIHEDRAL>
6.80117

>  <SCORE.SYSTEM.POLAR>
-2.96355

>  <SCORE.SYSTEM.SOLV>
-0.22307

>  <SCORE.SYSTEM.VDW>
-4.61754

>  <SCORE.SYSTEM.norm>
-1.67773

>  <SCORE.heavy>
11

>  <SCORE.norm>
-4.15243

$$$$
P107223365
 OpenBabel12072022113D
libRbt.so/2013.1/901 2013/11/27
 15 15  0  0  0  0  0  0  0  0999 V2000
    2.9985   15.1486    3.5318 C   0  0  0  0  0  0  0  0  0  0  0  0
    4.3728   14.7974    4.0945 C   0  0  0  0  0  0  0  0  0  0  0  0
    5.4691   15.6820    3.4961 C   0  0  0  0  0  0  0  0  0  0  0  0
    5.1743   17.1883    3.6455 C   0  0  0  0  0  0  0  0  0  0  0  0
    3.7685   17.5173    3.1031 C   0  0  0  0  0  0  0  0  0  0  0  0
    2.6752   16.6300    3.7025 C   0  0  0  0  0  0  0  0  0  0  0  0
    6.2537   18.0288    2.8999 C   0  0  0  0  0  0  0  0  0  0  0  0
    6.8676   18.9572    3.4342 O   0  0  0  0  0  0  0  0  0  0  0  0
    6.4935   17.6883    1.5904 N   0  0  0  0  0  0  0  0  0  0  0  0
    5.4215   17.8995    0.6924 O   0  0  0  0  0  0  0  0  0  0  0  0
    5.2238   17.5411    5.0885 N   0  0  0  0  0  0  0  0  0  0  0  0
    7.4175   17.6184    1.1795 H   0  0  0  0  0  0  0  0  0  0  0  0
    5.4438   18.8737    0.5619 H   0  0  0  0  0  0  0  0  0  0  0  0
    6.1724   17.3589    5.4268 H   0  0  0  0  0  0  0  0  0  0  0  0
    4.6573   16.8591    5.6002 H   0  0  0  0  0  0  0  0  0  0  0  0
  1  2  1  0  0  0  0
  1  6  1  0  0  0  0
  2  3  1  0  0  0  0
  3  4  1  0  0  0  0
  4  5  1  0  0  0  0
  4  7  1  0  0  0  0
  4 11  1  0  0  0  0
  5  6  1  0  0  0  0
  7  8  2  0  0  0  0
  7  9  1  0  0  0  0
  9 10  1  0  0  0  0
  9 12  1  0  0  0  0
 10 13  1  0  0  0  0
 11 14  1  0  0  0  0
 11 15  1  0  0  0  0
M  END
>  <CHROM.0>
-56.90424001,43.02804055,-67.07777594,-47.39045047,59.22302400,-63.33829854
-66.75028376,-57.95108822,-168.04964148

>  <CHROM.1>
-128.71475273,62.36977856,65.54742814,76.25824144,5.00870091,17.04418913
3.17654523,2.62245523,0.69525918,1.71652013

>  <Name>
P107223365

>  <RI>
2.22087e+07

>  <Rbt.Current_Directory>
/home/fstefaniak/projects/zuza/docking/adenine/4XNR

>  <Rbt.Executable>
rbdock ($Id: //depot/dev/client3/rdock/2013.1/src/exe/rbdock.cxx#4 $)

>  <Rbt.Library>
libRbt.so (2013.1, Build901 2013/11/27)

>  <Rbt.Parameter_File>
/home/fstefaniak/progs/rDock//data/scripts/dock_solv.prm

>  <Rbt.Receptor>
4xnr.prm

>  <SCORE>
-46.629

>  <SCORE.INTER>
-27.3932

>  <SCORE.INTER.CONST>
1

>  <SCORE.INTER.POLAR>
-4.60144

>  <SCORE.INTER.ROT>
3

>  <SCORE.INTER.SOLV>
13.9055

>  <SCORE.INTER.VDW>
-13.1591

>  <SCORE.INTER.norm>
-2.49029

>  <SCORE.INTRA>
-0.285213

>  <SCORE.INTRA.DIHEDRAL>
-0.00242891

>  <SCORE.INTRA.DIHEDRAL.0>
1.25103

>  <SCORE.INTRA.POLAR>
0

>  <SCORE.INTRA.POLAR.0>
0

>  <SCORE.INTRA.REPUL>
0

>  <SCORE.INTRA.REPUL.0>
0

>  <SCORE.INTRA.SOLV>
0.501946

>  <SCORE.INTRA.SOLV.lig_0>
-16.9138

>  <SCORE.INTRA.VDW>
-0.534972

>  <SCORE.INTRA.VDW.0>
-0.037037

>  <SCORE.INTRA.norm>
-0.0259285

>  <SCORE.RESTR>
0

>  <SCORE.RESTR.CAVITY>
0

>  <SCORE.RESTR.norm>
0

>  <SCORE.SYSTEM>
-18.9507

>  <SCORE.SYSTEM.CONST>
0

>  <SCORE.SYSTEM.DIHEDRAL>
5.35158

>  <SCORE.SYSTEM.POLAR>
-3.08264

>  <SCORE.SYSTEM.SOLV>
0.209751

>  <SCORE.SYSTEM.VDW>
-4.21209

>  <SCORE.SYSTEM.norm>
-1.72279

>  <SCORE.heavy>
11

>  <SCORE.norm>
-4.239

$$$$
P107223365
 OpenBabel12072022113D
libRbt.so/2013.1/901 2013/11/27
 15 15  0  0  0  0  0  0  0  0999 V2000
    2.9822   15.1388    3.5848 C   0  0  0  0  0  0  0  0  0  0  0  0
    4.3636   14.8219    4.1507 C   0  0  0  0  0  0  0  0  0  0  0  0
    5.4469   15.6953    3.5136 C   0  0  0  0  0  0  0  0  0  0  0  0
    5.1376   17.2030    3.6106 C   0  0  0  0  0  0  0  0  0  0  0  0
    3.7252   17.4982    3.0661 C   0  0  0  0  0  0  0  0  0  0  0  0
    2.6448   16.6221    3.7043 C   0  0  0  0  0  0  0  0  0  0  0  0
    6.2036   18.0269    2.8281 C   0  0  0  0  0  0  0  0  0  0  0  0
    6.8394   18.9552    3.3365 O   0  0  0  0  0  0  0  0  0  0  0  0
    6.4054   17.6717    1.5161 N   0  0  0  0  0  0  0  0  0  0  0  0
    5.2809   17.7879    0.6661 O   0  0  0  0  0  0  0  0  0  0  0  0
    5.1925   17.6080    5.0396 N   0  0  0  0  0  0  0  0  0  0  0  0
    7.3119   17.6544    1.0630 H   0  0  0  0  0  0  0  0  0  0  0  0
    5.2547   18.7531    0.4811 H   0  0  0  0  0  0  0  0  0  0  0  0
    6.1339   17.4098    5.3891 H   0  0  0  0  0  0  0  0  0  0  0  0
    4.6035   16.9634    5.5737 H   0  0  0  0  0  0  0  0  0  0  0  0
  1  2  1  0  0  0  0
  1  6  1  0  0  0  0
  2  3  1  0  0  0  0
  3  4  1  0  0  0  0
  4  5  1  0  0  0  0
  4  7  1  0  0  0  0
  4 11  1  0  0  0  0
  5  6  1  0  0  0  0
  7  8  2  0  0  0  0
  7  9  1  0  0  0  0
  9 10  1  0  0  0  0
  9 12  1  0  0  0  0
 10 13  1  0  0  0  0
 11 14  1  0  0  0  0
 11 15  1  0  0  0  0
M  END
>  <CHROM.0>
-58.61409535,-62.36462958,61.58933440,-46.29061639,-66.02963097,60.45195967
52.58369778,-59.77658786,-168.16967469

>  <CHROM.1>
-126.53624961,59.94977944,60.93833880,78.73585175,4.96122484,17.03865570
3.15144536,2.59980392,0.69351826,1.71787554

>  <Name>
P107223365

>  <RI>
2.22087e+07

>  <Rbt.Current_Directory>
/home/fstefaniak/projects/zuza/docking/adenine/4XNR

>  <Rbt.Executable>
rbdock ($Id: //depot/dev/client3/rdock/2013.1/src/exe/rbdock.cxx#4 $)

>  <Rbt.Library>
libRbt.so (2013.1, Build901 2013/11/27)

>  <Rbt.Parameter_File>
/home/fstefaniak/progs/rDock//data/scripts/dock_solv.prm

>  <Rbt.Receptor>
4xnr.prm

>  <SCORE>
-46.0178

>  <SCORE.INTER>
-27.9468

>  <SCORE.INTER.CONST>
1

>  <SCORE.INTER.POLAR>
-4.52296

>  <SCORE.INTER.ROT>
3

>  <SCORE.INTER.SOLV>
14.0351

>  <SCORE.INTER.VDW>
-13.8331

>  <SCORE.INTER.norm>
-2.54062

>  <SCORE.INTRA>
-0.221431

>  <SCORE.INTRA.DIHEDRAL>
-0.132768

>  <SCORE.INTRA.DIHEDRAL.0>
1.25103

>  <SCORE.INTRA.POLAR>
0

>  <SCORE.INTRA.POLAR.0>
0

>  <SCORE.INTRA.REPUL>
0

>  <SCORE.INTRA.REPUL.0>
0

>  <SCORE.INTRA.SOLV>
0.555865

>  <SCORE.INTRA.SOLV.lig_0>
-16.9138

>  <SCORE.INTRA.VDW>
-0.43298

>  <SCORE.INTRA.VDW.0>
-0.037037

>  <SCORE.INTRA.norm>
-0.0201301

>  <SCORE.RESTR>
0

>  <SCORE.RESTR.CAVITY>
0

>  <SCORE.RESTR.norm>
0

>  <SCORE.SYSTEM>
-17.8496

>  <SCORE.SYSTEM.CONST>
0

>  <SCORE.SYSTEM.DIHEDRAL>
4.07905

>  <SCORE.SYSTEM.POLAR>
-2.97499

>  <SCORE.SYSTEM.SOLV>
0.0537148

>  <SCORE.SYSTEM.VDW>
-3.36067

>  <SCORE.SYSTEM.norm>
-1.62269

>  <SCORE.heavy>
11

>  <SCORE.norm>
-4.18344

$$$$
P107223365
 OpenBabel12072022113D
libRbt.so/2013.1/901 2013/11/27
 15 15  0  0  0  0  0  0  0  0999 V2000
    5.5359   17.3301    2.8854 C   0  0  0  0  0  0  0  0  0  0  0  0
    4.6846   17.7250    4.0888 C   0  0  0  0  0  0  0  0  0  0  0  0
    5.5154   17.7783    5.3730 C   0  0  0  0  0  0  0  0  0  0  0  0
    6.7576   18.6837    5.2482 C   0  0  0  0  0  0  0  0  0  0  0  0
    7.5861   18.2916    4.0078 C   0  0  0  0  0  0  0  0  0  0  0  0
    6.7519   18.2380    2.7260 C   0  0  0  0  0  0  0  0  0  0  0  0
    7.6300   18.5881    6.5355 C   0  0  0  0  0  0  0  0  0  0  0  0
    7.1504   18.6023    7.6731 O   0  0  0  0  0  0  0  0  0  0  0  0
    8.9875   18.4918    6.3456 N   0  0  0  0  0  0  0  0  0  0  0  0
    9.7533   19.5896    6.8023 O   0  0  0  0  0  0  0  0  0  0  0  0
    6.3057   20.0914    5.0950 N   0  0  0  0  0  0  0  0  0  0  0  0
    9.4850   17.6177    6.2195 H   0  0  0  0  0  0  0  0  0  0  0  0
    9.6717   19.5125    7.7791 H   0  0  0  0  0  0  0  0  0  0  0  0
    5.5830   20.1150    4.3706 H   0  0  0  0  0  0  0  0  0  0  0  0
    7.0728   20.6260    4.6784 H   0  0  0  0  0  0  0  0  0  0  0  0
  1  2  1  0  0  0  0
  1  6  1  0  0  0  0
  2  3  1  0  0  0  0
  3  4  1  0  0  0  0
  4  5  1  0  0  0  0
  4  7  1  0  0  0  0
  4 11  1  0  0  0  0
  5  6  1  0  0  0  0
  7  8  2  0  0  0  0
  7  9  1  0  0  0  0
  9 10  1  0  0  0  0
  9 12  1  0  0  0  0
 10 13  1  0  0  0  0
 11 14  1  0  0  0  0
 11 15  1  0  0  0  0
M  END
>  <CHROM.0>
-54.20946092,-61.16309408,-72.44067725,174.91775583,-175.15690277,-59.74502811
-171.26816930,-57.01605515,-167.65947786

>  <CHROM.1>
-43.62295977,-48.51982723,114.08572699,69.51923288,7.02510562,18.52789717
5.21020334,-2.30983974,0.23591723,1.44491077

>  <Name>
P107223365

>  <RI>
2.22087e+07

>  <Rbt.Current_Directory>
/home/fstefaniak/projects/zuza/docking/adenine/4XNR

>  <Rbt.Executable>
rbdock ($Id: //depot/dev/client3/rdock/2013.1/src/exe/rbdock.cxx#4 $)

>  <Rbt.Library>
libRbt.so (2013.1, Build901 2013/11/27)

>  <Rbt.Parameter_File>
/home/fstefaniak/progs/rDock//data/scripts/dock_solv.prm

>  <Rbt.Receptor>
4xnr.prm

>  <SCORE>
-45.2289

>  <SCORE.INTER>
-29.4841

>  <SCORE.INTER.CONST>
1

>  <SCORE.INTER.POLAR>
-4.69408

>  <SCORE.INTER.ROT>
3

>  <SCORE.INTER.SOLV>
17.4884

>  <SCORE.INTER.VDW>
-15.4386

>  <SCORE.INTER.norm>
-2.68038

>  <SCORE.INTRA>
2.05749

>  <SCORE.INTRA.DIHEDRAL>
2.91752

>  <SCORE.INTRA.DIHEDRAL.0>
1.25103

>  <SCORE.INTRA.POLAR>
0

>  <SCORE.INTRA.POLAR.0>
0

>  <SCORE.INTRA.REPUL>
0

>  <SCORE.INTRA.REPUL.0>
0

>  <SCORE.INTRA.SOLV>
0.163079

>  <SCORE.INTRA.SOLV.lig_0>
-16.9138

>  <SCORE.INTRA.VDW>
0.517184

>  <SCORE.INTRA.VDW.0>
-0.037037

>  <SCORE.INTRA.norm>
0.187044

>  <SCORE.RESTR>
0

>  <SCORE.RESTR.CAVITY>
0

>  <SCORE.RESTR.norm>
0

>  <SCORE.SYSTEM>
-17.8022

>  <SCORE.SYSTEM.CONST>
0

>  <SCORE.SYSTEM.DIHEDRAL>
4.25862

>  <SCORE.SYSTEM.POLAR>
-2.44133

>  <SCORE.SYSTEM.SOLV>
-0.119583

>  <SCORE.SYSTEM.VDW>
-5.11005

>  <SCORE.SYSTEM.norm>
-1.61838

>  <SCORE.heavy>
11

>  <SCORE.norm>
-4.11172

$$$$
P107232038
 OpenBabel12072022113D
libRbt.so/2013.1/901 2013/11/27
 14 14  0  0  0  0  0  0  0  0999 V2000
    3.1605   13.9147    4.2479 C   0  0  0  0  0  0  0  0  0  0  0  0
    3.9309   14.9632    3.4467 C   0  0  0  0  0  0  0  0  0  0  0  0
    3.4713   16.3888    3.7996 C   0  0  2  0  0  0  0  0  0  0  0  0
    1.9554   16.5219    3.6385 C   0  0  0  0  0  0  0  0  0  0  0  0
    1.2872   15.4772    4.4893 N   0  3  0  0  0  0  0  0  0  0  0  0
    1.5022   15.6665    5.4739 H   0  0  0  0  0  0  0  0  0  0  0  0
    0.2763   15.6175    4.3720 H   0  0  0  0  0  0  0  0  0  0  0  0
    1.6581   14.0921    4.1003 C   0  0  0  0  0  0  0  0  0  0  0  0
    4.2426   17.4528    3.0053 C   0  0  0  0  0  0  0  0  0  0  0  0
    5.7390   17.4363    3.2775 C   0  0  0  0  0  0  0  0  0  0  0  0
    6.5062   16.8640    2.4992 O   0  0  0  0  0  0  0  0  0  0  0  0
    6.2311   18.1822    4.3218 N   0  0  0  0  0  0  0  0  0  0  0  0
    7.1854   19.1595    4.1006 O   0  5  0  0  0  0  0  0  0  0  0  0
    5.5943   18.3540    5.0956 H   0  0  0  0  0  0  0  0  0  0  0  0
  1  2  1  0  0  0  0
  1  8  1  0  0  0  0
  2  3  1  0  0  0  0
  3  4  1  0  0  0  0
  3  9  1  6  0  0  0
  4  5  1  0  0  0  0
  5  6  1  0  0  0  0
  5  7  1  0  0  0  0
  5  8  1  0  0  0  0
  9 10  1  0  0  0  0
 10 11  2  0  0  0  0
 10 12  1  0  0  0  0
 12 13  1  0  0  0  0
 12 14  1  0  0  0  0
M  CHG  2   5   1  13  -1
M  END
>  <CHROM.0>
-57.41183036,-66.05632323,-61.86548515,-46.71898709,-54.65765234,-60.83513260
-65.01617844,-174.00061083,-167.37679627

>  <CHROM.1>
-61.26104535,98.59506781,-121.74788295,4.14402954,16.43441111,3.73917190
-2.54171981,0.23711933,0.18555981

>  <Name>
P107232038

>  <RI>
1.00763e+07

>  <Rbt.Current_Directory>
/home/fstefaniak/projects/zuza/docking/adenine/4XNR

>  <Rbt.Executable>
rbdock ($Id: //depot/dev/client3/rdock/2013.1/src/exe/rbdock.cxx#4 $)

>  <Rbt.Library>
libRbt.so (2013.1, Build901 2013/11/27)

>  <Rbt.Parameter_File>
/home/fstefaniak/progs/rDock//data/scripts/dock_solv.prm

>  <Rbt.Receptor>
4xnr.prm

>  <SCORE>
-52.5624

>  <SCORE.INTER>
-29.7412

>  <SCORE.INTER.CONST>
1

>  <SCORE.INTER.POLAR>
-4.91639

>  <SCORE.INTER.ROT>
3

>  <SCORE.INTER.SOLV>
25.9464

>  <SCORE.INTER.VDW>
-17.6883

>  <SCORE.INTER.norm>
-2.70375

>  <SCORE.INTRA>
-2.23846

>  <SCORE.INTRA.DIHEDRAL>
0.285113

>  <SCORE.INTRA.DIHEDRAL.0>
2.07924

>  <SCORE.INTRA.POLAR>
0

>  <SCORE.INTRA.POLAR.0>
0

>  <SCORE.INTRA.REPUL>
0

>  <SCORE.INTRA.REPUL.0>
0

>  <SCORE.INTRA.SOLV>
-3.87642

>  <SCORE.INTRA.SOLV.lig_0>
-54.5256

>  <SCORE.INTRA.VDW>
-0.442812

>  <SCORE.INTRA.VDW.0>
-0.252638

>  <SCORE.INTRA.norm>
-0.203497

>  <SCORE.RESTR>
0

>  <SCORE.RESTR.CAVITY>
0

>  <SCORE.RESTR.norm>
0

>  <SCORE.SYSTEM>
-20.5827

>  <SCORE.SYSTEM.CONST>
0

>  <SCORE.SYSTEM.DIHEDRAL>
4.27884

>  <SCORE.SYSTEM.POLAR>
-3.01174

>  <SCORE.SYSTEM.SOLV>
0.168964

>  <SCORE.SYSTEM.VDW>
-5.16528

>  <SCORE.SYSTEM.norm>
-1.87115

>  <SCORE.heavy>
11

>  <SCORE.norm>
-4.7784

$$$$
P107232038
 OpenBabel12072022113D
libRbt.so/2013.1/901 2013/11/27
 14 14  0  0  0  0  0  0  0  0999 V2000
    3.0330   13.6851    4.3788 C   0  0  0  0  0  0  0  0  0  0  0  0
    3.8790   14.7183    3.6362 C   0  0  0  0  0  0  0  0  0  0  0  0
    3.4356   16.1531    3.9720 C   0  0  2  0  0  0  0  0  0  0  0  0
    1.9367   16.3276    3.7180 C   0  0  0  0  0  0  0  0  0  0  0  0
    1.1897   15.2951    4.5165 N   0  3  0  0  0  0  0  0  0  0  0  0
    1.3476   15.4717    5.5142 H   0  0  0  0  0  0  0  0  0  0  0  0
    0.1921   15.4630    4.3377 H   0  0  0  0  0  0  0  0  0  0  0  0
    1.5479   13.9034    4.1394 C   0  0  0  0  0  0  0  0  0  0  0  0
    4.2825   17.2018    3.2365 C   0  0  0  0  0  0  0  0  0  0  0  0
    5.4847   17.6726    4.0406 C   0  0  0  0  0  0  0  0  0  0  0  0
    5.5102   17.5247    5.2650 O   0  0  0  0  0  0  0  0  0  0  0  0
    6.5915   18.1347    3.3693 N   0  0  0  0  0  0  0  0  0  0  0  0
    7.2668   19.2575    3.8142 O   0  5  0  0  0  0  0  0  0  0  0  0
    7.1595   17.4360    2.8971 H   0  0  0  0  0  0  0  0  0  0  0  0
  1  2  1  0  0  0  0
  1  8  1  0  0  0  0
  2  3  1  0  0  0  0
  3  4  1  0  0  0  0
  3  9  1  6  0  0  0
  4  5  1  0  0  0  0
  5  6  1  0  0  0  0
  5  7  1  0  0  0  0
  5  8  1  0  0  0  0
  9 10  1  0  0  0  0
 10 11  2  0  0  0  0
 10 12  1  0  0  0  0
 12 13  1  0  0  0  0
 12 14  1  0  0  0  0
M  CHG  2   5   1  13  -1
M  END
>  <CHROM.0>
-59.12284941,-173.37754038,-73.52256194,-47.50119584,-62.22130853,-61.14182590
-174.17616642,-179.53234203,-167.96224910

>  <CHROM.1>
-91.95930762,-20.29913114,138.12050818,4.03722051,16.38300263,4.02556876
-2.44344695,0.02444149,-0.04546810

>  <Name>
P107232038

>  <RI>
1.00763e+07

>  <Rbt.Current_Directory>
/home/fstefaniak/projects/zuza/docking/adenine/4XNR

>  <Rbt.Executable>
rbdock ($Id: //depot/dev/client3/rdock/2013.1/src/exe/rbdock.cxx#4 $)

>  <Rbt.Library>
libRbt.so (2013.1, Build901 2013/11/27)

>  <Rbt.Parameter_File>
/home/fstefaniak/progs/rDock//data/scripts/dock_solv.prm

>  <Rbt.Receptor>
4xnr.prm

>  <SCORE>
-52.2549

>  <SCORE.INTER>
-31.1852

>  <SCORE.INTER.CONST>
1

>  <SCORE.INTER.POLAR>
-5.12439

>  <SCORE.INTER.ROT>
3

>  <SCORE.INTER.SOLV>
27.5326

>  <SCORE.INTER.VDW>
-18.4864

>  <SCORE.INTER.norm>
-2.83502

>  <SCORE.INTRA>
-1.00471

>  <SCORE.INTRA.DIHEDRAL>
2.89017

>  <SCORE.INTRA.DIHEDRAL.0>
2.07924

>  <SCORE.INTRA.POLAR>
0

>  <SCORE.INTRA.POLAR.0>
0

>  <SCORE.INTRA.REPUL>
0

>  <SCORE.INTRA.REPUL.0>
0

>  <SCORE.INTRA.SOLV>
-4.15374

>  <SCORE.INTRA.SOLV.lig_0>
-54.5256

>  <SCORE.INTRA.VDW>
-0.372921

>  <SCORE.INTRA.VDW.0>
-0.252638

>  <SCORE.INTRA.norm>
-0.0913368

>  <SCORE.RESTR>
0

>  <SCORE.RESTR.CAVITY>
0

>  <SCORE.RESTR.norm>
0

>  <SCORE.SYSTEM>
-20.065

>  <SCORE.SYSTEM.CONST>
0

>  <SCORE.SYSTEM.DIHEDRAL>
4.69555

>  <SCORE.SYSTEM.POLAR>
-2.94937

>  <SCORE.SYSTEM.SOLV>
0.0633868

>  <SCORE.SYSTEM.VDW>
-5.13174

>  <SCORE.SYSTEM.norm>
-1.82409

>  <SCORE.heavy>
11

>  <SCORE.norm>
-4.75045

$$$$
P107232038
 OpenBabel12072022113D
libRbt.so/2013.1/901 2013/11/27
 14 14  0  0  0  0  0  0  0  0999 V2000
    3.2504   13.9482    4.3872 C   0  0  0  0  0  0  0  0  0  0  0  0
    3.9875   15.0034    3.5638 C   0  0  0  0  0  0  0  0  0  0  0  0
    3.4280   16.4126    3.8269 C   0  0  2  0  0  0  0  0  0  0  0  0
    1.9147   16.4424    3.6021 C   0  0  0  0  0  0  0  0  0  0  0  0
    1.2771   15.3997    4.4787 N   0  3  0  0  0  0  0  0  0  0  0  0
    1.4399   15.6491    5.4599 H   0  0  0  0  0  0  0  0  0  0  0  0
    0.2653   15.4704    4.3164 H   0  0  0  0  0  0  0  0  0  0  0  0
    1.7472   14.0236    4.1742 C   0  0  0  0  0  0  0  0  0  0  0  0
    4.1649   17.4837    3.0097 C   0  0  0  0  0  0  0  0  0  0  0  0
    5.6676   17.4884    3.2446 C   0  0  0  0  0  0  0  0  0  0  0  0
    6.4251   16.9477    2.4349 O   0  0  0  0  0  0  0  0  0  0  0  0
    6.1724   18.2198    4.2931 N   0  0  0  0  0  0  0  0  0  0  0  0
    7.1779   19.1474    4.0850 O   0  5  0  0  0  0  0  0  0  0  0  0
    5.5278   18.4298    5.0509 H   0  0  0  0  0  0  0  0  0  0  0  0
  1  2  1  0  0  0  0
  1  8  1  0  0  0  0
  2  3  1  0  0  0  0
  3  4  1  0  0  0  0
  3  9  1  6  0  0  0
  4  5  1  0  0  0  0
  5  6  1  0  0  0  0
  5  7  1  0  0  0  0
  5  8  1  0  0  0  0
  9 10  1  0  0  0  0
 10 11  2  0  0  0  0
 10 12  1  0  0  0  0
 12 13  1  0  0  0  0
 12 14  1  0  0  0  0
M  CHG  2   5   1  13  -1
M  END
>  <CHROM.0>
-60.16765704,-64.13045332,-66.71386035,-48.14470169,-57.26381786,-63.09383892
-72.75810233,57.73181452,-167.64946935

>  <CHROM.1>
-55.97292573,100.12820012,-126.76274126,4.12950664,16.43961914,3.75307755
-2.51250071,0.20402424,0.10462531

>  <Name>
P107232038

>  <RI>
1.00763e+07

>  <Rbt.Current_Directory>
/home/fstefaniak/projects/zuza/docking/adenine/4XNR

>  <Rbt.Executable>
rbdock ($Id: //depot/dev/client3/rdock/2013.1/src/exe/rbdock.cxx#4 $)

>  <Rbt.Library>
libRbt.so (2013.1, Build901 2013/11/27)

>  <Rbt.Parameter_File>
/home/fstefaniak/progs/rDock//data/scripts/dock_solv.prm

>  <Rbt.Receptor>
4xnr.prm

>  <SCORE>
-51.7118

>  <SCORE.INTER>
-29.6994

>  <SCORE.INTER.CONST>
1

>  <SCORE.INTER.POLAR>
-4.90388

>  <SCORE.INTER.ROT>
3

>  <SCORE.INTER.SOLV>
25.8477

>  <SCORE.INTER.VDW>
-17.6692

>  <SCORE.INTER.norm>
-2.69995

>  <SCORE.INTRA>
-2.10754

>  <SCORE.INTRA.DIHEDRAL>
0.269058

>  <SCORE.INTRA.DIHEDRAL.0>
2.07924

>  <SCORE.INTRA.POLAR>
0

>  <SCORE.INTRA.POLAR.0>
0

>  <SCORE.INTRA.REPUL>
0

>  <SCORE.INTRA.REPUL.0>
0

>  <SCORE.INTRA.SOLV>
-3.85606

>  <SCORE.INTRA.SOLV.lig_0>
-54.5256

>  <SCORE.INTRA.VDW>
-0.314036

>  <SCORE.INTRA.VDW.0>
-0.252638

>  <SCORE.INTRA.norm>
-0.191594

>  <SCORE.RESTR>
0

>  <SCORE.RESTR.CAVITY>
0

>  <SCORE.RESTR.norm>
0

>  <SCORE.SYSTEM>
-19.9049

>  <SCORE.SYSTEM.CONST>
0

>  <SCORE.SYSTEM.DIHEDRAL>
4.56477

>  <SCORE.SYSTEM.POLAR>
-2.95899

>  <SCORE.SYSTEM.SOLV>
0.090036

>  <SCORE.SYSTEM.VDW>
-4.95822

>  <SCORE.SYSTEM.norm>
-1.80953

>  <SCORE.heavy>
11

>  <SCORE.norm>
-4.70108

$$$$
P107375654
 OpenBabel12072022113D
libRbt.so/2013.1/901 2013/11/27
 15 15  0  0  0  0  0  0  0  0999 V2000
    0.1671   11.9397    3.5397 C   0  0  0  0  0  0  0  0  0  0  0  0
    1.1509   12.9315    4.1617 C   0  0  2  0  0  0  0  0  0  0  0  0
    0.8493   14.3671    3.7054 C   0  0  0  0  0  0  0  0  0  0  0  0
    1.8327   15.3902    4.2891 C   0  0  0  0  0  0  0  0  0  0  0  0
    3.2526   15.0436    4.2513 N   0  0  0  0  0  0  0  0  0  0  0  0
    3.5510   13.6367    4.5406 C   0  0  0  0  0  0  0  0  0  0  0  0
    2.6218   12.5679    3.8969 C   0  0  2  0  0  0  0  0  0  0  0  0
    2.8712   12.4144    2.4460 N   0  3  0  0  0  0  0  0  0  0  0  0
    3.8913   12.4671    2.2095 H   0  0  0  0  0  0  0  0  0  0  0  0
    2.7096   11.4217    2.1296 H   0  0  0  0  0  0  0  0  0  0  0  0
    2.3689   13.0245    1.8062 H   0  0  0  0  0  0  0  0  0  0  0  0
    4.0300   15.6475    3.1289 C   0  0  0  0  0  0  0  0  0  0  0  0
    5.3324   16.2873    3.6237 C   0  0  0  0  0  0  0  0  0  0  0  0
    6.2143   16.4957    2.7255 O   0  0  0  0  0  0  0  0  0  0  0  0
    5.2841   16.9313    4.7143 O   0  5  0  0  0  0  0  0  0  0  0  0
  2  3  1  0  0  0  0
  2  1  1  6  0  0  0
  2  7  1  0  0  0  0
  3  4  1  0  0  0  0
  4  5  1  0  0  0  0
  5  6  1  0  0  0  0
  5 12  1  0  0  0  0
  6  7  1  0  0  0  0
  7  8  1  6  0  0  0
  8  9  1  0  0  0  0
  8 10  1  0  0  0  0
  8 11  1  0  0  0  0
 12 13  1  0  0  0  0
 13 14  2  0  0  0  0
 13 15  1  0  0  0  0
M  CHG  2   8   1  15  -1
M  END
>  <CHROM.0>
-59.97616245,178.20828196,-58.09161398,-47.69655634,-59.00627181,-63.20782357
-65.51672919,-55.54177057,-169.07547050

>  <CHROM.1>
131.78762613,162.01365246,161.66333474,3.12621580,14.46864243,3.71839082
-2.48933637,0.35989772,0.44035891

>  <Name>
P107375654

>  <RI>
1.34432e+07

>  <Rbt.Current_Directory>
/home/fstefaniak/projects/zuza/docking/adenine/4XNR

>  <Rbt.Executable>
rbdock ($Id: //depot/dev/client3/rdock/2013.1/src/exe/rbdock.cxx#4 $)

>  <Rbt.Library>
libRbt.so (2013.1, Build901 2013/11/27)

>  <Rbt.Parameter_File>
/home/fstefaniak/progs/rDock//data/scripts/dock_solv.prm

>  <Rbt.Receptor>
4xnr.prm

>  <SCORE>
-49.8082

>  <SCORE.INTER>
-20.9337

>  <SCORE.INTER.CONST>
1

>  <SCORE.INTER.POLAR>
-3.25475

>  <SCORE.INTER.ROT>
2

>  <SCORE.INTER.SOLV>
19.3893

>  <SCORE.INTER.VDW>
-14.503

>  <SCORE.INTER.norm>
-1.74447

>  <SCORE.INTRA>
-8.7359

>  <SCORE.INTRA.DIHEDRAL>
1.44101

>  <SCORE.INTRA.DIHEDRAL.0>
2.41111

>  <SCORE.INTRA.POLAR>
0

>  <SCORE.INTRA.POLAR.0>
0

>  <SCORE.INTRA.REPUL>
0

>  <SCORE.INTRA.REPUL.0>
0

>  <SCORE.INTRA.SOLV>
-12.8702

>  <SCORE.INTRA.SOLV.lig_0>
-37.2252

>  <SCORE.INTRA.VDW>
-3.02132

>  <SCORE.INTRA.VDW.0>
1.86258

>  <SCORE.INTRA.norm>
-0.727991

>  <SCORE.RESTR>
0.203925

>  <SCORE.RESTR.CAVITY>
0.203925

>  <SCORE.RESTR.norm>
0.0169938

>  <SCORE.SYSTEM>
-20.3425

>  <SCORE.SYSTEM.CONST>
0

>  <SCORE.SYSTEM.DIHEDRAL>
3.67952

>  <SCORE.SYSTEM.POLAR>
-2.96043

>  <SCORE.SYSTEM.SOLV>
0.286246

>  <SCORE.SYSTEM.VDW>
-5.01549

>  <SCORE.SYSTEM.norm>
-1.69521

>  <SCORE.heavy>
12

>  <SCORE.norm>
-4.15068

$$$$
P107375654
 OpenBabel12072022113D
libRbt.so/2013.1/901 2013/11/27
 15 15  0  0  0  0  0  0  0  0999 V2000
    0.0445   12.0320    3.4210 C   0  0  0  0  0  0  0  0  0  0  0  0
    1.0770   12.9227    4.1133 C   0  0  2  0  0  0  0  0  0  0  0  0
    0.9137   14.3897    3.6875 C   0  0  0  0  0  0  0  0  0  0  0  0
    1.9500   15.3125    4.3424 C   0  0  0  0  0  0  0  0  0  0  0  0
    3.3373   14.8511    4.3543 N   0  0  0  0  0  0  0  0  0  0  0  0
    3.5071   13.4173    4.6140 C   0  0  0  0  0  0  0  0  0  0  0  0
    2.5238   12.4460    3.9002 C   0  0  2  0  0  0  0  0  0  0  0  0
    2.8243   12.3105    2.4572 N   0  3  0  0  0  0  0  0  0  0  0  0
    3.8502   12.3872    2.2551 H   0  0  0  0  0  0  0  0  0  0  0  0
    2.6951   11.3173    2.1278 H   0  0  0  0  0  0  0  0  0  0  0  0
    2.3302   12.9151    1.8059 H   0  0  0  0  0  0  0  0  0  0  0  0
    4.2105   15.4180    3.2843 C   0  0  0  0  0  0  0  0  0  0  0  0
    4.2278   16.9504    3.3219 C   0  0  0  0  0  0  0  0  0  0  0  0
    3.6717   17.5276    2.3291 O   0  0  0  0  0  0  0  0  0  0  0  0
    4.3747   17.5010    4.4540 O   0  5  0  0  0  0  0  0  0  0  0  0
  2  3  1  0  0  0  0
  2  1  1  6  0  0  0
  2  7  1  0  0  0  0
  3  4  1  0  0  0  0
  4  5  1  0  0  0  0
  5  6  1  0  0  0  0
  5 12  1  0  0  0  0
  6  7  1  0  0  0  0
  7  8  1  6  0  0  0
  8  9  1  0  0  0  0
  8 10  1  0  0  0  0
  8 11  1  0  0  0  0
 12 13  1  0  0  0  0
 13 14  2  0  0  0  0
 13 15  1  0  0  0  0
M  CHG  2   8   1  15  -1
M  END
>  <CHROM.0>
-55.27827733,170.44969052,-67.32945229,-47.38010206,-57.81782781,59.61916187
-68.49937548,-62.05618472,-168.08012625

>  <CHROM.1>
56.54418118,155.93190896,-112.14424150,2.73325155,14.59497572,3.65363735
2.11001335,-0.09732131,-3.09455792

>  <Name>
P107375654

>  <RI>
1.34432e+07

>  <Rbt.Current_Directory>
/home/fstefaniak/projects/zuza/docking/adenine/4XNR

>  <Rbt.Executable>
rbdock ($Id: //depot/dev/client3/rdock/2013.1/src/exe/rbdock.cxx#4 $)

>  <Rbt.Library>
libRbt.so (2013.1, Build901 2013/11/27)

>  <Rbt.Parameter_File>
/home/fstefaniak/progs/rDock//data/scripts/dock_solv.prm

>  <Rbt.Receptor>
4xnr.prm

>  <SCORE>
-48.3305

>  <SCORE.INTER>
-21.1229

>  <SCORE.INTER.CONST>
1

>  <SCORE.INTER.POLAR>
-3.27831

>  <SCORE.INTER.ROT>
2

>  <SCORE.INTER.SOLV>
17.2796

>  <SCORE.INTER.VDW>
-13.8474

>  <SCORE.INTER.norm>
-1.76024

>  <SCORE.INTRA>
-8.19373

>  <SCORE.INTRA.DIHEDRAL>
0.99889

>  <SCORE.INTRA.DIHEDRAL.0>
2.41111

>  <SCORE.INTRA.POLAR>
0

>  <SCORE.INTRA.POLAR.0>
0

>  <SCORE.INTRA.REPUL>
0

>  <SCORE.INTRA.REPUL.0>
0

>  <SCORE.INTRA.SOLV>
-12.0005

>  <SCORE.INTRA.SOLV.lig_0>
-37.2252

>  <SCORE.INTRA.VDW>
-2.69293

>  <SCORE.INTRA.VDW.0>
1.86258

>  <SCORE.INTRA.norm>
-0.682811

>  <SCORE.RESTR>
0.231265

>  <SCORE.RESTR.CAVITY>
0.231265

>  <SCORE.RESTR.norm>
0.0192721

>  <SCORE.SYSTEM>
-19.2451

>  <SCORE.SYSTEM.CONST>
0

>  <SCORE.SYSTEM.DIHEDRAL>
4.64169

>  <SCORE.SYSTEM.POLAR>
-3.0068

>  <SCORE.SYSTEM.SOLV>
0.149174

>  <SCORE.SYSTEM.VDW>
-4.40434

>  <SCORE.SYSTEM.norm>
-1.60376

>  <SCORE.heavy>
12

>  <SCORE.norm>
-4.02754

$$$$
P107375654
 OpenBabel12072022113D
libRbt.so/2013.1/901 2013/11/27
 15 15  0  0  0  0  0  0  0  0999 V2000
    0.0999   12.1205    3.4931 C   0  0  0  0  0  0  0  0  0  0  0  0
    1.1049   13.0461    4.1801 C   0  0  2  0  0  0  0  0  0  0  0  0
    0.9644   14.4884    3.6702 C   0  0  0  0  0  0  0  0  0  0  0  0
    1.9748   15.4440    4.3184 C   0  0  0  0  0  0  0  0  0  0  0  0
    3.3589   14.9827    4.4139 N   0  0  0  0  0  0  0  0  0  0  0  0
    3.5131   13.5647    4.7567 C   0  0  0  0  0  0  0  0  0  0  0  0
    2.5579   12.5575    4.0545 C   0  0  2  0  0  0  0  0  0  0  0  0
    2.9190   12.3448    2.6349 N   0  3  0  0  0  0  0  0  0  0  0  0
    2.7707   13.2044    2.0532 H   0  0  0  0  0  0  0  0  0  0  0  0
    3.9634   12.2742    2.5089 H   0  0  0  0  0  0  0  0  0  0  0  0
    2.4985   11.5587    2.1460 H   0  0  0  0  0  0  0  0  0  0  0  0
    4.2785   15.4909    3.3534 C   0  0  0  0  0  0  0  0  0  0  0  0
    4.3310   17.0229    3.3375 C   0  0  0  0  0  0  0  0  0  0  0  0
    3.8262   17.5762    2.3045 O   0  0  0  0  0  0  0  0  0  0  0  0
    4.4487   17.6106    4.4542 O   0  5  0  0  0  0  0  0  0  0  0  0
  2  3  1  0  0  0  0
  2  1  1  6  0  0  0
  2  7  1  0  0  0  0
  3  4  1  0  0  0  0
  4  5  1  0  0  0  0
  5  6  1  0  0  0  0
  5 12  1  0  0  0  0
  6  7  1  0  0  0  0
  7  8  1  6  0  0  0
  8  9  1  0  0  0  0
  8 10  1  0  0  0  0
  8 11  1  0  0  0  0
 12 13  1  0  0  0  0
 13 14  2  0  0  0  0
 13 15  1  0  0  0  0
M  CHG  2   8   1  15  -1
M  END
>  <CHROM.0>
-57.89977211,169.29843037,-67.28509796,-46.64512828,-59.78996231,-176.12624571
-67.05068819,-175.80113803,-167.39367774

>  <CHROM.1>
58.24523106,56.02435044,-112.47833089,2.79490888,14.69284308,3.71169386,2.11849824
-0.05395999,3.14097793

>  <Name>
P107375654

>  <RI>
1.34432e+07

>  <Rbt.Current_Directory>
/home/fstefaniak/projects/zuza/docking/adenine/4XNR

>  <Rbt.Executable>
rbdock ($Id: //depot/dev/client3/rdock/2013.1/src/exe/rbdock.cxx#4 $)

>  <Rbt.Library>
libRbt.so (2013.1, Build901 2013/11/27)

>  <Rbt.Parameter_File>
/home/fstefaniak/progs/rDock//data/scripts/dock_solv.prm

>  <Rbt.Receptor>
4xnr.prm

>  <SCORE>
-48.2559

>  <SCORE.INTER>
-19.5991

>  <SCORE.INTER.CONST>
1

>  <SCORE.INTER.POLAR>
-2.94211

>  <SCORE.INTER.ROT>
2

>  <SCORE.INTER.SOLV>
17.5601

>  <SCORE.INTER.VDW>
-14.0458

>  <SCORE.INTER.norm>
-1.63326

>  <SCORE.INTRA>
-8.81034

>  <SCORE.INTRA.DIHEDRAL>
-0.475471

>  <SCORE.INTRA.DIHEDRAL.0>
2.41111

>  <SCORE.INTRA.POLAR>
0

>  <SCORE.INTRA.POLAR.0>
0

>  <SCORE.INTRA.REPUL>
0

>  <SCORE.INTRA.REPUL.0>
0

>  <SCORE.INTRA.SOLV>
-11.6377

>  <SCORE.INTRA.SOLV.lig_0>
-37.2252

>  <SCORE.INTRA.VDW>
-2.75375

>  <SCORE.INTRA.VDW.0>
1.86258

>  <SCORE.INTRA.norm>
-0.734195

>  <SCORE.RESTR>
0.103572

>  <SCORE.RESTR.CAVITY>
0.103572

>  <SCORE.RESTR.norm>
0.00863098

>  <SCORE.SYSTEM>
-19.95

>  <SCORE.SYSTEM.CONST>
0

>  <SCORE.SYSTEM.DIHEDRAL>
4.8267

>  <SCORE.SYSTEM.POLAR>
-2.99292

>  <SCORE.SYSTEM.SOLV>
0.0322998

>  <SCORE.SYSTEM.VDW>
-4.94325

>  <SCORE.SYSTEM.norm>
-1.6625

>  <SCORE.heavy>
12

>  <SCORE.norm>
-4.02132

$$$$
P107405414
 OpenBabel12072022113D
libRbt.so/2013.1/901 2013/11/27
 15 15  0  0  0  0  0  0  0  0999 V2000
    0.8766   11.9514    4.2313 C   0  0  0  0  0  0  0  0  0  0  0  0
    1.5457   13.1983    3.6428 C   0  0  1  0  0  0  0  0  0  0  0  0
    0.9191   14.4586    4.2644 C   0  0  0  0  0  0  0  0  0  0  0  0
    1.5346   15.7401    3.7225 C   0  0  0  0  0  0  0  0  0  0  0  0
    3.0020   15.7022    3.9000 N   0  3  1  0  0  0  0  0  0  0  0  0
    3.2624   15.6801    4.9157 H   0  0  0  0  0  0  0  0  0  0  0  0
    3.6910   14.5137    3.3037 C   0  0  0  0  0  0  0  0  0  0  0  0
    3.0789   13.2039    3.8554 C   0  0  2  0  0  0  0  0  0  0  0  0
    3.6864   12.0139    3.2505 N   0  0  0  0  0  0  0  0  0  0  0  0
    3.7242   17.0186    3.5224 C   0  0  0  0  0  0  0  0  0  0  0  0
    5.2552   16.8843    3.7363 C   0  0  0  0  0  0  0  0  0  0  0  0
    5.9380   16.5815    2.7338 O   0  0  0  0  0  0  0  0  0  0  0  0
    5.5475   17.0547    4.9633 O   0  5  0  0  0  0  0  0  0  0  0  0
    4.1506   12.2568    2.3731 H   0  0  0  0  0  0  0  0  0  0  0  0
    2.9876   11.3066    3.0260 H   0  0  0  0  0  0  0  0  0  0  0  0
  2  3  1  0  0  0  0
  2  8  1  0  0  0  0
  2  1  1  1  0  0  0
  3  4  1  0  0  0  0
  4  5  1  0  0  0  0
  5  6  1  1  0  0  0
  5  7  1  0  0  0  0
  5 10  1  0  0  0  0
  7  8  1  0  0  0  0
  8  9  1  6  0  0  0
  9 14  1  0  0  0  0
  9 15  1  0  0  0  0
 10 11  1  0  0  0  0
 11 12  2  0  0  0  0
 11 13  1  0  0  0  0
M  CHG  2   5   1  13  -1
M  END
>  <CHROM.0>
-56.32772866,-174.15639170,-60.60843153,-46.30864080,-174.49382473,-175.29177416
-66.83706828,-174.20154847,-168.10643985

>  <CHROM.1>
-179.84379960,103.86366336,95.89154306,3.26815827,14.85265782,3.76010951
2.29954253,-0.18784492,-3.00074254

>  <Name>
P107405414

>  <RI>
1.34432e+07

>  <Rbt.Current_Directory>
/home/fstefaniak/projects/zuza/docking/adenine/4XNR

>  <Rbt.Executable>
rbdock ($Id: //depot/dev/client3/rdock/2013.1/src/exe/rbdock.cxx#4 $)

>  <Rbt.Library>
libRbt.so (2013.1, Build901 2013/11/27)

>  <Rbt.Parameter_File>
/home/fstefaniak/progs/rDock//data/scripts/dock_solv.prm

>  <Rbt.Receptor>
4xnr.prm

>  <SCORE>
-46.8729

>  <SCORE.INTER>
-27.5098

>  <SCORE.INTER.CONST>
1

>  <SCORE.INTER.POLAR>
-5.12302

>  <SCORE.INTER.ROT>
3

>  <SCORE.INTER.SOLV>
19.1673

>  <SCORE.INTER.VDW>
-13.2523

>  <SCORE.INTER.norm>
-2.29249

>  <SCORE.INTRA>
0.983104

>  <SCORE.INTRA.DIHEDRAL>
0.288188

>  <SCORE.INTRA.DIHEDRAL.0>
3.14483

>  <SCORE.INTRA.POLAR>
0

>  <SCORE.INTRA.POLAR.0>
0

>  <SCORE.INTRA.REPUL>
0

>  <SCORE.INTRA.REPUL.0>
0

>  <SCORE.INTRA.SOLV>
-1.1761

>  <SCORE.INTRA.SOLV.lig_0>
-43.7048

>  <SCORE.INTRA.VDW>
1.42706

>  <SCORE.INTRA.VDW.0>
-0.200963

>  <SCORE.INTRA.norm>
0.0819254

>  <SCORE.RESTR>
0.0029454

>  <SCORE.RESTR.CAVITY>
0.0029454

>  <SCORE.RESTR.norm>
0.00024545

>  <SCORE.SYSTEM>
-20.3491

>  <SCORE.SYSTEM.CONST>
0

>  <SCORE.SYSTEM.DIHEDRAL>
4.44894

>  <SCORE.SYSTEM.POLAR>
-3.01626

>  <SCORE.SYSTEM.SOLV>
-0.146137

>  <SCORE.SYSTEM.VDW>
-4.94614

>  <SCORE.SYSTEM.norm>
-1.69576

>  <SCORE.heavy>
12

>  <SCORE.norm>
-3.90608

$$$$
P107405414
 OpenBabel12072022113D
libRbt.so/2013.1/901 2013/11/27
 15 15  0  0  0  0  0  0  0  0999 V2000
    5.6290   16.6493    3.3317 C   0  0  0  0  0  0  0  0  0  0  0  0
    4.3141   15.8667    3.2464 C   0  0  1  0  0  0  0  0  0  0  0  0
    4.3744   14.6571    4.1954 C   0  0  0  0  0  0  0  0  0  0  0  0
    3.0987   13.8285    4.1608 C   0  0  0  0  0  0  0  0  0  0  0  0
    1.9335   14.6956    4.4369 N   0  3  1  0  0  0  0  0  0  0  0  0
    1.9764   15.0942    5.4061 H   0  0  0  0  0  0  0  0  0  0  0  0
    1.7921   15.8871    3.5407 C   0  0  0  0  0  0  0  0  0  0  0  0
    3.0811   16.7427    3.5754 C   0  0  2  0  0  0  0  0  0  0  0  0
    3.0065   17.8891    2.6638 N   0  0  0  0  0  0  0  0  0  0  0  0
    0.5920   13.9355    4.5772 C   0  0  0  0  0  0  0  0  0  0  0  0
    0.3415   13.0334    3.3398 C   0  0  0  0  0  0  0  0  0  0  0  0
    0.6577   13.5064    2.2266 O   0  0  0  0  0  0  0  0  0  0  0  0
   -0.2231   11.9478    3.6902 O   0  5  0  0  0  0  0  0  0  0  0  0
    3.9150   18.0580    2.2273 H   0  0  0  0  0  0  0  0  0  0  0  0
    2.7541   18.7458    3.1552 H   0  0  0  0  0  0  0  0  0  0  0  0
  2  3  1  0  0  0  0
  2  8  1  0  0  0  0
  2  1  1  1  0  0  0
  3  4  1  0  0  0  0
  4  5  1  0  0  0  0
  5  6  1  1  0  0  0
  5  7  1  0  0  0  0
  5 10  1  0  0  0  0
  7  8  1  0  0  0  0
  8  9  1  6  0  0  0
  9 14  1  0  0  0  0
  9 15  1  0  0  0  0
 10 11  1  0  0  0  0
 11 12  2  0  0  0  0
 11 13  1  0  0  0  0
M  CHG  2   5   1  13  -1
M  END
>  <CHROM.0>
-56.46255846,-65.40674685,-70.89296421,-47.69917748,-176.22896704,-60.80934941
-171.07880733,59.02674285,-168.81767008

>  <CHROM.1>
-53.41826427,-19.32658334,-39.58249074,2.36976412,14.89458102,3.57139833
-0.73635094,0.23160183,2.82974455

>  <Name>
P107405414

>  <RI>
1.34432e+07

>  <Rbt.Current_Directory>
/home/fstefaniak/projects/zuza/docking/adenine/4XNR

>  <Rbt.Executable>
rbdock ($Id: //depot/dev/client3/rdock/2013.1/src/exe/rbdock.cxx#4 $)

>  <Rbt.Library>
libRbt.so (2013.1, Build901 2013/11/27)

>  <Rbt.Parameter_File>
/home/fstefaniak/progs/rDock//data/scripts/dock_solv.prm

>  <Rbt.Receptor>
4xnr.prm

>  <SCORE>
-44.4968

>  <SCORE.INTER>
-24.8489

>  <SCORE.INTER.CONST>
1

>  <SCORE.INTER.POLAR>
-4.61552

>  <SCORE.INTER.ROT>
3

>  <SCORE.INTER.SOLV>
18.5849

>  <SCORE.INTER.VDW>
-12.9758

>  <SCORE.INTER.norm>
-2.07074

>  <SCORE.INTRA>
-0.376788

>  <SCORE.INTRA.DIHEDRAL>
0.380256

>  <SCORE.INTRA.DIHEDRAL.0>
3.14483

>  <SCORE.INTRA.POLAR>
0

>  <SCORE.INTRA.POLAR.0>
0

>  <SCORE.INTRA.REPUL>
0

>  <SCORE.INTRA.REPUL.0>
0

>  <SCORE.INTRA.SOLV>
-3.01614

>  <SCORE.INTRA.SOLV.lig_0>
-43.7048

>  <SCORE.INTRA.VDW>
0.941154

>  <SCORE.INTRA.VDW.0>
-0.200963

>  <SCORE.INTRA.norm>
-0.031399

>  <SCORE.RESTR>
0

>  <SCORE.RESTR.CAVITY>
0

>  <SCORE.RESTR.norm>
0

>  <SCORE.SYSTEM>
-19.2711

>  <SCORE.SYSTEM.CONST>
0

>  <SCORE.SYSTEM.DIHEDRAL>
4.54601

>  <SCORE.SYSTEM.POLAR>
-2.96357

>  <SCORE.SYSTEM.SOLV>
-0.111179

>  <SCORE.SYSTEM.VDW>
-4.44713

>  <SCORE.SYSTEM.norm>
-1.60593

>  <SCORE.heavy>
12

>  <SCORE.norm>
-3.70807

$$$$
P107405414
 OpenBabel12072022113D
libRbt.so/2013.1/901 2013/11/27
 15 15  0  0  0  0  0  0  0  0999 V2000
    5.4012   17.0003    3.1639 C   0  0  0  0  0  0  0  0  0  0  0  0
    4.1710   16.0870    3.1307 C   0  0  1  0  0  0  0  0  0  0  0  0
    4.3939   14.8914    4.0732 C   0  0  0  0  0  0  0  0  0  0  0  0
    3.2095   13.9365    4.0890 C   0  0  0  0  0  0  0  0  0  0  0  0
    1.9739   14.6801    4.4152 N   0  3  1  0  0  0  0  0  0  0  0  0
    2.0158   15.0824    5.3829 H   0  0  0  0  0  0  0  0  0  0  0  0
    1.6744   15.8494    3.5288 C   0  0  0  0  0  0  0  0  0  0  0  0
    2.8694   16.8325    3.5126 C   0  0  2  0  0  0  0  0  0  0  0  0
    2.6402   17.9639    2.6078 N   0  0  0  0  0  0  0  0  0  0  0  0
    0.7243   13.7868    4.6086 C   0  0  0  0  0  0  0  0  0  0  0  0
    0.4941   12.8898    3.3635 C   0  0  0  0  0  0  0  0  0  0  0  0
    0.9807   13.2914    2.2842 O   0  0  0  0  0  0  0  0  0  0  0  0
   -0.2341   11.8907    3.6660 O   0  5  0  0  0  0  0  0  0  0  0  0
    2.8466   18.8463    3.0802 H   0  0  0  0  0  0  0  0  0  0  0  0
    1.6681   18.0140    2.3056 H   0  0  0  0  0  0  0  0  0  0  0  0
  2  3  1  0  0  0  0
  2  8  1  0  0  0  0
  2  1  1  1  0  0  0
  3  4  1  0  0  0  0
  4  5  1  0  0  0  0
  5  6  1  1  0  0  0
  5  7  1  0  0  0  0
  5 10  1  0  0  0  0
  7  8  1  0  0  0  0
  8  9  1  6  0  0  0
  9 14  1  0  0  0  0
  9 15  1  0  0  0  0
 10 11  1  0  0  0  0
 11 12  2  0  0  0  0
 11 13  1  0  0  0  0
M  CHG  2   5   1  13  -1
M  END
>  <CHROM.0>
-58.66433342,-64.66310343,-67.51627486,-46.40456978,-62.26933142,58.47671927
-66.92477838,-58.74798207,-167.39682338

>  <CHROM.1>
-54.98149215,-105.71093541,-23.59957819,2.33560930,14.93111514,3.52737741
-0.83290306,0.19821006,2.87685586

>  <Name>
P107405414

>  <RI>
1.34432e+07

>  <Rbt.Current_Directory>
/home/fstefaniak/projects/zuza/docking/adenine/4XNR

>  <Rbt.Executable>
rbdock ($Id: //depot/dev/client3/rdock/2013.1/src/exe/rbdock.cxx#4 $)

>  <Rbt.Library>
libRbt.so (2013.1, Build901 2013/11/27)

>  <Rbt.Parameter_File>
/home/fstefaniak/progs/rDock//data/scripts/dock_solv.prm

>  <Rbt.Receptor>
4xnr.prm

>  <SCORE>
-43.2043

>  <SCORE.INTER>
-22.7141

>  <SCORE.INTER.CONST>
1

>  <SCORE.INTER.POLAR>
-4.27087

>  <SCORE.INTER.ROT>
3

>  <SCORE.INTER.SOLV>
17.5278

>  <SCORE.INTER.VDW>
-12.3491

>  <SCORE.INTER.norm>
-1.89284

>  <SCORE.INTRA>
-0.696709

>  <SCORE.INTRA.DIHEDRAL>
0.477393

>  <SCORE.INTRA.DIHEDRAL.0>
3.14483

>  <SCORE.INTRA.POLAR>
0

>  <SCORE.INTRA.POLAR.0>
0

>  <SCORE.INTRA.REPUL>
0

>  <SCORE.INTRA.REPUL.0>
0

>  <SCORE.INTRA.SOLV>
-2.78101

>  <SCORE.INTRA.SOLV.lig_0>
-43.7048

>  <SCORE.INTRA.VDW>
0.455098

>  <SCORE.INTRA.VDW.0>
-0.200963

>  <SCORE.INTRA.norm>
-0.0580591

>  <SCORE.RESTR>
0

>  <SCORE.RESTR.CAVITY>
0

>  <SCORE.RESTR.norm>
0

>  <SCORE.SYSTEM>
-19.7935

>  <SCORE.SYSTEM.CONST>
0

>  <SCORE.SYSTEM.DIHEDRAL>
4.30978

>  <SCORE.SYSTEM.POLAR>
-2.99152

>  <SCORE.SYSTEM.SOLV>
0.153728

>  <SCORE.SYSTEM.VDW>
-4.71179

>  <SCORE.SYSTEM.norm>
-1.64946

>  <SCORE.heavy>
12

>  <SCORE.norm>
-3.60036

$$$$
P107707251
 OpenBabel12072022113D
libRbt.so/2013.1/901 2013/11/27
 13 13  0  0  0  0  0  0  0  0999 V2000
    7.2199   18.0755    1.0815 C   0  0  0  0  0  0  0  0  0  0  0  0
    6.2146   18.0448    2.2246 C   0  0  2  0  0  0  0  0  0  0  0  0
    6.7645   18.7544    3.4608 C   0  0  0  0  0  0  0  0  0  0  0  0
    5.7841   18.6159    4.6255 C   0  0  1  0  0  0  0  0  0  0  0  0
    5.4141   17.1486    4.8437 C   0  0  0  0  0  0  0  0  0  0  0  0
    4.9463   16.5242    3.5401 C   0  0  0  0  0  0  0  0  0  0  0  0
    5.9397   16.6752    2.5286 O   0  0  0  0  0  0  0  0  0  0  0  0
    6.4388   19.3173    6.1446 S   0  0  0  0  0  0  0  0  0  0  0  0
    6.3310   20.7565    6.0916 O   0  0  0  0  0  0  0  0  0  0  0  0
    5.9928   18.5537    7.2851 O   0  0  0  0  0  0  0  0  0  0  0  0
    8.0796   19.0022    6.0099 N   0  0  0  0  0  0  0  0  0  0  0  0
    8.6025   19.6181    6.6361 H   0  0  0  0  0  0  0  0  0  0  0  0
    8.2567   18.0106    6.1850 H   0  0  0  0  0  0  0  0  0  0  0  0
  2  3  1  0  0  0  0
  2  7  1  0  0  0  0
  2  1  1  6  0  0  0
  3  4  1  0  0  0  0
  4  5  1  0  0  0  0
  4  8  1  1  0  0  0
  5  6  1  0  0  0  0
  6  7  1  0  0  0  0
  8  9  2  0  0  0  0
  8 10  2  0  0  0  0
  8 11  1  0  0  0  0
 11 12  1  0  0  0  0
 11 13  1  0  0  0  0
M  END
>  <CHROM.0>
-60.13469746,61.16691498,-67.66291622,-48.15424653,-60.84739461,-63.34555052
-67.59846923,-59.50526083,-167.91143736

>  <CHROM.1>
77.15679957,160.58153203,6.32560766,18.43157932,4.57590034,-1.68960658,0.89955690
1.21887300

>  <Name>
P107707251

>  <RI>
3.4169e+07

>  <Rbt.Current_Directory>
/home/fstefaniak/projects/zuza/docking/adenine/4XNR

>  <Rbt.Executable>
rbdock ($Id: //depot/dev/client3/rdock/2013.1/src/exe/rbdock.cxx#4 $)

>  <Rbt.Library>
libRbt.so (2013.1, Build901 2013/11/27)

>  <Rbt.Parameter_File>
/home/fstefaniak/progs/rDock//data/scripts/dock_solv.prm

>  <Rbt.Receptor>
4xnr.prm

>  <SCORE>
-51.9767

>  <SCORE.INTER>
-32.1012

>  <SCORE.INTER.CONST>
1

>  <SCORE.INTER.POLAR>
-3.79967

>  <SCORE.INTER.ROT>
2

>  <SCORE.INTER.SOLV>
13.0186

>  <SCORE.INTER.VDW>
-18.0081

>  <SCORE.INTER.norm>
-2.91829

>  <SCORE.INTRA>
0.207404

>  <SCORE.INTRA.DIHEDRAL>
-0.606408

>  <SCORE.INTRA.DIHEDRAL.0>
2.50279

>  <SCORE.INTRA.POLAR>
0

>  <SCORE.INTRA.POLAR.0>
0

>  <SCORE.INTRA.REPUL>
0

>  <SCORE.INTRA.REPUL.0>
0

>  <SCORE.INTRA.SOLV>
0.167833

>  <SCORE.INTRA.SOLV.lig_0>
-11.4332

>  <SCORE.INTRA.VDW>
0.426691

>  <SCORE.INTRA.VDW.0>
-0.708663

>  <SCORE.INTRA.norm>
0.0188549

>  <SCORE.RESTR>
0

>  <SCORE.RESTR.CAVITY>
0

>  <SCORE.RESTR.norm>
0

>  <SCORE.SYSTEM>
-20.0829

>  <SCORE.SYSTEM.CONST>
0

>  <SCORE.SYSTEM.DIHEDRAL>
4.01979

>  <SCORE.SYSTEM.POLAR>
-2.95329

>  <SCORE.SYSTEM.SOLV>
0.344378

>  <SCORE.SYSTEM.VDW>
-4.99901

>  <SCORE.SYSTEM.norm>
-1.82572

>  <SCORE.heavy>
11

>  <SCORE.norm>
-4.72515

$$$$
P107707251
 OpenBabel12072022113D
libRbt.so/2013.1/901 2013/11/27
 13 13  0  0  0  0  0  0  0  0999 V2000
    3.6624   15.5431    3.4225 C   0  0  0  0  0  0  0  0  0  0  0  0
    4.9958   16.2766    3.3787 C   0  0  2  0  0  0  0  0  0  0  0  0
    5.1921   17.1375    4.6256 C   0  0  0  0  0  0  0  0  0  0  0  0
    6.4844   17.9455    4.5078 C   0  0  1  0  0  0  0  0  0  0  0  0
    6.5164   18.7170    3.1882 C   0  0  0  0  0  0  0  0  0  0  0  0
    6.2431   17.7800    2.0239 C   0  0  0  0  0  0  0  0  0  0  0  0
    5.0040   17.0997    2.2099 O   0  0  0  0  0  0  0  0  0  0  0  0
    6.6998   19.0771    5.8868 S   0  0  0  0  0  0  0  0  0  0  0  0
    6.5293   20.4340    5.4224 O   0  0  0  0  0  0  0  0  0  0  0  0
    6.0263   18.5750    7.0602 O   0  0  0  0  0  0  0  0  0  0  0  0
    8.3372   18.9365    6.2167 N   0  0  0  0  0  0  0  0  0  0  0  0
    8.6220   19.6683    6.8711 H   0  0  0  0  0  0  0  0  0  0  0  0
    8.5415   17.9943    6.5572 H   0  0  0  0  0  0  0  0  0  0  0  0
  2  3  1  0  0  0  0
  2  7  1  0  0  0  0
  2  1  1  1  0  0  0
  3  4  1  0  0  0  0
  4  5  1  0  0  0  0
  4  8  1  1  0  0  0
  5  6  1  0  0  0  0
  6  7  1  0  0  0  0
  8  9  2  0  0  0  0
  8 10  2  0  0  0  0
  8 11  1  0  0  0  0
 11 12  1  0  0  0  0
 11 13  1  0  0  0  0
M  END
>  <CHROM.0>
-57.31843119,-63.91820641,-65.58168988,-46.20715969,-173.33023472,-61.98232601
-69.21254228,-60.01837946,-169.25767645

>  <CHROM.1>
-109.88024553,169.20737116,6.05991625,18.09958340,4.55568856,2.33927652,-0.84217384
-1.63303867

>  <Name>
P107707251

>  <RI>
3.4169e+07

>  <Rbt.Current_Directory>
/home/fstefaniak/projects/zuza/docking/adenine/4XNR

>  <Rbt.Executable>
rbdock ($Id: //depot/dev/client3/rdock/2013.1/src/exe/rbdock.cxx#4 $)

>  <Rbt.Library>
libRbt.so (2013.1, Build901 2013/11/27)

>  <Rbt.Parameter_File>
/home/fstefaniak/progs/rDock//data/scripts/dock_solv.prm

>  <Rbt.Receptor>
4xnr.prm

>  <SCORE>
-51.8581

>  <SCORE.INTER>
-31.7783

>  <SCORE.INTER.CONST>
1

>  <SCORE.INTER.POLAR>
-3.43968

>  <SCORE.INTER.ROT>
2

>  <SCORE.INTER.SOLV>
12.2547

>  <SCORE.INTER.VDW>
-18.7382

>  <SCORE.INTER.norm>
-2.88894

>  <SCORE.INTRA>
0.753996

>  <SCORE.INTRA.DIHEDRAL>
0.347582

>  <SCORE.INTRA.DIHEDRAL.0>
2.50279

>  <SCORE.INTRA.POLAR>
0

>  <SCORE.INTRA.POLAR.0>
0

>  <SCORE.INTRA.REPUL>
0

>  <SCORE.INTRA.REPUL.0>
0

>  <SCORE.INTRA.SOLV>
-0.0200099

>  <SCORE.INTRA.SOLV.lig_0>
-11.4332

>  <SCORE.INTRA.VDW>
0.59021

>  <SCORE.INTRA.VDW.0>
-0.708663

>  <SCORE.INTRA.norm>
0.0685451

>  <SCORE.RESTR>
0

>  <SCORE.RESTR.CAVITY>
0

>  <SCORE.RESTR.norm>
0

>  <SCORE.SYSTEM>
-20.8338

>  <SCORE.SYSTEM.CONST>
0

>  <SCORE.SYSTEM.DIHEDRAL>
4.37042

>  <SCORE.SYSTEM.POLAR>
-2.98011

>  <SCORE.SYSTEM.SOLV>
0.10905

>  <SCORE.SYSTEM.VDW>
-5.44865

>  <SCORE.SYSTEM.norm>
-1.89398

>  <SCORE.heavy>
11

>  <SCORE.norm>
-4.71437

$$$$
P107707251
 OpenBabel12072022113D
libRbt.so/2013.1/901 2013/11/27
 13 13  0  0  0  0  0  0  0  0999 V2000
    3.6849   15.5312    3.4164 C   0  0  0  0  0  0  0  0  0  0  0  0
    5.0209   16.2609    3.3889 C   0  0  2  0  0  0  0  0  0  0  0  0
    5.2090   17.1128    4.6432 C   0  0  0  0  0  0  0  0  0  0  0  0
    6.5048   17.9176    4.5420 C   0  0  1  0  0  0  0  0  0  0  0  0
    6.5505   18.6978    3.2279 C   0  0  0  0  0  0  0  0  0  0  0  0
    6.2843   17.7695    2.0550 C   0  0  0  0  0  0  0  0  0  0  0  0
    5.0417   17.0918    2.2258 O   0  0  0  0  0  0  0  0  0  0  0  0
    6.7117   19.0392    5.9304 S   0  0  0  0  0  0  0  0  0  0  0  0
    6.5072   20.3969    5.4822 O   0  0  0  0  0  0  0  0  0  0  0  0
    6.0623   18.5108    7.1058 O   0  0  0  0  0  0  0  0  0  0  0  0
    8.3554   18.9301    6.2407 N   0  0  0  0  0  0  0  0  0  0  0  0
    8.6397   19.6862    6.8671 H   0  0  0  0  0  0  0  0  0  0  0  0
    8.5769   18.0021    6.6080 H   0  0  0  0  0  0  0  0  0  0  0  0
  2  3  1  0  0  0  0
  2  7  1  0  0  0  0
  2  1  1  1  0  0  0
  3  4  1  0  0  0  0
  4  5  1  0  0  0  0
  4  8  1  1  0  0  0
  5  6  1  0  0  0  0
  6  7  1  0  0  0  0
  8  9  2  0  0  0  0
  8 10  2  0  0  0  0
  8 11  1  0  0  0  0
 11 12  1  0  0  0  0
 11 13  1  0  0  0  0
M  END
>  <CHROM.0>
-56.68965197,-61.71320519,-61.54264915,-46.45558786,-60.66376072,-63.24758583
-67.54032677,-52.32536256,-167.72719064

>  <CHROM.1>
-108.07207483,166.71962007,6.08078259,18.07428651,4.58608522,2.32757939,-0.83871375
-1.63621782

>  <Name>
P107707251

>  <RI>
3.4169e+07

>  <Rbt.Current_Directory>
/home/fstefaniak/projects/zuza/docking/adenine/4XNR

>  <Rbt.Executable>
rbdock ($Id: //depot/dev/client3/rdock/2013.1/src/exe/rbdock.cxx#4 $)

>  <Rbt.Library>
libRbt.so (2013.1, Build901 2013/11/27)

>  <Rbt.Parameter_File>
/home/fstefaniak/progs/rDock//data/scripts/dock_solv.prm

>  <Rbt.Receptor>
4xnr.prm

>  <SCORE>
-51.7049

>  <SCORE.INTER>
-31.6848

>  <SCORE.INTER.CONST>
1

>  <SCORE.INTER.POLAR>
-3.39171

>  <SCORE.INTER.ROT>
2

>  <SCORE.INTER.SOLV>
12.2486

>  <SCORE.INTER.VDW>
-18.8337

>  <SCORE.INTER.norm>
-2.88044

>  <SCORE.INTRA>
0.68697

>  <SCORE.INTRA.DIHEDRAL>
0.28203

>  <SCORE.INTRA.DIHEDRAL.0>
2.50279

>  <SCORE.INTRA.POLAR>
0

>  <SCORE.INTRA.POLAR.0>
0

>  <SCORE.INTRA.REPUL>
0

>  <SCORE.INTRA.REPUL.0>
0

>  <SCORE.INTRA.SOLV>
-0.0197183

>  <SCORE.INTRA.SOLV.lig_0>
-11.4332

>  <SCORE.INTRA.VDW>
0.555814

>  <SCORE.INTRA.VDW.0>
-0.708663

>  <SCORE.INTRA.norm>
0.0624518

>  <SCORE.RESTR>
0

>  <SCORE.RESTR.CAVITY>
0

>  <SCORE.RESTR.norm>
0

>  <SCORE.SYSTEM>
-20.707

>  <SCORE.SYSTEM.CONST>
0

>  <SCORE.SYSTEM.DIHEDRAL>
4.2884

>  <SCORE.SYSTEM.POLAR>
-3.03151

>  <SCORE.SYSTEM.SOLV>
0.299889

>  <SCORE.SYSTEM.VDW>
-5.22908

>  <SCORE.SYSTEM.norm>
-1.88246

>  <SCORE.heavy>
11

>  <SCORE.norm>
-4.70045

$$$$
P107730030
 OpenBabel12072022113D
libRbt.so/2013.1/901 2013/11/27
 17 17  0  0  0  0  0  0  0  0999 V2000
    4.2930   14.2654    3.8497 C   0  0  0  0  0  0  0  0  0  0  0  0
    4.0839   15.6973    4.3474 C   0  0  0  0  0  0  0  0  0  0  0  0
    2.8155   16.2748    3.7047 C   0  0  0  0  0  0  0  0  0  0  0  0
    5.3035   16.6102    4.0718 C   0  0  2  0  0  0  0  0  0  0  0  0
    5.1764   17.9885    4.7372 C   0  0  0  0  0  0  0  0  0  0  0  0
    6.3579   18.8992    4.3564 C   0  0  2  0  0  0  0  0  0  0  0  0
    6.5586   18.9150    2.8353 C   0  0  0  0  0  0  0  0  0  0  0  0
    6.5727   17.5019    2.2651 C   0  0  0  0  0  0  0  0  0  0  0  0
    5.3937   16.8004    2.6519 O   0  0  0  0  0  0  0  0  0  0  0  0
    7.6526   18.4316    5.0878 C   0  0  0  0  0  0  0  0  0  0  0  0
    8.6221   17.9188    4.5414 O   0  0  0  0  0  0  0  0  0  0  0  0
    7.6399   18.6377    6.4417 N   0  0  0  0  0  0  0  0  0  0  0  0
    6.0709   20.2795    4.8483 N   0  0  0  0  0  0  0  0  0  0  0  0
    8.0583   19.5045    6.7653 H   0  0  0  0  0  0  0  0  0  0  0  0
    7.7361   17.8174    7.0241 H   0  0  0  0  0  0  0  0  0  0  0  0
    6.8468   20.8879    4.5818 H   0  0  0  0  0  0  0  0  0  0  0  0
    6.0823   20.2633    5.8705 H   0  0  0  0  0  0  0  0  0  0  0  0
  1  2  1  0  0  0  0
  2  3  1  0  0  0  0
  4  5  1  0  0  0  0
  4  9  1  0  0  0  0
  4  2  1  6  0  0  0
  5  6  1  0  0  0  0
  6  7  1  0  0  0  0
  6 10  1  1  0  0  0
  6 13  1  0  0  0  0
  7  8  1  0  0  0  0
  8  9  1  0  0  0  0
 10 11  2  0  0  0  0
 10 12  1  0  0  0  0
 12 14  1  0  0  0  0
 12 15  1  0  0  0  0
 13 16  1  0  0  0  0
 13 17  1  0  0  0  0
M  END
>  <CHROM.0>
-58.03235248,-62.29336953,-58.48451782,-44.64838501,-172.59581618,-60.13073436
-68.17674662,-59.81309543,-167.04194122

>  <CHROM.1>
-172.12930169,110.76512389,-179.01743773,-93.85167637,5.90274423,17.56191129
4.14633063,2.86508799,-0.77748764,-1.58663353

>  <Name>
P107730030

>  <RI>
2.22087e+07

>  <Rbt.Current_Directory>
/home/fstefaniak/projects/zuza/docking/adenine/4XNR

>  <Rbt.Executable>
rbdock ($Id: //depot/dev/client3/rdock/2013.1/src/exe/rbdock.cxx#4 $)

>  <Rbt.Library>
libRbt.so (2013.1, Build901 2013/11/27)

>  <Rbt.Parameter_File>
/home/fstefaniak/progs/rDock//data/scripts/dock_solv.prm

>  <Rbt.Receptor>
4xnr.prm

>  <SCORE>
-35.7257

>  <SCORE.INTER>
-15.3603

>  <SCORE.INTER.CONST>
1

>  <SCORE.INTER.POLAR>
-3.75014

>  <SCORE.INTER.ROT>
4

>  <SCORE.INTER.SOLV>
14.7389

>  <SCORE.INTER.VDW>
-8.91941

>  <SCORE.INTER.norm>
-1.18156

>  <SCORE.INTRA>
0.242206

>  <SCORE.INTRA.DIHEDRAL>
0.404377

>  <SCORE.INTRA.DIHEDRAL.0>
0.892037

>  <SCORE.INTRA.POLAR>
-0.0305213

>  <SCORE.INTRA.POLAR.0>
-0.0386943

>  <SCORE.INTRA.REPUL>
0

>  <SCORE.INTRA.REPUL.0>
0

>  <SCORE.INTRA.SOLV>
0.249111

>  <SCORE.INTRA.SOLV.lig_0>
-11.4209

>  <SCORE.INTRA.VDW>
0.0192352

>  <SCORE.INTRA.VDW.0>
0.561936

>  <SCORE.INTRA.norm>
0.0186313

>  <SCORE.RESTR>
0

>  <SCORE.RESTR.CAVITY>
0

>  <SCORE.RESTR.norm>
0

>  <SCORE.SYSTEM>
-20.6076

>  <SCORE.SYSTEM.CONST>
0

>  <SCORE.SYSTEM.DIHEDRAL>
4.54464

>  <SCORE.SYSTEM.POLAR>
-3.03166

>  <SCORE.SYSTEM.SOLV>
0.127247

>  <SCORE.SYSTEM.VDW>
-5.19014

>  <SCORE.SYSTEM.norm>
-1.5852

>  <SCORE.heavy>
13

>  <SCORE.norm>
-2.74813

$$$$
P107730030
 OpenBabel12072022113D
libRbt.so/2013.1/901 2013/11/27
 17 17  0  0  0  0  0  0  0  0999 V2000
    4.2650   14.2805    3.7774 C   0  0  0  0  0  0  0  0  0  0  0  0
    4.0878   15.6932    4.3382 C   0  0  0  0  0  0  0  0  0  0  0  0
    2.8112   16.3121    3.7529 C   0  0  0  0  0  0  0  0  0  0  0  0
    5.3121   16.6016    4.0683 C   0  0  2  0  0  0  0  0  0  0  0  0
    5.1772   17.9881    4.7147 C   0  0  0  0  0  0  0  0  0  0  0  0
    6.3649   18.8929    4.3391 C   0  0  2  0  0  0  0  0  0  0  0  0
    6.5865   18.8897    2.8208 C   0  0  0  0  0  0  0  0  0  0  0  0
    6.6071   17.4697    2.2683 C   0  0  0  0  0  0  0  0  0  0  0  0
    5.4221   16.7741    2.6475 O   0  0  0  0  0  0  0  0  0  0  0  0
    7.6488   18.4333    5.0940 C   0  0  0  0  0  0  0  0  0  0  0  0
    8.6241   17.9103    4.5679 O   0  0  0  0  0  0  0  0  0  0  0  0
    7.6191   18.6593    6.4445 N   0  0  0  0  0  0  0  0  0  0  0  0
    6.0726   20.2795    4.8099 N   0  0  0  0  0  0  0  0  0  0  0  0
    8.0425   19.5262    6.7615 H   0  0  0  0  0  0  0  0  0  0  0  0
    7.6978   17.8468    7.0400 H   0  0  0  0  0  0  0  0  0  0  0  0
    6.8621   20.8795    4.5653 H   0  0  0  0  0  0  0  0  0  0  0  0
    6.0488   20.2717    5.8319 H   0  0  0  0  0  0  0  0  0  0  0  0
  1  2  1  0  0  0  0
  2  3  1  0  0  0  0
  4  5  1  0  0  0  0
  4  9  1  0  0  0  0
  4  2  1  6  0  0  0
  5  6  1  0  0  0  0
  6  7  1  0  0  0  0
  6 10  1  1  0  0  0
  6 13  1  0  0  0  0
  7  8  1  0  0  0  0
  8  9  1  0  0  0  0
 10 11  2  0  0  0  0
 10 12  1  0  0  0  0
 12 14  1  0  0  0  0
 12 15  1  0  0  0  0
 13 16  1  0  0  0  0
 13 17  1  0  0  0  0
M  END
>  <CHROM.0>
-57.38676194,-61.96710707,63.24086188,-47.01552540,-58.24924189,-66.09433191
53.95027184,58.89297653,-167.20388224

>  <CHROM.1>
-175.99117905,110.60167633,179.71433429,-94.35667961,5.90675532,17.55951120
4.13922150,2.67880906,-0.69731299,-1.85934798

>  <Name>
P107730030

>  <RI>
2.22087e+07

>  <Rbt.Current_Directory>
/home/fstefaniak/projects/zuza/docking/adenine/4XNR

>  <Rbt.Executable>
rbdock ($Id: //depot/dev/client3/rdock/2013.1/src/exe/rbdock.cxx#4 $)

>  <Rbt.Library>
libRbt.so (2013.1, Build901 2013/11/27)

>  <Rbt.Parameter_File>
/home/fstefaniak/progs/rDock//data/scripts/dock_solv.prm

>  <Rbt.Receptor>
4xnr.prm

>  <SCORE>
-33.7585

>  <SCORE.INTER>
-16.1666

>  <SCORE.INTER.CONST>
1

>  <SCORE.INTER.POLAR>
-3.81588

>  <SCORE.INTER.ROT>
4

>  <SCORE.INTER.SOLV>
14.7643

>  <SCORE.INTER.VDW>
-9.2462

>  <SCORE.INTER.norm>
-1.24358

>  <SCORE.INTRA>
0.312341

>  <SCORE.INTRA.DIHEDRAL>
0.212838

>  <SCORE.INTRA.DIHEDRAL.0>
0.892037

>  <SCORE.INTRA.POLAR>
-0.0185244

>  <SCORE.INTRA.POLAR.0>
-0.0386943

>  <SCORE.INTRA.REPUL>
0

>  <SCORE.INTRA.REPUL.0>
0

>  <SCORE.INTRA.SOLV>
0.249304

>  <SCORE.INTRA.SOLV.lig_0>
-11.4209

>  <SCORE.INTRA.VDW>
0.144253

>  <SCORE.INTRA.VDW.0>
0.561936

>  <SCORE.INTRA.norm>
0.0240262

>  <SCORE.RESTR>
0

>  <SCORE.RESTR.CAVITY>
0

>  <SCORE.RESTR.norm>
0

>  <SCORE.SYSTEM>
-17.9042

>  <SCORE.SYSTEM.CONST>
0

>  <SCORE.SYSTEM.DIHEDRAL>
4.0843

>  <SCORE.SYSTEM.POLAR>
-2.98239

>  <SCORE.SYSTEM.SOLV>
0.00789992

>  <SCORE.SYSTEM.VDW>
-3.35892

>  <SCORE.SYSTEM.norm>
-1.37725

>  <SCORE.heavy>
13

>  <SCORE.norm>
-2.5968

$$$$
P107730030
 OpenBabel12072022113D
libRbt.so/2013.1/901 2013/11/27
 17 17  0  0  0  0  0  0  0  0999 V2000
    4.2918   14.2726    3.8981 C   0  0  0  0  0  0  0  0  0  0  0  0
    4.0571   15.7223    4.3284 C   0  0  0  0  0  0  0  0  0  0  0  0
    2.8069   16.2626    3.6212 C   0  0  0  0  0  0  0  0  0  0  0  0
    5.2793   16.6325    4.0548 C   0  0  2  0  0  0  0  0  0  0  0  0
    5.1717   17.9969    4.7515 C   0  0  0  0  0  0  0  0  0  0  0  0
    6.3542   18.9074    4.3732 C   0  0  2  0  0  0  0  0  0  0  0  0
    6.5329   18.9547    2.8500 C   0  0  0  0  0  0  0  0  0  0  0  0
    6.5286   17.5543    2.2493 C   0  0  0  0  0  0  0  0  0  0  0  0
    5.3502   16.8528    2.6381 O   0  0  0  0  0  0  0  0  0  0  0  0
    7.6559   18.4151    5.0754 C   0  0  0  0  0  0  0  0  0  0  0  0
    8.6029   17.8841    4.5074 O   0  0  0  0  0  0  0  0  0  0  0  0
    7.6776   18.6212    6.4291 N   0  0  0  0  0  0  0  0  0  0  0  0
    6.0843   20.2787    4.8989 N   0  0  0  0  0  0  0  0  0  0  0  0
    8.0362   19.5194    6.7384 H   0  0  0  0  0  0  0  0  0  0  0  0
    7.8619   17.8122    7.0060 H   0  0  0  0  0  0  0  0  0  0  0  0
    6.8411   20.8964    4.6007 H   0  0  0  0  0  0  0  0  0  0  0  0
    6.1494   20.2486    5.9187 H   0  0  0  0  0  0  0  0  0  0  0  0
  1  2  1  0  0  0  0
  2  3  1  0  0  0  0
  4  5  1  0  0  0  0
  4  9  1  0  0  0  0
  4  2  1  6  0  0  0
  5  6  1  0  0  0  0
  6  7  1  0  0  0  0
  6 10  1  1  0  0  0
  6 13  1  0  0  0  0
  7  8  1  0  0  0  0
  8  9  1  0  0  0  0
 10 11  2  0  0  0  0
 10 12  1  0  0  0  0
 12 14  1  0  0  0  0
 12 15  1  0  0  0  0
 13 16  1  0  0  0  0
 13 17  1  0  0  0  0
M  END
>  <CHROM.0>
-56.86755549,-58.81113513,-61.08057760,-44.41778113,-63.12431297,-57.52089030
-66.81722460,-54.12604358,-169.66079099

>  <CHROM.1>
-167.52895710,109.27759592,-176.66149558,-88.04139828,5.89210620,17.57209771
4.14113524,3.09794849,-0.80929451,-1.25404848

>  <Name>
P107730030

>  <RI>
2.22087e+07

>  <Rbt.Current_Directory>
/home/fstefaniak/projects/zuza/docking/adenine/4XNR

>  <Rbt.Executable>
rbdock ($Id: //depot/dev/client3/rdock/2013.1/src/exe/rbdock.cxx#4 $)

>  <Rbt.Library>
libRbt.so (2013.1, Build901 2013/11/27)

>  <Rbt.Parameter_File>
/home/fstefaniak/progs/rDock//data/scripts/dock_solv.prm

>  <Rbt.Receptor>
4xnr.prm

>  <SCORE>
-33.5754

>  <SCORE.INTER>
-13.5804

>  <SCORE.INTER.CONST>
1

>  <SCORE.INTER.POLAR>
-3.6755

>  <SCORE.INTER.ROT>
4

>  <SCORE.INTER.SOLV>
14.6875

>  <SCORE.INTER.VDW>
-7.96443

>  <SCORE.INTER.norm>
-1.04465

>  <SCORE.INTRA>
0.407161

>  <SCORE.INTRA.DIHEDRAL>
0.883354

>  <SCORE.INTRA.DIHEDRAL.0>
0.892037

>  <SCORE.INTRA.POLAR>
-0.0529602

>  <SCORE.INTRA.POLAR.0>
-0.0386943

>  <SCORE.INTRA.REPUL>
0

>  <SCORE.INTRA.REPUL.0>
0

>  <SCORE.INTRA.SOLV>
0.258691

>  <SCORE.INTRA.SOLV.lig_0>
-11.4209

>  <SCORE.INTRA.VDW>
0.0162031

>  <SCORE.INTRA.VDW.0>
0.561936

>  <SCORE.INTRA.norm>
0.0313201

>  <SCORE.RESTR>
0

>  <SCORE.RESTR.CAVITY>
0

>  <SCORE.RESTR.norm>
0

>  <SCORE.SYSTEM>
-20.4021

>  <SCORE.SYSTEM.CONST>
0

>  <SCORE.SYSTEM.DIHEDRAL>
4.21028

>  <SCORE.SYSTEM.POLAR>
-3.02378

>  <SCORE.SYSTEM.SOLV>
0.314581

>  <SCORE.SYSTEM.VDW>
-5.03042

>  <SCORE.SYSTEM.norm>
-1.56939

>  <SCORE.heavy>
13

>  <SCORE.norm>
-2.58272

$$$$
P107730079
 OpenBabel12072022113D
libRbt.so/2013.1/901 2013/11/27
 16 16  0  0  0  0  0  0  0  0999 V2000
    0.6399   14.0307    3.5060 C   0  0  0  0  0  0  0  0  0  0  0  0
    2.1277   14.2012    3.8478 C   0  0  0  0  0  0  0  0  0  0  0  0
    2.5449   13.4866    5.1521 C   0  0  0  0  0  0  0  0  0  0  0  0
    2.7250   11.9529    5.0276 C   0  0  1  0  0  0  0  0  0  0  0  0
    3.5741   11.6835    3.7699 C   0  0  0  0  0  0  0  0  0  0  0  0
    3.0062   12.3767    2.5460 C   0  0  0  0  0  0  0  0  0  0  0  0
    2.9496   13.7861    2.7500 O   0  0  0  0  0  0  0  0  0  0  0  0
    3.4932   11.4380    6.2866 C   0  0  0  0  0  0  0  0  0  0  0  0
    4.6862   11.1490    6.3023 O   0  0  0  0  0  0  0  0  0  0  0  0
    2.7433   11.2551    7.4190 N   0  0  0  0  0  0  0  0  0  0  0  0
    1.3757   11.3162    5.0070 N   0  0  0  0  0  0  0  0  0  0  0  0
    1.3957    9.8570    4.9854 C   0  0  0  0  0  0  0  0  0  0  0  0
    2.3927   15.7083    4.0124 C   0  0  0  0  0  0  0  0  0  0  0  0
    3.2456   10.9682    8.2497 H   0  0  0  0  0  0  0  0  0  0  0  0
    1.8177   11.6398    7.5326 H   0  0  0  0  0  0  0  0  0  0  0  0
    0.8650   11.6101    5.8393 H   0  0  0  0  0  0  0  0  0  0  0  0
  1  2  1  0  0  0  0
  2  3  1  0  0  0  0
  2  7  1  0  0  0  0
  2 13  1  0  0  0  0
  3  4  1  0  0  0  0
  4  5  1  0  0  0  0
  4 11  1  0  0  0  0
  4  8  1  1  0  0  0
  5  6  1  0  0  0  0
  6  7  1  0  0  0  0
  8  9  2  0  0  0  0
  8 10  1  0  0  0  0
 10 14  1  0  0  0  0
 10 15  1  0  0  0  0
 11 12  1  0  0  0  0
 11 16  1  0  0  0  0
M  END
>  <CHROM.0>
-56.86675059,-60.28599667,-66.66178597,-46.27918497,-58.58718112,-65.00085305
-67.58076995,-59.25336665,-168.60595465

>  <CHROM.1>
-175.97432737,-102.16482699,2.58065769,12.47266408,4.67981265,1.86467683
-0.85068641,-0.46828931

>  <Name>
P107730079

>  <RI>
1.34432e+07

>  <Rbt.Current_Directory>
/home/fstefaniak/projects/zuza/docking/adenine/4XNR

>  <Rbt.Executable>
rbdock ($Id: //depot/dev/client3/rdock/2013.1/src/exe/rbdock.cxx#4 $)

>  <Rbt.Library>
libRbt.so (2013.1, Build901 2013/11/27)

>  <Rbt.Parameter_File>
/home/fstefaniak/progs/rDock//data/scripts/dock_solv.prm

>  <Rbt.Receptor>
4xnr.prm

>  <SCORE>
-34.634

>  <SCORE.INTER>
-15.1772

>  <SCORE.INTER.CONST>
1

>  <SCORE.INTER.POLAR>
-2.58215

>  <SCORE.INTER.ROT>
2

>  <SCORE.INTER.SOLV>
7.36799

>  <SCORE.INTER.VDW>
-8.90031

>  <SCORE.INTER.norm>
-1.16748

>  <SCORE.INTRA>
0.426685

>  <SCORE.INTRA.DIHEDRAL>
0.481841

>  <SCORE.INTRA.DIHEDRAL.0>
0.368379

>  <SCORE.INTRA.POLAR>
0

>  <SCORE.INTRA.POLAR.0>
0

>  <SCORE.INTRA.REPUL>
0

>  <SCORE.INTRA.REPUL.0>
0

>  <SCORE.INTRA.SOLV>
0.123624

>  <SCORE.INTRA.SOLV.lig_0>
-11.149

>  <SCORE.INTRA.VDW>
0.123953

>  <SCORE.INTRA.VDW.0>
1.06419

>  <SCORE.INTRA.norm>
0.0328219

>  <SCORE.RESTR>
0.989558

>  <SCORE.RESTR.CAVITY>
0.989558

>  <SCORE.RESTR.norm>
0.0761199

>  <SCORE.SYSTEM>
-20.873

>  <SCORE.SYSTEM.CONST>
0

>  <SCORE.SYSTEM.DIHEDRAL>
4.20727

>  <SCORE.SYSTEM.POLAR>
-3.00159

>  <SCORE.SYSTEM.SOLV>
0.284932

>  <SCORE.SYSTEM.VDW>
-5.40747

>  <SCORE.SYSTEM.norm>
-1.60562

>  <SCORE.heavy>
13

>  <SCORE.norm>
-2.66416

$$$$
P107730079
 OpenBabel12072022113D
libRbt.so/2013.1/901 2013/11/27
 16 16  0  0  0  0  0  0  0  0999 V2000
   -1.2191   10.3661    4.1157 C   0  0  0  0  0  0  0  0  0  0  0  0
   -1.5646   11.8267    3.7887 C   0  0  0  0  0  0  0  0  0  0  0  0
   -0.6786   12.8497    4.5332 C   0  0  0  0  0  0  0  0  0  0  0  0
    0.7440   13.0303    3.9469 C   0  0  1  0  0  0  0  0  0  0  0  0
    0.6023   13.1944    2.4210 C   0  0  0  0  0  0  0  0  0  0  0  0
   -0.2210   12.0781    1.8070 C   0  0  0  0  0  0  0  0  0  0  0  0
   -1.5284   12.0504    2.3739 O   0  0  0  0  0  0  0  0  0  0  0  0
    1.3689   14.3297    4.5480 C   0  0  0  0  0  0  0  0  0  0  0  0
    2.4311   14.3697    5.1623 O   0  0  0  0  0  0  0  0  0  0  0  0
    0.6294   15.4753    4.4106 N   0  0  0  0  0  0  0  0  0  0  0  0
    1.5814   11.8685    4.3657 N   0  0  0  0  0  0  0  0  0  0  0  0
    2.9613   11.9155    3.8922 C   0  0  0  0  0  0  0  0  0  0  0  0
   -3.0285   12.0577    4.2037 C   0  0  0  0  0  0  0  0  0  0  0  0
    1.0523   16.3278    4.7555 H   0  0  0  0  0  0  0  0  0  0  0  0
   -0.1458   15.5549    3.7699 H   0  0  0  0  0  0  0  0  0  0  0  0
    1.6011   11.8326    5.3847 H   0  0  0  0  0  0  0  0  0  0  0  0
  1  2  1  0  0  0  0
  2  3  1  0  0  0  0
  2  7  1  0  0  0  0
  2 13  1  0  0  0  0
  3  4  1  0  0  0  0
  4  5  1  0  0  0  0
  4 11  1  0  0  0  0
  4  8  1  1  0  0  0
  5  6  1  0  0  0  0
  6  7  1  0  0  0  0
  8  9  2  0  0  0  0
  8 10  1  0  0  0  0
 10 14  1  0  0  0  0
 10 15  1  0  0  0  0
 11 12  1  0  0  0  0
 11 16  1  0  0  0  0
M  END
>  <CHROM.0>
-58.08604248,41.44613938,-69.30049197,-46.72697925,-59.28571739,-54.04603968
-62.01065900,-175.60550154,-168.51771622

>  <CHROM.1>
-179.36103150,123.25363595,0.16650598,12.73237593,3.82033100,-2.55647548
-0.07927864,0.31533814

>  <Name>
P107730079

>  <RI>
1.34432e+07

>  <Rbt.Current_Directory>
/home/fstefaniak/projects/zuza/docking/adenine/4XNR

>  <Rbt.Executable>
rbdock ($Id: //depot/dev/client3/rdock/2013.1/src/exe/rbdock.cxx#4 $)

>  <Rbt.Library>
libRbt.so (2013.1, Build901 2013/11/27)

>  <Rbt.Parameter_File>
/home/fstefaniak/progs/rDock//data/scripts/dock_solv.prm

>  <Rbt.Receptor>
4xnr.prm

>  <SCORE>
-31.941

>  <SCORE.INTER>
-15.7314

>  <SCORE.INTER.CONST>
1

>  <SCORE.INTER.POLAR>
-2.51304

>  <SCORE.INTER.ROT>
2

>  <SCORE.INTER.SOLV>
7.33195

>  <SCORE.INTER.VDW>
-9.48812

>  <SCORE.INTER.norm>
-1.21011

>  <SCORE.INTRA>
0.347466

>  <SCORE.INTRA.DIHEDRAL>
-0.114489

>  <SCORE.INTRA.DIHEDRAL.0>
0.368379

>  <SCORE.INTRA.POLAR>
0

>  <SCORE.INTRA.POLAR.0>
0

>  <SCORE.INTRA.REPUL>
0

>  <SCORE.INTRA.REPUL.0>
0

>  <SCORE.INTRA.SOLV>
-0.165948

>  <SCORE.INTRA.SOLV.lig_0>
-11.149

>  <SCORE.INTRA.VDW>
0.487684

>  <SCORE.INTRA.VDW.0>
1.06419

>  <SCORE.INTRA.norm>
0.0267281

>  <SCORE.RESTR>
2.88053

>  <SCORE.RESTR.CAVITY>
2.88053

>  <SCORE.RESTR.norm>
0.221579

>  <SCORE.SYSTEM>
-19.4376

>  <SCORE.SYSTEM.CONST>
0

>  <SCORE.SYSTEM.DIHEDRAL>
5.73828

>  <SCORE.SYSTEM.POLAR>
-3.10315

>  <SCORE.SYSTEM.SOLV>
0.308081

>  <SCORE.SYSTEM.VDW>
-4.63001

>  <SCORE.SYSTEM.norm>
-1.4952

>  <SCORE.heavy>
13

>  <SCORE.norm>
-2.457

$$$$
P107730079
 OpenBabel12072022113D
libRbt.so/2013.1/901 2013/11/27
 16 16  0  0  0  0  0  0  0  0999 V2000
    0.1421   11.7491    4.0735 C   0  0  0  0  0  0  0  0  0  0  0  0
    0.4989   12.6855    2.9093 C   0  0  0  0  0  0  0  0  0  0  0  0
    0.7743   14.1394    3.3518 C   0  0  0  0  0  0  0  0  0  0  0  0
    2.1632   14.3737    3.9969 C   0  0  1  0  0  0  0  0  0  0  0  0
    3.2155   13.6958    3.0977 C   0  0  0  0  0  0  0  0  0  0  0  0
    2.8641   12.2486    2.8096 C   0  0  0  0  0  0  0  0  0  0  0  0
    1.5999   12.1607    2.1574 O   0  0  0  0  0  0  0  0  0  0  0  0
    2.4386   15.9108    4.0416 C   0  0  0  0  0  0  0  0  0  0  0  0
    3.5057   16.4344    3.7349 O   0  0  0  0  0  0  0  0  0  0  0  0
    1.4173   16.6941    4.5122 N   0  0  0  0  0  0  0  0  0  0  0  0
    2.1290   13.8611    5.3978 N   0  0  0  0  0  0  0  0  0  0  0  0
    3.3657   13.2239    5.8392 C   0  0  0  0  0  0  0  0  0  0  0  0
   -0.6959   12.6901    1.9392 C   0  0  0  0  0  0  0  0  0  0  0  0
    1.5737   17.6941    4.4973 H   0  0  0  0  0  0  0  0  0  0  0  0
    0.4688   16.3629    4.6040 H   0  0  0  0  0  0  0  0  0  0  0  0
    1.9380   14.6422    6.0250 H   0  0  0  0  0  0  0  0  0  0  0  0
  1  2  1  0  0  0  0
  2  3  1  0  0  0  0
  2  7  1  0  0  0  0
  2 13  1  0  0  0  0
  3  4  1  0  0  0  0
  4  5  1  0  0  0  0
  4 11  1  0  0  0  0
  4  8  1  1  0  0  0
  5  6  1  0  0  0  0
  6  7  1  0  0  0  0
  8  9  2  0  0  0  0
  8 10  1  0  0  0  0
 10 14  1  0  0  0  0
 10 15  1  0  0  0  0
 11 12  1  0  0  0  0
 11 16  1  0  0  0  0
M  END
>  <CHROM.0>
-53.40741453,-75.65014874,-71.07156346,-45.13561828,-60.21046994,-63.16475344
-171.11821722,-60.33920164,-167.86943184

>  <CHROM.1>
142.84369367,-135.70934409,1.79889728,13.84770463,3.69327485,-2.17494257
-0.56649017,0.09544461

>  <Name>
P107730079

>  <RI>
1.34432e+07

>  <Rbt.Current_Directory>
/home/fstefaniak/projects/zuza/docking/adenine/4XNR

>  <Rbt.Executable>
rbdock ($Id: //depot/dev/client3/rdock/2013.1/src/exe/rbdock.cxx#4 $)

>  <Rbt.Library>
libRbt.so (2013.1, Build901 2013/11/27)

>  <Rbt.Parameter_File>
/home/fstefaniak/progs/rDock//data/scripts/dock_solv.prm

>  <Rbt.Receptor>
4xnr.prm

>  <SCORE>
-31.4902

>  <SCORE.INTER>
-17.1701

>  <SCORE.INTER.CONST>
1

>  <SCORE.INTER.POLAR>
-2.12982

>  <SCORE.INTER.ROT>
2

>  <SCORE.INTER.SOLV>
9.84643

>  <SCORE.INTER.VDW>
-12.5628

>  <SCORE.INTER.norm>
-1.32077

>  <SCORE.INTRA>
4.42373

>  <SCORE.INTRA.DIHEDRAL>
2.14903

>  <SCORE.INTRA.DIHEDRAL.0>
0.368379

>  <SCORE.INTRA.POLAR>
0

>  <SCORE.INTRA.POLAR.0>
0

>  <SCORE.INTRA.REPUL>
0

>  <SCORE.INTRA.REPUL.0>
0

>  <SCORE.INTRA.SOLV>
-0.117741

>  <SCORE.INTRA.SOLV.lig_0>
-11.149

>  <SCORE.INTRA.VDW>
3.40809

>  <SCORE.INTRA.VDW.0>
1.06419

>  <SCORE.INTRA.norm>
0.340287

>  <SCORE.RESTR>
1.12398

>  <SCORE.RESTR.CAVITY>
1.12398

>  <SCORE.RESTR.norm>
0.0864601

>  <SCORE.SYSTEM>
-19.8679

>  <SCORE.SYSTEM.CONST>
0

>  <SCORE.SYSTEM.DIHEDRAL>
6.05223

>  <SCORE.SYSTEM.POLAR>
-3.04641

>  <SCORE.SYSTEM.SOLV>
0.230081

>  <SCORE.SYSTEM.VDW>
-5.18465

>  <SCORE.SYSTEM.norm>
-1.5283

>  <SCORE.heavy>
13

>  <SCORE.norm>
-2.42232

$$$$
P107841297
 OpenBabel12072022113D
libRbt.so/2013.1/901 2013/11/27
 10 10  0  0  0  0  0  0  0  0999 V2000
    4.2467   15.2088    3.7141 C   0  0  0  0  0  0  0  0  0  0  0  0
    3.9782   16.7027    3.7593 C   0  0  0  0  0  0  0  0  0  0  0  0
    5.1569   17.4542    4.1453 N   0  0  0  0  0  0  0  0  0  0  0  0
    5.3770   17.9280    5.4884 C   0  0  0  0  0  0  0  0  0  0  0  0
    6.5449   18.9002    5.3490 C   0  0  1  0  0  0  0  0  0  0  0  0
    7.2953   18.4217    4.1110 C   0  0  0  0  0  0  0  0  0  0  0  0
    6.2319   17.7106    3.3100 C   0  0  0  0  0  0  0  0  0  0  0  0
    6.3453   17.3599    2.1462 O   0  0  0  0  0  0  0  0  0  0  0  0
    6.0867   20.2362    5.1304 O   0  0  0  0  0  0  0  0  0  0  0  0
    6.8647   20.8147    5.0549 H   0  0  0  0  0  0  0  0  0  0  0  0
  1  2  1  0  0  0  0
  2  3  1  0  0  0  0
  3  4  1  0  0  0  0
  3  7  1  0  0  0  0
  4  5  1  0  0  0  0
  5  6  1  0  0  0  0
  5  9  1  6  0  0  0
  6  7  1  0  0  0  0
  7  8  2  0  0  0  0
  9 10  1  0  0  0  0
M  END
>  <CHROM.0>
-55.94645655,-62.96858886,-66.84912853,-44.46757960,-174.98174786,-61.50275790
-65.53610546,-59.25797081,-168.38002601

>  <CHROM.1>
-98.95376523,179.61342814,5.69467352,17.79648974,4.12046423,2.21266188,-0.69887817
-2.26928874

>  <Name>
P107841297

>  <RI>
3.1908e+07

>  <Rbt.Current_Directory>
/home/fstefaniak/projects/zuza/docking/adenine/4XNR

>  <Rbt.Executable>
rbdock ($Id: //depot/dev/client3/rdock/2013.1/src/exe/rbdock.cxx#4 $)

>  <Rbt.Library>
libRbt.so (2013.1, Build901 2013/11/27)

>  <Rbt.Parameter_File>
/home/fstefaniak/progs/rDock//data/scripts/dock_solv.prm

>  <Rbt.Receptor>
4xnr.prm

>  <SCORE>
-44.3856

>  <SCORE.INTER>
-23.8772

>  <SCORE.INTER.CONST>
1

>  <SCORE.INTER.POLAR>
-2.09023

>  <SCORE.INTER.ROT>
1

>  <SCORE.INTER.SOLV>
10.3479

>  <SCORE.INTER.VDW>
-16.6667

>  <SCORE.INTER.norm>
-2.65302

>  <SCORE.INTRA>
0.354968

>  <SCORE.INTRA.DIHEDRAL>
0.550259

>  <SCORE.INTRA.DIHEDRAL.0>
2.19695

>  <SCORE.INTRA.POLAR>
0

>  <SCORE.INTRA.POLAR.0>
0

>  <SCORE.INTRA.REPUL>
0

>  <SCORE.INTRA.REPUL.0>
0

>  <SCORE.INTRA.SOLV>
0.00942814

>  <SCORE.INTRA.SOLV.lig_0>
-11.1596

>  <SCORE.INTRA.VDW>
0.075124

>  <SCORE.INTRA.VDW.0>
-0.156765

>  <SCORE.INTRA.norm>
0.0394408

>  <SCORE.RESTR>
0

>  <SCORE.RESTR.CAVITY>
0

>  <SCORE.RESTR.norm>
0

>  <SCORE.SYSTEM>
-20.8634

>  <SCORE.SYSTEM.CONST>
0

>  <SCORE.SYSTEM.DIHEDRAL>
4.42435

>  <SCORE.SYSTEM.POLAR>
-3.04163

>  <SCORE.SYSTEM.SOLV>
0.124861

>  <SCORE.SYSTEM.VDW>
-5.28654

>  <SCORE.SYSTEM.norm>
-2.31815

>  <SCORE.heavy>
9

>  <SCORE.norm>
-4.93173

$$$$
P107841297
 OpenBabel12072022113D
libRbt.so/2013.1/901 2013/11/27
 10 10  0  0  0  0  0  0  0  0999 V2000
    4.2912   15.1696    3.6805 C   0  0  0  0  0  0  0  0  0  0  0  0
    4.1445   16.6603    3.4311 C   0  0  0  0  0  0  0  0  0  0  0  0
    5.2855   17.4075    3.9238 N   0  0  0  0  0  0  0  0  0  0  0  0
    5.3924   17.8631    5.2868 C   0  0  0  0  0  0  0  0  0  0  0  0
    6.5659   18.8382    5.2581 C   0  0  1  0  0  0  0  0  0  0  0  0
    7.4174   18.3774    4.0803 C   0  0  0  0  0  0  0  0  0  0  0  0
    6.4256   17.6764    3.1842 C   0  0  0  0  0  0  0  0  0  0  0  0
    6.6360   17.3417    2.0292 O   0  0  0  0  0  0  0  0  0  0  0  0
    6.1247   20.1767    5.0204 O   0  0  0  0  0  0  0  0  0  0  0  0
    6.9017   20.7608    5.0459 H   0  0  0  0  0  0  0  0  0  0  0  0
  1  2  1  0  0  0  0
  2  3  1  0  0  0  0
  3  4  1  0  0  0  0
  3  7  1  0  0  0  0
  4  5  1  0  0  0  0
  5  6  1  0  0  0  0
  5  9  1  6  0  0  0
  6  7  1  0  0  0  0
  7  8  2  0  0  0  0
  9 10  1  0  0  0  0
M  END
>  <CHROM.0>
-59.41425191,54.51168294,-65.70889777,-46.94359917,-60.07754285,-63.41623126
-67.61671750,-61.39802784,-167.97932847

>  <CHROM.1>
-85.94392312,177.82541781,5.80792869,17.75092205,3.98259241,2.19194441,-0.67032530
-2.29843449

>  <Name>
P107841297

>  <RI>
3.1908e+07

>  <Rbt.Current_Directory>
/home/fstefaniak/projects/zuza/docking/adenine/4XNR

>  <Rbt.Executable>
rbdock ($Id: //depot/dev/client3/rdock/2013.1/src/exe/rbdock.cxx#4 $)

>  <Rbt.Library>
libRbt.so (2013.1, Build901 2013/11/27)

>  <Rbt.Parameter_File>
/home/fstefaniak/progs/rDock//data/scripts/dock_solv.prm

>  <Rbt.Receptor>
4xnr.prm

>  <SCORE>
-43.5257

>  <SCORE.INTER>
-23.8058

>  <SCORE.INTER.CONST>
1

>  <SCORE.INTER.POLAR>
-2.09684

>  <SCORE.INTER.ROT>
1

>  <SCORE.INTER.SOLV>
10.3332

>  <SCORE.INTER.VDW>
-16.5922

>  <SCORE.INTER.norm>
-2.64509

>  <SCORE.INTRA>
0.392792

>  <SCORE.INTRA.DIHEDRAL>
0.626399

>  <SCORE.INTRA.DIHEDRAL.0>
2.19695

>  <SCORE.INTRA.POLAR>
0

>  <SCORE.INTRA.POLAR.0>
0

>  <SCORE.INTRA.REPUL>
0

>  <SCORE.INTRA.REPUL.0>
0

>  <SCORE.INTRA.SOLV>
-0.022125

>  <SCORE.INTRA.SOLV.lig_0>
-11.1596

>  <SCORE.INTRA.VDW>
0.0906551

>  <SCORE.INTRA.VDW.0>
-0.156765

>  <SCORE.INTRA.norm>
0.0436436

>  <SCORE.RESTR>
0

>  <SCORE.RESTR.CAVITY>
0

>  <SCORE.RESTR.norm>
0

>  <SCORE.SYSTEM>
-20.1127

>  <SCORE.SYSTEM.CONST>
0

>  <SCORE.SYSTEM.DIHEDRAL>
4.17808

>  <SCORE.SYSTEM.POLAR>
-2.99139

>  <SCORE.SYSTEM.SOLV>
0.375103

>  <SCORE.SYSTEM.VDW>
-4.9549

>  <SCORE.SYSTEM.norm>
-2.23475

>  <SCORE.heavy>
9

>  <SCORE.norm>
-4.83619

$$$$
P107841297
 OpenBabel12072022113D
libRbt.so/2013.1/901 2013/11/27
 10 10  0  0  0  0  0  0  0  0999 V2000
    4.3381   15.1437    3.6756 C   0  0  0  0  0  0  0  0  0  0  0  0
    4.1528   16.6386    3.4844 C   0  0  0  0  0  0  0  0  0  0  0  0
    5.2964   17.3922    3.9613 N   0  0  0  0  0  0  0  0  0  0  0  0
    5.4159   17.8555    5.3207 C   0  0  0  0  0  0  0  0  0  0  0  0
    6.5857   18.8342    5.2746 C   0  0  1  0  0  0  0  0  0  0  0  0
    7.4265   18.3699    4.0904 C   0  0  0  0  0  0  0  0  0  0  0  0
    6.4278   17.6609    3.2084 C   0  0  0  0  0  0  0  0  0  0  0  0
    6.6273   17.3207    2.0531 O   0  0  0  0  0  0  0  0  0  0  0  0
    6.1376   20.1700    5.0343 O   0  0  0  0  0  0  0  0  0  0  0  0
    6.9117   20.7582    5.0587 H   0  0  0  0  0  0  0  0  0  0  0  0
  1  2  1  0  0  0  0
  2  3  1  0  0  0  0
  3  4  1  0  0  0  0
  3  7  1  0  0  0  0
  4  5  1  0  0  0  0
  5  6  1  0  0  0  0
  5  9  1  6  0  0  0
  6  7  1  0  0  0  0
  7  8  2  0  0  0  0
  9 10  1  0  0  0  0
M  END
>  <CHROM.0>
-63.76867823,54.83641883,-65.72086842,-46.60482830,-60.03909209,-63.41064832
-68.53400934,-61.09362836,-168.15176231

>  <CHROM.1>
-88.87467079,177.18854622,5.82181895,17.73697841,4.00537026,2.18429445,-0.67490193
-2.30190926

>  <Name>
P107841297

>  <RI>
3.1908e+07

>  <Rbt.Current_Directory>
/home/fstefaniak/projects/zuza/docking/adenine/4XNR

>  <Rbt.Executable>
rbdock ($Id: //depot/dev/client3/rdock/2013.1/src/exe/rbdock.cxx#4 $)

>  <Rbt.Library>
libRbt.so (2013.1, Build901 2013/11/27)

>  <Rbt.Parameter_File>
/home/fstefaniak/progs/rDock//data/scripts/dock_solv.prm

>  <Rbt.Receptor>
4xnr.prm

>  <SCORE>
-43.5146

>  <SCORE.INTER>
-23.7701

>  <SCORE.INTER.CONST>
1

>  <SCORE.INTER.POLAR>
-2.09684

>  <SCORE.INTER.ROT>
1

>  <SCORE.INTER.SOLV>
10.3476

>  <SCORE.INTER.VDW>
-16.5732

>  <SCORE.INTER.norm>
-2.64112

>  <SCORE.INTRA>
0.372883

>  <SCORE.INTRA.DIHEDRAL>
0.64184

>  <SCORE.INTRA.DIHEDRAL.0>
2.19695

>  <SCORE.INTRA.POLAR>
0

>  <SCORE.INTRA.POLAR.0>
0

>  <SCORE.INTRA.REPUL>
0

>  <SCORE.INTRA.REPUL.0>
0

>  <SCORE.INTRA.SOLV>
-0.0151268

>  <SCORE.INTRA.SOLV.lig_0>
-11.1596

>  <SCORE.INTRA.VDW>
0.059526

>  <SCORE.INTRA.VDW.0>
-0.156765

>  <SCORE.INTRA.norm>
0.0414314

>  <SCORE.RESTR>
0

>  <SCORE.RESTR.CAVITY>
0

>  <SCORE.RESTR.norm>
0

>  <SCORE.SYSTEM>
-20.1173

>  <SCORE.SYSTEM.CONST>
0

>  <SCORE.SYSTEM.DIHEDRAL>
4.30993

>  <SCORE.SYSTEM.POLAR>
-2.97328

>  <SCORE.SYSTEM.SOLV>
0.365023

>  <SCORE.SYSTEM.VDW>
-5.05895

>  <SCORE.SYSTEM.norm>
-2.23526

>  <SCORE.heavy>
9

>  <SCORE.norm>
-4.83495

$$$$
P107917471
 OpenBabel12072022113D
libRbt.so/2013.1/901 2013/11/27
 13 13  0  0  0  0  0  0  0  0999 V2000
    5.5078   18.5522    5.1627 C   0  0  0  0  0  0  0  0  0  0  0  0
    5.2907   17.1366    4.6370 C   0  0  0  0  0  0  0  0  0  0  0  0
    5.6111   17.0051    3.1424 C   0  0  2  0  0  0  0  0  0  0  0  0
    6.9255   17.7252    2.7975 C   0  0  0  0  0  0  0  0  0  0  0  0
    6.9976   19.0522    3.3239 O   0  0  0  0  0  0  0  0  0  0  0  0
    6.8713   19.0789    4.7437 C   0  0  0  0  0  0  0  0  0  0  0  0
    4.4606   17.5270    2.2499 C   0  0  0  0  0  0  0  0  0  0  0  0
    3.3168   17.7443    2.6342 O   0  0  0  0  0  0  0  0  0  0  0  0
    4.7913   17.7018    0.9319 N   0  0  0  0  0  0  0  0  0  0  0  0
    5.7651   15.6035    2.8311 O   0  0  0  0  0  0  0  0  0  0  0  0
    4.4073   17.0748    0.2344 H   0  0  0  0  0  0  0  0  0  0  0  0
    5.0870   18.6254    0.6452 H   0  0  0  0  0  0  0  0  0  0  0  0
    6.4314   15.2532    3.4508 H   0  0  0  0  0  0  0  0  0  0  0  0
  1  2  1  0  0  0  0
  1  6  1  0  0  0  0
  2  3  1  0  0  0  0
  3  4  1  0  0  0  0
  3  7  1  6  0  0  0
  3 10  1  0  0  0  0
  4  5  1  0  0  0  0
  5  6  1  0  0  0  0
  7  8  2  0  0  0  0
  7  9  1  0  0  0  0
  9 11  1  0  0  0  0
  9 12  1  0  0  0  0
 10 13  1  0  0  0  0
M  END
>  <CHROM.0>
-58.42819669,-60.37143011,-69.56810099,-47.70502269,-57.61057341,-64.21814952
-67.57511669,-60.23300772,-167.97122789

>  <CHROM.1>
-15.35305620,-53.93794327,109.53532259,5.55526145,17.69989419,3.21057588
0.87105042,0.46688724,1.40150707

>  <Name>
P107917471

>  <RI>
1.00763e+07

>  <Rbt.Current_Directory>
/home/fstefaniak/projects/zuza/docking/adenine/4XNR

>  <Rbt.Executable>
rbdock ($Id: //depot/dev/client3/rdock/2013.1/src/exe/rbdock.cxx#4 $)

>  <Rbt.Library>
libRbt.so (2013.1, Build901 2013/11/27)

>  <Rbt.Parameter_File>
/home/fstefaniak/progs/rDock//data/scripts/dock_solv.prm

>  <Rbt.Receptor>
4xnr.prm

>  <SCORE>
-59.0559

>  <SCORE.INTER>
-38.5863

>  <SCORE.INTER.CONST>
1

>  <SCORE.INTER.POLAR>
-5.56291

>  <SCORE.INTER.ROT>
2

>  <SCORE.INTER.SOLV>
13.0869

>  <SCORE.INTER.VDW>
-16.4768

>  <SCORE.INTER.norm>
-3.85863

>  <SCORE.INTRA>
0.439973

>  <SCORE.INTRA.DIHEDRAL>
0.42189

>  <SCORE.INTRA.DIHEDRAL.0>
1.10441

>  <SCORE.INTRA.POLAR>
0

>  <SCORE.INTRA.POLAR.0>
0

>  <SCORE.INTRA.REPUL>
0

>  <SCORE.INTRA.REPUL.0>
0

>  <SCORE.INTRA.SOLV>
-0.219986

>  <SCORE.INTRA.SOLV.lig_0>
-13.339

>  <SCORE.INTRA.VDW>
0.339021

>  <SCORE.INTRA.VDW.0>
-0.242916

>  <SCORE.INTRA.norm>
0.0439973

>  <SCORE.RESTR>
0

>  <SCORE.RESTR.CAVITY>
0

>  <SCORE.RESTR.norm>
0

>  <SCORE.SYSTEM>
-20.9096

>  <SCORE.SYSTEM.CONST>
0

>  <SCORE.SYSTEM.DIHEDRAL>
4.26253

>  <SCORE.SYSTEM.POLAR>
-2.9699

>  <SCORE.SYSTEM.SOLV>
0.275356

>  <SCORE.SYSTEM.VDW>
-5.5527

>  <SCORE.SYSTEM.norm>
-2.09096

>  <SCORE.heavy>
10

>  <SCORE.norm>
-5.90559

$$$$
P107917471
 OpenBabel12072022113D
libRbt.so/2013.1/901 2013/11/27
 13 13  0  0  0  0  0  0  0  0999 V2000
    5.5110   18.5528    5.1776 C   0  0  0  0  0  0  0  0  0  0  0  0
    5.2643   17.1402    4.6571 C   0  0  0  0  0  0  0  0  0  0  0  0
    5.5975   16.9925    3.1667 C   0  0  2  0  0  0  0  0  0  0  0  0
    6.9331   17.6777    2.8325 C   0  0  0  0  0  0  0  0  0  0  0  0
    7.0326   19.0054    3.3527 O   0  0  0  0  0  0  0  0  0  0  0  0
    6.8917   19.0430    4.7708 C   0  0  0  0  0  0  0  0  0  0  0  0
    4.4702   17.5380    2.2590 C   0  0  0  0  0  0  0  0  0  0  0  0
    3.3210   17.7610    2.6235 O   0  0  0  0  0  0  0  0  0  0  0  0
    4.8289   17.7278    0.9504 N   0  0  0  0  0  0  0  0  0  0  0  0
    5.7198   15.5858    2.8645 O   0  0  0  0  0  0  0  0  0  0  0  0
    4.4642   17.1056    0.2385 H   0  0  0  0  0  0  0  0  0  0  0  0
    5.1251   18.6560    0.6795 H   0  0  0  0  0  0  0  0  0  0  0  0
    6.3772   15.2243    3.4873 H   0  0  0  0  0  0  0  0  0  0  0  0
  1  2  1  0  0  0  0
  1  6  1  0  0  0  0
  2  3  1  0  0  0  0
  3  4  1  0  0  0  0
  3  7  1  6  0  0  0
  3 10  1  0  0  0  0
  4  5  1  0  0  0  0
  5  6  1  0  0  0  0
  7  8  2  0  0  0  0
  7  9  1  0  0  0  0
  9 11  1  0  0  0  0
  9 12  1  0  0  0  0
 10 13  1  0  0  0  0
M  END
>  <CHROM.0>
-59.50864763,-64.72320372,-66.56380008,-45.21745412,-175.05988106,58.99422294
-68.33314019,-63.67546376,-168.12802696

>  <CHROM.1>
-16.86233352,-54.51076118,108.59592734,5.55862887,17.68957269,3.23072067
0.85370776,0.48841952,1.44105319

>  <Name>
P107917471

>  <RI>
1.00763e+07

>  <Rbt.Current_Directory>
/home/fstefaniak/projects/zuza/docking/adenine/4XNR

>  <Rbt.Executable>
rbdock ($Id: //depot/dev/client3/rdock/2013.1/src/exe/rbdock.cxx#4 $)

>  <Rbt.Library>
libRbt.so (2013.1, Build901 2013/11/27)

>  <Rbt.Parameter_File>
/home/fstefaniak/progs/rDock//data/scripts/dock_solv.prm

>  <Rbt.Receptor>
4xnr.prm

>  <SCORE>
-58.0486

>  <SCORE.INTER>
-38.6745

>  <SCORE.INTER.CONST>
1

>  <SCORE.INTER.POLAR>
-5.57071

>  <SCORE.INTER.ROT>
2

>  <SCORE.INTER.SOLV>
13.0086

>  <SCORE.INTER.VDW>
-16.4835

>  <SCORE.INTER.norm>
-3.86745

>  <SCORE.INTRA>
0.492844

>  <SCORE.INTRA.DIHEDRAL>
0.49636

>  <SCORE.INTRA.DIHEDRAL.0>
1.10441

>  <SCORE.INTRA.POLAR>
0

>  <SCORE.INTRA.POLAR.0>
0

>  <SCORE.INTRA.REPUL>
0

>  <SCORE.INTRA.REPUL.0>
0

>  <SCORE.INTRA.SOLV>
-0.220359

>  <SCORE.INTRA.SOLV.lig_0>
-13.339

>  <SCORE.INTRA.VDW>
0.354844

>  <SCORE.INTRA.VDW.0>
-0.242916

>  <SCORE.INTRA.norm>
0.0492844

>  <SCORE.RESTR>
0

>  <SCORE.RESTR.CAVITY>
0

>  <SCORE.RESTR.norm>
0

>  <SCORE.SYSTEM>
-19.867

>  <SCORE.SYSTEM.CONST>
0

>  <SCORE.SYSTEM.DIHEDRAL>
4.54777

>  <SCORE.SYSTEM.POLAR>
-3.00441

>  <SCORE.SYSTEM.SOLV>
-0.0252952

>  <SCORE.SYSTEM.VDW>
-4.73743

>  <SCORE.SYSTEM.norm>
-1.9867

>  <SCORE.heavy>
10

>  <SCORE.norm>
-5.80486

$$$$
P107917471
 OpenBabel12072022113D
libRbt.so/2013.1/901 2013/11/27
 13 13  0  0  0  0  0  0  0  0999 V2000
    5.4990   18.5521    5.1763 C   0  0  0  0  0  0  0  0  0  0  0  0
    5.2733   17.1391    4.6473 C   0  0  0  0  0  0  0  0  0  0  0  0
    5.6067   17.0058    3.1556 C   0  0  2  0  0  0  0  0  0  0  0  0
    6.9312   17.7135    2.8240 C   0  0  0  0  0  0  0  0  0  0  0  0
    7.0110   19.0393    3.3524 O   0  0  0  0  0  0  0  0  0  0  0  0
    6.8714   19.0660    4.7709 C   0  0  0  0  0  0  0  0  0  0  0  0
    4.4699   17.5395    2.2527 C   0  0  0  0  0  0  0  0  0  0  0  0
    3.3247   17.7678    2.6264 O   0  0  0  0  0  0  0  0  0  0  0  0
    4.8147   17.7117    0.9379 N   0  0  0  0  0  0  0  0  0  0  0  0
    5.7502   15.6030    2.8445 O   0  0  0  0  0  0  0  0  0  0  0  0
    4.4143   17.1026    0.2339 H   0  0  0  0  0  0  0  0  0  0  0  0
    5.1430   18.6267    0.6594 H   0  0  0  0  0  0  0  0  0  0  0  0
    6.3749   15.2365    3.4972 H   0  0  0  0  0  0  0  0  0  0  0  0
  1  2  1  0  0  0  0
  1  6  1  0  0  0  0
  2  3  1  0  0  0  0
  3  4  1  0  0  0  0
  3  7  1  6  0  0  0
  3 10  1  0  0  0  0
  4  5  1  0  0  0  0
  5  6  1  0  0  0  0
  7  8  2  0  0  0  0
  7  9  1  0  0  0  0
  9 11  1  0  0  0  0
  9 12  1  0  0  0  0
 10 13  1  0  0  0  0
M  END
>  <CHROM.0>
-57.01785081,-60.88422492,-64.97423741,-45.48602168,-56.86558074,60.83862491
-67.27876485,-61.82603623,-165.61573264

>  <CHROM.1>
-15.32713967,-51.29855207,110.94699814,5.55668080,17.70099497,3.22417060
0.87620315,0.46403880,1.40624267

>  <Name>
P107917471

>  <RI>
1.00763e+07

>  <Rbt.Current_Directory>
/home/fstefaniak/projects/zuza/docking/adenine/4XNR

>  <Rbt.Executable>
rbdock ($Id: //depot/dev/client3/rdock/2013.1/src/exe/rbdock.cxx#4 $)

>  <Rbt.Library>
libRbt.so (2013.1, Build901 2013/11/27)

>  <Rbt.Parameter_File>
/home/fstefaniak/progs/rDock//data/scripts/dock_solv.prm

>  <Rbt.Receptor>
4xnr.prm

>  <SCORE>
-57.7074

>  <SCORE.INTER>
-38.648

>  <SCORE.INTER.CONST>
1

>  <SCORE.INTER.POLAR>
-5.52261

>  <SCORE.INTER.ROT>
2

>  <SCORE.INTER.SOLV>
13.0549

>  <SCORE.INTER.VDW>
-16.6416

>  <SCORE.INTER.norm>
-3.8648

>  <SCORE.INTRA>
0.563406

>  <SCORE.INTRA.DIHEDRAL>
0.603003

>  <SCORE.INTRA.DIHEDRAL.0>
1.10441

>  <SCORE.INTRA.POLAR>
0

>  <SCORE.INTRA.POLAR.0>
0

>  <SCORE.INTRA.REPUL>
0

>  <SCORE.INTRA.REPUL.0>
0

>  <SCORE.INTRA.SOLV>
-0.219913

>  <SCORE.INTRA.SOLV.lig_0>
-13.339

>  <SCORE.INTRA.VDW>
0.371861

>  <SCORE.INTRA.VDW.0>
-0.242916

>  <SCORE.INTRA.norm>
0.0563406

>  <SCORE.RESTR>
0

>  <SCORE.RESTR.CAVITY>
0

>  <SCORE.RESTR.norm>
0

>  <SCORE.SYSTEM>
-19.6228

>  <SCORE.SYSTEM.CONST>
0

>  <SCORE.SYSTEM.DIHEDRAL>
4.45634

>  <SCORE.SYSTEM.POLAR>
-3.02722

>  <SCORE.SYSTEM.SOLV>
0.164997

>  <SCORE.SYSTEM.VDW>
-4.5316

>  <SCORE.SYSTEM.norm>
-1.96228

>  <SCORE.heavy>
10

>  <SCORE.norm>
-5.77074

$$$$
P107919697
 OpenBabel12072022113D
libRbt.so/2013.1/901 2013/11/27
 13 12  0  0  0  0  0  0  0  0999 V2000
    4.5194   16.0007    3.3592 C   0  0  0  0  0  0  0  0  0  0  0  0
    5.3137   17.2197    3.7925 C   0  0  0  0  0  0  0  0  0  0  0  0
    6.1564   17.7810    2.6667 C   0  0  0  0  0  0  0  0  0  0  0  0
    6.2313   17.2862    1.5446 O   0  0  0  0  0  0  0  0  0  0  0  0
    6.8683   18.9058    3.0352 N   0  0  0  0  0  0  0  0  0  0  0  0
    7.8683   18.7502    4.0140 N   0  0  0  0  0  0  0  0  0  0  0  0
    7.5114   19.0436    5.3055 C   0  0  0  0  0  0  0  0  0  0  0  0
    6.4011   19.4303    5.6491 O   0  0  0  0  0  0  0  0  0  0  0  0
    8.5271   18.8770    6.1906 N   0  0  0  0  0  0  0  0  0  0  0  0
    6.4640   19.8399    2.9684 H   0  0  0  0  0  0  0  0  0  0  0  0
    8.4730   17.9433    3.8655 H   0  0  0  0  0  0  0  0  0  0  0  0
    8.7033   19.6346    6.8354 H   0  0  0  0  0  0  0  0  0  0  0  0
    8.5650   17.9501    6.5968 H   0  0  0  0  0  0  0  0  0  0  0  0
  1  2  1  0  0  0  0
  2  3  1  0  0  0  0
  3  4  2  0  0  0  0
  3  5  1  0  0  0  0
  5  6  1  0  0  0  0
  5 10  1  0  0  0  0
  6  7  1  0  0  0  0
  6 11  1  0  0  0  0
  7  8  2  0  0  0  0
  7  9  1  0  0  0  0
  9 12  1  0  0  0  0
  9 13  1  0  0  0  0
M  END
>  <CHROM.0>
-57.16181023,-64.01264779,-64.37706555,-45.79930814,-67.70519145,-175.92518118
-65.97895604,-64.05548774,-167.99138660

>  <CHROM.1>
-2.44025951,65.18446051,-96.17558001,-0.34797245,130.99422766,6.61204328
18.14670093,3.96864072,2.30249991,-0.64819128,-1.70275168

>  <Name>
P107919697

>  <RI>
2.22087e+07

>  <Rbt.Current_Directory>
/home/fstefaniak/projects/zuza/docking/adenine/4XNR

>  <Rbt.Executable>
rbdock ($Id: //depot/dev/client3/rdock/2013.1/src/exe/rbdock.cxx#4 $)

>  <Rbt.Library>
libRbt.so (2013.1, Build901 2013/11/27)

>  <Rbt.Parameter_File>
/home/fstefaniak/progs/rDock//data/scripts/dock_solv.prm

>  <Rbt.Receptor>
4xnr.prm

>  <SCORE>
-62.6816

>  <SCORE.INTER>
-41.2374

>  <SCORE.INTER.CONST>
1

>  <SCORE.INTER.POLAR>
-7.20356

>  <SCORE.INTER.ROT>
5

>  <SCORE.INTER.SOLV>
14.6144

>  <SCORE.INTER.VDW>
-15.2845

>  <SCORE.INTER.norm>
-4.58193

>  <SCORE.INTRA>
-0.85208

>  <SCORE.INTRA.DIHEDRAL>
-1.07753

>  <SCORE.INTRA.DIHEDRAL.0>
4.0247

>  <SCORE.INTRA.POLAR>
0

>  <SCORE.INTRA.POLAR.0>
0

>  <SCORE.INTRA.REPUL>
0

>  <SCORE.INTRA.REPUL.0>
0

>  <SCORE.INTRA.SOLV>
0.428673

>  <SCORE.INTRA.SOLV.lig_0>
-21.1684

>  <SCORE.INTRA.VDW>
-0.527653

>  <SCORE.INTRA.VDW.0>
0.431183

>  <SCORE.INTRA.norm>
-0.0946755

>  <SCORE.RESTR>
0

>  <SCORE.RESTR.CAVITY>
0

>  <SCORE.RESTR.norm>
0

>  <SCORE.SYSTEM>
-20.5922

>  <SCORE.SYSTEM.CONST>
0

>  <SCORE.SYSTEM.DIHEDRAL>
4.47525

>  <SCORE.SYSTEM.POLAR>
-3.01605

>  <SCORE.SYSTEM.SOLV>
0.163362

>  <SCORE.SYSTEM.VDW>
-5.2208

>  <SCORE.SYSTEM.norm>
-2.28802

>  <SCORE.heavy>
9

>  <SCORE.norm>
-6.96462

$$$$
P107919697
 OpenBabel12072022113D
libRbt.so/2013.1/901 2013/11/27
 13 12  0  0  0  0  0  0  0  0999 V2000
    4.7369   15.9360    3.7287 C   0  0  0  0  0  0  0  0  0  0  0  0
    4.9660   17.4299    3.5871 C   0  0  0  0  0  0  0  0  0  0  0  0
    6.1494   17.7435    2.6960 C   0  0  0  0  0  0  0  0  0  0  0  0
    6.4894   17.0629    1.7313 O   0  0  0  0  0  0  0  0  0  0  0  0
    6.8404   18.8711    3.0944 N   0  0  0  0  0  0  0  0  0  0  0  0
    7.8397   18.7091    4.0728 N   0  0  0  0  0  0  0  0  0  0  0  0
    7.4686   18.9469    5.3718 C   0  0  0  0  0  0  0  0  0  0  0  0
    6.3330   19.2364    5.7284 O   0  0  0  0  0  0  0  0  0  0  0  0
    8.4998   18.8442    6.2485 N   0  0  0  0  0  0  0  0  0  0  0  0
    6.4202   19.7994    3.0487 H   0  0  0  0  0  0  0  0  0  0  0  0
    8.4675   17.9251    3.8997 H   0  0  0  0  0  0  0  0  0  0  0  0
    8.6787   19.6416    6.8426 H   0  0  0  0  0  0  0  0  0  0  0  0
    8.5534   17.9444    6.7103 H   0  0  0  0  0  0  0  0  0  0  0  0
  1  2  1  0  0  0  0
  2  3  1  0  0  0  0
  3  4  2  0  0  0  0
  3  5  1  0  0  0  0
  5  6  1  0  0  0  0
  5 10  1  0  0  0  0
  6  7  1  0  0  0  0
  6 11  1  0  0  0  0
  7  8  2  0  0  0  0
  7  9  1  0  0  0  0
  9 12  1  0  0  0  0
  9 13  1  0  0  0  0
M  END
>  <CHROM.0>
-64.80929330,-64.50260811,-74.88389590,-46.73024633,179.70861773,-63.41549234
-174.14370602,-175.00055234,-167.90748848

>  <CHROM.1>
32.90576879,85.90890308,-95.30097428,2.81100003,124.76245203,6.60881323,18.08653500
4.05081967,2.25371591,-0.59694136,-1.76736584

>  <Name>
P107919697

>  <RI>
2.22087e+07

>  <Rbt.Current_Directory>
/home/fstefaniak/projects/zuza/docking/adenine/4XNR

>  <Rbt.Executable>
rbdock ($Id: //depot/dev/client3/rdock/2013.1/src/exe/rbdock.cxx#4 $)

>  <Rbt.Library>
libRbt.so (2013.1, Build901 2013/11/27)

>  <Rbt.Parameter_File>
/home/fstefaniak/progs/rDock//data/scripts/dock_solv.prm

>  <Rbt.Receptor>
4xnr.prm

>  <SCORE>
-62.4728

>  <SCORE.INTER>
-41.2147

>  <SCORE.INTER.CONST>
1

>  <SCORE.INTER.POLAR>
-7.13579

>  <SCORE.INTER.ROT>
5

>  <SCORE.INTER.SOLV>
14.511

>  <SCORE.INTER.VDW>
-15.4608

>  <SCORE.INTER.norm>
-4.57941

>  <SCORE.INTRA>
-0.945241

>  <SCORE.INTRA.DIHEDRAL>
-0.0783313

>  <SCORE.INTRA.DIHEDRAL.0>
4.0247

>  <SCORE.INTRA.POLAR>
0

>  <SCORE.INTRA.POLAR.0>
0

>  <SCORE.INTRA.REPUL>
0

>  <SCORE.INTRA.REPUL.0>
0

>  <SCORE.INTRA.SOLV>
0.489285

>  <SCORE.INTRA.SOLV.lig_0>
-21.1684

>  <SCORE.INTRA.VDW>
-1.15072

>  <SCORE.INTRA.VDW.0>
0.431183

>  <SCORE.INTRA.norm>
-0.105027

>  <SCORE.RESTR>
0

>  <SCORE.RESTR.CAVITY>
0

>  <SCORE.RESTR.norm>
0

>  <SCORE.SYSTEM>
-20.3129

>  <SCORE.SYSTEM.CONST>
0

>  <SCORE.SYSTEM.DIHEDRAL>
5.07804

>  <SCORE.SYSTEM.POLAR>
-2.92441

>  <SCORE.SYSTEM.SOLV>
-0.0985514

>  <SCORE.SYSTEM.VDW>
-5.45369

>  <SCORE.SYSTEM.norm>
-2.25698

>  <SCORE.heavy>
9

>  <SCORE.norm>
-6.94142

$$$$
P107919697
 OpenBabel12072022113D
libRbt.so/2013.1/901 2013/11/27
 13 12  0  0  0  0  0  0  0  0999 V2000
    4.7943   16.0555    3.8166 C   0  0  0  0  0  0  0  0  0  0  0  0
    4.8896   17.5225    3.4380 C   0  0  0  0  0  0  0  0  0  0  0  0
    6.1343   17.8232    2.6298 C   0  0  0  0  0  0  0  0  0  0  0  0
    6.5164   17.1549    1.6722 O   0  0  0  0  0  0  0  0  0  0  0  0
    6.8279   18.9225    3.0969 N   0  0  0  0  0  0  0  0  0  0  0  0
    7.8386   18.6962    4.0504 N   0  0  0  0  0  0  0  0  0  0  0  0
    7.5060   18.9263    5.3611 C   0  0  0  0  0  0  0  0  0  0  0  0
    6.3754   19.1832    5.7566 O   0  0  0  0  0  0  0  0  0  0  0  0
    8.5696   18.8563    6.2017 N   0  0  0  0  0  0  0  0  0  0  0  0
    6.4055   19.8507    3.1198 H   0  0  0  0  0  0  0  0  0  0  0  0
    8.4255   17.8875    3.8498 H   0  0  0  0  0  0  0  0  0  0  0  0
    8.7202   19.6425    6.8182 H   0  0  0  0  0  0  0  0  0  0  0  0
    8.6916   17.9463    6.6289 H   0  0  0  0  0  0  0  0  0  0  0  0
  1  2  1  0  0  0  0
  2  3  1  0  0  0  0
  3  4  2  0  0  0  0
  3  5  1  0  0  0  0
  5  6  1  0  0  0  0
  5 10  1  0  0  0  0
  6  7  1  0  0  0  0
  6 11  1  0  0  0  0
  7  8  2  0  0  0  0
  7  9  1  0  0  0  0
  9 12  1  0  0  0  0
  9 13  1  0  0  0  0
M  END
>  <CHROM.0>
-60.76869198,50.55504446,-61.56770462,-48.60241655,-56.75185274,-173.70565211
-69.44500450,-59.75787513,-167.66412683

>  <CHROM.1>
46.78566532,91.15717029,-99.34534202,7.38136750,127.51771523,6.62466744,18.12582546
4.02637781,2.25565877,-0.56914049,-1.73776100

>  <Name>
P107919697

>  <RI>
2.22087e+07

>  <Rbt.Current_Directory>
/home/fstefaniak/projects/zuza/docking/adenine/4XNR

>  <Rbt.Executable>
rbdock ($Id: //depot/dev/client3/rdock/2013.1/src/exe/rbdock.cxx#4 $)

>  <Rbt.Library>
libRbt.so (2013.1, Build901 2013/11/27)

>  <Rbt.Parameter_File>
/home/fstefaniak/progs/rDock//data/scripts/dock_solv.prm

>  <Rbt.Receptor>
4xnr.prm

>  <SCORE>
-61.5688

>  <SCORE.INTER>
-40.8823

>  <SCORE.INTER.CONST>
1

>  <SCORE.INTER.POLAR>
-7.04029

>  <SCORE.INTER.ROT>
5

>  <SCORE.INTER.SOLV>
14.5269

>  <SCORE.INTER.VDW>
-15.5628

>  <SCORE.INTER.norm>
-4.54247

>  <SCORE.INTRA>
-0.961497

>  <SCORE.INTRA.DIHEDRAL>
0.456556

>  <SCORE.INTRA.DIHEDRAL.0>
4.0247

>  <SCORE.INTRA.POLAR>
0

>  <SCORE.INTRA.POLAR.0>
0

>  <SCORE.INTRA.REPUL>
0

>  <SCORE.INTRA.REPUL.0>
0

>  <SCORE.INTRA.SOLV>
0.508587

>  <SCORE.INTRA.SOLV.lig_0>
-21.1684

>  <SCORE.INTRA.VDW>
-1.44407

>  <SCORE.INTRA.VDW.0>
0.431183

>  <SCORE.INTRA.norm>
-0.106833

>  <SCORE.RESTR>
0

>  <SCORE.RESTR.CAVITY>
0

>  <SCORE.RESTR.norm>
0

>  <SCORE.SYSTEM>
-19.7251

>  <SCORE.SYSTEM.CONST>
0

>  <SCORE.SYSTEM.DIHEDRAL>
4.47362

>  <SCORE.SYSTEM.POLAR>
-2.9893

>  <SCORE.SYSTEM.SOLV>
0.280825

>  <SCORE.SYSTEM.VDW>
-4.77053

>  <SCORE.SYSTEM.norm>
-2.19167

>  <SCORE.heavy>
9

>  <SCORE.norm>
-6.84098

$$$$
P107971104
 OpenBabel12072022113D
libRbt.so/2013.1/901 2013/11/27
 15 15  0  0  0  0  0  0  0  0999 V2000
    6.2595   19.0534    5.7765 C   0  0  0  0  0  0  0  0  0  0  0  0
    5.3351   17.9027    5.3893 C   0  0  0  0  0  0  0  0  0  0  0  0
    5.1137   17.8753    3.8723 C   0  0  1  0  0  0  0  0  0  0  0  0
    6.4721   17.8889    3.1640 C   0  0  0  0  0  0  0  0  0  0  0  0
    7.2411   19.0303    3.5569 O   0  0  0  0  0  0  0  0  0  0  0  0
    7.5388   19.0241    4.9519 C   0  0  0  0  0  0  0  0  0  0  0  0
    4.3093   16.6563    3.4419 C   0  0  0  0  0  0  0  0  0  0  0  0
    4.6646   15.9191    2.5192 O   0  0  0  0  0  0  0  0  0  0  0  0
    3.1333   16.3562    4.0886 N   0  0  0  0  0  0  0  0  0  0  0  0
    1.9677   15.9028    3.5262 C   0  0  0  0  0  0  0  0  0  0  0  0
    1.7278   14.7772    3.1192 O   0  0  0  0  0  0  0  0  0  0  0  0
    1.0328   16.8890    3.4104 N   0  0  0  0  0  0  0  0  0  0  0  0
    3.3108   15.9857    5.0100 H   0  0  0  0  0  0  0  0  0  0  0  0
    1.1705   17.7415    3.9353 H   0  0  0  0  0  0  0  0  0  0  0  0
    0.7248   17.0348    2.4547 H   0  0  0  0  0  0  0  0  0  0  0  0
  1  2  1  0  0  0  0
  1  6  1  0  0  0  0
  2  3  1  0  0  0  0
  3  4  1  0  0  0  0
  3  7  1  1  0  0  0
  4  5  1  0  0  0  0
  5  6  1  0  0  0  0
  7  8  2  0  0  0  0
  7  9  1  0  0  0  0
  9 10  1  0  0  0  0
  9 13  1  0  0  0  0
 10 11  2  0  0  0  0
 10 12  1  0  0  0  0
 12 14  1  0  0  0  0
 12 15  1  0  0  0  0
M  END
>  <CHROM.0>
-57.41767962,-63.03803783,-67.20678249,-48.83586108,-63.11259941,-64.86085644
-64.89941882,-58.92504267,-166.71196218

>  <CHROM.1>
-130.64820266,140.08327776,75.64740336,-15.38295307,4.54664328,17.26267114
3.88079614,0.48529516,0.32433328,0.93297814

>  <Name>
P107971104

>  <RI>
1.34432e+07

>  <Rbt.Current_Directory>
/home/fstefaniak/projects/zuza/docking/adenine/4XNR

>  <Rbt.Executable>
rbdock ($Id: //depot/dev/client3/rdock/2013.1/src/exe/rbdock.cxx#4 $)

>  <Rbt.Library>
libRbt.so (2013.1, Build901 2013/11/27)

>  <Rbt.Parameter_File>
/home/fstefaniak/progs/rDock//data/scripts/dock_solv.prm

>  <Rbt.Receptor>
4xnr.prm

>  <SCORE>
-58.2108

>  <SCORE.INTER>
-37.3767

>  <SCORE.INTER.CONST>
1

>  <SCORE.INTER.POLAR>
-4.73533

>  <SCORE.INTER.ROT>
4

>  <SCORE.INTER.SOLV>
12.7263

>  <SCORE.INTER.VDW>
-19.6421

>  <SCORE.INTER.norm>
-3.11472

>  <SCORE.INTRA>
-0.011579

>  <SCORE.INTRA.DIHEDRAL>
0.202453

>  <SCORE.INTRA.DIHEDRAL.0>
1.99833

>  <SCORE.INTRA.POLAR>
0

>  <SCORE.INTRA.POLAR.0>
0

>  <SCORE.INTRA.REPUL>
0

>  <SCORE.INTRA.REPUL.0>
0

>  <SCORE.INTRA.SOLV>
-0.128927

>  <SCORE.INTRA.SOLV.lig_0>
-18.0217

>  <SCORE.INTRA.VDW>
-0.0483421

>  <SCORE.INTRA.VDW.0>
-0.38228

>  <SCORE.INTRA.norm>
-0.000964913

>  <SCORE.RESTR>
0

>  <SCORE.RESTR.CAVITY>
0

>  <SCORE.RESTR.norm>
0

>  <SCORE.SYSTEM>
-20.8225

>  <SCORE.SYSTEM.CONST>
0

>  <SCORE.SYSTEM.DIHEDRAL>
4.06397

>  <SCORE.SYSTEM.POLAR>
-2.96234

>  <SCORE.SYSTEM.SOLV>
0.276331

>  <SCORE.SYSTEM.VDW>
-5.454

>  <SCORE.SYSTEM.norm>
-1.73521

>  <SCORE.heavy>
12

>  <SCORE.norm>
-4.8509

$$$$
P107971104
 OpenBabel12072022113D
libRbt.so/2013.1/901 2013/11/27
 15 15  0  0  0  0  0  0  0  0999 V2000
    6.1028   18.6643    6.0755 C   0  0  0  0  0  0  0  0  0  0  0  0
    5.2380   17.6729    5.3024 C   0  0  0  0  0  0  0  0  0  0  0  0
    5.1060   18.1007    3.8359 C   0  0  1  0  0  0  0  0  0  0  0  0
    6.5022   18.3426    3.2535 C   0  0  0  0  0  0  0  0  0  0  0  0
    7.2120   19.3217    4.0192 O   0  0  0  0  0  0  0  0  0  0  0  0
    7.4281   18.8994    5.3644 C   0  0  0  0  0  0  0  0  0  0  0  0
    4.3656   17.0585    3.0090 C   0  0  0  0  0  0  0  0  0  0  0  0
    4.9437   16.2960    2.2309 O   0  0  0  0  0  0  0  0  0  0  0  0
    2.9981   16.9559    3.1130 N   0  0  0  0  0  0  0  0  0  0  0  0
    2.2802   15.9103    3.6342 C   0  0  0  0  0  0  0  0  0  0  0  0
    2.4602   14.7179    3.4446 O   0  0  0  0  0  0  0  0  0  0  0  0
    1.2435   16.3334    4.4129 N   0  0  0  0  0  0  0  0  0  0  0  0
    2.5785   17.8586    3.2771 H   0  0  0  0  0  0  0  0  0  0  0  0
    1.2355   17.2979    4.7144 H   0  0  0  0  0  0  0  0  0  0  0  0
    0.3428   15.9893    4.0972 H   0  0  0  0  0  0  0  0  0  0  0  0
  1  2  1  0  0  0  0
  1  6  1  0  0  0  0
  2  3  1  0  0  0  0
  3  4  1  0  0  0  0
  3  7  1  6  0  0  0
  4  5  1  0  0  0  0
  5  6  1  0  0  0  0
  7  8  2  0  0  0  0
  7  9  1  0  0  0  0
  9 10  1  0  0  0  0
  9 13  1  0  0  0  0
 10 11  2  0  0  0  0
 10 12  1  0  0  0  0
 12 14  1  0  0  0  0
 12 15  1  0  0  0  0
M  END
>  <CHROM.0>
-57.23510128,64.49883105,-61.85843718,-46.56151122,-57.28748866,-60.22446031
-64.28625819,-176.93725800,-167.46363781

>  <CHROM.1>
-104.15288434,-113.06429543,-43.93735477,-14.72715365,4.63584449,17.34710197
3.96620060,0.40585921,0.46960800,1.17836836

>  <Name>
P107971104

>  <RI>
1.34432e+07

>  <Rbt.Current_Directory>
/home/fstefaniak/projects/zuza/docking/adenine/4XNR

>  <Rbt.Executable>
rbdock ($Id: //depot/dev/client3/rdock/2013.1/src/exe/rbdock.cxx#4 $)

>  <Rbt.Library>
libRbt.so (2013.1, Build901 2013/11/27)

>  <Rbt.Parameter_File>
/home/fstefaniak/progs/rDock//data/scripts/dock_solv.prm

>  <Rbt.Receptor>
4xnr.prm

>  <SCORE>
-57.5221

>  <SCORE.INTER>
-37.7718

>  <SCORE.INTER.CONST>
1

>  <SCORE.INTER.POLAR>
-5.01494

>  <SCORE.INTER.ROT>
4

>  <SCORE.INTER.SOLV>
12.9242

>  <SCORE.INTER.VDW>
-19.0395

>  <SCORE.INTER.norm>
-3.14765

>  <SCORE.INTRA>
-0.0885421

>  <SCORE.INTRA.DIHEDRAL>
0.594958

>  <SCORE.INTRA.DIHEDRAL.0>
1.99833

>  <SCORE.INTRA.POLAR>
0

>  <SCORE.INTRA.POLAR.0>
0

>  <SCORE.INTRA.REPUL>
0

>  <SCORE.INTRA.REPUL.0>
0

>  <SCORE.INTRA.SOLV>
-0.161586

>  <SCORE.INTRA.SOLV.lig_0>
-18.0217

>  <SCORE.INTRA.VDW>
-0.305228

>  <SCORE.INTRA.VDW.0>
-0.38228

>  <SCORE.INTRA.norm>
-0.00737851

>  <SCORE.RESTR>
0

>  <SCORE.RESTR.CAVITY>
0

>  <SCORE.RESTR.norm>
0

>  <SCORE.SYSTEM>
-19.6617

>  <SCORE.SYSTEM.CONST>
0

>  <SCORE.SYSTEM.DIHEDRAL>
3.96624

>  <SCORE.SYSTEM.POLAR>
-3.00892

>  <SCORE.SYSTEM.SOLV>
0.230577

>  <SCORE.SYSTEM.VDW>
-4.477

>  <SCORE.SYSTEM.norm>
-1.63847

>  <SCORE.heavy>
12

>  <SCORE.norm>
-4.79351

$$$$
P107971104
 OpenBabel12072022113D
libRbt.so/2013.1/901 2013/11/27
 15 15  0  0  0  0  0  0  0  0999 V2000
    6.1289   18.9333    6.0338 C   0  0  0  0  0  0  0  0  0  0  0  0
    5.3787   17.6937    5.5551 C   0  0  0  0  0  0  0  0  0  0  0  0
    5.0924   17.7833    4.0514 C   0  0  1  0  0  0  0  0  0  0  0  0
    6.3966   18.0859    3.3067 C   0  0  0  0  0  0  0  0  0  0  0  0
    6.9953   19.2909    3.7949 O   0  0  0  0  0  0  0  0  0  0  0  0
    7.3563   19.1927    5.1714 C   0  0  0  0  0  0  0  0  0  0  0  0
    4.4693   16.5002    3.5187 C   0  0  0  0  0  0  0  0  0  0  0  0
    4.9392   15.8827    2.5601 O   0  0  0  0  0  0  0  0  0  0  0  0
    3.3324   16.0013    4.1102 N   0  0  0  0  0  0  0  0  0  0  0  0
    2.7804   14.7586    3.9336 C   0  0  0  0  0  0  0  0  0  0  0  0
    2.4757   14.2239    2.8793 O   0  0  0  0  0  0  0  0  0  0  0  0
    2.5422   14.1265    5.1185 N   0  0  0  0  0  0  0  0  0  0  0  0
    3.2191   16.3673    5.0436 H   0  0  0  0  0  0  0  0  0  0  0  0
    3.2166   13.4463    5.4407 H   0  0  0  0  0  0  0  0  0  0  0  0
    2.2051   14.7524    5.8423 H   0  0  0  0  0  0  0  0  0  0  0  0
  1  2  1  0  0  0  0
  1  6  1  0  0  0  0
  2  3  1  0  0  0  0
  3  4  1  0  0  0  0
  3  7  1  6  0  0  0
  4  5  1  0  0  0  0
  5  6  1  0  0  0  0
  7  8  2  0  0  0  0
  7  9  1  0  0  0  0
  9 10  1  0  0  0  0
  9 13  1  0  0  0  0
 10 11  2  0  0  0  0
 10 12  1  0  0  0  0
 12 14  1  0  0  0  0
 12 15  1  0  0  0  0
M  END
>  <CHROM.0>
-54.89876502,-71.07814859,-65.54659984,-48.52488941,-172.89421166,-60.07151632
-69.55152208,-176.92171726,-166.99505414

>  <CHROM.1>
-126.22075353,-167.13787330,-53.52162150,-98.56391930,4.81605729,16.84753367
4.16529092,0.34323637,0.79247839,1.30384332

>  <Name>
P107971104

>  <RI>
1.34432e+07

>  <Rbt.Current_Directory>
/home/fstefaniak/projects/zuza/docking/adenine/4XNR

>  <Rbt.Executable>
rbdock ($Id: //depot/dev/client3/rdock/2013.1/src/exe/rbdock.cxx#4 $)

>  <Rbt.Library>
libRbt.so (2013.1, Build901 2013/11/27)

>  <Rbt.Parameter_File>
/home/fstefaniak/progs/rDock//data/scripts/dock_solv.prm

>  <Rbt.Receptor>
4xnr.prm

>  <SCORE>
-57.0537

>  <SCORE.INTER>
-36.9217

>  <SCORE.INTER.CONST>
1

>  <SCORE.INTER.POLAR>
-4.7024

>  <SCORE.INTER.ROT>
4

>  <SCORE.INTER.SOLV>
13.1405

>  <SCORE.INTER.VDW>
-19.5866

>  <SCORE.INTER.norm>
-3.0768

>  <SCORE.INTRA>
0.471106

>  <SCORE.INTRA.DIHEDRAL>
0.0325165

>  <SCORE.INTRA.DIHEDRAL.0>
1.99833

>  <SCORE.INTRA.POLAR>
0

>  <SCORE.INTRA.POLAR.0>
0

>  <SCORE.INTRA.REPUL>
0

>  <SCORE.INTRA.REPUL.0>
0

>  <SCORE.INTRA.SOLV>
-0.121906

>  <SCORE.INTRA.SOLV.lig_0>
-18.0217

>  <SCORE.INTRA.VDW>
0.515801

>  <SCORE.INTRA.VDW.0>
-0.38228

>  <SCORE.INTRA.norm>
0.0392588

>  <SCORE.RESTR>
0

>  <SCORE.RESTR.CAVITY>
0

>  <SCORE.RESTR.norm>
0

>  <SCORE.SYSTEM>
-20.6031

>  <SCORE.SYSTEM.CONST>
0

>  <SCORE.SYSTEM.DIHEDRAL>
5.00163

>  <SCORE.SYSTEM.POLAR>
-2.99039

>  <SCORE.SYSTEM.SOLV>
-0.0313799

>  <SCORE.SYSTEM.VDW>
-5.4242

>  <SCORE.SYSTEM.norm>
-1.71693

>  <SCORE.heavy>
12

>  <SCORE.norm>
-4.75447

$$$$
P107971175
 OpenBabel12072022113D
libRbt.so/2013.1/901 2013/11/27
 14 14  0  0  0  0  0  0  0  0999 V2000
    3.5336   13.8352    5.0296 C   0  0  0  0  0  0  0  0  0  0  0  0
    3.3518   12.6448    5.9432 C   0  0  0  0  0  0  0  0  0  0  0  0
    3.4171   11.4863    5.1056 O   0  0  0  0  0  0  0  0  0  0  0  0
    3.1531   11.8874    3.7488 C   0  0  0  0  0  0  0  0  0  0  0  0
    2.8560   13.3787    3.7518 C   0  0  1  0  0  0  0  0  0  0  0  0
    1.3560   13.6484    3.7550 C   0  0  0  0  0  0  0  0  0  0  0  0
    0.5200   12.7560    3.9174 O   0  0  0  0  0  0  0  0  0  0  0  0
    0.9000   14.9407    3.6274 N   0  0  0  0  0  0  0  0  0  0  0  0
    1.5918   16.1201    3.7272 C   0  0  0  0  0  0  0  0  0  0  0  0
    2.8053   16.2510    3.7796 O   0  0  0  0  0  0  0  0  0  0  0  0
    0.7830   17.2146    3.6828 N   0  0  0  0  0  0  0  0  0  0  0  0
   -0.1052   15.0001    3.6334 H   0  0  0  0  0  0  0  0  0  0  0  0
    1.0970   18.0883    4.0792 H   0  0  0  0  0  0  0  0  0  0  0  0
    0.2626   17.3032    2.8170 H   0  0  0  0  0  0  0  0  0  0  0  0
  1  2  1  0  0  0  0
  1  5  1  0  0  0  0
  2  3  1  0  0  0  0
  3  4  1  0  0  0  0
  4  5  1  0  0  0  0
  5  6  1  1  0  0  0
  6  7  2  0  0  0  0
  6  8  1  0  0  0  0
  8  9  1  0  0  0  0
  8 12  1  0  0  0  0
  9 10  2  0  0  0  0
  9 11  1  0  0  0  0
 11 13  1  0  0  0  0
 11 14  1  0  0  0  0
M  END
>  <CHROM.0>
-63.62530512,-65.22160720,-63.99480877,-47.38378250,-59.93299197,-63.25770599
-71.00860372,-60.15650991,-167.99614744

>  <CHROM.1>
-105.07369585,157.17891120,2.18839052,14.03006379,4.19235200,-1.14205709
-0.41630179,-0.08070227

>  <Name>
P107971175

>  <RI>
1.00763e+07

>  <Rbt.Current_Directory>
/home/fstefaniak/projects/zuza/docking/adenine/4XNR

>  <Rbt.Executable>
rbdock ($Id: //depot/dev/client3/rdock/2013.1/src/exe/rbdock.cxx#4 $)

>  <Rbt.Library>
libRbt.so (2013.1, Build901 2013/11/27)

>  <Rbt.Parameter_File>
/home/fstefaniak/progs/rDock//data/scripts/dock_solv.prm

>  <Rbt.Receptor>
4xnr.prm

>  <SCORE>
-43.1324

>  <SCORE.INTER>
-22.7837

>  <SCORE.INTER.CONST>
1

>  <SCORE.INTER.POLAR>
-2.9929

>  <SCORE.INTER.ROT>
2

>  <SCORE.INTER.SOLV>
9.31154

>  <SCORE.INTER.VDW>
-13.25

>  <SCORE.INTER.norm>
-2.07125

>  <SCORE.INTRA>
0.542162

>  <SCORE.INTRA.DIHEDRAL>
0.261735

>  <SCORE.INTRA.DIHEDRAL.0>
1.06901

>  <SCORE.INTRA.POLAR>
0

>  <SCORE.INTRA.POLAR.0>
0

>  <SCORE.INTRA.REPUL>
0

>  <SCORE.INTRA.REPUL.0>
0

>  <SCORE.INTRA.SOLV>
0.127499

>  <SCORE.INTRA.SOLV.lig_0>
-19.2806

>  <SCORE.INTRA.VDW>
0.347545

>  <SCORE.INTRA.VDW.0>
-0.344215

>  <SCORE.INTRA.norm>
0.0492875

>  <SCORE.RESTR>
0

>  <SCORE.RESTR.CAVITY>
0

>  <SCORE.RESTR.norm>
0

>  <SCORE.SYSTEM>
-20.8908

>  <SCORE.SYSTEM.CONST>
0

>  <SCORE.SYSTEM.DIHEDRAL>
4.35971

>  <SCORE.SYSTEM.POLAR>
-2.95174

>  <SCORE.SYSTEM.SOLV>
0.262646

>  <SCORE.SYSTEM.VDW>
-5.62885

>  <SCORE.SYSTEM.norm>
-1.89916

>  <SCORE.heavy>
11

>  <SCORE.norm>
-3.92113

$$$$
P107971175
 OpenBabel12072022113D
libRbt.so/2013.1/901 2013/11/27
 14 14  0  0  0  0  0  0  0  0999 V2000
    6.2447   19.8459    5.0691 C   0  0  0  0  0  0  0  0  0  0  0  0
    7.6795   19.5517    5.4427 C   0  0  0  0  0  0  0  0  0  0  0  0
    8.1957   18.7084    4.4081 O   0  0  0  0  0  0  0  0  0  0  0  0
    7.0881   18.1025    3.7168 C   0  0  0  0  0  0  0  0  0  0  0  0
    5.8068   18.5588    4.3968 C   0  0  1  0  0  0  0  0  0  0  0  0
    5.3030   17.5199    5.3916 C   0  0  0  0  0  0  0  0  0  0  0  0
    5.0706   17.7879    6.5730 O   0  0  0  0  0  0  0  0  0  0  0  0
    5.0397   16.2400    4.9591 N   0  0  0  0  0  0  0  0  0  0  0  0
    4.9292   15.7608    3.6795 C   0  0  0  0  0  0  0  0  0  0  0  0
    5.2189   16.3539    2.6515 O   0  0  0  0  0  0  0  0  0  0  0  0
    4.5201   14.4629    3.6329 N   0  0  0  0  0  0  0  0  0  0  0  0
    4.7217   15.6375    5.7006 H   0  0  0  0  0  0  0  0  0  0  0  0
    3.5496   14.2354    3.7925 H   0  0  0  0  0  0  0  0  0  0  0  0
    4.9703   13.9185    2.9054 H   0  0  0  0  0  0  0  0  0  0  0  0
  1  2  1  0  0  0  0
  1  5  1  0  0  0  0
  2  3  1  0  0  0  0
  3  4  1  0  0  0  0
  4  5  1  0  0  0  0
  5  6  1  1  0  0  0
  6  7  2  0  0  0  0
  6  8  1  0  0  0  0
  8  9  1  0  0  0  0
  8 12  1  0  0  0  0
  9 10  2  0  0  0  0
  9 11  1  0  0  0  0
 11 13  1  0  0  0  0
 11 14  1  0  0  0  0
M  END
>  <CHROM.0>
-57.67170424,59.39747909,-65.00316148,-48.44300668,-57.17325688,-64.19734046
-67.17683523,-59.68733395,-168.82547486

>  <CHROM.1>
11.42252111,76.58264195,5.91965123,17.49940757,4.53177516,0.79878492,0.74611201
0.91092623

>  <Name>
P107971175

>  <RI>
1.00763e+07

>  <Rbt.Current_Directory>
/home/fstefaniak/projects/zuza/docking/adenine/4XNR

>  <Rbt.Executable>
rbdock ($Id: //depot/dev/client3/rdock/2013.1/src/exe/rbdock.cxx#4 $)

>  <Rbt.Library>
libRbt.so (2013.1, Build901 2013/11/27)

>  <Rbt.Parameter_File>
/home/fstefaniak/progs/rDock//data/scripts/dock_solv.prm

>  <Rbt.Receptor>
4xnr.prm

>  <SCORE>
-41.6764

>  <SCORE.INTER>
-22.3114

>  <SCORE.INTER.CONST>
1

>  <SCORE.INTER.POLAR>
-2.67985

>  <SCORE.INTER.ROT>
2

>  <SCORE.INTER.SOLV>
15.938

>  <SCORE.INTER.VDW>
-16.1874

>  <SCORE.INTER.norm>
-2.02831

>  <SCORE.INTRA>
0.638072

>  <SCORE.INTRA.DIHEDRAL>
0.0571959

>  <SCORE.INTRA.DIHEDRAL.0>
1.06901

>  <SCORE.INTRA.POLAR>
0

>  <SCORE.INTRA.POLAR.0>
0

>  <SCORE.INTRA.REPUL>
0

>  <SCORE.INTRA.REPUL.0>
0

>  <SCORE.INTRA.SOLV>
0.0724161

>  <SCORE.INTRA.SOLV.lig_0>
-19.2806

>  <SCORE.INTRA.VDW>
0.573266

>  <SCORE.INTRA.VDW.0>
-0.344215

>  <SCORE.INTRA.norm>
0.0580066

>  <SCORE.RESTR>
0

>  <SCORE.RESTR.CAVITY>
0

>  <SCORE.RESTR.norm>
0

>  <SCORE.SYSTEM>
-20.003

>  <SCORE.SYSTEM.CONST>
0

>  <SCORE.SYSTEM.DIHEDRAL>
3.80155

>  <SCORE.SYSTEM.POLAR>
-2.95782

>  <SCORE.SYSTEM.SOLV>
0.363403

>  <SCORE.SYSTEM.VDW>
-4.86425

>  <SCORE.SYSTEM.norm>
-1.81845

>  <SCORE.heavy>
11

>  <SCORE.norm>
-3.78876

$$$$
P107971175
 OpenBabel12072022113D
libRbt.so/2013.1/901 2013/11/27
 14 14  0  0  0  0  0  0  0  0999 V2000
    6.0966   19.6388    5.1056 C   0  0  0  0  0  0  0  0  0  0  0  0
    7.5789   19.3584    5.0118 C   0  0  0  0  0  0  0  0  0  0  0  0
    7.7885   18.7457    3.7356 O   0  0  0  0  0  0  0  0  0  0  0  0
    6.5331   18.2175    3.2702 C   0  0  0  0  0  0  0  0  0  0  0  0
    5.4903   18.4738    4.3469 C   0  0  1  0  0  0  0  0  0  0  0  0
    5.2830   17.2461    5.2259 C   0  0  0  0  0  0  0  0  0  0  0  0
    5.4913   17.2556    6.4417 O   0  0  0  0  0  0  0  0  0  0  0  0
    4.7926   16.0880    4.6669 N   0  0  0  0  0  0  0  0  0  0  0  0
    4.2137   15.8929    3.4396 C   0  0  0  0  0  0  0  0  0  0  0  0
    4.1760   16.6921    2.5163 O   0  0  0  0  0  0  0  0  0  0  0  0
    3.7180   14.6347    3.2811 N   0  0  0  0  0  0  0  0  0  0  0  0
    4.7046   15.3408    5.3363 H   0  0  0  0  0  0  0  0  0  0  0  0
    2.7207   14.4912    3.2190 H   0  0  0  0  0  0  0  0  0  0  0  0
    4.2707   14.0530    2.6611 H   0  0  0  0  0  0  0  0  0  0  0  0
  1  2  1  0  0  0  0
  1  5  1  0  0  0  0
  2  3  1  0  0  0  0
  3  4  1  0  0  0  0
  4  5  1  0  0  0  0
  5  6  1  1  0  0  0
  6  7  2  0  0  0  0
  6  8  1  0  0  0  0
  8  9  1  0  0  0  0
  8 12  1  0  0  0  0
  9 10  2  0  0  0  0
  9 11  1  0  0  0  0
 11 13  1  0  0  0  0
 11 14  1  0  0  0  0
M  END
>  <CHROM.0>
-55.53089726,54.73321825,-68.20365501,-46.70438730,-177.76099028,-61.92678065
-68.29291694,-60.27185131,-167.48227797

>  <CHROM.1>
5.45311510,111.94184418,5.55955385,17.44283007,4.26273837,0.31935788,0.85945869
1.48984484

>  <Name>
P107971175

>  <RI>
1.00763e+07

>  <Rbt.Current_Directory>
/home/fstefaniak/projects/zuza/docking/adenine/4XNR

>  <Rbt.Executable>
rbdock ($Id: //depot/dev/client3/rdock/2013.1/src/exe/rbdock.cxx#4 $)

>  <Rbt.Library>
libRbt.so (2013.1, Build901 2013/11/27)

>  <Rbt.Parameter_File>
/home/fstefaniak/progs/rDock//data/scripts/dock_solv.prm

>  <Rbt.Receptor>
4xnr.prm

>  <SCORE>
-41.6719

>  <SCORE.INTER>
-21.6718

>  <SCORE.INTER.CONST>
1

>  <SCORE.INTER.POLAR>
-2.38979

>  <SCORE.INTER.ROT>
2

>  <SCORE.INTER.SOLV>
14.5846

>  <SCORE.INTER.VDW>
-16.2768

>  <SCORE.INTER.norm>
-1.97016

>  <SCORE.INTRA>
0.0907812

>  <SCORE.INTRA.DIHEDRAL>
-0.027315

>  <SCORE.INTRA.DIHEDRAL.0>
1.06901

>  <SCORE.INTRA.POLAR>
0

>  <SCORE.INTRA.POLAR.0>
0

>  <SCORE.INTRA.REPUL>
0

>  <SCORE.INTRA.REPUL.0>
0

>  <SCORE.INTRA.SOLV>
-0.00397828

>  <SCORE.INTRA.SOLV.lig_0>
-19.2806

>  <SCORE.INTRA.VDW>
0.106428

>  <SCORE.INTRA.VDW.0>
-0.344215

>  <SCORE.INTRA.norm>
0.00825284

>  <SCORE.RESTR>
0

>  <SCORE.RESTR.CAVITY>
0

>  <SCORE.RESTR.norm>
0

>  <SCORE.SYSTEM>
-20.0909

>  <SCORE.SYSTEM.CONST>
0

>  <SCORE.SYSTEM.DIHEDRAL>
4.51624

>  <SCORE.SYSTEM.POLAR>
-3.02233

>  <SCORE.SYSTEM.SOLV>
0.206788

>  <SCORE.SYSTEM.VDW>
-4.89382

>  <SCORE.SYSTEM.norm>
-1.82644

>  <SCORE.heavy>
11

>  <SCORE.norm>
-3.78835

$$$$
P108001464
 OpenBabel12072022113D
libRbt.so/2013.1/901 2013/11/27
 18 19  0  0  0  0  0  0  0  0999 V2000
    5.6538   18.3962    6.6204 C   0  0  0  0  0  0  0  0  0  0  0  0
    6.9996   18.7988    6.6093 C   0  0  0  0  0  0  0  0  0  0  0  0
    7.7182   18.8389    5.4127 C   0  0  0  0  0  0  0  0  0  0  0  0
    7.0633   18.4793    4.2526 C   0  0  0  0  0  0  0  0  0  0  0  0
    5.7386   18.0703    4.2548 C   0  0  0  0  0  0  0  0  0  0  0  0
    5.0131   18.0232    5.4356 C   0  0  0  0  0  0  0  0  0  0  0  0
    5.3311   17.6914    2.8762 C   0  0  1  0  0  0  0  0  0  0  0  0
    6.5294   18.2802    2.1057 C   0  0  0  0  0  0  0  0  0  0  0  0
    7.6478   18.4721    3.0143 O   0  0  0  0  0  0  0  0  0  0  0  0
    5.2558   16.2434    2.7574 N   0  0  0  0  0  0  0  0  0  0  0  0
    4.2504   15.5467    3.3448 C   0  0  0  0  0  0  0  0  0  0  0  0
    3.0477   15.9906    3.5319 N   0  0  0  0  0  0  0  0  0  0  0  0
    2.2481   15.0076    4.1393 O   0  0  0  0  0  0  0  0  0  0  0  0
    4.6812   14.3085    3.6962 N   0  0  0  0  0  0  0  0  0  0  0  0
    6.1530   15.7802    2.8330 H   0  0  0  0  0  0  0  0  0  0  0  0
    2.2903   15.2656    5.0786 H   0  0  0  0  0  0  0  0  0  0  0  0
    5.1646   13.8481    2.9349 H   0  0  0  0  0  0  0  0  0  0  0  0
    3.8730   13.7613    3.9841 H   0  0  0  0  0  0  0  0  0  0  0  0
  1  2  2  0  0  0  0
  1  6  1  0  0  0  0
  2  3  1  0  0  0  0
  3  4  2  0  0  0  0
  4  5  1  0  0  0  0
  4  9  1  0  0  0  0
  5  6  2  0  0  0  0
  5  7  1  0  0  0  0
  7  8  1  0  0  0  0
  7 10  1  1  0  0  0
  8  9  1  0  0  0  0
 10 11  1  0  0  0  0
 10 15  1  0  0  0  0
 11 12  2  0  0  0  0
 11 14  1  0  0  0  0
 12 13  1  0  0  0  0
 13 16  1  0  0  0  0
 14 17  1  0  0  0  0
 14 18  1  0  0  0  0
M  END
>  <CHROM.0>
-55.63602843,-60.02142326,-69.60254287,-47.37890325,-56.75036561,-172.96132821
-63.07283505,-56.55334465,-168.07423057

>  <CHROM.1>
72.36485393,31.28500459,-48.78273752,97.34808690,5.45589997,17.20083769,4.09963666
0.45760292,0.68192915,1.24834004

>  <Name>
P108001464

>  <RI>
2.22087e+07

>  <Rbt.Current_Directory>
/home/fstefaniak/projects/zuza/docking/adenine/4XNR

>  <Rbt.Executable>
rbdock ($Id: //depot/dev/client3/rdock/2013.1/src/exe/rbdock.cxx#4 $)

>  <Rbt.Library>
libRbt.so (2013.1, Build901 2013/11/27)

>  <Rbt.Parameter_File>
/home/fstefaniak/progs/rDock//data/scripts/dock_solv.prm

>  <Rbt.Receptor>
4xnr.prm

>  <SCORE>
-58.8176

>  <SCORE.INTER>
-37.3063

>  <SCORE.INTER.CONST>
1

>  <SCORE.INTER.POLAR>
-4.03824

>  <SCORE.INTER.ROT>
3

>  <SCORE.INTER.SOLV>
14.1344

>  <SCORE.INTER.VDW>
-21.7216

>  <SCORE.INTER.norm>
-2.66474

>  <SCORE.INTRA>
-0.973999

>  <SCORE.INTRA.DIHEDRAL>
-2.33124

>  <SCORE.INTRA.DIHEDRAL.0>
3.5993

>  <SCORE.INTRA.POLAR>
0.116866

>  <SCORE.INTRA.POLAR.0>
-0.179787

>  <SCORE.INTRA.REPUL>
0

>  <SCORE.INTRA.REPUL.0>
0

>  <SCORE.INTRA.SOLV>
0.386048

>  <SCORE.INTRA.SOLV.lig_0>
-13.9407

>  <SCORE.INTRA.VDW>
-0.398744

>  <SCORE.INTRA.VDW.0>
-0.739286

>  <SCORE.INTRA.norm>
-0.0695713

>  <SCORE.RESTR>
0

>  <SCORE.RESTR.CAVITY>
0

>  <SCORE.RESTR.norm>
0

>  <SCORE.SYSTEM>
-20.5373

>  <SCORE.SYSTEM.CONST>
0

>  <SCORE.SYSTEM.DIHEDRAL>
4.36773

>  <SCORE.SYSTEM.POLAR>
-3.00743

>  <SCORE.SYSTEM.SOLV>
0.191494

>  <SCORE.SYSTEM.VDW>
-5.18651

>  <SCORE.SYSTEM.norm>
-1.46695

>  <SCORE.heavy>
14

>  <SCORE.norm>
-4.20126

$$$$
P108001464
 OpenBabel12072022113D
libRbt.so/2013.1/901 2013/11/27
 18 19  0  0  0  0  0  0  0  0999 V2000
    5.6718   18.3712    6.6439 C   0  0  0  0  0  0  0  0  0  0  0  0
    7.0186   18.7699    6.6258 C   0  0  0  0  0  0  0  0  0  0  0  0
    7.7278   18.8190    5.4239 C   0  0  0  0  0  0  0  0  0  0  0  0
    7.0626   18.4719    4.2658 C   0  0  0  0  0  0  0  0  0  0  0  0
    5.7368   18.0667    4.2748 C   0  0  0  0  0  0  0  0  0  0  0  0
    5.0206   18.0109    5.4609 C   0  0  0  0  0  0  0  0  0  0  0  0
    5.3172   17.7017    2.8961 C   0  0  1  0  0  0  0  0  0  0  0  0
    6.5111   18.2941    2.1215 C   0  0  0  0  0  0  0  0  0  0  0  0
    7.6372   18.4744    3.0228 O   0  0  0  0  0  0  0  0  0  0  0  0
    5.2367   16.2551    2.7646 N   0  0  0  0  0  0  0  0  0  0  0  0
    4.2284   15.5570    3.3453 C   0  0  0  0  0  0  0  0  0  0  0  0
    3.0246   16.0002    3.5270 N   0  0  0  0  0  0  0  0  0  0  0  0
    2.2221   15.0158    4.1281 O   0  0  0  0  0  0  0  0  0  0  0  0
    4.6575   14.3182    3.6964 N   0  0  0  0  0  0  0  0  0  0  0  0
    6.1321   15.7880    2.8368 H   0  0  0  0  0  0  0  0  0  0  0  0
    1.6615   14.7303    3.3833 H   0  0  0  0  0  0  0  0  0  0  0  0
    5.1101   13.8439    2.9247 H   0  0  0  0  0  0  0  0  0  0  0  0
    3.8538   13.7832    4.0177 H   0  0  0  0  0  0  0  0  0  0  0  0
  1  2  2  0  0  0  0
  1  6  1  0  0  0  0
  2  3  1  0  0  0  0
  3  4  2  0  0  0  0
  4  5  1  0  0  0  0
  4  9  1  0  0  0  0
  5  6  2  0  0  0  0
  5  7  1  0  0  0  0
  7  8  1  0  0  0  0
  7 10  1  1  0  0  0
  8  9  1  0  0  0  0
 10 11  1  0  0  0  0
 10 15  1  0  0  0  0
 11 12  2  0  0  0  0
 11 14  1  0  0  0  0
 12 13  1  0  0  0  0
 13 16  1  0  0  0  0
 14 17  1  0  0  0  0
 14 18  1  0  0  0  0
M  END
>  <CHROM.0>
-57.68383524,61.52824800,-54.01079527,-46.23785013,-175.13837721,-60.27513606
-63.10005552,-58.19211786,-167.94291979

>  <CHROM.1>
72.86102634,31.79852669,-51.22790205,-106.11760354,5.44417657,17.19717070
4.10064075,0.45273758,0.67806058,1.26987996

>  <Name>
P108001464

>  <RI>
2.22087e+07

>  <Rbt.Current_Directory>
/home/fstefaniak/projects/zuza/docking/adenine/4XNR

>  <Rbt.Executable>
rbdock ($Id: //depot/dev/client3/rdock/2013.1/src/exe/rbdock.cxx#4 $)

>  <Rbt.Library>
libRbt.so (2013.1, Build901 2013/11/27)

>  <Rbt.Parameter_File>
/home/fstefaniak/progs/rDock//data/scripts/dock_solv.prm

>  <Rbt.Receptor>
4xnr.prm

>  <SCORE>
-57.9729

>  <SCORE.INTER>
-37.3909

>  <SCORE.INTER.CONST>
1

>  <SCORE.INTER.POLAR>
-4.07966

>  <SCORE.INTER.ROT>
3

>  <SCORE.INTER.SOLV>
14.0006

>  <SCORE.INTER.VDW>
-21.5953

>  <SCORE.INTER.norm>
-2.67078

>  <SCORE.INTRA>
-0.95561

>  <SCORE.INTRA.DIHEDRAL>
-2.20531

>  <SCORE.INTRA.DIHEDRAL.0>
3.5993

>  <SCORE.INTRA.POLAR>
0.106609

>  <SCORE.INTRA.POLAR.0>
-0.179787

>  <SCORE.INTRA.REPUL>
0

>  <SCORE.INTRA.REPUL.0>
0

>  <SCORE.INTRA.SOLV>
0.37605

>  <SCORE.INTRA.SOLV.lig_0>
-13.9407

>  <SCORE.INTRA.VDW>
-0.403452

>  <SCORE.INTRA.VDW.0>
-0.739286

>  <SCORE.INTRA.norm>
-0.0682579

>  <SCORE.RESTR>
0

>  <SCORE.RESTR.CAVITY>
0

>  <SCORE.RESTR.norm>
0

>  <SCORE.SYSTEM>
-19.6264

>  <SCORE.SYSTEM.CONST>
0

>  <SCORE.SYSTEM.DIHEDRAL>
4.01167

>  <SCORE.SYSTEM.POLAR>
-3.03929

>  <SCORE.SYSTEM.SOLV>
0.217728

>  <SCORE.SYSTEM.VDW>
-4.36308

>  <SCORE.SYSTEM.norm>
-1.40188

>  <SCORE.heavy>
14

>  <SCORE.norm>
-4.14092

$$$$
P108001464
 OpenBabel12072022113D
libRbt.so/2013.1/901 2013/11/27
 18 19  0  0  0  0  0  0  0  0999 V2000
    5.6816   18.4072    6.5813 C   0  0  0  0  0  0  0  0  0  0  0  0
    7.0314   18.7948    6.5474 C   0  0  0  0  0  0  0  0  0  0  0  0
    7.7299   18.8271    5.3388 C   0  0  0  0  0  0  0  0  0  0  0  0
    7.0515   18.4750    4.1899 C   0  0  0  0  0  0  0  0  0  0  0  0
    5.7226   18.0808    4.2146 C   0  0  0  0  0  0  0  0  0  0  0  0
    5.0168   18.0416    5.4076 C   0  0  0  0  0  0  0  0  0  0  0  0
    5.2876   17.7068    2.8431 C   0  0  1  0  0  0  0  0  0  0  0  0
    6.4792   18.2823    2.0524 C   0  0  0  0  0  0  0  0  0  0  0  0
    7.6149   18.4615    2.9419 O   0  0  0  0  0  0  0  0  0  0  0  0
    5.1942   16.2597    2.7256 N   0  0  0  0  0  0  0  0  0  0  0  0
    4.1834   15.5755    3.3185 C   0  0  0  0  0  0  0  0  0  0  0  0
    2.9871   16.0341    3.5115 N   0  0  0  0  0  0  0  0  0  0  0  0
    2.1789   15.0612    4.1236 O   0  0  0  0  0  0  0  0  0  0  0  0
    4.6009   14.3324    3.6684 N   0  0  0  0  0  0  0  0  0  0  0  0
    6.0860   15.7857    2.7969 H   0  0  0  0  0  0  0  0  0  0  0  0
    1.6478   14.7387    3.3722 H   0  0  0  0  0  0  0  0  0  0  0  0
    5.0591   13.8589    2.8996 H   0  0  0  0  0  0  0  0  0  0  0  0
    3.7903   13.8009    3.9781 H   0  0  0  0  0  0  0  0  0  0  0  0
  1  2  2  0  0  0  0
  1  6  1  0  0  0  0
  2  3  1  0  0  0  0
  3  4  2  0  0  0  0
  4  5  1  0  0  0  0
  4  9  1  0  0  0  0
  5  6  2  0  0  0  0
  5  7  1  0  0  0  0
  7  8  1  0  0  0  0
  7 10  1  1  0  0  0
  8  9  1  0  0  0  0
 10 11  1  0  0  0  0
 10 15  1  0  0  0  0
 11 12  2  0  0  0  0
 11 14  1  0  0  0  0
 12 13  1  0  0  0  0
 13 16  1  0  0  0  0
 14 17  1  0  0  0  0
 14 18  1  0  0  0  0
M  END
>  <CHROM.0>
-56.21928322,57.53769810,-72.59537672,-48.76687823,-54.44284887,-176.36876976
-172.13032659,-61.48671494,-167.83222493

>  <CHROM.1>
73.04678182,31.28213039,-49.87521373,-102.51653787,5.42066406,17.21228797
4.04943008,0.44067115,0.67216119,1.26826534

>  <Name>
P108001464

>  <RI>
2.22087e+07

>  <Rbt.Current_Directory>
/home/fstefaniak/projects/zuza/docking/adenine/4XNR

>  <Rbt.Executable>
rbdock ($Id: //depot/dev/client3/rdock/2013.1/src/exe/rbdock.cxx#4 $)

>  <Rbt.Library>
libRbt.so (2013.1, Build901 2013/11/27)

>  <Rbt.Parameter_File>
/home/fstefaniak/progs/rDock//data/scripts/dock_solv.prm

>  <Rbt.Receptor>
4xnr.prm

>  <SCORE>
-57.3245

>  <SCORE.INTER>
-37.1656

>  <SCORE.INTER.CONST>
1

>  <SCORE.INTER.POLAR>
-4.11799

>  <SCORE.INTER.ROT>
3

>  <SCORE.INTER.SOLV>
13.9581

>  <SCORE.INTER.VDW>
-21.3031

>  <SCORE.INTER.norm>
-2.65469

>  <SCORE.INTRA>
-0.929549

>  <SCORE.INTRA.DIHEDRAL>
-2.26442

>  <SCORE.INTRA.DIHEDRAL.0>
3.5993

>  <SCORE.INTRA.POLAR>
0.120094

>  <SCORE.INTRA.POLAR.0>
-0.179787

>  <SCORE.INTRA.REPUL>
0

>  <SCORE.INTRA.REPUL.0>
0

>  <SCORE.INTRA.SOLV>
0.375312

>  <SCORE.INTRA.SOLV.lig_0>
-13.9407

>  <SCORE.INTRA.VDW>
-0.393312

>  <SCORE.INTRA.VDW.0>
-0.739286

>  <SCORE.INTRA.norm>
-0.0663964

>  <SCORE.RESTR>
0

>  <SCORE.RESTR.CAVITY>
0

>  <SCORE.RESTR.norm>
0

>  <SCORE.SYSTEM>
-19.2293

>  <SCORE.SYSTEM.CONST>
0

>  <SCORE.SYSTEM.DIHEDRAL>
4.6579

>  <SCORE.SYSTEM.POLAR>
-2.96982

>  <SCORE.SYSTEM.SOLV>
0.207185

>  <SCORE.SYSTEM.VDW>
-4.54182

>  <SCORE.SYSTEM.norm>
-1.37352

>  <SCORE.heavy>
14

>  <SCORE.norm>
-4.0946

$$$$
P108184382
 OpenBabel12072022113D
libRbt.so/2013.1/901 2013/11/27
 15 16  0  0  0  0  0  0  0  0999 V2000
    0.2863   16.8321    4.5192 C   0  0  0  0  0  0  0  0  0  0  0  0
    0.9874   15.6242    4.7383 C   0  0  0  0  0  0  0  0  0  0  0  0
    1.9561   15.5462    3.7593 C   0  0  0  0  0  0  0  0  0  0  0  0
    1.8832   16.6493    2.9512 O   0  0  0  0  0  0  0  0  0  0  0  0
    0.8631   17.4158    3.4174 C   0  0  0  0  0  0  0  0  0  0  0  0
    3.0173   14.5278    3.4555 C   0  0  1  0  0  0  0  0  0  0  0  0
    4.1406   14.5591    4.4876 C   0  0  0  0  0  0  0  0  0  0  0  0
    3.5635   13.8128    5.6654 N   0  3  0  0  0  0  0  0  0  0  0  0
    4.2656   13.3105    6.2151 H   0  0  0  0  0  0  0  0  0  0  0  0
    3.0881   14.4983    6.2682 H   0  0  0  0  0  0  0  0  0  0  0  0
    2.4899   12.8870    5.1226 C   0  0  0  0  0  0  0  0  0  0  0  0
    2.5692   13.0846    3.6301 C   0  0  1  0  0  0  0  0  0  0  0  0
    1.2846   12.6532    2.9717 C   0  0  0  0  0  0  0  0  0  0  0  0
    1.0776   13.1831    1.8502 O   0  0  0  0  0  0  0  0  0  0  0  0
    0.6222   11.8013    3.6182 O   0  5  0  0  0  0  0  0  0  0  0  0
  1  2  1  0  0  0  0
  1  5  2  0  0  0  0
  2  3  2  0  0  0  0
  3  4  1  0  0  0  0
  4  5  1  0  0  0  0
  6  7  1  0  0  0  0
  6 12  1  0  0  0  0
  6  3  1  1  0  0  0
  7  8  1  0  0  0  0
  8  9  1  0  0  0  0
  8 10  1  0  0  0  0
  8 11  1  0  0  0  0
 11 12  1  0  0  0  0
 12 13  1  6  0  0  0
 13 14  2  0  0  0  0
 13 15  1  0  0  0  0
M  CHG  2   8   1  15  -1
M  END
>  <CHROM.0>
-56.70088694,-175.02334065,-64.79700409,-47.82011547,-59.25315716,-61.38360757
-70.02605745,-59.35322793,-168.25552171

>  <CHROM.1>
-71.67497531,36.40308067,1.91582530,14.46022575,3.86083474,1.81407544,-0.67251636
0.13689602

>  <Name>
P108184382

>  <RI>
3.4169e+07

>  <Rbt.Current_Directory>
/home/fstefaniak/projects/zuza/docking/adenine/4XNR

>  <Rbt.Executable>
rbdock ($Id: //depot/dev/client3/rdock/2013.1/src/exe/rbdock.cxx#4 $)

>  <Rbt.Library>
libRbt.so (2013.1, Build901 2013/11/27)

>  <Rbt.Parameter_File>
/home/fstefaniak/progs/rDock//data/scripts/dock_solv.prm

>  <Rbt.Receptor>
4xnr.prm

>  <SCORE>
-44.0858

>  <SCORE.INTER>
-23.0765

>  <SCORE.INTER.CONST>
1

>  <SCORE.INTER.POLAR>
-3.44558

>  <SCORE.INTER.ROT>
2

>  <SCORE.INTER.SOLV>
20.4962

>  <SCORE.INTER.VDW>
-15.6644

>  <SCORE.INTER.norm>
-1.77511

>  <SCORE.INTRA>
-0.78942

>  <SCORE.INTRA.DIHEDRAL>
-0.0893793

>  <SCORE.INTRA.DIHEDRAL.0>
3.00737

>  <SCORE.INTRA.POLAR>
0.0775999

>  <SCORE.INTRA.POLAR.0>
-0.0775999

>  <SCORE.INTRA.REPUL>
0

>  <SCORE.INTRA.REPUL.0>
0

>  <SCORE.INTRA.SOLV>
-0.52672

>  <SCORE.INTRA.SOLV.lig_0>
-47.2313

>  <SCORE.INTRA.VDW>
-0.74521

>  <SCORE.INTRA.VDW.0>
0.78977

>  <SCORE.INTRA.norm>
-0.0607247

>  <SCORE.RESTR>
0.506034

>  <SCORE.RESTR.CAVITY>
0.506034

>  <SCORE.RESTR.norm>
0.0389257

>  <SCORE.SYSTEM>
-20.7259

>  <SCORE.SYSTEM.CONST>
0

>  <SCORE.SYSTEM.DIHEDRAL>
4.16979

>  <SCORE.SYSTEM.POLAR>
-2.98821

>  <SCORE.SYSTEM.SOLV>
0.259487

>  <SCORE.SYSTEM.VDW>
-5.33301

>  <SCORE.SYSTEM.norm>
-1.5943

>  <SCORE.heavy>
13

>  <SCORE.norm>
-3.39121

$$$$
P108184382
 OpenBabel12072022113D
libRbt.so/2013.1/901 2013/11/27
 15 16  0  0  0  0  0  0  0  0999 V2000
    0.3019   16.8550    4.5138 C   0  0  0  0  0  0  0  0  0  0  0  0
    0.9884   15.6381    4.7293 C   0  0  0  0  0  0  0  0  0  0  0  0
    1.9634   15.5568    3.7568 C   0  0  0  0  0  0  0  0  0  0  0  0
    1.9082   16.6663    2.9563 O   0  0  0  0  0  0  0  0  0  0  0  0
    0.8930   17.4404    3.4205 C   0  0  0  0  0  0  0  0  0  0  0  0
    3.0158   14.5292    3.4535 C   0  0  1  0  0  0  0  0  0  0  0  0
    4.1422   14.5552    4.4823 C   0  0  0  0  0  0  0  0  0  0  0  0
    3.5627   13.8172    5.6641 N   0  3  0  0  0  0  0  0  0  0  0  0
    4.2624   13.3113    6.2136 H   0  0  0  0  0  0  0  0  0  0  0  0
    3.0943   14.5083    6.2661 H   0  0  0  0  0  0  0  0  0  0  0  0
    2.4805   12.8980    5.1274 C   0  0  0  0  0  0  0  0  0  0  0  0
    2.5572   13.0901    3.6340 C   0  0  1  0  0  0  0  0  0  0  0  0
    1.2674   12.6664    2.9806 C   0  0  0  0  0  0  0  0  0  0  0  0
    0.6300   11.7906    3.6194 O   0  0  0  0  0  0  0  0  0  0  0  0
    0.9951   13.2719    1.9121 O   0  5  0  0  0  0  0  0  0  0  0  0
  1  2  1  0  0  0  0
  1  5  2  0  0  0  0
  2  3  2  0  0  0  0
  3  4  1  0  0  0  0
  4  5  1  0  0  0  0
  6  7  1  0  0  0  0
  6 12  1  0  0  0  0
  6  3  1  1  0  0  0
  7  8  1  0  0  0  0
  8  9  1  0  0  0  0
  8 10  1  0  0  0  0
  8 11  1  0  0  0  0
 11 12  1  0  0  0  0
 12 13  1  6  0  0  0
 13 14  2  0  0  0  0
 13 15  1  0  0  0  0
M  CHG  2   8   1  15  -1
M  END
>  <CHROM.0>
-56.59778688,-179.04717959,-67.83949572,-47.67599722,-58.07894758,-64.99509651
-70.71176250,-58.39611066,-168.23376675

>  <CHROM.1>
-72.52930825,-147.55000367,1.91250554,14.47605816,3.86646531,1.80484879,-0.66035024
0.11759136

>  <Name>
P108184382

>  <RI>
3.4169e+07

>  <Rbt.Current_Directory>
/home/fstefaniak/projects/zuza/docking/adenine/4XNR

>  <Rbt.Executable>
rbdock ($Id: //depot/dev/client3/rdock/2013.1/src/exe/rbdock.cxx#4 $)

>  <Rbt.Library>
libRbt.so (2013.1, Build901 2013/11/27)

>  <Rbt.Parameter_File>
/home/fstefaniak/progs/rDock//data/scripts/dock_solv.prm

>  <Rbt.Receptor>
4xnr.prm

>  <SCORE>
-43.8768

>  <SCORE.INTER>
-22.999

>  <SCORE.INTER.CONST>
1

>  <SCORE.INTER.POLAR>
-3.46828

>  <SCORE.INTER.ROT>
2

>  <SCORE.INTER.SOLV>
20.3648

>  <SCORE.INTER.VDW>
-15.4933

>  <SCORE.INTER.norm>
-1.76915

>  <SCORE.INTRA>
-0.641905

>  <SCORE.INTRA.DIHEDRAL>
-0.0144005

>  <SCORE.INTRA.DIHEDRAL.0>
3.00737

>  <SCORE.INTRA.POLAR>
0.0775999

>  <SCORE.INTRA.POLAR.0>
-0.0775999

>  <SCORE.INTRA.REPUL>
0

>  <SCORE.INTRA.REPUL.0>
0

>  <SCORE.INTRA.SOLV>
-0.370537

>  <SCORE.INTRA.SOLV.lig_0>
-47.2313

>  <SCORE.INTRA.VDW>
-0.713276

>  <SCORE.INTRA.VDW.0>
0.78977

>  <SCORE.INTRA.norm>
-0.0493773

>  <SCORE.RESTR>
0.510056

>  <SCORE.RESTR.CAVITY>
0.510056

>  <SCORE.RESTR.norm>
0.0392351

>  <SCORE.SYSTEM>
-20.746

>  <SCORE.SYSTEM.CONST>
0

>  <SCORE.SYSTEM.DIHEDRAL>
4.43882

>  <SCORE.SYSTEM.POLAR>
-2.99132

>  <SCORE.SYSTEM.SOLV>
0.252795

>  <SCORE.SYSTEM.VDW>
-5.42349

>  <SCORE.SYSTEM.norm>
-1.59585

>  <SCORE.heavy>
13

>  <SCORE.norm>
-3.37514

$$$$
P108184382
 OpenBabel12072022113D
libRbt.so/2013.1/901 2013/11/27
 15 16  0  0  0  0  0  0  0  0999 V2000
    0.2936   16.8393    4.5391 C   0  0  0  0  0  0  0  0  0  0  0  0
    0.9990   15.6344    4.7608 C   0  0  0  0  0  0  0  0  0  0  0  0
    1.9614   15.5528    3.7759 C   0  0  0  0  0  0  0  0  0  0  0  0
    1.8805   16.6507    2.9617 O   0  0  0  0  0  0  0  0  0  0  0  0
    0.8618   17.4177    3.4300 C   0  0  0  0  0  0  0  0  0  0  0  0
    3.0229   14.5350    3.4713 C   0  0  1  0  0  0  0  0  0  0  0  0
    4.1355   14.5510    4.5153 C   0  0  0  0  0  0  0  0  0  0  0  0
    3.5441   13.7925    5.6781 N   0  3  0  0  0  0  0  0  0  0  0  0
    4.2390   13.2818    6.2292 H   0  0  0  0  0  0  0  0  0  0  0  0
    3.0642   14.4722    6.2840 H   0  0  0  0  0  0  0  0  0  0  0  0
    2.4737   12.8763    5.1133 C   0  0  0  0  0  0  0  0  0  0  0  0
    2.5692   13.0911    3.6241 C   0  0  1  0  0  0  0  0  0  0  0  0
    1.2904   12.6711    2.9473 C   0  0  0  0  0  0  0  0  0  0  0  0
    1.1243   13.1703    1.8051 O   0  0  0  0  0  0  0  0  0  0  0  0
    0.5909   11.8567    3.6030 O   0  5  0  0  0  0  0  0  0  0  0  0
  1  2  1  0  0  0  0
  1  5  2  0  0  0  0
  2  3  2  0  0  0  0
  3  4  1  0  0  0  0
  4  5  1  0  0  0  0
  6  7  1  0  0  0  0
  6 12  1  0  0  0  0
  6  3  1  1  0  0  0
  7  8  1  0  0  0  0
  8  9  1  0  0  0  0
  8 10  1  0  0  0  0
  8 11  1  0  0  0  0
 11 12  1  0  0  0  0
 12 13  1  6  0  0  0
 13 14  2  0  0  0  0
 13 15  1  0  0  0  0
M  CHG  2   8   1  15  -1
M  END
>  <CHROM.0>
-59.20377093,-108.78147304,-64.99230478,-47.41915493,-65.63942845,-63.83344719
-68.84855179,-60.62707968,-168.95157394

>  <CHROM.1>
-70.23314716,39.29901645,1.91591672,14.46477331,3.86316126,1.81849351,-0.68900019
0.15277367

>  <Name>
P108184382

>  <RI>
3.4169e+07

>  <Rbt.Current_Directory>
/home/fstefaniak/projects/zuza/docking/adenine/4XNR

>  <Rbt.Executable>
rbdock ($Id: //depot/dev/client3/rdock/2013.1/src/exe/rbdock.cxx#4 $)

>  <Rbt.Library>
libRbt.so (2013.1, Build901 2013/11/27)

>  <Rbt.Parameter_File>
/home/fstefaniak/progs/rDock//data/scripts/dock_solv.prm

>  <Rbt.Receptor>
4xnr.prm

>  <SCORE>
-40.4892

>  <SCORE.INTER>
-22.3814

>  <SCORE.INTER.CONST>
1

>  <SCORE.INTER.POLAR>
-3.40388

>  <SCORE.INTER.ROT>
2

>  <SCORE.INTER.SOLV>
20.8075

>  <SCORE.INTER.VDW>
-15.4438

>  <SCORE.INTER.norm>
-1.72164

>  <SCORE.INTRA>
-0.681573

>  <SCORE.INTRA.DIHEDRAL>
-0.0538064

>  <SCORE.INTRA.DIHEDRAL.0>
3.00737

>  <SCORE.INTRA.POLAR>
0.0775999

>  <SCORE.INTRA.POLAR.0>
-0.0775999

>  <SCORE.INTRA.REPUL>
0

>  <SCORE.INTRA.REPUL.0>
0

>  <SCORE.INTRA.SOLV>
-0.571927

>  <SCORE.INTRA.SOLV.lig_0>
-47.2313

>  <SCORE.INTRA.VDW>
-0.632546

>  <SCORE.INTRA.VDW.0>
0.78977

>  <SCORE.INTRA.norm>
-0.0524287

>  <SCORE.RESTR>
0.491812

>  <SCORE.RESTR.CAVITY>
0.491812

>  <SCORE.RESTR.norm>
0.0378317

>  <SCORE.SYSTEM>
-17.9181

>  <SCORE.SYSTEM.CONST>
0

>  <SCORE.SYSTEM.DIHEDRAL>
10.5398

>  <SCORE.SYSTEM.POLAR>
-2.95362

>  <SCORE.SYSTEM.SOLV>
0.255091

>  <SCORE.SYSTEM.VDW>
-5.6983

>  <SCORE.SYSTEM.norm>
-1.37832

>  <SCORE.heavy>
13

>  <SCORE.norm>
-3.11456

$$$$
P108871030
 OpenBabel12072022113D
libRbt.so/2013.1/901 2013/11/27
 12 12  0  0  0  0  0  0  0  0999 V2000
    7.0727   18.4198    1.4620 C   0  0  0  0  0  0  0  0  0  0  0  0
    6.7036   18.0587    2.8091 N   0  0  0  0  0  0  0  0  0  0  0  0
    6.4752   19.0524    3.8251 C   0  0  0  0  0  0  0  0  0  0  0  0
    6.2436   18.2174    5.0701 C   0  0  0  0  0  0  0  0  0  0  0  0
    5.4977   16.9834    4.5472 C   0  0  2  0  0  0  0  0  0  0  0  0
    6.0680   16.8597    3.1242 C   0  0  0  0  0  0  0  0  0  0  0  0
    5.9425   15.8912    2.3889 O   0  0  0  0  0  0  0  0  0  0  0  0
    4.0440   17.2389    4.5389 N   0  0  0  0  0  0  0  0  0  0  0  0
    3.3250   16.2490    3.7344 C   0  0  0  0  0  0  0  0  0  0  0  0
    1.8813   16.3856    3.9801 C   0  0  0  0  0  0  0  0  0  0  0  0
    0.7028   16.5028    4.1817 C   0  0  0  0  0  0  0  0  0  0  0  0
    3.6961   17.1748    5.4947 H   0  0  0  0  0  0  0  0  0  0  0  0
  1  2  1  0  0  0  0
  2  3  1  0  0  0  0
  2  6  1  0  0  0  0
  3  4  1  0  0  0  0
  4  5  1  0  0  0  0
  5  6  1  0  0  0  0
  5  8  1  6  0  0  0
  6  7  2  0  0  0  0
  8  9  1  0  0  0  0
  8 12  1  0  0  0  0
  9 10  1  0  0  0  0
 10 11  3  0  0  0  0
M  END
>  <CHROM.0>
-58.47349432,-63.61185144,-65.89118403,-47.26062914,-60.55046348,-62.63562365
-67.39765283,-59.39559025,-168.10835462

>  <CHROM.1>
165.05236375,168.66978038,31.26236263,4.97335717,17.27290610,3.57949668,0.05360695
-0.40099865,-2.10739926

>  <Name>
P108871030

>  <RI>
3.1908e+07

>  <Rbt.Current_Directory>
/home/fstefaniak/projects/zuza/docking/adenine/4XNR

>  <Rbt.Executable>
rbdock ($Id: //depot/dev/client3/rdock/2013.1/src/exe/rbdock.cxx#4 $)

>  <Rbt.Library>
libRbt.so (2013.1, Build901 2013/11/27)

>  <Rbt.Parameter_File>
/home/fstefaniak/progs/rDock//data/scripts/dock_solv.prm

>  <Rbt.Receptor>
4xnr.prm

>  <SCORE>
-40.7384

>  <SCORE.INTER>
-20.5319

>  <SCORE.INTER.CONST>
1

>  <SCORE.INTER.POLAR>
-1.85404

>  <SCORE.INTER.ROT>
3

>  <SCORE.INTER.SOLV>
11.6812

>  <SCORE.INTER.VDW>
-17.0015

>  <SCORE.INTER.norm>
-1.86654

>  <SCORE.INTRA>
0.745358

>  <SCORE.INTRA.DIHEDRAL>
0.405838

>  <SCORE.INTRA.DIHEDRAL.0>
0.211263

>  <SCORE.INTRA.POLAR>
0

>  <SCORE.INTRA.POLAR.0>
0

>  <SCORE.INTRA.REPUL>
0

>  <SCORE.INTRA.REPUL.0>
0

>  <SCORE.INTRA.SOLV>
0.0770226

>  <SCORE.INTRA.SOLV.lig_0>
-11.7728

>  <SCORE.INTRA.VDW>
0.503928

>  <SCORE.INTRA.VDW.0>
-0.380834

>  <SCORE.INTRA.norm>
0.0677599

>  <SCORE.RESTR>
0

>  <SCORE.RESTR.CAVITY>
0

>  <SCORE.RESTR.norm>
0

>  <SCORE.SYSTEM>
-20.9518

>  <SCORE.SYSTEM.CONST>
0

>  <SCORE.SYSTEM.DIHEDRAL>
4.02371

>  <SCORE.SYSTEM.POLAR>
-2.98071

>  <SCORE.SYSTEM.SOLV>
0.282046

>  <SCORE.SYSTEM.VDW>
-5.46744

>  <SCORE.SYSTEM.norm>
-1.90471

>  <SCORE.heavy>
11

>  <SCORE.norm>
-3.70349

$$$$
P108871030
 OpenBabel12072022113D
libRbt.so/2013.1/901 2013/11/27
 12 12  0  0  0  0  0  0  0  0999 V2000
    7.0687   18.4106    1.4871 C   0  0  0  0  0  0  0  0  0  0  0  0
    6.6866   18.0387    2.8276 N   0  0  0  0  0  0  0  0  0  0  0  0
    6.4502   19.0241    3.8498 C   0  0  0  0  0  0  0  0  0  0  0  0
    6.2059   18.1790    5.0855 C   0  0  0  0  0  0  0  0  0  0  0  0
    5.4631   16.9505    4.5453 C   0  0  2  0  0  0  0  0  0  0  0  0
    6.0465   16.8379    3.1266 C   0  0  0  0  0  0  0  0  0  0  0  0
    5.9265   15.8758    2.3820 O   0  0  0  0  0  0  0  0  0  0  0  0
    4.0100   17.2081    4.5257 N   0  0  0  0  0  0  0  0  0  0  0  0
    3.2910   16.1948    3.7509 C   0  0  0  0  0  0  0  0  0  0  0  0
    1.8442   16.3819    3.9386 C   0  0  0  0  0  0  0  0  0  0  0  0
    0.6616   16.5321    4.0869 C   0  0  0  0  0  0  0  0  0  0  0  0
    3.6599   17.1744    5.4822 H   0  0  0  0  0  0  0  0  0  0  0  0
  1  2  1  0  0  0  0
  2  3  1  0  0  0  0
  2  6  1  0  0  0  0
  3  4  1  0  0  0  0
  4  5  1  0  0  0  0
  5  6  1  0  0  0  0
  5  8  1  6  0  0  0
  6  7  2  0  0  0  0
  8  9  1  0  0  0  0
  8 12  1  0  0  0  0
  9 10  1  0  0  0  0
 10 11  3  0  0  0  0
M  END
>  <CHROM.0>
-57.47655158,-60.84619771,-65.81981599,-47.08431947,-58.96870040,-63.20938281
-66.23069166,-59.62389609,-167.67847229

>  <CHROM.1>
167.36042751,171.33144192,155.71788282,4.94633105,17.25222200,3.57551610
0.04590703,-0.39023676,-2.10222818

>  <Name>
P108871030

>  <RI>
3.1908e+07

>  <Rbt.Current_Directory>
/home/fstefaniak/projects/zuza/docking/adenine/4XNR

>  <Rbt.Executable>
rbdock ($Id: //depot/dev/client3/rdock/2013.1/src/exe/rbdock.cxx#4 $)

>  <Rbt.Library>
libRbt.so (2013.1, Build901 2013/11/27)

>  <Rbt.Parameter_File>
/home/fstefaniak/progs/rDock//data/scripts/dock_solv.prm

>  <Rbt.Receptor>
4xnr.prm

>  <SCORE>
-40.7196

>  <SCORE.INTER>
-20.3362

>  <SCORE.INTER.CONST>
1

>  <SCORE.INTER.POLAR>
-1.80673

>  <SCORE.INTER.ROT>
3

>  <SCORE.INTER.SOLV>
11.6271

>  <SCORE.INTER.VDW>
-17.0108

>  <SCORE.INTER.norm>
-1.84875

>  <SCORE.INTRA>
0.517219

>  <SCORE.INTRA.DIHEDRAL>
0.231392

>  <SCORE.INTRA.DIHEDRAL.0>
0.211263

>  <SCORE.INTRA.POLAR>
0

>  <SCORE.INTRA.POLAR.0>
0

>  <SCORE.INTRA.REPUL>
0

>  <SCORE.INTRA.REPUL.0>
0

>  <SCORE.INTRA.SOLV>
0.0641079

>  <SCORE.INTRA.SOLV.lig_0>
-11.7728

>  <SCORE.INTRA.VDW>
0.369468

>  <SCORE.INTRA.VDW.0>
-0.380834

>  <SCORE.INTRA.norm>
0.0470199

>  <SCORE.RESTR>
0

>  <SCORE.RESTR.CAVITY>
0

>  <SCORE.RESTR.norm>
0

>  <SCORE.SYSTEM>
-20.9005

>  <SCORE.SYSTEM.CONST>
0

>  <SCORE.SYSTEM.DIHEDRAL>
3.98962

>  <SCORE.SYSTEM.POLAR>
-2.9931

>  <SCORE.SYSTEM.SOLV>
0.28942

>  <SCORE.SYSTEM.VDW>
-5.38303

>  <SCORE.SYSTEM.norm>
-1.90005

>  <SCORE.heavy>
11

>  <SCORE.norm>
-3.70178

$$$$
P108871030
 OpenBabel12072022113D
libRbt.so/2013.1/901 2013/11/27
 12 12  0  0  0  0  0  0  0  0999 V2000
    7.0677   18.4283    1.4601 C   0  0  0  0  0  0  0  0  0  0  0  0
    6.6970   18.0635    2.8058 N   0  0  0  0  0  0  0  0  0  0  0  0
    6.4590   19.0548    3.8219 C   0  0  0  0  0  0  0  0  0  0  0  0
    6.2293   18.2172    5.0655 C   0  0  0  0  0  0  0  0  0  0  0  0
    5.4931   16.9787    4.5393 C   0  0  2  0  0  0  0  0  0  0  0  0
    6.0685   16.8600    3.1179 C   0  0  0  0  0  0  0  0  0  0  0  0
    5.9516   15.8914    2.3814 O   0  0  0  0  0  0  0  0  0  0  0  0
    4.0378   17.2246    4.5269 N   0  0  0  0  0  0  0  0  0  0  0  0
    3.3262   16.2218    3.7319 C   0  0  0  0  0  0  0  0  0  0  0  0
    1.8799   16.3660    3.9576 C   0  0  0  0  0  0  0  0  0  0  0  0
    0.6978   16.4835    4.1363 C   0  0  0  0  0  0  0  0  0  0  0  0
    3.6893   17.1680    5.4830 H   0  0  0  0  0  0  0  0  0  0  0  0
  1  2  1  0  0  0  0
  2  3  1  0  0  0  0
  2  6  1  0  0  0  0
  3  4  1  0  0  0  0
  4  5  1  0  0  0  0
  5  6  1  0  0  0  0
  5  8  1  6  0  0  0
  6  7  2  0  0  0  0
  8  9  1  0  0  0  0
  8 12  1  0  0  0  0
  9 10  1  0  0  0  0
 10 11  3  0  0  0  0
M  END
>  <CHROM.0>
-58.39027199,-65.52604769,-68.70878166,-46.66068631,-178.43029383,-65.07766838
-68.68644706,-177.02404893,-167.48874534

>  <CHROM.1>
165.69794286,169.59633415,132.51912041,4.96900585,17.26696693,3.56924524
0.04678655,-0.40287328,-2.10795090

>  <Name>
P108871030

>  <RI>
3.1908e+07

>  <Rbt.Current_Directory>
/home/fstefaniak/projects/zuza/docking/adenine/4XNR

>  <Rbt.Executable>
rbdock ($Id: //depot/dev/client3/rdock/2013.1/src/exe/rbdock.cxx#4 $)

>  <Rbt.Library>
libRbt.so (2013.1, Build901 2013/11/27)

>  <Rbt.Parameter_File>
/home/fstefaniak/progs/rDock//data/scripts/dock_solv.prm

>  <Rbt.Receptor>
4xnr.prm

>  <SCORE>
-40.6799

>  <SCORE.INTER>
-20.4767

>  <SCORE.INTER.CONST>
1

>  <SCORE.INTER.POLAR>
-1.84176

>  <SCORE.INTER.ROT>
3

>  <SCORE.INTER.SOLV>
11.6549

>  <SCORE.INTER.VDW>
-16.9969

>  <SCORE.INTER.norm>
-1.86151

>  <SCORE.INTRA>
0.674295

>  <SCORE.INTRA.DIHEDRAL>
0.348012

>  <SCORE.INTRA.DIHEDRAL.0>
0.211263

>  <SCORE.INTRA.POLAR>
0

>  <SCORE.INTRA.POLAR.0>
0

>  <SCORE.INTRA.REPUL>
0

>  <SCORE.INTRA.REPUL.0>
0

>  <SCORE.INTRA.SOLV>
0.0729855

>  <SCORE.INTRA.SOLV.lig_0>
-11.7728

>  <SCORE.INTRA.VDW>
0.463797

>  <SCORE.INTRA.VDW.0>
-0.380834

>  <SCORE.INTRA.norm>
0.0612996

>  <SCORE.RESTR>
0

>  <SCORE.RESTR.CAVITY>
0

>  <SCORE.RESTR.norm>
0

>  <SCORE.SYSTEM>
-20.8776

>  <SCORE.SYSTEM.CONST>
0

>  <SCORE.SYSTEM.DIHEDRAL>
4.65019

>  <SCORE.SYSTEM.POLAR>
-2.98547

>  <SCORE.SYSTEM.SOLV>
-0.0400664

>  <SCORE.SYSTEM.VDW>
-5.50353

>  <SCORE.SYSTEM.norm>
-1.89796

>  <SCORE.heavy>
11

>  <SCORE.norm>
-3.69818

$$$$
P108902482
 OpenBabel12072022113D
libRbt.so/2013.1/901 2013/11/27
 14 13  0  0  0  0  0  0  0  0999 V2000
    3.7105   15.3357    3.8590 C   0  0  0  0  0  0  0  0  0  0  0  0
    5.1319   15.8675    3.7446 C   0  0  0  0  0  0  0  0  0  0  0  0
    5.2226   17.3911    3.8342 C   0  0  2  0  0  0  0  0  0  0  0  0
    6.4181   17.9013    3.0018 C   0  0  0  0  0  0  0  0  0  0  0  0
    6.3503   17.6925    1.7167 N   0  0  0  0  0  0  0  0  0  0  0  0
    7.4952   18.2078    1.0869 O   0  0  0  0  0  0  0  0  0  0  0  0
    7.4749   18.5080    3.6272 N   0  0  0  0  0  0  0  0  0  0  0  0
    5.4277   17.8124    5.2552 N   0  3  0  0  0  0  0  0  0  0  0  0
    5.4844   18.8374    5.3080 H   0  0  0  0  0  0  0  0  0  0  0  0
    4.7107   17.4823    5.9070 H   0  0  0  0  0  0  0  0  0  0  0  0
    6.3556   17.4760    5.5561 H   0  0  0  0  0  0  0  0  0  0  0  0
    7.3254   18.0553    0.1360 H   0  0  0  0  0  0  0  0  0  0  0  0
    8.3428   17.9984    3.7602 H   0  0  0  0  0  0  0  0  0  0  0  0
    7.1860   19.0100    4.4688 H   0  0  0  0  0  0  0  0  0  0  0  0
  1  2  1  0  0  0  0
  3  4  1  0  0  0  0
  3  8  1  0  0  0  0
  3  2  1  1  0  0  0
  4  5  2  0  0  0  0
  4  7  1  0  0  0  0
  5  6  1  0  0  0  0
  6 12  1  0  0  0  0
  7 13  1  0  0  0  0
  7 14  1  0  0  0  0
  8  9  1  0  0  0  0
  8 10  1  0  0  0  0
  8 11  1  0  0  0  0
M  CHG  1   8   1
M  END
>  <CHROM.0>
-58.24628424,-63.74522223,-64.83978413,-47.90689973,-61.28290082,59.61862432
-68.72441766,-65.05493633,-168.25850951

>  <CHROM.1>
63.90801923,-179.80101500,-149.54310122,103.68139580,-176.56437212,5.94250853
17.36771518,3.28116526,2.74738786,0.76602605,1.25432379

>  <Name>
P108902482

>  <RI>
3.58524e+07

>  <Rbt.Current_Directory>
/home/fstefaniak/projects/zuza/docking/adenine/4XNR

>  <Rbt.Executable>
rbdock ($Id: //depot/dev/client3/rdock/2013.1/src/exe/rbdock.cxx#4 $)

>  <Rbt.Library>
libRbt.so (2013.1, Build901 2013/11/27)

>  <Rbt.Parameter_File>
/home/fstefaniak/progs/rDock//data/scripts/dock_solv.prm

>  <Rbt.Receptor>
4xnr.prm

>  <SCORE>
-52.1142

>  <SCORE.INTER>
-34.8754

>  <SCORE.INTER.CONST>
1

>  <SCORE.INTER.POLAR>
-5.21327

>  <SCORE.INTER.ROT>
3

>  <SCORE.INTER.SOLV>
16.0899

>  <SCORE.INTER.VDW>
-16.836

>  <SCORE.INTER.norm>
-4.35942

>  <SCORE.INTRA>
2.59346

>  <SCORE.INTRA.DIHEDRAL>
2.484

>  <SCORE.INTRA.DIHEDRAL.0>
3.70319

>  <SCORE.INTRA.POLAR>
0.0875306

>  <SCORE.INTRA.POLAR.0>
-0.0875306

>  <SCORE.INTRA.REPUL>
0

>  <SCORE.INTRA.REPUL.0>
0

>  <SCORE.INTRA.SOLV>
1.14831

>  <SCORE.INTRA.SOLV.lig_0>
-28.1699

>  <SCORE.INTRA.VDW>
0.479701

>  <SCORE.INTRA.VDW.0>
-0.658493

>  <SCORE.INTRA.norm>
0.324183

>  <SCORE.RESTR>
0

>  <SCORE.RESTR.CAVITY>
0

>  <SCORE.RESTR.norm>
0

>  <SCORE.SYSTEM>
-19.8322

>  <SCORE.SYSTEM.CONST>
0

>  <SCORE.SYSTEM.DIHEDRAL>
4.07744

>  <SCORE.SYSTEM.POLAR>
-2.97181

>  <SCORE.SYSTEM.SOLV>
0.143

>  <SCORE.SYSTEM.VDW>
-4.72225

>  <SCORE.SYSTEM.norm>
-2.47903

>  <SCORE.heavy>
8

>  <SCORE.norm>
-6.51427

$$$$
P108902482
 OpenBabel12072022113D
libRbt.so/2013.1/901 2013/11/27
 14 13  0  0  0  0  0  0  0  0999 V2000
    4.1899   16.2629    3.5516 C   0  0  0  0  0  0  0  0  0  0  0  0
    5.5852   16.8275    3.7771 C   0  0  0  0  0  0  0  0  0  0  0  0
    5.6011   18.0882    4.6419 C   0  0  2  0  0  0  0  0  0  0  0  0
    7.0172   18.7021    4.6589 C   0  0  0  0  0  0  0  0  0  0  0  0
    7.3897   19.2489    5.7823 N   0  0  0  0  0  0  0  0  0  0  0  0
    8.6917   19.7607    5.6571 O   0  0  0  0  0  0  0  0  0  0  0  0
    7.7874   18.6714    3.5266 N   0  0  0  0  0  0  0  0  0  0  0  0
    5.2194   17.7526    6.0492 N   0  3  0  0  0  0  0  0  0  0  0  0
    4.3549   17.1966    6.0506 H   0  0  0  0  0  0  0  0  0  0  0  0
    5.9391   17.2548    6.5804 H   0  0  0  0  0  0  0  0  0  0  0  0
    4.9744   18.6317    6.5308 H   0  0  0  0  0  0  0  0  0  0  0  0
    8.8215   20.2692    6.4823 H   0  0  0  0  0  0  0  0  0  0  0  0
    7.3427   18.6548    2.6142 H   0  0  0  0  0  0  0  0  0  0  0  0
    8.5501   17.9955    3.5995 H   0  0  0  0  0  0  0  0  0  0  0  0
  1  2  1  0  0  0  0
  3  4  1  0  0  0  0
  3  8  1  0  0  0  0
  3  2  1  6  0  0  0
  4  5  2  0  0  0  0
  4  7  1  0  0  0  0
  5  6  1  0  0  0  0
  6 12  1  0  0  0  0
  7 13  1  0  0  0  0
  7 14  1  0  0  0  0
  8  9  1  0  0  0  0
  8 10  1  0  0  0  0
  8 11  1  0  0  0  0
M  CHG  1   8   1
M  END
>  <CHROM.0>
-57.94690237,-58.77830112,-60.01681593,-46.10771465,-56.14237248,-175.26409282
-67.50563893,-56.25600972,-167.53422538

>  <CHROM.1>
-144.30856439,-49.82618553,-172.19349717,27.79974607,171.07225806,6.46244095
18.17468270,4.74367472,-2.65328090,0.54571719,1.20858225

>  <Name>
P108902482

>  <RI>
3.58524e+07

>  <Rbt.Current_Directory>
/home/fstefaniak/projects/zuza/docking/adenine/4XNR

>  <Rbt.Executable>
rbdock ($Id: //depot/dev/client3/rdock/2013.1/src/exe/rbdock.cxx#4 $)

>  <Rbt.Library>
libRbt.so (2013.1, Build901 2013/11/27)

>  <Rbt.Parameter_File>
/home/fstefaniak/progs/rDock//data/scripts/dock_solv.prm

>  <Rbt.Receptor>
4xnr.prm

>  <SCORE>
-51.281

>  <SCORE.INTER>
-31.7929

>  <SCORE.INTER.CONST>
1

>  <SCORE.INTER.POLAR>
-5.47467

>  <SCORE.INTER.ROT>
3

>  <SCORE.INTER.SOLV>
20.4414

>  <SCORE.INTER.VDW>
-15.3602

>  <SCORE.INTER.norm>
-3.97411

>  <SCORE.INTRA>
0.894953

>  <SCORE.INTRA.DIHEDRAL>
0.375582

>  <SCORE.INTRA.DIHEDRAL.0>
3.70319

>  <SCORE.INTRA.POLAR>
0.0875306

>  <SCORE.INTRA.POLAR.0>
-0.0875306

>  <SCORE.INTRA.REPUL>
0

>  <SCORE.INTRA.REPUL.0>
0

>  <SCORE.INTRA.SOLV>
-0.151367

>  <SCORE.INTRA.SOLV.lig_0>
-28.1699

>  <SCORE.INTRA.VDW>
0.485242

>  <SCORE.INTRA.VDW.0>
-0.658493

>  <SCORE.INTRA.norm>
0.111869

>  <SCORE.RESTR>
0

>  <SCORE.RESTR.CAVITY>
0

>  <SCORE.RESTR.norm>
0

>  <SCORE.SYSTEM>
-20.383

>  <SCORE.SYSTEM.CONST>
0

>  <SCORE.SYSTEM.DIHEDRAL>
4.21911

>  <SCORE.SYSTEM.POLAR>
-3.02006

>  <SCORE.SYSTEM.SOLV>
0.195972

>  <SCORE.SYSTEM.VDW>
-4.99352

>  <SCORE.SYSTEM.norm>
-2.54788

>  <SCORE.heavy>
8

>  <SCORE.norm>
-6.41012

$$$$
P108902482
 OpenBabel12072022113D
libRbt.so/2013.1/901 2013/11/27
 14 13  0  0  0  0  0  0  0  0999 V2000
    6.0721   18.8162    4.7163 C   0  0  0  0  0  0  0  0  0  0  0  0
    5.4053   17.4480    4.7160 C   0  0  0  0  0  0  0  0  0  0  0  0
    5.4476   16.7488    3.3571 C   0  0  2  0  0  0  0  0  0  0  0  0
    4.3889   17.3583    2.4136 C   0  0  0  0  0  0  0  0  0  0  0  0
    4.7823   17.6024    1.1948 N   0  0  0  0  0  0  0  0  0  0  0  0
    3.7237   18.1484    0.4503 O   0  0  0  0  0  0  0  0  0  0  0  0
    3.1322   17.6318    2.8849 N   0  0  0  0  0  0  0  0  0  0  0  0
    5.1480   15.2916    3.5177 N   0  3  0  0  0  0  0  0  0  0  0  0
    6.0103   14.7844    3.7536 H   0  0  0  0  0  0  0  0  0  0  0  0
    4.4311   15.0768    4.2162 H   0  0  0  0  0  0  0  0  0  0  0  0
    4.8618   14.9222    2.5977 H   0  0  0  0  0  0  0  0  0  0  0  0
    3.9955   19.0767    0.3068 H   0  0  0  0  0  0  0  0  0  0  0  0
    2.9366   18.5346    3.3059 H   0  0  0  0  0  0  0  0  0  0  0  0
    2.7502   16.8574    3.4309 H   0  0  0  0  0  0  0  0  0  0  0  0
  1  2  1  0  0  0  0
  3  4  1  0  0  0  0
  3  8  1  0  0  0  0
  3  2  1  1  0  0  0
  4  5  2  0  0  0  0
  4  7  1  0  0  0  0
  5  6  1  0  0  0  0
  6 12  1  0  0  0  0
  7 13  1  0  0  0  0
  7 14  1  0  0  0  0
  8  9  1  0  0  0  0
  8 10  1  0  0  0  0
  8 11  1  0  0  0  0
M  CHG  1   8   1
M  END
>  <CHROM.0>
-54.34776084,-63.97498952,-62.73143719,-45.69523166,-66.77149895,-59.63758765
-71.25377240,-54.45651541,-168.37242434

>  <CHROM.1>
135.59162909,-85.38027154,-77.14253172,88.66274625,110.37417674,4.72642582
17.36886753,2.88701013,-0.18226767,-1.09452063,-0.03360724

>  <Name>
P108902482

>  <RI>
3.58524e+07

>  <Rbt.Current_Directory>
/home/fstefaniak/projects/zuza/docking/adenine/4XNR

>  <Rbt.Executable>
rbdock ($Id: //depot/dev/client3/rdock/2013.1/src/exe/rbdock.cxx#4 $)

>  <Rbt.Library>
libRbt.so (2013.1, Build901 2013/11/27)

>  <Rbt.Parameter_File>
/home/fstefaniak/progs/rDock//data/scripts/dock_solv.prm

>  <Rbt.Receptor>
4xnr.prm

>  <SCORE>
-51.088

>  <SCORE.INTER>
-30.2351

>  <SCORE.INTER.CONST>
1

>  <SCORE.INTER.POLAR>
-5.69209

>  <SCORE.INTER.ROT>
3

>  <SCORE.INTER.SOLV>
18.0803

>  <SCORE.INTER.VDW>
-12.8099

>  <SCORE.INTER.norm>
-3.77939

>  <SCORE.INTRA>
-0.213836

>  <SCORE.INTRA.DIHEDRAL>
0.157784

>  <SCORE.INTRA.DIHEDRAL.0>
3.70319

>  <SCORE.INTRA.POLAR>
0.0875306

>  <SCORE.INTRA.POLAR.0>
-0.0875306

>  <SCORE.INTRA.REPUL>
0

>  <SCORE.INTRA.REPUL.0>
0

>  <SCORE.INTRA.SOLV>
-0.675465

>  <SCORE.INTRA.SOLV.lig_0>
-28.1699

>  <SCORE.INTRA.VDW>
-0.252599

>  <SCORE.INTRA.VDW.0>
-0.658493

>  <SCORE.INTRA.norm>
-0.0267295

>  <SCORE.RESTR>
0

>  <SCORE.RESTR.CAVITY>
0

>  <SCORE.RESTR.norm>
0

>  <SCORE.SYSTEM>
-20.6391

>  <SCORE.SYSTEM.CONST>
0

>  <SCORE.SYSTEM.DIHEDRAL>
4.834

>  <SCORE.SYSTEM.POLAR>
-3.05243

>  <SCORE.SYSTEM.SOLV>
0.286172

>  <SCORE.SYSTEM.VDW>
-5.29137

>  <SCORE.SYSTEM.norm>
-2.57989

>  <SCORE.heavy>
8

>  <SCORE.norm>
-6.386

$$$$
P108990635
 OpenBabel12072022113D
libRbt.so/2013.1/901 2013/11/27
 13 13  0  0  0  0  0  0  0  0999 V2000
    5.4754   18.2922    6.3508 C   0  0  0  0  0  0  0  0  0  0  0  0
    5.5191   17.1391    5.3511 C   0  0  0  0  0  0  0  0  0  0  0  0
    5.4690   17.6283    3.9730 N   0  0  0  0  0  0  0  0  0  0  0  0
    6.4761   18.6257    3.6227 C   0  0  0  0  0  0  0  0  0  0  0  0
    6.4554   19.8058    4.5905 C   0  0  0  0  0  0  0  0  0  0  0  0
    6.5322   19.3613    6.0538 C   0  0  0  0  0  0  0  0  0  0  0  0
    7.8830   18.8768    6.3925 C   0  0  0  0  0  0  0  0  0  0  0  0
    8.9421   18.4869    6.6598 N   0  0  0  0  0  0  0  0  0  0  0  0
    4.9327   16.8938    2.9333 C   0  0  0  0  0  0  0  0  0  0  0  0
    4.0481   17.2863    2.1812 O   0  0  0  0  0  0  0  0  0  0  0  0
    5.4321   15.6442    2.7708 N   0  0  0  0  0  0  0  0  0  0  0  0
    6.0929   15.3394    3.4692 H   0  0  0  0  0  0  0  0  0  0  0  0
    4.6996   14.9676    2.5920 H   0  0  0  0  0  0  0  0  0  0  0  0
  1  2  1  0  0  0  0
  1  6  1  0  0  0  0
  2  3  1  0  0  0  0
  3  4  1  0  0  0  0
  3  9  1  0  0  0  0
  4  5  1  0  0  0  0
  5  6  1  0  0  0  0
  6  7  1  0  0  0  0
  7  8  3  0  0  0  0
  9 10  2  0  0  0  0
  9 11  1  0  0  0  0
 11 12  1  0  0  0  0
 11 13  1  0  0  0  0
M  END
>  <CHROM.0>
-59.51221372,-59.85454949,-66.52645643,-47.66719176,-60.02090597,-66.61271038
-70.02232246,-55.15858289,-168.06486513

>  <CHROM.1>
125.37490247,4.86299106,6.05912246,17.95140054,4.56260116,-0.54378371,0.86362101
-3.02302021

>  <Name>
P108990635

>  <RI>
3.4169e+07

>  <Rbt.Current_Directory>
/home/fstefaniak/projects/zuza/docking/adenine/4XNR

>  <Rbt.Executable>
rbdock ($Id: //depot/dev/client3/rdock/2013.1/src/exe/rbdock.cxx#4 $)

>  <Rbt.Library>
libRbt.so (2013.1, Build901 2013/11/27)

>  <Rbt.Parameter_File>
/home/fstefaniak/progs/rDock//data/scripts/dock_solv.prm

>  <Rbt.Receptor>
4xnr.prm

>  <SCORE>
-48.6379

>  <SCORE.INTER>
-26.6756

>  <SCORE.INTER.CONST>
1

>  <SCORE.INTER.POLAR>
-3.34022

>  <SCORE.INTER.ROT>
2

>  <SCORE.INTER.SOLV>
13.3687

>  <SCORE.INTER.VDW>
-16.0393

>  <SCORE.INTER.norm>
-2.42506

>  <SCORE.INTRA>
-1.1175

>  <SCORE.INTRA.DIHEDRAL>
-0.0123604

>  <SCORE.INTRA.DIHEDRAL.0>
0.9606

>  <SCORE.INTRA.POLAR>
0

>  <SCORE.INTRA.POLAR.0>
0

>  <SCORE.INTRA.REPUL>
0

>  <SCORE.INTRA.REPUL.0>
0

>  <SCORE.INTRA.SOLV>
-0.0244597

>  <SCORE.INTRA.SOLV.lig_0>
-14.9476

>  <SCORE.INTRA.VDW>
-1.09909

>  <SCORE.INTRA.VDW.0>
0.705009

>  <SCORE.INTRA.norm>
-0.101591

>  <SCORE.RESTR>
0

>  <SCORE.RESTR.CAVITY>
0

>  <SCORE.RESTR.norm>
0

>  <SCORE.SYSTEM>
-20.8447

>  <SCORE.SYSTEM.CONST>
0

>  <SCORE.SYSTEM.DIHEDRAL>
4.41567

>  <SCORE.SYSTEM.POLAR>
-2.97562

>  <SCORE.SYSTEM.SOLV>
0.27048

>  <SCORE.SYSTEM.VDW>
-5.5398

>  <SCORE.SYSTEM.norm>
-1.89498

>  <SCORE.heavy>
11

>  <SCORE.norm>
-4.42163

$$$$
P108990635
 OpenBabel12072022113D
libRbt.so/2013.1/901 2013/11/27
 13 13  0  0  0  0  0  0  0  0999 V2000
    5.5172   18.4655    6.3636 C   0  0  0  0  0  0  0  0  0  0  0  0
    5.4559   17.2025    5.5080 C   0  0  0  0  0  0  0  0  0  0  0  0
    5.4000   17.5285    4.0826 N   0  0  0  0  0  0  0  0  0  0  0  0
    6.4611   18.4054    3.5959 C   0  0  0  0  0  0  0  0  0  0  0  0
    6.5462   19.6897    4.4162 C   0  0  0  0  0  0  0  0  0  0  0  0
    6.6342   19.4162    5.9203 C   0  0  0  0  0  0  0  0  0  0  0  0
    7.9586   18.8822    6.2874 C   0  0  0  0  0  0  0  0  0  0  0  0
    8.9964   18.4539    6.5781 N   0  0  0  0  0  0  0  0  0  0  0  0
    4.7870   16.7159    3.1489 C   0  0  0  0  0  0  0  0  0  0  0  0
    3.6710   16.9060    2.6793 O   0  0  0  0  0  0  0  0  0  0  0  0
    5.4922   15.6267    2.7568 N   0  0  0  0  0  0  0  0  0  0  0  0
    6.2939   15.3936    3.3227 H   0  0  0  0  0  0  0  0  0  0  0  0
    4.8882   14.8341    2.5745 H   0  0  0  0  0  0  0  0  0  0  0  0
  1  2  1  0  0  0  0
  1  6  1  0  0  0  0
  2  3  1  0  0  0  0
  3  4  1  0  0  0  0
  3  9  1  0  0  0  0
  4  5  1  0  0  0  0
  5  6  1  0  0  0  0
  6  7  1  0  0  0  0
  7  8  3  0  0  0  0
  9 10  2  0  0  0  0
  9 11  1  0  0  0  0
 11 12  1  0  0  0  0
 11 13  1  0  0  0  0
M  END
>  <CHROM.0>
-59.30580522,-65.14714538,60.41763359,-45.34598839,-62.32188101,-64.62414509
51.83821453,-59.62993651,-167.98006799

>  <CHROM.1>
101.00092690,13.31407448,6.03461535,17.87943429,4.60926322,0.85925083,-0.39665924
0.60960768

>  <Name>
P108990635

>  <RI>
3.4169e+07

>  <Rbt.Current_Directory>
/home/fstefaniak/projects/zuza/docking/adenine/4XNR

>  <Rbt.Executable>
rbdock ($Id: //depot/dev/client3/rdock/2013.1/src/exe/rbdock.cxx#4 $)

>  <Rbt.Library>
libRbt.so (2013.1, Build901 2013/11/27)

>  <Rbt.Parameter_File>
/home/fstefaniak/progs/rDock//data/scripts/dock_solv.prm

>  <Rbt.Receptor>
4xnr.prm

>  <SCORE>
-48.4469

>  <SCORE.INTER>
-28.1294

>  <SCORE.INTER.CONST>
1

>  <SCORE.INTER.POLAR>
-3.50234

>  <SCORE.INTER.ROT>
2

>  <SCORE.INTER.SOLV>
13.2687

>  <SCORE.INTER.VDW>
-16.4347

>  <SCORE.INTER.norm>
-2.55722

>  <SCORE.INTRA>
-1.35587

>  <SCORE.INTRA.DIHEDRAL>
-0.00853981

>  <SCORE.INTRA.DIHEDRAL.0>
0.9606

>  <SCORE.INTRA.POLAR>
0

>  <SCORE.INTRA.POLAR.0>
0

>  <SCORE.INTRA.REPUL>
0

>  <SCORE.INTRA.REPUL.0>
0

>  <SCORE.INTRA.SOLV>
-0.0282347

>  <SCORE.INTRA.SOLV.lig_0>
-14.9476

>  <SCORE.INTRA.VDW>
-1.33749

>  <SCORE.INTRA.VDW.0>
0.705009

>  <SCORE.INTRA.norm>
-0.123261

>  <SCORE.RESTR>
0

>  <SCORE.RESTR.CAVITY>
0

>  <SCORE.RESTR.norm>
0

>  <SCORE.SYSTEM>
-18.9616

>  <SCORE.SYSTEM.CONST>
0

>  <SCORE.SYSTEM.DIHEDRAL>
4.30741

>  <SCORE.SYSTEM.POLAR>
-2.98038

>  <SCORE.SYSTEM.SOLV>
0.180184

>  <SCORE.SYSTEM.VDW>
-4.20234

>  <SCORE.SYSTEM.norm>
-1.72378

>  <SCORE.heavy>
11

>  <SCORE.norm>
-4.40427

$$$$
P108990635
 OpenBabel12072022113D
libRbt.so/2013.1/901 2013/11/27
 13 13  0  0  0  0  0  0  0  0999 V2000
    5.5406   18.5278    6.3850 C   0  0  0  0  0  0  0  0  0  0  0  0
    5.4558   17.2481    5.5566 C   0  0  0  0  0  0  0  0  0  0  0  0
    5.3799   17.5452    4.1259 N   0  0  0  0  0  0  0  0  0  0  0  0
    6.4401   18.4031    3.6046 C   0  0  0  0  0  0  0  0  0  0  0  0
    6.5484   19.7033    4.3968 C   0  0  0  0  0  0  0  0  0  0  0  0
    6.6580   19.4599    5.9047 C   0  0  0  0  0  0  0  0  0  0  0  0
    7.9838   18.9227    6.2619 C   0  0  0  0  0  0  0  0  0  0  0  0
    9.0227   18.4918    6.5451 N   0  0  0  0  0  0  0  0  0  0  0  0
    4.7458   16.7187    3.2188 C   0  0  0  0  0  0  0  0  0  0  0  0
    3.6020   16.8762    2.8076 O   0  0  0  0  0  0  0  0  0  0  0  0
    5.4637   15.6543    2.7841 N   0  0  0  0  0  0  0  0  0  0  0  0
    6.2542   15.3936    3.3536 H   0  0  0  0  0  0  0  0  0  0  0  0
    4.8669   14.8708    2.5469 H   0  0  0  0  0  0  0  0  0  0  0  0
  1  2  1  0  0  0  0
  1  6  1  0  0  0  0
  2  3  1  0  0  0  0
  3  4  1  0  0  0  0
  3  9  1  0  0  0  0
  4  5  1  0  0  0  0
  5  6  1  0  0  0  0
  6  7  1  0  0  0  0
  7  8  3  0  0  0  0
  9 10  2  0  0  0  0
  9 11  1  0  0  0  0
 11 12  1  0  0  0  0
 11 13  1  0  0  0  0
M  END
>  <CHROM.0>
-61.46365228,53.95827533,60.76460300,-48.57415983,-61.31274237,-63.75088855
53.93439349,-62.26335489,-168.10699412

>  <CHROM.1>
97.62177729,18.49849330,6.02616821,17.90208924,4.63372503,0.86909580,-0.30461316
0.66015644

>  <Name>
P108990635

>  <RI>
3.4169e+07

>  <Rbt.Current_Directory>
/home/fstefaniak/projects/zuza/docking/adenine/4XNR

>  <Rbt.Executable>
rbdock ($Id: //depot/dev/client3/rdock/2013.1/src/exe/rbdock.cxx#4 $)

>  <Rbt.Library>
libRbt.so (2013.1, Build901 2013/11/27)

>  <Rbt.Parameter_File>
/home/fstefaniak/progs/rDock//data/scripts/dock_solv.prm

>  <Rbt.Receptor>
4xnr.prm

>  <SCORE>
-47.556

>  <SCORE.INTER>
-28.0295

>  <SCORE.INTER.CONST>
1

>  <SCORE.INTER.POLAR>
-3.49588

>  <SCORE.INTER.ROT>
2

>  <SCORE.INTER.SOLV>
13.2351

>  <SCORE.INTER.VDW>
-16.3785

>  <SCORE.INTER.norm>
-2.54814

>  <SCORE.INTRA>
-1.34048

>  <SCORE.INTRA.DIHEDRAL>
-0.00841453

>  <SCORE.INTRA.DIHEDRAL.0>
0.9606

>  <SCORE.INTRA.POLAR>
0

>  <SCORE.INTRA.POLAR.0>
0

>  <SCORE.INTRA.REPUL>
0

>  <SCORE.INTRA.REPUL.0>
0

>  <SCORE.INTRA.SOLV>
-0.0296698

>  <SCORE.INTRA.SOLV.lig_0>
-14.9476

>  <SCORE.INTRA.VDW>
-1.32144

>  <SCORE.INTRA.VDW.0>
0.705009

>  <SCORE.INTRA.norm>
-0.121862

>  <SCORE.RESTR>
0

>  <SCORE.RESTR.CAVITY>
0

>  <SCORE.RESTR.norm>
0

>  <SCORE.SYSTEM>
-18.186

>  <SCORE.SYSTEM.CONST>
0

>  <SCORE.SYSTEM.DIHEDRAL>
3.81762

>  <SCORE.SYSTEM.POLAR>
-2.94476

>  <SCORE.SYSTEM.SOLV>
0.270198

>  <SCORE.SYSTEM.VDW>
-3.6707

>  <SCORE.SYSTEM.norm>
-1.65327

>  <SCORE.heavy>
11

>  <SCORE.norm>
-4.32327

$$$$
P109006999
 OpenBabel12072022113D
libRbt.so/2013.1/901 2013/11/27
 17 16  0  0  0  0  0  0  0  0999 V2000
    3.3401   13.0074    3.8990 C   0  0  0  0  0  0  0  0  0  0  0  0
    2.9717   14.4802    3.9007 C   0  0  0  0  0  0  0  0  0  0  0  0
    4.0617   15.3213    3.4393 N   0  0  0  0  0  0  0  0  0  0  0  0
    3.9622   16.6801    3.4326 C   0  0  0  0  0  0  0  0  0  0  0  0
    3.3794   17.3397    2.5802 O   0  0  0  0  0  0  0  0  0  0  0  0
    4.6195   17.2530    4.4885 N   0  0  0  0  0  0  0  0  0  0  0  0
    5.5914   18.3356    4.3310 C   0  0  2  0  0  0  0  0  0  0  0  0
    6.6335   18.0750    3.2501 C   0  0  0  0  0  0  0  0  0  0  0  0
    6.2266   18.6415    5.6749 C   0  0  0  0  0  0  0  0  0  0  0  0
    5.8718   17.9209    6.7222 N   0  3  0  0  0  0  0  0  0  0  0  0
    6.2709   18.0850    7.6381 H   0  0  0  0  0  0  0  0  0  0  0  0
    5.1995   17.1649    6.6437 H   0  0  0  0  0  0  0  0  0  0  0  0
    7.1081   19.6121    5.7868 N   0  0  0  0  0  0  0  0  0  0  0  0
    4.7257   14.8927    2.8100 H   0  0  0  0  0  0  0  0  0  0  0  0
    4.0579   17.2870    5.3305 H   0  0  0  0  0  0  0  0  0  0  0  0
    7.4230   20.0945    4.9323 H   0  0  0  0  0  0  0  0  0  0  0  0
    7.5798   19.8646    6.6420 H   0  0  0  0  0  0  0  0  0  0  0  0
  1  2  1  0  0  0  0
  2  3  1  0  0  0  0
  3  4  1  0  0  0  0
  3 14  1  0  0  0  0
  4  5  2  0  0  0  0
  4  6  1  0  0  0  0
  6 15  1  0  0  0  0
  7  8  1  6  0  0  0
  7  9  1  0  0  0  0
  7  6  1  0  0  0  0
  9 10  2  0  0  0  0
  9 13  1  0  0  0  0
 10 11  1  0  0  0  0
 10 12  1  0  0  0  0
 13 16  1  0  0  0  0
 13 17  1  0  0  0  0
M  CHG  1  10   1
M  END
>  <CHROM.0>
-46.69670150,46.35557918,-60.36051676,-42.13106663,-64.50553223,-61.29034673
-64.84104353,-58.63245973,-168.52257355

>  <CHROM.1>
-176.41062713,-79.60514450,128.54889023,1.67758716,-48.25559783,4.89797435
16.96505231,4.33245629,-2.97398364,-0.97471798,-0.95537145

>  <Name>
P109006999

>  <RI>
3.58524e+07

>  <Rbt.Current_Directory>
/home/fstefaniak/projects/zuza/docking/adenine/4XNR

>  <Rbt.Executable>
rbdock ($Id: //depot/dev/client3/rdock/2013.1/src/exe/rbdock.cxx#4 $)

>  <Rbt.Library>
libRbt.so (2013.1, Build901 2013/11/27)

>  <Rbt.Parameter_File>
/home/fstefaniak/progs/rDock//data/scripts/dock_solv.prm

>  <Rbt.Receptor>
4xnr.prm

>  <SCORE>
-56.2447

>  <SCORE.INTER>
-38.753

>  <SCORE.INTER.CONST>
1

>  <SCORE.INTER.POLAR>
-6.14725

>  <SCORE.INTER.ROT>
5

>  <SCORE.INTER.SOLV>
21.744

>  <SCORE.INTER.VDW>
-19.5258

>  <SCORE.INTER.norm>
-3.523

>  <SCORE.INTRA>
1.82481

>  <SCORE.INTRA.DIHEDRAL>
-0.845999

>  <SCORE.INTRA.DIHEDRAL.0>
4.0121

>  <SCORE.INTRA.POLAR>
0.616828

>  <SCORE.INTRA.POLAR.0>
-0.667506

>  <SCORE.INTRA.REPUL>
0

>  <SCORE.INTRA.REPUL.0>
0

>  <SCORE.INTRA.SOLV>
-1.54222

>  <SCORE.INTRA.SOLV.lig_0>
-33.8655

>  <SCORE.INTRA.VDW>
0.921701

>  <SCORE.INTRA.VDW.0>
0.265114

>  <SCORE.INTRA.norm>
0.165892

>  <SCORE.RESTR>
0

>  <SCORE.RESTR.CAVITY>
0

>  <SCORE.RESTR.norm>
0

>  <SCORE.SYSTEM>
-19.3165

>  <SCORE.SYSTEM.CONST>
0

>  <SCORE.SYSTEM.DIHEDRAL>
5.99785

>  <SCORE.SYSTEM.POLAR>
-3.22282

>  <SCORE.SYSTEM.SOLV>
0.442298

>  <SCORE.SYSTEM.VDW>
-4.28166

>  <SCORE.SYSTEM.norm>
-1.75605

>  <SCORE.heavy>
11

>  <SCORE.norm>
-5.11316

$$$$
P109006999
 OpenBabel12072022113D
libRbt.so/2013.1/901 2013/11/27
 17 16  0  0  0  0  0  0  0  0999 V2000
    6.7743   19.0249    5.5895 C   0  0  0  0  0  0  0  0  0  0  0  0
    5.7009   18.6863    4.5706 C   0  0  0  0  0  0  0  0  0  0  0  0
    5.2233   17.3219    4.7062 N   0  0  0  0  0  0  0  0  0  0  0  0
    4.9288   16.5564    3.6182 C   0  0  0  0  0  0  0  0  0  0  0  0
    5.7347   16.2060    2.7643 O   0  0  0  0  0  0  0  0  0  0  0  0
    3.6001   16.2309    3.5580 N   0  0  0  0  0  0  0  0  0  0  0  0
    3.0063   15.1517    4.3479 C   0  0  2  0  0  0  0  0  0  0  0  0
    3.5627   13.7713    4.0207 C   0  0  0  0  0  0  0  0  0  0  0  0
    1.4953   15.2042    4.2168 C   0  0  0  0  0  0  0  0  0  0  0  0
    0.8937   16.3769    4.2863 N   0  3  0  0  0  0  0  0  0  0  0  0
   -0.1115   16.4627    4.2003 H   0  0  0  0  0  0  0  0  0  0  0  0
    1.4183   17.2366    4.4104 H   0  0  0  0  0  0  0  0  0  0  0  0
    0.8051   14.0972    4.0442 N   0  0  0  0  0  0  0  0  0  0  0  0
    4.7850   17.0835    5.5847 H   0  0  0  0  0  0  0  0  0  0  0  0
    3.0048   17.0339    3.3953 H   0  0  0  0  0  0  0  0  0  0  0  0
    1.3161   13.2126    3.9089 H   0  0  0  0  0  0  0  0  0  0  0  0
   -0.1971   14.0553    3.9371 H   0  0  0  0  0  0  0  0  0  0  0  0
  1  2  1  0  0  0  0
  2  3  1  0  0  0  0
  3  4  1  0  0  0  0
  3 14  1  0  0  0  0
  4  5  2  0  0  0  0
  4  6  1  0  0  0  0
  6 15  1  0  0  0  0
  7  8  1  6  0  0  0
  7  9  1  0  0  0  0
  7  6  1  0  0  0  0
  9 10  2  0  0  0  0
  9 13  1  0  0  0  0
 10 11  1  0  0  0  0
 10 12  1  0  0  0  0
 13 16  1  0  0  0  0
 13 17  1  0  0  0  0
M  CHG  1  10   1
M  END
>  <CHROM.0>
-55.40040422,-59.51628124,-75.27517808,-46.95747437,-177.69618393,-64.42009238
-176.47729811,-179.90126665,-167.53779550

>  <CHROM.1>
-141.32709699,63.18912573,-79.95032277,-43.40300597,-62.85518147,3.77553227
16.24171961,4.15554154,0.62044906,0.18376299,0.41287555

>  <Name>
P109006999

>  <RI>
3.58524e+07

>  <Rbt.Current_Directory>
/home/fstefaniak/projects/zuza/docking/adenine/4XNR

>  <Rbt.Executable>
rbdock ($Id: //depot/dev/client3/rdock/2013.1/src/exe/rbdock.cxx#4 $)

>  <Rbt.Library>
libRbt.so (2013.1, Build901 2013/11/27)

>  <Rbt.Parameter_File>
/home/fstefaniak/progs/rDock//data/scripts/dock_solv.prm

>  <Rbt.Receptor>
4xnr.prm

>  <SCORE>
-54.5078

>  <SCORE.INTER>
-37.6855

>  <SCORE.INTER.CONST>
1

>  <SCORE.INTER.POLAR>
-5.33658

>  <SCORE.INTER.ROT>
5

>  <SCORE.INTER.SOLV>
16.9905

>  <SCORE.INTER.VDW>
-19.9319

>  <SCORE.INTER.norm>
-3.42595

>  <SCORE.INTRA>
3.42334

>  <SCORE.INTRA.DIHEDRAL>
-0.402238

>  <SCORE.INTRA.DIHEDRAL.0>
4.0121

>  <SCORE.INTRA.POLAR>
0.665383

>  <SCORE.INTRA.POLAR.0>
-0.667506

>  <SCORE.INTRA.REPUL>
0

>  <SCORE.INTRA.REPUL.0>
0

>  <SCORE.INTRA.SOLV>
-1.47206

>  <SCORE.INTRA.SOLV.lig_0>
-33.8655

>  <SCORE.INTRA.VDW>
2.09819

>  <SCORE.INTRA.VDW.0>
0.265114

>  <SCORE.INTRA.norm>
0.311213

>  <SCORE.RESTR>
0

>  <SCORE.RESTR.CAVITY>
0

>  <SCORE.RESTR.norm>
0

>  <SCORE.SYSTEM>
-20.2457

>  <SCORE.SYSTEM.CONST>
0

>  <SCORE.SYSTEM.DIHEDRAL>
4.88092

>  <SCORE.SYSTEM.POLAR>
-2.98089

>  <SCORE.SYSTEM.SOLV>
-0.0810516

>  <SCORE.SYSTEM.VDW>
-5.1608

>  <SCORE.SYSTEM.norm>
-1.84052

>  <SCORE.heavy>
11

>  <SCORE.norm>
-4.95526

$$$$
P109006999
 OpenBabel12072022113D
libRbt.so/2013.1/901 2013/11/27
 17 16  0  0  0  0  0  0  0  0999 V2000
    6.3597   18.1646    4.3819 C   0  0  0  0  0  0  0  0  0  0  0  0
    6.5221   17.5488    3.0037 C   0  0  0  0  0  0  0  0  0  0  0  0
    5.8652   16.2584    2.8961 N   0  0  0  0  0  0  0  0  0  0  0  0
    4.5222   16.1552    2.6904 C   0  0  0  0  0  0  0  0  0  0  0  0
    3.8256   17.0035    2.1459 O   0  0  0  0  0  0  0  0  0  0  0  0
    4.0095   14.9882    3.1908 N   0  0  0  0  0  0  0  0  0  0  0  0
    3.1290   14.9393    4.3585 C   0  0  2  0  0  0  0  0  0  0  0  0
    3.3105   13.6917    5.2146 C   0  0  0  0  0  0  0  0  0  0  0  0
    1.6900   15.1214    3.9122 C   0  0  0  0  0  0  0  0  0  0  0  0
    1.1381   16.3150    4.0247 N   0  3  0  0  0  0  0  0  0  0  0  0
    0.1826   16.4862    3.7366 H   0  0  0  0  0  0  0  0  0  0  0  0
    1.6568   17.1082    4.3872 H   0  0  0  0  0  0  0  0  0  0  0  0
    1.0107   14.1029    3.4299 N   0  0  0  0  0  0  0  0  0  0  0  0
    6.3400   15.4746    3.3213 H   0  0  0  0  0  0  0  0  0  0  0  0
    3.8230   14.2997    2.4718 H   0  0  0  0  0  0  0  0  0  0  0  0
    1.5014   13.2096    3.2775 H   0  0  0  0  0  0  0  0  0  0  0  0
    0.0575   14.1507    3.1029 H   0  0  0  0  0  0  0  0  0  0  0  0
  1  2  1  0  0  0  0
  2  3  1  0  0  0  0
  3  4  1  0  0  0  0
  3 14  1  0  0  0  0
  4  5  2  0  0  0  0
  4  6  1  0  0  0  0
  6 15  1  0  0  0  0
  7  8  1  6  0  0  0
  7  9  1  0  0  0  0
  7  6  1  0  0  0  0
  9 10  2  0  0  0  0
  9 13  1  0  0  0  0
 10 11  1  0  0  0  0
 10 12  1  0  0  0  0
 13 16  1  0  0  0  0
 13 17  1  0  0  0  0
M  CHG  1  10   1
M  END
>  <CHROM.0>
-56.32675887,-173.13277754,-71.87232947,-46.51822471,-60.60017547,-65.02987137
-169.18124913,-57.43481333,-167.82754159

>  <CHROM.1>
80.00966318,25.90079810,110.26994025,-99.04827449,-146.32431117,3.74038459
15.84357950,3.56082420,-0.54474982,0.15525164,2.63749595

>  <Name>
P109006999

>  <RI>
3.58524e+07

>  <Rbt.Current_Directory>
/home/fstefaniak/projects/zuza/docking/adenine/4XNR

>  <Rbt.Executable>
rbdock ($Id: //depot/dev/client3/rdock/2013.1/src/exe/rbdock.cxx#4 $)

>  <Rbt.Library>
libRbt.so (2013.1, Build901 2013/11/27)

>  <Rbt.Parameter_File>
/home/fstefaniak/progs/rDock//data/scripts/dock_solv.prm

>  <Rbt.Receptor>
4xnr.prm

>  <SCORE>
-54.1408

>  <SCORE.INTER>
-33.9695

>  <SCORE.INTER.CONST>
1

>  <SCORE.INTER.POLAR>
-5.2262

>  <SCORE.INTER.ROT>
5

>  <SCORE.INTER.SOLV>
16.9886

>  <SCORE.INTER.VDW>
-17.8219

>  <SCORE.INTER.norm>
-3.08813

>  <SCORE.INTRA>
-0.113666

>  <SCORE.INTRA.DIHEDRAL>
-0.548996

>  <SCORE.INTRA.DIHEDRAL.0>
4.0121

>  <SCORE.INTRA.POLAR>
0.667506

>  <SCORE.INTRA.POLAR.0>
-0.667506

>  <SCORE.INTRA.REPUL>
0

>  <SCORE.INTRA.REPUL.0>
0

>  <SCORE.INTRA.SOLV>
-1.37027

>  <SCORE.INTRA.SOLV.lig_0>
-33.8655

>  <SCORE.INTRA.VDW>
-1.42355

>  <SCORE.INTRA.VDW.0>
0.265114

>  <SCORE.INTRA.norm>
-0.0103332

>  <SCORE.RESTR>
0

>  <SCORE.RESTR.CAVITY>
0

>  <SCORE.RESTR.norm>
0

>  <SCORE.SYSTEM>
-20.0576

>  <SCORE.SYSTEM.CONST>
0

>  <SCORE.SYSTEM.DIHEDRAL>
5.20322

>  <SCORE.SYSTEM.POLAR>
-3.00013

>  <SCORE.SYSTEM.SOLV>
0.20611

>  <SCORE.SYSTEM.VDW>
-5.17445

>  <SCORE.SYSTEM.norm>
-1.82342

>  <SCORE.heavy>
11

>  <SCORE.norm>
-4.92189

$$$$
P109007011
 OpenBabel12072022113D
libRbt.so/2013.1/901 2013/11/27
 18 18  0  0  0  0  0  0  0  0999 V2000
    3.1859   13.3475    5.0286 C   0  0  0  0  0  0  0  0  0  0  0  0
    3.2077   14.7840    4.5201 C   0  0  2  0  0  0  0  0  0  0  0  0
    1.8754   15.1976    3.9217 C   0  0  0  0  0  0  0  0  0  0  0  0
    1.4963   16.4572    3.9480 N   0  3  0  0  0  0  0  0  0  0  0  0
    0.6226   16.8028    3.5804 H   0  0  0  0  0  0  0  0  0  0  0  0
    2.0773   17.1390    4.4580 H   0  0  0  0  0  0  0  0  0  0  0  0
    1.1159   14.2712    3.3677 N   0  0  0  0  0  0  0  0  0  0  0  0
    4.2830   15.0535    3.5635 N   0  0  0  0  0  0  0  0  0  0  0  0
    4.8339   16.2990    3.3925 C   0  0  0  0  0  0  0  0  0  0  0  0
    5.2206   16.6991    2.2991 O   0  0  0  0  0  0  0  0  0  0  0  0
    4.8743   17.0200    4.5544 N   0  0  0  0  0  0  0  0  0  0  0  0
    5.3617   18.3643    4.5964 C   0  0  0  0  0  0  0  0  0  0  0  0
    6.0555   18.8756    5.8294 C   0  0  0  0  0  0  0  0  0  0  0  0
    6.8350   18.6605    4.5661 C   0  0  0  0  0  0  0  0  0  0  0  0
    1.3956   13.2961    3.3463 H   0  0  0  0  0  0  0  0  0  0  0  0
    0.2186   14.4979    2.9566 H   0  0  0  0  0  0  0  0  0  0  0  0
    4.2507   14.5118    2.7085 H   0  0  0  0  0  0  0  0  0  0  0  0
    4.2969   16.7219    5.3298 H   0  0  0  0  0  0  0  0  0  0  0  0
  2  3  1  0  0  0  0
  2  8  1  0  0  0  0
  2  1  1  6  0  0  0
  3  4  2  0  0  0  0
  3  7  1  0  0  0  0
  4  5  1  0  0  0  0
  4  6  1  0  0  0  0
  7 15  1  0  0  0  0
  7 16  1  0  0  0  0
  8  9  1  0  0  0  0
  8 17  1  0  0  0  0
  9 10  2  0  0  0  0
  9 11  1  0  0  0  0
 11 12  1  0  0  0  0
 11 18  1  0  0  0  0
 12 13  1  0  0  0  0
 12 14  1  0  0  0  0
 13 14  1  0  0  0  0
M  CHG  1   4   1
M  END
>  <CHROM.0>
-58.50739885,-67.44384117,-65.97874668,-48.30195394,-53.59716546,-62.28719730
-65.21178403,58.38694482,-167.34062891

>  <CHROM.1>
151.35050060,-152.88109454,-145.31812001,-148.15314026,3.98430418,16.22210246
4.10853752,-2.38530680,0.13131896,0.32447118

>  <Name>
P109007011

>  <RI>
3.58524e+07

>  <Rbt.Current_Directory>
/home/fstefaniak/projects/zuza/docking/adenine/4XNR

>  <Rbt.Executable>
rbdock ($Id: //depot/dev/client3/rdock/2013.1/src/exe/rbdock.cxx#4 $)

>  <Rbt.Library>
libRbt.so (2013.1, Build901 2013/11/27)

>  <Rbt.Parameter_File>
/home/fstefaniak/progs/rDock//data/scripts/dock_solv.prm

>  <Rbt.Receptor>
4xnr.prm

>  <SCORE>
-55.7979

>  <SCORE.INTER>
-38.9354

>  <SCORE.INTER.CONST>
1

>  <SCORE.INTER.POLAR>
-5.04393

>  <SCORE.INTER.ROT>
4

>  <SCORE.INTER.SOLV>
16.6691

>  <SCORE.INTER.VDW>
-20.9669

>  <SCORE.INTER.norm>
-3.24462

>  <SCORE.INTRA>
2.86213

>  <SCORE.INTRA.DIHEDRAL>
0.0529968

>  <SCORE.INTRA.DIHEDRAL.0>
3.44945

>  <SCORE.INTRA.POLAR>
0.68438

>  <SCORE.INTRA.POLAR.0>
-0.68438

>  <SCORE.INTRA.REPUL>
0

>  <SCORE.INTRA.REPUL.0>
0

>  <SCORE.INTRA.SOLV>
-0.204405

>  <SCORE.INTRA.SOLV.lig_0>
-35.3507

>  <SCORE.INTRA.VDW>
0.610945

>  <SCORE.INTRA.VDW.0>
-0.227401

>  <SCORE.INTRA.norm>
0.238511

>  <SCORE.RESTR>
0

>  <SCORE.RESTR.CAVITY>
0

>  <SCORE.RESTR.norm>
0

>  <SCORE.SYSTEM>
-19.7245

>  <SCORE.SYSTEM.CONST>
0

>  <SCORE.SYSTEM.DIHEDRAL>
4.25558

>  <SCORE.SYSTEM.POLAR>
-2.97731

>  <SCORE.SYSTEM.SOLV>
0.115747

>  <SCORE.SYSTEM.VDW>
-4.68243

>  <SCORE.SYSTEM.norm>
-1.64371

>  <SCORE.heavy>
12

>  <SCORE.norm>
-4.64982

$$$$
P109007011
 OpenBabel12072022113D
libRbt.so/2013.1/901 2013/11/27
 18 18  0  0  0  0  0  0  0  0999 V2000
    3.5479   13.9098    3.9585 C   0  0  0  0  0  0  0  0  0  0  0  0
    2.9607   15.2842    4.2567 C   0  0  2  0  0  0  0  0  0  0  0  0
    1.4429   15.2656    4.2688 C   0  0  0  0  0  0  0  0  0  0  0  0
    0.7910   14.1233    4.2331 N   0  3  0  0  0  0  0  0  0  0  0  0
   -0.2140   14.0344    4.2278 H   0  0  0  0  0  0  0  0  0  0  0  0
    1.3260   13.2511    4.1083 H   0  0  0  0  0  0  0  0  0  0  0  0
    0.7965   16.4148    4.3270 N   0  0  0  0  0  0  0  0  0  0  0  0
    3.4338   16.3349    3.3532 N   0  0  0  0  0  0  0  0  0  0  0  0
    4.6853   16.8908    3.4468 C   0  0  0  0  0  0  0  0  0  0  0  0
    5.4517   16.9424    2.4903 O   0  0  0  0  0  0  0  0  0  0  0  0
    4.9500   17.3827    4.6957 N   0  0  0  0  0  0  0  0  0  0  0  0
    6.1766   18.0516    5.0032 C   0  0  0  0  0  0  0  0  0  0  0  0
    6.2443   19.5540    4.9685 C   0  0  0  0  0  0  0  0  0  0  0  0
    6.3416   18.8298    6.2784 C   0  0  0  0  0  0  0  0  0  0  0  0
    1.2886   17.3018    4.3495 H   0  0  0  0  0  0  0  0  0  0  0  0
   -0.2154   16.4537    4.3361 H   0  0  0  0  0  0  0  0  0  0  0  0
    2.7286   16.9921    3.0430 H   0  0  0  0  0  0  0  0  0  0  0  0
    4.1765   17.5388    5.3287 H   0  0  0  0  0  0  0  0  0  0  0  0
  2  3  1  0  0  0  0
  2  8  1  0  0  0  0
  2  1  1  6  0  0  0
  3  4  2  0  0  0  0
  3  7  1  0  0  0  0
  4  5  1  0  0  0  0
  4  6  1  0  0  0  0
  7 15  1  0  0  0  0
  7 16  1  0  0  0  0
  8  9  1  0  0  0  0
  8 17  1  0  0  0  0
  9 10  2  0  0  0  0
  9 11  1  0  0  0  0
 11 12  1  0  0  0  0
 11 18  1  0  0  0  0
 12 13  1  0  0  0  0
 12 14  1  0  0  0  0
 13 14  1  0  0  0  0
M  CHG  1   4   1
M  END
>  <CHROM.0>
-56.31233808,-62.89197487,-65.08895313,-48.44728372,58.96301623,-173.36287291
-68.29539311,-54.85963886,-167.85617911

>  <CHROM.1>
9.92499713,-75.60755856,126.59370210,96.36258344,3.84586392,16.55842645,4.25514145
-2.53036587,0.34332097,0.67316561

>  <Name>
P109007011

>  <RI>
3.58524e+07

>  <Rbt.Current_Directory>
/home/fstefaniak/projects/zuza/docking/adenine/4XNR

>  <Rbt.Executable>
rbdock ($Id: //depot/dev/client3/rdock/2013.1/src/exe/rbdock.cxx#4 $)

>  <Rbt.Library>
libRbt.so (2013.1, Build901 2013/11/27)

>  <Rbt.Parameter_File>
/home/fstefaniak/progs/rDock//data/scripts/dock_solv.prm

>  <Rbt.Receptor>
4xnr.prm

>  <SCORE>
-54.8452

>  <SCORE.INTER>
-39.4499

>  <SCORE.INTER.CONST>
1

>  <SCORE.INTER.POLAR>
-5.01497

>  <SCORE.INTER.ROT>
4

>  <SCORE.INTER.SOLV>
18.1756

>  <SCORE.INTER.VDW>
-21.9086

>  <SCORE.INTER.norm>
-3.28749

>  <SCORE.INTRA>
4.29739

>  <SCORE.INTRA.DIHEDRAL>
0.646216

>  <SCORE.INTRA.DIHEDRAL.0>
3.44945

>  <SCORE.INTRA.POLAR>
0.68438

>  <SCORE.INTRA.POLAR.0>
-0.68438

>  <SCORE.INTRA.REPUL>
0

>  <SCORE.INTRA.REPUL.0>
0

>  <SCORE.INTRA.SOLV>
-1.0897

>  <SCORE.INTRA.SOLV.lig_0>
-35.3507

>  <SCORE.INTRA.VDW>
2.19224

>  <SCORE.INTRA.VDW.0>
-0.227401

>  <SCORE.INTRA.norm>
0.358116

>  <SCORE.RESTR>
0

>  <SCORE.RESTR.CAVITY>
0

>  <SCORE.RESTR.norm>
0

>  <SCORE.SYSTEM>
-19.6927

>  <SCORE.SYSTEM.CONST>
0

>  <SCORE.SYSTEM.DIHEDRAL>
4.25955

>  <SCORE.SYSTEM.POLAR>
-2.99116

>  <SCORE.SYSTEM.SOLV>
-0.029

>  <SCORE.SYSTEM.VDW>
-4.56812

>  <SCORE.SYSTEM.norm>
-1.64106

>  <SCORE.heavy>
12

>  <SCORE.norm>
-4.57044

$$$$
P109007011
 OpenBabel12072022113D
libRbt.so/2013.1/901 2013/11/27
 18 18  0  0  0  0  0  0  0  0999 V2000
    3.5192   13.9015    3.9348 C   0  0  0  0  0  0  0  0  0  0  0  0
    2.9510   15.2779    4.2591 C   0  0  2  0  0  0  0  0  0  0  0  0
    1.4333   15.2771    4.2843 C   0  0  0  0  0  0  0  0  0  0  0  0
    0.7674   16.4116    4.3086 N   0  3  0  0  0  0  0  0  0  0  0  0
   -0.2382   16.4879    4.3368 H   0  0  0  0  0  0  0  0  0  0  0  0
    1.2937   17.2933    4.3990 H   0  0  0  0  0  0  0  0  0  0  0  0
    0.8009   14.1187    4.2701 N   0  0  0  0  0  0  0  0  0  0  0  0
    3.4288   16.3369    3.3678 N   0  0  0  0  0  0  0  0  0  0  0  0
    4.6883   16.8753    3.4579 C   0  0  0  0  0  0  0  0  0  0  0  0
    5.4479   16.9278    2.4961 O   0  0  0  0  0  0  0  0  0  0  0  0
    4.9690   17.3494    4.7101 N   0  0  0  0  0  0  0  0  0  0  0  0
    6.2066   17.9986    5.0156 C   0  0  0  0  0  0  0  0  0  0  0  0
    6.4892   19.3736    4.4747 C   0  0  0  0  0  0  0  0  0  0  0  0
    6.2589   19.1794    5.9441 C   0  0  0  0  0  0  0  0  0  0  0  0
    1.3040   13.2377    4.2567 H   0  0  0  0  0  0  0  0  0  0  0  0
   -0.2103   14.0669    4.2871 H   0  0  0  0  0  0  0  0  0  0  0  0
    2.7293   17.0078    3.0749 H   0  0  0  0  0  0  0  0  0  0  0  0
    4.2024   17.5083    5.3510 H   0  0  0  0  0  0  0  0  0  0  0  0
  2  3  1  0  0  0  0
  2  8  1  0  0  0  0
  2  1  1  6  0  0  0
  3  4  2  0  0  0  0
  3  7  1  0  0  0  0
  4  5  1  0  0  0  0
  4  6  1  0  0  0  0
  7 15  1  0  0  0  0
  7 16  1  0  0  0  0
  8  9  1  0  0  0  0
  8 17  1  0  0  0  0
  9 10  2  0  0  0  0
  9 11  1  0  0  0  0
 11 12  1  0  0  0  0
 11 18  1  0  0  0  0
 12 13  1  0  0  0  0
 12 14  1  0  0  0  0
 13 14  1  0  0  0  0
M  CHG  1   4   1
M  END
>  <CHROM.0>
-57.28798555,-61.66859719,-66.48376804,-45.98431489,-54.64498640,-58.28878527
-68.31597944,60.67396955,-167.85112880

>  <CHROM.1>
-167.78713443,-75.52586686,126.31223465,70.97942847,3.85686898,16.56238854
4.19449198,-2.53412050,0.32447126,0.58492263

>  <Name>
P109007011

>  <RI>
3.58524e+07

>  <Rbt.Current_Directory>
/home/fstefaniak/projects/zuza/docking/adenine/4XNR

>  <Rbt.Executable>
rbdock ($Id: //depot/dev/client3/rdock/2013.1/src/exe/rbdock.cxx#4 $)

>  <Rbt.Library>
libRbt.so (2013.1, Build901 2013/11/27)

>  <Rbt.Parameter_File>
/home/fstefaniak/progs/rDock//data/scripts/dock_solv.prm

>  <Rbt.Receptor>
4xnr.prm

>  <SCORE>
-54.1589

>  <SCORE.INTER>
-38.722

>  <SCORE.INTER.CONST>
1

>  <SCORE.INTER.POLAR>
-5.03817

>  <SCORE.INTER.ROT>
4

>  <SCORE.INTER.SOLV>
18.4711

>  <SCORE.INTER.VDW>
-21.4445

>  <SCORE.INTER.norm>
-3.22683

>  <SCORE.INTRA>
4.33806

>  <SCORE.INTRA.DIHEDRAL>
0.686128

>  <SCORE.INTRA.DIHEDRAL.0>
3.44945

>  <SCORE.INTRA.POLAR>
0.68438

>  <SCORE.INTRA.POLAR.0>
-0.68438

>  <SCORE.INTRA.REPUL>
0

>  <SCORE.INTRA.REPUL.0>
0

>  <SCORE.INTRA.SOLV>
-1.04301

>  <SCORE.INTRA.SOLV.lig_0>
-35.3507

>  <SCORE.INTRA.VDW>
2.18961

>  <SCORE.INTRA.VDW.0>
-0.227401

>  <SCORE.INTRA.norm>
0.361505

>  <SCORE.RESTR>
0

>  <SCORE.RESTR.CAVITY>
0

>  <SCORE.RESTR.norm>
0

>  <SCORE.SYSTEM>
-19.775

>  <SCORE.SYSTEM.CONST>
0

>  <SCORE.SYSTEM.DIHEDRAL>
4.38144

>  <SCORE.SYSTEM.POLAR>
-3.02484

>  <SCORE.SYSTEM.SOLV>
0.124443

>  <SCORE.SYSTEM.VDW>
-4.60248

>  <SCORE.SYSTEM.norm>
-1.64791

>  <SCORE.heavy>
12

>  <SCORE.norm>
-4.51324

$$$$
P109007214
 OpenBabel12072022113D
libRbt.so/2013.1/901 2013/11/27
 16 15  0  0  0  0  0  0  0  0999 V2000
    3.1670   13.6004    4.7812 C   0  0  0  0  0  0  0  0  0  0  0  0
    3.9576   14.4344    3.7889 C   0  0  0  0  0  0  0  0  0  0  0  0
    4.2516   15.7554    4.3141 N   0  0  0  0  0  0  0  0  0  0  0  0
    4.9641   16.6699    3.6005 C   0  0  0  0  0  0  0  0  0  0  0  0
    5.4379   16.4896    2.4841 O   0  0  0  0  0  0  0  0  0  0  0  0
    5.0939   17.8643    4.2634 N   0  0  0  0  0  0  0  0  0  0  0  0
    5.5745   17.8710    5.6366 C   0  0  0  0  0  0  0  0  0  0  0  0
    6.5851   18.9788    5.7878 C   0  0  0  0  0  0  0  0  0  0  0  0
    6.3810   20.1220    5.1624 N   0  3  0  0  0  0  0  0  0  0  0  0
    7.0352   20.8912    5.2361 H   0  0  0  0  0  0  0  0  0  0  0  0
    5.5694   20.2632    4.5700 H   0  0  0  0  0  0  0  0  0  0  0  0
    7.6417   18.7836    6.5479 N   0  0  0  0  0  0  0  0  0  0  0  0
    3.6699   16.0822    5.0728 H   0  0  0  0  0  0  0  0  0  0  0  0
    4.3428   18.5102    4.0529 H   0  0  0  0  0  0  0  0  0  0  0  0
    7.7906   17.8442    6.9455 H   0  0  0  0  0  0  0  0  0  0  0  0
    8.3730   19.4619    6.6992 H   0  0  0  0  0  0  0  0  0  0  0  0
  1  2  1  0  0  0  0
  2  3  1  0  0  0  0
  3  4  1  0  0  0  0
  3 13  1  0  0  0  0
  4  5  2  0  0  0  0
  4  6  1  0  0  0  0
  6  7  1  0  0  0  0
  6 14  1  0  0  0  0
  7  8  1  0  0  0  0
  8  9  2  0  0  0  0
  8 12  1  0  0  0  0
  9 10  1  0  0  0  0
  9 11  1  0  0  0  0
 12 15  1  0  0  0  0
 12 16  1  0  0  0  0
M  CHG  1   9   1
M  END
>  <CHROM.0>
-55.72177533,-62.02337434,-73.32223850,-44.57767921,-57.56024184,-61.05354136
-171.30835820,-174.56204442,-168.23524401

>  <CHROM.1>
179.29106423,51.08123544,136.10147360,38.31071158,5.31342624,17.07769801
4.63962720,3.13164798,-1.03860841,-1.22745337

>  <Name>
P109007214

>  <RI>
3.58524e+07

>  <Rbt.Current_Directory>
/home/fstefaniak/projects/zuza/docking/adenine/4XNR

>  <Rbt.Executable>
rbdock ($Id: //depot/dev/client3/rdock/2013.1/src/exe/rbdock.cxx#4 $)

>  <Rbt.Library>
libRbt.so (2013.1, Build901 2013/11/27)

>  <Rbt.Parameter_File>
/home/fstefaniak/progs/rDock//data/scripts/dock_solv.prm

>  <Rbt.Receptor>
4xnr.prm

>  <SCORE>
-57.5184

>  <SCORE.INTER>
-38.8267

>  <SCORE.INTER.CONST>
1

>  <SCORE.INTER.POLAR>
-6.26063

>  <SCORE.INTER.ROT>
4

>  <SCORE.INTER.SOLV>
22.9944

>  <SCORE.INTER.VDW>
-18.9471

>  <SCORE.INTER.norm>
-3.88267

>  <SCORE.INTRA>
1.54183

>  <SCORE.INTRA.DIHEDRAL>
0.774777

>  <SCORE.INTRA.DIHEDRAL.0>
3.19965

>  <SCORE.INTRA.POLAR>
0.704816

>  <SCORE.INTRA.POLAR.0>
-0.705998

>  <SCORE.INTRA.REPUL>
0

>  <SCORE.INTRA.REPUL.0>
0

>  <SCORE.INTRA.SOLV>
-1.97585

>  <SCORE.INTRA.SOLV.lig_0>
-36.7784

>  <SCORE.INTRA.VDW>
-0.254008

>  <SCORE.INTRA.VDW.0>
0.291192

>  <SCORE.INTRA.norm>
0.154183

>  <SCORE.RESTR>
0

>  <SCORE.RESTR.CAVITY>
0

>  <SCORE.RESTR.norm>
0

>  <SCORE.SYSTEM>
-20.2336

>  <SCORE.SYSTEM.CONST>
0

>  <SCORE.SYSTEM.DIHEDRAL>
5.21494

>  <SCORE.SYSTEM.POLAR>
-3.02961

>  <SCORE.SYSTEM.SOLV>
0.105479

>  <SCORE.SYSTEM.VDW>
-5.16382

>  <SCORE.SYSTEM.norm>
-2.02336

>  <SCORE.heavy>
10

>  <SCORE.norm>
-5.75184

$$$$
P109007214
 OpenBabel12072022113D
libRbt.so/2013.1/901 2013/11/27
 16 15  0  0  0  0  0  0  0  0999 V2000
    2.9977   13.2430    4.3599 C   0  0  0  0  0  0  0  0  0  0  0  0
    3.5078   14.3665    3.4751 C   0  0  0  0  0  0  0  0  0  0  0  0
    3.9403   15.5101    4.2577 N   0  0  0  0  0  0  0  0  0  0  0  0
    4.7461   16.4748    3.7351 C   0  0  0  0  0  0  0  0  0  0  0  0
    5.1984   16.4845    2.5954 O   0  0  0  0  0  0  0  0  0  0  0  0
    5.0018   17.4836    4.6295 N   0  0  0  0  0  0  0  0  0  0  0  0
    6.3041   18.1320    4.6223 C   0  0  0  0  0  0  0  0  0  0  0  0
    6.3998   19.0340    5.8259 C   0  0  0  0  0  0  0  0  0  0  0  0
    6.6643   18.5040    7.0043 N   0  3  0  0  0  0  0  0  0  0  0  0
    6.7360   19.0737    7.8383 H   0  0  0  0  0  0  0  0  0  0  0  0
    6.7866   17.5032    7.1187 H   0  0  0  0  0  0  0  0  0  0  0  0
    6.2275   20.3297    5.6715 N   0  0  0  0  0  0  0  0  0  0  0  0
    3.3963   15.7291    5.0804 H   0  0  0  0  0  0  0  0  0  0  0  0
    4.5992   17.3066    5.5418 H   0  0  0  0  0  0  0  0  0  0  0  0
    5.9427   20.6775    4.7438 H   0  0  0  0  0  0  0  0  0  0  0  0
    6.2631   21.0063    6.4189 H   0  0  0  0  0  0  0  0  0  0  0  0
  1  2  1  0  0  0  0
  2  3  1  0  0  0  0
  3  4  1  0  0  0  0
  3 13  1  0  0  0  0
  4  5  2  0  0  0  0
  4  6  1  0  0  0  0
  6  7  1  0  0  0  0
  6 14  1  0  0  0  0
  7  8  1  0  0  0  0
  8  9  2  0  0  0  0
  8 12  1  0  0  0  0
  9 10  1  0  0  0  0
  9 11  1  0  0  0  0
 12 15  1  0  0  0  0
 12 16  1  0  0  0  0
M  CHG  1   9   1
M  END
>  <CHROM.0>
-42.92206457,-62.69927873,-47.41568417,-48.96776476,-172.65031238,-173.60469952
-66.75999743,-53.72690428,-166.01790069

>  <CHROM.1>
162.34011120,145.09926574,-171.06982162,78.91418914,5.09392002,16.96766210
4.64618259,2.86604824,-1.06501517,-1.47365232

>  <Name>
P109007214

>  <RI>
3.58524e+07

>  <Rbt.Current_Directory>
/home/fstefaniak/projects/zuza/docking/adenine/4XNR

>  <Rbt.Executable>
rbdock ($Id: //depot/dev/client3/rdock/2013.1/src/exe/rbdock.cxx#4 $)

>  <Rbt.Library>
libRbt.so (2013.1, Build901 2013/11/27)

>  <Rbt.Parameter_File>
/home/fstefaniak/progs/rDock//data/scripts/dock_solv.prm

>  <Rbt.Receptor>
4xnr.prm

>  <SCORE>
-56.2081

>  <SCORE.INTER>
-37.5617

>  <SCORE.INTER.CONST>
1

>  <SCORE.INTER.POLAR>
-6.33812

>  <SCORE.INTER.ROT>
4

>  <SCORE.INTER.SOLV>
24.9411

>  <SCORE.INTER.VDW>
-18.4944

>  <SCORE.INTER.norm>
-3.75617

>  <SCORE.INTRA>
0.811335

>  <SCORE.INTRA.DIHEDRAL>
-0.253629

>  <SCORE.INTRA.DIHEDRAL.0>
3.19965

>  <SCORE.INTRA.POLAR>
0.705091

>  <SCORE.INTRA.POLAR.0>
-0.705998

>  <SCORE.INTRA.REPUL>
0

>  <SCORE.INTRA.REPUL.0>
0

>  <SCORE.INTRA.SOLV>
-2.46755

>  <SCORE.INTRA.SOLV.lig_0>
-36.7784

>  <SCORE.INTRA.VDW>
-0.225383

>  <SCORE.INTRA.VDW.0>
0.291192

>  <SCORE.INTRA.norm>
0.0811335

>  <SCORE.RESTR>
0

>  <SCORE.RESTR.CAVITY>
0

>  <SCORE.RESTR.norm>
0

>  <SCORE.SYSTEM>
-19.4577

>  <SCORE.SYSTEM.CONST>
0

>  <SCORE.SYSTEM.DIHEDRAL>
6.34468

>  <SCORE.SYSTEM.POLAR>
-3.19004

>  <SCORE.SYSTEM.SOLV>
0.0466567

>  <SCORE.SYSTEM.VDW>
-4.46879

>  <SCORE.SYSTEM.norm>
-1.94577

>  <SCORE.heavy>
10

>  <SCORE.norm>
-5.62081

$$$$
P109007214
 OpenBabel12072022113D
libRbt.so/2013.1/901 2013/11/27
 16 15  0  0  0  0  0  0  0  0999 V2000
    3.3366   13.5734    4.8081 C   0  0  0  0  0  0  0  0  0  0  0  0
    3.9027   14.4884    3.7368 C   0  0  0  0  0  0  0  0  0  0  0  0
    4.2327   15.7975    4.2704 N   0  0  0  0  0  0  0  0  0  0  0  0
    4.9505   16.7053    3.5536 C   0  0  0  0  0  0  0  0  0  0  0  0
    5.4004   16.5277    2.4269 O   0  0  0  0  0  0  0  0  0  0  0  0
    5.1162   17.8896    4.2265 N   0  0  0  0  0  0  0  0  0  0  0  0
    5.5958   17.8702    5.5999 C   0  0  0  0  0  0  0  0  0  0  0  0
    6.6037   18.9772    5.7738 C   0  0  0  0  0  0  0  0  0  0  0  0
    6.4048   20.1271    5.1591 N   0  3  0  0  0  0  0  0  0  0  0  0
    7.0575   20.8960    5.2480 H   0  0  0  0  0  0  0  0  0  0  0  0
    5.5993   20.2741    4.5599 H   0  0  0  0  0  0  0  0  0  0  0  0
    7.6525   18.7746    6.5426 N   0  0  0  0  0  0  0  0  0  0  0  0
    3.6713   16.1276    5.0429 H   0  0  0  0  0  0  0  0  0  0  0  0
    4.3853   18.5599    4.0211 H   0  0  0  0  0  0  0  0  0  0  0  0
    7.7983   17.8309    6.9312 H   0  0  0  0  0  0  0  0  0  0  0  0
    8.3816   19.4518    6.7089 H   0  0  0  0  0  0  0  0  0  0  0  0
  1  2  1  0  0  0  0
  2  3  1  0  0  0  0
  3  4  1  0  0  0  0
  3 13  1  0  0  0  0
  4  5  2  0  0  0  0
  4  6  1  0  0  0  0
  6  7  1  0  0  0  0
  6 14  1  0  0  0  0
  7  8  1  0  0  0  0
  8  9  2  0  0  0  0
  8 12  1  0  0  0  0
  9 10  1  0  0  0  0
  9 11  1  0  0  0  0
 12 15  1  0  0  0  0
 12 16  1  0  0  0  0
M  CHG  1   9   1
M  END
>  <CHROM.0>
-63.82936230,-65.27674431,-73.97798948,54.07269116,-176.90692249,-61.52047632
-176.06064426,-173.06156470,-168.00846584

>  <CHROM.1>
169.11743220,49.85018380,138.09683667,37.56064493,5.32847429,17.09376782
4.61345549,-3.08320492,-1.04077417,-1.14206207

>  <Name>
P109007214

>  <RI>
3.58524e+07

>  <Rbt.Current_Directory>
/home/fstefaniak/projects/zuza/docking/adenine/4XNR

>  <Rbt.Executable>
rbdock ($Id: //depot/dev/client3/rdock/2013.1/src/exe/rbdock.cxx#4 $)

>  <Rbt.Library>
libRbt.so (2013.1, Build901 2013/11/27)

>  <Rbt.Parameter_File>
/home/fstefaniak/progs/rDock//data/scripts/dock_solv.prm

>  <Rbt.Receptor>
4xnr.prm

>  <SCORE>
-54.4007

>  <SCORE.INTER>
-38.6492

>  <SCORE.INTER.CONST>
1

>  <SCORE.INTER.POLAR>
-6.24418

>  <SCORE.INTER.ROT>
4

>  <SCORE.INTER.SOLV>
22.885

>  <SCORE.INTER.VDW>
-18.8472

>  <SCORE.INTER.norm>
-3.86492

>  <SCORE.INTRA>
1.3318

>  <SCORE.INTRA.DIHEDRAL>
0.455136

>  <SCORE.INTRA.DIHEDRAL.0>
3.19965

>  <SCORE.INTRA.POLAR>
0.704862

>  <SCORE.INTRA.POLAR.0>
-0.705998

>  <SCORE.INTRA.REPUL>
0

>  <SCORE.INTRA.REPUL.0>
0

>  <SCORE.INTRA.SOLV>
-1.96356

>  <SCORE.INTRA.SOLV.lig_0>
-36.7784

>  <SCORE.INTRA.VDW>
-0.310518

>  <SCORE.INTRA.VDW.0>
0.291192

>  <SCORE.INTRA.norm>
0.13318

>  <SCORE.RESTR>
0

>  <SCORE.RESTR.CAVITY>
0

>  <SCORE.RESTR.norm>
0

>  <SCORE.SYSTEM>
-17.0832

>  <SCORE.SYSTEM.CONST>
0

>  <SCORE.SYSTEM.DIHEDRAL>
4.33

>  <SCORE.SYSTEM.POLAR>
-2.36687

>  <SCORE.SYSTEM.SOLV>
-0.151584

>  <SCORE.SYSTEM.VDW>
-4.89207

>  <SCORE.SYSTEM.norm>
-1.70832

>  <SCORE.heavy>
10

>  <SCORE.norm>
-5.44007

$$$$
P109007524
 OpenBabel12072022113D
libRbt.so/2013.1/901 2013/11/27
 18 17  0  0  0  0  0  0  0  0999 V2000
    0.2366   12.6911    3.8423 C   0  0  0  0  0  0  0  0  0  0  0  0
    1.4710   13.3088    3.1900 C   0  0  0  0  0  0  0  0  0  0  0  0
    2.4409   14.0673    4.1445 C   0  0  2  0  0  0  0  0  0  0  0  0
    3.5992   14.6728    3.3277 C   0  0  0  0  0  0  0  0  0  0  0  0
    3.0118   13.1057    5.2179 C   0  0  0  0  0  0  0  0  0  0  0  0
    3.2716   13.5621    6.4271 N   0  3  0  0  0  0  0  0  0  0  0  0
    3.6295   13.0042    7.1876 H   0  0  0  0  0  0  0  0  0  0  0  0
    2.9919   14.5226    6.6709 H   0  0  0  0  0  0  0  0  0  0  0  0
    3.2396   11.8310    4.9532 N   0  0  0  0  0  0  0  0  0  0  0  0
    1.6711   15.1023    4.8729 N   0  0  0  0  0  0  0  0  0  0  0  0
    0.9221   16.0670    4.2702 C   0  0  0  0  0  0  0  0  0  0  0  0
    0.8807   16.2565    3.0627 O   0  0  0  0  0  0  0  0  0  0  0  0
    0.2222   16.8136    5.1500 N   0  0  0  0  0  0  0  0  0  0  0  0
    3.0439   11.4098    4.0529 H   0  0  0  0  0  0  0  0  0  0  0  0
    3.6048   11.2044    5.6598 H   0  0  0  0  0  0  0  0  0  0  0  0
    1.2569   14.8150    5.7514 H   0  0  0  0  0  0  0  0  0  0  0  0
   -0.6092   17.3015    4.8452 H   0  0  0  0  0  0  0  0  0  0  0  0
    0.1663   16.4391    6.0917 H   0  0  0  0  0  0  0  0  0  0  0  0
  1  2  1  0  0  0  0
  3  5  1  0  0  0  0
  3 10  1  0  0  0  0
  3  4  1  6  0  0  0
  3  2  1  0  0  0  0
  5  6  2  0  0  0  0
  5  9  1  0  0  0  0
  6  7  1  0  0  0  0
  6  8  1  0  0  0  0
  9 14  1  0  0  0  0
  9 15  1  0  0  0  0
 10 11  1  0  0  0  0
 10 16  1  0  0  0  0
 11 12  2  0  0  0  0
 11 13  1  0  0  0  0
 13 17  1  0  0  0  0
 13 18  1  0  0  0  0
M  CHG  1   6   1
M  END
>  <CHROM.0>
-58.10797986,-171.83641850,-62.79713050,-48.13836931,-177.48238388,-61.77380634
-71.66044771,-60.79369762,-167.37493215

>  <CHROM.1>
-146.59217686,-55.15840245,-177.85793206,-5.99714231,-156.69733694,1.88980712
14.31890730,4.43219627,0.67256926,0.81453074,-2.63470194

>  <Name>
P109007524

>  <RI>
3.58524e+07

>  <Rbt.Current_Directory>
/home/fstefaniak/projects/zuza/docking/adenine/4XNR

>  <Rbt.Executable>
rbdock ($Id: //depot/dev/client3/rdock/2013.1/src/exe/rbdock.cxx#4 $)

>  <Rbt.Library>
libRbt.so (2013.1, Build901 2013/11/27)

>  <Rbt.Parameter_File>
/home/fstefaniak/progs/rDock//data/scripts/dock_solv.prm

>  <Rbt.Receptor>
4xnr.prm

>  <SCORE>
-49.4553

>  <SCORE.INTER>
-27.4408

>  <SCORE.INTER.CONST>
1

>  <SCORE.INTER.POLAR>
-4.5829

>  <SCORE.INTER.ROT>
5

>  <SCORE.INTER.SOLV>
19.1449

>  <SCORE.INTER.VDW>
-16.3325

>  <SCORE.INTER.norm>
-2.49462

>  <SCORE.INTRA>
-1.36809

>  <SCORE.INTRA.DIHEDRAL>
0.013408

>  <SCORE.INTRA.DIHEDRAL.0>
2.84466

>  <SCORE.INTRA.POLAR>
0.679391

>  <SCORE.INTRA.POLAR.0>
-0.709421

>  <SCORE.INTRA.REPUL>
0

>  <SCORE.INTRA.REPUL.0>
0

>  <SCORE.INTRA.SOLV>
-0.723958

>  <SCORE.INTRA.SOLV.lig_0>
-32.1859

>  <SCORE.INTRA.VDW>
-3.32275

>  <SCORE.INTRA.VDW.0>
3.13324

>  <SCORE.INTRA.norm>
-0.124372

>  <SCORE.RESTR>
0

>  <SCORE.RESTR.CAVITY>
0

>  <SCORE.RESTR.norm>
0

>  <SCORE.SYSTEM>
-20.6465

>  <SCORE.SYSTEM.CONST>
0

>  <SCORE.SYSTEM.DIHEDRAL>
4.50795

>  <SCORE.SYSTEM.POLAR>
-2.97104

>  <SCORE.SYSTEM.SOLV>
0.0739669

>  <SCORE.SYSTEM.VDW>
-5.38815

>  <SCORE.SYSTEM.norm>
-1.87695

>  <SCORE.heavy>
11

>  <SCORE.norm>
-4.49594

$$$$
P109007524
 OpenBabel12072022113D
libRbt.so/2013.1/901 2013/11/27
 18 17  0  0  0  0  0  0  0  0999 V2000
    0.2801   12.6282    3.3893 C   0  0  0  0  0  0  0  0  0  0  0  0
    1.7292   12.9526    3.0347 C   0  0  0  0  0  0  0  0  0  0  0  0
    2.5389   13.7313    4.1142 C   0  0  2  0  0  0  0  0  0  0  0  0
    3.7702   14.3883    3.4605 C   0  0  0  0  0  0  0  0  0  0  0  0
    3.0007   12.7754    5.2437 C   0  0  0  0  0  0  0  0  0  0  0  0
    3.6105   13.2685    6.3034 N   0  3  0  0  0  0  0  0  0  0  0  0
    3.9300   12.7221    7.0890 H   0  0  0  0  0  0  0  0  0  0  0  0
    3.6754   14.2902    6.4140 H   0  0  0  0  0  0  0  0  0  0  0  0
    2.7915   11.4723    5.1752 N   0  0  0  0  0  0  0  0  0  0  0  0
    1.6439   14.7284    4.7459 N   0  0  0  0  0  0  0  0  0  0  0  0
    0.9908   15.7118    4.0666 C   0  0  0  0  0  0  0  0  0  0  0  0
    0.8695   15.7487    2.8502 O   0  0  0  0  0  0  0  0  0  0  0  0
    0.4868   16.6645    4.8789 N   0  0  0  0  0  0  0  0  0  0  0  0
    2.3117   11.0294    4.4007 H   0  0  0  0  0  0  0  0  0  0  0  0
    3.0874   10.8525    5.9192 H   0  0  0  0  0  0  0  0  0  0  0  0
    1.0943   14.4010    5.5311 H   0  0  0  0  0  0  0  0  0  0  0  0
    0.2792   16.4441    5.8434 H   0  0  0  0  0  0  0  0  0  0  0  0
    0.8528   17.5999    4.7327 H   0  0  0  0  0  0  0  0  0  0  0  0
  1  2  1  0  0  0  0
  3  5  1  0  0  0  0
  3 10  1  0  0  0  0
  3  4  1  6  0  0  0
  3  2  1  0  0  0  0
  5  6  2  0  0  0  0
  5  9  1  0  0  0  0
  6  7  1  0  0  0  0
  6  8  1  0  0  0  0
  9 14  1  0  0  0  0
  9 15  1  0  0  0  0
 10 11  1  0  0  0  0
 10 16  1  0  0  0  0
 11 12  2  0  0  0  0
 11 13  1  0  0  0  0
 13 17  1  0  0  0  0
 13 18  1  0  0  0  0
M  CHG  1   6   1
M  END
>  <CHROM.0>
-57.92061043,67.32929516,-172.96852990,-47.31940653,-176.81781120,-61.00986869
-58.11996466,-56.60456569,-167.16708057

>  <CHROM.1>
-174.67234890,-58.19887403,-160.99502831,13.69367415,-24.44727146,1.96194136
14.01464978,4.32276902,2.39614781,-0.79179101,0.31323430

>  <Name>
P109007524

>  <RI>
3.58524e+07

>  <Rbt.Current_Directory>
/home/fstefaniak/projects/zuza/docking/adenine/4XNR

>  <Rbt.Executable>
rbdock ($Id: //depot/dev/client3/rdock/2013.1/src/exe/rbdock.cxx#4 $)

>  <Rbt.Library>
libRbt.so (2013.1, Build901 2013/11/27)

>  <Rbt.Parameter_File>
/home/fstefaniak/progs/rDock//data/scripts/dock_solv.prm

>  <Rbt.Receptor>
4xnr.prm

>  <SCORE>
-48.2224

>  <SCORE.INTER>
-30.9149

>  <SCORE.INTER.CONST>
1

>  <SCORE.INTER.POLAR>
-5.34031

>  <SCORE.INTER.ROT>
5

>  <SCORE.INTER.SOLV>
17.053

>  <SCORE.INTER.VDW>
-15.4266

>  <SCORE.INTER.norm>
-2.81044

>  <SCORE.INTRA>
0.317272

>  <SCORE.INTRA.DIHEDRAL>
1.2096

>  <SCORE.INTRA.DIHEDRAL.0>
2.84466

>  <SCORE.INTRA.POLAR>
0.704729

>  <SCORE.INTRA.POLAR.0>
-0.709421

>  <SCORE.INTRA.REPUL>
0

>  <SCORE.INTRA.REPUL.0>
0

>  <SCORE.INTRA.SOLV>
-1.02478

>  <SCORE.INTRA.SOLV.lig_0>
-32.1859

>  <SCORE.INTRA.VDW>
-2.17122

>  <SCORE.INTRA.VDW.0>
3.13324

>  <SCORE.INTRA.norm>
0.0288429

>  <SCORE.RESTR>
0

>  <SCORE.RESTR.CAVITY>
0

>  <SCORE.RESTR.norm>
0

>  <SCORE.SYSTEM>
-17.6248

>  <SCORE.SYSTEM.CONST>
0

>  <SCORE.SYSTEM.DIHEDRAL>
4.21994

>  <SCORE.SYSTEM.POLAR>
-2.52881

>  <SCORE.SYSTEM.SOLV>
0.128295

>  <SCORE.SYSTEM.VDW>
-4.76989

>  <SCORE.SYSTEM.norm>
-1.60225

>  <SCORE.heavy>
11

>  <SCORE.norm>
-4.38385

$$$$
P109007524
 OpenBabel12072022113D
libRbt.so/2013.1/901 2013/11/27
 18 17  0  0  0  0  0  0  0  0999 V2000
    3.9690   11.5439    3.1404 C   0  0  0  0  0  0  0  0  0  0  0  0
    2.6667   12.3372    3.2161 C   0  0  0  0  0  0  0  0  0  0  0  0
    2.7611   13.7439    3.8790 C   0  0  2  0  0  0  0  0  0  0  0  0
    3.1857   13.5918    5.3527 C   0  0  0  0  0  0  0  0  0  0  0  0
    1.3950   14.4731    3.8066 C   0  0  0  0  0  0  0  0  0  0  0  0
    0.5599   14.1927    2.8259 N   0  3  0  0  0  0  0  0  0  0  0  0
   -0.3524   14.6078    2.7113 H   0  0  0  0  0  0  0  0  0  0  0  0
    0.7820   13.4181    2.1848 H   0  0  0  0  0  0  0  0  0  0  0  0
    1.0406   15.3686    4.7117 N   0  0  0  0  0  0  0  0  0  0  0  0
    3.7191   14.5664    3.1043 N   0  0  0  0  0  0  0  0  0  0  0  0
    3.9766   15.8806    3.3519 C   0  0  0  0  0  0  0  0  0  0  0  0
    3.4134   16.8125    2.7949 O   0  0  0  0  0  0  0  0  0  0  0  0
    4.9369   16.0605    4.2829 N   0  0  0  0  0  0  0  0  0  0  0  0
    1.6239   15.6168    5.5018 H   0  0  0  0  0  0  0  0  0  0  0  0
    0.1438   15.8364    4.6652 H   0  0  0  0  0  0  0  0  0  0  0  0
    4.5471   14.0896    2.7685 H   0  0  0  0  0  0  0  0  0  0  0  0
    4.6958   16.0368    5.2644 H   0  0  0  0  0  0  0  0  0  0  0  0
    5.8390   15.6502    4.0634 H   0  0  0  0  0  0  0  0  0  0  0  0
  1  2  1  0  0  0  0
  3  5  1  0  0  0  0
  3 10  1  0  0  0  0
  3  4  1  1  0  0  0
  3  2  1  0  0  0  0
  5  6  2  0  0  0  0
  5  9  1  0  0  0  0
  6  7  1  0  0  0  0
  6  8  1  0  0  0  0
  9 14  1  0  0  0  0
  9 15  1  0  0  0  0
 10 11  1  0  0  0  0
 10 16  1  0  0  0  0
 11 12  2  0  0  0  0
 11 13  1  0  0  0  0
 13 17  1  0  0  0  0
 13 18  1  0  0  0  0
M  CHG  1   6   1
M  END
>  <CHROM.0>
-61.70502982,-70.49655398,-59.06302369,-48.15614221,-64.39666098,62.70521708
-68.42670324,61.06517266,-168.41260930

>  <CHROM.1>
-27.84482126,175.45299811,-62.91465974,-93.78687744,-83.94095221,2.87884523
14.43829264,3.68386789,-1.87864110,-0.00046653,0.04551449

>  <Name>
P109007524

>  <RI>
3.58524e+07

>  <Rbt.Current_Directory>
/home/fstefaniak/projects/zuza/docking/adenine/4XNR

>  <Rbt.Executable>
rbdock ($Id: //depot/dev/client3/rdock/2013.1/src/exe/rbdock.cxx#4 $)

>  <Rbt.Library>
libRbt.so (2013.1, Build901 2013/11/27)

>  <Rbt.Parameter_File>
/home/fstefaniak/progs/rDock//data/scripts/dock_solv.prm

>  <Rbt.Receptor>
4xnr.prm

>  <SCORE>
-47.3946

>  <SCORE.INTER>
-30.0222

>  <SCORE.INTER.CONST>
1

>  <SCORE.INTER.POLAR>
-5.5458

>  <SCORE.INTER.ROT>
5

>  <SCORE.INTER.SOLV>
17.5839

>  <SCORE.INTER.VDW>
-14.3235

>  <SCORE.INTER.norm>
-2.72929

>  <SCORE.INTRA>
0.786277

>  <SCORE.INTRA.DIHEDRAL>
-0.303001

>  <SCORE.INTRA.DIHEDRAL.0>
2.84466

>  <SCORE.INTRA.POLAR>
0.707159

>  <SCORE.INTRA.POLAR.0>
-0.709421

>  <SCORE.INTRA.REPUL>
0

>  <SCORE.INTRA.REPUL.0>
0

>  <SCORE.INTRA.SOLV>
-0.744272

>  <SCORE.INTRA.SOLV.lig_0>
-32.1859

>  <SCORE.INTRA.VDW>
-1.09443

>  <SCORE.INTRA.VDW.0>
3.13324

>  <SCORE.INTRA.norm>
0.0714797

>  <SCORE.RESTR>
0.275242

>  <SCORE.RESTR.CAVITY>
0.275242

>  <SCORE.RESTR.norm>
0.025022

>  <SCORE.SYSTEM>
-18.4339

>  <SCORE.SYSTEM.CONST>
0

>  <SCORE.SYSTEM.DIHEDRAL>
4.36319

>  <SCORE.SYSTEM.POLAR>
-2.94733

>  <SCORE.SYSTEM.SOLV>
-0.029314

>  <SCORE.SYSTEM.VDW>
-3.90946

>  <SCORE.SYSTEM.norm>
-1.67581

>  <SCORE.heavy>
11

>  <SCORE.norm>
-4.3086

$$$$
P109008946
 OpenBabel12072022113D
libRbt.so/2013.1/901 2013/11/27
 15 15  0  0  0  0  0  0  0  0999 V2000
    3.8177   16.6663    3.3767 C   0  0  0  0  0  0  0  0  0  0  0  0
    4.8866   16.2050    4.3608 C   0  0  0  0  0  0  0  0  0  0  0  0
    5.9545   17.3008    4.2825 C   0  0  1  0  0  0  0  0  0  0  0  0
    5.8291   17.8125    2.9082 N   0  0  0  0  0  0  0  0  0  0  0  0
    4.6320   17.2969    2.2604 C   0  0  0  0  0  0  0  0  0  0  0  0
    6.8909   18.3885    2.2692 C   0  0  0  0  0  0  0  0  0  0  0  0
    7.9684   18.6302    2.8047 O   0  0  0  0  0  0  0  0  0  0  0  0
    6.7011   18.6933    0.9636 N   0  0  0  0  0  0  0  0  0  0  0  0
    5.8613   18.4788    5.2809 C   0  0  0  0  0  0  0  0  0  0  0  0
    6.5061   20.0055    5.0779 S   0  0  0  0  0  0  0  0  0  0  0  0
    5.1745   18.2107    6.4357 N   0  0  0  0  0  0  0  0  0  0  0  0
    6.9132   17.9768    0.2865 H   0  0  0  0  0  0  0  0  0  0  0  0
    5.8341   19.1866    0.7918 H   0  0  0  0  0  0  0  0  0  0  0  0
    4.9107   17.2494    6.6643 H   0  0  0  0  0  0  0  0  0  0  0  0
    5.1284   18.9018    7.1728 H   0  0  0  0  0  0  0  0  0  0  0  0
  1  2  1  0  0  0  0
  1  5  1  0  0  0  0
  2  3  1  0  0  0  0
  3  4  1  0  0  0  0
  3  9  1  1  0  0  0
  4  5  1  0  0  0  0
  4  6  1  0  0  0  0
  6  7  2  0  0  0  0
  6  8  1  0  0  0  0
  8 12  1  0  0  0  0
  8 13  1  0  0  0  0
  9 10  2  0  0  0  0
  9 11  1  0  0  0  0
 11 14  1  0  0  0  0
 11 15  1  0  0  0  0
M  END
>  <CHROM.0>
-61.03491147,52.25669981,-65.88842983,-48.40462478,-64.70133969,-63.73079923
-70.22882640,-174.68477397,-167.96908145

>  <CHROM.1>
-156.33551973,-88.41888681,5.91564528,18.19226192,3.77383989,1.35077221,-0.79069917
-1.89047859

>  <Name>
P109008946

>  <RI>
2.22087e+07

>  <Rbt.Current_Directory>
/home/fstefaniak/projects/zuza/docking/adenine/4XNR

>  <Rbt.Executable>
rbdock ($Id: //depot/dev/client3/rdock/2013.1/src/exe/rbdock.cxx#4 $)

>  <Rbt.Library>
libRbt.so (2013.1, Build901 2013/11/27)

>  <Rbt.Parameter_File>
/home/fstefaniak/progs/rDock//data/scripts/dock_solv.prm

>  <Rbt.Receptor>
4xnr.prm

>  <SCORE>
-50.2268

>  <SCORE.INTER>
-31.2442

>  <SCORE.INTER.CONST>
1

>  <SCORE.INTER.POLAR>
-3.29494

>  <SCORE.INTER.ROT>
2

>  <SCORE.INTER.SOLV>
15.3977

>  <SCORE.INTER.VDW>
-19.9123

>  <SCORE.INTER.norm>
-2.84038

>  <SCORE.INTRA>
1.05786

>  <SCORE.INTRA.DIHEDRAL>
0.000681298

>  <SCORE.INTRA.DIHEDRAL.0>
1.52126

>  <SCORE.INTRA.POLAR>
0.294357

>  <SCORE.INTRA.POLAR.0>
-0.294357

>  <SCORE.INTRA.REPUL>
0

>  <SCORE.INTRA.REPUL.0>
0

>  <SCORE.INTRA.SOLV>
-0.381892

>  <SCORE.INTRA.SOLV.lig_0>
-15.8133

>  <SCORE.INTRA.VDW>
0.247653

>  <SCORE.INTRA.VDW.0>
-1.01167

>  <SCORE.INTRA.norm>
0.0961694

>  <SCORE.RESTR>
0

>  <SCORE.RESTR.CAVITY>
0

>  <SCORE.RESTR.norm>
0

>  <SCORE.SYSTEM>
-20.0404

>  <SCORE.SYSTEM.CONST>
0

>  <SCORE.SYSTEM.DIHEDRAL>
4.60485

>  <SCORE.SYSTEM.POLAR>
-2.97234

>  <SCORE.SYSTEM.SOLV>
0.227747

>  <SCORE.SYSTEM.VDW>
-5.06333

>  <SCORE.SYSTEM.norm>
-1.82185

>  <SCORE.heavy>
11

>  <SCORE.norm>
-4.56607

$$$$
P109008946
 OpenBabel12072022113D
libRbt.so/2013.1/901 2013/11/27
 15 15  0  0  0  0  0  0  0  0999 V2000
    3.8181   16.6902    3.3950 C   0  0  0  0  0  0  0  0  0  0  0  0
    4.8840   16.2285    4.3823 C   0  0  0  0  0  0  0  0  0  0  0  0
    5.9557   17.3204    4.3020 C   0  0  1  0  0  0  0  0  0  0  0  0
    5.8341   17.8281    2.9259 N   0  0  0  0  0  0  0  0  0  0  0  0
    4.6363   17.3144    2.2780 C   0  0  0  0  0  0  0  0  0  0  0  0
    6.8989   18.3983    2.2867 C   0  0  0  0  0  0  0  0  0  0  0  0
    7.9764   18.6381    2.8230 O   0  0  0  0  0  0  0  0  0  0  0  0
    6.7121   18.6995    0.9798 N   0  0  0  0  0  0  0  0  0  0  0  0
    5.8649   18.5020    5.2964 C   0  0  0  0  0  0  0  0  0  0  0  0
    6.4920   20.0340    5.0777 S   0  0  0  0  0  0  0  0  0  0  0  0
    5.1970   18.2325    6.4619 N   0  0  0  0  0  0  0  0  0  0  0  0
    6.9350   17.9845    0.3047 H   0  0  0  0  0  0  0  0  0  0  0  0
    5.8408   19.1833    0.8033 H   0  0  0  0  0  0  0  0  0  0  0  0
    4.9458   17.2698    6.6984 H   0  0  0  0  0  0  0  0  0  0  0  0
    5.1545   18.9265    7.1966 H   0  0  0  0  0  0  0  0  0  0  0  0
  1  2  1  0  0  0  0
  1  5  1  0  0  0  0
  2  3  1  0  0  0  0
  3  4  1  0  0  0  0
  3  9  1  1  0  0  0
  4  5  1  0  0  0  0
  4  6  1  0  0  0  0
  6  7  2  0  0  0  0
  6  8  1  0  0  0  0
  8 12  1  0  0  0  0
  8 13  1  0  0  0  0
  9 10  2  0  0  0  0
  9 11  1  0  0  0  0
 11 14  1  0  0  0  0
 11 15  1  0  0  0  0
M  END
>  <CHROM.0>
-52.30163824,56.94532023,-67.84117644,-49.45918200,-176.80580150,-64.13854662
-72.35292778,-58.81204940,-168.05443013

>  <CHROM.1>
-155.16860078,-89.25240431,5.91845440,18.21109615,3.78928655,1.34389218,-0.79125854
-1.89552806

>  <Name>
P109008946

>  <RI>
2.22087e+07

>  <Rbt.Current_Directory>
/home/fstefaniak/projects/zuza/docking/adenine/4XNR

>  <Rbt.Executable>
rbdock ($Id: //depot/dev/client3/rdock/2013.1/src/exe/rbdock.cxx#4 $)

>  <Rbt.Library>
libRbt.so (2013.1, Build901 2013/11/27)

>  <Rbt.Parameter_File>
/home/fstefaniak/progs/rDock//data/scripts/dock_solv.prm

>  <Rbt.Receptor>
4xnr.prm

>  <SCORE>
-50.1544

>  <SCORE.INTER>
-31.13

>  <SCORE.INTER.CONST>
1

>  <SCORE.INTER.POLAR>
-3.24839

>  <SCORE.INTER.ROT>
2

>  <SCORE.INTER.SOLV>
15.4149

>  <SCORE.INTER.VDW>
-19.997

>  <SCORE.INTER.norm>
-2.83

>  <SCORE.INTRA>
1.0307

>  <SCORE.INTRA.DIHEDRAL>
0.000719272

>  <SCORE.INTRA.DIHEDRAL.0>
1.52126

>  <SCORE.INTRA.POLAR>
0.294357

>  <SCORE.INTRA.POLAR.0>
-0.294357

>  <SCORE.INTRA.REPUL>
0

>  <SCORE.INTRA.REPUL.0>
0

>  <SCORE.INTRA.SOLV>
-0.384976

>  <SCORE.INTRA.SOLV.lig_0>
-15.8133

>  <SCORE.INTRA.VDW>
0.222013

>  <SCORE.INTRA.VDW.0>
-1.01167

>  <SCORE.INTRA.norm>
0.0937

>  <SCORE.RESTR>
0

>  <SCORE.RESTR.CAVITY>
0

>  <SCORE.RESTR.norm>
0

>  <SCORE.SYSTEM>
-20.0552

>  <SCORE.SYSTEM.CONST>
0

>  <SCORE.SYSTEM.DIHEDRAL>
4.67954

>  <SCORE.SYSTEM.POLAR>
-2.99877

>  <SCORE.SYSTEM.SOLV>
0.183673

>  <SCORE.SYSTEM.VDW>
-4.99527

>  <SCORE.SYSTEM.norm>
-1.8232

>  <SCORE.heavy>
11

>  <SCORE.norm>
-4.55949

$$$$
P109008946
 OpenBabel12072022113D
libRbt.so/2013.1/901 2013/11/27
 15 15  0  0  0  0  0  0  0  0999 V2000
    3.8013   16.6620    3.3763 C   0  0  0  0  0  0  0  0  0  0  0  0
    4.8654   16.2014    4.3659 C   0  0  0  0  0  0  0  0  0  0  0  0
    5.9327   17.2982    4.2936 C   0  0  1  0  0  0  0  0  0  0  0  0
    5.8139   17.8104    2.9189 N   0  0  0  0  0  0  0  0  0  0  0  0
    4.6208   17.2939    2.2646 C   0  0  0  0  0  0  0  0  0  0  0  0
    6.8785   18.3877    2.2857 C   0  0  0  0  0  0  0  0  0  0  0  0
    7.9530   18.6302    2.8269 O   0  0  0  0  0  0  0  0  0  0  0  0
    6.6953   18.6928    0.9792 N   0  0  0  0  0  0  0  0  0  0  0  0
    5.8330   18.4758    5.2920 C   0  0  0  0  0  0  0  0  0  0  0  0
    6.4491   20.0129    5.0787 S   0  0  0  0  0  0  0  0  0  0  0  0
    5.1666   18.1975    6.4563 N   0  0  0  0  0  0  0  0  0  0  0  0
    6.9208   17.9802    0.3025 H   0  0  0  0  0  0  0  0  0  0  0  0
    5.8240   19.1765    0.8017 H   0  0  0  0  0  0  0  0  0  0  0  0
    4.9223   17.2322    6.6894 H   0  0  0  0  0  0  0  0  0  0  0  0
    5.1189   18.8886    7.1933 H   0  0  0  0  0  0  0  0  0  0  0  0
  1  2  1  0  0  0  0
  1  5  1  0  0  0  0
  2  3  1  0  0  0  0
  3  4  1  0  0  0  0
  3  9  1  1  0  0  0
  4  5  1  0  0  0  0
  4  6  1  0  0  0  0
  6  7  2  0  0  0  0
  6  8  1  0  0  0  0
  8 12  1  0  0  0  0
  8 13  1  0  0  0  0
  9 10  2  0  0  0  0
  9 11  1  0  0  0  0
 11 14  1  0  0  0  0
 11 15  1  0  0  0  0
M  END
>  <CHROM.0>
-54.25375517,55.13589565,-69.09036901,-48.79834445,-55.17209853,-63.67475115
-64.50218315,-62.17191761,-167.77310773

>  <CHROM.1>
-154.91800480,-89.04332872,5.89291659,18.19080357,3.78371354,1.33565322,-0.79517423
-1.89712051

>  <Name>
P109008946

>  <RI>
2.22087e+07

>  <Rbt.Current_Directory>
/home/fstefaniak/projects/zuza/docking/adenine/4XNR

>  <Rbt.Executable>
rbdock ($Id: //depot/dev/client3/rdock/2013.1/src/exe/rbdock.cxx#4 $)

>  <Rbt.Library>
libRbt.so (2013.1, Build901 2013/11/27)

>  <Rbt.Parameter_File>
/home/fstefaniak/progs/rDock//data/scripts/dock_solv.prm

>  <Rbt.Receptor>
4xnr.prm

>  <SCORE>
-50.1396

>  <SCORE.INTER>
-31.1741

>  <SCORE.INTER.CONST>
1

>  <SCORE.INTER.POLAR>
-3.25676

>  <SCORE.INTER.ROT>
2

>  <SCORE.INTER.SOLV>
15.4128

>  <SCORE.INTER.VDW>
-19.9978

>  <SCORE.INTER.norm>
-2.83401

>  <SCORE.INTRA>
1.01893

>  <SCORE.INTRA.DIHEDRAL>
0.000712548

>  <SCORE.INTRA.DIHEDRAL.0>
1.52126

>  <SCORE.INTRA.POLAR>
0.294357

>  <SCORE.INTRA.POLAR.0>
-0.294357

>  <SCORE.INTRA.REPUL>
0

>  <SCORE.INTRA.REPUL.0>
0

>  <SCORE.INTRA.SOLV>
-0.385771

>  <SCORE.INTRA.SOLV.lig_0>
-15.8133

>  <SCORE.INTRA.VDW>
0.210645

>  <SCORE.INTRA.VDW.0>
-1.01167

>  <SCORE.INTRA.norm>
0.0926301

>  <SCORE.RESTR>
0

>  <SCORE.RESTR.CAVITY>
0

>  <SCORE.RESTR.norm>
0

>  <SCORE.SYSTEM>
-19.9844

>  <SCORE.SYSTEM.CONST>
0

>  <SCORE.SYSTEM.DIHEDRAL>
4.29344

>  <SCORE.SYSTEM.POLAR>
-3.00526

>  <SCORE.SYSTEM.SOLV>
0.382741

>  <SCORE.SYSTEM.VDW>
-4.86414

>  <SCORE.SYSTEM.norm>
-1.81677

>  <SCORE.heavy>
11

>  <SCORE.norm>
-4.55814

$$$$
P109011612
 OpenBabel12072022113D
libRbt.so/2013.1/901 2013/11/27
 15 16  0  0  0  0  0  0  0  0999 V2000
    5.7945   18.2547    5.4126 C   0  0  0  0  0  0  0  0  0  0  0  0
    6.5384   19.4332    4.8505 C   0  0  0  0  0  0  0  0  0  0  0  0
    5.8880   18.4396    3.9152 C   0  0  0  0  0  0  0  0  0  0  0  0
    6.7193   17.4902    3.0885 C   0  0  2  0  0  0  0  0  0  0  0  0
    6.9630   18.2197    1.8238 C   0  0  0  0  0  0  0  0  0  0  0  0
    7.1115   18.8004    0.8279 N   0  0  0  0  0  0  0  0  0  0  0  0
    5.9583   16.2706    2.8835 N   0  0  0  0  0  0  0  0  0  0  0  0
    4.5903   16.3515    2.8133 C   0  0  0  0  0  0  0  0  0  0  0  0
    3.9950   17.0133    1.9743 O   0  0  0  0  0  0  0  0  0  0  0  0
    3.9890   15.5999    3.7952 N   0  0  0  0  0  0  0  0  0  0  0  0
    3.7510   14.1994    3.6304 C   0  0  0  0  0  0  0  0  0  0  0  0
    3.2863   13.3624    4.7910 C   0  0  0  0  0  0  0  0  0  0  0  0
    2.3483   13.6589    3.6584 C   0  0  0  0  0  0  0  0  0  0  0  0
    6.3077   15.4431    3.3429 H   0  0  0  0  0  0  0  0  0  0  0  0
    4.0807   15.9457    4.7402 H   0  0  0  0  0  0  0  0  0  0  0  0
  1  2  1  0  0  0  0
  1  3  1  0  0  0  0
  2  3  1  0  0  0  0
  4  5  1  6  0  0  0
  4  7  1  0  0  0  0
  4  3  1  0  0  0  0
  5  6  3  0  0  0  0
  7  8  1  0  0  0  0
  7 14  1  0  0  0  0
  8  9  2  0  0  0  0
  8 10  1  0  0  0  0
 10 11  1  0  0  0  0
 10 15  1  0  0  0  0
 11 12  1  0  0  0  0
 11 13  1  0  0  0  0
 12 13  1  0  0  0  0
M  END
>  <CHROM.0>
-62.06168272,49.56150699,-75.42013727,-46.68116794,-59.93349552,-62.24845512
-175.95155356,-176.49021116,-168.06881175

>  <CHROM.1>
31.31360935,-160.85168349,59.81805166,-84.27347217,170.66751780,5.11705299
16.67823224,3.35614448,-0.02570116,0.93349250,1.39011199

>  <Name>
P109011612

>  <RI>
3.4169e+07

>  <Rbt.Current_Directory>
/home/fstefaniak/projects/zuza/docking/adenine/4XNR

>  <Rbt.Executable>
rbdock ($Id: //depot/dev/client3/rdock/2013.1/src/exe/rbdock.cxx#4 $)

>  <Rbt.Library>
libRbt.so (2013.1, Build901 2013/11/27)

>  <Rbt.Parameter_File>
/home/fstefaniak/progs/rDock//data/scripts/dock_solv.prm

>  <Rbt.Receptor>
4xnr.prm

>  <SCORE>
-53.2354

>  <SCORE.INTER>
-35.0794

>  <SCORE.INTER.CONST>
1

>  <SCORE.INTER.POLAR>
-3.49358

>  <SCORE.INTER.ROT>
5

>  <SCORE.INTER.SOLV>
13.5714

>  <SCORE.INTER.VDW>
-23.1982

>  <SCORE.INTER.norm>
-2.69842

>  <SCORE.INTRA>
1.2695

>  <SCORE.INTRA.DIHEDRAL>
1.38095

>  <SCORE.INTRA.DIHEDRAL.0>
5.39308

>  <SCORE.INTRA.POLAR>
0

>  <SCORE.INTRA.POLAR.0>
0

>  <SCORE.INTRA.REPUL>
0

>  <SCORE.INTRA.REPUL.0>
0

>  <SCORE.INTRA.SOLV>
0.85066

>  <SCORE.INTRA.SOLV.lig_0>
-14.8387

>  <SCORE.INTRA.VDW>
0.15369

>  <SCORE.INTRA.VDW.0>
-1.3347

>  <SCORE.INTRA.norm>
0.0976537

>  <SCORE.RESTR>
0

>  <SCORE.RESTR.CAVITY>
0

>  <SCORE.RESTR.norm>
0

>  <SCORE.SYSTEM>
-19.4255

>  <SCORE.SYSTEM.CONST>
0

>  <SCORE.SYSTEM.DIHEDRAL>
5.2954

>  <SCORE.SYSTEM.POLAR>
-2.98111

>  <SCORE.SYSTEM.SOLV>
0.196389

>  <SCORE.SYSTEM.VDW>
-4.84387

>  <SCORE.SYSTEM.norm>
-1.49427

>  <SCORE.heavy>
13

>  <SCORE.norm>
-4.09503

$$$$
P109011612
 OpenBabel12072022113D
libRbt.so/2013.1/901 2013/11/27
 15 16  0  0  0  0  0  0  0  0999 V2000
    6.0205   19.0977    6.2199 C   0  0  0  0  0  0  0  0  0  0  0  0
    6.7330   19.6740    5.0289 C   0  0  0  0  0  0  0  0  0  0  0  0
    5.6053   18.6882    4.8253 C   0  0  0  0  0  0  0  0  0  0  0  0
    5.8762   17.2859    4.3390 C   0  0  2  0  0  0  0  0  0  0  0  0
    6.1739   17.4470    2.8981 C   0  0  0  0  0  0  0  0  0  0  0  0
    6.3711   17.5970    1.7624 N   0  0  0  0  0  0  0  0  0  0  0  0
    4.6899   16.4811    4.5702 N   0  0  0  0  0  0  0  0  0  0  0  0
    3.8979   16.1520    3.4990 C   0  0  0  0  0  0  0  0  0  0  0  0
    3.2495   16.9704    2.8617 O   0  0  0  0  0  0  0  0  0  0  0  0
    3.9321   14.8017    3.2417 N   0  0  0  0  0  0  0  0  0  0  0  0
    2.9016   13.9226    3.7003 C   0  0  0  0  0  0  0  0  0  0  0  0
    2.9027   13.4191    5.1180 C   0  0  0  0  0  0  0  0  0  0  0  0
    1.8662   14.4094    4.6757 C   0  0  0  0  0  0  0  0  0  0  0  0
    4.1865   16.6622    5.4255 H   0  0  0  0  0  0  0  0  0  0  0  0
    4.4541   14.5166    2.4248 H   0  0  0  0  0  0  0  0  0  0  0  0
  1  2  1  0  0  0  0
  1  3  1  0  0  0  0
  2  3  1  0  0  0  0
  4  5  1  6  0  0  0
  4  7  1  0  0  0  0
  4  3  1  0  0  0  0
  5  6  3  0  0  0  0
  7  8  1  0  0  0  0
  7 14  1  0  0  0  0
  8  9  2  0  0  0  0
  8 10  1  0  0  0  0
 10 11  1  0  0  0  0
 10 15  1  0  0  0  0
 11 12  1  0  0  0  0
 11 13  1  0  0  0  0
 12 13  1  0  0  0  0
M  END
>  <CHROM.0>
-61.32690475,-59.09619969,-67.47428112,-44.23835761,-64.08714351,-67.36451034
-68.93928825,-57.02009358,-166.31623181

>  <CHROM.1>
105.23485845,-145.22314211,-66.99531875,98.72077798,-81.02056063,4.60162704
16.59920758,4.05799483,0.30860121,0.87961373,1.26472915

>  <Name>
P109011612

>  <RI>
3.4169e+07

>  <Rbt.Current_Directory>
/home/fstefaniak/projects/zuza/docking/adenine/4XNR

>  <Rbt.Executable>
rbdock ($Id: //depot/dev/client3/rdock/2013.1/src/exe/rbdock.cxx#4 $)

>  <Rbt.Library>
libRbt.so (2013.1, Build901 2013/11/27)

>  <Rbt.Parameter_File>
/home/fstefaniak/progs/rDock//data/scripts/dock_solv.prm

>  <Rbt.Receptor>
4xnr.prm

>  <SCORE>
-52.7193

>  <SCORE.INTER>
-33.2987

>  <SCORE.INTER.CONST>
1

>  <SCORE.INTER.POLAR>
-3.46428

>  <SCORE.INTER.ROT>
5

>  <SCORE.INTER.SOLV>
12.4919

>  <SCORE.INTER.VDW>
-21.7488

>  <SCORE.INTER.norm>
-2.56144

>  <SCORE.INTRA>
1.26945

>  <SCORE.INTRA.DIHEDRAL>
0.420622

>  <SCORE.INTRA.DIHEDRAL.0>
5.39308

>  <SCORE.INTRA.POLAR>
0

>  <SCORE.INTRA.POLAR.0>
0

>  <SCORE.INTRA.REPUL>
0

>  <SCORE.INTRA.REPUL.0>
0

>  <SCORE.INTRA.SOLV>
1.14344

>  <SCORE.INTRA.SOLV.lig_0>
-14.8387

>  <SCORE.INTRA.VDW>
0.487412

>  <SCORE.INTRA.VDW.0>
-1.3347

>  <SCORE.INTRA.norm>
0.0976496

>  <SCORE.RESTR>
0

>  <SCORE.RESTR.CAVITY>
0

>  <SCORE.RESTR.norm>
0

>  <SCORE.SYSTEM>
-20.6901

>  <SCORE.SYSTEM.CONST>
0

>  <SCORE.SYSTEM.DIHEDRAL>
5.06191

>  <SCORE.SYSTEM.POLAR>
-3.01549

>  <SCORE.SYSTEM.SOLV>
0.264458

>  <SCORE.SYSTEM.VDW>
-5.5172

>  <SCORE.SYSTEM.norm>
-1.59154

>  <SCORE.heavy>
13

>  <SCORE.norm>
-4.05533

$$$$
P109011612
 OpenBabel12072022113D
libRbt.so/2013.1/901 2013/11/27
 15 16  0  0  0  0  0  0  0  0999 V2000
    5.8735   18.2498    5.4078 C   0  0  0  0  0  0  0  0  0  0  0  0
    6.6706   19.4065    4.8741 C   0  0  0  0  0  0  0  0  0  0  0  0
    5.9847   18.4606    3.9151 C   0  0  0  0  0  0  0  0  0  0  0  0
    6.7803   17.4932    3.0740 C   0  0  2  0  0  0  0  0  0  0  0  0
    7.0209   18.2188    1.8065 C   0  0  0  0  0  0  0  0  0  0  0  0
    7.1672   18.7975    0.8091 N   0  0  0  0  0  0  0  0  0  0  0  0
    5.9878   16.2921    2.8797 N   0  0  0  0  0  0  0  0  0  0  0  0
    4.6230   16.4092    2.7983 C   0  0  0  0  0  0  0  0  0  0  0  0
    4.0515   17.0629    1.9367 O   0  0  0  0  0  0  0  0  0  0  0  0
    3.9952   15.7033    3.7974 N   0  0  0  0  0  0  0  0  0  0  0  0
    3.8981   14.2769    3.7634 C   0  0  0  0  0  0  0  0  0  0  0  0
    3.2936   13.5254    4.9180 C   0  0  0  0  0  0  0  0  0  0  0  0
    2.5591   13.6101    3.6127 C   0  0  0  0  0  0  0  0  0  0  0  0
    6.3113   15.4617    3.3527 H   0  0  0  0  0  0  0  0  0  0  0  0
    3.9619   16.1481    4.7041 H   0  0  0  0  0  0  0  0  0  0  0  0
  1  2  1  0  0  0  0
  1  3  1  0  0  0  0
  2  3  1  0  0  0  0
  4  5  1  6  0  0  0
  4  7  1  0  0  0  0
  4  3  1  0  0  0  0
  5  6  3  0  0  0  0
  7  8  1  0  0  0  0
  7 14  1  0  0  0  0
  8  9  2  0  0  0  0
  8 10  1  0  0  0  0
 10 11  1  0  0  0  0
 10 15  1  0  0  0  0
 11 12  1  0  0  0  0
 11 13  1  0  0  0  0
 12 13  1  0  0  0  0
M  END
>  <CHROM.0>
-55.16025461,-64.49777412,60.47504587,-48.93066187,59.01636573,-62.86932524
53.08199867,-60.74184224,-168.50054953

>  <CHROM.1>
32.90445866,-162.84868622,60.69769239,-74.66477810,175.56370846,5.19041498
16.71111571,3.36534135,-0.06798709,0.92949111,1.42307840

>  <Name>
P109011612

>  <RI>
3.4169e+07

>  <Rbt.Current_Directory>
/home/fstefaniak/projects/zuza/docking/adenine/4XNR

>  <Rbt.Executable>
rbdock ($Id: //depot/dev/client3/rdock/2013.1/src/exe/rbdock.cxx#4 $)

>  <Rbt.Library>
libRbt.so (2013.1, Build901 2013/11/27)

>  <Rbt.Parameter_File>
/home/fstefaniak/progs/rDock//data/scripts/dock_solv.prm

>  <Rbt.Receptor>
4xnr.prm

>  <SCORE>
-52.7023

>  <SCORE.INTER>
-35.9365

>  <SCORE.INTER.CONST>
1

>  <SCORE.INTER.POLAR>
-3.47578

>  <SCORE.INTER.ROT>
5

>  <SCORE.INTER.SOLV>
13.6956

>  <SCORE.INTER.VDW>
-23.8702

>  <SCORE.INTER.norm>
-2.76434

>  <SCORE.INTRA>
1.25118

>  <SCORE.INTRA.DIHEDRAL>
1.40546

>  <SCORE.INTRA.DIHEDRAL.0>
5.39308

>  <SCORE.INTRA.POLAR>
0

>  <SCORE.INTRA.POLAR.0>
0

>  <SCORE.INTRA.REPUL>
0

>  <SCORE.INTRA.REPUL.0>
0

>  <SCORE.INTRA.SOLV>
0.898357

>  <SCORE.INTRA.SOLV.lig_0>
-14.8387

>  <SCORE.INTRA.VDW>
0.0992705

>  <SCORE.INTRA.VDW.0>
-1.3347

>  <SCORE.INTRA.norm>
0.0962445

>  <SCORE.RESTR>
0

>  <SCORE.RESTR.CAVITY>
0

>  <SCORE.RESTR.norm>
0

>  <SCORE.SYSTEM>
-18.017

>  <SCORE.SYSTEM.CONST>
0

>  <SCORE.SYSTEM.DIHEDRAL>
3.75905

>  <SCORE.SYSTEM.POLAR>
-2.95679

>  <SCORE.SYSTEM.SOLV>
-0.0219509

>  <SCORE.SYSTEM.VDW>
-3.40107

>  <SCORE.SYSTEM.norm>
-1.38593

>  <SCORE.heavy>
13

>  <SCORE.norm>
-4.05402

$$$$
P109011981
 OpenBabel12072022113D
libRbt.so/2013.1/901 2013/11/27
 18 18  0  0  0  0  0  0  0  0999 V2000
    4.8600   16.5154    4.5604 C   0  0  0  0  0  0  0  0  0  0  0  0
    4.7209   15.9541    3.1722 C   0  0  0  0  0  0  0  0  0  0  0  0
    5.9604   16.7277    3.5496 C   0  0  0  0  0  0  0  0  0  0  0  0
    6.2141   18.1055    2.9844 C   0  0  2  0  0  0  0  0  0  0  0  0
    6.4983   18.1591    1.4788 C   0  0  0  0  0  0  0  0  0  0  0  0
    7.7388   18.2710    1.0396 N   0  3  0  0  0  0  0  0  0  0  0  0
    7.9538   18.3073    0.0517 H   0  0  0  0  0  0  0  0  0  0  0  0
    8.5226   18.3251    1.6812 H   0  0  0  0  0  0  0  0  0  0  0  0
    5.4898   18.0748    0.6340 N   0  0  0  0  0  0  0  0  0  0  0  0
    7.3769   18.6632    3.6727 N   0  0  0  0  0  0  0  0  0  0  0  0
    7.2181   19.3409    4.8449 C   0  0  0  0  0  0  0  0  0  0  0  0
    6.3384   20.1701    5.0362 O   0  0  0  0  0  0  0  0  0  0  0  0
    8.1395   19.0153    5.7739 N   0  0  0  0  0  0  0  0  0  0  0  0
    4.5310   18.0642    1.0108 H   0  0  0  0  0  0  0  0  0  0  0  0
    5.5804   18.1071   -0.3702 H   0  0  0  0  0  0  0  0  0  0  0  0
    8.2006   18.0732    3.6918 H   0  0  0  0  0  0  0  0  0  0  0  0
    8.4268   19.7003    6.4600 H   0  0  0  0  0  0  0  0  0  0  0  0
    8.0995   18.0621    6.1199 H   0  0  0  0  0  0  0  0  0  0  0  0
  1  2  1  0  0  0  0
  1  3  1  0  0  0  0
  2  3  1  0  0  0  0
  4  5  1  6  0  0  0
  4 10  1  0  0  0  0
  4  3  1  0  0  0  0
  5  6  2  0  0  0  0
  5  9  1  0  0  0  0
  6  7  1  0  0  0  0
  6  8  1  0  0  0  0
  9 14  1  0  0  0  0
  9 15  1  0  0  0  0
 10 11  1  0  0  0  0
 10 16  1  0  0  0  0
 11 12  2  0  0  0  0
 11 13  1  0  0  0  0
 13 17  1  0  0  0  0
 13 18  1  0  0  0  0
M  CHG  1   6   1
M  END
>  <CHROM.0>
-57.77231516,-62.02653163,62.79151629,-46.89322781,-58.58596880,-60.80349175
53.11388816,-57.68181539,-166.50333595

>  <CHROM.1>
-100.53582980,-87.13459338,-138.17918436,-43.93837200,150.11868429,6.44672146
18.12113662,3.33733013,2.08021077,-0.82661494,-1.63926795

>  <Name>
P109011981

>  <RI>
3.58524e+07

>  <Rbt.Current_Directory>
/home/fstefaniak/projects/zuza/docking/adenine/4XNR

>  <Rbt.Executable>
rbdock ($Id: //depot/dev/client3/rdock/2013.1/src/exe/rbdock.cxx#4 $)

>  <Rbt.Library>
libRbt.so (2013.1, Build901 2013/11/27)

>  <Rbt.Parameter_File>
/home/fstefaniak/progs/rDock//data/scripts/dock_solv.prm

>  <Rbt.Receptor>
4xnr.prm

>  <SCORE>
-57.0963

>  <SCORE.INTER>
-37.8447

>  <SCORE.INTER.CONST>
1

>  <SCORE.INTER.POLAR>
-5.87607

>  <SCORE.INTER.ROT>
5

>  <SCORE.INTER.SOLV>
24.7067

>  <SCORE.INTER.VDW>
-20.8118

>  <SCORE.INTER.norm>
-3.44042

>  <SCORE.INTRA>
-0.433864

>  <SCORE.INTRA.DIHEDRAL>
-0.757606

>  <SCORE.INTRA.DIHEDRAL.0>
5.56874

>  <SCORE.INTRA.POLAR>
0.705442

>  <SCORE.INTRA.POLAR.0>
-0.705809

>  <SCORE.INTRA.REPUL>
0

>  <SCORE.INTRA.REPUL.0>
0

>  <SCORE.INTRA.SOLV>
-1.57721

>  <SCORE.INTRA.SOLV.lig_0>
-33.8793

>  <SCORE.INTRA.VDW>
-1.66496

>  <SCORE.INTRA.VDW.0>
-0.297649

>  <SCORE.INTRA.norm>
-0.0394422

>  <SCORE.RESTR>
0

>  <SCORE.RESTR.CAVITY>
0

>  <SCORE.RESTR.norm>
0

>  <SCORE.SYSTEM>
-18.8178

>  <SCORE.SYSTEM.CONST>
0

>  <SCORE.SYSTEM.DIHEDRAL>
4.05319

>  <SCORE.SYSTEM.POLAR>
-2.98067

>  <SCORE.SYSTEM.SOLV>
0.195581

>  <SCORE.SYSTEM.VDW>
-4.0259

>  <SCORE.SYSTEM.norm>
-1.71071

>  <SCORE.heavy>
11

>  <SCORE.norm>
-5.19058

$$$$
P109011981
 OpenBabel12072022113D
libRbt.so/2013.1/901 2013/11/27
 18 18  0  0  0  0  0  0  0  0999 V2000
    4.3925   17.4549    2.8700 C   0  0  0  0  0  0  0  0  0  0  0  0
    4.5880   16.4321    3.9551 C   0  0  0  0  0  0  0  0  0  0  0  0
    5.0478   17.8532    4.1699 C   0  0  0  0  0  0  0  0  0  0  0  0
    6.5194   18.1933    4.2033 C   0  0  2  0  0  0  0  0  0  0  0  0
    6.9303   19.2448    5.2404 C   0  0  0  0  0  0  0  0  0  0  0  0
    6.3252   20.4182    5.2737 N   0  3  0  0  0  0  0  0  0  0  0  0
    6.5762   21.1291    5.9484 H   0  0  0  0  0  0  0  0  0  0  0  0
    5.5843   20.6484    4.6202 H   0  0  0  0  0  0  0  0  0  0  0  0
    7.8816   18.9529    6.1051 N   0  0  0  0  0  0  0  0  0  0  0  0
    6.8890   18.7059    2.8851 N   0  0  0  0  0  0  0  0  0  0  0  0
    6.9606   17.8610    1.8178 C   0  0  0  0  0  0  0  0  0  0  0  0
    6.7011   16.6664    1.8786 O   0  0  0  0  0  0  0  0  0  0  0  0
    7.3609   18.4721    0.6844 N   0  0  0  0  0  0  0  0  0  0  0  0
    8.3830   18.0587    6.0028 H   0  0  0  0  0  0  0  0  0  0  0  0
    8.2207   19.5823    6.8168 H   0  0  0  0  0  0  0  0  0  0  0  0
    6.4778   19.5961    2.6291 H   0  0  0  0  0  0  0  0  0  0  0  0
    8.3061   18.8228    0.6082 H   0  0  0  0  0  0  0  0  0  0  0  0
    6.9787   18.0968   -0.1777 H   0  0  0  0  0  0  0  0  0  0  0  0
  1  2  1  0  0  0  0
  1  3  1  0  0  0  0
  2  3  1  0  0  0  0
  4  5  1  1  0  0  0
  4 10  1  0  0  0  0
  4  3  1  0  0  0  0
  5  6  2  0  0  0  0
  5  9  1  0  0  0  0
  6  7  1  0  0  0  0
  6  8  1  0  0  0  0
  9 14  1  0  0  0  0
  9 15  1  0  0  0  0
 10 11  1  0  0  0  0
 10 16  1  0  0  0  0
 11 12  2  0  0  0  0
 11 13  1  0  0  0  0
 13 17  1  0  0  0  0
 13 18  1  0  0  0  0
M  CHG  1   6   1
M  END
>  <CHROM.0>
-55.21191215,54.69509947,66.05213709,-45.59248048,-56.80843009,-174.18411025
52.19985073,60.52185660,-167.81654103

>  <CHROM.1>
-53.61006082,-71.67957655,148.27255197,1.67822724,67.70425747,6.36234930
18.23310347,3.53452028,1.73702035,-0.63587411,-1.94219452

>  <Name>
P109011981

>  <RI>
3.58524e+07

>  <Rbt.Current_Directory>
/home/fstefaniak/projects/zuza/docking/adenine/4XNR

>  <Rbt.Executable>
rbdock ($Id: //depot/dev/client3/rdock/2013.1/src/exe/rbdock.cxx#4 $)

>  <Rbt.Library>
libRbt.so (2013.1, Build901 2013/11/27)

>  <Rbt.Parameter_File>
/home/fstefaniak/progs/rDock//data/scripts/dock_solv.prm

>  <Rbt.Receptor>
4xnr.prm

>  <SCORE>
-56.6106

>  <SCORE.INTER>
-42.9735

>  <SCORE.INTER.CONST>
1

>  <SCORE.INTER.POLAR>
-7.28294

>  <SCORE.INTER.ROT>
5

>  <SCORE.INTER.SOLV>
25.7152

>  <SCORE.INTER.VDW>
-19.8776

>  <SCORE.INTER.norm>
-3.90668

>  <SCORE.INTRA>
3.03615

>  <SCORE.INTRA.DIHEDRAL>
-1.00848

>  <SCORE.INTRA.DIHEDRAL.0>
5.56874

>  <SCORE.INTRA.POLAR>
0.700628

>  <SCORE.INTRA.POLAR.0>
-0.705809

>  <SCORE.INTRA.REPUL>
0

>  <SCORE.INTRA.REPUL.0>
0

>  <SCORE.INTRA.SOLV>
-1.93023

>  <SCORE.INTRA.SOLV.lig_0>
-33.8793

>  <SCORE.INTRA.VDW>
2.12337

>  <SCORE.INTRA.VDW.0>
-0.297649

>  <SCORE.INTRA.norm>
0.276014

>  <SCORE.RESTR>
0

>  <SCORE.RESTR.CAVITY>
0

>  <SCORE.RESTR.norm>
0

>  <SCORE.SYSTEM>
-16.6732

>  <SCORE.SYSTEM.CONST>
0

>  <SCORE.SYSTEM.DIHEDRAL>
4.62055

>  <SCORE.SYSTEM.POLAR>
-3.03067

>  <SCORE.SYSTEM.SOLV>
0.0103489

>  <SCORE.SYSTEM.VDW>
-2.55685

>  <SCORE.SYSTEM.norm>
-1.51574

>  <SCORE.heavy>
11

>  <SCORE.norm>
-5.14641

$$$$
P109011981
 OpenBabel12072022113D
libRbt.so/2013.1/901 2013/11/27
 18 18  0  0  0  0  0  0  0  0999 V2000
    6.0741   19.1386    5.2612 C   0  0  0  0  0  0  0  0  0  0  0  0
    5.3086   18.1370    6.0812 C   0  0  0  0  0  0  0  0  0  0  0  0
    5.9900   17.7018    4.8070 C   0  0  0  0  0  0  0  0  0  0  0  0
    5.1823   17.3406    3.5824 C   0  0  2  0  0  0  0  0  0  0  0  0
    4.3243   16.0763    3.7071 C   0  0  0  0  0  0  0  0  0  0  0  0
    4.8836   14.8824    3.6291 N   0  3  0  0  0  0  0  0  0  0  0  0
    4.3407   14.0326    3.7093 H   0  0  0  0  0  0  0  0  0  0  0  0
    5.8821   14.7762    3.4848 H   0  0  0  0  0  0  0  0  0  0  0  0
    3.0276   16.2005    3.9098 N   0  0  0  0  0  0  0  0  0  0  0  0
    6.1162   17.1326    2.4772 N   0  0  0  0  0  0  0  0  0  0  0  0
    6.9442   18.1409    2.0820 C   0  0  0  0  0  0  0  0  0  0  0  0
    7.7369   18.7006    2.8281 O   0  0  0  0  0  0  0  0  0  0  0  0
    6.7936   18.4718    0.7836 N   0  0  0  0  0  0  0  0  0  0  0  0
    2.6141   17.1439    3.8902 H   0  0  0  0  0  0  0  0  0  0  0  0
    2.3856   15.4273    3.9980 H   0  0  0  0  0  0  0  0  0  0  0  0
    6.5880   16.2358    2.4639 H   0  0  0  0  0  0  0  0  0  0  0  0
    7.0455   17.8093    0.0625 H   0  0  0  0  0  0  0  0  0  0  0  0
    5.9862   19.0468    0.5657 H   0  0  0  0  0  0  0  0  0  0  0  0
  1  2  1  0  0  0  0
  1  3  1  0  0  0  0
  2  3  1  0  0  0  0
  4  5  1  1  0  0  0
  4 10  1  0  0  0  0
  4  3  1  0  0  0  0
  5  6  2  0  0  0  0
  5  9  1  0  0  0  0
  6  7  1  0  0  0  0
  6  8  1  0  0  0  0
  9 14  1  0  0  0  0
  9 15  1  0  0  0  0
 10 11  1  0  0  0  0
 10 16  1  0  0  0  0
 11 12  2  0  0  0  0
 11 13  1  0  0  0  0
 13 17  1  0  0  0  0
 13 18  1  0  0  0  0
M  CHG  1   6   1
M  END
>  <CHROM.0>
-53.91885150,47.06468206,59.85523550,-46.05467388,-170.87465540,-49.29374483
54.78150733,58.32265939,-168.45990292

>  <CHROM.1>
-76.71211743,-59.35008477,-137.52650652,57.11106168,-66.16290392,5.66809880
17.42231859,3.51590712,-0.25368738,0.79620097,1.14308272

>  <Name>
P109011981

>  <RI>
3.58524e+07

>  <Rbt.Current_Directory>
/home/fstefaniak/projects/zuza/docking/adenine/4XNR

>  <Rbt.Executable>
rbdock ($Id: //depot/dev/client3/rdock/2013.1/src/exe/rbdock.cxx#4 $)

>  <Rbt.Library>
libRbt.so (2013.1, Build901 2013/11/27)

>  <Rbt.Parameter_File>
/home/fstefaniak/progs/rDock//data/scripts/dock_solv.prm

>  <Rbt.Receptor>
4xnr.prm

>  <SCORE>
-55.0518

>  <SCORE.INTER>
-38.5529

>  <SCORE.INTER.CONST>
1

>  <SCORE.INTER.POLAR>
-5.96103

>  <SCORE.INTER.ROT>
5

>  <SCORE.INTER.SOLV>
21.3162

>  <SCORE.INTER.VDW>
-19.8705

>  <SCORE.INTER.norm>
-3.50481

>  <SCORE.INTRA>
0.155622

>  <SCORE.INTRA.DIHEDRAL>
-1.05658

>  <SCORE.INTRA.DIHEDRAL.0>
5.56874

>  <SCORE.INTRA.POLAR>
0.703407

>  <SCORE.INTRA.POLAR.0>
-0.705809

>  <SCORE.INTRA.REPUL>
0

>  <SCORE.INTRA.REPUL.0>
0

>  <SCORE.INTRA.SOLV>
-1.84799

>  <SCORE.INTRA.SOLV.lig_0>
-33.8793

>  <SCORE.INTRA.VDW>
-0.783678

>  <SCORE.INTRA.VDW.0>
-0.297649

>  <SCORE.INTRA.norm>
0.0141474

>  <SCORE.RESTR>
0

>  <SCORE.RESTR.CAVITY>
0

>  <SCORE.RESTR.norm>
0

>  <SCORE.SYSTEM>
-16.6546

>  <SCORE.SYSTEM.CONST>
0

>  <SCORE.SYSTEM.DIHEDRAL>
5.57899

>  <SCORE.SYSTEM.POLAR>
-3.13287

>  <SCORE.SYSTEM.SOLV>
-0.0131737

>  <SCORE.SYSTEM.VDW>
-2.51542

>  <SCORE.SYSTEM.norm>
-1.51405

>  <SCORE.heavy>
11

>  <SCORE.norm>
-5.00471

$$$$
P109018549
 OpenBabel12072022113D
libRbt.so/2013.1/901 2013/11/27
 14 14  0  0  0  0  0  0  0  0999 V2000
    6.6097   18.2856    1.7196 C   0  0  0  0  0  0  0  0  0  0  0  0
    7.0534   17.4844    2.8556 N   0  0  0  0  0  0  0  0  0  0  0  0
    7.4184   18.3135    4.0042 C   0  0  0  0  0  0  0  0  0  0  0  0
    6.2174   18.8289    4.7944 C   0  0  0  0  0  0  0  0  0  0  0  0
    5.3716   17.6726    5.3092 C   0  0  0  0  0  0  0  0  0  0  0  0
    4.9816   16.6918    4.2014 C   0  0  2  0  0  0  0  0  0  0  0  0
    6.1188   16.4029    3.2038 C   0  0  0  0  0  0  0  0  0  0  0  0
    3.6470   17.0764    3.5578 C   0  0  0  0  0  0  0  0  0  0  0  0
    3.6246   17.7952    2.4754 N   0  0  0  0  0  0  0  0  0  0  0  0
    2.3047   18.0691    2.0803 O   0  0  0  0  0  0  0  0  0  0  0  0
    2.4988   16.6665    4.1935 N   0  0  0  0  0  0  0  0  0  0  0  0
    2.0733   18.8203    2.6578 H   0  0  0  0  0  0  0  0  0  0  0  0
    1.8281   17.4301    4.2375 H   0  0  0  0  0  0  0  0  0  0  0  0
    2.6184   16.1821    5.0740 H   0  0  0  0  0  0  0  0  0  0  0  0
  1  2  1  0  0  0  0
  2  3  1  0  0  0  0
  2  7  1  0  0  0  0
  3  4  1  0  0  0  0
  4  5  1  0  0  0  0
  5  6  1  0  0  0  0
  6  7  1  0  0  0  0
  6  8  1  6  0  0  0
  8  9  2  0  0  0  0
  8 11  1  0  0  0  0
  9 10  1  0  0  0  0
 10 12  1  0  0  0  0
 11 13  1  0  0  0  0
 11 14  1  0  0  0  0
M  END
>  <CHROM.0>
-58.35140651,-63.31131789,-65.85144055,-47.21530414,-175.07139531,-60.86186670
-68.60183268,-174.80300693,-168.24515673

>  <CHROM.1>
94.89322842,134.69280547,81.36820327,5.01530660,17.59264459,3.46572688,-0.07148750
-0.15004952,-1.37167107

>  <Name>
P109018549

>  <RI>
1.00763e+07

>  <Rbt.Current_Directory>
/home/fstefaniak/projects/zuza/docking/adenine/4XNR

>  <Rbt.Executable>
rbdock ($Id: //depot/dev/client3/rdock/2013.1/src/exe/rbdock.cxx#4 $)

>  <Rbt.Library>
libRbt.so (2013.1, Build901 2013/11/27)

>  <Rbt.Parameter_File>
/home/fstefaniak/progs/rDock//data/scripts/dock_solv.prm

>  <Rbt.Receptor>
4xnr.prm

>  <SCORE>
-45.9336

>  <SCORE.INTER>
-24.7708

>  <SCORE.INTER.CONST>
1

>  <SCORE.INTER.POLAR>
-2.75228

>  <SCORE.INTER.ROT>
2

>  <SCORE.INTER.SOLV>
11.5065

>  <SCORE.INTER.VDW>
-16.1085

>  <SCORE.INTER.norm>
-2.25189

>  <SCORE.INTRA>
-0.26272

>  <SCORE.INTRA.DIHEDRAL>
-1.93044

>  <SCORE.INTRA.DIHEDRAL.0>
3.45321

>  <SCORE.INTRA.POLAR>
0.134359

>  <SCORE.INTRA.POLAR.0>
-0.134359

>  <SCORE.INTRA.REPUL>
0

>  <SCORE.INTRA.REPUL.0>
0

>  <SCORE.INTRA.SOLV>
0.0282578

>  <SCORE.INTRA.SOLV.lig_0>
-10.3546

>  <SCORE.INTRA.VDW>
0.231552

>  <SCORE.INTRA.VDW.0>
-0.89227

>  <SCORE.INTRA.norm>
-0.0238837

>  <SCORE.RESTR>
0

>  <SCORE.RESTR.CAVITY>
0

>  <SCORE.RESTR.norm>
0

>  <SCORE.SYSTEM>
-20.9

>  <SCORE.SYSTEM.CONST>
0

>  <SCORE.SYSTEM.DIHEDRAL>
4.28999

>  <SCORE.SYSTEM.POLAR>
-2.98154

>  <SCORE.SYSTEM.SOLV>
-0.0260393

>  <SCORE.SYSTEM.VDW>
-5.41621

>  <SCORE.SYSTEM.norm>
-1.9

>  <SCORE.heavy>
11

>  <SCORE.norm>
-4.17578

$$$$
P109018549
 OpenBabel12072022113D
libRbt.so/2013.1/901 2013/11/27
 14 14  0  0  0  0  0  0  0  0999 V2000
    6.6321   18.2715    1.7326 C   0  0  0  0  0  0  0  0  0  0  0  0
    7.0471   17.4582    2.8709 N   0  0  0  0  0  0  0  0  0  0  0  0
    7.3894   18.2754    4.0349 C   0  0  0  0  0  0  0  0  0  0  0  0
    6.1730   18.7886    4.8026 C   0  0  0  0  0  0  0  0  0  0  0  0
    5.3113   17.6313    5.2877 C   0  0  0  0  0  0  0  0  0  0  0  0
    4.9425   16.6621    4.1626 C   0  0  2  0  0  0  0  0  0  0  0  0
    6.1006   16.3775    3.1882 C   0  0  0  0  0  0  0  0  0  0  0  0
    3.6241   17.0580    3.4927 C   0  0  0  0  0  0  0  0  0  0  0  0
    3.6229   17.8686    2.4769 N   0  0  0  0  0  0  0  0  0  0  0  0
    2.3125   18.1328    2.0455 O   0  0  0  0  0  0  0  0  0  0  0  0
    2.4650   16.5560    4.0357 N   0  0  0  0  0  0  0  0  0  0  0  0
    2.0395   18.8442    2.6543 H   0  0  0  0  0  0  0  0  0  0  0  0
    2.0238   15.9077    3.3877 H   0  0  0  0  0  0  0  0  0  0  0  0
    1.8232   17.2303    4.4328 H   0  0  0  0  0  0  0  0  0  0  0  0
  1  2  1  0  0  0  0
  2  3  1  0  0  0  0
  2  7  1  0  0  0  0
  3  4  1  0  0  0  0
  4  5  1  0  0  0  0
  5  6  1  0  0  0  0
  6  7  1  0  0  0  0
  6  8  1  6  0  0  0
  8  9  2  0  0  0  0
  8 11  1  0  0  0  0
  9 10  1  0  0  0  0
 10 12  1  0  0  0  0
 11 13  1  0  0  0  0
 11 14  1  0  0  0  0
M  END
>  <CHROM.0>
-58.93233878,76.80799752,-64.32789586,-46.79431062,-56.17194203,-62.13094352
-70.67807350,-61.74571142,-168.20690896

>  <CHROM.1>
89.68969306,-113.19735854,83.29079865,4.99192451,17.57242044,3.43325590,-0.09208536
-0.15527162,-1.34183944

>  <Name>
P109018549

>  <RI>
1.00763e+07

>  <Rbt.Current_Directory>
/home/fstefaniak/projects/zuza/docking/adenine/4XNR

>  <Rbt.Executable>
rbdock ($Id: //depot/dev/client3/rdock/2013.1/src/exe/rbdock.cxx#4 $)

>  <Rbt.Library>
libRbt.so (2013.1, Build901 2013/11/27)

>  <Rbt.Parameter_File>
/home/fstefaniak/progs/rDock//data/scripts/dock_solv.prm

>  <Rbt.Receptor>
4xnr.prm

>  <SCORE>
-45.4393

>  <SCORE.INTER>
-25.8889

>  <SCORE.INTER.CONST>
1

>  <SCORE.INTER.POLAR>
-2.80121

>  <SCORE.INTER.ROT>
2

>  <SCORE.INTER.SOLV>
11.2516

>  <SCORE.INTER.VDW>
-16.6057

>  <SCORE.INTER.norm>
-2.35353

>  <SCORE.INTRA>
-0.491667

>  <SCORE.INTRA.DIHEDRAL>
-1.94325

>  <SCORE.INTRA.DIHEDRAL.0>
3.45321

>  <SCORE.INTRA.POLAR>
0.134359

>  <SCORE.INTRA.POLAR.0>
-0.134359

>  <SCORE.INTRA.REPUL>
0

>  <SCORE.INTRA.REPUL.0>
0

>  <SCORE.INTRA.SOLV>
0.0707149

>  <SCORE.INTRA.SOLV.lig_0>
-10.3546

>  <SCORE.INTRA.VDW>
-0.0122198

>  <SCORE.INTRA.VDW.0>
-0.89227

>  <SCORE.INTRA.norm>
-0.044697

>  <SCORE.RESTR>
0

>  <SCORE.RESTR.CAVITY>
0

>  <SCORE.RESTR.norm>
0

>  <SCORE.SYSTEM>
-19.0588

>  <SCORE.SYSTEM.CONST>
0

>  <SCORE.SYSTEM.DIHEDRAL>
5.53169

>  <SCORE.SYSTEM.POLAR>
-2.99256

>  <SCORE.SYSTEM.SOLV>
0.290675

>  <SCORE.SYSTEM.VDW>
-4.67145

>  <SCORE.SYSTEM.norm>
-1.73262

>  <SCORE.heavy>
11

>  <SCORE.norm>
-4.13085

$$$$
P109018549
 OpenBabel12072022113D
libRbt.so/2013.1/901 2013/11/27
 14 14  0  0  0  0  0  0  0  0999 V2000
    6.5613   18.2732    1.7205 C   0  0  0  0  0  0  0  0  0  0  0  0
    7.0077   17.4966    2.8725 N   0  0  0  0  0  0  0  0  0  0  0  0
    7.3172   18.3465    4.0221 C   0  0  0  0  0  0  0  0  0  0  0  0
    6.0814   18.8245    4.7813 C   0  0  0  0  0  0  0  0  0  0  0  0
    5.2658   17.6427    5.2867 C   0  0  0  0  0  0  0  0  0  0  0  0
    4.9358   16.6404    4.1786 C   0  0  2  0  0  0  0  0  0  0  0  0
    6.1045   16.3850    3.2087 C   0  0  0  0  0  0  0  0  0  0  0  0
    3.6030   16.9726    3.5025 C   0  0  0  0  0  0  0  0  0  0  0  0
    3.5589   17.8306    2.5275 N   0  0  0  0  0  0  0  0  0  0  0  0
    2.2398   18.0201    2.0832 O   0  0  0  0  0  0  0  0  0  0  0  0
    2.4752   16.3612    3.9972 N   0  0  0  0  0  0  0  0  0  0  0  0
    1.9617   18.7971    2.6032 H   0  0  0  0  0  0  0  0  0  0  0  0
    1.6411   16.7749    3.5874 H   0  0  0  0  0  0  0  0  0  0  0  0
    2.4224   16.2562    5.0024 H   0  0  0  0  0  0  0  0  0  0  0  0
  1  2  1  0  0  0  0
  2  3  1  0  0  0  0
  2  7  1  0  0  0  0
  3  4  1  0  0  0  0
  4  5  1  0  0  0  0
  5  6  1  0  0  0  0
  6  7  1  0  0  0  0
  6  8  1  6  0  0  0
  8  9  2  0  0  0  0
  8 11  1  0  0  0  0
  9 10  1  0  0  0  0
 10 12  1  0  0  0  0
 11 13  1  0  0  0  0
 11 14  1  0  0  0  0
M  END
>  <CHROM.0>
-57.21312916,-62.49980480,-62.18690555,-45.40421267,-57.72966722,-61.87157215
-65.62242533,-57.55213314,-167.99694294

>  <CHROM.1>
85.28886460,170.04400463,93.86985964,4.94982596,17.54572104,3.44251998,-0.07073962
-0.19048286,-1.32336998

>  <Name>
P109018549

>  <RI>
1.00763e+07

>  <Rbt.Current_Directory>
/home/fstefaniak/projects/zuza/docking/adenine/4XNR

>  <Rbt.Executable>
rbdock ($Id: //depot/dev/client3/rdock/2013.1/src/exe/rbdock.cxx#4 $)

>  <Rbt.Library>
libRbt.so (2013.1, Build901 2013/11/27)

>  <Rbt.Parameter_File>
/home/fstefaniak/progs/rDock//data/scripts/dock_solv.prm

>  <Rbt.Receptor>
4xnr.prm

>  <SCORE>
-44.7647

>  <SCORE.INTER>
-23.3222

>  <SCORE.INTER.CONST>
1

>  <SCORE.INTER.POLAR>
-2.2466

>  <SCORE.INTER.ROT>
2

>  <SCORE.INTER.SOLV>
11.2043

>  <SCORE.INTER.VDW>
-16.7276

>  <SCORE.INTER.norm>
-2.1202

>  <SCORE.INTRA>
-0.677638

>  <SCORE.INTRA.DIHEDRAL>
-1.97633

>  <SCORE.INTRA.DIHEDRAL.0>
3.45321

>  <SCORE.INTRA.POLAR>
0.10251

>  <SCORE.INTRA.POLAR.0>
-0.134359

>  <SCORE.INTRA.REPUL>
0

>  <SCORE.INTRA.REPUL.0>
0

>  <SCORE.INTRA.SOLV>
0.0313955

>  <SCORE.INTRA.SOLV.lig_0>
-10.3546

>  <SCORE.INTRA.VDW>
-0.0537072

>  <SCORE.INTRA.VDW.0>
-0.89227

>  <SCORE.INTRA.norm>
-0.0616035

>  <SCORE.RESTR>
0

>  <SCORE.RESTR.CAVITY>
0

>  <SCORE.RESTR.norm>
0

>  <SCORE.SYSTEM>
-20.7648

>  <SCORE.SYSTEM.CONST>
0

>  <SCORE.SYSTEM.DIHEDRAL>
4.04332

>  <SCORE.SYSTEM.POLAR>
-3.03062

>  <SCORE.SYSTEM.SOLV>
0.30616

>  <SCORE.SYSTEM.VDW>
-5.19098

>  <SCORE.SYSTEM.norm>
-1.88771

>  <SCORE.heavy>
11

>  <SCORE.norm>
-4.06952

$$$$
P109018794
 OpenBabel12072022113D
libRbt.so/2013.1/901 2013/11/27
 14 14  0  0  0  0  0  0  0  0999 V2000
    2.4317   11.3806    4.4446 C   0  0  0  0  0  0  0  0  0  0  0  0
    2.5299   12.3903    3.3942 N   0  0  0  0  0  0  0  0  0  0  0  0
    1.2723   13.1177    3.1892 C   0  0  0  0  0  0  0  0  0  0  0  0
    0.9170   14.0721    4.3293 C   0  0  0  0  0  0  0  0  0  0  0  0
    2.0542   15.0462    4.6550 C   0  0  0  0  0  0  0  0  0  0  0  0
    3.4141   14.3441    4.7230 C   0  0  0  0  0  0  0  0  0  0  0  0
    3.6422   13.3171    3.6083 C   0  0  0  0  0  0  0  0  0  0  0  0
    1.9904   16.2618    3.7227 C   0  0  0  0  0  0  0  0  0  0  0  0
    3.1066   16.6345    3.1631 N   0  0  0  0  0  0  0  0  0  0  0  0
    2.9044   17.7533    2.3370 O   0  0  0  0  0  0  0  0  0  0  0  0
    0.8139   16.9366    3.5236 N   0  0  0  0  0  0  0  0  0  0  0  0
    2.9461   18.4870    2.9786 H   0  0  0  0  0  0  0  0  0  0  0  0
    0.4665   16.9716    2.5754 H   0  0  0  0  0  0  0  0  0  0  0  0
    0.8786   17.8628    3.9405 H   0  0  0  0  0  0  0  0  0  0  0  0
  1  2  1  0  0  0  0
  2  3  1  0  0  0  0
  2  7  1  0  0  0  0
  3  4  1  0  0  0  0
  4  5  1  0  0  0  0
  5  6  1  0  0  0  0
  5  8  1  0  0  0  0
  6  7  1  0  0  0  0
  8  9  2  0  0  0  0
  8 11  1  0  0  0  0
  9 10  1  0  0  0  0
 10 12  1  0  0  0  0
 11 13  1  0  0  0  0
 11 14  1  0  0  0  0
M  END
>  <CHROM.0>
-58.54234916,-66.36823305,-65.09077664,-46.61521619,-176.84596688,-61.78393392
-69.22218221,-173.18876261,-166.77519254

>  <CHROM.1>
-132.95278680,-119.87278138,83.44838949,2.27737391,14.71389252,3.70589933
-1.53776180,0.13656648,-0.19301245

>  <Name>
P109018794

>  <RI>
3.02409e+07

>  <Rbt.Current_Directory>
/home/fstefaniak/projects/zuza/docking/adenine/4XNR

>  <Rbt.Executable>
rbdock ($Id: //depot/dev/client3/rdock/2013.1/src/exe/rbdock.cxx#4 $)

>  <Rbt.Library>
libRbt.so (2013.1, Build901 2013/11/27)

>  <Rbt.Parameter_File>
/home/fstefaniak/progs/rDock//data/scripts/dock_solv.prm

>  <Rbt.Receptor>
4xnr.prm

>  <SCORE>
-44.0119

>  <SCORE.INTER>
-23.4092

>  <SCORE.INTER.CONST>
1

>  <SCORE.INTER.POLAR>
-3.30208

>  <SCORE.INTER.ROT>
2

>  <SCORE.INTER.SOLV>
7.93572

>  <SCORE.INTER.VDW>
-12.1777

>  <SCORE.INTER.norm>
-2.12811

>  <SCORE.INTRA>
0.0594381

>  <SCORE.INTRA.DIHEDRAL>
-1.96429

>  <SCORE.INTRA.DIHEDRAL.0>
3.4968

>  <SCORE.INTRA.POLAR>
0.172368

>  <SCORE.INTRA.POLAR.0>
-0.172368

>  <SCORE.INTRA.REPUL>
0

>  <SCORE.INTRA.REPUL.0>
0

>  <SCORE.INTRA.SOLV>
-0.286901

>  <SCORE.INTRA.SOLV.lig_0>
-10.1918

>  <SCORE.INTRA.VDW>
0.598983

>  <SCORE.INTRA.VDW.0>
-0.866341

>  <SCORE.INTRA.norm>
0.00540346

>  <SCORE.RESTR>
0.124356

>  <SCORE.RESTR.CAVITY>
0.124356

>  <SCORE.RESTR.norm>
0.0113051

>  <SCORE.SYSTEM>
-20.7866

>  <SCORE.SYSTEM.CONST>
0

>  <SCORE.SYSTEM.DIHEDRAL>
4.69653

>  <SCORE.SYSTEM.POLAR>
-2.99079

>  <SCORE.SYSTEM.SOLV>
-0.0302774

>  <SCORE.SYSTEM.VDW>
-5.44383

>  <SCORE.SYSTEM.norm>
-1.88969

>  <SCORE.heavy>
11

>  <SCORE.norm>
-4.00108

$$$$
P109018794
 OpenBabel12072022113D
libRbt.so/2013.1/901 2013/11/27
 14 14  0  0  0  0  0  0  0  0999 V2000
    4.6775   17.5069    1.9711 C   0  0  0  0  0  0  0  0  0  0  0  0
    5.7876   17.0592    2.8076 N   0  0  0  0  0  0  0  0  0  0  0  0
    6.8565   18.0589    2.9119 C   0  0  0  0  0  0  0  0  0  0  0  0
    6.4793   19.2829    3.7463 C   0  0  0  0  0  0  0  0  0  0  0  0
    5.9578   18.9068    5.1373 C   0  0  0  0  0  0  0  0  0  0  0  0
    4.9504   17.7539    5.0839 C   0  0  0  0  0  0  0  0  0  0  0  0
    5.3502   16.6198    4.1334 C   0  0  0  0  0  0  0  0  0  0  0  0
    7.1311   18.7074    6.1040 C   0  0  0  0  0  0  0  0  0  0  0  0
    8.3302   18.8191    5.6063 N   0  0  0  0  0  0  0  0  0  0  0  0
    9.3056   18.6155    6.5974 O   0  0  0  0  0  0  0  0  0  0  0  0
    6.9143   18.3926    7.4204 N   0  0  0  0  0  0  0  0  0  0  0  0
    9.0693   17.7306    6.9332 H   0  0  0  0  0  0  0  0  0  0  0  0
    7.1951   19.0823    8.1034 H   0  0  0  0  0  0  0  0  0  0  0  0
    7.3087   17.4758    7.6200 H   0  0  0  0  0  0  0  0  0  0  0  0
  1  2  1  0  0  0  0
  2  3  1  0  0  0  0
  2  7  1  0  0  0  0
  3  4  1  0  0  0  0
  4  5  1  0  0  0  0
  5  6  1  0  0  0  0
  5  8  1  0  0  0  0
  6  7  1  0  0  0  0
  8  9  2  0  0  0  0
  8 11  1  0  0  0  0
  9 10  1  0  0  0  0
 10 12  1  0  0  0  0
 11 13  1  0  0  0  0
 11 14  1  0  0  0  0
M  END
>  <CHROM.0>
-57.49279600,-64.82784700,-62.07761592,-49.05227392,-58.15324429,-62.88059270
-68.13994687,-58.93991968,-168.03502868

>  <CHROM.1>
-3.04511748,-114.62687949,56.42111820,6.56628822,18.14523021,4.72404948,-2.23613762
0.35740513,1.53708309

>  <Name>
P109018794

>  <RI>
3.02409e+07

>  <Rbt.Current_Directory>
/home/fstefaniak/projects/zuza/docking/adenine/4XNR

>  <Rbt.Executable>
rbdock ($Id: //depot/dev/client3/rdock/2013.1/src/exe/rbdock.cxx#4 $)

>  <Rbt.Library>
libRbt.so (2013.1, Build901 2013/11/27)

>  <Rbt.Parameter_File>
/home/fstefaniak/progs/rDock//data/scripts/dock_solv.prm

>  <Rbt.Receptor>
4xnr.prm

>  <SCORE>
-43.7062

>  <SCORE.INTER>
-24.5772

>  <SCORE.INTER.CONST>
1

>  <SCORE.INTER.POLAR>
-4.07062

>  <SCORE.INTER.ROT>
2

>  <SCORE.INTER.SOLV>
12.7959

>  <SCORE.INTER.VDW>
-12.0147

>  <SCORE.INTER.norm>
-2.23429

>  <SCORE.INTRA>
1.72051

>  <SCORE.INTRA.DIHEDRAL>
-1.36525

>  <SCORE.INTRA.DIHEDRAL.0>
3.4968

>  <SCORE.INTRA.POLAR>
0.172368

>  <SCORE.INTRA.POLAR.0>
-0.172368

>  <SCORE.INTRA.REPUL>
0

>  <SCORE.INTRA.REPUL.0>
0

>  <SCORE.INTRA.SOLV>
-0.255819

>  <SCORE.INTRA.SOLV.lig_0>
-10.1918

>  <SCORE.INTRA.VDW>
1.94499

>  <SCORE.INTRA.VDW.0>
-0.866341

>  <SCORE.INTRA.norm>
0.15641

>  <SCORE.RESTR>
0

>  <SCORE.RESTR.CAVITY>
0

>  <SCORE.RESTR.norm>
0

>  <SCORE.SYSTEM>
-20.8495

>  <SCORE.SYSTEM.CONST>
0

>  <SCORE.SYSTEM.DIHEDRAL>
3.84465

>  <SCORE.SYSTEM.POLAR>
-2.96539

>  <SCORE.SYSTEM.SOLV>
0.285848

>  <SCORE.SYSTEM.VDW>
-5.39186

>  <SCORE.SYSTEM.norm>
-1.89541

>  <SCORE.heavy>
11

>  <SCORE.norm>
-3.97329

$$$$
P109018794
 OpenBabel12072022113D
libRbt.so/2013.1/901 2013/11/27
 14 14  0  0  0  0  0  0  0  0999 V2000
    4.5392   17.2290    2.3885 C   0  0  0  0  0  0  0  0  0  0  0  0
    5.6894   16.8772    3.2167 N   0  0  0  0  0  0  0  0  0  0  0  0
    6.7765   17.8580    3.1213 C   0  0  0  0  0  0  0  0  0  0  0  0
    6.4653   19.1936    3.7964 C   0  0  0  0  0  0  0  0  0  0  0  0
    6.0198   19.0252    5.2530 C   0  0  0  0  0  0  0  0  0  0  0  0
    4.9949   17.8984    5.4166 C   0  0  0  0  0  0  0  0  0  0  0  0
    5.3231   16.6352    4.6128 C   0  0  0  0  0  0  0  0  0  0  0  0
    7.2440   18.9359    6.1717 C   0  0  0  0  0  0  0  0  0  0  0  0
    8.3903   19.2883    5.6620 N   0  0  0  0  0  0  0  0  0  0  0  0
    9.4210   19.1600    6.6088 O   0  0  0  0  0  0  0  0  0  0  0  0
    7.1289   18.4722    7.4566 N   0  0  0  0  0  0  0  0  0  0  0  0
    9.2825   19.9495    7.1649 H   0  0  0  0  0  0  0  0  0  0  0  0
    7.4311   19.0957    8.1921 H   0  0  0  0  0  0  0  0  0  0  0  0
    7.5683   17.5569    7.5282 H   0  0  0  0  0  0  0  0  0  0  0  0
  1  2  1  0  0  0  0
  2  3  1  0  0  0  0
  2  7  1  0  0  0  0
  3  4  1  0  0  0  0
  4  5  1  0  0  0  0
  5  6  1  0  0  0  0
  5  8  1  0  0  0  0
  6  7  1  0  0  0  0
  8  9  2  0  0  0  0
  8 11  1  0  0  0  0
  9 10  1  0  0  0  0
 10 12  1  0  0  0  0
 11 13  1  0  0  0  0
 11 14  1  0  0  0  0
M  END
>  <CHROM.0>
-64.33078552,-63.04606446,-67.03423671,-44.28011974,-62.07306841,-64.82375507
-67.99560356,-58.33611137,-167.95489896

>  <CHROM.1>
13.97077469,-122.18840939,-77.20186071,6.59199796,18.23720683,4.92159230
-2.36215958,0.48887377,1.53090244

>  <Name>
P109018794

>  <RI>
3.02409e+07

>  <Rbt.Current_Directory>
/home/fstefaniak/projects/zuza/docking/adenine/4XNR

>  <Rbt.Executable>
rbdock ($Id: //depot/dev/client3/rdock/2013.1/src/exe/rbdock.cxx#4 $)

>  <Rbt.Library>
libRbt.so (2013.1, Build901 2013/11/27)

>  <Rbt.Parameter_File>
/home/fstefaniak/progs/rDock//data/scripts/dock_solv.prm

>  <Rbt.Receptor>
4xnr.prm

>  <SCORE>
-43.4579

>  <SCORE.INTER>
-23.3261

>  <SCORE.INTER.CONST>
1

>  <SCORE.INTER.POLAR>
-3.37575

>  <SCORE.INTER.ROT>
2

>  <SCORE.INTER.SOLV>
12.8328

>  <SCORE.INTER.VDW>
-13.5092

>  <SCORE.INTER.norm>
-2.12056

>  <SCORE.INTRA>
0.743013

>  <SCORE.INTRA.DIHEDRAL>
-1.83497

>  <SCORE.INTRA.DIHEDRAL.0>
3.4968

>  <SCORE.INTRA.POLAR>
0.172368

>  <SCORE.INTRA.POLAR.0>
-0.172368

>  <SCORE.INTRA.REPUL>
0

>  <SCORE.INTRA.REPUL.0>
0

>  <SCORE.INTRA.SOLV>
-0.242096

>  <SCORE.INTRA.SOLV.lig_0>
-10.1918

>  <SCORE.INTRA.VDW>
1.1955

>  <SCORE.INTRA.VDW.0>
-0.866341

>  <SCORE.INTRA.norm>
0.0675466

>  <SCORE.RESTR>
0

>  <SCORE.RESTR.CAVITY>
0

>  <SCORE.RESTR.norm>
0

>  <SCORE.SYSTEM>
-20.8748

>  <SCORE.SYSTEM.CONST>
0

>  <SCORE.SYSTEM.DIHEDRAL>
4.67664

>  <SCORE.SYSTEM.POLAR>
-2.99533

>  <SCORE.SYSTEM.SOLV>
0.268342

>  <SCORE.SYSTEM.VDW>
-5.58038

>  <SCORE.SYSTEM.norm>
-1.8977

>  <SCORE.heavy>
11

>  <SCORE.norm>
-3.95072

$$$$
P109049405
 OpenBabel12072022113D
libRbt.so/2013.1/901 2013/11/27
 14 14  0  0  0  0  0  0  0  0999 V2000
    6.9904   18.3381    1.8454 C   0  0  0  0  0  0  0  0  0  0  0  0
    5.9935   17.8717    2.8393 C   0  0  0  0  0  0  0  0  0  0  0  0
    5.0549   16.8638    2.7645 C   0  0  0  0  0  0  0  0  0  0  0  0
    4.4163   16.8633    4.0155 C   0  0  0  0  0  0  0  0  0  0  0  0
    4.9072   17.7925    4.8372 N   0  0  0  0  0  0  0  0  0  0  0  0
    5.8516   18.4155    4.0928 N   0  0  0  0  0  0  0  0  0  0  0  0
    6.5907   19.5190    4.6809 C   0  0  0  0  0  0  0  0  0  0  0  0
    7.3376   19.0524    5.9160 C   0  0  0  0  0  0  0  0  0  0  0  0
    8.6362   19.1552    5.9200 N   0  0  0  0  0  0  0  0  0  0  0  0
    9.1683   18.6509    7.1181 O   0  0  0  0  0  0  0  0  0  0  0  0
    6.6105   18.5307    6.9634 N   0  0  0  0  0  0  0  0  0  0  0  0
    9.0270   17.6909    7.0187 H   0  0  0  0  0  0  0  0  0  0  0  0
    6.6851   17.5168    7.0585 H   0  0  0  0  0  0  0  0  0  0  0  0
    6.8018   19.0311    7.8264 H   0  0  0  0  0  0  0  0  0  0  0  0
  1  2  1  0  0  0  0
  2  3  2  0  0  0  0
  2  6  1  0  0  0  0
  3  4  1  0  0  0  0
  4  5  2  0  0  0  0
  5  6  1  0  0  0  0
  6  7  1  0  0  0  0
  7  8  1  0  0  0  0
  8  9  2  0  0  0  0
  8 11  1  0  0  0  0
  9 10  1  0  0  0  0
 10 12  1  0  0  0  0
 11 13  1  0  0  0  0
 11 14  1  0  0  0  0
M  END
>  <CHROM.0>
-47.33622520,-174.98778762,-66.21777517,-45.40917791,-58.30939036,-59.65381077
-66.52978064,-59.05825922,-167.65249361

>  <CHROM.1>
-118.87657040,119.33481894,106.12461837,71.07010175,6.58099449,18.29241835
4.72416362,-2.27751390,0.41661288,1.55312642

>  <Name>
P109049405

>  <RI>
3.02409e+07

>  <Rbt.Current_Directory>
/home/fstefaniak/projects/zuza/docking/adenine/4XNR

>  <Rbt.Executable>
rbdock ($Id: //depot/dev/client3/rdock/2013.1/src/exe/rbdock.cxx#4 $)

>  <Rbt.Library>
libRbt.so (2013.1, Build901 2013/11/27)

>  <Rbt.Parameter_File>
/home/fstefaniak/progs/rDock//data/scripts/dock_solv.prm

>  <Rbt.Receptor>
4xnr.prm

>  <SCORE>
-58.804

>  <SCORE.INTER>
-38.6227

>  <SCORE.INTER.CONST>
1

>  <SCORE.INTER.POLAR>
-5.10301

>  <SCORE.INTER.ROT>
3

>  <SCORE.INTER.SOLV>
12.3349

>  <SCORE.INTER.VDW>
-18.4501

>  <SCORE.INTER.norm>
-3.51116

>  <SCORE.INTRA>
0.173568

>  <SCORE.INTRA.DIHEDRAL>
-1.83066

>  <SCORE.INTRA.DIHEDRAL.0>
6.26301

>  <SCORE.INTRA.POLAR>
0.216212

>  <SCORE.INTRA.POLAR.0>
-0.216212

>  <SCORE.INTRA.REPUL>
0.017221

>  <SCORE.INTRA.REPUL.0>
0

>  <SCORE.INTRA.SOLV>
0.0655598

>  <SCORE.INTRA.SOLV.lig_0>
-11.4521

>  <SCORE.INTRA.VDW>
0.234894

>  <SCORE.INTRA.VDW.0>
-1.19659

>  <SCORE.INTRA.norm>
0.0157789

>  <SCORE.RESTR>
0

>  <SCORE.RESTR.CAVITY>
0

>  <SCORE.RESTR.norm>
0

>  <SCORE.SYSTEM>
-20.3549

>  <SCORE.SYSTEM.CONST>
0

>  <SCORE.SYSTEM.DIHEDRAL>
4.9944

>  <SCORE.SYSTEM.POLAR>
-3.10965

>  <SCORE.SYSTEM.SOLV>
0.289078

>  <SCORE.SYSTEM.VDW>
-4.96559

>  <SCORE.SYSTEM.norm>
-1.85044

>  <SCORE.heavy>
11

>  <SCORE.norm>
-5.34582

$$$$
P109049405
 OpenBabel12072022113D
libRbt.so/2013.1/901 2013/11/27
 14 14  0  0  0  0  0  0  0  0999 V2000
    4.9848   17.1277    4.8454 C   0  0  0  0  0  0  0  0  0  0  0  0
    5.7453   17.7685    3.7453 C   0  0  0  0  0  0  0  0  0  0  0  0
    5.9727   17.3527    2.4500 C   0  0  0  0  0  0  0  0  0  0  0  0
    6.7316   18.3785    1.8630 C   0  0  0  0  0  0  0  0  0  0  0  0
    6.9706   19.3817    2.7091 N   0  0  0  0  0  0  0  0  0  0  0  0
    6.3828   18.9798    3.8611 N   0  0  0  0  0  0  0  0  0  0  0  0
    6.4660   19.8420    5.0271 C   0  0  0  0  0  0  0  0  0  0  0  0
    7.3084   19.1878    6.1056 C   0  0  0  0  0  0  0  0  0  0  0  0
    8.6037   19.2139    5.9692 N   0  0  0  0  0  0  0  0  0  0  0  0
    9.2264   18.5393    7.0322 O   0  0  0  0  0  0  0  0  0  0  0  0
    6.6650   18.5869    7.1652 N   0  0  0  0  0  0  0  0  0  0  0  0
    9.0381   17.6055    6.8226 H   0  0  0  0  0  0  0  0  0  0  0  0
    6.7711   17.5718    7.1961 H   0  0  0  0  0  0  0  0  0  0  0  0
    6.9000   19.0430    8.0419 H   0  0  0  0  0  0  0  0  0  0  0  0
  1  2  1  0  0  0  0
  2  3  2  0  0  0  0
  2  6  1  0  0  0  0
  3  4  1  0  0  0  0
  4  5  2  0  0  0  0
  5  6  1  0  0  0  0
  6  7  1  0  0  0  0
  7  8  1  0  0  0  0
  8  9  2  0  0  0  0
  8 11  1  0  0  0  0
  9 10  1  0  0  0  0
 10 12  1  0  0  0  0
 11 13  1  0  0  0  0
 11 14  1  0  0  0  0
M  END
>  <CHROM.0>
-50.82632972,-65.18208989,-65.74856873,-48.21199573,-173.95369870,-67.23197618
-68.32556617,-59.05488507,-167.84656619

>  <CHROM.1>
67.97512566,77.60993556,112.99334529,73.28141465,6.87051235,18.56988171,4.72577648
2.11050443,-0.53835114,-1.44412087

>  <Name>
P109049405

>  <RI>
3.02409e+07

>  <Rbt.Current_Directory>
/home/fstefaniak/projects/zuza/docking/adenine/4XNR

>  <Rbt.Executable>
rbdock ($Id: //depot/dev/client3/rdock/2013.1/src/exe/rbdock.cxx#4 $)

>  <Rbt.Library>
libRbt.so (2013.1, Build901 2013/11/27)

>  <Rbt.Parameter_File>
/home/fstefaniak/progs/rDock//data/scripts/dock_solv.prm

>  <Rbt.Receptor>
4xnr.prm

>  <SCORE>
-57.5639

>  <SCORE.INTER>
-36.6589

>  <SCORE.INTER.CONST>
1

>  <SCORE.INTER.POLAR>
-5.15025

>  <SCORE.INTER.ROT>
3

>  <SCORE.INTER.SOLV>
13.1055

>  <SCORE.INTER.VDW>
-17.2403

>  <SCORE.INTER.norm>
-3.33263

>  <SCORE.INTRA>
-0.112836

>  <SCORE.INTRA.DIHEDRAL>
-1.92324

>  <SCORE.INTRA.DIHEDRAL.0>
6.26301

>  <SCORE.INTRA.POLAR>
0.216212

>  <SCORE.INTRA.POLAR.0>
-0.216212

>  <SCORE.INTRA.REPUL>
0

>  <SCORE.INTRA.REPUL.0>
0

>  <SCORE.INTRA.SOLV>
0.110086

>  <SCORE.INTRA.SOLV.lig_0>
-11.4521

>  <SCORE.INTRA.VDW>
0.0586207

>  <SCORE.INTRA.VDW.0>
-1.19659

>  <SCORE.INTRA.norm>
-0.0102579

>  <SCORE.RESTR>
0

>  <SCORE.RESTR.CAVITY>
0

>  <SCORE.RESTR.norm>
0

>  <SCORE.SYSTEM>
-20.7922

>  <SCORE.SYSTEM.CONST>
0

>  <SCORE.SYSTEM.DIHEDRAL>
4.80552

>  <SCORE.SYSTEM.POLAR>
-3.03283

>  <SCORE.SYSTEM.SOLV>
0.104316

>  <SCORE.SYSTEM.VDW>
-5.38864

>  <SCORE.SYSTEM.norm>
-1.8902

>  <SCORE.heavy>
11

>  <SCORE.norm>
-5.23308

$$$$
P109049405
 OpenBabel12072022113D
libRbt.so/2013.1/901 2013/11/27
 14 14  0  0  0  0  0  0  0  0999 V2000
    5.0275   17.0375    4.7932 C   0  0  0  0  0  0  0  0  0  0  0  0
    5.7766   17.7292    3.7164 C   0  0  0  0  0  0  0  0  0  0  0  0
    6.0361   17.3490    2.4162 C   0  0  0  0  0  0  0  0  0  0  0  0
    6.7623   18.4148    1.8600 C   0  0  0  0  0  0  0  0  0  0  0  0
    6.9520   19.4089    2.7291 N   0  0  0  0  0  0  0  0  0  0  0  0
    6.3657   18.9613    3.8648 N   0  0  0  0  0  0  0  0  0  0  0  0
    6.4010   19.8021    5.0488 C   0  0  0  0  0  0  0  0  0  0  0  0
    7.2793   19.1735    6.1139 C   0  0  0  0  0  0  0  0  0  0  0  0
    8.5701   19.2123    5.9426 N   0  0  0  0  0  0  0  0  0  0  0  0
    9.2287   18.5605    6.9983 O   0  0  0  0  0  0  0  0  0  0  0  0
    6.6713   18.5811    7.1989 N   0  0  0  0  0  0  0  0  0  0  0  0
    9.0392   17.6221    6.8117 H   0  0  0  0  0  0  0  0  0  0  0  0
    6.7676   17.5650    7.2274 H   0  0  0  0  0  0  0  0  0  0  0  0
    6.9451   19.0359    8.0649 H   0  0  0  0  0  0  0  0  0  0  0  0
  1  2  1  0  0  0  0
  2  3  2  0  0  0  0
  2  6  1  0  0  0  0
  3  4  1  0  0  0  0
  4  5  2  0  0  0  0
  5  6  1  0  0  0  0
  6  7  1  0  0  0  0
  7  8  1  0  0  0  0
  8  9  2  0  0  0  0
  8 11  1  0  0  0  0
  9 10  1  0  0  0  0
 10 12  1  0  0  0  0
 11 13  1  0  0  0  0
 11 14  1  0  0  0  0
M  END
>  <CHROM.0>
-54.01376770,-63.17243519,-65.55344952,-45.83754903,-179.65450849,-63.35492686
-69.81544633,-61.48631014,-169.03347995

>  <CHROM.1>
69.23587946,73.99803031,111.35656203,72.80485321,6.87167336,18.55836723,4.71750617
2.10487447,-0.55970673,-1.44016051

>  <Name>
P109049405

>  <RI>
3.02409e+07

>  <Rbt.Current_Directory>
/home/fstefaniak/projects/zuza/docking/adenine/4XNR

>  <Rbt.Executable>
rbdock ($Id: //depot/dev/client3/rdock/2013.1/src/exe/rbdock.cxx#4 $)

>  <Rbt.Library>
libRbt.so (2013.1, Build901 2013/11/27)

>  <Rbt.Parameter_File>
/home/fstefaniak/progs/rDock//data/scripts/dock_solv.prm

>  <Rbt.Receptor>
4xnr.prm

>  <SCORE>
-57.5545

>  <SCORE.INTER>
-36.5206

>  <SCORE.INTER.CONST>
1

>  <SCORE.INTER.POLAR>
-5.12903

>  <SCORE.INTER.ROT>
3

>  <SCORE.INTER.SOLV>
13.1006

>  <SCORE.INTER.VDW>
-17.2172

>  <SCORE.INTER.norm>
-3.32005

>  <SCORE.INTRA>
-0.173307

>  <SCORE.INTRA.DIHEDRAL>
-1.91591

>  <SCORE.INTRA.DIHEDRAL.0>
6.26301

>  <SCORE.INTRA.POLAR>
0.216212

>  <SCORE.INTRA.POLAR.0>
-0.216212

>  <SCORE.INTRA.REPUL>
0

>  <SCORE.INTRA.REPUL.0>
0

>  <SCORE.INTRA.SOLV>
0.0830922

>  <SCORE.INTRA.SOLV.lig_0>
-11.4521

>  <SCORE.INTRA.VDW>
0.00798318

>  <SCORE.INTRA.VDW.0>
-1.19659

>  <SCORE.INTRA.norm>
-0.0157551

>  <SCORE.RESTR>
0

>  <SCORE.RESTR.CAVITY>
0

>  <SCORE.RESTR.norm>
0

>  <SCORE.SYSTEM>
-20.8606

>  <SCORE.SYSTEM.CONST>
0

>  <SCORE.SYSTEM.DIHEDRAL>
4.43426

>  <SCORE.SYSTEM.POLAR>
-3.02096

>  <SCORE.SYSTEM.SOLV>
0.109598

>  <SCORE.SYSTEM.VDW>
-5.35182

>  <SCORE.SYSTEM.norm>
-1.89642

>  <SCORE.heavy>
11

>  <SCORE.norm>
-5.23223

$$$$
P109615893
 OpenBabel12072022113D
libRbt.so/2013.1/901 2013/11/27
 14 14  0  0  0  0  0  0  0  0999 V2000
    1.2208   14.1301    3.9249 C   0  0  0  0  0  0  0  0  0  0  0  0
    2.2573   15.1562    3.9548 N   0  0  0  0  0  0  0  0  0  0  0  0
    3.5051   14.6348    3.3468 C   0  0  0  0  0  0  0  0  0  0  0  0
    4.5838   15.7264    3.3220 C   0  0  0  0  0  0  0  0  0  0  0  0
    5.1743   16.0439    2.2948 O   0  0  0  0  0  0  0  0  0  0  0  0
    4.7845   16.3290    4.5435 N   0  0  0  0  0  0  0  0  0  0  0  0
    5.7475   17.3851    4.8066 C   0  0  2  0  0  0  0  0  0  0  0  0
    5.4832   18.1102    6.1319 C   0  0  0  0  0  0  0  0  0  0  0  0
    6.4953   19.2341    6.3402 C   0  0  0  0  0  0  0  0  0  0  0  0
    6.5715   20.1325    5.1118 C   0  0  0  0  0  0  0  0  0  0  0  0
    6.8928   19.3680    3.9487 O   0  0  0  0  0  0  0  0  0  0  0  0
    5.8779   18.3998    3.6589 C   0  0  0  0  0  0  0  0  0  0  0  0
    2.4588   15.3838    4.9311 H   0  0  0  0  0  0  0  0  0  0  0  0
    4.2468   15.9309    5.3112 H   0  0  0  0  0  0  0  0  0  0  0  0
  1  2  1  0  0  0  0
  2  3  1  0  0  0  0
  2 13  1  0  0  0  0
  3  4  1  0  0  0  0
  4  5  2  0  0  0  0
  4  6  1  0  0  0  0
  6 14  1  0  0  0  0
  7  8  1  0  0  0  0
  7 12  1  0  0  0  0
  7  6  1  6  0  0  0
  8  9  1  0  0  0  0
  9 10  1  0  0  0  0
 10 11  1  0  0  0  0
 11 12  1  0  0  0  0
M  END
>  <CHROM.0>
-54.57047050,-57.33584657,-66.70346981,-46.67258370,-175.23189863,-60.66886445
-68.36213803,-59.89440684,-167.72148096

>  <CHROM.1>
177.69455810,-126.51843726,164.32654049,4.86861076,17.04956190,4.27139737
2.55639036,-0.71019801,-2.05251153

>  <Name>
P109615893

>  <RI>
3.4169e+07

>  <Rbt.Current_Directory>
/home/fstefaniak/projects/zuza/docking/adenine/4XNR

>  <Rbt.Executable>
rbdock ($Id: //depot/dev/client3/rdock/2013.1/src/exe/rbdock.cxx#4 $)

>  <Rbt.Library>
libRbt.so (2013.1, Build901 2013/11/27)

>  <Rbt.Parameter_File>
/home/fstefaniak/progs/rDock//data/scripts/dock_solv.prm

>  <Rbt.Receptor>
4xnr.prm

>  <SCORE>
-51.9843

>  <SCORE.INTER>
-32.9128

>  <SCORE.INTER.CONST>
1

>  <SCORE.INTER.POLAR>
-4.10817

>  <SCORE.INTER.ROT>
3

>  <SCORE.INTER.SOLV>
12.9071

>  <SCORE.INTER.VDW>
-18.1503

>  <SCORE.INTER.norm>
-2.74273

>  <SCORE.INTRA>
1.73205

>  <SCORE.INTRA.DIHEDRAL>
-0.096311

>  <SCORE.INTRA.DIHEDRAL.0>
2.54998

>  <SCORE.INTRA.POLAR>
0.192976

>  <SCORE.INTRA.POLAR.0>
-0.192976

>  <SCORE.INTRA.REPUL>
0

>  <SCORE.INTRA.REPUL.0>
0

>  <SCORE.INTRA.SOLV>
-0.204432

>  <SCORE.INTRA.SOLV.lig_0>
-14.5609

>  <SCORE.INTRA.VDW>
1.2263

>  <SCORE.INTRA.VDW.0>
-1.05684

>  <SCORE.INTRA.norm>
0.144337

>  <SCORE.RESTR>
0

>  <SCORE.RESTR.CAVITY>
0

>  <SCORE.RESTR.norm>
0

>  <SCORE.SYSTEM>
-20.8036

>  <SCORE.SYSTEM.CONST>
0

>  <SCORE.SYSTEM.DIHEDRAL>
4.40951

>  <SCORE.SYSTEM.POLAR>
-3.02216

>  <SCORE.SYSTEM.SOLV>
0.119784

>  <SCORE.SYSTEM.VDW>
-5.30495

>  <SCORE.SYSTEM.norm>
-1.73363

>  <SCORE.heavy>
12

>  <SCORE.norm>
-4.33202

$$$$
P109615893
 OpenBabel12072022113D
libRbt.so/2013.1/901 2013/11/27
 14 14  0  0  0  0  0  0  0  0999 V2000
    1.2406   14.1105    3.9659 C   0  0  0  0  0  0  0  0  0  0  0  0
    2.2616   15.1519    3.9302 N   0  0  0  0  0  0  0  0  0  0  0  0
    3.5182   14.6110    3.3585 C   0  0  0  0  0  0  0  0  0  0  0  0
    4.6043   15.6952    3.3350 C   0  0  0  0  0  0  0  0  0  0  0  0
    5.2143   15.9926    2.3132 O   0  0  0  0  0  0  0  0  0  0  0  0
    4.7883   16.3156    4.5502 N   0  0  0  0  0  0  0  0  0  0  0  0
    5.7537   17.3696    4.8131 C   0  0  2  0  0  0  0  0  0  0  0  0
    5.4854   18.1019    6.1337 C   0  0  0  0  0  0  0  0  0  0  0  0
    6.5004   19.2232    6.3417 C   0  0  0  0  0  0  0  0  0  0  0  0
    6.5858   20.1156    5.1095 C   0  0  0  0  0  0  0  0  0  0  0  0
    6.9101   19.3444    3.9516 O   0  0  0  0  0  0  0  0  0  0  0  0
    5.8932   18.3784    3.6613 C   0  0  0  0  0  0  0  0  0  0  0  0
    2.4578   15.4452    4.8899 H   0  0  0  0  0  0  0  0  0  0  0  0
    4.2351   15.9331    5.3147 H   0  0  0  0  0  0  0  0  0  0  0  0
  1  2  1  0  0  0  0
  2  3  1  0  0  0  0
  2 13  1  0  0  0  0
  3  4  1  0  0  0  0
  4  5  2  0  0  0  0
  4  6  1  0  0  0  0
  6 14  1  0  0  0  0
  7  8  1  0  0  0  0
  7 12  1  0  0  0  0
  7  6  1  6  0  0  0
  8  9  1  0  0  0  0
  9 10  1  0  0  0  0
 10 11  1  0  0  0  0
 11 12  1  0  0  0  0
M  END
>  <CHROM.0>
-56.59093209,-58.35127390,-69.19131834,-45.59711987,-55.22195205,-58.85744153
-65.12846061,-57.47263497,-166.96468685

>  <CHROM.1>
-179.22345857,-126.21741905,165.27977196,4.88222449,17.02984537,4.27790400
2.54638926,-0.70335104,-2.07007271

>  <Name>
P109615893

>  <RI>
3.4169e+07

>  <Rbt.Current_Directory>
/home/fstefaniak/projects/zuza/docking/adenine/4XNR

>  <Rbt.Executable>
rbdock ($Id: //depot/dev/client3/rdock/2013.1/src/exe/rbdock.cxx#4 $)

>  <Rbt.Library>
libRbt.so (2013.1, Build901 2013/11/27)

>  <Rbt.Parameter_File>
/home/fstefaniak/progs/rDock//data/scripts/dock_solv.prm

>  <Rbt.Receptor>
4xnr.prm

>  <SCORE>
-51.7768

>  <SCORE.INTER>
-32.9315

>  <SCORE.INTER.CONST>
1

>  <SCORE.INTER.POLAR>
-4.09578

>  <SCORE.INTER.ROT>
3

>  <SCORE.INTER.SOLV>
12.9299

>  <SCORE.INTER.VDW>
-18.2117

>  <SCORE.INTER.norm>
-2.74429

>  <SCORE.INTRA>
1.74561

>  <SCORE.INTRA.DIHEDRAL>
-0.110416

>  <SCORE.INTRA.DIHEDRAL.0>
2.54998

>  <SCORE.INTRA.POLAR>
0.192976

>  <SCORE.INTRA.POLAR.0>
-0.192976

>  <SCORE.INTRA.REPUL>
0

>  <SCORE.INTRA.REPUL.0>
0

>  <SCORE.INTRA.SOLV>
-0.201634

>  <SCORE.INTRA.SOLV.lig_0>
-14.5609

>  <SCORE.INTRA.VDW>
1.24551

>  <SCORE.INTRA.VDW.0>
-1.05684

>  <SCORE.INTRA.norm>
0.145467

>  <SCORE.RESTR>
0

>  <SCORE.RESTR.CAVITY>
0

>  <SCORE.RESTR.norm>
0

>  <SCORE.SYSTEM>
-20.5909

>  <SCORE.SYSTEM.CONST>
0

>  <SCORE.SYSTEM.DIHEDRAL>
4.53195

>  <SCORE.SYSTEM.POLAR>
-3.03243

>  <SCORE.SYSTEM.SOLV>
0.307195

>  <SCORE.SYSTEM.VDW>
-5.23217

>  <SCORE.SYSTEM.norm>
-1.7159

>  <SCORE.heavy>
12

>  <SCORE.norm>
-4.31473

$$$$
P109615893
 OpenBabel12072022113D
libRbt.so/2013.1/901 2013/11/27
 14 14  0  0  0  0  0  0  0  0999 V2000
    1.2487   14.1029    3.9252 C   0  0  0  0  0  0  0  0  0  0  0  0
    2.2923   15.1203    3.9872 N   0  0  0  0  0  0  0  0  0  0  0  0
    3.5397   14.6057    3.3728 C   0  0  0  0  0  0  0  0  0  0  0  0
    4.6122   15.7032    3.3421 C   0  0  0  0  0  0  0  0  0  0  0  0
    5.2072   16.0124    2.3150 O   0  0  0  0  0  0  0  0  0  0  0  0
    4.8020   16.3207    4.5579 N   0  0  0  0  0  0  0  0  0  0  0  0
    5.7573   17.3853    4.8148 C   0  0  2  0  0  0  0  0  0  0  0  0
    5.4847   18.1195    6.1334 C   0  0  0  0  0  0  0  0  0  0  0  0
    6.4888   19.2517    6.3351 C   0  0  0  0  0  0  0  0  0  0  0  0
    6.5623   20.1405    5.0996 C   0  0  0  0  0  0  0  0  0  0  0  0
    6.8917   19.3686    3.9436 O   0  0  0  0  0  0  0  0  0  0  0  0
    5.8839   18.3914    3.6591 C   0  0  0  0  0  0  0  0  0  0  0  0
    2.4899   15.3212    4.9702 H   0  0  0  0  0  0  0  0  0  0  0  0
    4.2619   15.9282    5.3268 H   0  0  0  0  0  0  0  0  0  0  0  0
  1  2  1  0  0  0  0
  2  3  1  0  0  0  0
  2 13  1  0  0  0  0
  3  4  1  0  0  0  0
  4  5  2  0  0  0  0
  4  6  1  0  0  0  0
  6 14  1  0  0  0  0
  7  8  1  0  0  0  0
  7 12  1  0  0  0  0
  7  6  1  6  0  0  0
  8  9  1  0  0  0  0
  9 10  1  0  0  0  0
 10 11  1  0  0  0  0
 11 12  1  0  0  0  0
M  END
>  <CHROM.0>
-62.96356227,-60.44994977,-72.54511100,-48.83559659,-58.93652236,-63.58257264
-171.62028111,-58.87114256,-168.07825282

>  <CHROM.1>
175.92416177,-127.43072029,164.60005986,4.88340927,17.03851658,4.27981460
2.54632413,-0.71310324,-2.06858306

>  <Name>
P109615893

>  <RI>
3.4169e+07

>  <Rbt.Current_Directory>
/home/fstefaniak/projects/zuza/docking/adenine/4XNR

>  <Rbt.Executable>
rbdock ($Id: //depot/dev/client3/rdock/2013.1/src/exe/rbdock.cxx#4 $)

>  <Rbt.Library>
libRbt.so (2013.1, Build901 2013/11/27)

>  <Rbt.Parameter_File>
/home/fstefaniak/progs/rDock//data/scripts/dock_solv.prm

>  <Rbt.Receptor>
4xnr.prm

>  <SCORE>
-51.454

>  <SCORE.INTER>
-32.8248

>  <SCORE.INTER.CONST>
1

>  <SCORE.INTER.POLAR>
-4.10421

>  <SCORE.INTER.ROT>
3

>  <SCORE.INTER.SOLV>
12.9435

>  <SCORE.INTER.VDW>
-18.117

>  <SCORE.INTER.norm>
-2.7354

>  <SCORE.INTRA>
1.73345

>  <SCORE.INTRA.DIHEDRAL>
-0.0690273

>  <SCORE.INTRA.DIHEDRAL.0>
2.54998

>  <SCORE.INTRA.POLAR>
0.192976

>  <SCORE.INTRA.POLAR.0>
-0.192976

>  <SCORE.INTRA.REPUL>
0

>  <SCORE.INTRA.REPUL.0>
0

>  <SCORE.INTRA.SOLV>
-0.2044

>  <SCORE.INTRA.SOLV.lig_0>
-14.5609

>  <SCORE.INTRA.VDW>
1.21404

>  <SCORE.INTRA.VDW.0>
-1.05684

>  <SCORE.INTRA.norm>
0.144454

>  <SCORE.RESTR>
0

>  <SCORE.RESTR.CAVITY>
0

>  <SCORE.RESTR.norm>
0

>  <SCORE.SYSTEM>
-20.3626

>  <SCORE.SYSTEM.CONST>
0

>  <SCORE.SYSTEM.DIHEDRAL>
4.46434

>  <SCORE.SYSTEM.POLAR>
-2.91576

>  <SCORE.SYSTEM.SOLV>
0.218406

>  <SCORE.SYSTEM.VDW>
-5.4168

>  <SCORE.SYSTEM.norm>
-1.69689

>  <SCORE.heavy>
12

>  <SCORE.norm>
-4.28783

$$$$
P111214489
 OpenBabel12072022113D
libRbt.so/2013.1/901 2013/11/27
 15 15  0  0  0  0  0  0  0  0999 V2000
    0.4989   16.7070    4.1672 C   0  0  0  0  0  0  0  0  0  0  0  0
    1.5042   15.7540    4.4570 C   0  0  0  0  0  0  0  0  0  0  0  0
    2.5573   16.0304    3.6095 C   0  0  0  0  0  0  0  0  0  0  0  0
    2.2562   17.1064    2.8265 O   0  0  0  0  0  0  0  0  0  0  0  0
    1.0029   17.5037    3.1665 C   0  0  0  0  0  0  0  0  0  0  0  0
    3.8985   15.4243    3.4197 C   0  0  0  0  0  0  0  0  0  0  0  0
    4.9921   16.4155    3.7870 C   0  0  0  0  0  0  0  0  0  0  0  0
    4.9241   17.2052    4.7311 O   0  0  0  0  0  0  0  0  0  0  0  0
    6.0991   16.4720    2.9697 N   0  0  0  0  0  0  0  0  0  0  0  0
    6.5984   17.6327    2.4465 C   0  0  0  0  0  0  0  0  0  0  0  0
    7.3468   18.4237    3.0002 O   0  0  0  0  0  0  0  0  0  0  0  0
    6.1416   17.8769    1.1869 N   0  0  0  0  0  0  0  0  0  0  0  0
    6.8154   15.8392    3.2937 H   0  0  0  0  0  0  0  0  0  0  0  0
    5.4507   18.6049    1.0674 H   0  0  0  0  0  0  0  0  0  0  0  0
    6.8775   17.8847    0.4891 H   0  0  0  0  0  0  0  0  0  0  0  0
  1  2  1  0  0  0  0
  1  5  2  0  0  0  0
  2  3  2  0  0  0  0
  3  4  1  0  0  0  0
  3  6  1  0  0  0  0
  4  5  1  0  0  0  0
  6  7  1  0  0  0  0
  7  8  2  0  0  0  0
  7  9  1  0  0  0  0
  9 10  1  0  0  0  0
  9 13  1  0  0  0  0
 10 11  2  0  0  0  0
 10 12  1  0  0  0  0
 12 14  1  0  0  0  0
 12 15  1  0  0  0  0
M  END
>  <CHROM.0>
-57.34787513,169.47465838,-75.66206527,51.38953315,55.88863936,-173.82128773
-174.73878074,-56.00634559,-168.64806083

>  <CHROM.1>
-115.12247111,38.17801873,129.26501211,82.83186072,106.18270238,4.08511876
16.92474019,3.28108247,2.83671322,0.02849689,2.23014273

>  <Name>
P111214489

>  <RI>
3.02409e+07

>  <Rbt.Current_Directory>
/home/fstefaniak/projects/zuza/docking/adenine/4XNR

>  <Rbt.Executable>
rbdock ($Id: //depot/dev/client3/rdock/2013.1/src/exe/rbdock.cxx#4 $)

>  <Rbt.Library>
libRbt.so (2013.1, Build901 2013/11/27)

>  <Rbt.Parameter_File>
/home/fstefaniak/progs/rDock//data/scripts/dock_solv.prm

>  <Rbt.Receptor>
4xnr.prm

>  <SCORE>
-58.6013

>  <SCORE.INTER>
-42.0165

>  <SCORE.INTER.CONST>
1

>  <SCORE.INTER.POLAR>
-6.57359

>  <SCORE.INTER.ROT>
5

>  <SCORE.INTER.SOLV>
14.7149

>  <SCORE.INTER.VDW>
-17.9373

>  <SCORE.INTER.norm>
-3.50137

>  <SCORE.INTRA>
-1.35234

>  <SCORE.INTRA.DIHEDRAL>
-0.552709

>  <SCORE.INTRA.DIHEDRAL.0>
3.45931

>  <SCORE.INTRA.POLAR>
0

>  <SCORE.INTRA.POLAR.0>
0

>  <SCORE.INTRA.REPUL>
0

>  <SCORE.INTRA.REPUL.0>
0

>  <SCORE.INTRA.SOLV>
0.210617

>  <SCORE.INTRA.SOLV.lig_0>
-20.2357

>  <SCORE.INTRA.VDW>
-1.1813

>  <SCORE.INTRA.VDW.0>
-0.340091

>  <SCORE.INTRA.norm>
-0.112695

>  <SCORE.RESTR>
0

>  <SCORE.RESTR.CAVITY>
0

>  <SCORE.RESTR.norm>
0

>  <SCORE.SYSTEM>
-15.2324

>  <SCORE.SYSTEM.CONST>
0

>  <SCORE.SYSTEM.DIHEDRAL>
5.1147

>  <SCORE.SYSTEM.POLAR>
-2.39533

>  <SCORE.SYSTEM.SOLV>
-0.147658

>  <SCORE.SYSTEM.VDW>
-3.82619

>  <SCORE.SYSTEM.norm>
-1.26937

>  <SCORE.heavy>
12

>  <SCORE.norm>
-4.88344

$$$$
P111214489
 OpenBabel12072022113D
libRbt.so/2013.1/901 2013/11/27
 15 15  0  0  0  0  0  0  0  0999 V2000
    3.8343   14.5767    4.1417 C   0  0  0  0  0  0  0  0  0  0  0  0
    4.8866   15.5160    4.2558 C   0  0  0  0  0  0  0  0  0  0  0  0
    4.4202   16.6908    3.7025 C   0  0  0  0  0  0  0  0  0  0  0  0
    3.1377   16.5249    3.2675 O   0  0  0  0  0  0  0  0  0  0  0  0
    2.7950   15.2375    3.5306 C   0  0  0  0  0  0  0  0  0  0  0  0
    5.0130   18.0398    3.5263 C   0  0  0  0  0  0  0  0  0  0  0  0
    6.4409   17.9355    3.0129 C   0  0  0  0  0  0  0  0  0  0  0  0
    6.7800   17.2625    2.0374 O   0  0  0  0  0  0  0  0  0  0  0  0
    7.4220   18.5872    3.7267 N   0  0  0  0  0  0  0  0  0  0  0  0
    7.1955   19.2408    4.9064 C   0  0  0  0  0  0  0  0  0  0  0  0
    6.2696   19.9966    5.1593 O   0  0  0  0  0  0  0  0  0  0  0  0
    8.1637   18.9973    5.8328 N   0  0  0  0  0  0  0  0  0  0  0  0
    8.2799   18.0558    3.7226 H   0  0  0  0  0  0  0  0  0  0  0  0
    8.4153   19.7472    6.4620 H   0  0  0  0  0  0  0  0  0  0  0  0
    8.0691   18.0930    6.2819 H   0  0  0  0  0  0  0  0  0  0  0  0
  1  2  1  0  0  0  0
  1  5  2  0  0  0  0
  2  3  2  0  0  0  0
  3  4  1  0  0  0  0
  3  6  1  0  0  0  0
  4  5  1  0  0  0  0
  6  7  1  0  0  0  0
  7  8  2  0  0  0  0
  7  9  1  0  0  0  0
  9 10  1  0  0  0  0
  9 13  1  0  0  0  0
 10 11  2  0  0  0  0
 10 12  1  0  0  0  0
 12 14  1  0  0  0  0
 12 15  1  0  0  0  0
M  END
>  <CHROM.0>
-57.05214268,-173.54099199,-61.50770149,-44.98465255,-51.93585232,-57.13081232
-67.99569939,59.42944889,-167.18731067

>  <CHROM.1>
44.82974573,50.58907817,4.45335692,-44.71418144,145.28875155,5.58644124,17.44539618
3.93844437,2.62122698,-0.61588049,-2.03408973

>  <Name>
P111214489

>  <RI>
3.02409e+07

>  <Rbt.Current_Directory>
/home/fstefaniak/projects/zuza/docking/adenine/4XNR

>  <Rbt.Executable>
rbdock ($Id: //depot/dev/client3/rdock/2013.1/src/exe/rbdock.cxx#4 $)

>  <Rbt.Library>
libRbt.so (2013.1, Build901 2013/11/27)

>  <Rbt.Parameter_File>
/home/fstefaniak/progs/rDock//data/scripts/dock_solv.prm

>  <Rbt.Receptor>
4xnr.prm

>  <SCORE>
-57.8821

>  <SCORE.INTER>
-39.6351

>  <SCORE.INTER.CONST>
1

>  <SCORE.INTER.POLAR>
-6.22048

>  <SCORE.INTER.ROT>
5

>  <SCORE.INTER.SOLV>
14.9117

>  <SCORE.INTER.VDW>
-17.5923

>  <SCORE.INTER.norm>
-3.30292

>  <SCORE.INTRA>
1.1002

>  <SCORE.INTRA.DIHEDRAL>
1.58891

>  <SCORE.INTRA.DIHEDRAL.0>
3.45931

>  <SCORE.INTRA.POLAR>
0

>  <SCORE.INTRA.POLAR.0>
0

>  <SCORE.INTRA.REPUL>
0

>  <SCORE.INTRA.REPUL.0>
0

>  <SCORE.INTRA.SOLV>
0.107875

>  <SCORE.INTRA.SOLV.lig_0>
-20.2357

>  <SCORE.INTRA.VDW>
0.251805

>  <SCORE.INTRA.VDW.0>
-0.340091

>  <SCORE.INTRA.norm>
0.0916832

>  <SCORE.RESTR>
0

>  <SCORE.RESTR.CAVITY>
0

>  <SCORE.RESTR.norm>
0

>  <SCORE.SYSTEM>
-19.3472

>  <SCORE.SYSTEM.CONST>
0

>  <SCORE.SYSTEM.DIHEDRAL>
4.75146

>  <SCORE.SYSTEM.POLAR>
-3.05957

>  <SCORE.SYSTEM.SOLV>
0.112393

>  <SCORE.SYSTEM.VDW>
-4.32085

>  <SCORE.SYSTEM.norm>
-1.61227

>  <SCORE.heavy>
12

>  <SCORE.norm>
-4.82351

$$$$
P111214489
 OpenBabel12072022113D
libRbt.so/2013.1/901 2013/11/27
 15 15  0  0  0  0  0  0  0  0999 V2000
    3.0278   14.8907    3.7941 C   0  0  0  0  0  0  0  0  0  0  0  0
    3.1161   16.2735    3.5064 C   0  0  0  0  0  0  0  0  0  0  0  0
    4.3450   16.6901    3.9751 C   0  0  0  0  0  0  0  0  0  0  0  0
    5.0173   15.6365    4.5224 O   0  0  0  0  0  0  0  0  0  0  0  0
    4.2066   14.5523    4.4154 C   0  0  0  0  0  0  0  0  0  0  0  0
    5.0476   17.9972    3.9705 C   0  0  0  0  0  0  0  0  0  0  0  0
    6.3828   17.8861    3.2504 C   0  0  0  0  0  0  0  0  0  0  0  0
    6.5873   17.1586    2.2766 O   0  0  0  0  0  0  0  0  0  0  0  0
    7.4430   18.5993    3.7642 N   0  0  0  0  0  0  0  0  0  0  0  0
    7.3665   19.3651    4.8946 C   0  0  0  0  0  0  0  0  0  0  0  0
    6.6020   20.2959    5.0987 O   0  0  0  0  0  0  0  0  0  0  0  0
    8.2925   19.0117    5.8288 N   0  0  0  0  0  0  0  0  0  0  0  0
    8.2973   18.0659    3.7000 H   0  0  0  0  0  0  0  0  0  0  0  0
    8.5258   19.6881    6.5427 H   0  0  0  0  0  0  0  0  0  0  0  0
    8.1693   18.0670    6.1765 H   0  0  0  0  0  0  0  0  0  0  0  0
  1  2  1  0  0  0  0
  1  5  2  0  0  0  0
  2  3  2  0  0  0  0
  3  4  1  0  0  0  0
  3  6  1  0  0  0  0
  4  5  1  0  0  0  0
  6  7  1  0  0  0  0
  7  8  2  0  0  0  0
  7  9  1  0  0  0  0
  9 10  1  0  0  0  0
  9 13  1  0  0  0  0
 10 11  2  0  0  0  0
 10 12  1  0  0  0  0
 12 14  1  0  0  0  0
 12 15  1  0  0  0  0
M  END
>  <CHROM.0>
-55.66057288,-171.72492727,59.04162956,-47.78804072,-60.49534275,-63.79719876
49.85459800,-174.74965805,-167.78386663

>  <CHROM.1>
-121.63319804,34.51774782,1.75205974,-57.45752130,159.84468870,5.70778606
17.41284763,4.13357904,2.69429215,-0.72603580,-1.95672154

>  <Name>
P111214489

>  <RI>
3.02409e+07

>  <Rbt.Current_Directory>
/home/fstefaniak/projects/zuza/docking/adenine/4XNR

>  <Rbt.Executable>
rbdock ($Id: //depot/dev/client3/rdock/2013.1/src/exe/rbdock.cxx#4 $)

>  <Rbt.Library>
libRbt.so (2013.1, Build901 2013/11/27)

>  <Rbt.Parameter_File>
/home/fstefaniak/progs/rDock//data/scripts/dock_solv.prm

>  <Rbt.Receptor>
4xnr.prm

>  <SCORE>
-56.3992

>  <SCORE.INTER>
-37.5177

>  <SCORE.INTER.CONST>
1

>  <SCORE.INTER.POLAR>
-5.91394

>  <SCORE.INTER.ROT>
5

>  <SCORE.INTER.SOLV>
15.5325

>  <SCORE.INTER.VDW>
-17.4095

>  <SCORE.INTER.norm>
-3.12648

>  <SCORE.INTRA>
-0.267565

>  <SCORE.INTRA.DIHEDRAL>
-0.588725

>  <SCORE.INTRA.DIHEDRAL.0>
3.45931

>  <SCORE.INTRA.POLAR>
0

>  <SCORE.INTRA.POLAR.0>
0

>  <SCORE.INTRA.REPUL>
0

>  <SCORE.INTRA.REPUL.0>
0

>  <SCORE.INTRA.SOLV>
0.237385

>  <SCORE.INTRA.SOLV.lig_0>
-20.2357

>  <SCORE.INTRA.VDW>
-0.0918947

>  <SCORE.INTRA.VDW.0>
-0.340091

>  <SCORE.INTRA.norm>
-0.022297

>  <SCORE.RESTR>
0

>  <SCORE.RESTR.CAVITY>
0

>  <SCORE.RESTR.norm>
0

>  <SCORE.SYSTEM>
-18.614

>  <SCORE.SYSTEM.CONST>
0

>  <SCORE.SYSTEM.DIHEDRAL>
4.55112

>  <SCORE.SYSTEM.POLAR>
-2.95668

>  <SCORE.SYSTEM.SOLV>
0.0253244

>  <SCORE.SYSTEM.VDW>
-4.07921

>  <SCORE.SYSTEM.norm>
-1.55116

>  <SCORE.heavy>
12

>  <SCORE.norm>
-4.69994

$$$$
P111223242
 OpenBabel12072022113D
libRbt.so/2013.1/901 2013/11/27
 13 13  0  0  0  0  0  0  0  0999 V2000
    5.9963   17.8946    2.3431 C   0  0  0  0  0  0  0  0  0  0  0  0
    5.0470   17.0568    3.2103 C   0  0  0  0  0  0  0  0  0  0  0  0
    5.3658   15.6381    2.9714 N   0  0  0  0  0  0  0  0  0  0  0  0
    4.3988   14.7564    3.4525 N   0  0  0  0  0  0  0  0  0  0  0  0
    3.0361   15.1277    3.5978 C   0  0  0  0  0  0  0  0  0  0  0  0
    2.7180   16.4721    3.2698 N   0  3  0  0  0  0  0  0  0  0  0  0
    1.7283   16.6911    3.3686 H   0  0  0  0  0  0  0  0  0  0  0  0
    3.6703   17.3688    2.7875 N   0  0  0  0  0  0  0  0  0  0  0  0
    1.8820   14.0592    4.1800 S   0  5  0  0  0  0  0  0  0  0  0  0
    5.2594   17.4219    4.6884 C   0  0  0  0  0  0  0  0  0  0  0  0
    6.2849   15.3731    3.3216 H   0  0  0  0  0  0  0  0  0  0  0  0
    4.5804   13.7801    3.6786 H   0  0  0  0  0  0  0  0  0  0  0  0
    3.3938   18.3240    3.0082 H   0  0  0  0  0  0  0  0  0  0  0  0
  1  2  1  0  0  0  0
  2  3  1  0  0  0  0
  2  8  1  0  0  0  0
  2 10  1  0  0  0  0
  3  4  1  0  0  0  0
  3 11  1  0  0  0  0
  4  5  1  0  0  0  0
  4 12  1  0  0  0  0
  5  6  2  0  0  0  0
  5  9  1  0  0  0  0
  6  7  1  0  0  0  0
  6  8  1  0  0  0  0
  8 13  1  0  0  0  0
M  CHG  2   6   1   9  -1
M  END
>  <CHROM.0>
-58.71332065,-60.18985844,-67.12364496,-48.81229025,-176.68311541,-62.72965016
-69.88648268,-178.42014598,-168.11473586

>  <CHROM.1>
3.89175294,15.95434568,3.48678573,0.77662204,0.09335327,-0.19737529

>  <Name>
P111223242

>  <RI>
2.22087e+07

>  <Rbt.Current_Directory>
/home/fstefaniak/projects/zuza/docking/adenine/4XNR

>  <Rbt.Executable>
rbdock ($Id: //depot/dev/client3/rdock/2013.1/src/exe/rbdock.cxx#4 $)

>  <Rbt.Library>
libRbt.so (2013.1, Build901 2013/11/27)

>  <Rbt.Parameter_File>
/home/fstefaniak/progs/rDock//data/scripts/dock_solv.prm

>  <Rbt.Receptor>
4xnr.prm

>  <SCORE>
-44.3887

>  <SCORE.INTER>
-23.466

>  <SCORE.INTER.CONST>
1

>  <SCORE.INTER.POLAR>
-2.74424

>  <SCORE.INTER.ROT>
0

>  <SCORE.INTER.SOLV>
14.9273

>  <SCORE.INTER.VDW>
-15.0723

>  <SCORE.INTER.norm>
-2.60734

>  <SCORE.INTRA>
0

>  <SCORE.INTRA.DIHEDRAL>
0

>  <SCORE.INTRA.DIHEDRAL.0>
0

>  <SCORE.INTRA.POLAR>
0

>  <SCORE.INTRA.POLAR.0>
0

>  <SCORE.INTRA.REPUL>
0

>  <SCORE.INTRA.REPUL.0>
0

>  <SCORE.INTRA.SOLV>
0

>  <SCORE.INTRA.SOLV.lig_0>
-30.2341

>  <SCORE.INTRA.VDW>
0

>  <SCORE.INTRA.VDW.0>
0

>  <SCORE.INTRA.norm>
0

>  <SCORE.RESTR>
0

>  <SCORE.RESTR.CAVITY>
0

>  <SCORE.RESTR.norm>
0

>  <SCORE.SYSTEM>
-20.9226

>  <SCORE.SYSTEM.CONST>
0

>  <SCORE.SYSTEM.DIHEDRAL>
4.1126

>  <SCORE.SYSTEM.POLAR>
-2.95062

>  <SCORE.SYSTEM.SOLV>
-0.0369357

>  <SCORE.SYSTEM.VDW>
-5.47159

>  <SCORE.SYSTEM.norm>
-2.32474

>  <SCORE.heavy>
9

>  <SCORE.norm>
-4.93207

$$$$
P111223242
 OpenBabel12072022113D
libRbt.so/2013.1/901 2013/11/27
 13 13  0  0  0  0  0  0  0  0999 V2000
    5.9905   17.9004    2.3511 C   0  0  0  0  0  0  0  0  0  0  0  0
    5.0370   17.0619    3.2133 C   0  0  0  0  0  0  0  0  0  0  0  0
    5.3547   15.6433    2.9725 N   0  0  0  0  0  0  0  0  0  0  0  0
    4.3849   14.7619    3.4484 N   0  0  0  0  0  0  0  0  0  0  0  0
    3.0222   15.1348    3.5900 C   0  0  0  0  0  0  0  0  0  0  0  0
    2.7071   16.4804    3.2638 N   0  3  0  0  0  0  0  0  0  0  0  0
    1.7174   16.7005    3.3599 H   0  0  0  0  0  0  0  0  0  0  0  0
    3.6622   17.3767    2.7866 N   0  0  0  0  0  0  0  0  0  0  0  0
    1.8648   14.0666    4.1660 S   0  5  0  0  0  0  0  0  0  0  0  0
    5.2450   17.4236    4.6930 C   0  0  0  0  0  0  0  0  0  0  0  0
    6.2723   15.3763    3.3251 H   0  0  0  0  0  0  0  0  0  0  0  0
    4.5644   13.7849    3.6729 H   0  0  0  0  0  0  0  0  0  0  0  0
    3.3863   18.3319    3.0085 H   0  0  0  0  0  0  0  0  0  0  0  0
  1  2  1  0  0  0  0
  2  3  1  0  0  0  0
  2  8  1  0  0  0  0
  2 10  1  0  0  0  0
  3  4  1  0  0  0  0
  3 11  1  0  0  0  0
  4  5  1  0  0  0  0
  4 12  1  0  0  0  0
  5  6  2  0  0  0  0
  5  9  1  0  0  0  0
  6  7  1  0  0  0  0
  6  8  1  0  0  0  0
  8 13  1  0  0  0  0
M  CHG  2   6   1   9  -1
M  END
>  <CHROM.0>
-55.68090736,-62.06405601,-67.92033485,-46.79175893,-58.48873418,-64.22333626
-67.78585302,-61.36327563,-168.25110898

>  <CHROM.1>
3.87939491,15.96050494,3.48360908,0.77460865,0.09036444,-0.19501777

>  <Name>
P111223242

>  <RI>
2.22087e+07

>  <Rbt.Current_Directory>
/home/fstefaniak/projects/zuza/docking/adenine/4XNR

>  <Rbt.Executable>
rbdock ($Id: //depot/dev/client3/rdock/2013.1/src/exe/rbdock.cxx#4 $)

>  <Rbt.Library>
libRbt.so (2013.1, Build901 2013/11/27)

>  <Rbt.Parameter_File>
/home/fstefaniak/progs/rDock//data/scripts/dock_solv.prm

>  <Rbt.Receptor>
4xnr.prm

>  <SCORE>
-44.3743

>  <SCORE.INTER>
-23.416

>  <SCORE.INTER.CONST>
1

>  <SCORE.INTER.POLAR>
-2.73783

>  <SCORE.INTER.ROT>
0

>  <SCORE.INTER.SOLV>
14.8745

>  <SCORE.INTER.VDW>
-15.0427

>  <SCORE.INTER.norm>
-2.60177

>  <SCORE.INTRA>
0

>  <SCORE.INTRA.DIHEDRAL>
0

>  <SCORE.INTRA.DIHEDRAL.0>
0

>  <SCORE.INTRA.POLAR>
0

>  <SCORE.INTRA.POLAR.0>
0

>  <SCORE.INTRA.REPUL>
0

>  <SCORE.INTRA.REPUL.0>
0

>  <SCORE.INTRA.SOLV>
0

>  <SCORE.INTRA.SOLV.lig_0>
-30.2341

>  <SCORE.INTRA.VDW>
0

>  <SCORE.INTRA.VDW.0>
0

>  <SCORE.INTRA.norm>
0

>  <SCORE.RESTR>
0

>  <SCORE.RESTR.CAVITY>
0

>  <SCORE.RESTR.norm>
0

>  <SCORE.SYSTEM>
-20.9584

>  <SCORE.SYSTEM.CONST>
0

>  <SCORE.SYSTEM.DIHEDRAL>
4.31208

>  <SCORE.SYSTEM.POLAR>
-3.01002

>  <SCORE.SYSTEM.SOLV>
0.280413

>  <SCORE.SYSTEM.VDW>
-5.46967

>  <SCORE.SYSTEM.norm>
-2.32871

>  <SCORE.heavy>
9

>  <SCORE.norm>
-4.93048

$$$$
P111223242
 OpenBabel12072022113D
libRbt.so/2013.1/901 2013/11/27
 13 13  0  0  0  0  0  0  0  0999 V2000
    5.9931   17.9159    2.3710 C   0  0  0  0  0  0  0  0  0  0  0  0
    5.0397   17.0642    3.2200 C   0  0  0  0  0  0  0  0  0  0  0  0
    5.3684   15.6497    2.9698 N   0  0  0  0  0  0  0  0  0  0  0  0
    4.4013   14.7580    3.4321 N   0  0  0  0  0  0  0  0  0  0  0  0
    3.0353   15.1208    3.5677 C   0  0  0  0  0  0  0  0  0  0  0  0
    2.7133   16.4669    3.2504 N   0  3  0  0  0  0  0  0  0  0  0  0
    1.7216   16.6796    3.3416 H   0  0  0  0  0  0  0  0  0  0  0  0
    3.6656   17.3734    2.7868 N   0  0  0  0  0  0  0  0  0  0  0  0
    1.8813   14.0403    4.1273 S   0  5  0  0  0  0  0  0  0  0  0  0
    5.2355   17.4151    4.7040 C   0  0  0  0  0  0  0  0  0  0  0  0
    6.2854   15.3860    3.3263 H   0  0  0  0  0  0  0  0  0  0  0  0
    4.5858   13.7805    3.6499 H   0  0  0  0  0  0  0  0  0  0  0  0
    3.3818   18.3248    3.0146 H   0  0  0  0  0  0  0  0  0  0  0  0
  1  2  1  0  0  0  0
  2  3  1  0  0  0  0
  2  8  1  0  0  0  0
  2 10  1  0  0  0  0
  3  4  1  0  0  0  0
  3 11  1  0  0  0  0
  4  5  1  0  0  0  0
  4 12  1  0  0  0  0
  5  6  2  0  0  0  0
  5  9  1  0  0  0  0
  6  7  1  0  0  0  0
  6  8  1  0  0  0  0
  8 13  1  0  0  0  0
M  CHG  2   6   1   9  -1
M  END
>  <CHROM.0>
-57.71031796,-62.86133518,-67.37044969,-45.19398294,-55.38302204,-63.86887280
-69.92198440,-172.99676485,-168.05871913

>  <CHROM.1>
3.88763445,15.95295796,3.47366852,0.77990224,0.08260977,-0.18732165

>  <Name>
P111223242

>  <RI>
2.22087e+07

>  <Rbt.Current_Directory>
/home/fstefaniak/projects/zuza/docking/adenine/4XNR

>  <Rbt.Executable>
rbdock ($Id: //depot/dev/client3/rdock/2013.1/src/exe/rbdock.cxx#4 $)

>  <Rbt.Library>
libRbt.so (2013.1, Build901 2013/11/27)

>  <Rbt.Parameter_File>
/home/fstefaniak/progs/rDock//data/scripts/dock_solv.prm

>  <Rbt.Receptor>
4xnr.prm

>  <SCORE>
-44.3141

>  <SCORE.INTER>
-23.4854

>  <SCORE.INTER.CONST>
1

>  <SCORE.INTER.POLAR>
-2.77416

>  <SCORE.INTER.ROT>
0

>  <SCORE.INTER.SOLV>
14.877

>  <SCORE.INTER.VDW>
-14.9687

>  <SCORE.INTER.norm>
-2.60948

>  <SCORE.INTRA>
0

>  <SCORE.INTRA.DIHEDRAL>
0

>  <SCORE.INTRA.DIHEDRAL.0>
0

>  <SCORE.INTRA.POLAR>
0

>  <SCORE.INTRA.POLAR.0>
0

>  <SCORE.INTRA.REPUL>
0

>  <SCORE.INTRA.REPUL.0>
0

>  <SCORE.INTRA.SOLV>
0

>  <SCORE.INTRA.SOLV.lig_0>
-30.2341

>  <SCORE.INTRA.VDW>
0

>  <SCORE.INTRA.VDW.0>
0

>  <SCORE.INTRA.norm>
0

>  <SCORE.RESTR>
0

>  <SCORE.RESTR.CAVITY>
0

>  <SCORE.RESTR.norm>
0

>  <SCORE.SYSTEM>
-20.8288

>  <SCORE.SYSTEM.CONST>
0

>  <SCORE.SYSTEM.DIHEDRAL>
4.89872

>  <SCORE.SYSTEM.POLAR>
-3.02647

>  <SCORE.SYSTEM.SOLV>
0.144943

>  <SCORE.SYSTEM.VDW>
-5.47886

>  <SCORE.SYSTEM.norm>
-2.31431

>  <SCORE.heavy>
9

>  <SCORE.norm>
-4.92379

$$$$
P111278486
 OpenBabel12072022113D
libRbt.so/2013.1/901 2013/11/27
 15 16  0  0  0  0  0  0  0  0999 V2000
    4.1444   14.7133    4.0725 C   0  0  0  0  0  0  0  0  0  0  0  0
    3.6547   16.1336    3.8289 C   0  0  0  0  0  0  0  0  0  0  0  0
    4.3089   17.0102    4.7498 O   0  0  0  0  0  0  0  0  0  0  0  0
    4.6810   18.1635    3.9993 C   0  0  1  0  0  0  0  0  0  0  0  0
    6.1434   18.5525    4.3004 C   0  0  1  0  0  0  0  0  0  0  0  0
    6.7749   18.7434    2.9259 C   0  0  0  0  0  0  0  0  0  0  0  0
    6.1051   17.6485    2.1071 C   0  0  1  0  0  0  0  0  0  0  0  0
    4.6391   17.7496    2.5396 C   0  0  1  0  0  0  0  0  0  0  0  0
    3.9648   16.4980    2.4830 O   0  0  0  0  0  0  0  0  0  0  0  0
    6.2596   17.8976    0.7173 O   0  0  0  0  0  0  0  0  0  0  0  0
    6.3034   19.7341    5.1463 N   0  0  0  0  0  0  0  0  0  0  0  0
    2.1466   16.2384    4.0330 C   0  0  0  0  0  0  0  0  0  0  0  0
    5.9575   18.8073    0.5501 H   0  0  0  0  0  0  0  0  0  0  0  0
    5.6389   20.4486    4.8436 H   0  0  0  0  0  0  0  0  0  0  0  0
    7.2287   20.1429    5.0195 H   0  0  0  0  0  0  0  0  0  0  0  0
  1  2  1  0  0  0  0
  2  3  1  0  0  0  0
  2  9  1  0  0  0  0
  2 12  1  0  0  0  0
  4  3  1  1  0  0  0
  4  8  1  0  0  0  0
  5  4  1  0  0  0  0
  5  6  1  0  0  0  0
  5 11  1  1  0  0  0
  6  7  1  0  0  0  0
  7 10  1  6  0  0  0
  7  8  1  0  0  0  0
  8  9  1  1  0  0  0
 10 13  1  0  0  0  0
 11 14  1  0  0  0  0
 11 15  1  0  0  0  0
M  END
>  <CHROM.0>
-62.03565229,178.02116335,-65.64306828,-48.55624083,-67.58502467,-177.09344701
-66.58551003,-57.39304786,-167.63407023

>  <CHROM.1>
-42.45434653,-52.12475275,4.93095430,17.43318680,3.39018050,-3.06387586,0.77838671
1.18850743

>  <Name>
P111278486

>  <RI>
1.34432e+07

>  <Rbt.Current_Directory>
/home/fstefaniak/projects/zuza/docking/adenine/4XNR

>  <Rbt.Executable>
rbdock ($Id: //depot/dev/client3/rdock/2013.1/src/exe/rbdock.cxx#4 $)

>  <Rbt.Library>
libRbt.so (2013.1, Build901 2013/11/27)

>  <Rbt.Parameter_File>
/home/fstefaniak/progs/rDock//data/scripts/dock_solv.prm

>  <Rbt.Receptor>
4xnr.prm

>  <SCORE>
-44.7074

>  <SCORE.INTER>
-25.1038

>  <SCORE.INTER.CONST>
1

>  <SCORE.INTER.POLAR>
-4.46209

>  <SCORE.INTER.ROT>
1

>  <SCORE.INTER.SOLV>
12.7387

>  <SCORE.INTER.VDW>
-10.3752

>  <SCORE.INTER.norm>
-2.09199

>  <SCORE.INTRA>
0.785192

>  <SCORE.INTRA.DIHEDRAL>
0.33421

>  <SCORE.INTRA.DIHEDRAL.0>
0.664537

>  <SCORE.INTRA.POLAR>
0

>  <SCORE.INTRA.POLAR.0>
0

>  <SCORE.INTRA.REPUL>
0

>  <SCORE.INTRA.REPUL.0>
0

>  <SCORE.INTRA.SOLV>
-0.0560525

>  <SCORE.INTRA.SOLV.lig_0>
-12.0878

>  <SCORE.INTRA.VDW>
0.646113

>  <SCORE.INTRA.VDW.0>
-0.179276

>  <SCORE.INTRA.norm>
0.0654326

>  <SCORE.RESTR>
0

>  <SCORE.RESTR.CAVITY>
0

>  <SCORE.RESTR.norm>
0

>  <SCORE.SYSTEM>
-20.3888

>  <SCORE.SYSTEM.CONST>
0

>  <SCORE.SYSTEM.DIHEDRAL>
4.12403

>  <SCORE.SYSTEM.POLAR>
-2.94453

>  <SCORE.SYSTEM.SOLV>
0.141912

>  <SCORE.SYSTEM.VDW>
-5.19939

>  <SCORE.SYSTEM.norm>
-1.69906

>  <SCORE.heavy>
12

>  <SCORE.norm>
-3.72562

$$$$
P111278486
 OpenBabel12072022113D
libRbt.so/2013.1/901 2013/11/27
 15 16  0  0  0  0  0  0  0  0999 V2000
    1.6965   14.6151    4.4924 C   0  0  0  0  0  0  0  0  0  0  0  0
    3.1187   14.3835    4.0028 C   0  0  0  0  0  0  0  0  0  0  0  0
    3.3066   15.0993    2.7794 O   0  0  0  0  0  0  0  0  0  0  0  0
    4.5908   15.7107    2.8739 C   0  0  1  0  0  0  0  0  0  0  0  0
    4.5158   17.1896    2.4403 C   0  0  1  0  0  0  0  0  0  0  0  0
    5.2310   17.9471    3.5535 C   0  0  0  0  0  0  0  0  0  0  0  0
    4.8095   17.1725    4.7945 C   0  0  1  0  0  0  0  0  0  0  0  0
    4.9500   15.7138    4.3485 C   0  0  1  0  0  0  0  0  0  0  0  0
    4.0264   14.8509    5.0018 O   0  0  0  0  0  0  0  0  0  0  0  0
    5.6676   17.4714    5.8862 O   0  0  0  0  0  0  0  0  0  0  0  0
    5.0899   17.4747    1.1263 N   0  0  0  0  0  0  0  0  0  0  0  0
    3.3805   12.9015    3.7535 C   0  0  0  0  0  0  0  0  0  0  0  0
    5.2885   17.0505    6.6772 H   0  0  0  0  0  0  0  0  0  0  0  0
    5.2718   18.4775    1.0567 H   0  0  0  0  0  0  0  0  0  0  0  0
    4.4195   17.2613    0.3885 H   0  0  0  0  0  0  0  0  0  0  0  0
  1  2  1  0  0  0  0
  2  3  1  0  0  0  0
  2  9  1  0  0  0  0
  2 12  1  0  0  0  0
  4  3  1  1  0  0  0
  4  8  1  0  0  0  0
  5  4  1  0  0  0  0
  5  6  1  0  0  0  0
  5 11  1  6  0  0  0
  6  7  1  0  0  0  0
  7 10  1  1  0  0  0
  7  8  1  0  0  0  0
  8  9  1  1  0  0  0
 10 13  1  0  0  0  0
 11 14  1  0  0  0  0
 11 15  1  0  0  0  0
M  END
>  <CHROM.0>
-57.14239405,-55.11832601,-72.48736721,-46.95187587,60.53861059,-66.30466433
-169.82121472,-174.80906843,-167.74565259

>  <CHROM.1>
-161.78218963,172.49934311,4.19816027,15.88440964,3.76849111,-2.81610922
-0.97103486,-1.37866270

>  <Name>
P111278486

>  <RI>
1.34432e+07

>  <Rbt.Current_Directory>
/home/fstefaniak/projects/zuza/docking/adenine/4XNR

>  <Rbt.Executable>
rbdock ($Id: //depot/dev/client3/rdock/2013.1/src/exe/rbdock.cxx#4 $)

>  <Rbt.Library>
libRbt.so (2013.1, Build901 2013/11/27)

>  <Rbt.Parameter_File>
/home/fstefaniak/progs/rDock//data/scripts/dock_solv.prm

>  <Rbt.Receptor>
4xnr.prm

>  <SCORE>
-42.8163

>  <SCORE.INTER>
-23.9839

>  <SCORE.INTER.CONST>
1

>  <SCORE.INTER.POLAR>
-3.30309

>  <SCORE.INTER.ROT>
1

>  <SCORE.INTER.SOLV>
13.0851

>  <SCORE.INTER.VDW>
-13.6074

>  <SCORE.INTER.norm>
-1.99866

>  <SCORE.INTRA>
0.249377

>  <SCORE.INTRA.DIHEDRAL>
0.343762

>  <SCORE.INTRA.DIHEDRAL.0>
0.664537

>  <SCORE.INTRA.POLAR>
0

>  <SCORE.INTRA.POLAR.0>
0

>  <SCORE.INTRA.REPUL>
0

>  <SCORE.INTRA.REPUL.0>
0

>  <SCORE.INTRA.SOLV>
-0.0182608

>  <SCORE.INTRA.SOLV.lig_0>
-12.0878

>  <SCORE.INTRA.VDW>
0.0866263

>  <SCORE.INTRA.VDW.0>
-0.179276

>  <SCORE.INTRA.norm>
0.0207814

>  <SCORE.RESTR>
0

>  <SCORE.RESTR.CAVITY>
0

>  <SCORE.RESTR.norm>
0

>  <SCORE.SYSTEM>
-19.0817

>  <SCORE.SYSTEM.CONST>
0

>  <SCORE.SYSTEM.DIHEDRAL>
5.18699

>  <SCORE.SYSTEM.POLAR>
-2.97933

>  <SCORE.SYSTEM.SOLV>
-0.11556

>  <SCORE.SYSTEM.VDW>
-4.48051

>  <SCORE.SYSTEM.norm>
-1.59014

>  <SCORE.heavy>
12

>  <SCORE.norm>
-3.56802

$$$$
P111278486
 OpenBabel12072022113D
libRbt.so/2013.1/901 2013/11/27
 15 16  0  0  0  0  0  0  0  0999 V2000
    4.0797   14.7413    4.2982 C   0  0  0  0  0  0  0  0  0  0  0  0
    3.7404   16.1409    3.8061 C   0  0  0  0  0  0  0  0  0  0  0  0
    4.2597   17.0943    4.7366 O   0  0  0  0  0  0  0  0  0  0  0  0
    4.8448   18.1313    3.9529 C   0  0  1  0  0  0  0  0  0  0  0  0
    6.2434   18.4919    4.4958 C   0  0  1  0  0  0  0  0  0  0  0  0
    7.1404   18.4878    3.2630 C   0  0  0  0  0  0  0  0  0  0  0  0
    6.5719   17.3309    2.4529 C   0  0  1  0  0  0  0  0  0  0  0  0
    5.0597   17.5456    2.5693 C   0  0  1  0  0  0  0  0  0  0  0  0
    4.3287   16.3259    2.5176 O   0  0  0  0  0  0  0  0  0  0  0  0
    7.0088   17.4029    1.1032 O   0  0  0  0  0  0  0  0  0  0  0  0
    6.3132   19.7595    5.2206 N   0  0  0  0  0  0  0  0  0  0  0  0
    2.2316   16.3333    3.6913 C   0  0  0  0  0  0  0  0  0  0  0  0
    7.9602   17.6060    1.1165 H   0  0  0  0  0  0  0  0  0  0  0  0
    5.6260   20.4037    4.8251 H   0  0  0  0  0  0  0  0  0  0  0  0
    7.2213   20.2017    5.0822 H   0  0  0  0  0  0  0  0  0  0  0  0
  1  2  1  0  0  0  0
  2  3  1  0  0  0  0
  2  9  1  0  0  0  0
  2 12  1  0  0  0  0
  4  3  1  1  0  0  0
  4  8  1  0  0  0  0
  5  4  1  0  0  0  0
  5  6  1  0  0  0  0
  5 11  1  6  0  0  0
  6  7  1  0  0  0  0
  7 10  1  6  0  0  0
  7  8  1  0  0  0  0
  8  9  1  1  0  0  0
 10 13  1  0  0  0  0
 11 14  1  0  0  0  0
 11 15  1  0  0  0  0
M  END
>  <CHROM.0>
-56.64108128,176.05487133,-73.19235496,-49.37961776,-62.91863193,59.74354997
-171.87404194,179.40971871,-168.07379962

>  <CHROM.1>
-31.24752724,44.59179243,5.16537618,17.31879603,3.49241569,-2.86688267,0.62479780
0.92725910

>  <Name>
P111278486

>  <RI>
1.34432e+07

>  <Rbt.Current_Directory>
/home/fstefaniak/projects/zuza/docking/adenine/4XNR

>  <Rbt.Executable>
rbdock ($Id: //depot/dev/client3/rdock/2013.1/src/exe/rbdock.cxx#4 $)

>  <Rbt.Library>
libRbt.so (2013.1, Build901 2013/11/27)

>  <Rbt.Parameter_File>
/home/fstefaniak/progs/rDock//data/scripts/dock_solv.prm

>  <Rbt.Receptor>
4xnr.prm

>  <SCORE>
-42.4309

>  <SCORE.INTER>
-25.3763

>  <SCORE.INTER.CONST>
1

>  <SCORE.INTER.POLAR>
-3.5775

>  <SCORE.INTER.ROT>
1

>  <SCORE.INTER.SOLV>
13.308

>  <SCORE.INTER.VDW>
-13.6952

>  <SCORE.INTER.norm>
-2.11469

>  <SCORE.INTRA>
1.79814

>  <SCORE.INTRA.DIHEDRAL>
1.78182

>  <SCORE.INTRA.DIHEDRAL.0>
0.664537

>  <SCORE.INTRA.POLAR>
0

>  <SCORE.INTRA.POLAR.0>
0

>  <SCORE.INTRA.REPUL>
0

>  <SCORE.INTRA.REPUL.0>
0

>  <SCORE.INTRA.SOLV>
-0.0293866

>  <SCORE.INTRA.SOLV.lig_0>
-12.0878

>  <SCORE.INTRA.VDW>
0.92192

>  <SCORE.INTRA.VDW.0>
-0.179276

>  <SCORE.INTRA.norm>
0.149845

>  <SCORE.RESTR>
0

>  <SCORE.RESTR.CAVITY>
0

>  <SCORE.RESTR.norm>
0

>  <SCORE.SYSTEM>
-18.8527

>  <SCORE.SYSTEM.CONST>
0

>  <SCORE.SYSTEM.DIHEDRAL>
4.51912

>  <SCORE.SYSTEM.POLAR>
-2.94046

>  <SCORE.SYSTEM.SOLV>
-0.0547532

>  <SCORE.SYSTEM.VDW>
-4.25506

>  <SCORE.SYSTEM.norm>
-1.57106

>  <SCORE.heavy>
12

>  <SCORE.norm>
-3.53591

$$$$
P111922037
 OpenBabel12072022113D
libRbt.so/2013.1/901 2013/11/27
 14 14  0  0  0  0  0  0  0  0999 V2000
    3.9193   13.7100    3.9197 C   0  0  0  0  0  0  0  0  0  0  0  0
    3.9141   15.2313    3.9405 C   0  0  0  0  0  0  0  0  0  0  0  0
    2.6391   15.7382    3.5636 O   0  0  0  0  0  0  0  0  0  0  0  0
    1.5923   15.3318    4.4347 C   0  0  0  0  0  0  0  0  0  0  0  0
    1.4472   13.8178    4.4232 C   0  0  0  0  0  0  0  0  0  0  0  0
    2.7704   13.1054    4.7478 C   0  0  0  0  0  0  0  0  0  0  0  0
    2.6193   11.5964    4.5085 C   0  0  0  0  0  0  0  0  0  0  0  0
    3.2050   10.8157    5.6783 C   0  0  0  0  0  0  0  0  0  0  0  0
    2.3102   10.2268    6.3677 O   0  0  0  0  0  0  0  0  0  0  0  0
    4.4426   10.8832    5.8260 O   0  5  0  0  0  0  0  0  0  0  0  0
    3.0564   13.3113    6.2116 N   0  3  0  0  0  0  0  0  0  0  0  0
    2.3801   12.9470    6.8813 H   0  0  0  0  0  0  0  0  0  0  0  0
    4.0167   13.0739    6.4728 H   0  0  0  0  0  0  0  0  0  0  0  0
    3.0525   14.3677    6.3367 H   0  0  0  0  0  0  0  0  0  0  0  0
  1  2  1  0  0  0  0
  1  6  1  0  0  0  0
  2  3  1  0  0  0  0
  3  4  1  0  0  0  0
  4  5  1  0  0  0  0
  5  6  1  0  0  0  0
  6  7  1  0  0  0  0
  6 11  1  0  0  0  0
  7  8  1  0  0  0  0
  8  9  2  0  0  0  0
  8 10  1  0  0  0  0
 11 12  1  0  0  0  0
 11 13  1  0  0  0  0
 11 14  1  0  0  0  0
M  CHG  2  10  -1  11   1
M  END
>  <CHROM.0>
-60.50338710,-176.89719088,-69.62259139,-48.44228552,-59.49136023,-63.81913561
-68.23546732,61.19660910,-168.57723843

>  <CHROM.1>
103.11358895,-179.20264325,110.72501590,2.91249016,13.07607615,4.91207756
-1.67905451,-0.14055301,2.71865195

>  <Name>
P111922037

>  <RI>
3.02409e+07

>  <Rbt.Current_Directory>
/home/fstefaniak/projects/zuza/docking/adenine/4XNR

>  <Rbt.Executable>
rbdock ($Id: //depot/dev/client3/rdock/2013.1/src/exe/rbdock.cxx#4 $)

>  <Rbt.Library>
libRbt.so (2013.1, Build901 2013/11/27)

>  <Rbt.Parameter_File>
/home/fstefaniak/progs/rDock//data/scripts/dock_solv.prm

>  <Rbt.Receptor>
4xnr.prm

>  <SCORE>
-41.5054

>  <SCORE.INTER>
-23.9077

>  <SCORE.INTER.CONST>
1

>  <SCORE.INTER.POLAR>
-3.82818

>  <SCORE.INTER.ROT>
2

>  <SCORE.INTER.SOLV>
16.3424

>  <SCORE.INTER.VDW>
-13.5587

>  <SCORE.INTER.norm>
-2.17343

>  <SCORE.INTRA>
2.12617

>  <SCORE.INTRA.DIHEDRAL>
3.73195

>  <SCORE.INTRA.DIHEDRAL.0>
1.73063

>  <SCORE.INTRA.POLAR>
0.397051

>  <SCORE.INTRA.POLAR.0>
-0.397051

>  <SCORE.INTRA.REPUL>
0

>  <SCORE.INTRA.REPUL.0>
0

>  <SCORE.INTRA.SOLV>
0.29915

>  <SCORE.INTRA.SOLV.lig_0>
-41.9535

>  <SCORE.INTRA.VDW>
-1.23936

>  <SCORE.INTRA.VDW.0>
1.67419

>  <SCORE.INTRA.norm>
0.193288

>  <SCORE.RESTR>
0

>  <SCORE.RESTR.CAVITY>
0

>  <SCORE.RESTR.norm>
0

>  <SCORE.SYSTEM>
-19.7238

>  <SCORE.SYSTEM.CONST>
0

>  <SCORE.SYSTEM.DIHEDRAL>
4.17671

>  <SCORE.SYSTEM.POLAR>
-2.93358

>  <SCORE.SYSTEM.SOLV>
0.0711327

>  <SCORE.SYSTEM.VDW>
-4.78654

>  <SCORE.SYSTEM.norm>
-1.79307

>  <SCORE.heavy>
11

>  <SCORE.norm>
-3.77321

$$$$
P111922037
 OpenBabel12072022113D
libRbt.so/2013.1/901 2013/11/27
 14 14  0  0  0  0  0  0  0  0999 V2000
    3.8761   13.6483    3.8935 C   0  0  0  0  0  0  0  0  0  0  0  0
    4.0212   15.1625    3.8596 C   0  0  0  0  0  0  0  0  0  0  0  0
    2.7926   15.7804    3.4943 O   0  0  0  0  0  0  0  0  0  0  0  0
    1.7344   15.5094    4.4034 C   0  0  0  0  0  0  0  0  0  0  0  0
    1.4409   14.0177    4.4499 C   0  0  0  0  0  0  0  0  0  0  0  0
    2.6958   13.1888    4.7693 C   0  0  0  0  0  0  0  0  0  0  0  0
    2.3906   11.6951    4.5881 C   0  0  0  0  0  0  0  0  0  0  0  0
    3.4283   10.8525    5.3191 C   0  0  0  0  0  0  0  0  0  0  0  0
    4.4027   10.5207    4.5686 O   0  0  0  0  0  0  0  0  0  0  0  0
    3.1781   10.5745    6.5098 O   0  5  0  0  0  0  0  0  0  0  0  0
    3.0395   13.4144    6.2177 N   0  3  0  0  0  0  0  0  0  0  0  0
    3.9545   13.1027    6.5406 H   0  0  0  0  0  0  0  0  0  0  0  0
    2.8233   14.3605    6.5415 H   0  0  0  0  0  0  0  0  0  0  0  0
    2.3267   12.8338    6.7530 H   0  0  0  0  0  0  0  0  0  0  0  0
  1  2  1  0  0  0  0
  1  6  1  0  0  0  0
  2  3  1  0  0  0  0
  3  4  1  0  0  0  0
  4  5  1  0  0  0  0
  5  6  1  0  0  0  0
  6  7  1  0  0  0  0
  6 11  1  0  0  0  0
  7  8  1  0  0  0  0
  8  9  2  0  0  0  0
  8 10  1  0  0  0  0
 11 12  1  0  0  0  0
 11 13  1  0  0  0  0
 11 14  1  0  0  0  0
M  CHG  2  10  -1  11   1
M  END
>  <CHROM.0>
-57.69304646,-175.48903356,-73.85115639,-47.56751897,-59.75644419,-174.38813083
-171.63965843,59.56939105,-168.38641020

>  <CHROM.1>
75.73873493,-47.20389390,-92.54829226,3.01611127,13.12683793,4.76615121,-1.79107917
-0.61462280,2.68879189

>  <Name>
P111922037

>  <RI>
3.02409e+07

>  <Rbt.Current_Directory>
/home/fstefaniak/projects/zuza/docking/adenine/4XNR

>  <Rbt.Executable>
rbdock ($Id: //depot/dev/client3/rdock/2013.1/src/exe/rbdock.cxx#4 $)

>  <Rbt.Library>
libRbt.so (2013.1, Build901 2013/11/27)

>  <Rbt.Parameter_File>
/home/fstefaniak/progs/rDock//data/scripts/dock_solv.prm

>  <Rbt.Receptor>
4xnr.prm

>  <SCORE>
-38.978

>  <SCORE.INTER>
-20.0365

>  <SCORE.INTER.CONST>
1

>  <SCORE.INTER.POLAR>
-3.052

>  <SCORE.INTER.ROT>
2

>  <SCORE.INTER.SOLV>
16.2489

>  <SCORE.INTER.VDW>
-13.534

>  <SCORE.INTER.norm>
-1.8215

>  <SCORE.INTRA>
0.0115283

>  <SCORE.INTRA.DIHEDRAL>
1.37724

>  <SCORE.INTRA.DIHEDRAL.0>
1.73063

>  <SCORE.INTRA.POLAR>
0.397051

>  <SCORE.INTRA.POLAR.0>
-0.397051

>  <SCORE.INTRA.REPUL>
0

>  <SCORE.INTRA.REPUL.0>
0

>  <SCORE.INTRA.SOLV>
-0.548599

>  <SCORE.INTRA.SOLV.lig_0>
-41.9535

>  <SCORE.INTRA.VDW>
-1.75276

>  <SCORE.INTRA.VDW.0>
1.67419

>  <SCORE.INTRA.norm>
0.00104802

>  <SCORE.RESTR>
0

>  <SCORE.RESTR.CAVITY>
0

>  <SCORE.RESTR.norm>
0

>  <SCORE.SYSTEM>
-18.953

>  <SCORE.SYSTEM.CONST>
0

>  <SCORE.SYSTEM.DIHEDRAL>
4.86747

>  <SCORE.SYSTEM.POLAR>
-2.95487

>  <SCORE.SYSTEM.SOLV>
-0.0817242

>  <SCORE.SYSTEM.VDW>
-4.38103

>  <SCORE.SYSTEM.norm>
-1.723

>  <SCORE.heavy>
11

>  <SCORE.norm>
-3.54345

$$$$
P111922037
 OpenBabel12072022113D
libRbt.so/2013.1/901 2013/11/27
 14 14  0  0  0  0  0  0  0  0999 V2000
    3.4914   14.4551    3.3092 C   0  0  0  0  0  0  0  0  0  0  0  0
    3.8025   15.8889    3.7121 C   0  0  0  0  0  0  0  0  0  0  0  0
    2.7467   16.7625    3.3290 O   0  0  0  0  0  0  0  0  0  0  0  0
    1.5040   16.4454    3.9413 C   0  0  0  0  0  0  0  0  0  0  0  0
    1.0482   15.0533    3.5318 C   0  0  0  0  0  0  0  0  0  0  0  0
    2.1163   13.9851    3.8184 C   0  0  0  0  0  0  0  0  0  0  0  0
    1.6949   12.6488    3.1906 C   0  0  0  0  0  0  0  0  0  0  0  0
    0.2534   12.3235    3.5610 C   0  0  0  0  0  0  0  0  0  0  0  0
   -0.5773   12.7212    2.6810 O   0  0  0  0  0  0  0  0  0  0  0  0
    0.0769   11.7608    4.6611 O   0  5  0  0  0  0  0  0  0  0  0  0
    2.1831   13.7903    5.3099 N   0  3  0  0  0  0  0  0  0  0  0  0
    2.2261   14.6242    5.8942 H   0  0  0  0  0  0  0  0  0  0  0  0
    1.4990   13.1149    5.6600 H   0  0  0  0  0  0  0  0  0  0  0  0
    3.0992   13.2735    5.4692 H   0  0  0  0  0  0  0  0  0  0  0  0
  1  2  1  0  0  0  0
  1  6  1  0  0  0  0
  2  3  1  0  0  0  0
  3  4  1  0  0  0  0
  4  5  1  0  0  0  0
  5  6  1  0  0  0  0
  6  7  1  0  0  0  0
  6 11  1  0  0  0  0
  7  8  1  0  0  0  0
  8  9  2  0  0  0  0
  8 10  1  0  0  0  0
 11 12  1  0  0  0  0
 11 13  1  0  0  0  0
 11 14  1  0  0  0  0
M  CHG  2  10  -1  11   1
M  END
>  <CHROM.0>
-56.36790304,-176.49318434,-67.42854758,-45.87736270,-60.22691395,-63.48332441
-70.14184322,-62.09501089,-167.42579828

>  <CHROM.1>
-171.77425354,72.63637368,93.79564592,1.65680968,14.16751684,3.76267628,-0.88502891
0.38438719,2.82237579

>  <Name>
P111922037

>  <RI>
3.02409e+07

>  <Rbt.Current_Directory>
/home/fstefaniak/projects/zuza/docking/adenine/4XNR

>  <Rbt.Executable>
rbdock ($Id: //depot/dev/client3/rdock/2013.1/src/exe/rbdock.cxx#4 $)

>  <Rbt.Library>
libRbt.so (2013.1, Build901 2013/11/27)

>  <Rbt.Parameter_File>
/home/fstefaniak/progs/rDock//data/scripts/dock_solv.prm

>  <Rbt.Receptor>
4xnr.prm

>  <SCORE>
-38.5817

>  <SCORE.INTER>
-17.6336

>  <SCORE.INTER.CONST>
1

>  <SCORE.INTER.POLAR>
-2.82512

>  <SCORE.INTER.ROT>
2

>  <SCORE.INTER.SOLV>
14.4151

>  <SCORE.INTER.VDW>
-12.0771

>  <SCORE.INTER.norm>
-1.60306

>  <SCORE.INTRA>
-0.245179

>  <SCORE.INTRA.DIHEDRAL>
0.657132

>  <SCORE.INTRA.DIHEDRAL.0>
1.73063

>  <SCORE.INTRA.POLAR>
0.397051

>  <SCORE.INTRA.POLAR.0>
-0.397051

>  <SCORE.INTRA.REPUL>
0

>  <SCORE.INTRA.REPUL.0>
0

>  <SCORE.INTRA.SOLV>
-1.46715

>  <SCORE.INTRA.SOLV.lig_0>
-41.9535

>  <SCORE.INTRA.VDW>
-1.19015

>  <SCORE.INTRA.VDW.0>
1.67419

>  <SCORE.INTRA.norm>
-0.022289

>  <SCORE.RESTR>
0.0368754

>  <SCORE.RESTR.CAVITY>
0.0368754

>  <SCORE.RESTR.norm>
0.00335231

>  <SCORE.SYSTEM>
-20.7397

>  <SCORE.SYSTEM.CONST>
0

>  <SCORE.SYSTEM.DIHEDRAL>
4.64891

>  <SCORE.SYSTEM.POLAR>
-3.01781

>  <SCORE.SYSTEM.SOLV>
0.250647

>  <SCORE.SYSTEM.VDW>
-5.40029

>  <SCORE.SYSTEM.norm>
-1.88543

>  <SCORE.heavy>
11

>  <SCORE.norm>
-3.50742

$$$$
P112142068
 OpenBabel12072022113D
libRbt.so/2013.1/901 2013/11/27
 18 18  0  0  0  0  0  0  0  0999 V2000
    2.0904   10.2135    4.9401 C   0  0  0  0  0  0  0  0  0  0  0  0
    2.0823   11.7060    4.7424 C   0  0  0  0  0  0  0  0  0  0  0  0
    2.9258   12.4925    5.5412 C   0  0  0  0  0  0  0  0  0  0  0  0
    2.9582   13.8803    5.4031 C   0  0  0  0  0  0  0  0  0  0  0  0
    2.1505   14.5249    4.4588 C   0  0  0  0  0  0  0  0  0  0  0  0
    1.3299   13.7286    3.6456 C   0  0  0  0  0  0  0  0  0  0  0  0
    1.2452   12.3310    3.7948 C   0  0  0  0  0  0  0  0  0  0  0  0
    0.3156   11.5189    2.9308 C   0  0  0  0  0  0  0  0  0  0  0  0
    0.5849   14.3697    2.6843 O   0  0  0  0  0  0  0  0  0  0  0  0
    2.2371   16.0257    4.3172 C   0  0  1  0  0  0  0  0  0  0  0  0
    3.5184   16.5049    3.5648 C   0  0  0  0  0  0  0  0  0  0  0  0
    3.3904   17.0047    2.4249 O   0  0  0  0  0  0  0  0  0  0  0  0
    4.5568   16.1936    4.2457 O   0  5  0  0  0  0  0  0  0  0  0  0
    1.0217   16.6225    3.6317 N   0  3  0  0  0  0  0  0  0  0  0  0
    1.1180   17.6303    3.8948 H   0  0  0  0  0  0  0  0  0  0  0  0
    1.1926   16.6041    2.6181 H   0  0  0  0  0  0  0  0  0  0  0  0
    0.1285   16.2305    3.9069 H   0  0  0  0  0  0  0  0  0  0  0  0
   -0.3272   14.4180    3.0349 H   0  0  0  0  0  0  0  0  0  0  0  0
  1  2  1  0  0  0  0
  2  3  2  0  0  0  0
  2  7  1  0  0  0  0
  3  4  1  0  0  0  0
  4  5  2  0  0  0  0
  5  6  1  0  0  0  0
  5 10  1  0  0  0  0
  6  7  2  0  0  0  0
  6  9  1  0  0  0  0
  7  8  1  0  0  0  0
  9 18  1  0  0  0  0
 10 11  1  6  0  0  0
 10 14  1  0  0  0  0
 11 12  2  0  0  0  0
 11 13  1  0  0  0  0
 14 15  1  0  0  0  0
 14 16  1  0  0  0  0
 14 17  1  0  0  0  0
M  CHG  2  13  -1  14   1
M  END
>  <CHROM.0>
-55.62325320,-71.29823740,-62.70042770,-46.45145250,59.12762281,-176.68086789
-67.23799371,-60.13247218,-168.57650098

>  <CHROM.1>
75.46863796,-102.33379442,110.84351988,162.95098202,2.14569538,14.16012325
3.96391070,-1.88347882,-0.55806202,-0.33213617

>  <Name>
P112142068

>  <RI>
9.71178e+06

>  <Rbt.Current_Directory>
/home/fstefaniak/projects/zuza/docking/adenine/4XNR

>  <Rbt.Executable>
rbdock ($Id: //depot/dev/client3/rdock/2013.1/src/exe/rbdock.cxx#4 $)

>  <Rbt.Library>
libRbt.so (2013.1, Build901 2013/11/27)

>  <Rbt.Parameter_File>
/home/fstefaniak/progs/rDock//data/scripts/dock_solv.prm

>  <Rbt.Receptor>
4xnr.prm

>  <SCORE>
-41.0189

>  <SCORE.INTER>
-25.3053

>  <SCORE.INTER.CONST>
1

>  <SCORE.INTER.POLAR>
-4.36924

>  <SCORE.INTER.ROT>
2

>  <SCORE.INTER.SOLV>
19.2787

>  <SCORE.INTER.VDW>
-13.6656

>  <SCORE.INTER.norm>
-1.80752

>  <SCORE.INTRA>
2.43021

>  <SCORE.INTRA.DIHEDRAL>
1.44057

>  <SCORE.INTRA.DIHEDRAL.0>
6.00157

>  <SCORE.INTRA.POLAR>
0.918696

>  <SCORE.INTRA.POLAR.0>
-0.918696

>  <SCORE.INTRA.REPUL>
0

>  <SCORE.INTRA.REPUL.0>
0

>  <SCORE.INTRA.SOLV>
-0.024085

>  <SCORE.INTRA.SOLV.lig_0>
-46.2569

>  <SCORE.INTRA.VDW>
-1.4016

>  <SCORE.INTRA.VDW.0>
0.378239

>  <SCORE.INTRA.norm>
0.173586

>  <SCORE.RESTR>
1.33866

>  <SCORE.RESTR.CAVITY>
1.33866

>  <SCORE.RESTR.norm>
0.0956189

>  <SCORE.SYSTEM>
-19.4825

>  <SCORE.SYSTEM.CONST>
0

>  <SCORE.SYSTEM.DIHEDRAL>
4.56833

>  <SCORE.SYSTEM.POLAR>
-3.01099

>  <SCORE.SYSTEM.SOLV>
-0.0293494

>  <SCORE.SYSTEM.VDW>
-4.46469

>  <SCORE.SYSTEM.norm>
-1.39161

>  <SCORE.heavy>
14

>  <SCORE.norm>
-2.92992

$$$$
P112142068
 OpenBabel12072022113D
libRbt.so/2013.1/901 2013/11/27
 18 18  0  0  0  0  0  0  0  0999 V2000
    2.8040   13.8407    4.9458 C   0  0  0  0  0  0  0  0  0  0  0  0
    3.4600   14.9597    4.1815 C   0  0  0  0  0  0  0  0  0  0  0  0
    4.8377   14.8813    3.9289 C   0  0  0  0  0  0  0  0  0  0  0  0
    5.4986   15.8900    3.2275 C   0  0  0  0  0  0  0  0  0  0  0  0
    4.8012   17.0073    2.7532 C   0  0  0  0  0  0  0  0  0  0  0  0
    3.4188   17.0646    2.9866 C   0  0  0  0  0  0  0  0  0  0  0  0
    2.7359   16.0828    3.7299 C   0  0  0  0  0  0  0  0  0  0  0  0
    1.2583   16.2074    3.9966 C   0  0  0  0  0  0  0  0  0  0  0  0
    2.7370   18.1390    2.4660 O   0  0  0  0  0  0  0  0  0  0  0  0
    5.5454   18.0626    1.9706 C   0  0  1  0  0  0  0  0  0  0  0  0
    7.0950   17.9869    2.1454 C   0  0  0  0  0  0  0  0  0  0  0  0
    7.8094   17.9197    1.1203 O   0  0  0  0  0  0  0  0  0  0  0  0
    7.3822   17.9013    3.3899 O   0  5  0  0  0  0  0  0  0  0  0  0
    5.2234   18.0309    0.4878 N   0  3  0  0  0  0  0  0  0  0  0  0
    4.9184   19.0187    0.3279 H   0  0  0  0  0  0  0  0  0  0  0  0
    6.1112   17.9500   -0.0243 H   0  0  0  0  0  0  0  0  0  0  0  0
    4.5221   17.3552    0.2074 H   0  0  0  0  0  0  0  0  0  0  0  0
    2.6767   18.7977    3.1868 H   0  0  0  0  0  0  0  0  0  0  0  0
  1  2  1  0  0  0  0
  2  3  2  0  0  0  0
  2  7  1  0  0  0  0
  3  4  1  0  0  0  0
  4  5  2  0  0  0  0
  5  6  1  0  0  0  0
  5 10  1  0  0  0  0
  6  7  2  0  0  0  0
  6  9  1  0  0  0  0
  7  8  1  0  0  0  0
  9 18  1  0  0  0  0
 10 11  1  6  0  0  0
 10 14  1  0  0  0  0
 11 12  2  0  0  0  0
 11 13  1  0  0  0  0
 14 15  1  0  0  0  0
 14 16  1  0  0  0  0
 14 17  1  0  0  0  0
M  CHG  2  13  -1  14   1
M  END
>  <CHROM.0>
-56.02805234,-60.73519979,165.53780044,-46.83154121,-176.56912435,-60.87128994
50.61673118,-58.22571187,-168.32986655

>  <CHROM.1>
-17.28084122,-95.61896110,126.42243419,125.17140862,4.63374838,16.77737214
2.89512388,-2.44153019,0.05709753,-0.67877637

>  <Name>
P112142068

>  <RI>
9.71178e+06

>  <Rbt.Current_Directory>
/home/fstefaniak/projects/zuza/docking/adenine/4XNR

>  <Rbt.Executable>
rbdock ($Id: //depot/dev/client3/rdock/2013.1/src/exe/rbdock.cxx#4 $)

>  <Rbt.Library>
libRbt.so (2013.1, Build901 2013/11/27)

>  <Rbt.Parameter_File>
/home/fstefaniak/progs/rDock//data/scripts/dock_solv.prm

>  <Rbt.Receptor>
4xnr.prm

>  <SCORE>
-39.401

>  <SCORE.INTER>
-24.5119

>  <SCORE.INTER.CONST>
1

>  <SCORE.INTER.POLAR>
-4.85738

>  <SCORE.INTER.ROT>
2

>  <SCORE.INTER.SOLV>
30.1078

>  <SCORE.INTER.VDW>
-15.1193

>  <SCORE.INTER.norm>
-1.75085

>  <SCORE.INTRA>
3.43928

>  <SCORE.INTRA.DIHEDRAL>
4.04028

>  <SCORE.INTRA.DIHEDRAL.0>
6.00157

>  <SCORE.INTRA.POLAR>
0.918696

>  <SCORE.INTRA.POLAR.0>
-0.918696

>  <SCORE.INTRA.REPUL>
0

>  <SCORE.INTRA.REPUL.0>
0

>  <SCORE.INTRA.SOLV>
-2.01845

>  <SCORE.INTRA.SOLV.lig_0>
-46.2569

>  <SCORE.INTRA.VDW>
-0.695207

>  <SCORE.INTRA.VDW.0>
0.378239

>  <SCORE.INTRA.norm>
0.245663

>  <SCORE.RESTR>
0

>  <SCORE.RESTR.CAVITY>
0

>  <SCORE.RESTR.norm>
0

>  <SCORE.SYSTEM>
-18.3284

>  <SCORE.SYSTEM.CONST>
0

>  <SCORE.SYSTEM.DIHEDRAL>
4.98882

>  <SCORE.SYSTEM.POLAR>
-2.97546

>  <SCORE.SYSTEM.SOLV>
0.0228449

>  <SCORE.SYSTEM.VDW>
-3.9713

>  <SCORE.SYSTEM.norm>
-1.30917

>  <SCORE.heavy>
14

>  <SCORE.norm>
-2.81436

$$$$
P112142068
 OpenBabel12072022113D
libRbt.so/2013.1/901 2013/11/27
 18 18  0  0  0  0  0  0  0  0999 V2000
    7.7302   19.0271    4.6226 C   0  0  0  0  0  0  0  0  0  0  0  0
    6.4858   18.2661    4.2498 C   0  0  0  0  0  0  0  0  0  0  0  0
    5.6091   17.8729    5.2720 C   0  0  0  0  0  0  0  0  0  0  0  0
    4.4423   17.1639    4.9853 C   0  0  0  0  0  0  0  0  0  0  0  0
    4.1138   16.8293    3.6663 C   0  0  0  0  0  0  0  0  0  0  0  0
    4.9822   17.2500    2.6477 C   0  0  0  0  0  0  0  0  0  0  0  0
    6.1878   17.9272    2.9134 C   0  0  0  0  0  0  0  0  0  0  0  0
    7.1143   18.3199    1.7921 C   0  0  0  0  0  0  0  0  0  0  0  0
    4.6183   16.9643    1.3530 O   0  0  0  0  0  0  0  0  0  0  0  0
    2.8263   16.0893    3.3930 C   0  0  1  0  0  0  0  0  0  0  0  0
    2.9400   14.5469    3.6062 C   0  0  0  0  0  0  0  0  0  0  0  0
    3.6488   14.1243    4.5468 O   0  0  0  0  0  0  0  0  0  0  0  0
    2.3289   13.9374    2.6609 O   0  5  0  0  0  0  0  0  0  0  0  0
    1.6636   16.6077    4.2194 N   0  3  0  0  0  0  0  0  0  0  0  0
    1.9496   16.3057    5.1792 H   0  0  0  0  0  0  0  0  0  0  0  0
    1.7283   17.6335    4.2429 H   0  0  0  0  0  0  0  0  0  0  0  0
    0.7498   16.2576    3.9557 H   0  0  0  0  0  0  0  0  0  0  0  0
    4.6639   17.8109    0.8648 H   0  0  0  0  0  0  0  0  0  0  0  0
  1  2  1  0  0  0  0
  2  3  2  0  0  0  0
  2  7  1  0  0  0  0
  3  4  1  0  0  0  0
  4  5  2  0  0  0  0
  5  6  1  0  0  0  0
  5 10  1  0  0  0  0
  6  7  2  0  0  0  0
  6  9  1  0  0  0  0
  7  8  1  0  0  0  0
  9 18  1  0  0  0  0
 10 11  1  1  0  0  0
 10 14  1  0  0  0  0
 11 12  2  0  0  0  0
 11 13  1  0  0  0  0
 14 15  1  0  0  0  0
 14 16  1  0  0  0  0
 14 17  1  0  0  0  0
M  CHG  2  13  -1  14   1
M  END
>  <CHROM.0>
-57.87263840,-62.04106357,-65.40174146,-47.12975852,-60.56644867,-66.24018071
-68.61621074,-58.32655048,-168.39782897

>  <CHROM.1>
-82.57935168,127.79267006,37.06970428,-68.48715685,4.55705508,16.73734884
3.53330718,0.09191388,0.68611473,1.42010815

>  <Name>
P112142068

>  <RI>
9.71178e+06

>  <Rbt.Current_Directory>
/home/fstefaniak/projects/zuza/docking/adenine/4XNR

>  <Rbt.Executable>
rbdock ($Id: //depot/dev/client3/rdock/2013.1/src/exe/rbdock.cxx#4 $)

>  <Rbt.Library>
libRbt.so (2013.1, Build901 2013/11/27)

>  <Rbt.Parameter_File>
/home/fstefaniak/progs/rDock//data/scripts/dock_solv.prm

>  <Rbt.Receptor>
4xnr.prm

>  <SCORE>
-37.7816

>  <SCORE.INTER>
-16.4284

>  <SCORE.INTER.CONST>
1

>  <SCORE.INTER.POLAR>
-4.22514

>  <SCORE.INTER.ROT>
2

>  <SCORE.INTER.SOLV>
23.4267

>  <SCORE.INTER.VDW>
-9.61074

>  <SCORE.INTER.norm>
-1.17346

>  <SCORE.INTRA>
-0.461983

>  <SCORE.INTRA.DIHEDRAL>
-0.809027

>  <SCORE.INTRA.DIHEDRAL.0>
6.00157

>  <SCORE.INTRA.POLAR>
0.918696

>  <SCORE.INTRA.POLAR.0>
-0.918696

>  <SCORE.INTRA.REPUL>
0

>  <SCORE.INTRA.REPUL.0>
0

>  <SCORE.INTRA.SOLV>
-2.94176

>  <SCORE.INTRA.SOLV.lig_0>
-46.2569

>  <SCORE.INTRA.VDW>
-1.71016

>  <SCORE.INTRA.VDW.0>
0.378239

>  <SCORE.INTRA.norm>
-0.0329988

>  <SCORE.RESTR>
0

>  <SCORE.RESTR.CAVITY>
0

>  <SCORE.RESTR.norm>
0

>  <SCORE.SYSTEM>
-20.8912

>  <SCORE.SYSTEM.CONST>
0

>  <SCORE.SYSTEM.DIHEDRAL>
4.19437

>  <SCORE.SYSTEM.POLAR>
-2.98595

>  <SCORE.SYSTEM.SOLV>
0.27528

>  <SCORE.SYSTEM.VDW>
-5.46414

>  <SCORE.SYSTEM.norm>
-1.49223

>  <SCORE.heavy>
14

>  <SCORE.norm>
-2.69868

$$$$
P112221919
 OpenBabel12072022113D
libRbt.so/2013.1/901 2013/11/27
 15 14  0  0  0  0  0  0  0  0999 V2000
    5.9745   18.7264    6.2178 C   0  0  0  0  0  0  0  0  0  0  0  0
    6.5281   18.5153    4.8128 C   0  0  1  0  0  0  0  0  0  0  0  0
    5.5086   17.9847    3.7843 C   0  0  1  0  0  0  0  0  0  0  0  0
    6.0406   17.9741    2.3669 C   0  0  0  0  0  0  0  0  0  0  0  0
    7.1562   18.5817    2.1016 N   0  0  0  0  0  0  0  0  0  0  0  0
    7.4627   18.4587    0.7391 O   0  0  0  0  0  0  0  0  0  0  0  0
    5.3125   17.3368    1.4363 O   0  0  0  0  0  0  0  0  0  0  0  0
    5.1069   16.5944    4.2272 N   0  3  0  0  0  0  0  0  0  0  0  0
    4.3756   16.2312    3.5991 H   0  0  0  0  0  0  0  0  0  0  0  0
    5.9404   15.9871    4.1617 H   0  0  0  0  0  0  0  0  0  0  0  0
    4.7340   16.5784    5.1815 H   0  0  0  0  0  0  0  0  0  0  0  0
    6.9638   19.7962    4.3175 O   0  0  0  0  0  0  0  0  0  0  0  0
    8.3833   18.7763    0.6695 H   0  0  0  0  0  0  0  0  0  0  0  0
    4.4451   16.9979    1.7086 H   0  0  0  0  0  0  0  0  0  0  0  0
    6.1840   20.3909    4.3067 H   0  0  0  0  0  0  0  0  0  0  0  0
  2  1  1  1  0  0  0
  2  3  1  0  0  0  0
  2 12  1  0  0  0  0
  3  4  1  6  0  0  0
  3  8  1  0  0  0  0
  4  5  2  0  0  0  0
  4  7  1  0  0  0  0
  5  6  1  0  0  0  0
  6 13  1  0  0  0  0
  7 14  1  0  0  0  0
  8  9  1  0  0  0  0
  8 10  1  0  0  0  0
  8 11  1  0  0  0  0
 12 15  1  0  0  0  0
M  CHG  1   8   1
M  END
>  <CHROM.0>
-58.71349174,52.72448176,-73.63486812,-49.89653119,-66.65004197,-66.00945607
-170.38893300,-173.34005443,-168.67970361

>  <CHROM.1>
171.88099090,-59.98631264,-10.96504037,176.10645744,6.00123944,-168.83334321
6.22298952,18.20706064,3.30127801,-1.79781440,-0.82962823,-1.83952543

>  <Name>
P112221919

>  <RI>
3.58524e+07

>  <Rbt.Current_Directory>
/home/fstefaniak/projects/zuza/docking/adenine/4XNR

>  <Rbt.Executable>
rbdock ($Id: //depot/dev/client3/rdock/2013.1/src/exe/rbdock.cxx#4 $)

>  <Rbt.Library>
libRbt.so (2013.1, Build901 2013/11/27)

>  <Rbt.Parameter_File>
/home/fstefaniak/progs/rDock//data/scripts/dock_solv.prm

>  <Rbt.Receptor>
4xnr.prm

>  <SCORE>
-58.2327

>  <SCORE.INTER>
-39.6481

>  <SCORE.INTER.CONST>
1

>  <SCORE.INTER.POLAR>
-5.90847

>  <SCORE.INTER.ROT>
2

>  <SCORE.INTER.SOLV>
18.3157

>  <SCORE.INTER.VDW>
-17.7757

>  <SCORE.INTER.norm>
-4.40535

>  <SCORE.INTRA>
0.739761

>  <SCORE.INTRA.DIHEDRAL>
-1.16104

>  <SCORE.INTRA.DIHEDRAL.0>
4.77047

>  <SCORE.INTRA.POLAR>
0.329506

>  <SCORE.INTRA.POLAR.0>
-0.329506

>  <SCORE.INTRA.REPUL>
0

>  <SCORE.INTRA.REPUL.0>
0

>  <SCORE.INTRA.SOLV>
-0.667843

>  <SCORE.INTRA.SOLV.lig_0>
-33.5461

>  <SCORE.INTRA.VDW>
0.533879

>  <SCORE.INTRA.VDW.0>
0.214744

>  <SCORE.INTRA.norm>
0.0821957

>  <SCORE.RESTR>
0

>  <SCORE.RESTR.CAVITY>
0

>  <SCORE.RESTR.norm>
0

>  <SCORE.SYSTEM>
-19.3244

>  <SCORE.SYSTEM.CONST>
0

>  <SCORE.SYSTEM.DIHEDRAL>
5.22959

>  <SCORE.SYSTEM.POLAR>
-2.92285

>  <SCORE.SYSTEM.SOLV>
0.16892

>  <SCORE.SYSTEM.VDW>
-4.93956

>  <SCORE.SYSTEM.norm>
-2.14715

>  <SCORE.heavy>
9

>  <SCORE.norm>
-6.4703

$$$$
P112221919
 OpenBabel12072022113D
libRbt.so/2013.1/901 2013/11/27
 15 14  0  0  0  0  0  0  0  0999 V2000
    5.9967   18.7673    6.2431 C   0  0  0  0  0  0  0  0  0  0  0  0
    6.5251   18.5138    4.8354 C   0  0  1  0  0  0  0  0  0  0  0  0
    5.4755   18.0002    3.8287 C   0  0  1  0  0  0  0  0  0  0  0  0
    5.9624   18.0215    2.3953 C   0  0  0  0  0  0  0  0  0  0  0  0
    7.0662   18.6404    2.1075 N   0  0  0  0  0  0  0  0  0  0  0  0
    7.3299   18.5470    0.7338 O   0  0  0  0  0  0  0  0  0  0  0  0
    5.2080   17.3998    1.4752 O   0  0  0  0  0  0  0  0  0  0  0  0
    5.0933   16.5992    4.2548 N   0  3  0  0  0  0  0  0  0  0  0  0
    4.7661   16.6140    5.2315 H   0  0  0  0  0  0  0  0  0  0  0  0
    4.3220   16.2812    3.6450 H   0  0  0  0  0  0  0  0  0  0  0  0
    5.8788   15.9435    4.1993 H   0  0  0  0  0  0  0  0  0  0  0  0
    6.9971   19.7706    4.3125 O   0  0  0  0  0  0  0  0  0  0  0  0
    8.2591   18.8337    0.6466 H   0  0  0  0  0  0  0  0  0  0  0  0
    4.3643   17.0256    1.7741 H   0  0  0  0  0  0  0  0  0  0  0  0
    6.2215   20.3642    4.2218 H   0  0  0  0  0  0  0  0  0  0  0  0
  2  1  1  1  0  0  0
  2  3  1  0  0  0  0
  2 12  1  0  0  0  0
  3  4  1  6  0  0  0
  3  8  1  0  0  0  0
  4  5  2  0  0  0  0
  4  7  1  0  0  0  0
  5  6  1  0  0  0  0
  6 13  1  0  0  0  0
  7 14  1  0  0  0  0
  8  9  1  0  0  0  0
  8 10  1  0  0  0  0
  8 11  1  0  0  0  0
 12 15  1  0  0  0  0
M  CHG  1   8   1
M  END
>  <CHROM.0>
-59.98691188,51.96351988,-73.35896503,-49.80177893,-173.42577785,-62.18255629
-171.64071745,-55.69767310,-168.07194620

>  <CHROM.1>
168.61464084,-65.19095210,-11.01350290,55.77641530,4.07170253,-166.44026895
6.17828614,18.23939361,3.32063893,-1.75451023,-0.83284162,-1.78924938

>  <Name>
P112221919

>  <RI>
3.58524e+07

>  <Rbt.Current_Directory>
/home/fstefaniak/projects/zuza/docking/adenine/4XNR

>  <Rbt.Executable>
rbdock ($Id: //depot/dev/client3/rdock/2013.1/src/exe/rbdock.cxx#4 $)

>  <Rbt.Library>
libRbt.so (2013.1, Build901 2013/11/27)

>  <Rbt.Parameter_File>
/home/fstefaniak/progs/rDock//data/scripts/dock_solv.prm

>  <Rbt.Receptor>
4xnr.prm

>  <SCORE>
-57.965

>  <SCORE.INTER>
-39.4736

>  <SCORE.INTER.CONST>
1

>  <SCORE.INTER.POLAR>
-5.87087

>  <SCORE.INTER.ROT>
2

>  <SCORE.INTER.SOLV>
18.26

>  <SCORE.INTER.VDW>
-17.7662

>  <SCORE.INTER.norm>
-4.38596

>  <SCORE.INTRA>
0.983143

>  <SCORE.INTRA.DIHEDRAL>
-1.00409

>  <SCORE.INTRA.DIHEDRAL.0>
4.77047

>  <SCORE.INTRA.POLAR>
0.329506

>  <SCORE.INTRA.POLAR.0>
-0.329506

>  <SCORE.INTRA.REPUL>
0

>  <SCORE.INTRA.REPUL.0>
0

>  <SCORE.INTRA.SOLV>
-0.70734

>  <SCORE.INTRA.SOLV.lig_0>
-33.5461

>  <SCORE.INTRA.VDW>
0.718539

>  <SCORE.INTRA.VDW.0>
0.214744

>  <SCORE.INTRA.norm>
0.109238

>  <SCORE.RESTR>
0

>  <SCORE.RESTR.CAVITY>
0

>  <SCORE.RESTR.norm>
0

>  <SCORE.SYSTEM>
-19.4745

>  <SCORE.SYSTEM.CONST>
0

>  <SCORE.SYSTEM.DIHEDRAL>
4.95399

>  <SCORE.SYSTEM.POLAR>
-2.94338

>  <SCORE.SYSTEM.SOLV>
0.155348

>  <SCORE.SYSTEM.VDW>
-4.87485

>  <SCORE.SYSTEM.norm>
-2.16383

>  <SCORE.heavy>
9

>  <SCORE.norm>
-6.44055

$$$$
P112221919
 OpenBabel12072022113D
libRbt.so/2013.1/901 2013/11/27
 15 14  0  0  0  0  0  0  0  0999 V2000
    5.9709   18.6118    6.2702 C   0  0  0  0  0  0  0  0  0  0  0  0
    6.4868   18.4676    4.8425 C   0  0  1  0  0  0  0  0  0  0  0  0
    5.4464   17.9619    3.8224 C   0  0  1  0  0  0  0  0  0  0  0  0
    5.9223   18.0546    2.3882 C   0  0  0  0  0  0  0  0  0  0  0  0
    6.9787   18.7563    2.1126 N   0  0  0  0  0  0  0  0  0  0  0  0
    7.2404   18.7174    0.7358 O   0  0  0  0  0  0  0  0  0  0  0  0
    5.2079   17.4059    1.4549 O   0  0  0  0  0  0  0  0  0  0  0  0
    5.1102   16.5341    4.1950 N   0  3  0  0  0  0  0  0  0  0  0  0
    4.4000   16.1672    3.5453 H   0  0  0  0  0  0  0  0  0  0  0  0
    5.9723   15.9714    4.1059 H   0  0  0  0  0  0  0  0  0  0  0  0
    4.7344   16.4539    5.1450 H   0  0  0  0  0  0  0  0  0  0  0  0
    6.8874   19.7749    4.3882 O   0  0  0  0  0  0  0  0  0  0  0  0
    8.1956   18.9070    0.6666 H   0  0  0  0  0  0  0  0  0  0  0  0
    5.2988   17.7092    0.5379 H   0  0  0  0  0  0  0  0  0  0  0  0
    6.0828   20.3343    4.3475 H   0  0  0  0  0  0  0  0  0  0  0  0
  2  1  1  1  0  0  0
  2  3  1  0  0  0  0
  2 12  1  0  0  0  0
  3  4  1  6  0  0  0
  3  8  1  0  0  0  0
  4  5  2  0  0  0  0
  4  7  1  0  0  0  0
  5  6  1  0  0  0  0
  6 13  1  0  0  0  0
  7 14  1  0  0  0  0
  8  9  1  0  0  0  0
  8 10  1  0  0  0  0
  8 11  1  0  0  0  0
 12 15  1  0  0  0  0
M  CHG  1   8   1
M  END
>  <CHROM.0>
-57.89226915,-61.87841210,-71.95567010,-47.30778615,-174.01897822,-63.10943163
-169.30105180,61.43582608,-167.90373442

>  <CHROM.1>
170.25604280,-64.96053283,-13.37757660,178.79966599,158.29988671,-156.06107394
6.14095426,18.24715603,3.31400901,-1.75463256,-0.88569493,-1.74746138

>  <Name>
P112221919

>  <RI>
3.58524e+07

>  <Rbt.Current_Directory>
/home/fstefaniak/projects/zuza/docking/adenine/4XNR

>  <Rbt.Executable>
rbdock ($Id: //depot/dev/client3/rdock/2013.1/src/exe/rbdock.cxx#4 $)

>  <Rbt.Library>
libRbt.so (2013.1, Build901 2013/11/27)

>  <Rbt.Parameter_File>
/home/fstefaniak/progs/rDock//data/scripts/dock_solv.prm

>  <Rbt.Receptor>
4xnr.prm

>  <SCORE>
-55.985

>  <SCORE.INTER>
-38.4034

>  <SCORE.INTER.CONST>
1

>  <SCORE.INTER.POLAR>
-5.675

>  <SCORE.INTER.ROT>
2

>  <SCORE.INTER.SOLV>
18.2648

>  <SCORE.INTER.VDW>
-17.7072

>  <SCORE.INTER.norm>
-4.26705

>  <SCORE.INTRA>
1.73694

>  <SCORE.INTRA.DIHEDRAL>
1.55042

>  <SCORE.INTRA.DIHEDRAL.0>
4.77047

>  <SCORE.INTRA.POLAR>
0.329506

>  <SCORE.INTRA.POLAR.0>
-0.329506

>  <SCORE.INTRA.REPUL>
0

>  <SCORE.INTRA.REPUL.0>
0

>  <SCORE.INTRA.SOLV>
-1.02336

>  <SCORE.INTRA.SOLV.lig_0>
-33.5461

>  <SCORE.INTRA.VDW>
0.353087

>  <SCORE.INTRA.VDW.0>
0.214744

>  <SCORE.INTRA.norm>
0.192993

>  <SCORE.RESTR>
0

>  <SCORE.RESTR.CAVITY>
0

>  <SCORE.RESTR.norm>
0

>  <SCORE.SYSTEM>
-19.3185

>  <SCORE.SYSTEM.CONST>
0

>  <SCORE.SYSTEM.DIHEDRAL>
4.91974

>  <SCORE.SYSTEM.POLAR>
-2.96928

>  <SCORE.SYSTEM.SOLV>
-0.117629

>  <SCORE.SYSTEM.VDW>
-4.5821

>  <SCORE.SYSTEM.norm>
-2.1465

>  <SCORE.heavy>
9

>  <SCORE.norm>
-6.22056

$$$$
P112429950
 OpenBabel12072022113D
libRbt.so/2013.1/901 2013/11/27
 15 15  0  0  0  0  0  0  0  0999 V2000
    5.4868   18.0800    6.0522 C   0  0  0  0  0  0  0  0  0  0  0  0
    6.6159   18.8394    6.3754 C   0  0  0  0  0  0  0  0  0  0  0  0
    7.5961   19.0451    5.4135 C   0  0  0  0  0  0  0  0  0  0  0  0
    7.4613   18.5052    4.1417 C   0  0  0  0  0  0  0  0  0  0  0  0
    6.3315   17.7452    3.8205 C   0  0  0  0  0  0  0  0  0  0  0  0
    5.3344   17.5247    4.7727 C   0  0  0  0  0  0  0  0  0  0  0  0
    4.1633   16.7720    4.5361 N   0  0  0  0  0  0  0  0  0  0  0  0
    3.8633   16.0093    3.4163 C   0  0  0  0  0  0  0  0  0  0  0  0
    4.5686   15.8741    2.4201 O   0  0  0  0  0  0  0  0  0  0  0  0
    2.4978   15.3593    3.4694 C   0  0  0  0  0  0  0  0  0  0  0  0
    1.4595   16.3441    3.7652 C   0  0  0  0  0  0  0  0  0  0  0  0
    0.6254   17.1303    3.9471 N   0  0  0  0  0  0  0  0  0  0  0  0
    8.7142   19.7763    5.6800 O   0  0  0  0  0  0  0  0  0  0  0  0
    3.4970   16.7646    5.3003 H   0  0  0  0  0  0  0  0  0  0  0  0
    8.7202   20.0073    6.6231 H   0  0  0  0  0  0  0  0  0  0  0  0
  1  2  2  0  0  0  0
  1  6  1  0  0  0  0
  2  3  1  0  0  0  0
  3  4  2  0  0  0  0
  3 13  1  0  0  0  0
  4  5  1  0  0  0  0
  5  6  2  0  0  0  0
  6  7  1  0  0  0  0
  7  8  1  0  0  0  0
  7 14  1  0  0  0  0
  8  9  2  0  0  0  0
  8 10  1  0  0  0  0
 10 11  1  0  0  0  0
 11 12  3  0  0  0  0
 13 15  1  0  0  0  0
M  END
>  <CHROM.0>
-58.17344194,-63.20863539,-65.62825789,-46.21385151,-174.46317128,-62.48568593
-69.13263008,-59.79445776,-166.35768882

>  <CHROM.1>
5.99477064,-172.14260568,52.11329080,5.01385151,17.47232249,4.44534064,0.52743956
0.20280482,0.91715547

>  <Name>
P112429950

>  <RI>
3.4169e+07

>  <Rbt.Current_Directory>
/home/fstefaniak/projects/zuza/docking/adenine/4XNR

>  <Rbt.Executable>
rbdock ($Id: //depot/dev/client3/rdock/2013.1/src/exe/rbdock.cxx#4 $)

>  <Rbt.Library>
libRbt.so (2013.1, Build901 2013/11/27)

>  <Rbt.Parameter_File>
/home/fstefaniak/progs/rDock//data/scripts/dock_solv.prm

>  <Rbt.Receptor>
4xnr.prm

>  <SCORE>
-51.3115

>  <SCORE.INTER>
-30.6679

>  <SCORE.INTER.CONST>
1

>  <SCORE.INTER.POLAR>
-3.49547

>  <SCORE.INTER.ROT>
2

>  <SCORE.INTER.SOLV>
14.5592

>  <SCORE.INTER.VDW>
-18.5801

>  <SCORE.INTER.norm>
-2.35907

>  <SCORE.INTRA>
0.225747

>  <SCORE.INTRA.DIHEDRAL>
0.212077

>  <SCORE.INTRA.DIHEDRAL.0>
1.36142

>  <SCORE.INTRA.POLAR>
0

>  <SCORE.INTRA.POLAR.0>
0

>  <SCORE.INTRA.REPUL>
0

>  <SCORE.INTRA.REPUL.0>
0

>  <SCORE.INTRA.SOLV>
0.0715274

>  <SCORE.INTRA.SOLV.lig_0>
-18.2446

>  <SCORE.INTRA.VDW>
0.0839451

>  <SCORE.INTRA.VDW.0>
-0.175871

>  <SCORE.INTRA.norm>
0.0173652

>  <SCORE.RESTR>
0

>  <SCORE.RESTR.CAVITY>
0

>  <SCORE.RESTR.norm>
0

>  <SCORE.SYSTEM>
-20.8694

>  <SCORE.SYSTEM.CONST>
0

>  <SCORE.SYSTEM.DIHEDRAL>
4.57056

>  <SCORE.SYSTEM.POLAR>
-2.99986

>  <SCORE.SYSTEM.SOLV>
0.106173

>  <SCORE.SYSTEM.VDW>
-5.47231

>  <SCORE.SYSTEM.norm>
-1.60534

>  <SCORE.heavy>
13

>  <SCORE.norm>
-3.94704

$$$$
P112429950
 OpenBabel12072022113D
libRbt.so/2013.1/901 2013/11/27
 15 15  0  0  0  0  0  0  0  0999 V2000
    5.4975   18.1147    6.0586 C   0  0  0  0  0  0  0  0  0  0  0  0
    6.6212   18.8858    6.3727 C   0  0  0  0  0  0  0  0  0  0  0  0
    7.6084   19.0722    5.4140 C   0  0  0  0  0  0  0  0  0  0  0  0
    7.4858   18.5018    4.1544 C   0  0  0  0  0  0  0  0  0  0  0  0
    6.3614   17.7301    3.8424 C   0  0  0  0  0  0  0  0  0  0  0  0
    5.3575   17.5286    4.7914 C   0  0  0  0  0  0  0  0  0  0  0  0
    4.1910   16.7660    4.5635 N   0  0  0  0  0  0  0  0  0  0  0  0
    3.8926   15.9948    3.4491 C   0  0  0  0  0  0  0  0  0  0  0  0
    4.5952   15.8589    2.4512 O   0  0  0  0  0  0  0  0  0  0  0  0
    2.5320   15.3352    3.5110 C   0  0  0  0  0  0  0  0  0  0  0  0
    1.5012   16.2950    3.9005 C   0  0  0  0  0  0  0  0  0  0  0  0
    0.6713   17.0644    4.1575 N   0  0  0  0  0  0  0  0  0  0  0  0
    8.7217   19.8137    5.6720 O   0  0  0  0  0  0  0  0  0  0  0  0
    3.5276   16.7582    5.3301 H   0  0  0  0  0  0  0  0  0  0  0  0
    8.7461   20.0232    6.6198 H   0  0  0  0  0  0  0  0  0  0  0  0
  1  2  2  0  0  0  0
  1  6  1  0  0  0  0
  2  3  1  0  0  0  0
  3  4  2  0  0  0  0
  3 13  1  0  0  0  0
  4  5  1  0  0  0  0
  5  6  2  0  0  0  0
  6  7  1  0  0  0  0
  7  8  1  0  0  0  0
  7 14  1  0  0  0  0
  8  9  2  0  0  0  0
  8 10  1  0  0  0  0
 10 11  1  0  0  0  0
 11 12  3  0  0  0  0
 13 15  1  0  0  0  0
M  END
>  <CHROM.0>
-61.39511408,-59.72605910,-70.58668499,-48.24492464,-63.97642246,-179.87282387
-172.19617410,-66.32772596,-168.03053276

>  <CHROM.1>
9.26731719,-173.39228254,47.97920435,5.03830974,17.46915811,4.48540548,0.52275379
0.22232595,0.91223628

>  <Name>
P112429950

>  <RI>
3.4169e+07

>  <Rbt.Current_Directory>
/home/fstefaniak/projects/zuza/docking/adenine/4XNR

>  <Rbt.Executable>
rbdock ($Id: //depot/dev/client3/rdock/2013.1/src/exe/rbdock.cxx#4 $)

>  <Rbt.Library>
libRbt.so (2013.1, Build901 2013/11/27)

>  <Rbt.Parameter_File>
/home/fstefaniak/progs/rDock//data/scripts/dock_solv.prm

>  <Rbt.Receptor>
4xnr.prm

>  <SCORE>
-50.5727

>  <SCORE.INTER>
-30.9264

>  <SCORE.INTER.CONST>
1

>  <SCORE.INTER.POLAR>
-3.42791

>  <SCORE.INTER.ROT>
2

>  <SCORE.INTER.SOLV>
14.6509

>  <SCORE.INTER.VDW>
-19.0082

>  <SCORE.INTER.norm>
-2.37895

>  <SCORE.INTRA>
0.337331

>  <SCORE.INTRA.DIHEDRAL>
0.240273

>  <SCORE.INTRA.DIHEDRAL.0>
1.36142

>  <SCORE.INTRA.POLAR>
0

>  <SCORE.INTRA.POLAR.0>
0

>  <SCORE.INTRA.REPUL>
0

>  <SCORE.INTRA.REPUL.0>
0

>  <SCORE.INTRA.SOLV>
0.102584

>  <SCORE.INTRA.SOLV.lig_0>
-18.2446

>  <SCORE.INTRA.VDW>
0.165902

>  <SCORE.INTRA.VDW.0>
-0.175871

>  <SCORE.INTRA.norm>
0.0259485

>  <SCORE.RESTR>
0

>  <SCORE.RESTR.CAVITY>
0

>  <SCORE.RESTR.norm>
0

>  <SCORE.SYSTEM>
-19.9837

>  <SCORE.SYSTEM.CONST>
0

>  <SCORE.SYSTEM.DIHEDRAL>
4.44445

>  <SCORE.SYSTEM.POLAR>
-2.93821

>  <SCORE.SYSTEM.SOLV>
0.0995225

>  <SCORE.SYSTEM.VDW>
-5.04306

>  <SCORE.SYSTEM.norm>
-1.5372

>  <SCORE.heavy>
13

>  <SCORE.norm>
-3.89021

$$$$
P112429950
 OpenBabel12072022113D
libRbt.so/2013.1/901 2013/11/27
 15 15  0  0  0  0  0  0  0  0999 V2000
    5.4746   18.1084    6.0409 C   0  0  0  0  0  0  0  0  0  0  0  0
    6.6011   18.8719    6.3633 C   0  0  0  0  0  0  0  0  0  0  0  0
    7.5930   19.0582    5.4094 C   0  0  0  0  0  0  0  0  0  0  0  0
    7.4723   18.4949    4.1465 C   0  0  0  0  0  0  0  0  0  0  0  0
    6.3451   17.7307    3.8261 C   0  0  0  0  0  0  0  0  0  0  0  0
    5.3364   17.5296    4.7702 C   0  0  0  0  0  0  0  0  0  0  0  0
    4.1669   16.7743    4.5338 N   0  0  0  0  0  0  0  0  0  0  0  0
    3.8743   16.0001    3.4199 C   0  0  0  0  0  0  0  0  0  0  0  0
    4.5860   15.8547    2.4298 O   0  0  0  0  0  0  0  0  0  0  0  0
    2.5084   15.3506    3.4709 C   0  0  0  0  0  0  0  0  0  0  0  0
    1.4809   16.3191    3.8471 C   0  0  0  0  0  0  0  0  0  0  0  0
    0.6541   17.0954    4.0934 N   0  0  0  0  0  0  0  0  0  0  0  0
    8.7091   19.7925    5.6756 O   0  0  0  0  0  0  0  0  0  0  0  0
    3.4957   16.7747    5.2937 H   0  0  0  0  0  0  0  0  0  0  0  0
    8.7202   20.0146    6.6207 H   0  0  0  0  0  0  0  0  0  0  0  0
  1  2  2  0  0  0  0
  1  6  1  0  0  0  0
  2  3  1  0  0  0  0
  3  4  2  0  0  0  0
  3 13  1  0  0  0  0
  4  5  1  0  0  0  0
  5  6  2  0  0  0  0
  6  7  1  0  0  0  0
  7  8  1  0  0  0  0
  7 14  1  0  0  0  0
  8  9  2  0  0  0  0
  8 10  1  0  0  0  0
 10 11  1  0  0  0  0
 11 12  3  0  0  0  0
 13 15  1  0  0  0  0
M  END
>  <CHROM.0>
-59.11234368,-65.50407034,-73.28191922,-48.84888172,-59.50881132,-176.41172387
-170.92736605,-175.91255352,-168.48956935

>  <CHROM.1>
7.96018756,-172.72129015,47.91185198,5.02033505,17.47041183,4.46176237,0.52552918
0.21247235,0.91083318

>  <Name>
P112429950

>  <RI>
3.4169e+07

>  <Rbt.Current_Directory>
/home/fstefaniak/projects/zuza/docking/adenine/4XNR

>  <Rbt.Executable>
rbdock ($Id: //depot/dev/client3/rdock/2013.1/src/exe/rbdock.cxx#4 $)

>  <Rbt.Library>
libRbt.so (2013.1, Build901 2013/11/27)

>  <Rbt.Parameter_File>
/home/fstefaniak/progs/rDock//data/scripts/dock_solv.prm

>  <Rbt.Receptor>
4xnr.prm

>  <SCORE>
-50.4423

>  <SCORE.INTER>
-30.7471

>  <SCORE.INTER.CONST>
1

>  <SCORE.INTER.POLAR>
-3.49378

>  <SCORE.INTER.ROT>
2

>  <SCORE.INTER.SOLV>
14.5892

>  <SCORE.INTER.VDW>
-18.6485

>  <SCORE.INTER.norm>
-2.36516

>  <SCORE.INTRA>
0.339118

>  <SCORE.INTRA.DIHEDRAL>
0.236177

>  <SCORE.INTRA.DIHEDRAL.0>
1.36142

>  <SCORE.INTRA.POLAR>
0

>  <SCORE.INTRA.POLAR.0>
0

>  <SCORE.INTRA.REPUL>
0

>  <SCORE.INTRA.REPUL.0>
0

>  <SCORE.INTRA.SOLV>
0.102833

>  <SCORE.INTRA.SOLV.lig_0>
-18.2446

>  <SCORE.INTRA.VDW>
0.169613

>  <SCORE.INTRA.VDW.0>
-0.175871

>  <SCORE.INTRA.norm>
0.026086

>  <SCORE.RESTR>
0

>  <SCORE.RESTR.CAVITY>
0

>  <SCORE.RESTR.norm>
0

>  <SCORE.SYSTEM>
-20.0343

>  <SCORE.SYSTEM.CONST>
0

>  <SCORE.SYSTEM.DIHEDRAL>
4.72923

>  <SCORE.SYSTEM.POLAR>
-2.92219

>  <SCORE.SYSTEM.SOLV>
-0.0251406

>  <SCORE.SYSTEM.VDW>
-5.1836

>  <SCORE.SYSTEM.norm>
-1.5411

>  <SCORE.heavy>
13

>  <SCORE.norm>
-3.88018

$$$$
P114849488
 OpenBabel12072022113D
libRbt.so/2013.1/901 2013/11/27
 13 12  0  0  0  0  0  0  0  0999 V2000
    5.9376   19.0840    7.1500 C   0  0  0  0  0  0  0  0  0  0  0  0
    5.3904   17.9123    5.8818 S   0  0  0  0  0  0  0  0  0  0  0  0
    6.4213   18.4598    4.5282 C   0  0  0  0  0  0  0  0  0  0  0  0
    6.0954   18.0425    3.2763 C   0  0  0  0  0  0  0  0  0  0  0  0
    6.8612   18.4327    2.1440 C   0  0  0  0  0  0  0  0  0  0  0  0
    7.5093   18.7767    1.2453 N   0  0  0  0  0  0  0  0  0  0  0  0
    4.9157   17.1266    2.9940 C   0  0  0  0  0  0  0  0  0  0  0  0
    3.9369   16.3668    2.7598 N   0  0  0  0  0  0  0  0  0  0  0  0
    7.5248   19.2880    4.7866 N   0  0  0  0  0  0  0  0  0  0  0  0
    8.5201   18.9125    5.7022 N   0  0  0  0  0  0  0  0  0  0  0  0
    7.3821   20.2980    4.6747 H   0  0  0  0  0  0  0  0  0  0  0  0
    8.2692   18.0297    6.1584 H   0  0  0  0  0  0  0  0  0  0  0  0
    8.5822   19.5904    6.4685 H   0  0  0  0  0  0  0  0  0  0  0  0
  1  2  1  0  0  0  0
  2  3  1  0  0  0  0
  3  4  2  0  0  0  0
  3  9  1  0  0  0  0
  4  5  1  0  0  0  0
  4  7  1  0  0  0  0
  5  6  3  0  0  0  0
  7  8  3  0  0  0  0
  9 10  1  0  0  0  0
  9 11  1  0  0  0  0
 10 12  1  0  0  0  0
 10 13  1  0  0  0  0
M  END
>  <CHROM.0>
-55.45839349,-63.33624826,-64.40172679,-47.37853353,-57.01265580,-61.16572046
-68.60715606,-66.33294782,-167.75957819

>  <CHROM.1>
-164.53579663,55.17053576,-4.07381857,6.24792324,18.23997926,4.35807911,1.38277080
0.52629745,1.42330452

>  <Name>
P114849488

>  <RI>
1.00763e+07

>  <Rbt.Current_Directory>
/home/fstefaniak/projects/zuza/docking/adenine/4XNR

>  <Rbt.Executable>
rbdock ($Id: //depot/dev/client3/rdock/2013.1/src/exe/rbdock.cxx#4 $)

>  <Rbt.Library>
libRbt.so (2013.1, Build901 2013/11/27)

>  <Rbt.Parameter_File>
/home/fstefaniak/progs/rDock//data/scripts/dock_solv.prm

>  <Rbt.Receptor>
4xnr.prm

>  <SCORE>
-53.2985

>  <SCORE.INTER>
-32.3379

>  <SCORE.INTER.CONST>
1

>  <SCORE.INTER.POLAR>
-4.33066

>  <SCORE.INTER.ROT>
3

>  <SCORE.INTER.SOLV>
14.1388

>  <SCORE.INTER.VDW>
-17.436

>  <SCORE.INTER.norm>
-3.23379

>  <SCORE.INTRA>
-0.152136

>  <SCORE.INTRA.DIHEDRAL>
-2.74045

>  <SCORE.INTRA.DIHEDRAL.0>
4.7079

>  <SCORE.INTRA.POLAR>
0

>  <SCORE.INTRA.POLAR.0>
0

>  <SCORE.INTRA.REPUL>
0

>  <SCORE.INTRA.REPUL.0>
0

>  <SCORE.INTRA.SOLV>
0.167895

>  <SCORE.INTRA.SOLV.lig_0>
-17.6837

>  <SCORE.INTRA.VDW>
1.13414

>  <SCORE.INTRA.VDW.0>
-1.13316

>  <SCORE.INTRA.norm>
-0.0152136

>  <SCORE.RESTR>
0

>  <SCORE.RESTR.CAVITY>
0

>  <SCORE.RESTR.norm>
0

>  <SCORE.SYSTEM>
-20.8085

>  <SCORE.SYSTEM.CONST>
0

>  <SCORE.SYSTEM.DIHEDRAL>
4.32846

>  <SCORE.SYSTEM.POLAR>
-3.0106

>  <SCORE.SYSTEM.SOLV>
0.280795

>  <SCORE.SYSTEM.VDW>
-5.37341

>  <SCORE.SYSTEM.norm>
-2.08085

>  <SCORE.heavy>
10

>  <SCORE.norm>
-5.32985

$$$$
P114849488
 OpenBabel12072022113D
libRbt.so/2013.1/901 2013/11/27
 13 12  0  0  0  0  0  0  0  0999 V2000
    5.9232   19.0797    7.1597 C   0  0  0  0  0  0  0  0  0  0  0  0
    5.3879   17.8899    5.9034 S   0  0  0  0  0  0  0  0  0  0  0  0
    6.4207   18.4276    4.5473 C   0  0  0  0  0  0  0  0  0  0  0  0
    6.1023   17.9936    3.2992 C   0  0  0  0  0  0  0  0  0  0  0  0
    6.8700   18.3751    2.1653 C   0  0  0  0  0  0  0  0  0  0  0  0
    7.5195   18.7124    1.2650 N   0  0  0  0  0  0  0  0  0  0  0  0
    4.9292   17.0673    3.0233 C   0  0  0  0  0  0  0  0  0  0  0  0
    3.9559   16.2989    2.7943 N   0  0  0  0  0  0  0  0  0  0  0  0
    7.5182   19.2656    4.8001 N   0  0  0  0  0  0  0  0  0  0  0  0
    8.4977   18.9199    5.7441 N   0  0  0  0  0  0  0  0  0  0  0  0
    7.3759   20.2714    4.6553 H   0  0  0  0  0  0  0  0  0  0  0  0
    8.2375   18.0534    6.2258 H   0  0  0  0  0  0  0  0  0  0  0  0
    8.5486   19.6233    6.4879 H   0  0  0  0  0  0  0  0  0  0  0  0
  1  2  1  0  0  0  0
  2  3  1  0  0  0  0
  3  4  2  0  0  0  0
  3  9  1  0  0  0  0
  4  5  1  0  0  0  0
  4  7  1  0  0  0  0
  5  6  3  0  0  0  0
  7  8  3  0  0  0  0
  9 10  1  0  0  0  0
  9 11  1  0  0  0  0
 10 12  1  0  0  0  0
 10 13  1  0  0  0  0
M  END
>  <CHROM.0>
-55.34673357,-60.10859430,-60.70547385,-46.62598841,-176.11888074,-60.18763620
-66.72654475,-177.79620440,-167.38454553

>  <CHROM.1>
-164.53888602,53.82977100,-4.37849642,6.24777468,18.20629846,4.38113481,1.38712413
0.53393535,1.40858867

>  <Name>
P114849488

>  <RI>
1.00763e+07

>  <Rbt.Current_Directory>
/home/fstefaniak/projects/zuza/docking/adenine/4XNR

>  <Rbt.Executable>
rbdock ($Id: //depot/dev/client3/rdock/2013.1/src/exe/rbdock.cxx#4 $)

>  <Rbt.Library>
libRbt.so (2013.1, Build901 2013/11/27)

>  <Rbt.Parameter_File>
/home/fstefaniak/progs/rDock//data/scripts/dock_solv.prm

>  <Rbt.Receptor>
4xnr.prm

>  <SCORE>
-53.165

>  <SCORE.INTER>
-32.4635

>  <SCORE.INTER.CONST>
1

>  <SCORE.INTER.POLAR>
-4.24571

>  <SCORE.INTER.ROT>
3

>  <SCORE.INTER.SOLV>
14.0711

>  <SCORE.INTER.VDW>
-17.7803

>  <SCORE.INTER.norm>
-3.24635

>  <SCORE.INTRA>
-0.0209131

>  <SCORE.INTRA.DIHEDRAL>
-2.73491

>  <SCORE.INTRA.DIHEDRAL.0>
4.7079

>  <SCORE.INTRA.POLAR>
0

>  <SCORE.INTRA.POLAR.0>
0

>  <SCORE.INTRA.REPUL>
0

>  <SCORE.INTRA.REPUL.0>
0

>  <SCORE.INTRA.SOLV>
0.175418

>  <SCORE.INTRA.SOLV.lig_0>
-17.6837

>  <SCORE.INTRA.VDW>
1.25883

>  <SCORE.INTRA.VDW.0>
-1.13316

>  <SCORE.INTRA.norm>
-0.00209131

>  <SCORE.RESTR>
0

>  <SCORE.RESTR.CAVITY>
0

>  <SCORE.RESTR.norm>
0

>  <SCORE.SYSTEM>
-20.6806

>  <SCORE.SYSTEM.CONST>
0

>  <SCORE.SYSTEM.DIHEDRAL>
4.05553

>  <SCORE.SYSTEM.POLAR>
-3.01978

>  <SCORE.SYSTEM.SOLV>
-0.00409106

>  <SCORE.SYSTEM.VDW>
-5.07158

>  <SCORE.SYSTEM.norm>
-2.06806

>  <SCORE.heavy>
10

>  <SCORE.norm>
-5.3165

$$$$
P114849488
 OpenBabel12072022113D
libRbt.so/2013.1/901 2013/11/27
 13 12  0  0  0  0  0  0  0  0999 V2000
    5.9221   19.0696    7.1535 C   0  0  0  0  0  0  0  0  0  0  0  0
    5.4143   17.8659    5.8989 S   0  0  0  0  0  0  0  0  0  0  0  0
    6.4297   18.4292    4.5401 C   0  0  0  0  0  0  0  0  0  0  0  0
    6.1011   18.0107    3.2894 C   0  0  0  0  0  0  0  0  0  0  0  0
    6.8547   18.4130    2.1531 C   0  0  0  0  0  0  0  0  0  0  0  0
    7.4928   18.7671    1.2511 N   0  0  0  0  0  0  0  0  0  0  0  0
    4.9311   17.0808    3.0124 C   0  0  0  0  0  0  0  0  0  0  0  0
    3.9604   16.3094    2.7826 N   0  0  0  0  0  0  0  0  0  0  0  0
    7.5243   19.2706    4.7934 N   0  0  0  0  0  0  0  0  0  0  0  0
    8.5065   18.9262    5.7351 N   0  0  0  0  0  0  0  0  0  0  0  0
    7.3781   20.2763    4.6514 H   0  0  0  0  0  0  0  0  0  0  0  0
    8.2739   18.0334    6.1816 H   0  0  0  0  0  0  0  0  0  0  0  0
    8.5238   19.6027    6.5049 H   0  0  0  0  0  0  0  0  0  0  0  0
  1  2  1  0  0  0  0
  2  3  1  0  0  0  0
  3  4  2  0  0  0  0
  3  9  1  0  0  0  0
  4  5  1  0  0  0  0
  4  7  1  0  0  0  0
  5  6  3  0  0  0  0
  7  8  3  0  0  0  0
  9 10  1  0  0  0  0
  9 11  1  0  0  0  0
 10 12  1  0  0  0  0
 10 13  1  0  0  0  0
M  END
>  <CHROM.0>
-58.34579076,61.98748462,-67.47705353,-48.23564384,-60.05269172,-62.48682471
-67.24469785,-62.41368554,-167.87685178

>  <CHROM.1>
-163.09510935,52.98773229,-1.54738325,6.25214471,18.21250009,4.37253495,1.38048033
0.54215895,1.42376842

>  <Name>
P114849488

>  <RI>
1.00763e+07

>  <Rbt.Current_Directory>
/home/fstefaniak/projects/zuza/docking/adenine/4XNR

>  <Rbt.Executable>
rbdock ($Id: //depot/dev/client3/rdock/2013.1/src/exe/rbdock.cxx#4 $)

>  <Rbt.Library>
libRbt.so (2013.1, Build901 2013/11/27)

>  <Rbt.Parameter_File>
/home/fstefaniak/progs/rDock//data/scripts/dock_solv.prm

>  <Rbt.Receptor>
4xnr.prm

>  <SCORE>
-52.6234

>  <SCORE.INTER>
-32.4541

>  <SCORE.INTER.CONST>
1

>  <SCORE.INTER.POLAR>
-4.26078

>  <SCORE.INTER.ROT>
3

>  <SCORE.INTER.SOLV>
14.0968

>  <SCORE.INTER.VDW>
-17.7323

>  <SCORE.INTER.norm>
-3.24541

>  <SCORE.INTRA>
-0.103016

>  <SCORE.INTRA.DIHEDRAL>
-2.73755

>  <SCORE.INTRA.DIHEDRAL.0>
4.7079

>  <SCORE.INTRA.POLAR>
0

>  <SCORE.INTRA.POLAR.0>
0

>  <SCORE.INTRA.REPUL>
0

>  <SCORE.INTRA.REPUL.0>
0

>  <SCORE.INTRA.SOLV>
0.175136

>  <SCORE.INTRA.SOLV.lig_0>
-17.6837

>  <SCORE.INTRA.VDW>
1.17819

>  <SCORE.INTRA.VDW.0>
-1.13316

>  <SCORE.INTRA.norm>
-0.0103016

>  <SCORE.RESTR>
0

>  <SCORE.RESTR.CAVITY>
0

>  <SCORE.RESTR.norm>
0

>  <SCORE.SYSTEM>
-20.0663

>  <SCORE.SYSTEM.CONST>
0

>  <SCORE.SYSTEM.DIHEDRAL>
4.00284

>  <SCORE.SYSTEM.POLAR>
-2.96263

>  <SCORE.SYSTEM.SOLV>
0.343494

>  <SCORE.SYSTEM.VDW>
-4.95091

>  <SCORE.SYSTEM.norm>
-2.00663

>  <SCORE.heavy>
10

>  <SCORE.norm>
-5.26234

$$$$
P117550138
 OpenBabel12072022113D
libRbt.so/2013.1/901 2013/11/27
 10  9  0  0  0  0  0  0  0  0999 V2000
    5.9177   18.6953    6.3872 C   0  0  0  0  0  0  0  0  0  0  0  0
    5.6431   18.4015    4.9133 C   0  0  1  0  0  0  0  0  0  0  0  0
    6.8668   18.6284    4.1153 C   0  0  0  0  0  0  0  0  0  0  0  0
    7.8352   18.7719    3.4906 N   0  0  0  0  0  0  0  0  0  0  0  0
    5.1676   17.0324    4.7419 N   0  0  0  0  0  0  0  0  0  0  0  0
    5.1597   16.4376    3.5082 C   0  0  0  0  0  0  0  0  0  0  0  0
    5.5645   16.9795    2.4891 O   0  0  0  0  0  0  0  0  0  0  0  0
    4.6027   15.0621    3.5284 C   0  0  0  0  0  0  0  0  0  0  0  0
    3.5539   14.7677    4.3069 C   0  0  0  0  0  0  0  0  0  0  0  0
    4.7748   16.5544    5.5425 H   0  0  0  0  0  0  0  0  0  0  0  0
  2  1  1  1  0  0  0
  2  3  1  0  0  0  0
  2  5  1  0  0  0  0
  3  4  3  0  0  0  0
  5  6  1  0  0  0  0
  5 10  1  0  0  0  0
  6  7  2  0  0  0  0
  6  8  1  0  0  0  0
  8  9  2  0  0  0  0
M  END
>  <CHROM.0>
-57.98033987,-62.47669629,-65.80527018,-47.73811435,-59.10325258,-62.33592059
-68.44623888,-58.35120976,-167.76426540

>  <CHROM.1>
-164.25698634,38.37739284,5.57931706,17.19727623,4.17771252,0.57920611,0.80194879
1.06943795

>  <Name>
P117550138

>  <RI>
3.1908e+07

>  <Rbt.Current_Directory>
/home/fstefaniak/projects/zuza/docking/adenine/4XNR

>  <Rbt.Executable>
rbdock ($Id: //depot/dev/client3/rdock/2013.1/src/exe/rbdock.cxx#4 $)

>  <Rbt.Library>
libRbt.so (2013.1, Build901 2013/11/27)

>  <Rbt.Parameter_File>
/home/fstefaniak/progs/rDock//data/scripts/dock_solv.prm

>  <Rbt.Receptor>
4xnr.prm

>  <SCORE>
-45.5176

>  <SCORE.INTER>
-28.4804

>  <SCORE.INTER.CONST>
1

>  <SCORE.INTER.POLAR>
-3.13559

>  <SCORE.INTER.ROT>
2

>  <SCORE.INTER.SOLV>
9.87932

>  <SCORE.INTER.VDW>
-16.7614

>  <SCORE.INTER.norm>
-3.16449

>  <SCORE.INTRA>
3.85999

>  <SCORE.INTRA.DIHEDRAL>
4.42929

>  <SCORE.INTRA.DIHEDRAL.0>
1.06189

>  <SCORE.INTRA.POLAR>
0

>  <SCORE.INTRA.POLAR.0>
0

>  <SCORE.INTRA.REPUL>
0

>  <SCORE.INTRA.REPUL.0>
0

>  <SCORE.INTRA.SOLV>
0.601752

>  <SCORE.INTRA.SOLV.lig_0>
-12.7784

>  <SCORE.INTRA.VDW>
1.34447

>  <SCORE.INTRA.VDW.0>
-0.0834981

>  <SCORE.INTRA.norm>
0.428888

>  <SCORE.RESTR>
0

>  <SCORE.RESTR.CAVITY>
0

>  <SCORE.RESTR.norm>
0

>  <SCORE.SYSTEM>
-20.8972

>  <SCORE.SYSTEM.CONST>
0

>  <SCORE.SYSTEM.DIHEDRAL>
4.05569

>  <SCORE.SYSTEM.POLAR>
-2.98005

>  <SCORE.SYSTEM.SOLV>
0.283604

>  <SCORE.SYSTEM.VDW>
-5.44438

>  <SCORE.SYSTEM.norm>
-2.32191

>  <SCORE.heavy>
9

>  <SCORE.norm>
-5.05751

$$$$
P117550138
 OpenBabel12072022113D
libRbt.so/2013.1/901 2013/11/27
 10  9  0  0  0  0  0  0  0  0999 V2000
    5.9187   18.6266    6.4332 C   0  0  0  0  0  0  0  0  0  0  0  0
    5.6695   18.3428    4.9528 C   0  0  1  0  0  0  0  0  0  0  0  0
    6.9108   18.5598    4.1798 C   0  0  0  0  0  0  0  0  0  0  0  0
    7.8927   18.6956    3.5746 N   0  0  0  0  0  0  0  0  0  0  0  0
    5.1825   16.9797    4.7656 N   0  0  0  0  0  0  0  0  0  0  0  0
    5.1775   16.3964    3.5264 C   0  0  0  0  0  0  0  0  0  0  0  0
    5.5942   16.9438    2.5151 O   0  0  0  0  0  0  0  0  0  0  0  0
    4.6077   15.0260    3.5302 C   0  0  0  0  0  0  0  0  0  0  0  0
    3.5390   14.7392    4.2841 C   0  0  0  0  0  0  0  0  0  0  0  0
    4.7799   16.4981    5.5591 H   0  0  0  0  0  0  0  0  0  0  0  0
  2  1  1  1  0  0  0
  2  3  1  0  0  0  0
  2  5  1  0  0  0  0
  3  4  3  0  0  0  0
  5  6  1  0  0  0  0
  5 10  1  0  0  0  0
  6  7  2  0  0  0  0
  6  8  1  0  0  0  0
  8  9  2  0  0  0  0
M  END
>  <CHROM.0>
-60.38423257,-61.64695836,-66.00355361,-47.03240486,-61.62430722,-63.24076901
-67.10987679,-61.39317033,-166.82043224

>  <CHROM.1>
-165.02776285,39.34777716,5.59906565,17.14558625,4.20869206,0.58968672,0.78273556
1.07071457

>  <Name>
P117550138

>  <RI>
3.1908e+07

>  <Rbt.Current_Directory>
/home/fstefaniak/projects/zuza/docking/adenine/4XNR

>  <Rbt.Executable>
rbdock ($Id: //depot/dev/client3/rdock/2013.1/src/exe/rbdock.cxx#4 $)

>  <Rbt.Library>
libRbt.so (2013.1, Build901 2013/11/27)

>  <Rbt.Parameter_File>
/home/fstefaniak/progs/rDock//data/scripts/dock_solv.prm

>  <Rbt.Receptor>
4xnr.prm

>  <SCORE>
-45.5007

>  <SCORE.INTER>
-28.4784

>  <SCORE.INTER.CONST>
1

>  <SCORE.INTER.POLAR>
-3.13607

>  <SCORE.INTER.ROT>
2

>  <SCORE.INTER.SOLV>
9.93789

>  <SCORE.INTER.VDW>
-16.778

>  <SCORE.INTER.norm>
-3.16426

>  <SCORE.INTRA>
3.86218

>  <SCORE.INTRA.DIHEDRAL>
4.62154

>  <SCORE.INTRA.DIHEDRAL.0>
1.06189

>  <SCORE.INTRA.POLAR>
0

>  <SCORE.INTRA.POLAR.0>
0

>  <SCORE.INTRA.REPUL>
0

>  <SCORE.INTRA.REPUL.0>
0

>  <SCORE.INTRA.SOLV>
0.593505

>  <SCORE.INTRA.SOLV.lig_0>
-12.7784

>  <SCORE.INTRA.VDW>
1.25466

>  <SCORE.INTRA.VDW.0>
-0.0834981

>  <SCORE.INTRA.norm>
0.429132

>  <SCORE.RESTR>
0

>  <SCORE.RESTR.CAVITY>
0

>  <SCORE.RESTR.norm>
0

>  <SCORE.SYSTEM>
-20.8845

>  <SCORE.SYSTEM.CONST>
0

>  <SCORE.SYSTEM.DIHEDRAL>
4.14704

>  <SCORE.SYSTEM.POLAR>
-2.97269

>  <SCORE.SYSTEM.SOLV>
0.274607

>  <SCORE.SYSTEM.VDW>
-5.4879

>  <SCORE.SYSTEM.norm>
-2.3205

>  <SCORE.heavy>
9

>  <SCORE.norm>
-5.05563

$$$$
P117550138
 OpenBabel12072022113D
libRbt.so/2013.1/901 2013/11/27
 10  9  0  0  0  0  0  0  0  0999 V2000
    5.9336   18.6470    6.4437 C   0  0  0  0  0  0  0  0  0  0  0  0
    5.6712   18.3587    4.9664 C   0  0  1  0  0  0  0  0  0  0  0  0
    6.9000   18.5936    4.1788 C   0  0  0  0  0  0  0  0  0  0  0  0
    7.8726   18.7435    3.5620 N   0  0  0  0  0  0  0  0  0  0  0  0
    5.2022   16.9885    4.7854 N   0  0  0  0  0  0  0  0  0  0  0  0
    5.2136   16.3963    3.5505 C   0  0  0  0  0  0  0  0  0  0  0  0
    5.6314   16.9415    2.5384 O   0  0  0  0  0  0  0  0  0  0  0  0
    4.6605   15.0192    3.5600 C   0  0  0  0  0  0  0  0  0  0  0  0
    3.6097   14.7169    4.3328 C   0  0  0  0  0  0  0  0  0  0  0  0
    4.7994   16.5077    5.5794 H   0  0  0  0  0  0  0  0  0  0  0  0
  2  1  1  1  0  0  0
  2  3  1  0  0  0  0
  2  5  1  0  0  0  0
  3  4  3  0  0  0  0
  5  6  1  0  0  0  0
  5 10  1  0  0  0  0
  6  7  2  0  0  0  0
  6  8  1  0  0  0  0
  8  9  2  0  0  0  0
M  END
>  <CHROM.0>
-60.09234955,-61.00616844,-65.57770370,-47.29528028,-59.16717376,-61.51982071
-68.71411537,-63.22789674,-168.42130010

>  <CHROM.1>
-163.84686982,37.71177369,5.62192848,17.15589658,4.22622490,0.59451777,0.80204581
1.06059229

>  <Name>
P117550138

>  <RI>
3.1908e+07

>  <Rbt.Current_Directory>
/home/fstefaniak/projects/zuza/docking/adenine/4XNR

>  <Rbt.Executable>
rbdock ($Id: //depot/dev/client3/rdock/2013.1/src/exe/rbdock.cxx#4 $)

>  <Rbt.Library>
libRbt.so (2013.1, Build901 2013/11/27)

>  <Rbt.Parameter_File>
/home/fstefaniak/progs/rDock//data/scripts/dock_solv.prm

>  <Rbt.Receptor>
4xnr.prm

>  <SCORE>
-45.4971

>  <SCORE.INTER>
-28.4722

>  <SCORE.INTER.CONST>
1

>  <SCORE.INTER.POLAR>
-3.13526

>  <SCORE.INTER.ROT>
2

>  <SCORE.INTER.SOLV>
9.98372

>  <SCORE.INTER.VDW>
-16.7919

>  <SCORE.INTER.norm>
-3.16358

>  <SCORE.INTRA>
3.85419

>  <SCORE.INTRA.DIHEDRAL>
4.29889

>  <SCORE.INTRA.DIHEDRAL.0>
1.06189

>  <SCORE.INTRA.POLAR>
0

>  <SCORE.INTRA.POLAR.0>
0

>  <SCORE.INTRA.REPUL>
0

>  <SCORE.INTRA.REPUL.0>
0

>  <SCORE.INTRA.SOLV>
0.606246

>  <SCORE.INTRA.SOLV.lig_0>
-12.7784

>  <SCORE.INTRA.VDW>
1.40162

>  <SCORE.INTRA.VDW.0>
-0.0834981

>  <SCORE.INTRA.norm>
0.428243

>  <SCORE.RESTR>
0

>  <SCORE.RESTR.CAVITY>
0

>  <SCORE.RESTR.norm>
0

>  <SCORE.SYSTEM>
-20.8791

>  <SCORE.SYSTEM.CONST>
0

>  <SCORE.SYSTEM.DIHEDRAL>
4.0242

>  <SCORE.SYSTEM.POLAR>
-2.96639

>  <SCORE.SYSTEM.SOLV>
0.276171

>  <SCORE.SYSTEM.VDW>
-5.46489

>  <SCORE.SYSTEM.norm>
-2.3199

>  <SCORE.heavy>
9

>  <SCORE.norm>
-5.05524

$$$$
P117557462
 OpenBabel12072022113D
libRbt.so/2013.1/901 2013/11/27
 11 11  0  0  0  0  0  0  0  0999 V2000
    7.0560   18.4085    1.0731 C   0  0  0  0  0  0  0  0  0  0  0  0
    6.4521   17.4459    1.9352 O   0  0  0  0  0  0  0  0  0  0  0  0
    6.4364   17.8821    3.2391 C   0  0  0  0  0  0  0  0  0  0  0  0
    5.3276   17.8055    3.9986 C   0  0  0  0  0  0  0  0  0  0  0  0
    5.3185   18.3362    5.4109 C   0  0  0  0  0  0  0  0  0  0  0  0
    6.4805   19.2987    5.6969 C   0  0  0  0  0  0  0  0  0  0  0  0
    7.7915   18.7832    5.1054 C   0  0  0  0  0  0  0  0  0  0  0  0
    7.5848   18.4761    3.7046 N   0  0  0  0  0  0  0  0  0  0  0  0
    4.0534   17.1790    3.4560 C   0  0  0  0  0  0  0  0  0  0  0  0
    2.9965   16.6592    3.0058 N   0  0  0  0  0  0  0  0  0  0  0  0
    8.3986   18.3803    3.1062 H   0  0  0  0  0  0  0  0  0  0  0  0
  1  2  1  0  0  0  0
  2  3  1  0  0  0  0
  3  4  2  0  0  0  0
  3  8  1  0  0  0  0
  4  5  1  0  0  0  0
  4  9  1  0  0  0  0
  5  6  1  0  0  0  0
  6  7  1  0  0  0  0
  7  8  1  0  0  0  0
  8 11  1  0  0  0  0
  9 10  3  0  0  0  0
M  END
>  <CHROM.0>
-58.10840656,-63.03428815,-66.00189051,-49.11806904,-60.67102735,-63.46268762
-69.56232084,-62.09168619,-168.21793921

>  <CHROM.1>
132.65344834,6.01268249,18.04235638,3.61933892,-2.51982189,0.37099212,1.31513288

>  <Name>
P117557462

>  <RI>
3.1908e+07

>  <Rbt.Current_Directory>
/home/fstefaniak/projects/zuza/docking/adenine/4XNR

>  <Rbt.Executable>
rbdock ($Id: //depot/dev/client3/rdock/2013.1/src/exe/rbdock.cxx#4 $)

>  <Rbt.Library>
libRbt.so (2013.1, Build901 2013/11/27)

>  <Rbt.Parameter_File>
/home/fstefaniak/progs/rDock//data/scripts/dock_solv.prm

>  <Rbt.Receptor>
4xnr.prm

>  <SCORE>
-47.1227

>  <SCORE.INTER>
-23.5375

>  <SCORE.INTER.CONST>
1

>  <SCORE.INTER.POLAR>
-2.54944

>  <SCORE.INTER.ROT>
1

>  <SCORE.INTER.SOLV>
9.99987

>  <SCORE.INTER.VDW>
-14.7935

>  <SCORE.INTER.norm>
-2.35375

>  <SCORE.INTRA>
-2.61446

>  <SCORE.INTRA.DIHEDRAL>
-10.3888

>  <SCORE.INTRA.DIHEDRAL.0>
22.1532

>  <SCORE.INTRA.POLAR>
0

>  <SCORE.INTRA.POLAR.0>
0

>  <SCORE.INTRA.REPUL>
0

>  <SCORE.INTRA.REPUL.0>
0

>  <SCORE.INTRA.SOLV>
0.00974022

>  <SCORE.INTRA.SOLV.lig_0>
-9.52974

>  <SCORE.INTRA.VDW>
2.57508

>  <SCORE.INTRA.VDW.0>
-0.109212

>  <SCORE.INTRA.norm>
-0.261446

>  <SCORE.RESTR>
0

>  <SCORE.RESTR.CAVITY>
0

>  <SCORE.RESTR.norm>
0

>  <SCORE.SYSTEM>
-20.9708

>  <SCORE.SYSTEM.CONST>
0

>  <SCORE.SYSTEM.DIHEDRAL>
4.0124

>  <SCORE.SYSTEM.POLAR>
-2.95215

>  <SCORE.SYSTEM.SOLV>
0.266896

>  <SCORE.SYSTEM.VDW>
-5.56645

>  <SCORE.SYSTEM.norm>
-2.09708

>  <SCORE.heavy>
10

>  <SCORE.norm>
-4.71227

$$$$
P117557462
 OpenBabel12072022113D
libRbt.so/2013.1/901 2013/11/27
 11 11  0  0  0  0  0  0  0  0999 V2000
    7.0575   18.4032    1.0638 C   0  0  0  0  0  0  0  0  0  0  0  0
    6.4076   17.4610    1.9150 O   0  0  0  0  0  0  0  0  0  0  0  0
    6.4114   17.8832    3.2236 C   0  0  0  0  0  0  0  0  0  0  0  0
    5.3136   17.7994    3.9983 C   0  0  0  0  0  0  0  0  0  0  0  0
    5.3257   18.3148    5.4162 C   0  0  0  0  0  0  0  0  0  0  0  0
    6.4927   19.2732    5.6956 C   0  0  0  0  0  0  0  0  0  0  0  0
    7.7944   18.7630    5.0795 C   0  0  0  0  0  0  0  0  0  0  0  0
    7.5670   18.4711    3.6786 N   0  0  0  0  0  0  0  0  0  0  0  0
    4.0310   17.1798    3.4676 C   0  0  0  0  0  0  0  0  0  0  0  0
    2.9671   16.6659    3.0274 N   0  0  0  0  0  0  0  0  0  0  0  0
    8.3719   18.3810    3.0675 H   0  0  0  0  0  0  0  0  0  0  0  0
  1  2  1  0  0  0  0
  2  3  1  0  0  0  0
  3  4  2  0  0  0  0
  3  8  1  0  0  0  0
  4  5  1  0  0  0  0
  4  9  1  0  0  0  0
  5  6  1  0  0  0  0
  6  7  1  0  0  0  0
  7  8  1  0  0  0  0
  8 11  1  0  0  0  0
  9 10  3  0  0  0  0
M  END
>  <CHROM.0>
-57.19571457,-61.26845916,-66.48540963,-45.08463329,-56.26212486,-61.21270042
-66.94386739,-57.47782888,-167.89808731

>  <CHROM.1>
135.46722564,5.99962729,18.03653711,3.61267723,-2.55017119,0.37098794,1.32475628

>  <Name>
P117557462

>  <RI>
3.1908e+07

>  <Rbt.Current_Directory>
/home/fstefaniak/projects/zuza/docking/adenine/4XNR

>  <Rbt.Executable>
rbdock ($Id: //depot/dev/client3/rdock/2013.1/src/exe/rbdock.cxx#4 $)

>  <Rbt.Library>
libRbt.so (2013.1, Build901 2013/11/27)

>  <Rbt.Parameter_File>
/home/fstefaniak/progs/rDock//data/scripts/dock_solv.prm

>  <Rbt.Receptor>
4xnr.prm

>  <SCORE>
-47.0844

>  <SCORE.INTER>
-23.6162

>  <SCORE.INTER.CONST>
1

>  <SCORE.INTER.POLAR>
-2.55254

>  <SCORE.INTER.ROT>
1

>  <SCORE.INTER.SOLV>
9.96049

>  <SCORE.INTER.VDW>
-14.8225

>  <SCORE.INTER.norm>
-2.36162

>  <SCORE.INTRA>
-2.6419

>  <SCORE.INTRA.DIHEDRAL>
-11.5244

>  <SCORE.INTRA.DIHEDRAL.0>
22.1532

>  <SCORE.INTRA.POLAR>
0

>  <SCORE.INTRA.POLAR.0>
0

>  <SCORE.INTRA.REPUL>
0

>  <SCORE.INTRA.REPUL.0>
0

>  <SCORE.INTRA.SOLV>
0.0148732

>  <SCORE.INTRA.SOLV.lig_0>
-9.52974

>  <SCORE.INTRA.VDW>
3.11286

>  <SCORE.INTRA.VDW.0>
-0.109212

>  <SCORE.INTRA.norm>
-0.26419

>  <SCORE.RESTR>
0

>  <SCORE.RESTR.CAVITY>
0

>  <SCORE.RESTR.norm>
0

>  <SCORE.SYSTEM>
-20.8263

>  <SCORE.SYSTEM.CONST>
0

>  <SCORE.SYSTEM.DIHEDRAL>
4.34763

>  <SCORE.SYSTEM.POLAR>
-3.03588

>  <SCORE.SYSTEM.SOLV>
0.300378

>  <SCORE.SYSTEM.VDW>
-5.31391

>  <SCORE.SYSTEM.norm>
-2.08263

>  <SCORE.heavy>
10

>  <SCORE.norm>
-4.70844

$$$$
P117557462
 OpenBabel12072022113D
libRbt.so/2013.1/901 2013/11/27
 11 11  0  0  0  0  0  0  0  0999 V2000
    7.1194   18.3741    1.1163 C   0  0  0  0  0  0  0  0  0  0  0  0
    6.4607   17.4380    1.9675 O   0  0  0  0  0  0  0  0  0  0  0  0
    6.4397   17.8757    3.2709 C   0  0  0  0  0  0  0  0  0  0  0  0
    5.3325   17.7844    4.0312 C   0  0  0  0  0  0  0  0  0  0  0  0
    5.3168   18.3166    5.4428 C   0  0  0  0  0  0  0  0  0  0  0  0
    6.4653   19.2958    5.7269 C   0  0  0  0  0  0  0  0  0  0  0  0
    7.7830   18.7981    5.1352 C   0  0  0  0  0  0  0  0  0  0  0  0
    7.5799   18.4863    3.7349 N   0  0  0  0  0  0  0  0  0  0  0  0
    4.0669   17.1393    3.4901 C   0  0  0  0  0  0  0  0  0  0  0  0
    3.0172   16.6041    3.0413 N   0  0  0  0  0  0  0  0  0  0  0  0
    8.3945   18.4012    3.1361 H   0  0  0  0  0  0  0  0  0  0  0  0
  1  2  1  0  0  0  0
  2  3  1  0  0  0  0
  3  4  2  0  0  0  0
  3  8  1  0  0  0  0
  4  5  1  0  0  0  0
  4  9  1  0  0  0  0
  5  6  1  0  0  0  0
  6  7  1  0  0  0  0
  7  8  1  0  0  0  0
  8 11  1  0  0  0  0
  9 10  3  0  0  0  0
M  END
>  <CHROM.0>
-58.62979484,-61.52983334,-65.24312551,-47.14390501,-64.06447547,-62.29226056
-69.32114595,-58.93225159,-167.85065530

>  <CHROM.1>
136.01016272,6.02144833,18.02667831,3.65251626,-2.53435243,0.38144304,1.30463875

>  <Name>
P117557462

>  <RI>
3.1908e+07

>  <Rbt.Current_Directory>
/home/fstefaniak/projects/zuza/docking/adenine/4XNR

>  <Rbt.Executable>
rbdock ($Id: //depot/dev/client3/rdock/2013.1/src/exe/rbdock.cxx#4 $)

>  <Rbt.Library>
libRbt.so (2013.1, Build901 2013/11/27)

>  <Rbt.Parameter_File>
/home/fstefaniak/progs/rDock//data/scripts/dock_solv.prm

>  <Rbt.Receptor>
4xnr.prm

>  <SCORE>
-47.0613

>  <SCORE.INTER>
-23.5179

>  <SCORE.INTER.CONST>
1

>  <SCORE.INTER.POLAR>
-2.49477

>  <SCORE.INTER.ROT>
1

>  <SCORE.INTER.SOLV>
9.99078

>  <SCORE.INTER.VDW>
-14.9596

>  <SCORE.INTER.norm>
-2.35179

>  <SCORE.INTRA>
-2.63733

>  <SCORE.INTRA.DIHEDRAL>
-11.7428

>  <SCORE.INTRA.DIHEDRAL.0>
22.1532

>  <SCORE.INTRA.POLAR>
0

>  <SCORE.INTRA.POLAR.0>
0

>  <SCORE.INTRA.REPUL>
0

>  <SCORE.INTRA.REPUL.0>
0

>  <SCORE.INTRA.SOLV>
0.01584

>  <SCORE.INTRA.SOLV.lig_0>
-9.52974

>  <SCORE.INTRA.VDW>
3.22614

>  <SCORE.INTRA.VDW.0>
-0.109212

>  <SCORE.INTRA.norm>
-0.263733

>  <SCORE.RESTR>
0

>  <SCORE.RESTR.CAVITY>
0

>  <SCORE.RESTR.norm>
0

>  <SCORE.SYSTEM>
-20.9061

>  <SCORE.SYSTEM.CONST>
0

>  <SCORE.SYSTEM.DIHEDRAL>
4.1887

>  <SCORE.SYSTEM.POLAR>
-2.98279

>  <SCORE.SYSTEM.SOLV>
0.274855

>  <SCORE.SYSTEM.VDW>
-5.48261

>  <SCORE.SYSTEM.norm>
-2.09061

>  <SCORE.heavy>
10

>  <SCORE.norm>
-4.70613

$$$$
P117594918
 OpenBabel12072022113D
libRbt.so/2013.1/901 2013/11/27
 16 15  0  0  0  0  0  0  0  0999 V2000
    3.5871   13.0436    3.5806 C   0  0  0  0  0  0  0  0  0  0  0  0
    2.5458   12.9606    4.7148 C   0  0  0  0  0  0  0  0  0  0  0  0
    2.0952   11.4914    4.8455 C   0  0  0  0  0  0  0  0  0  0  0  0
    3.2461   13.3317    6.0455 C   0  0  0  0  0  0  0  0  0  0  0  0
    1.3302   13.9263    4.4808 C   0  0  2  0  0  0  0  0  0  0  0  0
    0.3908   13.5530    3.3034 C   0  0  0  0  0  0  0  0  0  0  0  0
    0.5303   14.0728    2.1923 O   0  0  0  0  0  0  0  0  0  0  0  0
   -0.6782   12.7563    3.5470 N   0  0  0  0  0  0  0  0  0  0  0  0
    1.8204   15.3326    4.2404 N   0  0  0  0  0  0  0  0  0  0  0  0
    0.8614   16.3173    4.6638 N   0  3  0  0  0  0  0  0  0  0  0  0
    1.2661   17.2798    4.5995 H   0  0  0  0  0  0  0  0  0  0  0  0
   -0.0089   16.2952    4.1094 H   0  0  0  0  0  0  0  0  0  0  0  0
    0.5896   16.1800    5.6518 H   0  0  0  0  0  0  0  0  0  0  0  0
   -0.9346   12.3757    4.4495 H   0  0  0  0  0  0  0  0  0  0  0  0
   -1.2983   12.5334    2.7735 H   0  0  0  0  0  0  0  0  0  0  0  0
    2.0038   15.4106    3.2272 H   0  0  0  0  0  0  0  0  0  0  0  0
  1  2  1  0  0  0  0
  2  3  1  0  0  0  0
  2  4  1  0  0  0  0
  5  6  1  6  0  0  0
  5  9  1  0  0  0  0
  5  2  1  0  0  0  0
  6  7  2  0  0  0  0
  6  8  1  0  0  0  0
  8 14  1  0  0  0  0
  8 15  1  0  0  0  0
  9 10  1  0  0  0  0
  9 16  1  0  0  0  0
 10 11  1  0  0  0  0
 10 12  1  0  0  0  0
 10 13  1  0  0  0  0
M  CHG  1  10   1
M  END
>  <CHROM.0>
-62.08142591,66.37815624,-167.75897811,-46.97315907,-177.96892560,-179.39964876
-49.08804037,-64.59864940,-168.12534921

>  <CHROM.1>
-96.16129216,-151.42092770,68.81079290,172.96547882,1.53889126,13.72666830
4.14945557,-0.49111191,-0.58653893,0.14100724

>  <Name>
P117594918

>  <RI>
3.58524e+07

>  <Rbt.Current_Directory>
/home/fstefaniak/projects/zuza/docking/adenine/4XNR

>  <Rbt.Executable>
rbdock ($Id: //depot/dev/client3/rdock/2013.1/src/exe/rbdock.cxx#4 $)

>  <Rbt.Library>
libRbt.so (2013.1, Build901 2013/11/27)

>  <Rbt.Parameter_File>
/home/fstefaniak/progs/rDock//data/scripts/dock_solv.prm

>  <Rbt.Receptor>
4xnr.prm

>  <SCORE>
-45.7064

>  <SCORE.INTER>
-27.6226

>  <SCORE.INTER.CONST>
1

>  <SCORE.INTER.POLAR>
-5.20397

>  <SCORE.INTER.ROT>
3

>  <SCORE.INTER.SOLV>
18.5778

>  <SCORE.INTER.VDW>
-12.8611

>  <SCORE.INTER.norm>
-2.76226

>  <SCORE.INTRA>
-0.767372

>  <SCORE.INTRA.DIHEDRAL>
1.92422

>  <SCORE.INTRA.DIHEDRAL.0>
0.879253

>  <SCORE.INTRA.POLAR>
0

>  <SCORE.INTRA.POLAR.0>
0

>  <SCORE.INTRA.REPUL>
0

>  <SCORE.INTRA.REPUL.0>
0

>  <SCORE.INTRA.SOLV>
-1.35011

>  <SCORE.INTRA.SOLV.lig_0>
-32.6496

>  <SCORE.INTRA.VDW>
-1.05443

>  <SCORE.INTRA.VDW.0>
-0.0300844

>  <SCORE.INTRA.norm>
-0.0767372

>  <SCORE.RESTR>
0.0312905

>  <SCORE.RESTR.CAVITY>
0.0312905

>  <SCORE.RESTR.norm>
0.00312905

>  <SCORE.SYSTEM>
-17.3477

>  <SCORE.SYSTEM.CONST>
0

>  <SCORE.SYSTEM.DIHEDRAL>
5.06333

>  <SCORE.SYSTEM.POLAR>
-2.5709

>  <SCORE.SYSTEM.SOLV>
0.0108975

>  <SCORE.SYSTEM.VDW>
-4.68689

>  <SCORE.SYSTEM.norm>
-1.73477

>  <SCORE.heavy>
10

>  <SCORE.norm>
-4.57064

$$$$
P117594918
 OpenBabel12072022113D
libRbt.so/2013.1/901 2013/11/27
 16 15  0  0  0  0  0  0  0  0999 V2000
    4.1302   14.7377    4.2206 C   0  0  0  0  0  0  0  0  0  0  0  0
    3.0369   13.6775    4.4622 C   0  0  0  0  0  0  0  0  0  0  0  0
    3.2045   12.5666    3.4056 C   0  0  0  0  0  0  0  0  0  0  0  0
    3.2922   13.0220    5.8421 C   0  0  0  0  0  0  0  0  0  0  0  0
    1.5928   14.2932    4.4390 C   0  0  2  0  0  0  0  0  0  0  0  0
    0.5673   13.5702    3.5260 C   0  0  0  0  0  0  0  0  0  0  0  0
    0.4550   13.8742    2.3347 O   0  0  0  0  0  0  0  0  0  0  0  0
   -0.3071   12.6994    4.0863 N   0  0  0  0  0  0  0  0  0  0  0  0
    1.6484   15.7364    4.0031 N   0  0  0  0  0  0  0  0  0  0  0  0
    0.6607   16.5397    4.6719 N   0  3  0  0  0  0  0  0  0  0  0  0
    0.9116   17.5540    4.6204 H   0  0  0  0  0  0  0  0  0  0  0  0
   -0.2866   16.4212    4.2797 H   0  0  0  0  0  0  0  0  0  0  0  0
    0.5994   16.3046    5.6768 H   0  0  0  0  0  0  0  0  0  0  0  0
   -0.3623   12.4734    5.0717 H   0  0  0  0  0  0  0  0  0  0  0  0
   -0.9875   12.2457    3.4831 H   0  0  0  0  0  0  0  0  0  0  0  0
    1.4952   15.7409    2.9819 H   0  0  0  0  0  0  0  0  0  0  0  0
  1  2  1  0  0  0  0
  2  3  1  0  0  0  0
  2  4  1  0  0  0  0
  5  6  1  6  0  0  0
  5  9  1  0  0  0  0
  5  2  1  0  0  0  0
  6  7  2  0  0  0  0
  6  8  1  0  0  0  0
  8 14  1  0  0  0  0
  8 15  1  0  0  0  0
  9 10  1  0  0  0  0
  9 16  1  0  0  0  0
 10 11  1  0  0  0  0
 10 12  1  0  0  0  0
 10 13  1  0  0  0  0
M  CHG  1  10   1
M  END
>  <CHROM.0>
-54.39621528,-69.67801311,-68.49163907,-46.61093400,-60.03654707,-53.43365927
-68.61877306,55.05400077,-168.21698332

>  <CHROM.1>
-87.91718958,-145.19811187,129.65839735,160.61054303,1.78166183,14.10995202
4.09436541,-0.20482450,-0.32385462,0.19379609

>  <Name>
P117594918

>  <RI>
3.58524e+07

>  <Rbt.Current_Directory>
/home/fstefaniak/projects/zuza/docking/adenine/4XNR

>  <Rbt.Executable>
rbdock ($Id: //depot/dev/client3/rdock/2013.1/src/exe/rbdock.cxx#4 $)

>  <Rbt.Library>
libRbt.so (2013.1, Build901 2013/11/27)

>  <Rbt.Parameter_File>
/home/fstefaniak/progs/rDock//data/scripts/dock_solv.prm

>  <Rbt.Receptor>
4xnr.prm

>  <SCORE>
-45.3124

>  <SCORE.INTER>
-29.6692

>  <SCORE.INTER.CONST>
1

>  <SCORE.INTER.POLAR>
-4.72464

>  <SCORE.INTER.ROT>
3

>  <SCORE.INTER.SOLV>
19.5911

>  <SCORE.INTER.VDW>
-16.1611

>  <SCORE.INTER.norm>
-2.96692

>  <SCORE.INTRA>
3.96868

>  <SCORE.INTRA.DIHEDRAL>
6.5479

>  <SCORE.INTRA.DIHEDRAL.0>
0.879253

>  <SCORE.INTRA.POLAR>
0

>  <SCORE.INTRA.POLAR.0>
0

>  <SCORE.INTRA.REPUL>
0

>  <SCORE.INTRA.REPUL.0>
0

>  <SCORE.INTRA.SOLV>
-1.58664

>  <SCORE.INTRA.SOLV.lig_0>
-32.6496

>  <SCORE.INTRA.VDW>
1.48805

>  <SCORE.INTRA.VDW.0>
-0.0300844

>  <SCORE.INTRA.norm>
0.396868

>  <SCORE.RESTR>
0

>  <SCORE.RESTR.CAVITY>
0

>  <SCORE.RESTR.norm>
0

>  <SCORE.SYSTEM>
-19.6118

>  <SCORE.SYSTEM.CONST>
0

>  <SCORE.SYSTEM.DIHEDRAL>
5.12318

>  <SCORE.SYSTEM.POLAR>
-3.04657

>  <SCORE.SYSTEM.SOLV>
0.119255

>  <SCORE.SYSTEM.VDW>
-4.66681

>  <SCORE.SYSTEM.norm>
-1.96118

>  <SCORE.heavy>
10

>  <SCORE.norm>
-4.53124

$$$$
P117594918
 OpenBabel12072022113D
libRbt.so/2013.1/901 2013/11/27
 16 15  0  0  0  0  0  0  0  0999 V2000
    4.0776   14.4347    3.9337 C   0  0  0  0  0  0  0  0  0  0  0  0
    2.9311   13.5409    4.4477 C   0  0  0  0  0  0  0  0  0  0  0  0
    2.9346   12.2362    3.6252 C   0  0  0  0  0  0  0  0  0  0  0  0
    3.2429   13.1450    5.9123 C   0  0  0  0  0  0  0  0  0  0  0  0
    1.5387   14.2642    4.3904 C   0  0  2  0  0  0  0  0  0  0  0  0
    0.5279   13.6979    3.3582 C   0  0  0  0  0  0  0  0  0  0  0  0
    0.5553   14.0626    2.1790 O   0  0  0  0  0  0  0  0  0  0  0  0
   -0.4805   12.9059    3.7971 N   0  0  0  0  0  0  0  0  0  0  0  0
    1.7248   15.7297    4.0848 N   0  0  0  0  0  0  0  0  0  0  0  0
    0.6991   16.5398    4.6848 N   0  3  0  0  0  0  0  0  0  0  0  0
    0.5088   16.2296    5.6656 H   0  0  0  0  0  0  0  0  0  0  0  0
    0.9394   17.5433    4.7044 H   0  0  0  0  0  0  0  0  0  0  0  0
   -0.1956   16.4569    4.1734 H   0  0  0  0  0  0  0  0  0  0  0  0
   -0.6471   12.6458    4.7613 H   0  0  0  0  0  0  0  0  0  0  0  0
   -1.1486   12.5558    3.1161 H   0  0  0  0  0  0  0  0  0  0  0  0
    1.7089   15.8196    3.0562 H   0  0  0  0  0  0  0  0  0  0  0  0
  1  2  1  0  0  0  0
  2  3  1  0  0  0  0
  2  4  1  0  0  0  0
  5  6  1  6  0  0  0
  5  9  1  0  0  0  0
  5  2  1  0  0  0  0
  6  7  2  0  0  0  0
  6  8  1  0  0  0  0
  8 14  1  0  0  0  0
  8 15  1  0  0  0  0
  9 10  1  0  0  0  0
  9 16  1  0  0  0  0
 10 11  1  0  0  0  0
 10 12  1  0  0  0  0
 10 13  1  0  0  0  0
M  CHG  1  10   1
M  END
>  <CHROM.0>
-57.11596098,64.52933713,58.07525698,-49.25031209,-59.82840744,-63.90123250
52.92097579,56.92309388,-168.24542936

>  <CHROM.1>
-84.70769932,-149.19604912,111.78245107,43.11683053,1.73062667,14.09741953
4.03529432,-0.27369808,-0.39811428,0.25114639

>  <Name>
P117594918

>  <RI>
3.58524e+07

>  <Rbt.Current_Directory>
/home/fstefaniak/projects/zuza/docking/adenine/4XNR

>  <Rbt.Executable>
rbdock ($Id: //depot/dev/client3/rdock/2013.1/src/exe/rbdock.cxx#4 $)

>  <Rbt.Library>
libRbt.so (2013.1, Build901 2013/11/27)

>  <Rbt.Parameter_File>
/home/fstefaniak/progs/rDock//data/scripts/dock_solv.prm

>  <Rbt.Receptor>
4xnr.prm

>  <SCORE>
-45.2104

>  <SCORE.INTER>
-32.0122

>  <SCORE.INTER.CONST>
1

>  <SCORE.INTER.POLAR>
-5.22153

>  <SCORE.INTER.ROT>
3

>  <SCORE.INTER.SOLV>
19.9818

>  <SCORE.INTER.VDW>
-16.197

>  <SCORE.INTER.norm>
-3.20122

>  <SCORE.INTRA>
3.80877

>  <SCORE.INTRA.DIHEDRAL>
6.37244

>  <SCORE.INTRA.DIHEDRAL.0>
0.879253

>  <SCORE.INTRA.POLAR>
0

>  <SCORE.INTRA.POLAR.0>
0

>  <SCORE.INTRA.REPUL>
0

>  <SCORE.INTRA.REPUL.0>
0

>  <SCORE.INTRA.SOLV>
-1.46671

>  <SCORE.INTRA.SOLV.lig_0>
-32.6496

>  <SCORE.INTRA.VDW>
1.35591

>  <SCORE.INTRA.VDW.0>
-0.0300844

>  <SCORE.INTRA.norm>
0.380877

>  <SCORE.RESTR>
0

>  <SCORE.RESTR.CAVITY>
0

>  <SCORE.RESTR.norm>
0

>  <SCORE.SYSTEM>
-17.007

>  <SCORE.SYSTEM.CONST>
0

>  <SCORE.SYSTEM.DIHEDRAL>
3.77882

>  <SCORE.SYSTEM.POLAR>
-2.94042

>  <SCORE.SYSTEM.SOLV>
0.0670364

>  <SCORE.SYSTEM.VDW>
-2.81854

>  <SCORE.SYSTEM.norm>
-1.7007

>  <SCORE.heavy>
10

>  <SCORE.norm>
-4.52104

$$$$
P117751977
 OpenBabel12072022113D
libRbt.so/2013.1/901 2013/11/27
 13 13  0  0  0  0  0  0  0  0999 V2000
    6.8925   19.7675    5.4580 C   0  0  0  0  0  0  0  0  0  0  0  0
    6.4301   19.1991    6.7866 C   0  0  0  0  0  0  0  0  0  0  0  0
    5.4630   18.1250    6.4410 N   0  3  0  0  0  0  0  0  0  0  0  0
    5.8796   17.2063    6.7730 H   0  0  0  0  0  0  0  0  0  0  0  0
    4.5435   18.1796    6.8835 H   0  0  0  0  0  0  0  0  0  0  0  0
    5.4123   17.9871    4.9429 C   0  0  1  0  0  0  0  0  0  0  0  0
    6.7377   18.6129    4.4804 C   0  0  1  0  0  0  0  0  0  0  0  0
    6.6605   19.1121    3.1555 O   0  0  0  0  0  0  0  0  0  0  0  0
    5.1603   16.5584    4.5029 C   0  0  0  0  0  0  0  0  0  0  0  0
    4.6921   16.6372    3.0649 C   0  0  0  0  0  0  0  0  0  0  0  0
    5.6339   16.4326    2.2357 O   0  0  0  0  0  0  0  0  0  0  0  0
    3.5115   17.0124    2.8980 O   0  5  0  0  0  0  0  0  0  0  0  0
    6.6325   18.3355    2.5612 H   0  0  0  0  0  0  0  0  0  0  0  0
  1  2  1  0  0  0  0
  1  7  1  0  0  0  0
  2  3  1  0  0  0  0
  3  4  1  0  0  0  0
  3  5  1  0  0  0  0
  3  6  1  0  0  0  0
  6  9  1  1  0  0  0
  6  7  1  0  0  0  0
  7  8  1  6  0  0  0
  8 13  1  0  0  0  0
  9 10  1  0  0  0  0
 10 11  2  0  0  0  0
 10 12  1  0  0  0  0
M  CHG  2   3   1  12  -1
M  END
>  <CHROM.0>
-59.21599627,-62.98421160,-56.57449696,-46.59143064,-55.16409911,-59.74248062
-69.34325076,-57.93480441,-167.59573735

>  <CHROM.1>
162.01842274,175.67807084,97.23210600,5.65168551,17.93950220,4.36484698,-0.99022155
-0.75797853,-1.78948434

>  <Name>
P117751977

>  <RI>
1.00763e+07

>  <Rbt.Current_Directory>
/home/fstefaniak/projects/zuza/docking/adenine/4XNR

>  <Rbt.Executable>
rbdock ($Id: //depot/dev/client3/rdock/2013.1/src/exe/rbdock.cxx#4 $)

>  <Rbt.Library>
libRbt.so (2013.1, Build901 2013/11/27)

>  <Rbt.Parameter_File>
/home/fstefaniak/progs/rDock//data/scripts/dock_solv.prm

>  <Rbt.Receptor>
4xnr.prm

>  <SCORE>
-46.8974

>  <SCORE.INTER>
-23.3376

>  <SCORE.INTER.CONST>
1

>  <SCORE.INTER.POLAR>
-3.73374

>  <SCORE.INTER.ROT>
2

>  <SCORE.INTER.SOLV>
28.1373

>  <SCORE.INTER.VDW>
-17.425

>  <SCORE.INTER.norm>
-2.33376

>  <SCORE.INTRA>
-3.01165

>  <SCORE.INTRA.DIHEDRAL>
-0.0469625

>  <SCORE.INTRA.DIHEDRAL.0>
2.52013

>  <SCORE.INTRA.POLAR>
0.41706

>  <SCORE.INTRA.POLAR.0>
-0.41706

>  <SCORE.INTRA.REPUL>
0

>  <SCORE.INTRA.REPUL.0>
0

>  <SCORE.INTRA.SOLV>
-5.07542

>  <SCORE.INTRA.SOLV.lig_0>
-45.1374

>  <SCORE.INTRA.VDW>
-1.86847

>  <SCORE.INTRA.VDW.0>
0.808091

>  <SCORE.INTRA.norm>
-0.301165

>  <SCORE.RESTR>
0

>  <SCORE.RESTR.CAVITY>
0

>  <SCORE.RESTR.norm>
0

>  <SCORE.SYSTEM>
-20.5482

>  <SCORE.SYSTEM.CONST>
0

>  <SCORE.SYSTEM.DIHEDRAL>
4.25713

>  <SCORE.SYSTEM.POLAR>
-3.0143

>  <SCORE.SYSTEM.SOLV>
0.303834

>  <SCORE.SYSTEM.VDW>
-5.17146

>  <SCORE.SYSTEM.norm>
-2.05482

>  <SCORE.heavy>
10

>  <SCORE.norm>
-4.68974

$$$$
P117751977
 OpenBabel12072022113D
libRbt.so/2013.1/901 2013/11/27
 13 13  0  0  0  0  0  0  0  0999 V2000
    6.8293   19.8066    5.4719 C   0  0  0  0  0  0  0  0  0  0  0  0
    6.3760   19.2202    6.7957 C   0  0  0  0  0  0  0  0  0  0  0  0
    5.4507   18.1128    6.4406 N   0  3  0  0  0  0  0  0  0  0  0  0
    5.8968   17.2091    6.7751 H   0  0  0  0  0  0  0  0  0  0  0  0
    4.5261   18.1341    6.8752 H   0  0  0  0  0  0  0  0  0  0  0  0
    5.4178   17.9754    4.9419 C   0  0  1  0  0  0  0  0  0  0  0  0
    6.7240   18.6487    4.4916 C   0  0  1  0  0  0  0  0  0  0  0  0
    6.6405   19.1468    3.1667 O   0  0  0  0  0  0  0  0  0  0  0  0
    5.2206   16.5394    4.4980 C   0  0  0  0  0  0  0  0  0  0  0  0
    4.8505   16.5994    3.0309 C   0  0  0  0  0  0  0  0  0  0  0  0
    5.8505   16.4075    2.2697 O   0  0  0  0  0  0  0  0  0  0  0  0
    3.6772   16.9503    2.7807 O   0  5  0  0  0  0  0  0  0  0  0  0
    6.6065   18.3697    2.5733 H   0  0  0  0  0  0  0  0  0  0  0  0
  1  2  1  0  0  0  0
  1  7  1  0  0  0  0
  2  3  1  0  0  0  0
  3  4  1  0  0  0  0
  3  5  1  0  0  0  0
  3  6  1  0  0  0  0
  6  9  1  1  0  0  0
  6  7  1  0  0  0  0
  7  8  1  6  0  0  0
  8 13  1  0  0  0  0
  9 10  1  0  0  0  0
 10 11  2  0  0  0  0
 10 12  1  0  0  0  0
M  CHG  2   3   1  12  -1
M  END
>  <CHROM.0>
-56.88065930,51.63620998,-65.83398549,-48.02592393,-56.10681278,-65.62975897
-68.56645381,-58.84981988,-168.34197562

>  <CHROM.1>
165.63949547,178.05180199,97.10541876,5.69712877,17.93548933,4.35675685,-1.04515382
-0.80721508,-1.81580557

>  <Name>
P117751977

>  <RI>
1.00763e+07

>  <Rbt.Current_Directory>
/home/fstefaniak/projects/zuza/docking/adenine/4XNR

>  <Rbt.Executable>
rbdock ($Id: //depot/dev/client3/rdock/2013.1/src/exe/rbdock.cxx#4 $)

>  <Rbt.Library>
libRbt.so (2013.1, Build901 2013/11/27)

>  <Rbt.Parameter_File>
/home/fstefaniak/progs/rDock//data/scripts/dock_solv.prm

>  <Rbt.Receptor>
4xnr.prm

>  <SCORE>
-46.501

>  <SCORE.INTER>
-23.4133

>  <SCORE.INTER.CONST>
1

>  <SCORE.INTER.POLAR>
-3.79515

>  <SCORE.INTER.ROT>
2

>  <SCORE.INTER.SOLV>
28.4238

>  <SCORE.INTER.VDW>
-17.3663

>  <SCORE.INTER.norm>
-2.34133

>  <SCORE.INTRA>
-3.05778

>  <SCORE.INTRA.DIHEDRAL>
-0.478986

>  <SCORE.INTRA.DIHEDRAL.0>
2.52013

>  <SCORE.INTRA.POLAR>
0.41706

>  <SCORE.INTRA.POLAR.0>
-0.41706

>  <SCORE.INTRA.REPUL>
0

>  <SCORE.INTRA.REPUL.0>
0

>  <SCORE.INTRA.SOLV>
-4.91574

>  <SCORE.INTRA.SOLV.lig_0>
-45.1374

>  <SCORE.INTRA.VDW>
-1.77843

>  <SCORE.INTRA.VDW.0>
0.808091

>  <SCORE.INTRA.norm>
-0.305778

>  <SCORE.RESTR>
0

>  <SCORE.RESTR.CAVITY>
0

>  <SCORE.RESTR.norm>
0

>  <SCORE.SYSTEM>
-20.0299

>  <SCORE.SYSTEM.CONST>
0

>  <SCORE.SYSTEM.DIHEDRAL>
4.48194

>  <SCORE.SYSTEM.POLAR>
-3.01574

>  <SCORE.SYSTEM.SOLV>
0.386922

>  <SCORE.SYSTEM.VDW>
-4.92374

>  <SCORE.SYSTEM.norm>
-2.00299

>  <SCORE.heavy>
10

>  <SCORE.norm>
-4.6501

$$$$
P117751977
 OpenBabel12072022113D
libRbt.so/2013.1/901 2013/11/27
 13 13  0  0  0  0  0  0  0  0999 V2000
    6.7839   19.8614    5.5088 C   0  0  0  0  0  0  0  0  0  0  0  0
    6.3455   19.2567    6.8294 C   0  0  0  0  0  0  0  0  0  0  0  0
    5.4422   18.1332    6.4684 N   0  3  0  0  0  0  0  0  0  0  0  0
    5.9075   17.2364    6.7957 H   0  0  0  0  0  0  0  0  0  0  0  0
    4.5183   18.1325    6.9049 H   0  0  0  0  0  0  0  0  0  0  0  0
    5.4090   18.0055    4.9689 C   0  0  1  0  0  0  0  0  0  0  0  0
    6.7002   18.7085    4.5206 C   0  0  1  0  0  0  0  0  0  0  0  0
    6.6037   19.2139    3.1994 O   0  0  0  0  0  0  0  0  0  0  0  0
    5.2403   16.5688    4.5154 C   0  0  0  0  0  0  0  0  0  0  0  0
    4.8070   16.6330    3.0658 C   0  0  0  0  0  0  0  0  0  0  0  0
    5.7676   16.4159    2.2618 O   0  0  0  0  0  0  0  0  0  0  0  0
    3.6321   17.0102    2.8664 O   0  5  0  0  0  0  0  0  0  0  0  0
    6.5465   18.4401    2.6034 H   0  0  0  0  0  0  0  0  0  0  0  0
  1  2  1  0  0  0  0
  1  7  1  0  0  0  0
  2  3  1  0  0  0  0
  3  4  1  0  0  0  0
  3  5  1  0  0  0  0
  3  6  1  0  0  0  0
  6  9  1  1  0  0  0
  6  7  1  0  0  0  0
  7  8  1  6  0  0  0
  8 13  1  0  0  0  0
  9 10  1  0  0  0  0
 10 11  2  0  0  0  0
 10 12  1  0  0  0  0
M  CHG  2   3   1  12  -1
M  END
>  <CHROM.0>
-56.50705242,-59.85062916,-66.20587967,-46.69025339,58.44253734,-57.38527744
-67.98008984,-170.37688943,-169.05416792

>  <CHROM.1>
163.22677131,-179.61936233,100.43267686,5.66577090,17.97554766,4.38858709
-1.03111508,-0.82239992,-1.80407404

>  <Name>
P117751977

>  <RI>
1.00763e+07

>  <Rbt.Current_Directory>
/home/fstefaniak/projects/zuza/docking/adenine/4XNR

>  <Rbt.Executable>
rbdock ($Id: //depot/dev/client3/rdock/2013.1/src/exe/rbdock.cxx#4 $)

>  <Rbt.Library>
libRbt.so (2013.1, Build901 2013/11/27)

>  <Rbt.Parameter_File>
/home/fstefaniak/progs/rDock//data/scripts/dock_solv.prm

>  <Rbt.Receptor>
4xnr.prm

>  <SCORE>
-45.9326

>  <SCORE.INTER>
-23.2871

>  <SCORE.INTER.CONST>
1

>  <SCORE.INTER.POLAR>
-3.83221

>  <SCORE.INTER.ROT>
2

>  <SCORE.INTER.SOLV>
28.4371

>  <SCORE.INTER.VDW>
-17.1631

>  <SCORE.INTER.norm>
-2.32871

>  <SCORE.INTRA>
-2.97819

>  <SCORE.INTRA.DIHEDRAL>
-0.237457

>  <SCORE.INTRA.DIHEDRAL.0>
2.52013

>  <SCORE.INTRA.POLAR>
0.41706

>  <SCORE.INTRA.POLAR.0>
-0.41706

>  <SCORE.INTRA.REPUL>
0

>  <SCORE.INTRA.REPUL.0>
0

>  <SCORE.INTRA.SOLV>
-5.00299

>  <SCORE.INTRA.SOLV.lig_0>
-45.1374

>  <SCORE.INTRA.VDW>
-1.77596

>  <SCORE.INTRA.VDW.0>
0.808091

>  <SCORE.INTRA.norm>
-0.297819

>  <SCORE.RESTR>
0

>  <SCORE.RESTR.CAVITY>
0

>  <SCORE.RESTR.norm>
0

>  <SCORE.SYSTEM>
-19.6673

>  <SCORE.SYSTEM.CONST>
0

>  <SCORE.SYSTEM.DIHEDRAL>
4.45438

>  <SCORE.SYSTEM.POLAR>
-2.99081

>  <SCORE.SYSTEM.SOLV>
-0.0467808

>  <SCORE.SYSTEM.VDW>
-4.61138

>  <SCORE.SYSTEM.norm>
-1.96673

>  <SCORE.heavy>
10

>  <SCORE.norm>
-4.59326

$$$$
P118224946
 OpenBabel12072022113D
libRbt.so/2013.1/901 2013/11/27
 16 16  0  0  0  0  0  0  0  0999 V2000
    6.0735   18.9810    5.5303 C   0  0  0  0  0  0  0  0  0  0  0  0
    5.3785   17.8425    5.9047 C   0  0  0  0  0  0  0  0  0  0  0  0
    5.1108   16.8451    4.9606 C   0  0  0  0  0  0  0  0  0  0  0  0
    5.5314   16.9195    3.6187 C   0  0  0  0  0  0  0  0  0  0  0  0
    6.2938   18.0756    3.2742 C   0  0  0  0  0  0  0  0  0  0  0  0
    6.5182   19.1029    4.2184 C   0  0  0  0  0  0  0  0  0  0  0  0
    6.7712   18.2092    1.8635 C   0  0  0  0  0  0  0  0  0  0  0  0
    6.0410   17.9377    0.7730 N   0  3  0  0  0  0  0  0  0  0  0  0
    6.5189   18.0075   -0.1199 H   0  0  0  0  0  0  0  0  0  0  0  0
    4.6815   17.6634    0.8692 N   0  0  0  0  0  0  0  0  0  0  0  0
    7.9959   18.6752    1.7085 N   0  0  0  0  0  0  0  0  0  0  0  0
    5.2189   16.0200    2.7643 O   0  5  0  0  0  0  0  0  0  0  0  0
    4.1455   18.5346    0.9653 H   0  0  0  0  0  0  0  0  0  0  0  0
    4.3561   17.1642    0.0401 H   0  0  0  0  0  0  0  0  0  0  0  0
    8.1260   19.0758    0.7574 H   0  0  0  0  0  0  0  0  0  0  0  0
    8.8103   18.3609    2.1953 H   0  0  0  0  0  0  0  0  0  0  0  0
  1  2  2  0  0  0  0
  1  6  1  0  0  0  0
  2  3  1  0  0  0  0
  3  4  2  0  0  0  0
  4  5  1  0  0  0  0
  4 12  1  0  0  0  0
  5  6  2  0  0  0  0
  5  7  1  0  0  0  0
  7  8  2  0  0  0  0
  7 11  1  0  0  0  0
  8  9  1  0  0  0  0
  8 10  1  0  0  0  0
 10 13  1  0  0  0  0
 10 14  1  0  0  0  0
 11 15  1  0  0  0  0
 11 16  1  0  0  0  0
M  CHG  2   8   1  12  -1
M  END
>  <CHROM.0>
-56.41530902,-60.74864391,-62.57841931,-45.71138920,-58.59341067,-60.67877479
-71.27538088,-57.75804861,-167.43572367

>  <CHROM.1>
42.75307499,-158.32922239,79.64769643,5.96517554,17.82689211,3.09966948,-1.74756679
-0.76608225,-1.69842660

>  <Name>
P118224946

>  <RI>
2.22087e+07

>  <Rbt.Current_Directory>
/home/fstefaniak/projects/zuza/docking/adenine/4XNR

>  <Rbt.Executable>
rbdock ($Id: //depot/dev/client3/rdock/2013.1/src/exe/rbdock.cxx#4 $)

>  <Rbt.Library>
libRbt.so (2013.1, Build901 2013/11/27)

>  <Rbt.Parameter_File>
/home/fstefaniak/progs/rDock//data/scripts/dock_solv.prm

>  <Rbt.Receptor>
4xnr.prm

>  <SCORE>
-54.2872

>  <SCORE.INTER>
-34.0038

>  <SCORE.INTER.CONST>
1

>  <SCORE.INTER.POLAR>
-5.63382

>  <SCORE.INTER.ROT>
3

>  <SCORE.INTER.SOLV>
28.3575

>  <SCORE.INTER.VDW>
-18.9423

>  <SCORE.INTER.norm>
-3.09126

>  <SCORE.INTRA>
0.459522

>  <SCORE.INTRA.DIHEDRAL>
1.02198

>  <SCORE.INTRA.DIHEDRAL.0>
6.24323

>  <SCORE.INTRA.POLAR>
0

>  <SCORE.INTRA.POLAR.0>
0

>  <SCORE.INTRA.REPUL>
0

>  <SCORE.INTRA.REPUL.0>
0

>  <SCORE.INTRA.SOLV>
2.01172

>  <SCORE.INTRA.SOLV.lig_0>
-54.8477

>  <SCORE.INTRA.VDW>
-1.05733

>  <SCORE.INTRA.VDW.0>
0.0998396

>  <SCORE.INTRA.norm>
0.0417747

>  <SCORE.RESTR>
0.00133276

>  <SCORE.RESTR.CAVITY>
0.00133276

>  <SCORE.RESTR.norm>
0.00012116

>  <SCORE.SYSTEM>
-20.7443

>  <SCORE.SYSTEM.CONST>
0

>  <SCORE.SYSTEM.DIHEDRAL>
4.45597

>  <SCORE.SYSTEM.POLAR>
-3.03049

>  <SCORE.SYSTEM.SOLV>
0.29224

>  <SCORE.SYSTEM.VDW>
-5.3106

>  <SCORE.SYSTEM.norm>
-1.88584

>  <SCORE.heavy>
11

>  <SCORE.norm>
-4.9352

$$$$
P118224946
 OpenBabel12072022113D
libRbt.so/2013.1/901 2013/11/27
 16 16  0  0  0  0  0  0  0  0999 V2000
    5.5474   18.2885    6.7609 C   0  0  0  0  0  0  0  0  0  0  0  0
    6.2320   19.4584    6.4744 C   0  0  0  0  0  0  0  0  0  0  0  0
    6.6440   19.7239    5.1639 C   0  0  0  0  0  0  0  0  0  0  0  0
    6.3830   18.8601    4.0827 C   0  0  0  0  0  0  0  0  0  0  0  0
    5.6273   17.6907    4.3956 C   0  0  0  0  0  0  0  0  0  0  0  0
    5.2573   17.4028    5.7288 C   0  0  0  0  0  0  0  0  0  0  0  0
    5.3161   16.7363    3.2874 C   0  0  0  0  0  0  0  0  0  0  0  0
    4.8591   15.4871    3.4507 N   0  3  0  0  0  0  0  0  0  0  0  0
    4.7582   14.9290    2.6088 H   0  0  0  0  0  0  0  0  0  0  0  0
    4.4646   15.0245    4.7009 N   0  0  0  0  0  0  0  0  0  0  0  0
    5.4702   17.2017    2.0623 N   0  0  0  0  0  0  0  0  0  0  0  0
    6.8254   19.1008    2.9067 O   0  5  0  0  0  0  0  0  0  0  0  0
    3.7473   15.6410    5.1019 H   0  0  0  0  0  0  0  0  0  0  0  0
    4.0870   14.0785    4.6313 H   0  0  0  0  0  0  0  0  0  0  0  0
    6.4455   17.5275    1.9060 H   0  0  0  0  0  0  0  0  0  0  0  0
    4.7522   17.5932    1.4878 H   0  0  0  0  0  0  0  0  0  0  0  0
  1  2  2  0  0  0  0
  1  6  1  0  0  0  0
  2  3  1  0  0  0  0
  3  4  2  0  0  0  0
  4  5  1  0  0  0  0
  4 12  1  0  0  0  0
  5  6  2  0  0  0  0
  5  7  1  0  0  0  0
  7  8  2  0  0  0  0
  7 11  1  0  0  0  0
  8  9  1  0  0  0  0
  8 10  1  0  0  0  0
 10 13  1  0  0  0  0
 10 14  1  0  0  0  0
 11 15  1  0  0  0  0
 11 16  1  0  0  0  0
M  CHG  2   8   1  12  -1
M  END
>  <CHROM.0>
-56.71320357,-62.72035184,-56.92058219,-45.90598163,-175.35832939,-62.93184912
-67.76774559,-175.34813064,-166.79046442

>  <CHROM.1>
166.04820732,58.23366433,55.52018861,5.66788315,17.65660590,4.37175289,0.75349767
1.08809094,1.29046676

>  <Name>
P118224946

>  <RI>
2.22087e+07

>  <Rbt.Current_Directory>
/home/fstefaniak/projects/zuza/docking/adenine/4XNR

>  <Rbt.Executable>
rbdock ($Id: //depot/dev/client3/rdock/2013.1/src/exe/rbdock.cxx#4 $)

>  <Rbt.Library>
libRbt.so (2013.1, Build901 2013/11/27)

>  <Rbt.Parameter_File>
/home/fstefaniak/progs/rDock//data/scripts/dock_solv.prm

>  <Rbt.Receptor>
4xnr.prm

>  <SCORE>
-53.9303

>  <SCORE.INTER>
-31.9853

>  <SCORE.INTER.CONST>
1

>  <SCORE.INTER.POLAR>
-4.74369

>  <SCORE.INTER.ROT>
3

>  <SCORE.INTER.SOLV>
28.6677

>  <SCORE.INTER.VDW>
-20.6671

>  <SCORE.INTER.norm>
-2.90775

>  <SCORE.INTRA>
-1.33678

>  <SCORE.INTRA.DIHEDRAL>
-4.25531

>  <SCORE.INTRA.DIHEDRAL.0>
6.24323

>  <SCORE.INTRA.POLAR>
-0.00394855

>  <SCORE.INTRA.POLAR.0>
0

>  <SCORE.INTRA.REPUL>
0

>  <SCORE.INTRA.REPUL.0>
0

>  <SCORE.INTRA.SOLV>
0.188679

>  <SCORE.INTRA.SOLV.lig_0>
-54.8477

>  <SCORE.INTRA.VDW>
0.709963

>  <SCORE.INTRA.VDW.0>
0.0998396

>  <SCORE.INTRA.norm>
-0.121525

>  <SCORE.RESTR>
0

>  <SCORE.RESTR.CAVITY>
0

>  <SCORE.RESTR.norm>
0

>  <SCORE.SYSTEM>
-20.6082

>  <SCORE.SYSTEM.CONST>
0

>  <SCORE.SYSTEM.DIHEDRAL>
4.44489

>  <SCORE.SYSTEM.POLAR>
-3.03103

>  <SCORE.SYSTEM.SOLV>
-0.0105607

>  <SCORE.SYSTEM.VDW>
-5.11349

>  <SCORE.SYSTEM.norm>
-1.87348

>  <SCORE.heavy>
11

>  <SCORE.norm>
-4.90275

$$$$
P118224946
 OpenBabel12072022113D
libRbt.so/2013.1/901 2013/11/27
 16 16  0  0  0  0  0  0  0  0999 V2000
    6.1534   18.9412    5.5445 C   0  0  0  0  0  0  0  0  0  0  0  0
    5.4196   17.8240    5.9088 C   0  0  0  0  0  0  0  0  0  0  0  0
    5.1161   16.8460    4.9553 C   0  0  0  0  0  0  0  0  0  0  0  0
    5.5373   16.9189    3.6135 C   0  0  0  0  0  0  0  0  0  0  0  0
    6.3392   18.0511    3.2792 C   0  0  0  0  0  0  0  0  0  0  0  0
    6.6005   19.0606    4.2331 C   0  0  0  0  0  0  0  0  0  0  0  0
    6.8192   18.1819    1.8691 C   0  0  0  0  0  0  0  0  0  0  0  0
    6.0873   17.9192    0.7776 N   0  3  0  0  0  0  0  0  0  0  0  0
    6.5666   17.9855   -0.1148 H   0  0  0  0  0  0  0  0  0  0  0  0
    4.7250   17.6585    0.8721 N   0  0  0  0  0  0  0  0  0  0  0  0
    8.0486   18.6359    1.7159 N   0  0  0  0  0  0  0  0  0  0  0  0
    5.1926   16.0394    2.7509 O   0  5  0  0  0  0  0  0  0  0  0  0
    4.1990   18.5337    0.9852 H   0  0  0  0  0  0  0  0  0  0  0  0
    4.3922   17.1778    0.0351 H   0  0  0  0  0  0  0  0  0  0  0  0
    8.1893   19.0187    0.7591 H   0  0  0  0  0  0  0  0  0  0  0  0
    8.8567   18.3239    2.2146 H   0  0  0  0  0  0  0  0  0  0  0  0
  1  2  2  0  0  0  0
  1  6  1  0  0  0  0
  2  3  1  0  0  0  0
  3  4  2  0  0  0  0
  4  5  1  0  0  0  0
  4 12  1  0  0  0  0
  5  6  2  0  0  0  0
  5  7  1  0  0  0  0
  7  8  2  0  0  0  0
  7 11  1  0  0  0  0
  8  9  1  0  0  0  0
  8 10  1  0  0  0  0
 10 13  1  0  0  0  0
 10 14  1  0  0  0  0
 11 15  1  0  0  0  0
 11 16  1  0  0  0  0
M  CHG  2   8   1  12  -1
M  END
>  <CHROM.0>
-60.64950084,54.69644769,-66.89261080,-46.46626630,-59.53512546,-62.59635477
-67.58667471,-59.62363294,-167.64327195

>  <CHROM.1>
41.24291400,-159.49135063,78.68377414,6.00310914,17.80966545,3.10272652,-1.74027813
-0.73831698,-1.69111164

>  <Name>
P118224946

>  <RI>
2.22087e+07

>  <Rbt.Current_Directory>
/home/fstefaniak/projects/zuza/docking/adenine/4XNR

>  <Rbt.Executable>
rbdock ($Id: //depot/dev/client3/rdock/2013.1/src/exe/rbdock.cxx#4 $)

>  <Rbt.Library>
libRbt.so (2013.1, Build901 2013/11/27)

>  <Rbt.Parameter_File>
/home/fstefaniak/progs/rDock//data/scripts/dock_solv.prm

>  <Rbt.Receptor>
4xnr.prm

>  <SCORE>
-53.651

>  <SCORE.INTER>
-34.0669

>  <SCORE.INTER.CONST>
1

>  <SCORE.INTER.POLAR>
-5.71442

>  <SCORE.INTER.ROT>
3

>  <SCORE.INTER.SOLV>
28.1849

>  <SCORE.INTER.VDW>
-18.6581

>  <SCORE.INTER.norm>
-3.09699

>  <SCORE.INTRA>
0.5073

>  <SCORE.INTRA.DIHEDRAL>
0.689732

>  <SCORE.INTRA.DIHEDRAL.0>
6.24323

>  <SCORE.INTRA.POLAR>
0

>  <SCORE.INTRA.POLAR.0>
0

>  <SCORE.INTRA.REPUL>
0

>  <SCORE.INTRA.REPUL.0>
0

>  <SCORE.INTRA.SOLV>
2.11527

>  <SCORE.INTRA.SOLV.lig_0>
-54.8477

>  <SCORE.INTRA.VDW>
-0.8952

>  <SCORE.INTRA.VDW.0>
0.0998396

>  <SCORE.INTRA.norm>
0.0461182

>  <SCORE.RESTR>
0

>  <SCORE.RESTR.CAVITY>
0

>  <SCORE.RESTR.norm>
0

>  <SCORE.SYSTEM>
-20.0914

>  <SCORE.SYSTEM.CONST>
0

>  <SCORE.SYSTEM.DIHEDRAL>
4.29493

>  <SCORE.SYSTEM.POLAR>
-2.99244

>  <SCORE.SYSTEM.SOLV>
0.376357

>  <SCORE.SYSTEM.VDW>
-4.97657

>  <SCORE.SYSTEM.norm>
-1.82649

>  <SCORE.heavy>
11

>  <SCORE.norm>
-4.87736

$$$$
P121825487
 OpenBabel12072022113D
libRbt.so/2013.1/901 2013/11/27
  9  9  0  0  0  0  0  0  0  0999 V2000
    6.8131   19.7170    5.4850 C   0  0  0  0  0  0  0  0  0  0  0  0
    6.3462   19.1683    6.7057 C   0  0  0  0  0  0  0  0  0  0  0  0
    5.4656   18.1546    6.3881 C   0  0  0  0  0  0  0  0  0  0  0  0
    5.3945   18.0832    5.0292 N   0  0  0  0  0  0  0  0  0  0  0  0
    6.2030   19.0210    4.4604 C   0  0  0  0  0  0  0  0  0  0  0  0
    4.5780   17.1459    4.3742 N   0  0  0  0  0  0  0  0  0  0  0  0
    4.5532   17.1095    3.0449 C   0  0  0  0  0  0  0  0  0  0  0  0
    4.5162   17.0600    1.8893 N   0  0  0  0  0  0  0  0  0  0  0  0
    4.0289   16.5208    4.9625 H   0  0  0  0  0  0  0  0  0  0  0  0
  1  2  1  0  0  0  0
  1  5  2  0  0  0  0
  2  3  2  0  0  0  0
  3  4  1  0  0  0  0
  4  5  1  0  0  0  0
  4  6  1  0  0  0  0
  6  7  1  0  0  0  0
  6  9  1  0  0  0  0
  7  8  3  0  0  0  0
M  END
>  <CHROM.0>
-57.68687658,-62.68512555,-68.10341545,-46.17625761,-60.37723274,-64.02121772
-68.94301033,-61.57138807,-167.55118284

>  <CHROM.1>
-179.40585625,5.46068565,18.15608047,4.66502402,-0.89908618,-0.85679366,-1.56985693

>  <Name>
P121825487

>  <RI>
3.1908e+07

>  <Rbt.Current_Directory>
/home/fstefaniak/projects/zuza/docking/adenine/4XNR

>  <Rbt.Executable>
rbdock ($Id: //depot/dev/client3/rdock/2013.1/src/exe/rbdock.cxx#4 $)

>  <Rbt.Library>
libRbt.so (2013.1, Build901 2013/11/27)

>  <Rbt.Parameter_File>
/home/fstefaniak/progs/rDock//data/scripts/dock_solv.prm

>  <Rbt.Receptor>
4xnr.prm

>  <SCORE>
-45.7906

>  <SCORE.INTER>
-24.8605

>  <SCORE.INTER.CONST>
1

>  <SCORE.INTER.POLAR>
-2.32677

>  <SCORE.INTER.ROT>
1

>  <SCORE.INTER.SOLV>
9.49129

>  <SCORE.INTER.VDW>
-16.2482

>  <SCORE.INTER.norm>
-3.10756

>  <SCORE.INTRA>
0.000550459

>  <SCORE.INTRA.DIHEDRAL>
0.00127966

>  <SCORE.INTRA.DIHEDRAL.0>
2.08558e-06

>  <SCORE.INTRA.POLAR>
0

>  <SCORE.INTRA.POLAR.0>
0

>  <SCORE.INTRA.REPUL>
0

>  <SCORE.INTRA.REPUL.0>
0

>  <SCORE.INTRA.SOLV>
-5.88033e-06

>  <SCORE.INTRA.SOLV.lig_0>
-13.009

>  <SCORE.INTRA.VDW>
-8.64326e-05

>  <SCORE.INTRA.VDW.0>
0.0324262

>  <SCORE.INTRA.norm>
6.88074e-05

>  <SCORE.RESTR>
0

>  <SCORE.RESTR.CAVITY>
0

>  <SCORE.RESTR.norm>
0

>  <SCORE.SYSTEM>
-20.9307

>  <SCORE.SYSTEM.CONST>
0

>  <SCORE.SYSTEM.DIHEDRAL>
4.49504

>  <SCORE.SYSTEM.POLAR>
-3.00044

>  <SCORE.SYSTEM.SOLV>
0.271812

>  <SCORE.SYSTEM.VDW>
-5.54127

>  <SCORE.SYSTEM.norm>
-2.61634

>  <SCORE.heavy>
8

>  <SCORE.norm>
-5.72382

$$$$
P121825487
 OpenBabel12072022113D
libRbt.so/2013.1/901 2013/11/27
  9  9  0  0  0  0  0  0  0  0999 V2000
    6.8146   19.7385    5.4732 C   0  0  0  0  0  0  0  0  0  0  0  0
    6.3792   19.1656    6.6945 C   0  0  0  0  0  0  0  0  0  0  0  0
    5.5080   18.1432    6.3788 C   0  0  0  0  0  0  0  0  0  0  0  0
    5.4123   18.0899    5.0206 N   0  0  0  0  0  0  0  0  0  0  0  0
    6.1958   19.0478    4.4503 C   0  0  0  0  0  0  0  0  0  0  0  0
    4.5976   17.1495    4.3675 N   0  0  0  0  0  0  0  0  0  0  0  0
    4.5618   17.1200    3.0383 C   0  0  0  0  0  0  0  0  0  0  0  0
    4.5153   17.0763    1.8828 N   0  0  0  0  0  0  0  0  0  0  0  0
    4.0586   16.5170    4.9571 H   0  0  0  0  0  0  0  0  0  0  0  0
  1  2  1  0  0  0  0
  1  5  2  0  0  0  0
  2  3  2  0  0  0  0
  3  4  1  0  0  0  0
  4  5  1  0  0  0  0
  4  6  1  0  0  0  0
  6  7  1  0  0  0  0
  6  9  1  0  0  0  0
  7  8  3  0  0  0  0
M  END
>  <CHROM.0>
-63.17134692,-64.71619813,-66.95678030,-45.02788228,-61.74272424,-62.73152538
-69.34351034,-60.46398839,-168.26076087

>  <CHROM.1>
-178.52282918,5.47519994,18.16485931,4.65621987,-0.87768637,-0.87154068,-1.54379581

>  <Name>
P121825487

>  <RI>
3.1908e+07

>  <Rbt.Current_Directory>
/home/fstefaniak/projects/zuza/docking/adenine/4XNR

>  <Rbt.Executable>
rbdock ($Id: //depot/dev/client3/rdock/2013.1/src/exe/rbdock.cxx#4 $)

>  <Rbt.Library>
libRbt.so (2013.1, Build901 2013/11/27)

>  <Rbt.Parameter_File>
/home/fstefaniak/progs/rDock//data/scripts/dock_solv.prm

>  <Rbt.Receptor>
4xnr.prm

>  <SCORE>
-45.7889

>  <SCORE.INTER>
-24.8466

>  <SCORE.INTER.CONST>
1

>  <SCORE.INTER.POLAR>
-2.33415

>  <SCORE.INTER.ROT>
1

>  <SCORE.INTER.SOLV>
9.47321

>  <SCORE.INTER.VDW>
-16.2083

>  <SCORE.INTER.norm>
-3.10582

>  <SCORE.INTRA>
0.00356822

>  <SCORE.INTRA.DIHEDRAL>
0.00826349

>  <SCORE.INTRA.DIHEDRAL.0>
2.08558e-06

>  <SCORE.INTRA.POLAR>
0

>  <SCORE.INTRA.POLAR.0>
0

>  <SCORE.INTRA.REPUL>
0

>  <SCORE.INTRA.REPUL.0>
0

>  <SCORE.INTRA.SOLV>
-3.63955e-05

>  <SCORE.INTRA.SOLV.lig_0>
-13.009

>  <SCORE.INTRA.VDW>
-0.000545325

>  <SCORE.INTRA.VDW.0>
0.0324262

>  <SCORE.INTRA.norm>
0.000446028

>  <SCORE.RESTR>
0

>  <SCORE.RESTR.CAVITY>
0

>  <SCORE.RESTR.norm>
0

>  <SCORE.SYSTEM>
-20.9459

>  <SCORE.SYSTEM.CONST>
0

>  <SCORE.SYSTEM.DIHEDRAL>
4.57928

>  <SCORE.SYSTEM.POLAR>
-2.9881

>  <SCORE.SYSTEM.SOLV>
0.266786

>  <SCORE.SYSTEM.VDW>
-5.61894

>  <SCORE.SYSTEM.norm>
-2.61824

>  <SCORE.heavy>
8

>  <SCORE.norm>
-5.72361

$$$$
P121825487
 OpenBabel12072022113D
libRbt.so/2013.1/901 2013/11/27
  9  9  0  0  0  0  0  0  0  0999 V2000
    6.8077   19.7310    5.4667 C   0  0  0  0  0  0  0  0  0  0  0  0
    6.3546   19.1934    6.6976 C   0  0  0  0  0  0  0  0  0  0  0  0
    5.4750   18.1731    6.3990 C   0  0  0  0  0  0  0  0  0  0  0  0
    5.3912   18.0872    5.0416 N   0  0  0  0  0  0  0  0  0  0  0  0
    6.1907   19.0220    4.4553 C   0  0  0  0  0  0  0  0  0  0  0  0
    4.5721   17.1399    4.4043 N   0  0  0  0  0  0  0  0  0  0  0  0
    4.5402   17.0848    3.0758 C   0  0  0  0  0  0  0  0  0  0  0  0
    4.4970   17.0190    1.9212 N   0  0  0  0  0  0  0  0  0  0  0  0
    4.0268   16.5227    5.0043 H   0  0  0  0  0  0  0  0  0  0  0  0
  1  2  1  0  0  0  0
  1  5  2  0  0  0  0
  2  3  2  0  0  0  0
  3  4  1  0  0  0  0
  4  5  1  0  0  0  0
  4  6  1  0  0  0  0
  6  7  1  0  0  0  0
  6  9  1  0  0  0  0
  7  8  3  0  0  0  0
M  END
>  <CHROM.0>
-61.98471536,-63.92240077,-67.82918867,-46.57250989,-175.41392761,-65.54755369
-69.64473362,-176.85558196,-168.04384559

>  <CHROM.1>
-179.05244360,5.45551042,18.15481888,4.67610568,-0.88765458,-0.86056417,-1.57348965

>  <Name>
P121825487

>  <RI>
3.1908e+07

>  <Rbt.Current_Directory>
/home/fstefaniak/projects/zuza/docking/adenine/4XNR

>  <Rbt.Executable>
rbdock ($Id: //depot/dev/client3/rdock/2013.1/src/exe/rbdock.cxx#4 $)

>  <Rbt.Library>
libRbt.so (2013.1, Build901 2013/11/27)

>  <Rbt.Parameter_File>
/home/fstefaniak/progs/rDock//data/scripts/dock_solv.prm

>  <Rbt.Receptor>
4xnr.prm

>  <SCORE>
-45.7874

>  <SCORE.INTER>
-24.8381

>  <SCORE.INTER.CONST>
1

>  <SCORE.INTER.POLAR>
-2.36063

>  <SCORE.INTER.ROT>
1

>  <SCORE.INTER.SOLV>
9.5301

>  <SCORE.INTER.VDW>
-16.1333

>  <SCORE.INTER.norm>
-3.10477

>  <SCORE.INTRA>
0.00144251

>  <SCORE.INTRA.DIHEDRAL>
0.00334543

>  <SCORE.INTRA.DIHEDRAL.0>
2.08558e-06

>  <SCORE.INTRA.POLAR>
0

>  <SCORE.INTRA.POLAR.0>
0

>  <SCORE.INTRA.REPUL>
0

>  <SCORE.INTRA.REPUL.0>
0

>  <SCORE.INTRA.SOLV>
-1.4972e-05

>  <SCORE.INTRA.SOLV.lig_0>
-13.009

>  <SCORE.INTRA.VDW>
-0.000222722

>  <SCORE.INTRA.VDW.0>
0.0324262

>  <SCORE.INTRA.norm>
0.000180313

>  <SCORE.RESTR>
0

>  <SCORE.RESTR.CAVITY>
0

>  <SCORE.RESTR.norm>
0

>  <SCORE.SYSTEM>
-20.9507

>  <SCORE.SYSTEM.CONST>
0

>  <SCORE.SYSTEM.DIHEDRAL>
4.66097

>  <SCORE.SYSTEM.POLAR>
-2.96947

>  <SCORE.SYSTEM.SOLV>
-0.0474857

>  <SCORE.SYSTEM.VDW>
-5.60672

>  <SCORE.SYSTEM.norm>
-2.61884

>  <SCORE.heavy>
8

>  <SCORE.norm>
-5.72342

$$$$
P121991601
 OpenBabel12072022113D
libRbt.so/2013.1/901 2013/11/27
 14 13  0  0  0  0  0  0  0  0999 V2000
    6.0114   18.7283    6.9936 C   0  0  0  0  0  0  0  0  0  0  0  0
    6.7260   19.1561    5.7114 C   0  0  1  0  0  0  0  0  0  0  0  0
    6.3245   18.2749    4.5134 C   0  0  0  0  0  0  0  0  0  0  0  0
    7.2903   18.2552    3.3117 C   0  0  0  0  0  0  0  0  0  0  0  0
    6.8102   17.5571    2.0441 C   0  0  0  0  0  0  0  0  0  0  0  0
    6.9491   18.4340    0.8728 N   0  3  0  0  0  0  0  0  0  0  0  0
    6.7211   17.8711    0.0222 H   0  0  0  0  0  0  0  0  0  0  0  0
    6.2403   19.1790    0.8459 H   0  0  0  0  0  0  0  0  0  0  0  0
    7.8829   18.8296    0.7405 H   0  0  0  0  0  0  0  0  0  0  0  0
    6.4395   20.5598    5.4217 N   0  0  0  0  0  0  0  0  0  0  0  0
    8.1286   19.0936    5.8752 O   0  0  0  0  0  0  0  0  0  0  0  0
    7.1974   20.9139    4.8226 H   0  0  0  0  0  0  0  0  0  0  0  0
    5.6370   20.5582    4.7765 H   0  0  0  0  0  0  0  0  0  0  0  0
    8.3639   19.6929    6.6107 H   0  0  0  0  0  0  0  0  0  0  0  0
  2  1  1  1  0  0  0
  2  3  1  0  0  0  0
  2 10  1  0  0  0  0
  2 11  1  0  0  0  0
  3  4  1  0  0  0  0
  4  5  1  0  0  0  0
  5  6  1  0  0  0  0
  6  7  1  0  0  0  0
  6  8  1  0  0  0  0
  6  9  1  0  0  0  0
 10 12  1  0  0  0  0
 10 13  1  0  0  0  0
 11 14  1  0  0  0  0
M  CHG  1   6   1
M  END
>  <CHROM.0>
-64.39717904,-177.50686809,-60.85617803,-45.42888915,-52.83222160,-175.34124289
-66.41084227,60.75686325,-168.85069083

>  <CHROM.1>
-159.33507243,157.16408982,-59.50106626,-171.17278822,127.77258881,173.05644352
6.86003295,18.79375581,4.29834280,1.82609477,1.40407983,1.07329994

>  <Name>
P121991601

>  <RI>
3.58524e+07

>  <Rbt.Current_Directory>
/home/fstefaniak/projects/zuza/docking/adenine/4XNR

>  <Rbt.Executable>
rbdock ($Id: //depot/dev/client3/rdock/2013.1/src/exe/rbdock.cxx#4 $)

>  <Rbt.Library>
libRbt.so (2013.1, Build901 2013/11/27)

>  <Rbt.Parameter_File>
/home/fstefaniak/progs/rDock//data/scripts/dock_solv.prm

>  <Rbt.Receptor>
4xnr.prm

>  <SCORE>
-61.7128

>  <SCORE.INTER>
-43.1998

>  <SCORE.INTER.CONST>
1

>  <SCORE.INTER.POLAR>
-7.91629

>  <SCORE.INTER.ROT>
4

>  <SCORE.INTER.SOLV>
21.7051

>  <SCORE.INTER.VDW>
-15.914

>  <SCORE.INTER.norm>
-5.39998

>  <SCORE.INTRA>
0.711613

>  <SCORE.INTRA.DIHEDRAL>
3.91687

>  <SCORE.INTRA.DIHEDRAL.0>
4.4784

>  <SCORE.INTRA.POLAR>
1.08249

>  <SCORE.INTRA.POLAR.0>
-1.08249

>  <SCORE.INTRA.REPUL>
0

>  <SCORE.INTRA.REPUL.0>
0

>  <SCORE.INTRA.SOLV>
-7.60821

>  <SCORE.INTRA.SOLV.lig_0>
-24.7684

>  <SCORE.INTRA.VDW>
-1.12319

>  <SCORE.INTRA.VDW.0>
1.76664

>  <SCORE.INTRA.norm>
0.0889516

>  <SCORE.RESTR>
0

>  <SCORE.RESTR.CAVITY>
0

>  <SCORE.RESTR.norm>
0

>  <SCORE.SYSTEM>
-19.2246

>  <SCORE.SYSTEM.CONST>
0

>  <SCORE.SYSTEM.DIHEDRAL>
4.29769

>  <SCORE.SYSTEM.POLAR>
-2.98019

>  <SCORE.SYSTEM.SOLV>
-0.0105451

>  <SCORE.SYSTEM.VDW>
-4.31148

>  <SCORE.SYSTEM.norm>
-2.40308

>  <SCORE.heavy>
8

>  <SCORE.norm>
-7.71411

$$$$
P121991601
 OpenBabel12072022113D
libRbt.so/2013.1/901 2013/11/27
 14 13  0  0  0  0  0  0  0  0999 V2000
    6.0639   19.2388    6.4870 C   0  0  0  0  0  0  0  0  0  0  0  0
    6.6967   18.9291    5.1300 C   0  0  1  0  0  0  0  0  0  0  0  0
    6.0235   17.7226    4.4487 C   0  0  0  0  0  0  0  0  0  0  0  0
    5.8994   17.7731    2.9127 C   0  0  0  0  0  0  0  0  0  0  0  0
    7.1784   18.0136    2.1185 C   0  0  0  0  0  0  0  0  0  0  0  0
    6.8773   18.5241    0.7735 N   0  3  0  0  0  0  0  0  0  0  0  0
    7.6392   19.1869    0.5043 H   0  0  0  0  0  0  0  0  0  0  0  0
    6.9437   17.7985    0.0473 H   0  0  0  0  0  0  0  0  0  0  0  0
    5.9892   19.0247    0.6927 H   0  0  0  0  0  0  0  0  0  0  0  0
    6.6226   20.1029    4.2622 N   0  0  0  0  0  0  0  0  0  0  0  0
    8.0778   18.6629    5.2707 O   0  0  0  0  0  0  0  0  0  0  0  0
    5.6849   20.5119    4.3729 H   0  0  0  0  0  0  0  0  0  0  0  0
    7.2226   20.8168    4.6989 H   0  0  0  0  0  0  0  0  0  0  0  0
    8.1746   17.9791    5.9625 H   0  0  0  0  0  0  0  0  0  0  0  0
  2  1  1  1  0  0  0
  2  3  1  0  0  0  0
  2 10  1  0  0  0  0
  2 11  1  0  0  0  0
  3  4  1  0  0  0  0
  4  5  1  0  0  0  0
  5  6  1  0  0  0  0
  6  7  1  0  0  0  0
  6  8  1  0  0  0  0
  6  9  1  0  0  0  0
 10 12  1  0  0  0  0
 10 13  1  0  0  0  0
 11 14  1  0  0  0  0
M  CHG  1   6   1
M  END
>  <CHROM.0>
-60.29390780,-62.59572102,-74.81876589,-48.97814676,-173.88371854,-65.46657892
-176.42170013,-177.01528717,-168.69613956

>  <CHROM.1>
144.75924244,-42.83599897,51.84661910,54.15377527,-159.05622078,145.90511038
6.71089140,18.65175284,3.88793008,1.59981498,0.85889083,1.36155593

>  <Name>
P121991601

>  <RI>
3.58524e+07

>  <Rbt.Current_Directory>
/home/fstefaniak/projects/zuza/docking/adenine/4XNR

>  <Rbt.Executable>
rbdock ($Id: //depot/dev/client3/rdock/2013.1/src/exe/rbdock.cxx#4 $)

>  <Rbt.Library>
libRbt.so (2013.1, Build901 2013/11/27)

>  <Rbt.Parameter_File>
/home/fstefaniak/progs/rDock//data/scripts/dock_solv.prm

>  <Rbt.Receptor>
4xnr.prm

>  <SCORE>
-58.3188

>  <SCORE.INTER>
-39.8588

>  <SCORE.INTER.CONST>
1

>  <SCORE.INTER.POLAR>
-7.29758

>  <SCORE.INTER.ROT>
4

>  <SCORE.INTER.SOLV>
21.0984

>  <SCORE.INTER.VDW>
-15.5468

>  <SCORE.INTER.norm>
-4.98236

>  <SCORE.INTRA>
1.80202

>  <SCORE.INTRA.DIHEDRAL>
3.90166

>  <SCORE.INTRA.DIHEDRAL.0>
4.4784

>  <SCORE.INTRA.POLAR>
1.08249

>  <SCORE.INTRA.POLAR.0>
-1.08249

>  <SCORE.INTRA.REPUL>
0

>  <SCORE.INTRA.REPUL.0>
0

>  <SCORE.INTRA.SOLV>
-7.20114

>  <SCORE.INTRA.SOLV.lig_0>
-24.7684

>  <SCORE.INTRA.VDW>
-0.228722

>  <SCORE.INTRA.VDW.0>
1.76664

>  <SCORE.INTRA.norm>
0.225252

>  <SCORE.RESTR>
0

>  <SCORE.RESTR.CAVITY>
0

>  <SCORE.RESTR.norm>
0

>  <SCORE.SYSTEM>
-20.262

>  <SCORE.SYSTEM.CONST>
0

>  <SCORE.SYSTEM.DIHEDRAL>
4.65742

>  <SCORE.SYSTEM.POLAR>
-2.90113

>  <SCORE.SYSTEM.SOLV>
-0.0966212

>  <SCORE.SYSTEM.VDW>
-5.35784

>  <SCORE.SYSTEM.norm>
-2.53275

>  <SCORE.heavy>
8

>  <SCORE.norm>
-7.28985

$$$$
P121991601
 OpenBabel12072022113D
libRbt.so/2013.1/901 2013/11/27
 14 13  0  0  0  0  0  0  0  0999 V2000
    5.9670   18.5397    6.8491 C   0  0  0  0  0  0  0  0  0  0  0  0
    6.7713   19.0502    5.6531 C   0  0  1  0  0  0  0  0  0  0  0  0
    6.4959   18.2208    4.3846 C   0  0  0  0  0  0  0  0  0  0  0  0
    5.0235   18.0918    3.9458 C   0  0  0  0  0  0  0  0  0  0  0  0
    4.6405   16.8485    3.1507 C   0  0  0  0  0  0  0  0  0  0  0  0
    4.7528   15.6377    3.9763 N   0  3  0  0  0  0  0  0  0  0  0  0
    4.2140   14.8767    3.5041 H   0  0  0  0  0  0  0  0  0  0  0  0
    5.7081   15.2566    3.9977 H   0  0  0  0  0  0  0  0  0  0  0  0
    4.3880   15.7306    4.9272 H   0  0  0  0  0  0  0  0  0  0  0  0
    6.4678   20.4589    5.4089 N   0  0  0  0  0  0  0  0  0  0  0  0
    8.1570   19.0156    5.9301 O   0  0  0  0  0  0  0  0  0  0  0  0
    7.2305   20.8460    4.8368 H   0  0  0  0  0  0  0  0  0  0  0  0
    5.6769   20.4685    4.7494 H   0  0  0  0  0  0  0  0  0  0  0  0
    8.3268   19.6534    6.6512 H   0  0  0  0  0  0  0  0  0  0  0  0
  2  1  1  1  0  0  0
  2  3  1  0  0  0  0
  2 10  1  0  0  0  0
  2 11  1  0  0  0  0
  3  4  1  0  0  0  0
  4  5  1  0  0  0  0
  5  6  1  0  0  0  0
  6  7  1  0  0  0  0
  6  8  1  0  0  0  0
  6  9  1  0  0  0  0
 10 12  1  0  0  0  0
 10 13  1  0  0  0  0
 11 14  1  0  0  0  0
M  CHG  1   6   1
M  END
>  <CHROM.0>
-50.44234949,-67.10539649,-41.69555070,-50.08365039,58.37357355,-55.36386172
-58.75948625,-57.48785643,-168.01681387

>  <CHROM.1>
55.11754047,161.02316504,-65.24806440,-153.00269675,66.71745501,162.83027882
6.05111577,18.21299436,4.92627290,-0.46134600,0.94087224,2.75237945

>  <Name>
P121991601

>  <RI>
3.58524e+07

>  <Rbt.Current_Directory>
/home/fstefaniak/projects/zuza/docking/adenine/4XNR

>  <Rbt.Executable>
rbdock ($Id: //depot/dev/client3/rdock/2013.1/src/exe/rbdock.cxx#4 $)

>  <Rbt.Library>
libRbt.so (2013.1, Build901 2013/11/27)

>  <Rbt.Parameter_File>
/home/fstefaniak/progs/rDock//data/scripts/dock_solv.prm

>  <Rbt.Receptor>
4xnr.prm

>  <SCORE>
-57.8808

>  <SCORE.INTER>
-38.7678

>  <SCORE.INTER.CONST>
1

>  <SCORE.INTER.POLAR>
-6.09112

>  <SCORE.INTER.ROT>
4

>  <SCORE.INTER.SOLV>
18.2721

>  <SCORE.INTER.VDW>
-17.8989

>  <SCORE.INTER.norm>
-4.84598

>  <SCORE.INTRA>
-0.232865

>  <SCORE.INTRA.DIHEDRAL>
0.292591

>  <SCORE.INTRA.DIHEDRAL.0>
4.4784

>  <SCORE.INTRA.POLAR>
1.08249

>  <SCORE.INTRA.POLAR.0>
-1.08249

>  <SCORE.INTRA.REPUL>
0

>  <SCORE.INTRA.REPUL.0>
0

>  <SCORE.INTRA.SOLV>
-6.82421

>  <SCORE.INTRA.SOLV.lig_0>
-24.7684

>  <SCORE.INTRA.VDW>
-0.64753

>  <SCORE.INTRA.VDW.0>
1.76664

>  <SCORE.INTRA.norm>
-0.0291081

>  <SCORE.RESTR>
0

>  <SCORE.RESTR.CAVITY>
0

>  <SCORE.RESTR.norm>
0

>  <SCORE.SYSTEM>
-18.8801

>  <SCORE.SYSTEM.CONST>
0

>  <SCORE.SYSTEM.DIHEDRAL>
5.44199

>  <SCORE.SYSTEM.POLAR>
-3.18544

>  <SCORE.SYSTEM.SOLV>
0.14425

>  <SCORE.SYSTEM.VDW>
-3.83069

>  <SCORE.SYSTEM.norm>
-2.36001

>  <SCORE.heavy>
8

>  <SCORE.norm>
-7.2351

$$$$
P123254707
 OpenBabel12072022113D
libRbt.so/2013.1/901 2013/11/27
 10  9  0  0  0  0  0  0  0  0999 V2000
    6.9865   18.2513    1.4205 C   0  0  0  0  0  0  0  0  0  0  0  0
    6.5040   18.1449    2.8537 C   0  0  0  0  0  0  0  0  0  0  0  0
    7.5402   18.5448    3.7836 N   0  0  0  0  0  0  0  0  0  0  0  0
    7.2098   18.9117    5.0637 C   0  0  0  0  0  0  0  0  0  0  0  0
    6.0983   18.8032    5.5692 O   0  0  0  0  0  0  0  0  0  0  0  0
    8.2836   19.4465    5.7436 N   0  0  0  0  0  0  0  0  0  0  0  0
    9.1557   18.4622    6.2865 O   0  0  0  0  0  0  0  0  0  0  0  0
    8.4232   18.0579    3.7119 H   0  0  0  0  0  0  0  0  0  0  0  0
    8.0736   20.2020    6.3861 H   0  0  0  0  0  0  0  0  0  0  0  0
    8.5252   17.8288    6.6974 H   0  0  0  0  0  0  0  0  0  0  0  0
  1  2  1  0  0  0  0
  2  3  1  0  0  0  0
  3  4  1  0  0  0  0
  3  8  1  0  0  0  0
  4  5  2  0  0  0  0
  4  6  1  0  0  0  0
  6  7  1  0  0  0  0
  6  9  1  0  0  0  0
  7 10  1  0  0  0  0
M  END
>  <CHROM.0>
-58.95521412,-63.08078495,-73.50362629,-48.53329644,-60.74619298,-65.41563715
-172.93390353,-61.63983860,-168.13188170

>  <CHROM.1>
160.16624044,8.24144798,-81.47601468,-45.63626589,7.43244829,18.64359913
4.44021166,-1.92822227,-0.06928222,1.38804823

>  <Name>
P123254707

>  <RI>
1.00763e+07

>  <Rbt.Current_Directory>
/home/fstefaniak/projects/zuza/docking/adenine/4XNR

>  <Rbt.Executable>
rbdock ($Id: //depot/dev/client3/rdock/2013.1/src/exe/rbdock.cxx#4 $)

>  <Rbt.Library>
libRbt.so (2013.1, Build901 2013/11/27)

>  <Rbt.Parameter_File>
/home/fstefaniak/progs/rDock//data/scripts/dock_solv.prm

>  <Rbt.Receptor>
4xnr.prm

>  <SCORE>
-53.8372

>  <SCORE.INTER>
-32.3196

>  <SCORE.INTER.CONST>
1

>  <SCORE.INTER.POLAR>
-5.81571

>  <SCORE.INTER.ROT>
3

>  <SCORE.INTER.SOLV>
13.4602

>  <SCORE.INTER.VDW>
-12.2475

>  <SCORE.INTER.norm>
-4.61709

>  <SCORE.INTRA>
-1.12301

>  <SCORE.INTRA.DIHEDRAL>
-0.440073

>  <SCORE.INTRA.DIHEDRAL.0>
1.95717

>  <SCORE.INTRA.POLAR>
0

>  <SCORE.INTRA.POLAR.0>
0

>  <SCORE.INTRA.REPUL>
0

>  <SCORE.INTRA.REPUL.0>
0

>  <SCORE.INTRA.SOLV>
0.322928

>  <SCORE.INTRA.SOLV.lig_0>
-19.9364

>  <SCORE.INTRA.VDW>
-1.06444

>  <SCORE.INTRA.VDW.0>
1.276

>  <SCORE.INTRA.norm>
-0.160431

>  <SCORE.RESTR>
0

>  <SCORE.RESTR.CAVITY>
0

>  <SCORE.RESTR.norm>
0

>  <SCORE.SYSTEM>
-20.3946

>  <SCORE.SYSTEM.CONST>
0

>  <SCORE.SYSTEM.DIHEDRAL>
4.59275

>  <SCORE.SYSTEM.POLAR>
-2.93378

>  <SCORE.SYSTEM.SOLV>
0.211375

>  <SCORE.SYSTEM.VDW>
-5.41849

>  <SCORE.SYSTEM.norm>
-2.91351

>  <SCORE.heavy>
7

>  <SCORE.norm>
-7.69103

$$$$
P123254707
 OpenBabel12072022113D
libRbt.so/2013.1/901 2013/11/27
 10  9  0  0  0  0  0  0  0  0999 V2000
    7.0212   18.2399    1.4028 C   0  0  0  0  0  0  0  0  0  0  0  0
    6.5229   18.1653    2.8326 C   0  0  0  0  0  0  0  0  0  0  0  0
    7.5645   18.5381    3.7677 N   0  0  0  0  0  0  0  0  0  0  0  0
    7.2432   18.8526    5.0639 C   0  0  0  0  0  0  0  0  0  0  0  0
    6.1459   18.6853    5.5844 O   0  0  0  0  0  0  0  0  0  0  0  0
    8.3076   19.4080    5.7422 N   0  0  0  0  0  0  0  0  0  0  0  0
    9.1909   18.4406    6.2970 O   0  0  0  0  0  0  0  0  0  0  0  0
    8.4508   18.0619    3.6692 H   0  0  0  0  0  0  0  0  0  0  0  0
    8.0854   20.1666    6.3770 H   0  0  0  0  0  0  0  0  0  0  0  0
    8.5695   17.8215    6.7418 H   0  0  0  0  0  0  0  0  0  0  0  0
  1  2  1  0  0  0  0
  2  3  1  0  0  0  0
  3  4  1  0  0  0  0
  3  8  1  0  0  0  0
  4  5  2  0  0  0  0
  4  6  1  0  0  0  0
  6  7  1  0  0  0  0
  6  9  1  0  0  0  0
  7 10  1  0  0  0  0
M  END
>  <CHROM.0>
-60.43269972,52.93310746,-64.96284480,-49.94316164,-177.84546177,-62.76353482
-66.61649873,-63.89034054,-167.07448373

>  <CHROM.1>
164.05777100,10.09938693,-84.44488049,-47.75172697,7.46388781,18.60997187
4.43637717,-1.92630801,-0.03245318,1.41423793

>  <Name>
P123254707

>  <RI>
1.00763e+07

>  <Rbt.Current_Directory>
/home/fstefaniak/projects/zuza/docking/adenine/4XNR

>  <Rbt.Executable>
rbdock ($Id: //depot/dev/client3/rdock/2013.1/src/exe/rbdock.cxx#4 $)

>  <Rbt.Library>
libRbt.so (2013.1, Build901 2013/11/27)

>  <Rbt.Parameter_File>
/home/fstefaniak/progs/rDock//data/scripts/dock_solv.prm

>  <Rbt.Receptor>
4xnr.prm

>  <SCORE>
-53.5036

>  <SCORE.INTER>
-32.2533

>  <SCORE.INTER.CONST>
1

>  <SCORE.INTER.POLAR>
-5.79168

>  <SCORE.INTER.ROT>
3

>  <SCORE.INTER.SOLV>
13.4711

>  <SCORE.INTER.VDW>
-12.287

>  <SCORE.INTER.norm>
-4.60762

>  <SCORE.INTRA>
-1.19083

>  <SCORE.INTRA.DIHEDRAL>
-0.535491

>  <SCORE.INTRA.DIHEDRAL.0>
1.95717

>  <SCORE.INTRA.POLAR>
0

>  <SCORE.INTRA.POLAR.0>
0

>  <SCORE.INTRA.REPUL>
0

>  <SCORE.INTRA.REPUL.0>
0

>  <SCORE.INTRA.SOLV>
0.290514

>  <SCORE.INTRA.SOLV.lig_0>
-19.9364

>  <SCORE.INTRA.VDW>
-1.06835

>  <SCORE.INTRA.VDW.0>
1.276

>  <SCORE.INTRA.norm>
-0.170119

>  <SCORE.RESTR>
0

>  <SCORE.RESTR.CAVITY>
0

>  <SCORE.RESTR.norm>
0

>  <SCORE.SYSTEM>
-20.0595

>  <SCORE.SYSTEM.CONST>
0

>  <SCORE.SYSTEM.DIHEDRAL>
4.01566

>  <SCORE.SYSTEM.POLAR>
-2.94638

>  <SCORE.SYSTEM.SOLV>
0.20019

>  <SCORE.SYSTEM.VDW>
-4.957

>  <SCORE.SYSTEM.norm>
-2.86564

>  <SCORE.heavy>
7

>  <SCORE.norm>
-7.64338

$$$$
P123254707
 OpenBabel12072022113D
libRbt.so/2013.1/901 2013/11/27
 10  9  0  0  0  0  0  0  0  0999 V2000
    5.8190   16.9523    3.1740 C   0  0  0  0  0  0  0  0  0  0  0  0
    6.4737   18.2858    2.8718 C   0  0  0  0  0  0  0  0  0  0  0  0
    7.5457   18.5637    3.8057 N   0  0  0  0  0  0  0  0  0  0  0  0
    7.2559   18.8899    5.1064 C   0  0  0  0  0  0  0  0  0  0  0  0
    6.1664   18.7445    5.6494 O   0  0  0  0  0  0  0  0  0  0  0  0
    8.3432   19.4297    5.7605 N   0  0  0  0  0  0  0  0  0  0  0  0
    9.2127   18.4496    6.3150 O   0  0  0  0  0  0  0  0  0  0  0  0
    8.3902   18.0186    3.6983 H   0  0  0  0  0  0  0  0  0  0  0  0
    8.1483   20.2016    6.3881 H   0  0  0  0  0  0  0  0  0  0  0  0
    8.5810   17.8265    6.7395 H   0  0  0  0  0  0  0  0  0  0  0  0
  1  2  1  0  0  0  0
  2  3  1  0  0  0  0
  3  4  1  0  0  0  0
  3  8  1  0  0  0  0
  4  5  2  0  0  0  0
  4  6  1  0  0  0  0
  6  7  1  0  0  0  0
  6  9  1  0  0  0  0
  7 10  1  0  0  0  0
M  END
>  <CHROM.0>
-61.40621325,-62.78822614,-67.29240734,-48.19843716,-54.71689639,-62.96166660
-66.46651210,-61.19588740,-167.83711454

>  <CHROM.1>
-71.88710247,13.92671065,-85.08511493,-45.02940195,7.29401968,18.46138301
4.72304377,-2.22838103,0.04553659,1.20609446

>  <Name>
P123254707

>  <RI>
1.00763e+07

>  <Rbt.Current_Directory>
/home/fstefaniak/projects/zuza/docking/adenine/4XNR

>  <Rbt.Executable>
rbdock ($Id: //depot/dev/client3/rdock/2013.1/src/exe/rbdock.cxx#4 $)

>  <Rbt.Library>
libRbt.so (2013.1, Build901 2013/11/27)

>  <Rbt.Parameter_File>
/home/fstefaniak/progs/rDock//data/scripts/dock_solv.prm

>  <Rbt.Receptor>
4xnr.prm

>  <SCORE>
-53.3978

>  <SCORE.INTER>
-31.8

>  <SCORE.INTER.CONST>
1

>  <SCORE.INTER.POLAR>
-5.81719

>  <SCORE.INTER.ROT>
3

>  <SCORE.INTER.SOLV>
13.1576

>  <SCORE.INTER.VDW>
-11.7953

>  <SCORE.INTER.norm>
-4.54286

>  <SCORE.INTRA>
-0.708766

>  <SCORE.INTRA.DIHEDRAL>
-0.508979

>  <SCORE.INTRA.DIHEDRAL.0>
1.95717

>  <SCORE.INTRA.POLAR>
0

>  <SCORE.INTRA.POLAR.0>
0

>  <SCORE.INTRA.REPUL>
0

>  <SCORE.INTRA.REPUL.0>
0

>  <SCORE.INTRA.SOLV>
0.549985

>  <SCORE.INTRA.SOLV.lig_0>
-19.9364

>  <SCORE.INTRA.VDW>
-0.729269

>  <SCORE.INTRA.VDW.0>
1.276

>  <SCORE.INTRA.norm>
-0.101252

>  <SCORE.RESTR>
0

>  <SCORE.RESTR.CAVITY>
0

>  <SCORE.RESTR.norm>
0

>  <SCORE.SYSTEM>
-20.889

>  <SCORE.SYSTEM.CONST>
0

>  <SCORE.SYSTEM.DIHEDRAL>
4.08344

>  <SCORE.SYSTEM.POLAR>
-2.95811

>  <SCORE.SYSTEM.SOLV>
0.278889

>  <SCORE.SYSTEM.VDW>
-5.51976

>  <SCORE.SYSTEM.norm>
-2.98415

>  <SCORE.heavy>
7

>  <SCORE.norm>
-7.62826

$$$$
P123387399
 OpenBabel12072022113D
libRbt.so/2013.1/901 2013/11/27
 14 14  0  0  0  0  0  0  0  0999 V2000
    3.6543   14.5617    3.5692 C   0  0  0  0  0  0  0  0  0  0  0  0
    4.0900   15.7667    4.1983 O   0  0  0  0  0  0  0  0  0  0  0  0
    5.0962   16.4118    3.5253 C   0  0  0  0  0  0  0  0  0  0  0  0
    5.5364   16.0572    2.4376 O   0  0  0  0  0  0  0  0  0  0  0  0
    5.5387   17.6601    4.3136 C   0  0  2  0  0  0  0  0  0  0  0  0
    6.9894   18.0706    3.9377 C   0  0  2  0  0  0  0  0  0  0  0  0
    7.4772   19.2190    4.8340 C   0  0  0  0  0  0  0  0  0  0  0  0
    7.2573   18.9010    6.3091 C   0  0  0  0  0  0  0  0  0  0  0  0
    5.8051   18.5222    6.5772 C   0  0  0  0  0  0  0  0  0  0  0  0
    5.4132   17.3722    5.7689 N   0  0  0  0  0  0  0  0  0  0  0  0
    7.1175   18.5133    2.5375 N   0  0  0  0  0  0  0  0  0  0  0  0
    4.4379   17.1315    5.9587 H   0  0  0  0  0  0  0  0  0  0  0  0
    6.4851   19.3097    2.3991 H   0  0  0  0  0  0  0  0  0  0  0  0
    6.7608   17.7819    1.9220 H   0  0  0  0  0  0  0  0  0  0  0  0
  1  2  1  0  0  0  0
  2  3  1  0  0  0  0
  3  4  2  0  0  0  0
  5  6  1  0  0  0  0
  5 10  1  0  0  0  0
  5  3  1  6  0  0  0
  6  7  1  0  0  0  0
  6 11  1  6  0  0  0
  7  8  1  0  0  0  0
  8  9  1  0  0  0  0
  9 10  1  0  0  0  0
 10 12  1  0  0  0  0
 11 13  1  0  0  0  0
 11 14  1  0  0  0  0
M  END
>  <CHROM.0>
-64.82028110,-62.04505844,-64.72429432,-47.74936477,-59.84289752,-65.12413959
-67.76653116,-58.51629896,-168.14494782

>  <CHROM.1>
4.71205925,156.62911256,58.50183044,5.78200223,17.33369787,4.32909542,2.48452795
-0.78387112,-1.89494520

>  <Name>
P123387399

>  <RI>
3.4169e+07

>  <Rbt.Current_Directory>
/home/fstefaniak/projects/zuza/docking/adenine/4XNR

>  <Rbt.Executable>
rbdock ($Id: //depot/dev/client3/rdock/2013.1/src/exe/rbdock.cxx#4 $)

>  <Rbt.Library>
libRbt.so (2013.1, Build901 2013/11/27)

>  <Rbt.Parameter_File>
/home/fstefaniak/progs/rDock//data/scripts/dock_solv.prm

>  <Rbt.Receptor>
4xnr.prm

>  <SCORE>
-48.7711

>  <SCORE.INTER>
-28.3929

>  <SCORE.INTER.CONST>
1

>  <SCORE.INTER.POLAR>
-3.11171

>  <SCORE.INTER.ROT>
3

>  <SCORE.INTER.SOLV>
12.3251

>  <SCORE.INTER.VDW>
-18.2646

>  <SCORE.INTER.norm>
-2.58118

>  <SCORE.INTRA>
0.533408

>  <SCORE.INTRA.DIHEDRAL>
0.644661

>  <SCORE.INTRA.DIHEDRAL.0>
0.879528

>  <SCORE.INTRA.POLAR>
0.00598861

>  <SCORE.INTRA.POLAR.0>
-0.00598861

>  <SCORE.INTRA.REPUL>
0

>  <SCORE.INTRA.REPUL.0>
0

>  <SCORE.INTRA.SOLV>
0.11181

>  <SCORE.INTRA.SOLV.lig_0>
-10.1992

>  <SCORE.INTRA.VDW>
0.134811

>  <SCORE.INTRA.VDW.0>
1.27936

>  <SCORE.INTRA.norm>
0.0484916

>  <SCORE.RESTR>
0

>  <SCORE.RESTR.CAVITY>
0

>  <SCORE.RESTR.norm>
0

>  <SCORE.SYSTEM>
-20.9116

>  <SCORE.SYSTEM.CONST>
0

>  <SCORE.SYSTEM.DIHEDRAL>
4.08144

>  <SCORE.SYSTEM.POLAR>
-2.93953

>  <SCORE.SYSTEM.SOLV>
0.268322

>  <SCORE.SYSTEM.VDW>
-5.59257

>  <SCORE.SYSTEM.norm>
-1.90105

>  <SCORE.heavy>
11

>  <SCORE.norm>
-4.43374

$$$$
P123387399
 OpenBabel12072022113D
libRbt.so/2013.1/901 2013/11/27
 14 14  0  0  0  0  0  0  0  0999 V2000
    3.4721   14.7079    3.5630 C   0  0  0  0  0  0  0  0  0  0  0  0
    3.8418   15.9781    4.0991 O   0  0  0  0  0  0  0  0  0  0  0  0
    4.9377   16.5383    3.4938 C   0  0  0  0  0  0  0  0  0  0  0  0
    5.4173   16.1463    2.4360 O   0  0  0  0  0  0  0  0  0  0  0  0
    5.4272   17.7496    4.3116 C   0  0  2  0  0  0  0  0  0  0  0  0
    6.8621   18.1661    3.8851 C   0  0  2  0  0  0  0  0  0  0  0  0
    7.4011   19.2727    4.8044 C   0  0  0  0  0  0  0  0  0  0  0  0
    7.2479   18.8945    6.2738 C   0  0  0  0  0  0  0  0  0  0  0  0
    5.8067   18.5141    6.5941 C   0  0  0  0  0  0  0  0  0  0  0  0
    5.3677   17.4016    5.7580 N   0  0  0  0  0  0  0  0  0  0  0  0
    6.9281   18.6664    2.5001 N   0  0  0  0  0  0  0  0  0  0  0  0
    4.4004   17.1595    5.9834 H   0  0  0  0  0  0  0  0  0  0  0  0
    6.2216   18.1655    1.9494 H   0  0  0  0  0  0  0  0  0  0  0  0
    7.8229   18.3976    2.0901 H   0  0  0  0  0  0  0  0  0  0  0  0
  1  2  1  0  0  0  0
  2  3  1  0  0  0  0
  3  4  2  0  0  0  0
  5  6  1  0  0  0  0
  5 10  1  0  0  0  0
  5  3  1  6  0  0  0
  6  7  1  0  0  0  0
  6 11  1  6  0  0  0
  7  8  1  0  0  0  0
  8  9  1  0  0  0  0
  9 10  1  0  0  0  0
 10 12  1  0  0  0  0
 11 13  1  0  0  0  0
 11 14  1  0  0  0  0
M  END
>  <CHROM.0>
-59.23702229,61.38796127,-66.97518200,-46.95842502,-175.56680002,-61.64645463
-66.61738079,-63.67673692,-168.27112644

>  <CHROM.1>
13.47069054,164.64438418,-32.44543723,5.67247596,17.41924904,4.30125625,2.53431617
-0.76296939,-1.84059200

>  <Name>
P123387399

>  <RI>
3.4169e+07

>  <Rbt.Current_Directory>
/home/fstefaniak/projects/zuza/docking/adenine/4XNR

>  <Rbt.Executable>
rbdock ($Id: //depot/dev/client3/rdock/2013.1/src/exe/rbdock.cxx#4 $)

>  <Rbt.Library>
libRbt.so (2013.1, Build901 2013/11/27)

>  <Rbt.Parameter_File>
/home/fstefaniak/progs/rDock//data/scripts/dock_solv.prm

>  <Rbt.Receptor>
4xnr.prm

>  <SCORE>
-48.7237

>  <SCORE.INTER>
-29.9258

>  <SCORE.INTER.CONST>
1

>  <SCORE.INTER.POLAR>
-3.24118

>  <SCORE.INTER.ROT>
3

>  <SCORE.INTER.SOLV>
11.9812

>  <SCORE.INTER.VDW>
-18.7403

>  <SCORE.INTER.norm>
-2.72053

>  <SCORE.INTRA>
1.28581

>  <SCORE.INTRA.DIHEDRAL>
2.53613

>  <SCORE.INTRA.DIHEDRAL.0>
0.879528

>  <SCORE.INTRA.POLAR>
0.00598861

>  <SCORE.INTRA.POLAR.0>
-0.00598861

>  <SCORE.INTRA.REPUL>
0

>  <SCORE.INTRA.REPUL.0>
0

>  <SCORE.INTRA.SOLV>
0.0904732

>  <SCORE.INTRA.SOLV.lig_0>
-10.1992

>  <SCORE.INTRA.VDW>
-0.0478476

>  <SCORE.INTRA.VDW.0>
1.27936

>  <SCORE.INTRA.norm>
0.116892

>  <SCORE.RESTR>
0

>  <SCORE.RESTR.CAVITY>
0

>  <SCORE.RESTR.norm>
0

>  <SCORE.SYSTEM>
-20.0837

>  <SCORE.SYSTEM.CONST>
0

>  <SCORE.SYSTEM.DIHEDRAL>
4.12144

>  <SCORE.SYSTEM.POLAR>
-2.97619

>  <SCORE.SYSTEM.SOLV>
0.176258

>  <SCORE.SYSTEM.VDW>
-4.90108

>  <SCORE.SYSTEM.norm>
-1.82579

>  <SCORE.heavy>
11

>  <SCORE.norm>
-4.42943

$$$$
P123387399
 OpenBabel12072022113D
libRbt.so/2013.1/901 2013/11/27
 14 14  0  0  0  0  0  0  0  0999 V2000
    3.4342   14.7361    3.5239 C   0  0  0  0  0  0  0  0  0  0  0  0
    3.8357   15.9804    4.0965 O   0  0  0  0  0  0  0  0  0  0  0  0
    4.9357   16.5383    3.4964 C   0  0  0  0  0  0  0  0  0  0  0  0
    5.4181   16.1468    2.4397 O   0  0  0  0  0  0  0  0  0  0  0  0
    5.4259   17.7466    4.3183 C   0  0  2  0  0  0  0  0  0  0  0  0
    6.8586   18.1676    3.8889 C   0  0  2  0  0  0  0  0  0  0  0  0
    7.3988   19.2707    4.8117 C   0  0  0  0  0  0  0  0  0  0  0  0
    7.2512   18.8852    6.2797 C   0  0  0  0  0  0  0  0  0  0  0  0
    5.8118   18.5008    6.6031 C   0  0  0  0  0  0  0  0  0  0  0  0
    5.3719   17.3916    5.7632 N   0  0  0  0  0  0  0  0  0  0  0  0
    6.9190   18.6746    2.5061 N   0  0  0  0  0  0  0  0  0  0  0  0
    4.4058   17.1467    5.9908 H   0  0  0  0  0  0  0  0  0  0  0  0
    6.1174   18.2899    1.9935 H   0  0  0  0  0  0  0  0  0  0  0  0
    7.7408   18.2854    2.0432 H   0  0  0  0  0  0  0  0  0  0  0  0
  1  2  1  0  0  0  0
  2  3  1  0  0  0  0
  3  4  2  0  0  0  0
  5  6  1  0  0  0  0
  5 10  1  0  0  0  0
  5  3  1  6  0  0  0
  6  7  1  0  0  0  0
  6 11  1  6  0  0  0
  7  8  1  0  0  0  0
  8  9  1  0  0  0  0
  9 10  1  0  0  0  0
 10 12  1  0  0  0  0
 11 13  1  0  0  0  0
 11 14  1  0  0  0  0
M  END
>  <CHROM.0>
-56.87383210,66.24834347,-64.73988006,-46.82942465,-60.50010803,-62.66996174
-68.40624961,-59.03633958,-167.47728898

>  <CHROM.1>
11.26364879,165.16755919,-23.43866313,5.66674086,17.41974770,4.30170211,2.53463656
-0.75960291,-1.83262019

>  <Name>
P123387399

>  <RI>
3.4169e+07

>  <Rbt.Current_Directory>
/home/fstefaniak/projects/zuza/docking/adenine/4XNR

>  <Rbt.Executable>
rbdock ($Id: //depot/dev/client3/rdock/2013.1/src/exe/rbdock.cxx#4 $)

>  <Rbt.Library>
libRbt.so (2013.1, Build901 2013/11/27)

>  <Rbt.Parameter_File>
/home/fstefaniak/progs/rDock//data/scripts/dock_solv.prm

>  <Rbt.Receptor>
4xnr.prm

>  <SCORE>
-48.5897

>  <SCORE.INTER>
-30.2

>  <SCORE.INTER.CONST>
1

>  <SCORE.INTER.POLAR>
-3.31193

>  <SCORE.INTER.ROT>
3

>  <SCORE.INTER.SOLV>
11.9619

>  <SCORE.INTER.VDW>
-18.6808

>  <SCORE.INTER.norm>
-2.74545

>  <SCORE.INTRA>
1.46027

>  <SCORE.INTRA.DIHEDRAL>
2.70535

>  <SCORE.INTRA.DIHEDRAL.0>
0.879528

>  <SCORE.INTRA.POLAR>
0.00598861

>  <SCORE.INTRA.POLAR.0>
-0.00598861

>  <SCORE.INTRA.REPUL>
0

>  <SCORE.INTRA.REPUL.0>
0

>  <SCORE.INTRA.SOLV>
0.102334

>  <SCORE.INTRA.SOLV.lig_0>
-10.1992

>  <SCORE.INTRA.VDW>
0.0360688

>  <SCORE.INTRA.VDW.0>
1.27936

>  <SCORE.INTRA.norm>
0.132752

>  <SCORE.RESTR>
0

>  <SCORE.RESTR.CAVITY>
0

>  <SCORE.RESTR.norm>
0

>  <SCORE.SYSTEM>
-19.85

>  <SCORE.SYSTEM.CONST>
0

>  <SCORE.SYSTEM.DIHEDRAL>
4.31517

>  <SCORE.SYSTEM.POLAR>
-3.00299

>  <SCORE.SYSTEM.SOLV>
0.335579

>  <SCORE.SYSTEM.VDW>
-4.77362

>  <SCORE.SYSTEM.norm>
-1.80454

>  <SCORE.heavy>
11

>  <SCORE.norm>
-4.41724

$$$$
P123387402
 OpenBabel12072022113D
libRbt.so/2013.1/901 2013/11/27
 14 14  0  0  0  0  0  0  0  0999 V2000
    1.4852   16.5457    3.6701 C   0  0  0  0  0  0  0  0  0  0  0  0
    2.8517   16.3252    4.0191 O   0  0  0  0  0  0  0  0  0  0  0  0
    3.7335   17.1138    3.3318 C   0  0  0  0  0  0  0  0  0  0  0  0
    3.4022   18.0444    2.6062 O   0  0  0  0  0  0  0  0  0  0  0  0
    5.1824   16.6943    3.6568 C   0  0  1  0  0  0  0  0  0  0  0  0
    6.2404   17.5634    2.9293 C   0  0  2  0  0  0  0  0  0  0  0  0
    6.3401   18.9571    3.5590 C   0  0  0  0  0  0  0  0  0  0  0  0
    6.5962   18.8363    5.0581 C   0  0  0  0  0  0  0  0  0  0  0  0
    5.5490   17.9642    5.7429 C   0  0  0  0  0  0  0  0  0  0  0  0
    5.4247   16.6398    5.1280 N   0  0  0  0  0  0  0  0  0  0  0  0
    6.0421   17.6890    1.4801 N   0  0  0  0  0  0  0  0  0  0  0  0
    4.6414   16.1529    5.5669 H   0  0  0  0  0  0  0  0  0  0  0  0
    6.9415   17.8381    1.0217 H   0  0  0  0  0  0  0  0  0  0  0  0
    5.4826   18.5192    1.2836 H   0  0  0  0  0  0  0  0  0  0  0  0
  1  2  1  0  0  0  0
  2  3  1  0  0  0  0
  3  4  2  0  0  0  0
  5  3  1  1  0  0  0
  5 10  1  0  0  0  0
  5  6  1  0  0  0  0
  6  7  1  0  0  0  0
  6 11  1  6  0  0  0
  7  8  1  0  0  0  0
  8  9  1  0  0  0  0
  9 10  1  0  0  0  0
 10 12  1  0  0  0  0
 11 13  1  0  0  0  0
 11 14  1  0  0  0  0
M  END
>  <CHROM.0>
-60.14257214,65.49989300,-68.28416544,-45.61931828,-58.29467534,-62.80127425
-69.81201419,-61.62403379,-167.58695921

>  <CHROM.1>
8.84364533,-179.02368440,-151.73135842,4.76007403,17.48461972,3.72222720
3.09593873,-0.38468587,-1.46912300

>  <Name>
P123387402

>  <RI>
3.4169e+07

>  <Rbt.Current_Directory>
/home/fstefaniak/projects/zuza/docking/adenine/4XNR

>  <Rbt.Executable>
rbdock ($Id: //depot/dev/client3/rdock/2013.1/src/exe/rbdock.cxx#4 $)

>  <Rbt.Library>
libRbt.so (2013.1, Build901 2013/11/27)

>  <Rbt.Parameter_File>
/home/fstefaniak/progs/rDock//data/scripts/dock_solv.prm

>  <Rbt.Receptor>
4xnr.prm

>  <SCORE>
-48.5656

>  <SCORE.INTER>
-29.3827

>  <SCORE.INTER.CONST>
1

>  <SCORE.INTER.POLAR>
-3.76852

>  <SCORE.INTER.ROT>
3

>  <SCORE.INTER.SOLV>
10.861

>  <SCORE.INTER.VDW>
-16.247

>  <SCORE.INTER.norm>
-2.67115

>  <SCORE.INTRA>
0.70633

>  <SCORE.INTRA.DIHEDRAL>
0.754732

>  <SCORE.INTRA.DIHEDRAL.0>
1.64882

>  <SCORE.INTRA.POLAR>
-0.0385099

>  <SCORE.INTRA.POLAR.0>
0

>  <SCORE.INTRA.REPUL>
0

>  <SCORE.INTRA.REPUL.0>
0

>  <SCORE.INTRA.SOLV>
0.0673564

>  <SCORE.INTRA.SOLV.lig_0>
-10.0019

>  <SCORE.INTRA.VDW>
0.426219

>  <SCORE.INTRA.VDW.0>
0.799858

>  <SCORE.INTRA.norm>
0.0642118

>  <SCORE.RESTR>
0

>  <SCORE.RESTR.CAVITY>
0

>  <SCORE.RESTR.norm>
0

>  <SCORE.SYSTEM>
-19.8893

>  <SCORE.SYSTEM.CONST>
0

>  <SCORE.SYSTEM.DIHEDRAL>
4.70627

>  <SCORE.SYSTEM.POLAR>
-2.99502

>  <SCORE.SYSTEM.SOLV>
0.324829

>  <SCORE.SYSTEM.VDW>
-4.95315

>  <SCORE.SYSTEM.norm>
-1.80812

>  <SCORE.heavy>
11

>  <SCORE.norm>
-4.41506

$$$$
P123387402
 OpenBabel12072022113D
libRbt.so/2013.1/901 2013/11/27
 14 14  0  0  0  0  0  0  0  0999 V2000
    1.4781   16.5479    3.6566 C   0  0  0  0  0  0  0  0  0  0  0  0
    2.8439   16.3026    3.9914 O   0  0  0  0  0  0  0  0  0  0  0  0
    3.7305   17.1034    3.3248 C   0  0  0  0  0  0  0  0  0  0  0  0
    3.4040   18.0423    2.6076 O   0  0  0  0  0  0  0  0  0  0  0  0
    5.1772   16.6852    3.6612 C   0  0  1  0  0  0  0  0  0  0  0  0
    6.2402   17.5623    2.9507 C   0  0  2  0  0  0  0  0  0  0  0  0
    6.3300   18.9516    3.5915 C   0  0  0  0  0  0  0  0  0  0  0  0
    6.5715   18.8204    5.0922 C   0  0  0  0  0  0  0  0  0  0  0  0
    5.5197   17.9406    5.7601 C   0  0  0  0  0  0  0  0  0  0  0  0
    5.4050   16.6205    5.1343 N   0  0  0  0  0  0  0  0  0  0  0  0
    6.0559   17.6981    1.5005 N   0  0  0  0  0  0  0  0  0  0  0  0
    4.6186   16.1284    5.5617 H   0  0  0  0  0  0  0  0  0  0  0  0
    6.9567   17.8744    1.0546 H   0  0  0  0  0  0  0  0  0  0  0  0
    5.4781   18.5160    1.3057 H   0  0  0  0  0  0  0  0  0  0  0  0
  1  2  1  0  0  0  0
  2  3  1  0  0  0  0
  3  4  2  0  0  0  0
  5  3  1  1  0  0  0
  5 10  1  0  0  0  0
  5  6  1  0  0  0  0
  6  7  1  0  0  0  0
  6 11  1  6  0  0  0
  7  8  1  0  0  0  0
  8  9  1  0  0  0  0
  9 10  1  0  0  0  0
 10 12  1  0  0  0  0
 11 13  1  0  0  0  0
 11 14  1  0  0  0  0
M  END
>  <CHROM.0>
-59.17655130,66.13149405,-66.96117784,-45.63892971,-175.16147164,-60.03019473
-68.28474039,-61.16026571,-168.11513890

>  <CHROM.1>
7.20343346,-179.37569265,-153.04117188,4.75185548,17.47585046,3.73001034
3.08843341,-0.38603103,-1.46619332

>  <Name>
P123387402

>  <RI>
3.4169e+07

>  <Rbt.Current_Directory>
/home/fstefaniak/projects/zuza/docking/adenine/4XNR

>  <Rbt.Executable>
rbdock ($Id: //depot/dev/client3/rdock/2013.1/src/exe/rbdock.cxx#4 $)

>  <Rbt.Library>
libRbt.so (2013.1, Build901 2013/11/27)

>  <Rbt.Parameter_File>
/home/fstefaniak/progs/rDock//data/scripts/dock_solv.prm

>  <Rbt.Receptor>
4xnr.prm

>  <SCORE>
-48.5478

>  <SCORE.INTER>
-29.2513

>  <SCORE.INTER.CONST>
1

>  <SCORE.INTER.POLAR>
-3.74008

>  <SCORE.INTER.ROT>
3

>  <SCORE.INTER.SOLV>
10.849

>  <SCORE.INTER.VDW>
-16.2502

>  <SCORE.INTER.norm>
-2.65921

>  <SCORE.INTRA>
0.593667

>  <SCORE.INTRA.DIHEDRAL>
0.520107

>  <SCORE.INTRA.DIHEDRAL.0>
1.64882

>  <SCORE.INTRA.POLAR>
-0.0372178

>  <SCORE.INTRA.POLAR.0>
0

>  <SCORE.INTRA.REPUL>
0

>  <SCORE.INTRA.REPUL.0>
0

>  <SCORE.INTRA.SOLV>
0.0723197

>  <SCORE.INTRA.SOLV.lig_0>
-10.0019

>  <SCORE.INTRA.VDW>
0.423994

>  <SCORE.INTRA.VDW.0>
0.799858

>  <SCORE.INTRA.norm>
0.0539697

>  <SCORE.RESTR>
0

>  <SCORE.RESTR.CAVITY>
0

>  <SCORE.RESTR.norm>
0

>  <SCORE.SYSTEM>
-19.8902

>  <SCORE.SYSTEM.CONST>
0

>  <SCORE.SYSTEM.DIHEDRAL>
4.52694

>  <SCORE.SYSTEM.POLAR>
-2.99877

>  <SCORE.SYSTEM.SOLV>
0.161266

>  <SCORE.SYSTEM.VDW>
-4.82695

>  <SCORE.SYSTEM.norm>
-1.8082

>  <SCORE.heavy>
11

>  <SCORE.norm>
-4.41343

$$$$
P123387402
 OpenBabel12072022113D
libRbt.so/2013.1/901 2013/11/27
 14 14  0  0  0  0  0  0  0  0999 V2000
    1.5081   16.4935    3.6379 C   0  0  0  0  0  0  0  0  0  0  0  0
    2.8764   16.2580    3.9694 O   0  0  0  0  0  0  0  0  0  0  0  0
    3.7532   17.0903    3.3287 C   0  0  0  0  0  0  0  0  0  0  0  0
    3.4148   18.0367    2.6271 O   0  0  0  0  0  0  0  0  0  0  0  0
    5.2047   16.6951    3.6722 C   0  0  1  0  0  0  0  0  0  0  0  0
    6.2572   17.5775    2.9530 C   0  0  2  0  0  0  0  0  0  0  0  0
    6.3278   18.9754    3.5775 C   0  0  0  0  0  0  0  0  0  0  0  0
    6.5684   18.8652    5.0800 C   0  0  0  0  0  0  0  0  0  0  0  0
    5.5272   17.9796    5.7566 C   0  0  0  0  0  0  0  0  0  0  0  0
    5.4307   16.6508    5.1463 N   0  0  0  0  0  0  0  0  0  0  0  0
    6.0737   17.6937    1.5010 N   0  0  0  0  0  0  0  0  0  0  0  0
    4.6501   16.1535    5.5784 H   0  0  0  0  0  0  0  0  0  0  0  0
    6.9717   17.8836    1.0552 H   0  0  0  0  0  0  0  0  0  0  0  0
    5.4798   18.4975    1.2961 H   0  0  0  0  0  0  0  0  0  0  0  0
  1  2  1  0  0  0  0
  2  3  1  0  0  0  0
  3  4  2  0  0  0  0
  5  3  1  1  0  0  0
  5 10  1  0  0  0  0
  5  6  1  0  0  0  0
  6  7  1  0  0  0  0
  6 11  1  6  0  0  0
  7  8  1  0  0  0  0
  8  9  1  0  0  0  0
  9 10  1  0  0  0  0
 10 12  1  0  0  0  0
 11 13  1  0  0  0  0
 11 14  1  0  0  0  0
M  END
>  <CHROM.0>
-52.51311464,66.23350596,-65.92120521,-47.30286055,-176.26683336,-61.99941630
-70.24605801,-60.77277420,-168.04817770

>  <CHROM.1>
6.43803468,178.66570308,-153.46615925,4.76882585,17.47861949,3.72786413,3.08250180
-0.40329434,-1.47666069

>  <Name>
P123387402

>  <RI>
3.4169e+07

>  <Rbt.Current_Directory>
/home/fstefaniak/projects/zuza/docking/adenine/4XNR

>  <Rbt.Executable>
rbdock ($Id: //depot/dev/client3/rdock/2013.1/src/exe/rbdock.cxx#4 $)

>  <Rbt.Library>
libRbt.so (2013.1, Build901 2013/11/27)

>  <Rbt.Parameter_File>
/home/fstefaniak/progs/rDock//data/scripts/dock_solv.prm

>  <Rbt.Receptor>
4xnr.prm

>  <SCORE>
-48.5096

>  <SCORE.INTER>
-29.2367

>  <SCORE.INTER.CONST>
1

>  <SCORE.INTER.POLAR>
-3.71715

>  <SCORE.INTER.ROT>
3

>  <SCORE.INTER.SOLV>
10.8373

>  <SCORE.INTER.VDW>
-16.3131

>  <SCORE.INTER.norm>
-2.65788

>  <SCORE.INTRA>
0.578236

>  <SCORE.INTRA.DIHEDRAL>
0.443411

>  <SCORE.INTRA.DIHEDRAL.0>
1.64882

>  <SCORE.INTRA.POLAR>
-0.0299489

>  <SCORE.INTRA.POLAR.0>
0

>  <SCORE.INTRA.REPUL>
0

>  <SCORE.INTRA.REPUL.0>
0

>  <SCORE.INTRA.SOLV>
0.0780718

>  <SCORE.INTRA.SOLV.lig_0>
-10.0019

>  <SCORE.INTRA.VDW>
0.419321

>  <SCORE.INTRA.VDW.0>
0.799858

>  <SCORE.INTRA.norm>
0.0525669

>  <SCORE.RESTR>
0

>  <SCORE.RESTR.CAVITY>
0

>  <SCORE.RESTR.norm>
0

>  <SCORE.SYSTEM>
-19.8512

>  <SCORE.SYSTEM.CONST>
0

>  <SCORE.SYSTEM.DIHEDRAL>
4.66321

>  <SCORE.SYSTEM.POLAR>
-3.03137

>  <SCORE.SYSTEM.SOLV>
0.160423

>  <SCORE.SYSTEM.VDW>
-4.73743

>  <SCORE.SYSTEM.norm>
-1.80465

>  <SCORE.heavy>
11

>  <SCORE.norm>
-4.40997

$$$$
P123406382
 OpenBabel12072022113D
libRbt.so/2013.1/901 2013/11/27
 13 13  0  0  0  0  0  0  0  0999 V2000
    0.9439   16.5028    4.1379 C   0  0  0  0  0  0  0  0  0  0  0  0
    1.4636   15.1144    3.9306 C   0  0  0  0  0  0  0  0  0  0  0  0
    2.4260   14.6275    4.6713 N   0  0  0  0  0  0  0  0  0  0  0  0
    2.6446   13.2492    4.1315 C   0  0  2  0  0  0  0  0  0  0  0  0
    1.3346   12.9405    3.2896 C   0  0  1  0  0  0  0  0  0  0  0  0
    0.8998   14.2838    3.0005 N   0  0  0  0  0  0  0  0  0  0  0  0
    1.5533   12.1487    2.0150 C   0  0  0  0  0  0  0  0  0  0  0  0
    0.2888   12.3491    4.0416 O   0  0  0  0  0  0  0  0  0  0  0  0
    2.8523   12.2962    5.3031 C   0  0  0  0  0  0  0  0  0  0  0  0
    3.8223   13.2103    3.3345 O   0  0  0  0  0  0  0  0  0  0  0  0
   -0.0767   14.3958    2.7620 H   0  0  0  0  0  0  0  0  0  0  0  0
    0.2983   12.8096    4.8977 H   0  0  0  0  0  0  0  0  0  0  0  0
    3.6445   13.8956    2.6660 H   0  0  0  0  0  0  0  0  0  0  0  0
  1  2  1  0  0  0  0
  2  3  2  0  0  0  0
  2  6  1  0  0  0  0
  3  4  1  0  0  0  0
  4  5  1  0  0  0  0
  4  9  1  1  0  0  0
  4 10  1  0  0  0  0
  5  6  1  0  0  0  0
  5  7  1  6  0  0  0
  5  8  1  0  0  0  0
  6 11  1  0  0  0  0
  8 12  1  0  0  0  0
 10 13  1  0  0  0  0
M  END
>  <CHROM.0>
-58.83252889,46.32002469,-64.06424885,-47.83620153,-175.40775005,-62.33766651
-69.54598558,-59.44213496,-168.13871338

>  <CHROM.1>
-56.75280566,40.02654658,1.81765441,13.64369519,3.77642737,-1.91386570,0.45439662
-2.85826024

>  <Name>
P123406382

>  <RI>
3.02409e+07

>  <Rbt.Current_Directory>
/home/fstefaniak/projects/zuza/docking/adenine/4XNR

>  <Rbt.Executable>
rbdock ($Id: //depot/dev/client3/rdock/2013.1/src/exe/rbdock.cxx#4 $)

>  <Rbt.Library>
libRbt.so (2013.1, Build901 2013/11/27)

>  <Rbt.Parameter_File>
/home/fstefaniak/progs/rDock//data/scripts/dock_solv.prm

>  <Rbt.Receptor>
4xnr.prm

>  <SCORE>
-47.2274

>  <SCORE.INTER>
-25.1199

>  <SCORE.INTER.CONST>
1

>  <SCORE.INTER.POLAR>
-3.27427

>  <SCORE.INTER.ROT>
0

>  <SCORE.INTER.SOLV>
6.63769

>  <SCORE.INTER.VDW>
-11.6449

>  <SCORE.INTER.norm>
-2.51199

>  <SCORE.INTRA>
-2.63799

>  <SCORE.INTRA.DIHEDRAL>
-5.89669

>  <SCORE.INTRA.DIHEDRAL.0>
6.81156

>  <SCORE.INTRA.POLAR>
0

>  <SCORE.INTRA.POLAR.0>
0

>  <SCORE.INTRA.REPUL>
0

>  <SCORE.INTRA.REPUL.0>
0

>  <SCORE.INTRA.SOLV>
0.0124617

>  <SCORE.INTRA.SOLV.lig_0>
-12.1465

>  <SCORE.INTRA.VDW>
0.304123

>  <SCORE.INTRA.VDW.0>
-0.301605

>  <SCORE.INTRA.norm>
-0.263799

>  <SCORE.RESTR>
0.545877

>  <SCORE.RESTR.CAVITY>
0.545877

>  <SCORE.RESTR.norm>
0.0545877

>  <SCORE.SYSTEM>
-20.0154

>  <SCORE.SYSTEM.CONST>
0

>  <SCORE.SYSTEM.DIHEDRAL>
4.9201

>  <SCORE.SYSTEM.POLAR>
-3.03496

>  <SCORE.SYSTEM.SOLV>
0.227126

>  <SCORE.SYSTEM.VDW>
-4.94283

>  <SCORE.SYSTEM.norm>
-2.00154

>  <SCORE.heavy>
10

>  <SCORE.norm>
-4.72274

$$$$
P123406382
 OpenBabel12072022113D
libRbt.so/2013.1/901 2013/11/27
 13 13  0  0  0  0  0  0  0  0999 V2000
    5.9780   18.5848    5.9089 C   0  0  0  0  0  0  0  0  0  0  0  0
    5.2915   17.9175    4.7583 C   0  0  0  0  0  0  0  0  0  0  0  0
    4.9569   18.5835    3.6830 N   0  0  0  0  0  0  0  0  0  0  0  0
    4.2962   17.5642    2.8093 C   0  0  2  0  0  0  0  0  0  0  0  0
    4.7470   16.1687    3.4172 C   0  0  1  0  0  0  0  0  0  0  0  0
    5.0524   16.5700    4.7673 N   0  0  0  0  0  0  0  0  0  0  0  0
    3.6923   15.0793    3.3944 C   0  0  0  0  0  0  0  0  0  0  0  0
    5.9585   15.6670    2.8796 O   0  0  0  0  0  0  0  0  0  0  0  0
    4.7615   17.7801    1.3738 C   0  0  0  0  0  0  0  0  0  0  0  0
    2.8839   17.7336    2.8312 O   0  0  0  0  0  0  0  0  0  0  0  0
    5.6700   15.9597    5.2860 H   0  0  0  0  0  0  0  0  0  0  0  0
    6.2861   15.0316    3.5384 H   0  0  0  0  0  0  0  0  0  0  0  0
    2.7886   18.6516    3.1417 H   0  0  0  0  0  0  0  0  0  0  0  0
  1  2  1  0  0  0  0
  2  3  2  0  0  0  0
  2  6  1  0  0  0  0
  3  4  1  0  0  0  0
  4  5  1  0  0  0  0
  4  9  1  6  0  0  0
  4 10  1  0  0  0  0
  5  6  1  0  0  0  0
  5  7  1  6  0  0  0
  5  8  1  0  0  0  0
  6 11  1  0  0  0  0
  8 12  1  0  0  0  0
 10 13  1  0  0  0  0
M  END
>  <CHROM.0>
-57.69668481,-178.54064897,-63.80764535,-49.51135699,-59.55022432,-63.87661278
-64.34910670,-174.81587840,-168.09937977

>  <CHROM.1>
20.10225944,159.05420092,4.75596500,17.13654977,3.56694144,0.68884997,-1.00624784
0.22532850

>  <Name>
P123406382

>  <RI>
3.02409e+07

>  <Rbt.Current_Directory>
/home/fstefaniak/projects/zuza/docking/adenine/4XNR

>  <Rbt.Executable>
rbdock ($Id: //depot/dev/client3/rdock/2013.1/src/exe/rbdock.cxx#4 $)

>  <Rbt.Library>
libRbt.so (2013.1, Build901 2013/11/27)

>  <Rbt.Parameter_File>
/home/fstefaniak/progs/rDock//data/scripts/dock_solv.prm

>  <Rbt.Receptor>
4xnr.prm

>  <SCORE>
-37.8671

>  <SCORE.INTER>
-17.4833

>  <SCORE.INTER.CONST>
1

>  <SCORE.INTER.POLAR>
-3.84297

>  <SCORE.INTER.ROT>
0

>  <SCORE.INTER.SOLV>
11.994

>  <SCORE.INTER.VDW>
-6.44365

>  <SCORE.INTER.norm>
-1.74833

>  <SCORE.INTRA>
0.230512

>  <SCORE.INTRA.DIHEDRAL>
-0.362693

>  <SCORE.INTRA.DIHEDRAL.0>
6.81156

>  <SCORE.INTRA.POLAR>
0

>  <SCORE.INTRA.POLAR.0>
0

>  <SCORE.INTRA.REPUL>
0

>  <SCORE.INTRA.REPUL.0>
0

>  <SCORE.INTRA.SOLV>
0.0334303

>  <SCORE.INTRA.SOLV.lig_0>
-12.1465

>  <SCORE.INTRA.VDW>
0.395144

>  <SCORE.INTRA.VDW.0>
-0.301605

>  <SCORE.INTRA.norm>
0.0230512

>  <SCORE.RESTR>
0

>  <SCORE.RESTR.CAVITY>
0

>  <SCORE.RESTR.norm>
0

>  <SCORE.SYSTEM>
-20.6143

>  <SCORE.SYSTEM.CONST>
0

>  <SCORE.SYSTEM.DIHEDRAL>
3.65262

>  <SCORE.SYSTEM.POLAR>
-2.95158

>  <SCORE.SYSTEM.SOLV>
0.133388

>  <SCORE.SYSTEM.VDW>
-5.16628

>  <SCORE.SYSTEM.norm>
-2.06143

>  <SCORE.heavy>
10

>  <SCORE.norm>
-3.78671

$$$$
P123406382
 OpenBabel12072022113D
libRbt.so/2013.1/901 2013/11/27
 13 13  0  0  0  0  0  0  0  0999 V2000
    5.9928   18.6041    5.9027 C   0  0  0  0  0  0  0  0  0  0  0  0
    5.3128   17.9395    4.7467 C   0  0  0  0  0  0  0  0  0  0  0  0
    4.9984   18.6045    3.6647 N   0  0  0  0  0  0  0  0  0  0  0  0
    4.3370   17.5887    2.7874 C   0  0  2  0  0  0  0  0  0  0  0  0
    4.7651   16.1910    3.4065 C   0  0  1  0  0  0  0  0  0  0  0  0
    5.0587   16.5947    4.7584 N   0  0  0  0  0  0  0  0  0  0  0  0
    3.6988   15.1131    3.3755 C   0  0  0  0  0  0  0  0  0  0  0  0
    5.9773   15.6737    2.8854 O   0  0  0  0  0  0  0  0  0  0  0  0
    4.8217   17.7934    1.3567 C   0  0  0  0  0  0  0  0  0  0  0  0
    2.9264   17.7737    2.7917 O   0  0  0  0  0  0  0  0  0  0  0  0
    5.6634   15.9799    5.2870 H   0  0  0  0  0  0  0  0  0  0  0  0
    6.2867   15.0328    3.5477 H   0  0  0  0  0  0  0  0  0  0  0  0
    2.8321   18.6498    3.2060 H   0  0  0  0  0  0  0  0  0  0  0  0
  1  2  1  0  0  0  0
  2  3  2  0  0  0  0
  2  6  1  0  0  0  0
  3  4  1  0  0  0  0
  4  5  1  0  0  0  0
  4  9  1  6  0  0  0
  4 10  1  0  0  0  0
  5  6  1  0  0  0  0
  5  7  1  6  0  0  0
  5  8  1  0  0  0  0
  6 11  1  0  0  0  0
  8 12  1  0  0  0  0
 10 13  1  0  0  0  0
M  END
>  <CHROM.0>
-56.82177505,178.11930503,-66.26908719,-48.24142364,-60.78325221,-63.27737107
-67.39972621,-174.06702173,-168.15689527

>  <CHROM.1>
13.02014007,159.45910718,4.78287202,17.15898509,3.55299708,0.67598595,-1.02027498
0.20901944

>  <Name>
P123406382

>  <RI>
3.02409e+07

>  <Rbt.Current_Directory>
/home/fstefaniak/projects/zuza/docking/adenine/4XNR

>  <Rbt.Executable>
rbdock ($Id: //depot/dev/client3/rdock/2013.1/src/exe/rbdock.cxx#4 $)

>  <Rbt.Library>
libRbt.so (2013.1, Build901 2013/11/27)

>  <Rbt.Parameter_File>
/home/fstefaniak/progs/rDock//data/scripts/dock_solv.prm

>  <Rbt.Receptor>
4xnr.prm

>  <SCORE>
-37.8395

>  <SCORE.INTER>
-17.8329

>  <SCORE.INTER.CONST>
1

>  <SCORE.INTER.POLAR>
-3.96489

>  <SCORE.INTER.ROT>
0

>  <SCORE.INTER.SOLV>
11.9883

>  <SCORE.INTER.VDW>
-6.26836

>  <SCORE.INTER.norm>
-1.78329

>  <SCORE.INTRA>
0.650767

>  <SCORE.INTRA.DIHEDRAL>
0.563194

>  <SCORE.INTRA.DIHEDRAL.0>
6.81156

>  <SCORE.INTRA.POLAR>
0

>  <SCORE.INTRA.POLAR.0>
0

>  <SCORE.INTRA.REPUL>
0

>  <SCORE.INTRA.REPUL.0>
0

>  <SCORE.INTRA.SOLV>
0.0382775

>  <SCORE.INTRA.SOLV.lig_0>
-12.1465

>  <SCORE.INTRA.VDW>
0.350031

>  <SCORE.INTRA.VDW.0>
-0.301605

>  <SCORE.INTRA.norm>
0.0650767

>  <SCORE.RESTR>
0

>  <SCORE.RESTR.CAVITY>
0

>  <SCORE.RESTR.norm>
0

>  <SCORE.SYSTEM>
-20.6574

>  <SCORE.SYSTEM.CONST>
0

>  <SCORE.SYSTEM.DIHEDRAL>
4.09641

>  <SCORE.SYSTEM.POLAR>
-2.97735

>  <SCORE.SYSTEM.SOLV>
0.129155

>  <SCORE.SYSTEM.VDW>
-5.25559

>  <SCORE.SYSTEM.norm>
-2.06574

>  <SCORE.heavy>
10

>  <SCORE.norm>
-3.78395

$$$$
P125443838
 OpenBabel12072022113D
libRbt.so/2013.1/901 2013/11/27
 11 11  0  0  0  0  0  0  0  0999 V2000
   -0.2409   12.1484    4.4190 C   0  0  0  0  0  0  0  0  0  0  0  0
    0.7800   12.4480    3.4155 N   0  0  0  0  0  0  0  0  0  0  0  0
    0.6991   13.8500    2.9623 C   0  0  0  0  0  0  0  0  0  0  0  0
    1.2468   14.8937    3.9622 C   0  0  0  0  0  0  0  0  0  0  0  0
    2.6049   14.6024    4.4650 N   0  0  0  0  0  0  0  0  0  0  0  0
    2.6904   13.2015    4.9257 C   0  0  0  0  0  0  0  0  0  0  0  0
    2.1367   12.1648    3.9219 C   0  0  0  0  0  0  0  0  0  0  0  0
    3.5814   14.8837    3.4961 N   0  0  0  0  0  0  0  0  0  0  0  0
    4.1075   16.1452    3.3824 C   0  0  0  0  0  0  0  0  0  0  0  0
    4.9601   16.4480    2.5576 O   0  0  0  0  0  0  0  0  0  0  0  0
    3.9261   14.1734    2.8563 H   0  0  0  0  0  0  0  0  0  0  0  0
  1  2  1  0  0  0  0
  2  3  1  0  0  0  0
  2  7  1  0  0  0  0
  3  4  1  0  0  0  0
  4  5  1  0  0  0  0
  5  6  1  0  0  0  0
  5  8  1  0  0  0  0
  6  7  1  0  0  0  0
  8  9  1  0  0  0  0
  8 11  1  0  0  0  0
  9 10  2  0  0  0  0
M  END
>  <CHROM.0>
-57.55613642,51.98822583,60.72455203,-47.65515174,-59.66075549,-64.89486796
52.34061624,-59.62321510,-167.72056581

>  <CHROM.1>
86.96374874,2.27497301,14.08379231,3.73532197,2.39736120,0.20714789,2.67130216

>  <Name>
P125443838

>  <RI>
3.1908e+07

>  <Rbt.Current_Directory>
/home/fstefaniak/projects/zuza/docking/adenine/4XNR

>  <Rbt.Executable>
rbdock ($Id: //depot/dev/client3/rdock/2013.1/src/exe/rbdock.cxx#4 $)

>  <Rbt.Library>
libRbt.so (2013.1, Build901 2013/11/27)

>  <Rbt.Parameter_File>
/home/fstefaniak/progs/rDock//data/scripts/dock_solv.prm

>  <Rbt.Receptor>
4xnr.prm

>  <SCORE>
-36.2658

>  <SCORE.INTER>
-18.4008

>  <SCORE.INTER.CONST>
1

>  <SCORE.INTER.POLAR>
-2.77789

>  <SCORE.INTER.ROT>
1

>  <SCORE.INTER.SOLV>
7.54273

>  <SCORE.INTER.VDW>
-9.78846

>  <SCORE.INTER.norm>
-1.84008

>  <SCORE.INTRA>
0.247148

>  <SCORE.INTRA.DIHEDRAL>
1.49102e-05

>  <SCORE.INTRA.DIHEDRAL.0>
0.48

>  <SCORE.INTRA.POLAR>
0

>  <SCORE.INTRA.POLAR.0>
0

>  <SCORE.INTRA.REPUL>
0

>  <SCORE.INTRA.REPUL.0>
0

>  <SCORE.INTRA.SOLV>
0.000709413

>  <SCORE.INTRA.SOLV.lig_0>
-17.0793

>  <SCORE.INTRA.VDW>
0.246785

>  <SCORE.INTRA.VDW.0>
-0.486874

>  <SCORE.INTRA.norm>
0.0247148

>  <SCORE.RESTR>
0.0313424

>  <SCORE.RESTR.CAVITY>
0.0313424

>  <SCORE.RESTR.norm>
0.00313424

>  <SCORE.SYSTEM>
-18.1435

>  <SCORE.SYSTEM.CONST>
0

>  <SCORE.SYSTEM.DIHEDRAL>
4.21606

>  <SCORE.SYSTEM.POLAR>
-2.98752

>  <SCORE.SYSTEM.SOLV>
0.289033

>  <SCORE.SYSTEM.VDW>
-3.63899

>  <SCORE.SYSTEM.norm>
-1.81435

>  <SCORE.heavy>
10

>  <SCORE.norm>
-3.62658

$$$$
P125443838
 OpenBabel12072022113D
libRbt.so/2013.1/901 2013/11/27
 11 11  0  0  0  0  0  0  0  0999 V2000
    0.8715   13.4761    3.6718 C   0  0  0  0  0  0  0  0  0  0  0  0
    1.6257   14.2116    4.6862 N   0  0  0  0  0  0  0  0  0  0  0  0
    3.0811   14.0693    4.4882 C   0  0  0  0  0  0  0  0  0  0  0  0
    3.6672   14.8976    3.3222 C   0  0  0  0  0  0  0  0  0  0  0  0
    3.2972   16.3275    3.3436 N   0  0  0  0  0  0  0  0  0  0  0  0
    1.8401   16.4763    3.5357 C   0  0  0  0  0  0  0  0  0  0  0  0
    1.2616   15.6415    4.7009 C   0  0  0  0  0  0  0  0  0  0  0  0
    4.0175   17.0285    4.3240 N   0  0  0  0  0  0  0  0  0  0  0  0
    5.1239   17.7640    3.9834 C   0  0  0  0  0  0  0  0  0  0  0  0
    5.7899   18.3946    4.7946 O   0  0  0  0  0  0  0  0  0  0  0  0
    3.7478   17.0151    5.3037 H   0  0  0  0  0  0  0  0  0  0  0  0
  1  2  1  0  0  0  0
  2  3  1  0  0  0  0
  2  7  1  0  0  0  0
  3  4  1  0  0  0  0
  4  5  1  0  0  0  0
  5  6  1  0  0  0  0
  5  8  1  0  0  0  0
  6  7  1  0  0  0  0
  8  9  1  0  0  0  0
  8 11  1  0  0  0  0
  9 10  2  0  0  0  0
M  END
>  <CHROM.0>
-57.72394559,-62.19025358,-67.49978127,-48.97146397,-59.86082433,-62.02760953
-68.92538954,-61.01542941,-167.81266198

>  <CHROM.1>
99.18208447,3.07017030,15.84221485,4.10121127,-2.35499622,-0.00271929,0.06461521

>  <Name>
P125443838

>  <RI>
3.1908e+07

>  <Rbt.Current_Directory>
/home/fstefaniak/projects/zuza/docking/adenine/4XNR

>  <Rbt.Executable>
rbdock ($Id: //depot/dev/client3/rdock/2013.1/src/exe/rbdock.cxx#4 $)

>  <Rbt.Library>
libRbt.so (2013.1, Build901 2013/11/27)

>  <Rbt.Parameter_File>
/home/fstefaniak/progs/rDock//data/scripts/dock_solv.prm

>  <Rbt.Receptor>
4xnr.prm

>  <SCORE>
-35.5594

>  <SCORE.INTER>
-14.7273

>  <SCORE.INTER.CONST>
1

>  <SCORE.INTER.POLAR>
-1.26049

>  <SCORE.INTER.ROT>
1

>  <SCORE.INTER.SOLV>
10.1942

>  <SCORE.INTER.VDW>
-13.2813

>  <SCORE.INTER.norm>
-1.47273

>  <SCORE.INTRA>
0.0861177

>  <SCORE.INTRA.DIHEDRAL>
1.25443e-05

>  <SCORE.INTRA.DIHEDRAL.0>
0.48

>  <SCORE.INTRA.POLAR>
0

>  <SCORE.INTRA.POLAR.0>
0

>  <SCORE.INTRA.REPUL>
0

>  <SCORE.INTRA.REPUL.0>
0

>  <SCORE.INTRA.SOLV>
-0.000471486

>  <SCORE.INTRA.SOLV.lig_0>
-17.0793

>  <SCORE.INTRA.VDW>
0.0863471

>  <SCORE.INTRA.VDW.0>
-0.486874

>  <SCORE.INTRA.norm>
0.00861177

>  <SCORE.RESTR>
0

>  <SCORE.RESTR.CAVITY>
0

>  <SCORE.RESTR.norm>
0

>  <SCORE.SYSTEM>
-20.9182

>  <SCORE.SYSTEM.CONST>
0

>  <SCORE.SYSTEM.DIHEDRAL>
4.03995

>  <SCORE.SYSTEM.POLAR>
-2.95566

>  <SCORE.SYSTEM.SOLV>
0.273414

>  <SCORE.SYSTEM.VDW>
-5.53106

>  <SCORE.SYSTEM.norm>
-2.09182

>  <SCORE.heavy>
10

>  <SCORE.norm>
-3.55594

$$$$
P125443838
 OpenBabel12072022113D
libRbt.so/2013.1/901 2013/11/27
 11 11  0  0  0  0  0  0  0  0999 V2000
    0.7240   13.5610    3.7652 C   0  0  0  0  0  0  0  0  0  0  0  0
    1.4866   14.3048    4.7672 N   0  0  0  0  0  0  0  0  0  0  0  0
    2.9369   14.0714    4.6274 C   0  0  0  0  0  0  0  0  0  0  0  0
    3.6066   14.8042    3.4426 C   0  0  0  0  0  0  0  0  0  0  0  0
    3.3191   16.2517    3.3798 N   0  0  0  0  0  0  0  0  0  0  0  0
    1.8676   16.4914    3.5135 C   0  0  0  0  0  0  0  0  0  0  0  0
    1.2051   15.7517    4.6980 C   0  0  0  0  0  0  0  0  0  0  0  0
    4.0469   16.9612    4.3485 N   0  0  0  0  0  0  0  0  0  0  0  0
    4.9542   17.9196    3.9751 C   0  0  0  0  0  0  0  0  0  0  0  0
    5.6163   18.5688    4.7747 O   0  0  0  0  0  0  0  0  0  0  0  0
    3.9280   16.7915    5.3434 H   0  0  0  0  0  0  0  0  0  0  0  0
  1  2  1  0  0  0  0
  2  3  1  0  0  0  0
  2  7  1  0  0  0  0
  3  4  1  0  0  0  0
  4  5  1  0  0  0  0
  5  6  1  0  0  0  0
  5  8  1  0  0  0  0
  6  7  1  0  0  0  0
  8  9  1  0  0  0  0
  8 11  1  0  0  0  0
  9 10  2  0  0  0  0
M  END
>  <CHROM.0>
-54.85632349,-61.90509533,-73.66557878,-46.03498306,-58.08540069,-63.59650488
-173.05881219,-57.18265071,-168.21151208

>  <CHROM.1>
118.45393847,2.98963438,15.88161086,4.14515765,2.34061070,0.00025502,-3.09843301

>  <Name>
P125443838

>  <RI>
3.1908e+07

>  <Rbt.Current_Directory>
/home/fstefaniak/projects/zuza/docking/adenine/4XNR

>  <Rbt.Executable>
rbdock ($Id: //depot/dev/client3/rdock/2013.1/src/exe/rbdock.cxx#4 $)

>  <Rbt.Library>
libRbt.so (2013.1, Build901 2013/11/27)

>  <Rbt.Parameter_File>
/home/fstefaniak/progs/rDock//data/scripts/dock_solv.prm

>  <Rbt.Receptor>
4xnr.prm

>  <SCORE>
-34.5421

>  <SCORE.INTER>
-14.1977

>  <SCORE.INTER.CONST>
1

>  <SCORE.INTER.POLAR>
-1.20172

>  <SCORE.INTER.ROT>
1

>  <SCORE.INTER.SOLV>
10.6443

>  <SCORE.INTER.VDW>
-13.2741

>  <SCORE.INTER.norm>
-1.41977

>  <SCORE.INTRA>
1.76994e-05

>  <SCORE.INTRA.DIHEDRAL>
-1.65231e-07

>  <SCORE.INTRA.DIHEDRAL.0>
0.48

>  <SCORE.INTRA.POLAR>
0

>  <SCORE.INTRA.POLAR.0>
0

>  <SCORE.INTRA.REPUL>
0

>  <SCORE.INTRA.REPUL.0>
0

>  <SCORE.INTRA.SOLV>
-8.85674e-08

>  <SCORE.INTRA.SOLV.lig_0>
-17.0793

>  <SCORE.INTRA.VDW>
1.78263e-05

>  <SCORE.INTRA.VDW.0>
-0.486874

>  <SCORE.INTRA.norm>
1.76994e-06

>  <SCORE.RESTR>
0

>  <SCORE.RESTR.CAVITY>
0

>  <SCORE.RESTR.norm>
0

>  <SCORE.SYSTEM>
-20.3445

>  <SCORE.SYSTEM.CONST>
0

>  <SCORE.SYSTEM.DIHEDRAL>
4.92945

>  <SCORE.SYSTEM.POLAR>
-3.01671

>  <SCORE.SYSTEM.SOLV>
0.236997

>  <SCORE.SYSTEM.VDW>
-5.22942

>  <SCORE.SYSTEM.norm>
-2.03445

>  <SCORE.heavy>
10

>  <SCORE.norm>
-3.45421

$$$$
P12618448
 OpenBabel12072022113D
libRbt.so/2013.1/901 2013/11/27
 14 14  0  0  0  0  0  0  0  0999 V2000
    3.0707   15.1567    3.7625 C   0  0  0  0  0  0  0  0  0  0  0  0
    4.5760   15.0590    3.5819 C   0  0  0  0  0  0  0  0  0  0  0  0
    5.2227   16.3885    3.7089 C   0  0  0  0  0  0  0  0  0  0  0  0
    5.2889   17.1747    4.7636 N   0  0  0  0  0  0  0  0  0  0  0  0
    5.9937   18.2649    4.2983 C   0  0  0  0  0  0  0  0  0  0  0  0
    6.3309   18.0985    2.9704 C   0  0  0  0  0  0  0  0  0  0  0  0
    5.8269   16.8841    2.5856 O   0  0  0  0  0  0  0  0  0  0  0  0
    6.9772   18.7928    1.9997 N   0  0  0  0  0  0  0  0  0  0  0  0
    7.7499   17.9693    1.1582 N   0  0  0  0  0  0  0  0  0  0  0  0
    6.2699   19.3881    5.1305 C   0  0  0  0  0  0  0  0  0  0  0  0
    6.4944   20.3237    5.7830 N   0  0  0  0  0  0  0  0  0  0  0  0
    6.3823   19.4853    1.5332 H   0  0  0  0  0  0  0  0  0  0  0  0
    8.6067   18.4528    0.8630 H   0  0  0  0  0  0  0  0  0  0  0  0
    7.2550   17.7924    0.2783 H   0  0  0  0  0  0  0  0  0  0  0  0
  1  2  1  0  0  0  0
  2  3  1  0  0  0  0
  3  4  2  0  0  0  0
  3  7  1  0  0  0  0
  4  5  1  0  0  0  0
  5  6  2  0  0  0  0
  5 10  1  0  0  0  0
  6  7  1  0  0  0  0
  6  8  1  0  0  0  0
  8  9  1  0  0  0  0
  8 12  1  0  0  0  0
  9 13  1  0  0  0  0
  9 14  1  0  0  0  0
 10 11  3  0  0  0  0
M  END
>  <CHROM.0>
-56.44063798,179.16498483,-65.60190874,-47.41573693,-60.70335561,-63.12703554
-70.32734212,-59.62143866,-167.69908941

>  <CHROM.1>
64.63818996,142.64676645,-145.00764964,5.80586016,17.56119071,3.52470751
2.63521087,-0.83190124,-2.21597216

>  <Name>
P12618448

>  <RI>
3.51561e+07

>  <Rbt.Current_Directory>
/home/fstefaniak/projects/zuza/docking/adenine/4XNR

>  <Rbt.Executable>
rbdock ($Id: //depot/dev/client3/rdock/2013.1/src/exe/rbdock.cxx#4 $)

>  <Rbt.Library>
libRbt.so (2013.1, Build901 2013/11/27)

>  <Rbt.Parameter_File>
/home/fstefaniak/progs/rDock//data/scripts/dock_solv.prm

>  <Rbt.Receptor>
4xnr.prm

>  <SCORE>
-60.5145

>  <SCORE.INTER>
-40.1664

>  <SCORE.INTER.CONST>
1

>  <SCORE.INTER.POLAR>
-5.61013

>  <SCORE.INTER.ROT>
3

>  <SCORE.INTER.SOLV>
15.6648

>  <SCORE.INTER.VDW>
-18.8987

>  <SCORE.INTER.norm>
-3.65149

>  <SCORE.INTRA>
0.362881

>  <SCORE.INTRA.DIHEDRAL>
0.442605

>  <SCORE.INTRA.DIHEDRAL.0>
2.24048

>  <SCORE.INTRA.POLAR>
0

>  <SCORE.INTRA.POLAR.0>
0

>  <SCORE.INTRA.REPUL>
0

>  <SCORE.INTRA.REPUL.0>
0

>  <SCORE.INTRA.SOLV>
-0.430333

>  <SCORE.INTRA.SOLV.lig_0>
-17.7927

>  <SCORE.INTRA.VDW>
0.356745

>  <SCORE.INTRA.VDW.0>
-1.02598

>  <SCORE.INTRA.norm>
0.0329892

>  <SCORE.RESTR>
0

>  <SCORE.RESTR.CAVITY>
0

>  <SCORE.RESTR.norm>
0

>  <SCORE.SYSTEM>
-20.711

>  <SCORE.SYSTEM.CONST>
0

>  <SCORE.SYSTEM.DIHEDRAL>
4.26257

>  <SCORE.SYSTEM.POLAR>
-2.99546

>  <SCORE.SYSTEM.SOLV>
0.259136

>  <SCORE.SYSTEM.VDW>
-5.32971

>  <SCORE.SYSTEM.norm>
-1.88282

>  <SCORE.heavy>
11

>  <SCORE.norm>
-5.50132

$$$$
P12618448
 OpenBabel12072022113D
libRbt.so/2013.1/901 2013/11/27
 14 14  0  0  0  0  0  0  0  0999 V2000
    3.1961   15.0980    3.7818 C   0  0  0  0  0  0  0  0  0  0  0  0
    4.7077   15.0364    3.6432 C   0  0  0  0  0  0  0  0  0  0  0  0
    5.3138   16.3880    3.7317 C   0  0  0  0  0  0  0  0  0  0  0  0
    5.3585   17.2045    4.7643 N   0  0  0  0  0  0  0  0  0  0  0  0
    6.0285   18.3025    4.2671 C   0  0  0  0  0  0  0  0  0  0  0  0
    6.3675   18.1100    2.9432 C   0  0  0  0  0  0  0  0  0  0  0  0
    5.8999   16.8707    2.5934 O   0  0  0  0  0  0  0  0  0  0  0  0
    6.9899   18.7968    1.9518 N   0  0  0  0  0  0  0  0  0  0  0  0
    7.7499   17.9681    1.1038 N   0  0  0  0  0  0  0  0  0  0  0  0
    6.2723   19.4560    5.0673 C   0  0  0  0  0  0  0  0  0  0  0  0
    6.4697   20.4155    5.6933 N   0  0  0  0  0  0  0  0  0  0  0  0
    6.3818   19.4808    1.4899 H   0  0  0  0  0  0  0  0  0  0  0  0
    8.6035   18.4486    0.7952 H   0  0  0  0  0  0  0  0  0  0  0  0
    7.2430   17.7882    0.2314 H   0  0  0  0  0  0  0  0  0  0  0  0
  1  2  1  0  0  0  0
  2  3  1  0  0  0  0
  3  4  2  0  0  0  0
  3  7  1  0  0  0  0
  4  5  1  0  0  0  0
  5  6  2  0  0  0  0
  5 10  1  0  0  0  0
  6  7  1  0  0  0  0
  6  8  1  0  0  0  0
  8  9  1  0  0  0  0
  8 12  1  0  0  0  0
  9 13  1  0  0  0  0
  9 14  1  0  0  0  0
 10 11  3  0  0  0  0
M  END
>  <CHROM.0>
-57.74004155,179.25129747,-66.97832914,-47.35931277,61.61277021,-57.87319613
-66.45562076,-56.18700684,-167.56776664

>  <CHROM.1>
66.44733291,144.63350324,-144.30350459,5.85627396,17.57246181,3.50663636
2.60289539,-0.85971594,-2.25486194

>  <Name>
P12618448

>  <RI>
3.51561e+07

>  <Rbt.Current_Directory>
/home/fstefaniak/projects/zuza/docking/adenine/4XNR

>  <Rbt.Executable>
rbdock ($Id: //depot/dev/client3/rdock/2013.1/src/exe/rbdock.cxx#4 $)

>  <Rbt.Library>
libRbt.so (2013.1, Build901 2013/11/27)

>  <Rbt.Parameter_File>
/home/fstefaniak/progs/rDock//data/scripts/dock_solv.prm

>  <Rbt.Receptor>
4xnr.prm

>  <SCORE>
-59.4814

>  <SCORE.INTER>
-40.279

>  <SCORE.INTER.CONST>
1

>  <SCORE.INTER.POLAR>
-5.63636

>  <SCORE.INTER.ROT>
3

>  <SCORE.INTER.SOLV>
15.9193

>  <SCORE.INTER.VDW>
-18.9712

>  <SCORE.INTER.norm>
-3.66172

>  <SCORE.INTRA>
0.392011

>  <SCORE.INTRA.DIHEDRAL>
0.468048

>  <SCORE.INTRA.DIHEDRAL.0>
2.24048

>  <SCORE.INTRA.POLAR>
0

>  <SCORE.INTRA.POLAR.0>
0

>  <SCORE.INTRA.REPUL>
0

>  <SCORE.INTRA.REPUL.0>
0

>  <SCORE.INTRA.SOLV>
-0.428776

>  <SCORE.INTRA.SOLV.lig_0>
-17.7927

>  <SCORE.INTRA.VDW>
0.372376

>  <SCORE.INTRA.VDW.0>
-1.02598

>  <SCORE.INTRA.norm>
0.0356374

>  <SCORE.RESTR>
0

>  <SCORE.RESTR.CAVITY>
0

>  <SCORE.RESTR.norm>
0

>  <SCORE.SYSTEM>
-19.5944

>  <SCORE.SYSTEM.CONST>
0

>  <SCORE.SYSTEM.DIHEDRAL>
4.08814

>  <SCORE.SYSTEM.POLAR>
-2.9955

>  <SCORE.SYSTEM.SOLV>
0.0738827

>  <SCORE.SYSTEM.VDW>
-4.46529

>  <SCORE.SYSTEM.norm>
-1.78131

>  <SCORE.heavy>
11

>  <SCORE.norm>
-5.4074

$$$$
P12618448
 OpenBabel12072022113D
libRbt.so/2013.1/901 2013/11/27
 14 14  0  0  0  0  0  0  0  0999 V2000
    2.5631   14.6861    3.9525 C   0  0  0  0  0  0  0  0  0  0  0  0
    4.0636   14.4499    3.9816 C   0  0  0  0  0  0  0  0  0  0  0  0
    4.8135   15.7188    3.8099 C   0  0  0  0  0  0  0  0  0  0  0  0
    5.5152   16.1269    2.7726 N   0  0  0  0  0  0  0  0  0  0  0  0
    5.9851   17.3588    3.1769 C   0  0  0  0  0  0  0  0  0  0  0  0
    5.5483   17.6540    4.4524 C   0  0  0  0  0  0  0  0  0  0  0  0
    4.7926   16.5887    4.8660 O   0  0  0  0  0  0  0  0  0  0  0  0
    5.6811   18.6574    5.3565 N   0  0  0  0  0  0  0  0  0  0  0  0
    5.5942   18.2103    6.6891 N   0  0  0  0  0  0  0  0  0  0  0  0
    6.8298   18.1477    2.3437 C   0  0  0  0  0  0  0  0  0  0  0  0
    7.5331   18.8038    1.6906 N   0  0  0  0  0  0  0  0  0  0  0  0
    6.4549   19.2951    5.1426 H   0  0  0  0  0  0  0  0  0  0  0  0
    5.5490   19.0055    7.3374 H   0  0  0  0  0  0  0  0  0  0  0  0
    6.4549   17.7242    6.9600 H   0  0  0  0  0  0  0  0  0  0  0  0
  1  2  1  0  0  0  0
  2  3  1  0  0  0  0
  3  4  2  0  0  0  0
  3  7  1  0  0  0  0
  4  5  1  0  0  0  0
  5  6  2  0  0  0  0
  5 10  1  0  0  0  0
  6  7  1  0  0  0  0
  6  8  1  0  0  0  0
  8  9  1  0  0  0  0
  8 12  1  0  0  0  0
  9 13  1  0  0  0  0
  9 14  1  0  0  0  0
 10 11  3  0  0  0  0
M  END
>  <CHROM.0>
-58.34772127,-175.39002308,-65.78505207,-46.69052002,-175.74819543,-63.20877443
-67.14061598,-58.97549193,-167.83226346

>  <CHROM.1>
-108.89106937,-150.51103247,-171.01756656,5.32276234,16.94538663,4.00578231
-2.97075235,0.84605300,1.11753811

>  <Name>
P12618448

>  <RI>
3.51561e+07

>  <Rbt.Current_Directory>
/home/fstefaniak/projects/zuza/docking/adenine/4XNR

>  <Rbt.Executable>
rbdock ($Id: //depot/dev/client3/rdock/2013.1/src/exe/rbdock.cxx#4 $)

>  <Rbt.Library>
libRbt.so (2013.1, Build901 2013/11/27)

>  <Rbt.Parameter_File>
/home/fstefaniak/progs/rDock//data/scripts/dock_solv.prm

>  <Rbt.Receptor>
4xnr.prm

>  <SCORE>
-57.3279

>  <SCORE.INTER>
-36.7563

>  <SCORE.INTER.CONST>
1

>  <SCORE.INTER.POLAR>
-4.34982

>  <SCORE.INTER.ROT>
3

>  <SCORE.INTER.SOLV>
15.1056

>  <SCORE.INTER.VDW>
-20.64

>  <SCORE.INTER.norm>
-3.34148

>  <SCORE.INTRA>
0.223057

>  <SCORE.INTRA.DIHEDRAL>
-0.330951

>  <SCORE.INTRA.DIHEDRAL.0>
2.24048

>  <SCORE.INTRA.POLAR>
0

>  <SCORE.INTRA.POLAR.0>
0

>  <SCORE.INTRA.REPUL>
0

>  <SCORE.INTRA.REPUL.0>
0

>  <SCORE.INTRA.SOLV>
-0.345921

>  <SCORE.INTRA.SOLV.lig_0>
-17.7927

>  <SCORE.INTRA.VDW>
0.561493

>  <SCORE.INTRA.VDW.0>
-1.02598

>  <SCORE.INTRA.norm>
0.0202779

>  <SCORE.RESTR>
0

>  <SCORE.RESTR.CAVITY>
0

>  <SCORE.RESTR.norm>
0

>  <SCORE.SYSTEM>
-20.7946

>  <SCORE.SYSTEM.CONST>
0

>  <SCORE.SYSTEM.DIHEDRAL>
4.23512

>  <SCORE.SYSTEM.POLAR>
-2.99177

>  <SCORE.SYSTEM.SOLV>
0.0885645

>  <SCORE.SYSTEM.VDW>
-5.33172

>  <SCORE.SYSTEM.norm>
-1.89042

>  <SCORE.heavy>
11

>  <SCORE.norm>
-5.21162

$$$$
P126500777
 OpenBabel12072022113D
libRbt.so/2013.1/901 2013/11/27
 14 14  0  0  0  0  0  0  0  0999 V2000
    3.3677   16.5009    3.4576 C   0  0  0  0  0  0  0  0  0  0  0  0
    4.2920   15.5382    4.2099 C   0  0  0  0  0  0  0  0  0  0  0  0
    4.0953   14.0751    3.8049 C   0  0  0  0  0  0  0  0  0  0  0  0
    2.9209   13.3418    4.4569 C   0  0  2  0  0  0  0  0  0  0  0  0
    1.8229   14.2774    4.8594 N   0  3  0  0  0  0  0  0  0  0  0  0
    1.1405   13.5561    5.2396 H   0  0  0  0  0  0  0  0  0  0  0  0
    2.0617   14.7061    5.7613 H   0  0  0  0  0  0  0  0  0  0  0  0
    1.2101   15.1619    3.8796 C   0  0  0  0  0  0  0  0  0  0  0  0
    1.9096   16.5118    3.9156 C   0  0  0  0  0  0  0  0  0  0  0  0
    3.3067   12.4922    5.6974 C   0  0  0  0  0  0  0  0  0  0  0  0
    3.2960   12.9305    6.8454 O   0  0  0  0  0  0  0  0  0  0  0  0
    3.6193   11.1623    5.4326 N   0  0  0  0  0  0  0  0  0  0  0  0
    2.9937   10.1382    6.1273 O   0  5  0  0  0  0  0  0  0  0  0  0
    3.9160   10.9378    4.4832 H   0  0  0  0  0  0  0  0  0  0  0  0
  1  2  1  0  0  0  0
  1  9  1  0  0  0  0
  2  3  1  0  0  0  0
  3  4  1  0  0  0  0
  4  5  1  0  0  0  0
  4 10  1  1  0  0  0
  5  6  1  0  0  0  0
  5  7  1  0  0  0  0
  5  8  1  0  0  0  0
  8  9  1  0  0  0  0
 10 11  2  0  0  0  0
 10 12  1  0  0  0  0
 12 13  1  0  0  0  0
 12 14  1  0  0  0  0
M  CHG  2   5   1  13  -1
M  END
>  <CHROM.0>
-61.89649280,-80.75481877,-67.51671992,-48.52710467,-58.22938844,-64.75412167
-70.73551459,-60.08479374,-168.14258560

>  <CHROM.1>
90.56197744,-127.62481738,2.97358063,13.77861653,4.82957820,-1.68376340,-0.14888641
2.70042781

>  <Name>
P126500777

>  <RI>
3.02409e+07

>  <Rbt.Current_Directory>
/home/fstefaniak/projects/zuza/docking/adenine/4XNR

>  <Rbt.Executable>
rbdock ($Id: //depot/dev/client3/rdock/2013.1/src/exe/rbdock.cxx#4 $)

>  <Rbt.Library>
libRbt.so (2013.1, Build901 2013/11/27)

>  <Rbt.Parameter_File>
/home/fstefaniak/progs/rDock//data/scripts/dock_solv.prm

>  <Rbt.Receptor>
4xnr.prm

>  <SCORE>
-46.0384

>  <SCORE.INTER>
-21.2699

>  <SCORE.INTER.CONST>
1

>  <SCORE.INTER.POLAR>
-3.21197

>  <SCORE.INTER.ROT>
2

>  <SCORE.INTER.SOLV>
16.1963

>  <SCORE.INTER.VDW>
-13.8054

>  <SCORE.INTER.norm>
-1.93362

>  <SCORE.INTRA>
-4.57609

>  <SCORE.INTRA.DIHEDRAL>
0.468718

>  <SCORE.INTRA.DIHEDRAL.0>
1.64509

>  <SCORE.INTRA.POLAR>
0

>  <SCORE.INTRA.POLAR.0>
0

>  <SCORE.INTRA.REPUL>
0

>  <SCORE.INTRA.REPUL.0>
0

>  <SCORE.INTRA.SOLV>
-7.93743

>  <SCORE.INTRA.SOLV.lig_0>
-46.0876

>  <SCORE.INTRA.VDW>
-0.841735

>  <SCORE.INTRA.VDW.0>
-0.00449069

>  <SCORE.INTRA.norm>
-0.416008

>  <SCORE.RESTR>
0

>  <SCORE.RESTR.CAVITY>
0

>  <SCORE.RESTR.norm>
0

>  <SCORE.SYSTEM>
-20.1924

>  <SCORE.SYSTEM.CONST>
0

>  <SCORE.SYSTEM.DIHEDRAL>
6.15311

>  <SCORE.SYSTEM.POLAR>
-2.94119

>  <SCORE.SYSTEM.SOLV>
0.245168

>  <SCORE.SYSTEM.VDW>
-5.79042

>  <SCORE.SYSTEM.norm>
-1.83568

>  <SCORE.heavy>
11

>  <SCORE.norm>
-4.18531

$$$$
P126500777
 OpenBabel12072022113D
libRbt.so/2013.1/901 2013/11/27
 14 14  0  0  0  0  0  0  0  0999 V2000
    7.7106   19.1505    5.1610 C   0  0  0  0  0  0  0  0  0  0  0  0
    7.4407   18.2431    3.9565 C   0  0  0  0  0  0  0  0  0  0  0  0
    6.0604   18.4652    3.3331 C   0  0  0  0  0  0  0  0  0  0  0  0
    4.8833   17.7742    4.0253 C   0  0  2  0  0  0  0  0  0  0  0  0
    5.1412   17.5410    5.4820 N   0  3  0  0  0  0  0  0  0  0  0  0
    4.2067   17.1003    5.7330 H   0  0  0  0  0  0  0  0  0  0  0  0
    5.7088   16.6924    5.5903 H   0  0  0  0  0  0  0  0  0  0  0  0
    5.4869   18.6508    6.3576 C   0  0  0  0  0  0  0  0  0  0  0  0
    7.0007   18.7589    6.4567 C   0  0  0  0  0  0  0  0  0  0  0  0
    4.4718   16.4200    3.3877 C   0  0  0  0  0  0  0  0  0  0  0  0
    5.0888   15.8935    2.4645 O   0  0  0  0  0  0  0  0  0  0  0  0
    3.3722   15.7984    3.9715 N   0  0  0  0  0  0  0  0  0  0  0  0
    2.5615   14.9539    3.2283 O   0  5  0  0  0  0  0  0  0  0  0  0
    3.4342   15.5904    4.9679 H   0  0  0  0  0  0  0  0  0  0  0  0
  1  2  1  0  0  0  0
  1  9  1  0  0  0  0
  2  3  1  0  0  0  0
  3  4  1  0  0  0  0
  4  5  1  0  0  0  0
  4 10  1  6  0  0  0
  5  6  1  0  0  0  0
  5  7  1  0  0  0  0
  5  8  1  0  0  0  0
  8  9  1  0  0  0  0
 10 11  2  0  0  0  0
 10 12  1  0  0  0  0
 12 13  1  0  0  0  0
 12 14  1  0  0  0  0
M  CHG  2   5   1  13  -1
M  END
>  <CHROM.0>
-56.67651265,-63.11584583,-64.88778357,-47.58931381,179.72564273,-62.62818849
-66.59196677,-61.08551722,-168.26813129

>  <CHROM.1>
4.80228907,152.29365428,5.34183897,17.36517168,4.34510019,-0.66051019,-0.56878569
-1.94586693

>  <Name>
P126500777

>  <RI>
3.02409e+07

>  <Rbt.Current_Directory>
/home/fstefaniak/projects/zuza/docking/adenine/4XNR

>  <Rbt.Executable>
rbdock ($Id: //depot/dev/client3/rdock/2013.1/src/exe/rbdock.cxx#4 $)

>  <Rbt.Library>
libRbt.so (2013.1, Build901 2013/11/27)

>  <Rbt.Parameter_File>
/home/fstefaniak/progs/rDock//data/scripts/dock_solv.prm

>  <Rbt.Receptor>
4xnr.prm

>  <SCORE>
-45.1542

>  <SCORE.INTER>
-20.3168

>  <SCORE.INTER.CONST>
1

>  <SCORE.INTER.POLAR>
-3.46841

>  <SCORE.INTER.ROT>
2

>  <SCORE.INTER.SOLV>
22.5206

>  <SCORE.INTER.VDW>
-14.4234

>  <SCORE.INTER.norm>
-1.84698

>  <SCORE.INTRA>
-3.87731

>  <SCORE.INTRA.DIHEDRAL>
-0.358284

>  <SCORE.INTRA.DIHEDRAL.0>
1.64509

>  <SCORE.INTRA.POLAR>
-0.168511

>  <SCORE.INTRA.POLAR.0>
0

>  <SCORE.INTRA.REPUL>
0

>  <SCORE.INTRA.REPUL.0>
0

>  <SCORE.INTRA.SOLV>
-6.06441

>  <SCORE.INTRA.SOLV.lig_0>
-46.0876

>  <SCORE.INTRA.VDW>
-0.0930287

>  <SCORE.INTRA.VDW.0>
-0.00449069

>  <SCORE.INTRA.norm>
-0.352483

>  <SCORE.RESTR>
0

>  <SCORE.RESTR.CAVITY>
0

>  <SCORE.RESTR.norm>
0

>  <SCORE.SYSTEM>
-20.9601

>  <SCORE.SYSTEM.CONST>
0

>  <SCORE.SYSTEM.DIHEDRAL>
3.89785

>  <SCORE.SYSTEM.POLAR>
-2.99006

>  <SCORE.SYSTEM.SOLV>
0.114332

>  <SCORE.SYSTEM.VDW>
-5.3439

>  <SCORE.SYSTEM.norm>
-1.90546

>  <SCORE.heavy>
11

>  <SCORE.norm>
-4.10493

$$$$
P126500777
 OpenBabel12072022113D
libRbt.so/2013.1/901 2013/11/27
 14 14  0  0  0  0  0  0  0  0999 V2000
    7.7229   19.1499    5.2038 C   0  0  0  0  0  0  0  0  0  0  0  0
    7.4582   18.2670    3.9801 C   0  0  0  0  0  0  0  0  0  0  0  0
    6.0778   18.4967    3.3596 C   0  0  0  0  0  0  0  0  0  0  0  0
    4.9025   17.7867    4.0354 C   0  0  2  0  0  0  0  0  0  0  0  0
    5.1593   17.5239    5.4873 N   0  3  0  0  0  0  0  0  0  0  0  0
    4.2263   17.0744    5.7276 H   0  0  0  0  0  0  0  0  0  0  0  0
    5.7302   16.6754    5.5784 H   0  0  0  0  0  0  0  0  0  0  0  0
    5.4996   18.6164    6.3865 C   0  0  0  0  0  0  0  0  0  0  0  0
    7.0128   18.7283    6.4899 C   0  0  0  0  0  0  0  0  0  0  0  0
    4.4972   16.4447    3.3689 C   0  0  0  0  0  0  0  0  0  0  0  0
    5.1126   15.9442    2.4303 O   0  0  0  0  0  0  0  0  0  0  0  0
    3.4054   15.8016    3.9442 N   0  0  0  0  0  0  0  0  0  0  0  0
    2.6156   14.9436    3.1941 O   0  5  0  0  0  0  0  0  0  0  0  0
    3.4647   15.5929    4.9406 H   0  0  0  0  0  0  0  0  0  0  0  0
  1  2  1  0  0  0  0
  1  9  1  0  0  0  0
  2  3  1  0  0  0  0
  3  4  1  0  0  0  0
  4  5  1  0  0  0  0
  4 10  1  6  0  0  0
  5  6  1  0  0  0  0
  5  7  1  0  0  0  0
  5  8  1  0  0  0  0
  8  9  1  0  0  0  0
 10 11  2  0  0  0  0
 10 12  1  0  0  0  0
 12 13  1  0  0  0  0
 12 14  1  0  0  0  0
M  CHG  2   5   1  13  -1
M  END
>  <CHROM.0>
-58.91117708,-64.86258730,-70.04235593,-46.25899866,-64.58453533,-63.05143113
-68.47307817,-59.63398198,-168.21228620

>  <CHROM.1>
4.34077800,153.84501829,5.36459341,17.36975644,4.34910455,-0.66277697,-0.57736488
-1.92541235

>  <Name>
P126500777

>  <RI>
3.02409e+07

>  <Rbt.Current_Directory>
/home/fstefaniak/projects/zuza/docking/adenine/4XNR

>  <Rbt.Executable>
rbdock ($Id: //depot/dev/client3/rdock/2013.1/src/exe/rbdock.cxx#4 $)

>  <Rbt.Library>
libRbt.so (2013.1, Build901 2013/11/27)

>  <Rbt.Parameter_File>
/home/fstefaniak/progs/rDock//data/scripts/dock_solv.prm

>  <Rbt.Receptor>
4xnr.prm

>  <SCORE>
-45.0874

>  <SCORE.INTER>
-20.378

>  <SCORE.INTER.CONST>
1

>  <SCORE.INTER.POLAR>
-3.48831

>  <SCORE.INTER.ROT>
2

>  <SCORE.INTER.SOLV>
22.6051

>  <SCORE.INTER.VDW>
-14.426

>  <SCORE.INTER.norm>
-1.85254

>  <SCORE.INTRA>
-3.78139

>  <SCORE.INTRA.DIHEDRAL>
-0.363599

>  <SCORE.INTRA.DIHEDRAL.0>
1.64509

>  <SCORE.INTRA.POLAR>
-0.171858

>  <SCORE.INTRA.POLAR.0>
0

>  <SCORE.INTRA.REPUL>
0

>  <SCORE.INTRA.REPUL.0>
0

>  <SCORE.INTRA.SOLV>
-6.03932

>  <SCORE.INTRA.SOLV.lig_0>
-46.0876

>  <SCORE.INTRA.VDW>
0.00438488

>  <SCORE.INTRA.VDW.0>
-0.00449069

>  <SCORE.INTRA.norm>
-0.343763

>  <SCORE.RESTR>
0

>  <SCORE.RESTR.CAVITY>
0

>  <SCORE.RESTR.norm>
0

>  <SCORE.SYSTEM>
-20.9281

>  <SCORE.SYSTEM.CONST>
0

>  <SCORE.SYSTEM.DIHEDRAL>
4.64794

>  <SCORE.SYSTEM.POLAR>
-2.98455

>  <SCORE.SYSTEM.SOLV>
0.264365

>  <SCORE.SYSTEM.VDW>
-5.64097

>  <SCORE.SYSTEM.norm>
-1.90255

>  <SCORE.heavy>
11

>  <SCORE.norm>
-4.09886

$$$$
P128031521
 OpenBabel12072022113D
libRbt.so/2013.1/901 2013/11/27
 11 11  0  0  0  0  0  0  0  0999 V2000
    5.5952   18.1501    4.7749 C   0  0  0  0  0  0  0  0  0  0  0  0
    4.7057   17.0341    4.6126 N   0  0  0  0  0  0  0  0  0  0  0  0
    4.5077   16.4423    3.3822 C   0  0  0  0  0  0  0  0  0  0  0  0
    5.1902   16.6867    2.3909 O   0  0  0  0  0  0  0  0  0  0  0  0
    3.3968   15.3806    3.3773 C   0  0  1  0  0  0  0  0  0  0  0  0
    3.9150   14.0442    3.9151 C   0  0  0  0  0  0  0  0  0  0  0  0
    2.9890   13.6878    5.0692 C   0  0  0  0  0  0  0  0  0  0  0  0
    1.7382   14.4984    4.7935 C   0  0  0  0  0  0  0  0  0  0  0  0
    2.2991   15.7623    4.3131 N   0  0  0  0  0  0  0  0  0  0  0  0
    1.2920   16.5962    3.6653 C   0  0  0  0  0  0  0  0  0  0  0  0
    3.9381   16.8903    5.2659 H   0  0  0  0  0  0  0  0  0  0  0  0
  1  2  1  0  0  0  0
  2  3  1  0  0  0  0
  2 11  1  0  0  0  0
  3  4  2  0  0  0  0
  5  3  1  1  0  0  0
  5  6  1  0  0  0  0
  5  9  1  0  0  0  0
  6  7  1  0  0  0  0
  7  8  1  0  0  0  0
  8  9  1  0  0  0  0
  9 10  1  0  0  0  0
M  END
>  <CHROM.0>
-57.31431902,-64.52022554,-66.74240520,-47.80683507,-173.70388089,-63.62840717
-68.36962966,-59.52865305,-168.41068793

>  <CHROM.1>
10.31846516,-81.16047267,3.57423596,15.86391515,4.03180731,0.74842969,0.11898918
-0.09457291

>  <Name>
P128031521

>  <RI>
3.1908e+07

>  <Rbt.Current_Directory>
/home/fstefaniak/projects/zuza/docking/adenine/4XNR

>  <Rbt.Executable>
rbdock ($Id: //depot/dev/client3/rdock/2013.1/src/exe/rbdock.cxx#4 $)

>  <Rbt.Library>
libRbt.so (2013.1, Build901 2013/11/27)

>  <Rbt.Parameter_File>
/home/fstefaniak/progs/rDock//data/scripts/dock_solv.prm

>  <Rbt.Receptor>
4xnr.prm

>  <SCORE>
-42.8561

>  <SCORE.INTER>
-21.8339

>  <SCORE.INTER.CONST>
1

>  <SCORE.INTER.POLAR>
-2.0966

>  <SCORE.INTER.ROT>
2

>  <SCORE.INTER.SOLV>
9.63889

>  <SCORE.INTER.VDW>
-15.7136

>  <SCORE.INTER.norm>
-2.18339

>  <SCORE.INTRA>
-0.0740575

>  <SCORE.INTRA.DIHEDRAL>
-0.194918

>  <SCORE.INTRA.DIHEDRAL.0>
2.0346

>  <SCORE.INTRA.POLAR>
0.0230439

>  <SCORE.INTRA.POLAR.0>
-0.235362

>  <SCORE.INTRA.REPUL>
0

>  <SCORE.INTRA.REPUL.0>
0

>  <SCORE.INTRA.SOLV>
-0.0100516

>  <SCORE.INTRA.SOLV.lig_0>
-10.5026

>  <SCORE.INTRA.VDW>
-0.0499218

>  <SCORE.INTRA.VDW.0>
-0.213033

>  <SCORE.INTRA.norm>
-0.00740575

>  <SCORE.RESTR>
0

>  <SCORE.RESTR.CAVITY>
0

>  <SCORE.RESTR.norm>
0

>  <SCORE.SYSTEM>
-20.9481

>  <SCORE.SYSTEM.CONST>
0

>  <SCORE.SYSTEM.DIHEDRAL>
4.31091

>  <SCORE.SYSTEM.POLAR>
-2.97553

>  <SCORE.SYSTEM.SOLV>
0.102846

>  <SCORE.SYSTEM.VDW>
-5.51821

>  <SCORE.SYSTEM.norm>
-2.09481

>  <SCORE.heavy>
10

>  <SCORE.norm>
-4.28561

$$$$
P128031521
 OpenBabel12072022113D
libRbt.so/2013.1/901 2013/11/27
 11 11  0  0  0  0  0  0  0  0999 V2000
    5.5406   18.1319    4.7767 C   0  0  0  0  0  0  0  0  0  0  0  0
    4.6905   16.9846    4.6211 N   0  0  0  0  0  0  0  0  0  0  0  0
    4.5070   16.3841    3.3927 C   0  0  0  0  0  0  0  0  0  0  0  0
    5.2136   16.6063    2.4133 O   0  0  0  0  0  0  0  0  0  0  0  0
    3.3775   15.3421    3.3755 C   0  0  1  0  0  0  0  0  0  0  0  0
    3.8595   14.0036    3.9411 C   0  0  0  0  0  0  0  0  0  0  0  0
    2.9014   13.6781    5.0781 C   0  0  0  0  0  0  0  0  0  0  0  0
    1.6719   14.5072    4.7642 C   0  0  0  0  0  0  0  0  0  0  0  0
    2.2661   15.7549    4.2812 N   0  0  0  0  0  0  0  0  0  0  0  0
    1.2890   16.5982    3.6006 C   0  0  0  0  0  0  0  0  0  0  0  0
    3.9321   16.8147    5.2789 H   0  0  0  0  0  0  0  0  0  0  0  0
  1  2  1  0  0  0  0
  2  3  1  0  0  0  0
  2 11  1  0  0  0  0
  3  4  2  0  0  0  0
  5  3  1  1  0  0  0
  5  6  1  0  0  0  0
  5  9  1  0  0  0  0
  6  7  1  0  0  0  0
  7  8  1  0  0  0  0
  8  9  1  0  0  0  0
  9 10  1  0  0  0  0
M  END
>  <CHROM.0>
-57.40615749,-65.05823655,60.01723897,-47.72340223,-178.12247922,-175.51735615
52.67162936,-60.58138261,-168.19052373

>  <CHROM.1>
13.75164226,-80.96839316,3.54351984,15.83447958,4.02673690,0.73689342,0.11243680
-0.09234102

>  <Name>
P128031521

>  <RI>
3.1908e+07

>  <Rbt.Current_Directory>
/home/fstefaniak/projects/zuza/docking/adenine/4XNR

>  <Rbt.Executable>
rbdock ($Id: //depot/dev/client3/rdock/2013.1/src/exe/rbdock.cxx#4 $)

>  <Rbt.Library>
libRbt.so (2013.1, Build901 2013/11/27)

>  <Rbt.Parameter_File>
/home/fstefaniak/progs/rDock//data/scripts/dock_solv.prm

>  <Rbt.Receptor>
4xnr.prm

>  <SCORE>
-40.7104

>  <SCORE.INTER>
-21.8264

>  <SCORE.INTER.CONST>
1

>  <SCORE.INTER.POLAR>
-2.09684

>  <SCORE.INTER.ROT>
2

>  <SCORE.INTER.SOLV>
9.63933

>  <SCORE.INTER.VDW>
-15.7079

>  <SCORE.INTER.norm>
-2.18264

>  <SCORE.INTRA>
-0.0574995

>  <SCORE.INTRA.DIHEDRAL>
-0.202242

>  <SCORE.INTRA.DIHEDRAL.0>
2.0346

>  <SCORE.INTRA.POLAR>
0.0335549

>  <SCORE.INTRA.POLAR.0>
-0.235362

>  <SCORE.INTRA.REPUL>
0

>  <SCORE.INTRA.REPUL.0>
0

>  <SCORE.INTRA.SOLV>
-0.00849343

>  <SCORE.INTRA.SOLV.lig_0>
-10.5026

>  <SCORE.INTRA.VDW>
-0.0662183

>  <SCORE.INTRA.VDW.0>
-0.213033

>  <SCORE.INTRA.norm>
-0.00574995

>  <SCORE.RESTR>
0

>  <SCORE.RESTR.CAVITY>
0

>  <SCORE.RESTR.norm>
0

>  <SCORE.SYSTEM>
-18.8265

>  <SCORE.SYSTEM.CONST>
0

>  <SCORE.SYSTEM.DIHEDRAL>
3.95604

>  <SCORE.SYSTEM.POLAR>
-2.96216

>  <SCORE.SYSTEM.SOLV>
-0.0969655

>  <SCORE.SYSTEM.VDW>
-3.96346

>  <SCORE.SYSTEM.norm>
-1.88265

>  <SCORE.heavy>
10

>  <SCORE.norm>
-4.07104

$$$$
P128031521
 OpenBabel12072022113D
libRbt.so/2013.1/901 2013/11/27
 11 11  0  0  0  0  0  0  0  0999 V2000
    6.3622   17.6527    2.5039 C   0  0  0  0  0  0  0  0  0  0  0  0
    5.6739   16.4363    2.8353 N   0  0  0  0  0  0  0  0  0  0  0  0
    4.6769   16.4082    3.7883 C   0  0  0  0  0  0  0  0  0  0  0  0
    4.6359   17.1657    4.7540 O   0  0  0  0  0  0  0  0  0  0  0  0
    3.5665   15.3876    3.4929 C   0  0  1  0  0  0  0  0  0  0  0  0
    3.9940   13.9781    3.9100 C   0  0  0  0  0  0  0  0  0  0  0  0
    2.9166   13.4983    4.8721 C   0  0  0  0  0  0  0  0  0  0  0  0
    1.7228   14.3727    4.5440 C   0  0  0  0  0  0  0  0  0  0  0  0
    2.3560   15.6729    4.3170 N   0  0  0  0  0  0  0  0  0  0  0  0
    1.4541   16.6127    3.6591 C   0  0  0  0  0  0  0  0  0  0  0  0
    6.1226   15.5350    2.6833 H   0  0  0  0  0  0  0  0  0  0  0  0
  1  2  1  0  0  0  0
  2  3  1  0  0  0  0
  2 11  1  0  0  0  0
  3  4  2  0  0  0  0
  5  3  1  1  0  0  0
  5  6  1  0  0  0  0
  5  9  1  0  0  0  0
  6  7  1  0  0  0  0
  7  8  1  0  0  0  0
  8  9  1  0  0  0  0
  9 10  1  0  0  0  0
M  END
>  <CHROM.0>
-55.40099992,167.25909277,-67.00304308,-46.13090286,-57.07838617,-64.49456373
-67.92248555,-57.27883980,-168.08538886

>  <CHROM.1>
-29.84654152,80.65768192,3.75551653,15.74982536,3.86428394,0.64540050,0.22917190
-0.19017993

>  <Name>
P128031521

>  <RI>
3.1908e+07

>  <Rbt.Current_Directory>
/home/fstefaniak/projects/zuza/docking/adenine/4XNR

>  <Rbt.Executable>
rbdock ($Id: //depot/dev/client3/rdock/2013.1/src/exe/rbdock.cxx#4 $)

>  <Rbt.Library>
libRbt.so (2013.1, Build901 2013/11/27)

>  <Rbt.Parameter_File>
/home/fstefaniak/progs/rDock//data/scripts/dock_solv.prm

>  <Rbt.Receptor>
4xnr.prm

>  <SCORE>
-40.6698

>  <SCORE.INTER>
-20.703

>  <SCORE.INTER.CONST>
1

>  <SCORE.INTER.POLAR>
-2.02912

>  <SCORE.INTER.ROT>
2

>  <SCORE.INTER.SOLV>
10.1483

>  <SCORE.INTER.VDW>
-15.3544

>  <SCORE.INTER.norm>
-2.0703

>  <SCORE.INTRA>
0.0690868

>  <SCORE.INTRA.DIHEDRAL>
-0.41319

>  <SCORE.INTRA.DIHEDRAL.0>
2.0346

>  <SCORE.INTRA.POLAR>
0.235362

>  <SCORE.INTRA.POLAR.0>
-0.235362

>  <SCORE.INTRA.REPUL>
0

>  <SCORE.INTRA.REPUL.0>
0

>  <SCORE.INTRA.SOLV>
-0.658313

>  <SCORE.INTRA.SOLV.lig_0>
-10.5026

>  <SCORE.INTRA.VDW>
-0.195391

>  <SCORE.INTRA.VDW.0>
-0.213033

>  <SCORE.INTRA.norm>
0.00690868

>  <SCORE.RESTR>
0

>  <SCORE.RESTR.CAVITY>
0

>  <SCORE.RESTR.norm>
0

>  <SCORE.SYSTEM>
-20.0358

>  <SCORE.SYSTEM.CONST>
0

>  <SCORE.SYSTEM.DIHEDRAL>
5.16563

>  <SCORE.SYSTEM.POLAR>
-3.03269

>  <SCORE.SYSTEM.SOLV>
0.284636

>  <SCORE.SYSTEM.VDW>
-5.065

>  <SCORE.SYSTEM.norm>
-2.00358

>  <SCORE.heavy>
10

>  <SCORE.norm>
-4.06698

$$$$
P128795404
 OpenBabel12072022113D
libRbt.so/2013.1/901 2013/11/27
 14 14  0  0  0  0  0  0  0  0999 V2000
    0.8536   13.5363    3.2391 C   0  0  0  0  0  0  0  0  0  0  0  0
    1.7760   14.6461    3.4144 N   0  0  0  0  0  0  0  0  0  0  0  0
    1.1582   15.9316    3.7132 C   0  0  0  0  0  0  0  0  0  0  0  0
    3.0914   14.3292    3.7198 C   0  0  0  0  0  0  0  0  0  0  0  0
    3.4145   13.3473    4.3814 O   0  0  0  0  0  0  0  0  0  0  0  0
    4.0217   15.2101    3.2283 N   0  0  0  0  0  0  0  0  0  0  0  0
    4.8822   15.9511    4.1460 C   0  0  0  0  0  0  0  0  0  0  0  0
    5.3705   17.2864    3.5532 C   0  0  1  0  0  0  0  0  0  0  0  0
    6.3242   17.9809    4.4812 C   0  0  0  0  0  0  0  0  0  0  0  0
    6.1603   19.4514    4.7740 C   0  0  0  0  0  0  0  0  0  0  0  0
    5.8750   18.4371    5.8467 C   0  0  0  0  0  0  0  0  0  0  0  0
    6.0692   17.0216    2.3328 O   0  0  0  0  0  0  0  0  0  0  0  0
    4.4822   14.8714    2.3970 H   0  0  0  0  0  0  0  0  0  0  0  0
    6.7924   16.4207    2.5887 H   0  0  0  0  0  0  0  0  0  0  0  0
  1  2  1  0  0  0  0
  2  3  1  0  0  0  0
  2  4  1  0  0  0  0
  4  5  2  0  0  0  0
  4  6  1  0  0  0  0
  6  7  1  0  0  0  0
  6 13  1  0  0  0  0
  8  7  1  1  0  0  0
  8  9  1  0  0  0  0
  8 12  1  0  0  0  0
  9 10  1  0  0  0  0
  9 11  1  0  0  0  0
 10 11  1  0  0  0  0
 12 14  1  0  0  0  0
M  END
>  <CHROM.0>
-63.39501016,-67.56815997,-74.48411348,-49.83724134,-64.58807751,-66.54319865
-172.60841587,-60.31617228,-167.55793938

>  <CHROM.1>
-32.24399992,118.26624690,-153.73714090,-176.22062532,-133.36478558,-58.26001884
4.07156392,16.05499638,3.86945613,2.39714305,-0.25804187,-2.66698104

>  <Name>
P128795404

>  <RI>
4.17015e+07

>  <Rbt.Current_Directory>
/home/fstefaniak/projects/zuza/docking/adenine/4XNR

>  <Rbt.Executable>
rbdock ($Id: //depot/dev/client3/rdock/2013.1/src/exe/rbdock.cxx#4 $)

>  <Rbt.Library>
libRbt.so (2013.1, Build901 2013/11/27)

>  <Rbt.Parameter_File>
/home/fstefaniak/progs/rDock//data/scripts/dock_solv.prm

>  <Rbt.Receptor>
4xnr.prm

>  <SCORE>
-47.8861

>  <SCORE.INTER>
-25.5798

>  <SCORE.INTER.CONST>
1

>  <SCORE.INTER.POLAR>
-2.36005

>  <SCORE.INTER.ROT>
5

>  <SCORE.INTER.SOLV>
11.2293

>  <SCORE.INTER.VDW>
-19.8628

>  <SCORE.INTER.norm>
-2.13165

>  <SCORE.INTRA>
-2.029

>  <SCORE.INTRA.DIHEDRAL>
-1.3917

>  <SCORE.INTRA.DIHEDRAL.0>
5.41875

>  <SCORE.INTRA.POLAR>
0.086074

>  <SCORE.INTRA.POLAR.0>
-0.086074

>  <SCORE.INTRA.REPUL>
0

>  <SCORE.INTRA.REPUL.0>
0

>  <SCORE.INTRA.SOLV>
-0.553826

>  <SCORE.INTRA.SOLV.lig_0>
-15.3866

>  <SCORE.INTRA.VDW>
-1.34889

>  <SCORE.INTRA.VDW.0>
1.71162

>  <SCORE.INTRA.norm>
-0.169083

>  <SCORE.RESTR>
0

>  <SCORE.RESTR.CAVITY>
0

>  <SCORE.RESTR.norm>
0

>  <SCORE.SYSTEM>
-20.2774

>  <SCORE.SYSTEM.CONST>
0

>  <SCORE.SYSTEM.DIHEDRAL>
5.07442

>  <SCORE.SYSTEM.POLAR>
-2.8843

>  <SCORE.SYSTEM.SOLV>
0.187821

>  <SCORE.SYSTEM.VDW>
-5.65798

>  <SCORE.SYSTEM.norm>
-1.68978

>  <SCORE.heavy>
12

>  <SCORE.norm>
-3.99051

$$$$
P128795404
 OpenBabel12072022113D
libRbt.so/2013.1/901 2013/11/27
 14 14  0  0  0  0  0  0  0  0999 V2000
    1.0194   16.4408    3.9018 C   0  0  0  0  0  0  0  0  0  0  0  0
    2.3104   15.7740    3.8566 N   0  0  0  0  0  0  0  0  0  0  0  0
    2.2629   14.3176    3.8699 C   0  0  0  0  0  0  0  0  0  0  0  0
    3.3824   16.5097    3.3734 C   0  0  0  0  0  0  0  0  0  0  0  0
    3.3137   17.2373    2.3874 O   0  0  0  0  0  0  0  0  0  0  0  0
    4.5473   16.3581    4.0827 N   0  0  0  0  0  0  0  0  0  0  0  0
    5.8204   16.7581    3.4904 C   0  0  0  0  0  0  0  0  0  0  0  0
    6.1035   18.2634    3.6540 C   0  0  1  0  0  0  0  0  0  0  0  0
    6.6819   18.5677    5.0052 C   0  0  0  0  0  0  0  0  0  0  0  0
    6.3798   19.8825    5.6797 C   0  0  0  0  0  0  0  0  0  0  0  0
    5.8009   18.6078    6.2286 C   0  0  0  0  0  0  0  0  0  0  0  0
    7.0647   18.6617    2.6717 O   0  0  0  0  0  0  0  0  0  0  0  0
    4.4446   16.5879    5.0597 H   0  0  0  0  0  0  0  0  0  0  0  0
    6.6102   18.5387    1.8185 H   0  0  0  0  0  0  0  0  0  0  0  0
  1  2  1  0  0  0  0
  2  3  1  0  0  0  0
  2  4  1  0  0  0  0
  4  5  2  0  0  0  0
  4  6  1  0  0  0  0
  6  7  1  0  0  0  0
  6 13  1  0  0  0  0
  8  7  1  1  0  0  0
  8  9  1  0  0  0  0
  8 12  1  0  0  0  0
  9 10  1  0  0  0  0
  9 11  1  0  0  0  0
 10 11  1  0  0  0  0
 12 14  1  0  0  0  0
M  END
>  <CHROM.0>
-56.42048145,63.81388104,60.12044335,52.54549265,-59.17263526,-174.63287378
54.37144708,-57.30869448,-168.44570600

>  <CHROM.1>
-42.65811953,162.82739714,83.56718444,82.37921220,-147.53816516,65.24119797
4.54151172,17.27394488,3.97828728,2.77124251,-0.53862051,-1.92771348

>  <Name>
P128795404

>  <RI>
4.17015e+07

>  <Rbt.Current_Directory>
/home/fstefaniak/projects/zuza/docking/adenine/4XNR

>  <Rbt.Executable>
rbdock ($Id: //depot/dev/client3/rdock/2013.1/src/exe/rbdock.cxx#4 $)

>  <Rbt.Library>
libRbt.so (2013.1, Build901 2013/11/27)

>  <Rbt.Parameter_File>
/home/fstefaniak/progs/rDock//data/scripts/dock_solv.prm

>  <Rbt.Receptor>
4xnr.prm

>  <SCORE>
-47.0131

>  <SCORE.INTER>
-30.7776

>  <SCORE.INTER.CONST>
1

>  <SCORE.INTER.POLAR>
-3.39525

>  <SCORE.INTER.ROT>
5

>  <SCORE.INTER.SOLV>
12.6624

>  <SCORE.INTER.VDW>
-20.355

>  <SCORE.INTER.norm>
-2.5648

>  <SCORE.INTRA>
-1.68739

>  <SCORE.INTRA.DIHEDRAL>
0.601514

>  <SCORE.INTRA.DIHEDRAL.0>
5.41875

>  <SCORE.INTRA.POLAR>
0.086074

>  <SCORE.INTRA.POLAR.0>
-0.086074

>  <SCORE.INTRA.REPUL>
0

>  <SCORE.INTRA.REPUL.0>
0

>  <SCORE.INTRA.SOLV>
-0.353117

>  <SCORE.INTRA.SOLV.lig_0>
-15.3866

>  <SCORE.INTRA.VDW>
-2.10424

>  <SCORE.INTRA.VDW.0>
1.71162

>  <SCORE.INTRA.norm>
-0.140616

>  <SCORE.RESTR>
0

>  <SCORE.RESTR.CAVITY>
0

>  <SCORE.RESTR.norm>
0

>  <SCORE.SYSTEM>
-14.5481

>  <SCORE.SYSTEM.CONST>
0

>  <SCORE.SYSTEM.DIHEDRAL>
3.42829

>  <SCORE.SYSTEM.POLAR>
-2.42751

>  <SCORE.SYSTEM.SOLV>
0.0895641

>  <SCORE.SYSTEM.VDW>
-2.77966

>  <SCORE.SYSTEM.norm>
-1.21234

>  <SCORE.heavy>
12

>  <SCORE.norm>
-3.91775

$$$$
P128795404
 OpenBabel12072022113D
libRbt.so/2013.1/901 2013/11/27
 14 14  0  0  0  0  0  0  0  0999 V2000
    2.8271   12.3522    2.7703 C   0  0  0  0  0  0  0  0  0  0  0  0
    1.9594   13.5094    2.9162 N   0  0  0  0  0  0  0  0  0  0  0  0
    0.5444   13.2654    2.6676 C   0  0  0  0  0  0  0  0  0  0  0  0
    2.4418   14.5666    3.6736 C   0  0  0  0  0  0  0  0  0  0  0  0
    1.9127   14.9513    4.7120 O   0  0  0  0  0  0  0  0  0  0  0  0
    3.5669   15.1674    3.1675 N   0  0  0  0  0  0  0  0  0  0  0  0
    4.5425   15.7698    4.0713 C   0  0  0  0  0  0  0  0  0  0  0  0
    4.9266   17.2034    3.6589 C   0  0  1  0  0  0  0  0  0  0  0  0
    5.9620   17.7792    4.5805 C   0  0  0  0  0  0  0  0  0  0  0  0
    7.2089   18.4136    4.0168 C   0  0  0  0  0  0  0  0  0  0  0  0
    6.1638   19.2707    4.6758 C   0  0  0  0  0  0  0  0  0  0  0  0
    5.4883   17.1703    2.3432 O   0  0  0  0  0  0  0  0  0  0  0  0
    3.9657   14.6624    2.3904 H   0  0  0  0  0  0  0  0  0  0  0  0
    4.7202   17.0831    1.7498 H   0  0  0  0  0  0  0  0  0  0  0  0
  1  2  1  0  0  0  0
  2  3  1  0  0  0  0
  2  4  1  0  0  0  0
  4  5  2  0  0  0  0
  4  6  1  0  0  0  0
  6  7  1  0  0  0  0
  6 13  1  0  0  0  0
  8  7  1  1  0  0  0
  8  9  1  0  0  0  0
  8 12  1  0  0  0  0
  9 10  1  0  0  0  0
  9 11  1  0  0  0  0
 10 11  1  0  0  0  0
 12 14  1  0  0  0  0
M  END
>  <CHROM.0>
-64.65194210,56.63666868,-74.24066753,-48.67280257,-53.67249891,-62.57234088
-168.80787037,-59.59779139,-168.32652745

>  <CHROM.1>
-117.35048464,-149.22775042,-130.41455203,-178.19432843,129.71863857,77.49845619
3.93457091,15.75207772,3.56767134,-2.47247912,0.53920259,0.76547333

>  <Name>
P128795404

>  <RI>
4.17015e+07

>  <Rbt.Current_Directory>
/home/fstefaniak/projects/zuza/docking/adenine/4XNR

>  <Rbt.Executable>
rbdock ($Id: //depot/dev/client3/rdock/2013.1/src/exe/rbdock.cxx#4 $)

>  <Rbt.Library>
libRbt.so (2013.1, Build901 2013/11/27)

>  <Rbt.Parameter_File>
/home/fstefaniak/progs/rDock//data/scripts/dock_solv.prm

>  <Rbt.Receptor>
4xnr.prm

>  <SCORE>
-46.6636

>  <SCORE.INTER>
-27.2552

>  <SCORE.INTER.CONST>
1

>  <SCORE.INTER.POLAR>
-3.67089

>  <SCORE.INTER.ROT>
5

>  <SCORE.INTER.SOLV>
10.4917

>  <SCORE.INTER.VDW>
-16.3644

>  <SCORE.INTER.norm>
-2.27127

>  <SCORE.INTRA>
-0.189689

>  <SCORE.INTRA.DIHEDRAL>
1.1189

>  <SCORE.INTRA.DIHEDRAL.0>
5.41875

>  <SCORE.INTRA.POLAR>
0.086074

>  <SCORE.INTRA.POLAR.0>
-0.086074

>  <SCORE.INTRA.REPUL>
0

>  <SCORE.INTRA.REPUL.0>
0

>  <SCORE.INTRA.SOLV>
-0.176781

>  <SCORE.INTRA.SOLV.lig_0>
-15.3866

>  <SCORE.INTRA.VDW>
-0.953402

>  <SCORE.INTRA.VDW.0>
1.71162

>  <SCORE.INTRA.norm>
-0.0158074

>  <SCORE.RESTR>
0.113476

>  <SCORE.RESTR.CAVITY>
0.113476

>  <SCORE.RESTR.norm>
0.00945634

>  <SCORE.SYSTEM>
-19.3322

>  <SCORE.SYSTEM.CONST>
0

>  <SCORE.SYSTEM.DIHEDRAL>
5.14094

>  <SCORE.SYSTEM.POLAR>
-2.91344

>  <SCORE.SYSTEM.SOLV>
0.307343

>  <SCORE.SYSTEM.VDW>
-4.99277

>  <SCORE.SYSTEM.norm>
-1.61102

>  <SCORE.heavy>
12

>  <SCORE.norm>
-3.88864

$$$$
P128856802
 OpenBabel12072022113D
libRbt.so/2013.1/901 2013/11/27
 15 16  0  0  0  0  0  0  0  0999 V2000
   -0.7994   12.4658    3.3921 C   0  0  0  0  0  0  0  0  0  0  0  0
   -0.6277   12.0216    2.1371 C   0  0  0  0  0  0  0  0  0  0  0  0
    0.5991   12.4731    1.7068 N   0  0  0  0  0  0  0  0  0  0  0  0
    0.9757   12.3074    0.7887 H   0  0  0  0  0  0  0  0  0  0  0  0
    1.2366   13.2292    2.6817 C   0  0  0  0  0  0  0  0  0  0  0  0
    2.3835   13.7932    2.5581 N   0  0  0  0  0  0  0  0  0  0  0  0
    2.8558   14.5057    3.6239 C   0  0  0  0  0  0  0  0  0  0  0  0
    2.2875   14.6777    4.6984 O   0  0  0  0  0  0  0  0  0  0  0  0
    4.0899   15.0208    3.3331 N   0  0  0  0  0  0  0  0  0  0  0  0
    4.8577   15.8157    4.2285 C   0  0  0  0  0  0  0  0  0  0  0  0
    5.8193   16.8483    3.7065 C   0  0  0  0  0  0  0  0  0  0  0  0
    4.5588   17.2797    4.3962 C   0  0  0  0  0  0  0  0  0  0  0  0
    0.3218   13.1860    3.7236 N   0  0  0  0  0  0  0  0  0  0  0  0
    0.4734   13.6671    4.6020 H   0  0  0  0  0  0  0  0  0  0  0  0
    4.4345   14.7898    2.4131 H   0  0  0  0  0  0  0  0  0  0  0  0
  1  2  2  0  0  0  0
  1 13  1  0  0  0  0
  2  3  1  0  0  0  0
  3  4  1  0  0  0  0
  3  5  1  0  0  0  0
  5  6  2  0  0  0  0
  5 13  1  0  0  0  0
  6  7  1  0  0  0  0
  7  8  2  0  0  0  0
  7  9  1  0  0  0  0
  9 10  1  0  0  0  0
  9 15  1  0  0  0  0
 10 11  1  0  0  0  0
 10 12  1  0  0  0  0
 11 12  1  0  0  0  0
 13 14  1  0  0  0  0
M  END
>  <CHROM.0>
-56.77934750,53.98958292,-64.88191741,-46.70371984,-54.57829904,-59.72601176
-70.06678646,-61.36204251,-168.21386901

>  <CHROM.1>
-0.75330703,-150.92193158,2.31966802,14.29420606,3.35800378,2.63779047,-0.50034454
-2.08566558

>  <Name>
P128856802

>  <RI>
3.02409e+07

>  <Rbt.Current_Directory>
/home/fstefaniak/projects/zuza/docking/adenine/4XNR

>  <Rbt.Executable>
rbdock ($Id: //depot/dev/client3/rdock/2013.1/src/exe/rbdock.cxx#4 $)

>  <Rbt.Library>
libRbt.so (2013.1, Build901 2013/11/27)

>  <Rbt.Parameter_File>
/home/fstefaniak/progs/rDock//data/scripts/dock_solv.prm

>  <Rbt.Receptor>
4xnr.prm

>  <SCORE>
-45.7356

>  <SCORE.INTER>
-26.1055

>  <SCORE.INTER.CONST>
1

>  <SCORE.INTER.POLAR>
-3.74773

>  <SCORE.INTER.ROT>
2

>  <SCORE.INTER.SOLV>
10.393

>  <SCORE.INTER.VDW>
-13.3089

>  <SCORE.INTER.norm>
-2.17546

>  <SCORE.INTRA>
-0.00561916

>  <SCORE.INTRA.DIHEDRAL>
-0.00597256

>  <SCORE.INTRA.DIHEDRAL.0>
1.21774

>  <SCORE.INTRA.POLAR>
-2.78899e-05

>  <SCORE.INTRA.POLAR.0>
-0.0396864

>  <SCORE.INTRA.REPUL>
0

>  <SCORE.INTRA.REPUL.0>
0

>  <SCORE.INTRA.SOLV>
0.0671795

>  <SCORE.INTRA.SOLV.lig_0>
-23.5423

>  <SCORE.INTRA.VDW>
-0.0361278

>  <SCORE.INTRA.VDW.0>
-0.39223

>  <SCORE.INTRA.norm>
-0.000468263

>  <SCORE.RESTR>
0.370391

>  <SCORE.RESTR.CAVITY>
0.370391

>  <SCORE.RESTR.norm>
0.0308659

>  <SCORE.SYSTEM>
-19.9949

>  <SCORE.SYSTEM.CONST>
0

>  <SCORE.SYSTEM.DIHEDRAL>
4.48762

>  <SCORE.SYSTEM.POLAR>
-3.03167

>  <SCORE.SYSTEM.SOLV>
0.389676

>  <SCORE.SYSTEM.VDW>
-4.85014

>  <SCORE.SYSTEM.norm>
-1.66624

>  <SCORE.heavy>
12

>  <SCORE.norm>
-3.8113

$$$$
P128856802
 OpenBabel12072022113D
libRbt.so/2013.1/901 2013/11/27
 15 16  0  0  0  0  0  0  0  0999 V2000
    6.6179   19.6956    4.1114 C   0  0  0  0  0  0  0  0  0  0  0  0
    6.5945   19.7904    5.4502 C   0  0  0  0  0  0  0  0  0  0  0  0
    6.0242   18.6347    5.9331 N   0  0  0  0  0  0  0  0  0  0  0  0
    5.8587   18.4466    6.9075 H   0  0  0  0  0  0  0  0  0  0  0  0
    5.6597   17.7758    4.9046 C   0  0  0  0  0  0  0  0  0  0  0  0
    5.0913   16.6337    5.0515 N   0  0  0  0  0  0  0  0  0  0  0  0
    4.7990   15.9231    3.9219 C   0  0  0  0  0  0  0  0  0  0  0  0
    5.2186   16.1443    2.7895 O   0  0  0  0  0  0  0  0  0  0  0  0
    3.9497   14.8932    4.2230 N   0  0  0  0  0  0  0  0  0  0  0  0
    3.4483   13.9634    3.2706 C   0  0  0  0  0  0  0  0  0  0  0  0
    3.2964   12.5090    3.6241 C   0  0  0  0  0  0  0  0  0  0  0  0
    2.0788   13.3653    3.4368 C   0  0  0  0  0  0  0  0  0  0  0  0
    6.0627   18.4836    3.7817 N   0  0  0  0  0  0  0  0  0  0  0  0
    5.9204   18.1386    2.8401 H   0  0  0  0  0  0  0  0  0  0  0  0
    3.6959   14.8304    5.1978 H   0  0  0  0  0  0  0  0  0  0  0  0
  1  2  2  0  0  0  0
  1 13  1  0  0  0  0
  2  3  1  0  0  0  0
  3  4  1  0  0  0  0
  3  5  1  0  0  0  0
  5  6  2  0  0  0  0
  5 13  1  0  0  0  0
  6  7  1  0  0  0  0
  7  8  2  0  0  0  0
  7  9  1  0  0  0  0
  9 10  1  0  0  0  0
  9 15  1  0  0  0  0
 10 11  1  0  0  0  0
 10 12  1  0  0  0  0
 11 12  1  0  0  0  0
 13 14  1  0  0  0  0
M  END
>  <CHROM.0>
-59.19677221,179.80011919,-65.76445798,-45.79915385,-59.65578899,-63.15934144
-71.01441437,-60.07462689,-168.28773651

>  <CHROM.1>
13.36093835,141.29406735,4.89187490,16.45878667,4.19894286,-0.41636095,-1.01178394
-1.81018813

>  <Name>
P128856802

>  <RI>
3.02409e+07

>  <Rbt.Current_Directory>
/home/fstefaniak/projects/zuza/docking/adenine/4XNR

>  <Rbt.Executable>
rbdock ($Id: //depot/dev/client3/rdock/2013.1/src/exe/rbdock.cxx#4 $)

>  <Rbt.Library>
libRbt.so (2013.1, Build901 2013/11/27)

>  <Rbt.Parameter_File>
/home/fstefaniak/progs/rDock//data/scripts/dock_solv.prm

>  <Rbt.Receptor>
4xnr.prm

>  <SCORE>
-42.7999

>  <SCORE.INTER>
-23.3861

>  <SCORE.INTER.CONST>
1

>  <SCORE.INTER.POLAR>
-2.40265

>  <SCORE.INTER.ROT>
2

>  <SCORE.INTER.SOLV>
13.8686

>  <SCORE.INTER.VDW>
-17.1381

>  <SCORE.INTER.norm>
-1.94884

>  <SCORE.INTRA>
1.28157

>  <SCORE.INTRA.DIHEDRAL>
2.52014

>  <SCORE.INTRA.DIHEDRAL.0>
1.21774

>  <SCORE.INTRA.POLAR>
0.0242527

>  <SCORE.INTRA.POLAR.0>
-0.0396864

>  <SCORE.INTRA.REPUL>
0

>  <SCORE.INTRA.REPUL.0>
0

>  <SCORE.INTRA.SOLV>
-0.0427554

>  <SCORE.INTRA.SOLV.lig_0>
-23.5423

>  <SCORE.INTRA.VDW>
-0.0395864

>  <SCORE.INTRA.VDW.0>
-0.39223

>  <SCORE.INTRA.norm>
0.106797

>  <SCORE.RESTR>
0

>  <SCORE.RESTR.CAVITY>
0

>  <SCORE.RESTR.norm>
0

>  <SCORE.SYSTEM>
-20.6953

>  <SCORE.SYSTEM.CONST>
0

>  <SCORE.SYSTEM.DIHEDRAL>
4.4068

>  <SCORE.SYSTEM.POLAR>
-2.99678

>  <SCORE.SYSTEM.SOLV>
0.255896

>  <SCORE.SYSTEM.VDW>
-5.36187

>  <SCORE.SYSTEM.norm>
-1.72461

>  <SCORE.heavy>
12

>  <SCORE.norm>
-3.56666

$$$$
P128856802
 OpenBabel12072022113D
libRbt.so/2013.1/901 2013/11/27
 15 16  0  0  0  0  0  0  0  0999 V2000
    6.6405   19.6509    4.0739 C   0  0  0  0  0  0  0  0  0  0  0  0
    6.6904   19.7129    5.4139 C   0  0  0  0  0  0  0  0  0  0  0  0
    6.1406   18.5481    5.8988 N   0  0  0  0  0  0  0  0  0  0  0  0
    6.0271   18.3369    6.8759 H   0  0  0  0  0  0  0  0  0  0  0  0
    5.7157   17.7165    4.8711 C   0  0  0  0  0  0  0  0  0  0  0  0
    5.1496   16.5737    5.0208 N   0  0  0  0  0  0  0  0  0  0  0  0
    4.7922   15.8924    3.8918 C   0  0  0  0  0  0  0  0  0  0  0  0
    5.1362   16.1508    2.7419 O   0  0  0  0  0  0  0  0  0  0  0  0
    3.9737   14.8447    4.2161 N   0  0  0  0  0  0  0  0  0  0  0  0
    3.4212   13.9369    3.2708 C   0  0  0  0  0  0  0  0  0  0  0  0
    3.2200   12.4885    3.6244 C   0  0  0  0  0  0  0  0  0  0  0  0
    2.0330   13.3910    3.4593 C   0  0  0  0  0  0  0  0  0  0  0  0
    6.0612   18.4500    3.7455 N   0  0  0  0  0  0  0  0  0  0  0  0
    5.8660   18.1289    2.8049 H   0  0  0  0  0  0  0  0  0  0  0  0
    3.7836   14.7512    5.2029 H   0  0  0  0  0  0  0  0  0  0  0  0
  1  2  2  0  0  0  0
  1 13  1  0  0  0  0
  2  3  1  0  0  0  0
  3  4  1  0  0  0  0
  3  5  1  0  0  0  0
  5  6  2  0  0  0  0
  5 13  1  0  0  0  0
  6  7  1  0  0  0  0
  7  8  2  0  0  0  0
  7  9  1  0  0  0  0
  9 10  1  0  0  0  0
  9 15  1  0  0  0  0
 10 11  1  0  0  0  0
 10 12  1  0  0  0  0
 11 12  1  0  0  0  0
 13 14  1  0  0  0  0
M  END
>  <CHROM.0>
-54.85421906,-176.76611947,-65.67029732,-45.98752600,-175.58539058,-65.78441987
-68.43666841,-57.45722583,-167.87708190

>  <CHROM.1>
12.28232566,145.46113492,4.90219406,16.42122554,4.17643392,-0.29147850,-1.02031266
-1.67269645

>  <Name>
P128856802

>  <RI>
3.02409e+07

>  <Rbt.Current_Directory>
/home/fstefaniak/projects/zuza/docking/adenine/4XNR

>  <Rbt.Executable>
rbdock ($Id: //depot/dev/client3/rdock/2013.1/src/exe/rbdock.cxx#4 $)

>  <Rbt.Library>
libRbt.so (2013.1, Build901 2013/11/27)

>  <Rbt.Parameter_File>
/home/fstefaniak/progs/rDock//data/scripts/dock_solv.prm

>  <Rbt.Receptor>
4xnr.prm

>  <SCORE>
-42.7698

>  <SCORE.INTER>
-23.0994

>  <SCORE.INTER.CONST>
1

>  <SCORE.INTER.POLAR>
-2.32745

>  <SCORE.INTER.ROT>
2

>  <SCORE.INTER.SOLV>
13.5822

>  <SCORE.INTER.VDW>
-17.1021

>  <SCORE.INTER.norm>
-1.92495

>  <SCORE.INTRA>
1.08455

>  <SCORE.INTRA.DIHEDRAL>
2.13076

>  <SCORE.INTRA.DIHEDRAL.0>
1.21774

>  <SCORE.INTRA.POLAR>
0.0206972

>  <SCORE.INTRA.POLAR.0>
-0.0396864

>  <SCORE.INTRA.REPUL>
0

>  <SCORE.INTRA.REPUL.0>
0

>  <SCORE.INTRA.SOLV>
-0.042561

>  <SCORE.INTRA.SOLV.lig_0>
-23.5423

>  <SCORE.INTRA.VDW>
-0.0299207

>  <SCORE.INTRA.VDW.0>
-0.39223

>  <SCORE.INTRA.norm>
0.0903789

>  <SCORE.RESTR>
0

>  <SCORE.RESTR.CAVITY>
0

>  <SCORE.RESTR.norm>
0

>  <SCORE.SYSTEM>
-20.755

>  <SCORE.SYSTEM.CONST>
0

>  <SCORE.SYSTEM.DIHEDRAL>
4.59068

>  <SCORE.SYSTEM.POLAR>
-3.03627

>  <SCORE.SYSTEM.SOLV>
0.0894636

>  <SCORE.SYSTEM.VDW>
-5.27582

>  <SCORE.SYSTEM.norm>
-1.72958

>  <SCORE.heavy>
12

>  <SCORE.norm>
-3.56415

$$$$
P128880369
 OpenBabel12072022113D
libRbt.so/2013.1/901 2013/11/27
 17 17  0  0  0  0  0  0  0  0999 V2000
    0.1349   13.3114    2.7395 C   0  0  0  0  0  0  0  0  0  0  0  0
    1.5964   13.5245    3.1390 C   0  0  2  0  0  0  0  0  0  0  0  0
    1.9826   12.5753    4.2772 C   0  0  0  0  0  0  0  0  0  0  0  0
    3.4425   12.7761    4.6538 C   0  0  0  0  0  0  0  0  0  0  0  0
    3.7787   14.2448    4.9162 C   0  0  0  0  0  0  0  0  0  0  0  0
    3.3928   15.1081    3.7859 N   0  0  0  0  0  0  0  0  0  0  0  0
    1.9308   15.0010    3.4920 C   0  0  2  0  0  0  0  0  0  0  0  0
    1.0108   15.5857    4.5797 C   0  0  0  0  0  0  0  0  0  0  0  0
    3.8580   16.5195    3.9636 C   0  0  1  0  0  0  0  0  0  0  0  0
    5.2400   16.6309    4.6253 C   0  0  0  0  0  0  0  0  0  0  0  0
    3.9716   17.2213    2.5943 C   0  0  0  0  0  0  0  0  0  0  0  0
    4.8757   16.9887    1.7926 O   0  0  0  0  0  0  0  0  0  0  0  0
    2.9295   18.1091    2.3356 N   0  0  0  0  0  0  0  0  0  0  0  0
    2.6204   18.4495    0.9995 N   0  0  0  0  0  0  0  0  0  0  0  0
    2.6942   18.7602    3.0878 H   0  0  0  0  0  0  0  0  0  0  0  0
    3.3994   19.0151    0.6476 H   0  0  0  0  0  0  0  0  0  0  0  0
    1.8430   19.1210    1.0331 H   0  0  0  0  0  0  0  0  0  0  0  0
  2  3  1  0  0  0  0
  2  7  1  0  0  0  0
  2  1  1  1  0  0  0
  3  4  1  0  0  0  0
  4  5  1  0  0  0  0
  5  6  1  0  0  0  0
  6  7  1  0  0  0  0
  6  9  1  0  0  0  0
  7  8  1  1  0  0  0
  9 10  1  6  0  0  0
  9 11  1  0  0  0  0
 11 12  2  0  0  0  0
 11 13  1  0  0  0  0
 13 14  1  0  0  0  0
 13 15  1  0  0  0  0
 14 16  1  0  0  0  0
 14 17  1  0  0  0  0
M  END
>  <CHROM.0>
-56.44668531,-67.90448747,-68.88140656,-47.08711290,-176.66716281,-59.52684974
-69.07731938,-61.32195582,-167.30481395

>  <CHROM.1>
37.25590887,-73.99575024,-157.27786682,-69.12506044,2.91135593,15.48467145
3.39261579,1.99200903,0.43177312,2.57900052

>  <Name>
P128880369

>  <RI>
1.34432e+07

>  <Rbt.Current_Directory>
/home/fstefaniak/projects/zuza/docking/adenine/4XNR

>  <Rbt.Executable>
rbdock ($Id: //depot/dev/client3/rdock/2013.1/src/exe/rbdock.cxx#4 $)

>  <Rbt.Library>
libRbt.so (2013.1, Build901 2013/11/27)

>  <Rbt.Parameter_File>
/home/fstefaniak/progs/rDock//data/scripts/dock_solv.prm

>  <Rbt.Receptor>
4xnr.prm

>  <SCORE>
-36.5212

>  <SCORE.INTER>
-18.077

>  <SCORE.INTER.CONST>
1

>  <SCORE.INTER.POLAR>
-4.16415

>  <SCORE.INTER.ROT>
4

>  <SCORE.INTER.SOLV>
13.522

>  <SCORE.INTER.VDW>
-8.94487

>  <SCORE.INTER.norm>
-1.29122

>  <SCORE.INTRA>
2.38545

>  <SCORE.INTRA.DIHEDRAL>
1.20705

>  <SCORE.INTRA.DIHEDRAL.0>
2.56235

>  <SCORE.INTRA.POLAR>
0.0289466

>  <SCORE.INTRA.POLAR.0>
-0.0289466

>  <SCORE.INTRA.REPUL>
0

>  <SCORE.INTRA.REPUL.0>
0

>  <SCORE.INTRA.SOLV>
-0.772636

>  <SCORE.INTRA.SOLV.lig_0>
-14.3357

>  <SCORE.INTRA.VDW>
2.06982

>  <SCORE.INTRA.VDW.0>
0.386712

>  <SCORE.INTRA.norm>
0.170389

>  <SCORE.RESTR>
0

>  <SCORE.RESTR.CAVITY>
0

>  <SCORE.RESTR.norm>
0

>  <SCORE.SYSTEM>
-20.8296

>  <SCORE.SYSTEM.CONST>
0

>  <SCORE.SYSTEM.DIHEDRAL>
4.75185

>  <SCORE.SYSTEM.POLAR>
-2.99471

>  <SCORE.SYSTEM.SOLV>
0.103344

>  <SCORE.SYSTEM.VDW>
-5.52242

>  <SCORE.SYSTEM.norm>
-1.48783

>  <SCORE.heavy>
14

>  <SCORE.norm>
-2.60866

$$$$
P128880369
 OpenBabel12072022113D
libRbt.so/2013.1/901 2013/11/27
 17 17  0  0  0  0  0  0  0  0999 V2000
    0.0966   13.2478    2.7180 C   0  0  0  0  0  0  0  0  0  0  0  0
    1.5448   13.4296    3.1771 C   0  0  2  0  0  0  0  0  0  0  0  0
    1.8534   12.4968    4.3520 C   0  0  0  0  0  0  0  0  0  0  0  0
    3.3006   12.6656    4.7884 C   0  0  0  0  0  0  0  0  0  0  0  0
    3.6672   14.1302    5.0330 C   0  0  0  0  0  0  0  0  0  0  0  0
    3.3561   14.9772    3.8679 N   0  0  0  0  0  0  0  0  0  0  0  0
    1.9059   14.9040    3.5119 C   0  0  2  0  0  0  0  0  0  0  0  0
    0.9564   15.5392    4.5446 C   0  0  0  0  0  0  0  0  0  0  0  0
    3.8535   16.3790    4.0348 C   0  0  1  0  0  0  0  0  0  0  0  0
    5.2101   16.4670    4.7504 C   0  0  0  0  0  0  0  0  0  0  0  0
    4.0425   17.0468    2.6569 C   0  0  0  0  0  0  0  0  0  0  0  0
    4.9553   16.7516    1.8862 O   0  0  0  0  0  0  0  0  0  0  0  0
    3.0563   17.9824    2.3517 N   0  0  0  0  0  0  0  0  0  0  0  0
    2.7836   18.2909    1.0000 N   0  0  0  0  0  0  0  0  0  0  0  0
    2.8495   18.6728    3.0768 H   0  0  0  0  0  0  0  0  0  0  0  0
    3.5457   18.8925    0.6714 H   0  0  0  0  0  0  0  0  0  0  0  0
    1.9718   18.9211    0.9940 H   0  0  0  0  0  0  0  0  0  0  0  0
  2  3  1  0  0  0  0
  2  7  1  0  0  0  0
  2  1  1  1  0  0  0
  3  4  1  0  0  0  0
  4  5  1  0  0  0  0
  5  6  1  0  0  0  0
  6  7  1  0  0  0  0
  6  9  1  0  0  0  0
  7  8  1  1  0  0  0
  9 10  1  6  0  0  0
  9 11  1  0  0  0  0
 11 12  2  0  0  0  0
 11 13  1  0  0  0  0
 13 14  1  0  0  0  0
 13 15  1  0  0  0  0
 14 16  1  0  0  0  0
 14 17  1  0  0  0  0
M  END
>  <CHROM.0>
-62.18715278,-73.50764534,-69.80895500,-46.14007287,-177.18952175,-176.73832234
-169.39966403,-52.67648272,-166.71258978

>  <CHROM.1>
37.44452803,-72.42025969,-155.92823171,-75.70830677,2.90054755,15.36006067
3.44725307,2.04067649,0.45135372,2.53905792

>  <Name>
P128880369

>  <RI>
1.34432e+07

>  <Rbt.Current_Directory>
/home/fstefaniak/projects/zuza/docking/adenine/4XNR

>  <Rbt.Executable>
rbdock ($Id: //depot/dev/client3/rdock/2013.1/src/exe/rbdock.cxx#4 $)

>  <Rbt.Library>
libRbt.so (2013.1, Build901 2013/11/27)

>  <Rbt.Parameter_File>
/home/fstefaniak/progs/rDock//data/scripts/dock_solv.prm

>  <Rbt.Receptor>
4xnr.prm

>  <SCORE>
-36.0322

>  <SCORE.INTER>
-18.6939

>  <SCORE.INTER.CONST>
1

>  <SCORE.INTER.POLAR>
-4.23935

>  <SCORE.INTER.ROT>
4

>  <SCORE.INTER.SOLV>
13.5328

>  <SCORE.INTER.VDW>
-9.10906

>  <SCORE.INTER.norm>
-1.33528

>  <SCORE.INTRA>
2.2652

>  <SCORE.INTRA.DIHEDRAL>
1.14955

>  <SCORE.INTRA.DIHEDRAL.0>
2.56235

>  <SCORE.INTRA.POLAR>
0.0289466

>  <SCORE.INTRA.POLAR.0>
-0.0289466

>  <SCORE.INTRA.REPUL>
0

>  <SCORE.INTRA.REPUL.0>
0

>  <SCORE.INTRA.SOLV>
-0.792085

>  <SCORE.INTRA.SOLV.lig_0>
-14.3357

>  <SCORE.INTRA.VDW>
1.98805

>  <SCORE.INTRA.VDW.0>
0.386712

>  <SCORE.INTRA.norm>
0.1618

>  <SCORE.RESTR>
0

>  <SCORE.RESTR.CAVITY>
0

>  <SCORE.RESTR.norm>
0

>  <SCORE.SYSTEM>
-19.6035

>  <SCORE.SYSTEM.CONST>
0

>  <SCORE.SYSTEM.DIHEDRAL>
5.91114

>  <SCORE.SYSTEM.POLAR>
-2.98995

>  <SCORE.SYSTEM.SOLV>
-0.0532277

>  <SCORE.SYSTEM.VDW>
-5.05512

>  <SCORE.SYSTEM.norm>
-1.40025

>  <SCORE.heavy>
14

>  <SCORE.norm>
-2.57373

$$$$
P128880369
 OpenBabel12072022113D
libRbt.so/2013.1/901 2013/11/27
 17 17  0  0  0  0  0  0  0  0999 V2000
    0.1219   13.1962    2.6314 C   0  0  0  0  0  0  0  0  0  0  0  0
    1.5663   13.3858    3.0991 C   0  0  2  0  0  0  0  0  0  0  0  0
    1.8823   12.4331    4.2559 C   0  0  0  0  0  0  0  0  0  0  0  0
    3.3261   12.6103    4.7005 C   0  0  0  0  0  0  0  0  0  0  0  0
    3.6742   14.0738    4.9761 C   0  0  0  0  0  0  0  0  0  0  0  0
    3.3567   14.9406    3.8273 N   0  0  0  0  0  0  0  0  0  0  0  0
    1.9086   14.8574    3.4650 C   0  0  2  0  0  0  0  0  0  0  0  0
    0.9483   15.4601    4.5071 C   0  0  0  0  0  0  0  0  0  0  0  0
    3.8367   16.3445    4.0244 C   0  0  1  0  0  0  0  0  0  0  0  0
    5.1853   16.4346    4.7548 C   0  0  0  0  0  0  0  0  0  0  0  0
    4.0315   17.0392    2.6607 C   0  0  0  0  0  0  0  0  0  0  0  0
    4.9472   16.7586    1.8879 O   0  0  0  0  0  0  0  0  0  0  0  0
    3.0472   17.9814    2.3702 N   0  0  0  0  0  0  0  0  0  0  0  0
    2.7623   18.2979    1.0229 N   0  0  0  0  0  0  0  0  0  0  0  0
    2.8514   18.6693    3.1007 H   0  0  0  0  0  0  0  0  0  0  0  0
    3.5265   18.8933    0.6880 H   0  0  0  0  0  0  0  0  0  0  0  0
    1.9567   18.9362    1.0285 H   0  0  0  0  0  0  0  0  0  0  0  0
  2  3  1  0  0  0  0
  2  7  1  0  0  0  0
  2  1  1  1  0  0  0
  3  4  1  0  0  0  0
  4  5  1  0  0  0  0
  5  6  1  0  0  0  0
  6  7  1  0  0  0  0
  6  9  1  0  0  0  0
  7  8  1  1  0  0  0
  9 10  1  6  0  0  0
  9 11  1  0  0  0  0
 11 12  2  0  0  0  0
 11 13  1  0  0  0  0
 13 14  1  0  0  0  0
 13 15  1  0  0  0  0
 14 16  1  0  0  0  0
 14 17  1  0  0  0  0
M  END
>  <CHROM.0>
-64.95115300,-66.83022607,-72.18343756,-47.63844226,179.79044164,58.91104006
-173.99676867,-56.36817292,-167.67345356

>  <CHROM.1>
37.05011297,-71.65782352,-154.72717260,-75.42775495,2.90120359,15.32527101
3.41322587,2.03448716,0.46218452,2.56126369

>  <Name>
P128880369

>  <RI>
1.34432e+07

>  <Rbt.Current_Directory>
/home/fstefaniak/projects/zuza/docking/adenine/4XNR

>  <Rbt.Executable>
rbdock ($Id: //depot/dev/client3/rdock/2013.1/src/exe/rbdock.cxx#4 $)

>  <Rbt.Library>
libRbt.so (2013.1, Build901 2013/11/27)

>  <Rbt.Parameter_File>
/home/fstefaniak/progs/rDock//data/scripts/dock_solv.prm

>  <Rbt.Receptor>
4xnr.prm

>  <SCORE>
-35.1961

>  <SCORE.INTER>
-18.3555

>  <SCORE.INTER.CONST>
1

>  <SCORE.INTER.POLAR>
-4.21287

>  <SCORE.INTER.ROT>
4

>  <SCORE.INTER.SOLV>
13.4263

>  <SCORE.INTER.VDW>
-8.93621

>  <SCORE.INTER.norm>
-1.31111

>  <SCORE.INTRA>
2.3123

>  <SCORE.INTRA.DIHEDRAL>
1.18655

>  <SCORE.INTRA.DIHEDRAL.0>
2.56235

>  <SCORE.INTRA.POLAR>
0.0289466

>  <SCORE.INTRA.POLAR.0>
-0.0289466

>  <SCORE.INTRA.REPUL>
0

>  <SCORE.INTRA.REPUL.0>
0

>  <SCORE.INTRA.SOLV>
-0.801628

>  <SCORE.INTRA.SOLV.lig_0>
-14.3357

>  <SCORE.INTRA.VDW>
2.02142

>  <SCORE.INTRA.VDW.0>
0.386712

>  <SCORE.INTRA.norm>
0.165164

>  <SCORE.RESTR>
0

>  <SCORE.RESTR.CAVITY>
0

>  <SCORE.RESTR.norm>
0

>  <SCORE.SYSTEM>
-19.1529

>  <SCORE.SYSTEM.CONST>
0

>  <SCORE.SYSTEM.DIHEDRAL>
4.73104

>  <SCORE.SYSTEM.POLAR>
-2.92818

>  <SCORE.SYSTEM.SOLV>
-0.0793064

>  <SCORE.SYSTEM.VDW>
-4.55858

>  <SCORE.SYSTEM.norm>
-1.36806

>  <SCORE.heavy>
14

>  <SCORE.norm>
-2.51401

$$$$
P128938770
 OpenBabel12072022113D
libRbt.so/2013.1/901 2013/11/27
 12 12  0  0  0  0  0  0  0  0999 V2000
    1.1810   16.6542    3.4701 C   0  0  0  0  0  0  0  0  0  0  0  0
    2.3394   15.7616    3.6057 N   0  0  0  0  0  0  0  0  0  0  0  0
    3.5639   16.5675    3.8628 C   0  0  0  0  0  0  0  0  0  0  0  0
    4.4216   16.8431    2.6883 C   0  0  0  0  0  0  0  0  0  0  0  0
    5.0862   17.0551    1.7597 N   0  0  0  0  0  0  0  0  0  0  0  0
    2.1110   14.6847    4.6199 C   0  0  1  0  0  0  0  0  0  0  0  0
    1.1081   13.6112    4.1274 C   0  0  0  0  0  0  0  0  0  0  0  0
    1.6740   12.8120    2.9513 C   0  0  0  0  0  0  0  0  0  0  0  0
    3.0487   12.2276    3.2841 C   0  0  0  0  0  0  0  0  0  0  0  0
    3.9818   13.2461    3.7820 N   0  0  0  0  0  0  0  0  0  0  0  0
    3.4143   13.9047    4.9714 C   0  0  0  0  0  0  0  0  0  0  0  0
    4.0647   13.9630    3.0563 H   0  0  0  0  0  0  0  0  0  0  0  0
  1  2  1  0  0  0  0
  2  3  1  0  0  0  0
  3  4  1  0  0  0  0
  4  5  3  0  0  0  0
  6  2  1  6  0  0  0
  6  7  1  0  0  0  0
  6 11  1  0  0  0  0
  7  8  1  0  0  0  0
  8  9  1  0  0  0  0
  9 10  1  0  0  0  0
 10 11  1  0  0  0  0
 10 12  1  0  0  0  0
M  END
>  <CHROM.0>
-57.11638140,-169.44252938,-67.42039531,-47.54588499,-176.05880209,-64.32622996
-67.07817893,-58.56024502,-168.00468650

>  <CHROM.1>
-98.34605804,72.03820000,2.88393472,14.83231504,3.55737163,1.14697218,0.32018498
-0.12668281

>  <Name>
P128938770

>  <RI>
3.1908e+07

>  <Rbt.Current_Directory>
/home/fstefaniak/projects/zuza/docking/adenine/4XNR

>  <Rbt.Executable>
rbdock ($Id: //depot/dev/client3/rdock/2013.1/src/exe/rbdock.cxx#4 $)

>  <Rbt.Library>
libRbt.so (2013.1, Build901 2013/11/27)

>  <Rbt.Parameter_File>
/home/fstefaniak/progs/rDock//data/scripts/dock_solv.prm

>  <Rbt.Receptor>
4xnr.prm

>  <SCORE>
-35.4632

>  <SCORE.INTER>
-15.194

>  <SCORE.INTER.CONST>
1

>  <SCORE.INTER.POLAR>
-1.24526

>  <SCORE.INTER.ROT>
2

>  <SCORE.INTER.SOLV>
8.88015

>  <SCORE.INTER.VDW>
-13.8718

>  <SCORE.INTER.norm>
-1.38127

>  <SCORE.INTRA>
0.404552

>  <SCORE.INTRA.DIHEDRAL>
2.15301

>  <SCORE.INTRA.DIHEDRAL.0>
0.0595247

>  <SCORE.INTRA.POLAR>
0

>  <SCORE.INTRA.POLAR.0>
0

>  <SCORE.INTRA.REPUL>
0

>  <SCORE.INTRA.REPUL.0>
0

>  <SCORE.INTRA.SOLV>
-0.00378236

>  <SCORE.INTRA.SOLV.lig_0>
-10.4771

>  <SCORE.INTRA.VDW>
-0.670059

>  <SCORE.INTRA.VDW.0>
1.93032

>  <SCORE.INTRA.norm>
0.0367775

>  <SCORE.RESTR>
0.00617572

>  <SCORE.RESTR.CAVITY>
0.00617572

>  <SCORE.RESTR.norm>
0.000561429

>  <SCORE.SYSTEM>
-20.6799

>  <SCORE.SYSTEM.CONST>
0

>  <SCORE.SYSTEM.DIHEDRAL>
4.69102

>  <SCORE.SYSTEM.POLAR>
-2.98652

>  <SCORE.SYSTEM.SOLV>
0.0789634

>  <SCORE.SYSTEM.VDW>
-5.42153

>  <SCORE.SYSTEM.norm>
-1.87999

>  <SCORE.heavy>
11

>  <SCORE.norm>
-3.22392

$$$$
P128938770
 OpenBabel12072022113D
libRbt.so/2013.1/901 2013/11/27
 12 12  0  0  0  0  0  0  0  0999 V2000
    1.4065   16.0442    3.9559 C   0  0  0  0  0  0  0  0  0  0  0  0
    2.2908   14.9394    3.5628 N   0  0  0  0  0  0  0  0  0  0  0  0
    3.6896   15.2521    3.9634 C   0  0  0  0  0  0  0  0  0  0  0  0
    4.4900   16.0252    2.9874 C   0  0  0  0  0  0  0  0  0  0  0  0
    5.1084   16.6337    2.2152 N   0  0  0  0  0  0  0  0  0  0  0  0
    1.8072   13.6168    4.0701 C   0  0  1  0  0  0  0  0  0  0  0  0
    0.4003   13.2549    3.5312 C   0  0  0  0  0  0  0  0  0  0  0  0
    0.4228   13.0157    2.0197 C   0  0  0  0  0  0  0  0  0  0  0  0
    1.4864   11.9851    1.6338 C   0  0  0  0  0  0  0  0  0  0  0  0
    2.8090   12.3187    2.1773 N   0  0  0  0  0  0  0  0  0  0  0  0
    2.7313   12.4358    3.6439 C   0  0  0  0  0  0  0  0  0  0  0  0
    3.0608   13.2434    1.8181 H   0  0  0  0  0  0  0  0  0  0  0  0
  1  2  1  0  0  0  0
  2  3  1  0  0  0  0
  3  4  1  0  0  0  0
  4  5  3  0  0  0  0
  6  2  1  6  0  0  0
  6  7  1  0  0  0  0
  6 11  1  0  0  0  0
  7  8  1  0  0  0  0
  8  9  1  0  0  0  0
  9 10  1  0  0  0  0
 10 11  1  0  0  0  0
 10 12  1  0  0  0  0
M  END
>  <CHROM.0>
-57.69011312,-173.21719016,-62.94185046,-45.60703001,-58.02528805,-64.16414808
-65.83698702,-59.20815065,-167.96029165

>  <CHROM.1>
-87.38009099,60.37205266,2.39602417,14.12339224,3.06141000,0.83082341,0.37008363
0.45761912

>  <Name>
P128938770

>  <RI>
3.1908e+07

>  <Rbt.Current_Directory>
/home/fstefaniak/projects/zuza/docking/adenine/4XNR

>  <Rbt.Executable>
rbdock ($Id: //depot/dev/client3/rdock/2013.1/src/exe/rbdock.cxx#4 $)

>  <Rbt.Library>
libRbt.so (2013.1, Build901 2013/11/27)

>  <Rbt.Parameter_File>
/home/fstefaniak/progs/rDock//data/scripts/dock_solv.prm

>  <Rbt.Receptor>
4xnr.prm

>  <SCORE>
-35.3559

>  <SCORE.INTER>
-15.2957

>  <SCORE.INTER.CONST>
1

>  <SCORE.INTER.POLAR>
-1.10952

>  <SCORE.INTER.ROT>
2

>  <SCORE.INTER.SOLV>
7.64512

>  <SCORE.INTER.VDW>
-13.9804

>  <SCORE.INTER.norm>
-1.39051

>  <SCORE.INTRA>
-0.0332268

>  <SCORE.INTRA.DIHEDRAL>
1.20203

>  <SCORE.INTRA.DIHEDRAL.0>
0.0595247

>  <SCORE.INTRA.POLAR>
0

>  <SCORE.INTRA.POLAR.0>
0

>  <SCORE.INTRA.REPUL>
0

>  <SCORE.INTRA.REPUL.0>
0

>  <SCORE.INTRA.SOLV>
-0.124396

>  <SCORE.INTRA.SOLV.lig_0>
-10.4771

>  <SCORE.INTRA.VDW>
-0.572044

>  <SCORE.INTRA.VDW.0>
1.93032

>  <SCORE.INTRA.norm>
-0.00302062

>  <SCORE.RESTR>
0.608305

>  <SCORE.RESTR.CAVITY>
0.608305

>  <SCORE.RESTR.norm>
0.0553004

>  <SCORE.SYSTEM>
-20.6353

>  <SCORE.SYSTEM.CONST>
0

>  <SCORE.SYSTEM.DIHEDRAL>
4.26144

>  <SCORE.SYSTEM.POLAR>
-3.01946

>  <SCORE.SYSTEM.SOLV>
0.270227

>  <SCORE.SYSTEM.VDW>
-5.20257

>  <SCORE.SYSTEM.norm>
-1.87594

>  <SCORE.heavy>
11

>  <SCORE.norm>
-3.21417

$$$$
P128938770
 OpenBabel12072022113D
libRbt.so/2013.1/901 2013/11/27
 12 12  0  0  0  0  0  0  0  0999 V2000
    1.0623   16.5615    3.3824 C   0  0  0  0  0  0  0  0  0  0  0  0
    2.2898   15.7762    3.5660 N   0  0  0  0  0  0  0  0  0  0  0  0
    3.4319   16.6906    3.8388 C   0  0  0  0  0  0  0  0  0  0  0  0
    4.7159   16.3415    3.1903 C   0  0  0  0  0  0  0  0  0  0  0  0
    5.7178   16.0595    2.6750 N   0  0  0  0  0  0  0  0  0  0  0  0
    2.1279   14.7015    4.5954 C   0  0  1  0  0  0  0  0  0  0  0  0
    1.1308   13.6020    4.1510 C   0  0  0  0  0  0  0  0  0  0  0  0
    1.6666   12.8075    2.9576 C   0  0  0  0  0  0  0  0  0  0  0  0
    3.0669   12.2571    3.2375 C   0  0  0  0  0  0  0  0  0  0  0  0
    3.9957   13.3002    3.6905 N   0  0  0  0  0  0  0  0  0  0  0  0
    3.4621   13.9540    4.8980 C   0  0  0  0  0  0  0  0  0  0  0  0
    4.0324   14.0136    2.9575 H   0  0  0  0  0  0  0  0  0  0  0  0
  1  2  1  0  0  0  0
  2  3  1  0  0  0  0
  3  4  1  0  0  0  0
  4  5  3  0  0  0  0
  6  2  1  6  0  0  0
  6  7  1  0  0  0  0
  6 11  1  0  0  0  0
  7  8  1  0  0  0  0
  8  9  1  0  0  0  0
  9 10  1  0  0  0  0
 10 11  1  0  0  0  0
 10 12  1  0  0  0  0
M  END
>  <CHROM.0>
-57.74430691,-170.57965248,59.41215937,-48.80789787,-63.06385733,-63.00591419
53.26153824,-60.42809509,-168.00848829

>  <CHROM.1>
-140.06287441,66.63272145,2.94640907,14.71817188,3.64661148,0.97572602,0.15222154
-0.02880051

>  <Name>
P128938770

>  <RI>
3.1908e+07

>  <Rbt.Current_Directory>
/home/fstefaniak/projects/zuza/docking/adenine/4XNR

>  <Rbt.Executable>
rbdock ($Id: //depot/dev/client3/rdock/2013.1/src/exe/rbdock.cxx#4 $)

>  <Rbt.Library>
libRbt.so (2013.1, Build901 2013/11/27)

>  <Rbt.Parameter_File>
/home/fstefaniak/progs/rDock//data/scripts/dock_solv.prm

>  <Rbt.Receptor>
4xnr.prm

>  <SCORE>
-34.2212

>  <SCORE.INTER>
-15.8442

>  <SCORE.INTER.CONST>
1

>  <SCORE.INTER.POLAR>
-1.20121

>  <SCORE.INTER.ROT>
2

>  <SCORE.INTER.SOLV>
8.81472

>  <SCORE.INTER.VDW>
-14.4304

>  <SCORE.INTER.norm>
-1.44038

>  <SCORE.INTRA>
0.342662

>  <SCORE.INTRA.DIHEDRAL>
1.6931

>  <SCORE.INTRA.DIHEDRAL.0>
0.0595247

>  <SCORE.INTRA.POLAR>
0

>  <SCORE.INTRA.POLAR.0>
0

>  <SCORE.INTRA.REPUL>
0

>  <SCORE.INTRA.REPUL.0>
0

>  <SCORE.INTRA.SOLV>
0.540512

>  <SCORE.INTRA.SOLV.lig_0>
-10.4771

>  <SCORE.INTRA.VDW>
-0.774144

>  <SCORE.INTRA.VDW.0>
1.93032

>  <SCORE.INTRA.norm>
0.0311511

>  <SCORE.RESTR>
0.0104785

>  <SCORE.RESTR.CAVITY>
0.0104785

>  <SCORE.RESTR.norm>
0.000952595

>  <SCORE.SYSTEM>
-18.7301

>  <SCORE.SYSTEM.CONST>
0

>  <SCORE.SYSTEM.DIHEDRAL>
4.0891

>  <SCORE.SYSTEM.POLAR>
-2.94426

>  <SCORE.SYSTEM.SOLV>
0.150887

>  <SCORE.SYSTEM.VDW>
-4.08586

>  <SCORE.SYSTEM.norm>
-1.70274

>  <SCORE.heavy>
11

>  <SCORE.norm>
-3.11102

$$$$
P128996790
 OpenBabel12072022113D
libRbt.so/2013.1/901 2013/11/27
 16 16  0  0  0  0  0  0  0  0999 V2000
    5.7310   17.7620    5.1705 C   0  0  0  0  0  0  0  0  0  0  0  0
    5.9704   19.1871    4.6873 C   0  0  0  0  0  0  0  0  0  0  0  0
    7.0436   19.2195    3.7478 O   0  0  0  0  0  0  0  0  0  0  0  0
    6.7696   18.4482    2.5799 C   0  0  0  0  0  0  0  0  0  0  0  0
    6.5561   16.9805    2.9380 C   0  0  0  0  0  0  0  0  0  0  0  0
    5.4611   16.8003    4.0010 C   0  0  0  0  0  0  0  0  0  0  0  0
    4.0647   16.9967    3.3889 C   0  0  0  0  0  0  0  0  0  0  0  0
    3.0493   16.2617    4.1173 N   0  0  0  0  0  0  0  0  0  0  0  0
    2.7757   14.9553    3.7877 C   0  0  0  0  0  0  0  0  0  0  0  0
    3.1736   14.3906    2.7755 O   0  0  0  0  0  0  0  0  0  0  0  0
    1.9711   14.3474    4.7434 N   0  0  0  0  0  0  0  0  0  0  0  0
    0.7744   13.7184    4.3146 N   0  0  0  0  0  0  0  0  0  0  0  0
    2.9487   16.4733    5.1003 H   0  0  0  0  0  0  0  0  0  0  0  0
    1.9489   14.8004    5.6533 H   0  0  0  0  0  0  0  0  0  0  0  0
    0.0604   14.4498    4.2465 H   0  0  0  0  0  0  0  0  0  0  0  0
    0.4442   13.1454    5.1046 H   0  0  0  0  0  0  0  0  0  0  0  0
  1  2  1  0  0  0  0
  1  6  1  0  0  0  0
  2  3  1  0  0  0  0
  3  4  1  0  0  0  0
  4  5  1  0  0  0  0
  5  6  1  0  0  0  0
  6  7  1  0  0  0  0
  7  8  1  0  0  0  0
  8  9  1  0  0  0  0
  8 13  1  0  0  0  0
  9 10  2  0  0  0  0
  9 11  1  0  0  0  0
 11 12  1  0  0  0  0
 11 14  1  0  0  0  0
 12 15  1  0  0  0  0
 12 16  1  0  0  0  0
M  END
>  <CHROM.0>
-57.68861773,-69.57730109,-52.93838130,-47.36801181,-58.68380676,58.63522172
-66.99614299,-173.49784769,-167.56304273

>  <CHROM.1>
-84.37507183,-87.77889381,-12.05967809,126.56883941,-83.66187306,4.40253473
16.56874712,3.86784145,0.38338766,0.63966745,0.89369646

>  <Name>
P128996790

>  <RI>
9.71178e+06

>  <Rbt.Current_Directory>
/home/fstefaniak/projects/zuza/docking/adenine/4XNR

>  <Rbt.Executable>
rbdock ($Id: //depot/dev/client3/rdock/2013.1/src/exe/rbdock.cxx#4 $)

>  <Rbt.Library>
libRbt.so (2013.1, Build901 2013/11/27)

>  <Rbt.Parameter_File>
/home/fstefaniak/progs/rDock//data/scripts/dock_solv.prm

>  <Rbt.Receptor>
4xnr.prm

>  <SCORE>
-53.2729

>  <SCORE.INTER>
-34.0719

>  <SCORE.INTER.CONST>
1

>  <SCORE.INTER.POLAR>
-4.98781

>  <SCORE.INTER.ROT>
5

>  <SCORE.INTER.SOLV>
13.7303

>  <SCORE.INTER.VDW>
-17.5987

>  <SCORE.INTER.norm>
-2.83933

>  <SCORE.INTRA>
0.0807886

>  <SCORE.INTRA.DIHEDRAL>
1.05814

>  <SCORE.INTRA.DIHEDRAL.0>
2.52781

>  <SCORE.INTRA.POLAR>
0

>  <SCORE.INTRA.POLAR.0>
0

>  <SCORE.INTRA.REPUL>
0

>  <SCORE.INTRA.REPUL.0>
0

>  <SCORE.INTRA.SOLV>
-0.0131262

>  <SCORE.INTRA.SOLV.lig_0>
-19.1749

>  <SCORE.INTRA.VDW>
-0.441719

>  <SCORE.INTRA.VDW.0>
-0.439135

>  <SCORE.INTRA.norm>
0.00673239

>  <SCORE.RESTR>
0

>  <SCORE.RESTR.CAVITY>
0

>  <SCORE.RESTR.norm>
0

>  <SCORE.SYSTEM>
-19.2817

>  <SCORE.SYSTEM.CONST>
0

>  <SCORE.SYSTEM.DIHEDRAL>
4.66488

>  <SCORE.SYSTEM.POLAR>
-3.02844

>  <SCORE.SYSTEM.SOLV>
0.0376629

>  <SCORE.SYSTEM.VDW>
-4.3272

>  <SCORE.SYSTEM.norm>
-1.60681

>  <SCORE.heavy>
12

>  <SCORE.norm>
-4.43941

$$$$
P128996790
 OpenBabel12072022113D
libRbt.so/2013.1/901 2013/11/27
 16 16  0  0  0  0  0  0  0  0999 V2000
    5.5234   17.6935    5.1357 C   0  0  0  0  0  0  0  0  0  0  0  0
    5.8367   19.0944    4.6248 C   0  0  0  0  0  0  0  0  0  0  0  0
    6.9560   19.0620    3.7407 O   0  0  0  0  0  0  0  0  0  0  0  0
    6.7137   18.2653    2.5829 C   0  0  0  0  0  0  0  0  0  0  0  0
    6.4309   16.8172    2.9714 C   0  0  0  0  0  0  0  0  0  0  0  0
    5.2785   16.7064    3.9819 C   0  0  0  0  0  0  0  0  0  0  0  0
    3.9222   16.9313    3.2941 C   0  0  0  0  0  0  0  0  0  0  0  0
    2.8138   16.6777    4.1934 N   0  0  0  0  0  0  0  0  0  0  0  0
    1.6102   16.2376    3.6956 C   0  0  0  0  0  0  0  0  0  0  0  0
    1.0196   16.7397    2.7465 O   0  0  0  0  0  0  0  0  0  0  0  0
    1.1287   15.1512    4.4153 N   0  0  0  0  0  0  0  0  0  0  0  0
    2.0426   14.1334    4.7902 N   0  0  0  0  0  0  0  0  0  0  0  0
    3.0418   16.3186    5.1100 H   0  0  0  0  0  0  0  0  0  0  0  0
    0.1833   14.8551    4.1865 H   0  0  0  0  0  0  0  0  0  0  0  0
    1.5038   13.4147    5.2827 H   0  0  0  0  0  0  0  0  0  0  0  0
    2.6346   14.5296    5.5345 H   0  0  0  0  0  0  0  0  0  0  0  0
  1  2  1  0  0  0  0
  1  6  1  0  0  0  0
  2  3  1  0  0  0  0
  3  4  1  0  0  0  0
  4  5  1  0  0  0  0
  5  6  1  0  0  0  0
  6  7  1  0  0  0  0
  7  8  1  0  0  0  0
  8  9  1  0  0  0  0
  8 13  1  0  0  0  0
  9 10  2  0  0  0  0
  9 11  1  0  0  0  0
 11 12  1  0  0  0  0
 11 14  1  0  0  0  0
 12 15  1  0  0  0  0
 12 16  1  0  0  0  0
M  END
>  <CHROM.0>
-62.74733469,-67.98314017,-67.48670380,-49.80257114,61.85381512,-67.95396294
-73.45262269,-63.49364817,-167.15363166

>  <CHROM.1>
-64.20378496,-150.81040616,-48.61595681,-42.48834661,-178.40366349,4.07388505
16.94027745,3.86221200,-0.44159788,0.29053446,2.47947921

>  <Name>
P128996790

>  <RI>
9.71178e+06

>  <Rbt.Current_Directory>
/home/fstefaniak/projects/zuza/docking/adenine/4XNR

>  <Rbt.Executable>
rbdock ($Id: //depot/dev/client3/rdock/2013.1/src/exe/rbdock.cxx#4 $)

>  <Rbt.Library>
libRbt.so (2013.1, Build901 2013/11/27)

>  <Rbt.Parameter_File>
/home/fstefaniak/progs/rDock//data/scripts/dock_solv.prm

>  <Rbt.Receptor>
4xnr.prm

>  <SCORE>
-53.2547

>  <SCORE.INTER>
-34.0479

>  <SCORE.INTER.CONST>
1

>  <SCORE.INTER.POLAR>
-4.67368

>  <SCORE.INTER.ROT>
5

>  <SCORE.INTER.SOLV>
14.2641

>  <SCORE.INTER.VDW>
-18.8077

>  <SCORE.INTER.norm>
-2.83732

>  <SCORE.INTRA>
0.554788

>  <SCORE.INTRA.DIHEDRAL>
0.745298

>  <SCORE.INTRA.DIHEDRAL.0>
2.52781

>  <SCORE.INTRA.POLAR>
0

>  <SCORE.INTRA.POLAR.0>
0

>  <SCORE.INTRA.REPUL>
0

>  <SCORE.INTRA.REPUL.0>
0

>  <SCORE.INTRA.SOLV>
0.44909

>  <SCORE.INTRA.SOLV.lig_0>
-19.1749

>  <SCORE.INTRA.VDW>
-0.0424058

>  <SCORE.INTRA.VDW.0>
-0.439135

>  <SCORE.INTRA.norm>
0.0462324

>  <SCORE.RESTR>
0

>  <SCORE.RESTR.CAVITY>
0

>  <SCORE.RESTR.norm>
0

>  <SCORE.SYSTEM>
-19.7616

>  <SCORE.SYSTEM.CONST>
0

>  <SCORE.SYSTEM.DIHEDRAL>
5.08653

>  <SCORE.SYSTEM.POLAR>
-2.91244

>  <SCORE.SYSTEM.SOLV>
0.0243961

>  <SCORE.SYSTEM.VDW>
-5.16991

>  <SCORE.SYSTEM.norm>
-1.6468

>  <SCORE.heavy>
12

>  <SCORE.norm>
-4.43789

$$$$
P128996790
 OpenBabel12072022113D
libRbt.so/2013.1/901 2013/11/27
 16 16  0  0  0  0  0  0  0  0999 V2000
    5.5846   17.7055    5.1391 C   0  0  0  0  0  0  0  0  0  0  0  0
    5.9126   19.1193    4.6749 C   0  0  0  0  0  0  0  0  0  0  0  0
    7.0368   19.1055    3.7966 O   0  0  0  0  0  0  0  0  0  0  0  0
    6.7948   18.3481    2.6127 C   0  0  0  0  0  0  0  0  0  0  0  0
    6.4977   16.8908    2.9533 C   0  0  0  0  0  0  0  0  0  0  0  0
    5.3384   16.7577    3.9532 C   0  0  0  0  0  0  0  0  0  0  0  0
    3.9881   17.0158    3.2651 C   0  0  0  0  0  0  0  0  0  0  0  0
    2.8723   16.6408    4.1113 N   0  0  0  0  0  0  0  0  0  0  0  0
    2.0568   15.5941    3.7513 C   0  0  0  0  0  0  0  0  0  0  0  0
    2.4502   14.4799    3.4262 O   0  0  0  0  0  0  0  0  0  0  0  0
    0.7166   15.9584    3.7855 N   0  0  0  0  0  0  0  0  0  0  0  0
    0.2775   16.8131    4.8287 N   0  0  0  0  0  0  0  0  0  0  0  0
    2.9989   16.7466    5.1082 H   0  0  0  0  0  0  0  0  0  0  0  0
    0.0594   15.2510    3.4669 H   0  0  0  0  0  0  0  0  0  0  0  0
    0.8957   17.6299    4.8259 H   0  0  0  0  0  0  0  0  0  0  0  0
    0.5179   16.3439    5.7139 H   0  0  0  0  0  0  0  0  0  0  0  0
  1  2  1  0  0  0  0
  1  6  1  0  0  0  0
  2  3  1  0  0  0  0
  3  4  1  0  0  0  0
  4  5  1  0  0  0  0
  5  6  1  0  0  0  0
  6  7  1  0  0  0  0
  7  8  1  0  0  0  0
  8  9  1  0  0  0  0
  8 13  1  0  0  0  0
  9 10  2  0  0  0  0
  9 11  1  0  0  0  0
 11 12  1  0  0  0  0
 11 14  1  0  0  0  0
 12 15  1  0  0  0  0
 12 16  1  0  0  0  0
M  END
>  <CHROM.0>
-56.78855107,-60.41085229,-63.23265088,-45.21742695,60.34641039,-60.21715864
-67.87525256,-59.44597724,-168.09851523

>  <CHROM.1>
-68.85971817,-113.80558516,50.41563333,-38.43245542,52.57391933,4.08922406
17.03616786,3.87452950,0.33690587,0.29627912,0.56122380

>  <Name>
P128996790

>  <RI>
9.71178e+06

>  <Rbt.Current_Directory>
/home/fstefaniak/projects/zuza/docking/adenine/4XNR

>  <Rbt.Executable>
rbdock ($Id: //depot/dev/client3/rdock/2013.1/src/exe/rbdock.cxx#4 $)

>  <Rbt.Library>
libRbt.so (2013.1, Build901 2013/11/27)

>  <Rbt.Parameter_File>
/home/fstefaniak/progs/rDock//data/scripts/dock_solv.prm

>  <Rbt.Receptor>
4xnr.prm

>  <SCORE>
-53.1181

>  <SCORE.INTER>
-33.394

>  <SCORE.INTER.CONST>
1

>  <SCORE.INTER.POLAR>
-4.53015

>  <SCORE.INTER.ROT>
5

>  <SCORE.INTER.SOLV>
15.1505

>  <SCORE.INTER.VDW>
-19.1456

>  <SCORE.INTER.norm>
-2.78283

>  <SCORE.INTRA>
0.140026

>  <SCORE.INTRA.DIHEDRAL>
0.701735

>  <SCORE.INTRA.DIHEDRAL.0>
2.52781

>  <SCORE.INTRA.POLAR>
-0.00093081

>  <SCORE.INTRA.POLAR.0>
0

>  <SCORE.INTRA.REPUL>
0

>  <SCORE.INTRA.REPUL.0>
0

>  <SCORE.INTRA.SOLV>
0.524701

>  <SCORE.INTRA.SOLV.lig_0>
-19.1749

>  <SCORE.INTRA.VDW>
-0.470027

>  <SCORE.INTRA.VDW.0>
-0.439135

>  <SCORE.INTRA.norm>
0.0116688

>  <SCORE.RESTR>
0

>  <SCORE.RESTR.CAVITY>
0

>  <SCORE.RESTR.norm>
0

>  <SCORE.SYSTEM>
-19.8641

>  <SCORE.SYSTEM.CONST>
0

>  <SCORE.SYSTEM.DIHEDRAL>
4.13705

>  <SCORE.SYSTEM.POLAR>
-3.02976

>  <SCORE.SYSTEM.SOLV>
0.0915964

>  <SCORE.SYSTEM.VDW>
-4.5531

>  <SCORE.SYSTEM.norm>
-1.65534

>  <SCORE.heavy>
12

>  <SCORE.norm>
-4.4265

$$$$
P129010386
 OpenBabel12072022113D
libRbt.so/2013.1/901 2013/11/27
 17 16  0  0  0  0  0  0  0  0999 V2000
    4.3647   14.7043    3.9157 C   0  0  0  0  0  0  0  0  0  0  0  0
    4.5970   16.1216    3.3732 C   0  0  0  0  0  0  0  0  0  0  0  0
    3.2898   16.9140    3.4920 C   0  0  0  0  0  0  0  0  0  0  0  0
    5.7740   16.7942    4.1164 C   0  0  1  0  0  0  0  0  0  0  0  0
    6.5041   17.8996    3.3074 C   0  0  0  0  0  0  0  0  0  0  0  0
    6.2668   18.0426    2.1076 O   0  0  0  0  0  0  0  0  0  0  0  0
    7.5147   18.6290    3.8835 N   0  0  0  0  0  0  0  0  0  0  0  0
    7.3642   19.3126    5.0575 C   0  0  0  0  0  0  0  0  0  0  0  0
    6.4869   20.1444    5.2646 O   0  0  0  0  0  0  0  0  0  0  0  0
    8.2882   18.9958    5.9930 N   0  0  0  0  0  0  0  0  0  0  0  0
    5.3535   17.3232    5.4550 N   0  3  0  0  0  0  0  0  0  0  0  0
    6.1992   17.4260    6.0559 H   0  0  0  0  0  0  0  0  0  0  0  0
    4.8763   18.2283    5.4158 H   0  0  0  0  0  0  0  0  0  0  0  0
    4.7386   16.6548    5.9366 H   0  0  0  0  0  0  0  0  0  0  0  0
    8.3980   18.1326    3.8421 H   0  0  0  0  0  0  0  0  0  0  0  0
    8.5436   19.6521    6.7211 H   0  0  0  0  0  0  0  0  0  0  0  0
    8.3377   18.0204    6.2727 H   0  0  0  0  0  0  0  0  0  0  0  0
  1  2  1  0  0  0  0
  2  3  1  0  0  0  0
  4  2  1  6  0  0  0
  4  5  1  0  0  0  0
  4 11  1  0  0  0  0
  5  6  2  0  0  0  0
  5  7  1  0  0  0  0
  7  8  1  0  0  0  0
  7 15  1  0  0  0  0
  8  9  2  0  0  0  0
  8 10  1  0  0  0  0
 10 16  1  0  0  0  0
 10 17  1  0  0  0  0
 11 12  1  0  0  0  0
 11 13  1  0  0  0  0
 11 14  1  0  0  0  0
M  CHG  1  11   1
M  END
>  <CHROM.0>
-57.26552274,52.68505870,60.41549188,-44.38198574,-59.37690486,-57.13374780
53.39544956,58.71731456,-166.58275011

>  <CHROM.1>
154.29276780,-10.75462155,158.50715255,-54.59287763,-54.53050658,154.24319281
5.98316646,17.73104912,4.22332717,2.82254353,-0.80751400,-1.55855247

>  <Name>
P129010386

>  <RI>
3.58524e+07

>  <Rbt.Current_Directory>
/home/fstefaniak/projects/zuza/docking/adenine/4XNR

>  <Rbt.Executable>
rbdock ($Id: //depot/dev/client3/rdock/2013.1/src/exe/rbdock.cxx#4 $)

>  <Rbt.Library>
libRbt.so (2013.1, Build901 2013/11/27)

>  <Rbt.Parameter_File>
/home/fstefaniak/progs/rDock//data/scripts/dock_solv.prm

>  <Rbt.Receptor>
4xnr.prm

>  <SCORE>
-49.8929

>  <SCORE.INTER>
-37.2605

>  <SCORE.INTER.CONST>
1

>  <SCORE.INTER.POLAR>
-6.6965

>  <SCORE.INTER.ROT>
5

>  <SCORE.INTER.SOLV>
20.8671

>  <SCORE.INTER.VDW>
-16.4077

>  <SCORE.INTER.norm>
-3.38732

>  <SCORE.INTRA>
4.30719

>  <SCORE.INTRA.DIHEDRAL>
2.46358

>  <SCORE.INTRA.DIHEDRAL.0>
2.79771

>  <SCORE.INTRA.POLAR>
0.835283

>  <SCORE.INTRA.POLAR.0>
-0.835283

>  <SCORE.INTRA.REPUL>
0

>  <SCORE.INTRA.REPUL.0>
0

>  <SCORE.INTRA.SOLV>
1.61867

>  <SCORE.INTRA.SOLV.lig_0>
-33.3433

>  <SCORE.INTRA.VDW>
-0.573892

>  <SCORE.INTRA.VDW.0>
-0.69693

>  <SCORE.INTRA.norm>
0.391563

>  <SCORE.RESTR>
0

>  <SCORE.RESTR.CAVITY>
0

>  <SCORE.RESTR.norm>
0

>  <SCORE.SYSTEM>
-16.9395

>  <SCORE.SYSTEM.CONST>
0

>  <SCORE.SYSTEM.DIHEDRAL>
4.56434

>  <SCORE.SYSTEM.POLAR>
-3.05123

>  <SCORE.SYSTEM.SOLV>
0.133744

>  <SCORE.SYSTEM.VDW>
-2.6883

>  <SCORE.SYSTEM.norm>
-1.53996

>  <SCORE.heavy>
11

>  <SCORE.norm>
-4.53571

$$$$
P129010386
 OpenBabel12072022113D
libRbt.so/2013.1/901 2013/11/27
 17 16  0  0  0  0  0  0  0  0999 V2000
    2.8280   12.4651    2.4535 C   0  0  0  0  0  0  0  0  0  0  0  0
    2.4218   12.5307    3.9326 C   0  0  0  0  0  0  0  0  0  0  0  0
    2.5053   11.1204    4.5285 C   0  0  0  0  0  0  0  0  0  0  0  0
    3.3041   13.5519    4.6866 C   0  0  1  0  0  0  0  0  0  0  0  0
    3.2008   15.0092    4.1622 C   0  0  0  0  0  0  0  0  0  0  0  0
    2.2103   15.6905    4.4288 O   0  0  0  0  0  0  0  0  0  0  0  0
    4.1381   15.5007    3.2874 N   0  0  0  0  0  0  0  0  0  0  0  0
    4.9748   16.5362    3.5965 C   0  0  0  0  0  0  0  0  0  0  0  0
    4.9284   17.1722    4.6443 O   0  0  0  0  0  0  0  0  0  0  0  0
    5.8752   16.8153    2.6267 N   0  0  0  0  0  0  0  0  0  0  0  0
    3.0551   13.5137    6.1648 N   0  3  0  0  0  0  0  0  0  0  0  0
    2.8296   14.4774    6.4921 H   0  0  0  0  0  0  0  0  0  0  0  0
    2.2898   12.8932    6.4440 H   0  0  0  0  0  0  0  0  0  0  0  0
    3.9027   13.2291    6.6721 H   0  0  0  0  0  0  0  0  0  0  0  0
    4.6215   14.7510    2.8051 H   0  0  0  0  0  0  0  0  0  0  0  0
    5.8768   17.7117    2.1549 H   0  0  0  0  0  0  0  0  0  0  0  0
    6.7933   16.3905    2.7212 H   0  0  0  0  0  0  0  0  0  0  0  0
  1  2  1  0  0  0  0
  2  3  1  0  0  0  0
  4  2  1  6  0  0  0
  4  5  1  0  0  0  0
  4 11  1  0  0  0  0
  5  6  2  0  0  0  0
  5  7  1  0  0  0  0
  7  8  1  0  0  0  0
  7 15  1  0  0  0  0
  8  9  2  0  0  0  0
  8 10  1  0  0  0  0
 10 16  1  0  0  0  0
 10 17  1  0  0  0  0
 11 12  1  0  0  0  0
 11 13  1  0  0  0  0
 11 14  1  0  0  0  0
M  CHG  1  11   1
M  END
>  <CHROM.0>
-54.98243805,174.93780632,-72.54134771,-44.15816470,-174.36787192,-175.31171633
-170.39281661,-57.85516463,-167.38755666

>  <CHROM.1>
61.03990241,75.53329883,-126.35727293,-116.12403322,-4.05293387,117.19913513
3.60003555,14.55051064,4.07147184,-2.67215992,1.01428497,0.86091436

>  <Name>
P129010386

>  <RI>
3.58524e+07

>  <Rbt.Current_Directory>
/home/fstefaniak/projects/zuza/docking/adenine/4XNR

>  <Rbt.Executable>
rbdock ($Id: //depot/dev/client3/rdock/2013.1/src/exe/rbdock.cxx#4 $)

>  <Rbt.Library>
libRbt.so (2013.1, Build901 2013/11/27)

>  <Rbt.Parameter_File>
/home/fstefaniak/progs/rDock//data/scripts/dock_solv.prm

>  <Rbt.Receptor>
4xnr.prm

>  <SCORE>
-49.4508

>  <SCORE.INTER>
-33.2579

>  <SCORE.INTER.CONST>
1

>  <SCORE.INTER.POLAR>
-6.13429

>  <SCORE.INTER.ROT>
5

>  <SCORE.INTER.SOLV>
20.1716

>  <SCORE.INTER.VDW>
-15.3815

>  <SCORE.INTER.norm>
-3.02345

>  <SCORE.INTRA>
3.10735

>  <SCORE.INTRA.DIHEDRAL>
4.17004

>  <SCORE.INTRA.DIHEDRAL.0>
2.79771

>  <SCORE.INTRA.POLAR>
0.835283

>  <SCORE.INTRA.POLAR.0>
-0.835283

>  <SCORE.INTRA.REPUL>
0

>  <SCORE.INTRA.REPUL.0>
0

>  <SCORE.INTRA.SOLV>
-3.73566

>  <SCORE.INTRA.SOLV.lig_0>
-33.3433

>  <SCORE.INTRA.VDW>
0.0501989

>  <SCORE.INTRA.VDW.0>
-0.69693

>  <SCORE.INTRA.norm>
0.282486

>  <SCORE.RESTR>
0.343658

>  <SCORE.RESTR.CAVITY>
0.343658

>  <SCORE.RESTR.norm>
0.0312417

>  <SCORE.SYSTEM>
-19.6439

>  <SCORE.SYSTEM.CONST>
0

>  <SCORE.SYSTEM.DIHEDRAL>
5.57956

>  <SCORE.SYSTEM.POLAR>
-3.04543

>  <SCORE.SYSTEM.SOLV>
-0.0542175

>  <SCORE.SYSTEM.VDW>
-4.78624

>  <SCORE.SYSTEM.norm>
-1.78581

>  <SCORE.heavy>
11

>  <SCORE.norm>
-4.49553

$$$$
P129010386
 OpenBabel12072022113D
libRbt.so/2013.1/901 2013/11/27
 17 16  0  0  0  0  0  0  0  0999 V2000
    3.5850   14.1513    4.1463 C   0  0  0  0  0  0  0  0  0  0  0  0
    2.2746   14.7652    3.6335 C   0  0  0  0  0  0  0  0  0  0  0  0
    1.0982   14.0078    4.2606 C   0  0  0  0  0  0  0  0  0  0  0  0
    2.2386   16.2812    3.9343 C   0  0  1  0  0  0  0  0  0  0  0  0
    3.4319   17.0857    3.3527 C   0  0  0  0  0  0  0  0  0  0  0  0
    3.4488   17.3848    2.1583 O   0  0  0  0  0  0  0  0  0  0  0  0
    4.5359   17.3471    4.1260 N   0  0  0  0  0  0  0  0  0  0  0  0
    5.7792   17.5631    3.6008 C   0  0  0  0  0  0  0  0  0  0  0  0
    6.4126   18.6053    3.7320 O   0  0  0  0  0  0  0  0  0  0  0  0
    6.2634   16.5121    2.9008 N   0  0  0  0  0  0  0  0  0  0  0  0
    0.9402   16.8991    3.5092 N   0  3  0  0  0  0  0  0  0  0  0  0
    0.8408   17.8259    3.9761 H   0  0  0  0  0  0  0  0  0  0  0  0
    0.8545   17.0387    2.4984 H   0  0  0  0  0  0  0  0  0  0  0  0
    0.1433   16.3317    3.8253 H   0  0  0  0  0  0  0  0  0  0  0  0
    4.3184   17.9997    4.8712 H   0  0  0  0  0  0  0  0  0  0  0  0
    6.9163   16.6461    2.1380 H   0  0  0  0  0  0  0  0  0  0  0  0
    6.3899   15.6433    3.4121 H   0  0  0  0  0  0  0  0  0  0  0  0
  1  2  1  0  0  0  0
  2  3  1  0  0  0  0
  4  2  1  6  0  0  0
  4  5  1  0  0  0  0
  4 11  1  0  0  0  0
  5  6  2  0  0  0  0
  5  7  1  0  0  0  0
  7  8  1  0  0  0  0
  7 15  1  0  0  0  0
  8  9  2  0  0  0  0
  8 10  1  0  0  0  0
 10 16  1  0  0  0  0
 10 17  1  0  0  0  0
 11 12  1  0  0  0  0
 11 13  1  0  0  0  0
 11 14  1  0  0  0  0
M  CHG  1  11   1
M  END
>  <CHROM.0>
-56.30829962,170.34758303,-62.58684133,-47.10343357,-56.27551074,-65.12474182
-70.00120133,59.74341382,-166.75419209

>  <CHROM.1>
56.63860569,78.31034466,163.19126060,153.89385868,118.47882742,151.50799799
3.63072582,16.43481610,3.56525073,-2.58449007,-0.02152034,-0.21491214

>  <Name>
P129010386

>  <RI>
3.58524e+07

>  <Rbt.Current_Directory>
/home/fstefaniak/projects/zuza/docking/adenine/4XNR

>  <Rbt.Executable>
rbdock ($Id: //depot/dev/client3/rdock/2013.1/src/exe/rbdock.cxx#4 $)

>  <Rbt.Library>
libRbt.so (2013.1, Build901 2013/11/27)

>  <Rbt.Parameter_File>
/home/fstefaniak/progs/rDock//data/scripts/dock_solv.prm

>  <Rbt.Receptor>
4xnr.prm

>  <SCORE>
-49.1617

>  <SCORE.INTER>
-31.6922

>  <SCORE.INTER.CONST>
1

>  <SCORE.INTER.POLAR>
-5.44616

>  <SCORE.INTER.ROT>
5

>  <SCORE.INTER.SOLV>
18.9207

>  <SCORE.INTER.VDW>
-16.2145

>  <SCORE.INTER.norm>
-2.88111

>  <SCORE.INTRA>
1.70308

>  <SCORE.INTRA.DIHEDRAL>
1.35329

>  <SCORE.INTRA.DIHEDRAL.0>
2.79771

>  <SCORE.INTRA.POLAR>
0.835283

>  <SCORE.INTRA.POLAR.0>
-0.835283

>  <SCORE.INTRA.REPUL>
0

>  <SCORE.INTRA.REPUL.0>
0

>  <SCORE.INTRA.SOLV>
-3.20048

>  <SCORE.INTRA.SOLV.lig_0>
-33.3433

>  <SCORE.INTRA.VDW>
-0.213287

>  <SCORE.INTRA.VDW.0>
-0.69693

>  <SCORE.INTRA.norm>
0.154825

>  <SCORE.RESTR>
0

>  <SCORE.RESTR.CAVITY>
0

>  <SCORE.RESTR.norm>
0

>  <SCORE.SYSTEM>
-19.1726

>  <SCORE.SYSTEM.CONST>
0

>  <SCORE.SYSTEM.DIHEDRAL>
4.83413

>  <SCORE.SYSTEM.POLAR>
-3.01036

>  <SCORE.SYSTEM.SOLV>
0.101593

>  <SCORE.SYSTEM.VDW>
-4.39245

>  <SCORE.SYSTEM.norm>
-1.74296

>  <SCORE.heavy>
11

>  <SCORE.norm>
-4.46925

$$$$
P129020650
 OpenBabel12072022113D
libRbt.so/2013.1/901 2013/11/27
 14 14  0  0  0  0  0  0  0  0999 V2000
    3.6203   15.1111    3.4156 C   0  0  0  0  0  0  0  0  0  0  0  0
    2.9389   14.4090    4.5898 C   0  0  1  0  0  0  0  0  0  0  0  0
    1.4172   14.3587    4.3948 C   0  0  0  0  0  0  0  0  0  0  0  0
    1.0745   12.9015    4.2746 N   0  3  2  0  0  0  0  0  0  0  0  0
    0.9750   12.6041    5.2849 H   0  0  0  0  0  0  0  0  0  0  0  0
    2.3521   12.1832    3.9103 C   0  0  0  0  0  0  0  0  0  0  0  0
    3.3833   12.9508    4.7031 C   0  0  2  0  0  0  0  0  0  0  0  0
    3.2101   12.4392    6.1379 C   0  0  0  0  0  0  0  0  0  0  0  0
    3.1419   13.3599    7.0136 O   0  0  0  0  0  0  0  0  0  0  0  0
    3.1394   11.1949    6.2576 O   0  5  0  0  0  0  0  0  0  0  0  0
   -0.1679   12.5644    3.5324 C   0  0  0  0  0  0  0  0  0  0  0  0
   -0.1155   13.0499    2.0793 C   0  0  0  0  0  0  0  0  0  0  0  0
    1.1949   12.8730    1.5448 O   0  0  0  0  0  0  0  0  0  0  0  0
    1.1225   12.9569    0.5757 H   0  0  0  0  0  0  0  0  0  0  0  0
  2  3  1  0  0  0  0
  2  7  1  0  0  0  0
  2  1  1  6  0  0  0
  3  4  1  0  0  0  0
  4  5  1  1  0  0  0
  4  6  1  0  0  0  0
  4 11  1  0  0  0  0
  6  7  1  0  0  0  0
  7  8  1  1  0  0  0
  8  9  2  0  0  0  0
  8 10  1  0  0  0  0
 11 12  1  0  0  0  0
 12 13  1  0  0  0  0
 13 14  1  0  0  0  0
M  CHG  2   4   1  10  -1
M  END
>  <CHROM.0>
-62.41080649,-42.00045083,-68.32145790,-47.38999341,56.29704143,-172.46273305
-67.52373362,62.64475112,-168.27767700

>  <CHROM.1>
60.53375192,-20.39376086,38.33777873,164.66917733,2.08399271,13.10346274
4.29588058,-0.70892875,-0.72211828,-0.82220951

>  <Name>
P129020650

>  <RI>
4.17015e+07

>  <Rbt.Current_Directory>
/home/fstefaniak/projects/zuza/docking/adenine/4XNR

>  <Rbt.Executable>
rbdock ($Id: //depot/dev/client3/rdock/2013.1/src/exe/rbdock.cxx#4 $)

>  <Rbt.Library>
libRbt.so (2013.1, Build901 2013/11/27)

>  <Rbt.Parameter_File>
/home/fstefaniak/progs/rDock//data/scripts/dock_solv.prm

>  <Rbt.Receptor>
4xnr.prm

>  <SCORE>
-38.6141

>  <SCORE.INTER>
-23.9251

>  <SCORE.INTER.CONST>
1

>  <SCORE.INTER.POLAR>
-3.76238

>  <SCORE.INTER.ROT>
3

>  <SCORE.INTER.SOLV>
17.0269

>  <SCORE.INTER.VDW>
-14.6844

>  <SCORE.INTER.norm>
-1.99376

>  <SCORE.INTRA>
2.8317

>  <SCORE.INTRA.DIHEDRAL>
1.58399

>  <SCORE.INTRA.DIHEDRAL.0>
2.26627

>  <SCORE.INTRA.POLAR>
0.510446

>  <SCORE.INTRA.POLAR.0>
-0.510446

>  <SCORE.INTRA.REPUL>
0

>  <SCORE.INTRA.REPUL.0>
0

>  <SCORE.INTRA.SOLV>
-0.966197

>  <SCORE.INTRA.SOLV.lig_0>
-40.4801

>  <SCORE.INTRA.VDW>
0.787281

>  <SCORE.INTRA.VDW.0>
1.46148

>  <SCORE.INTRA.norm>
0.235975

>  <SCORE.RESTR>
0

>  <SCORE.RESTR.CAVITY>
0

>  <SCORE.RESTR.norm>
0

>  <SCORE.SYSTEM>
-17.5207

>  <SCORE.SYSTEM.CONST>
0

>  <SCORE.SYSTEM.DIHEDRAL>
5.87283

>  <SCORE.SYSTEM.POLAR>
-2.95178

>  <SCORE.SYSTEM.SOLV>
-0.14709

>  <SCORE.SYSTEM.VDW>
-3.74979

>  <SCORE.SYSTEM.norm>
-1.46006

>  <SCORE.heavy>
12

>  <SCORE.norm>
-3.21784

$$$$
P129020650
 OpenBabel12072022113D
libRbt.so/2013.1/901 2013/11/27
 14 14  0  0  0  0  0  0  0  0999 V2000
    3.4329   11.7062    2.4691 C   0  0  0  0  0  0  0  0  0  0  0  0
    3.6610   12.4843    3.7646 C   0  0  1  0  0  0  0  0  0  0  0  0
    3.6529   13.9977    3.5080 C   0  0  0  0  0  0  0  0  0  0  0  0
    2.4659   14.5273    4.2600 N   0  3  2  0  0  0  0  0  0  0  0  0
    2.8557   14.6740    5.2323 H   0  0  0  0  0  0  0  0  0  0  0  0
    1.5524   13.3517    4.5141 C   0  0  0  0  0  0  0  0  0  0  0  0
    2.5375   12.2359    4.7709 C   0  0  2  0  0  0  0  0  0  0  0  0
    3.0242   12.4876    6.2027 C   0  0  0  0  0  0  0  0  0  0  0  0
    3.4148   13.6794    6.4173 O   0  0  0  0  0  0  0  0  0  0  0  0
    2.9561   11.5022    6.9722 O   0  5  0  0  0  0  0  0  0  0  0  0
    1.8715   15.7965    3.7659 C   0  0  0  0  0  0  0  0  0  0  0  0
    0.6944   16.2532    4.6353 C   0  0  0  0  0  0  0  0  0  0  0  0
   -0.0408   17.2807    3.9738 O   0  0  0  0  0  0  0  0  0  0  0  0
   -0.7589   17.5518    4.5756 H   0  0  0  0  0  0  0  0  0  0  0  0
  2  3  1  0  0  0  0
  2  7  1  0  0  0  0
  2  1  1  6  0  0  0
  3  4  1  0  0  0  0
  4  5  1  1  0  0  0
  4  6  1  0  0  0  0
  4 11  1  0  0  0  0
  6  7  1  0  0  0  0
  7  8  1  1  0  0  0
  8  9  2  0  0  0  0
  8 10  1  0  0  0  0
 11 12  1  0  0  0  0
 12 13  1  0  0  0  0
 13 14  1  0  0  0  0
M  CHG  2   4   1  10  -1
M  END
>  <CHROM.0>
-55.66288384,-61.21798711,-69.42955830,-45.80945051,58.53062749,-60.96967204
-68.93130980,-172.10929700,-167.77985422

>  <CHROM.1>
-178.44741659,61.13954535,-166.55004440,-178.44505068,2.39920404,13.83471015
4.62133572,-0.41250111,1.01000809,-1.32519467

>  <Name>
P129020650

>  <RI>
4.17015e+07

>  <Rbt.Current_Directory>
/home/fstefaniak/projects/zuza/docking/adenine/4XNR

>  <Rbt.Executable>
rbdock ($Id: //depot/dev/client3/rdock/2013.1/src/exe/rbdock.cxx#4 $)

>  <Rbt.Library>
libRbt.so (2013.1, Build901 2013/11/27)

>  <Rbt.Parameter_File>
/home/fstefaniak/progs/rDock//data/scripts/dock_solv.prm

>  <Rbt.Receptor>
4xnr.prm

>  <SCORE>
-34.5107

>  <SCORE.INTER>
-14.3402

>  <SCORE.INTER.CONST>
1

>  <SCORE.INTER.POLAR>
-2.63574

>  <SCORE.INTER.ROT>
3

>  <SCORE.INTER.SOLV>
19.8387

>  <SCORE.INTER.VDW>
-12.9872

>  <SCORE.INTER.norm>
-1.19502

>  <SCORE.INTRA>
-0.591014

>  <SCORE.INTRA.DIHEDRAL>
-0.483375

>  <SCORE.INTRA.DIHEDRAL.0>
2.26627

>  <SCORE.INTRA.POLAR>
0.0192411

>  <SCORE.INTRA.POLAR.0>
-0.510446

>  <SCORE.INTRA.REPUL>
0

>  <SCORE.INTRA.REPUL.0>
0

>  <SCORE.INTRA.SOLV>
-1.05821

>  <SCORE.INTRA.SOLV.lig_0>
-40.4801

>  <SCORE.INTRA.VDW>
0.114358

>  <SCORE.INTRA.VDW.0>
1.46148

>  <SCORE.INTRA.norm>
-0.0492512

>  <SCORE.RESTR>
0.25618

>  <SCORE.RESTR.CAVITY>
0.25618

>  <SCORE.RESTR.norm>
0.0213483

>  <SCORE.SYSTEM>
-19.8357

>  <SCORE.SYSTEM.CONST>
0

>  <SCORE.SYSTEM.DIHEDRAL>
4.85782

>  <SCORE.SYSTEM.POLAR>
-3.02066

>  <SCORE.SYSTEM.SOLV>
-0.0599314

>  <SCORE.SYSTEM.VDW>
-4.75421

>  <SCORE.SYSTEM.norm>
-1.65297

>  <SCORE.heavy>
12

>  <SCORE.norm>
-2.87589

$$$$
P129020650
 OpenBabel12072022113D
libRbt.so/2013.1/901 2013/11/27
 14 14  0  0  0  0  0  0  0  0999 V2000
    4.8911   15.7234    3.9501 C   0  0  0  0  0  0  0  0  0  0  0  0
    5.0548   17.0697    3.2454 C   0  0  1  0  0  0  0  0  0  0  0  0
    4.8991   18.2330    4.2348 C   0  0  0  0  0  0  0  0  0  0  0  0
    6.2362   18.9159    4.2670 N   0  3  2  0  0  0  0  0  0  0  0  0
    6.1756   19.5799    3.4458 H   0  0  0  0  0  0  0  0  0  0  0  0
    7.2435   17.9247    3.7340 C   0  0  0  0  0  0  0  0  0  0  0  0
    6.4554   17.2237    2.6529 C   0  0  2  0  0  0  0  0  0  0  0  0
    6.4471   18.2211    1.4886 C   0  0  0  0  0  0  0  0  0  0  0  0
    5.5122   18.0300    0.6469 O   0  0  0  0  0  0  0  0  0  0  0  0
    7.3408   19.0971    1.5278 O   0  5  0  0  0  0  0  0  0  0  0  0
    6.5701   19.6773    5.4986 C   0  0  0  0  0  0  0  0  0  0  0  0
    7.1349   18.7692    6.5969 C   0  0  0  0  0  0  0  0  0  0  0  0
    8.5129   18.4946    6.3528 O   0  0  0  0  0  0  0  0  0  0  0  0
    8.7567   17.7335    6.9120 H   0  0  0  0  0  0  0  0  0  0  0  0
  2  3  1  0  0  0  0
  2  7  1  0  0  0  0
  2  1  1  1  0  0  0
  3  4  1  0  0  0  0
  4  5  1  6  0  0  0
  4  6  1  0  0  0  0
  4 11  1  0  0  0  0
  6  7  1  0  0  0  0
  7  8  1  6  0  0  0
  8  9  2  0  0  0  0
  8 10  1  0  0  0  0
 11 12  1  0  0  0  0
 12 13  1  0  0  0  0
 13 14  1  0  0  0  0
M  CHG  2   4   1  10  -1
M  END
>  <CHROM.0>
-61.84030553,-59.37747801,-64.90917383,-46.09419346,-174.67680674,-65.17664085
-67.17413587,-50.06998946,-167.84280810

>  <CHROM.1>
83.47314180,-47.44753750,79.87395808,-164.33194036,6.39461931,18.13186110
3.70724024,2.02883730,-0.76573743,-1.44915029

>  <Name>
P129020650

>  <RI>
4.17015e+07

>  <Rbt.Current_Directory>
/home/fstefaniak/projects/zuza/docking/adenine/4XNR

>  <Rbt.Executable>
rbdock ($Id: //depot/dev/client3/rdock/2013.1/src/exe/rbdock.cxx#4 $)

>  <Rbt.Library>
libRbt.so (2013.1, Build901 2013/11/27)

>  <Rbt.Parameter_File>
/home/fstefaniak/progs/rDock//data/scripts/dock_solv.prm

>  <Rbt.Receptor>
4xnr.prm

>  <SCORE>
-33.52

>  <SCORE.INTER>
-16.6693

>  <SCORE.INTER.CONST>
1

>  <SCORE.INTER.POLAR>
-2.47021

>  <SCORE.INTER.ROT>
3

>  <SCORE.INTER.SOLV>
26.3193

>  <SCORE.INTER.VDW>
-17.252

>  <SCORE.INTER.norm>
-1.38911

>  <SCORE.INTRA>
3.85682

>  <SCORE.INTRA.DIHEDRAL>
2.13492

>  <SCORE.INTRA.DIHEDRAL.0>
2.26627

>  <SCORE.INTRA.POLAR>
0.510446

>  <SCORE.INTRA.POLAR.0>
-0.510446

>  <SCORE.INTRA.REPUL>
0

>  <SCORE.INTRA.REPUL.0>
0

>  <SCORE.INTRA.SOLV>
-1.67871

>  <SCORE.INTRA.SOLV.lig_0>
-40.4801

>  <SCORE.INTRA.VDW>
1.8932

>  <SCORE.INTRA.VDW.0>
1.46148

>  <SCORE.INTRA.norm>
0.321402

>  <SCORE.RESTR>
0

>  <SCORE.RESTR.CAVITY>
0

>  <SCORE.RESTR.norm>
0

>  <SCORE.SYSTEM>
-20.7075

>  <SCORE.SYSTEM.CONST>
0

>  <SCORE.SYSTEM.DIHEDRAL>
4.71991

>  <SCORE.SYSTEM.POLAR>
-3.01277

>  <SCORE.SYSTEM.SOLV>
0.114167

>  <SCORE.SYSTEM.VDW>
-5.37378

>  <SCORE.SYSTEM.norm>
-1.72562

>  <SCORE.heavy>
12

>  <SCORE.norm>
-2.79333

$$$$
P129061958
 OpenBabel12072022113D
libRbt.so/2013.1/901 2013/11/27
 14 14  0  0  0  0  0  0  0  0999 V2000
    4.6702   17.5665    2.1315 C   0  0  0  0  0  0  0  0  0  0  0  0
    5.6318   16.8536    3.0897 C   0  0  2  0  0  0  0  0  0  0  0  0
    5.1168   15.4590    3.5300 C   0  0  0  0  0  0  0  0  0  0  0  0
    3.7098   15.4602    3.9481 N   0  0  0  0  0  0  0  0  0  0  0  0
    5.9844   17.7063    4.2447 N   0  0  0  0  0  0  0  0  0  0  0  0
    5.0586   17.7060    5.3723 C   0  0  0  0  0  0  0  0  0  0  0  0
    5.7032   18.2241    6.6429 C   0  0  0  0  0  0  0  0  0  0  0  0
    6.3000   19.5752    6.3326 C   0  0  0  0  0  0  0  0  0  0  0  0
    7.1624   19.4906    5.1846 N   0  0  0  0  0  0  0  0  0  0  0  0
    6.9616   18.6746    4.1132 C   0  0  0  0  0  0  0  0  0  0  0  0
    7.6550   18.8337    3.1129 O   0  0  0  0  0  0  0  0  0  0  0  0
    3.6649   15.6269    4.9538 H   0  0  0  0  0  0  0  0  0  0  0  0
    3.3324   14.5220    3.8138 H   0  0  0  0  0  0  0  0  0  0  0  0
    7.8420   20.2207    5.0125 H   0  0  0  0  0  0  0  0  0  0  0  0
  2  3  1  0  0  0  0
  2  5  1  0  0  0  0
  2  1  1  1  0  0  0
  3  4  1  0  0  0  0
  4 12  1  0  0  0  0
  4 13  1  0  0  0  0
  5  6  1  0  0  0  0
  5 10  1  0  0  0  0
  6  7  1  0  0  0  0
  7  8  1  0  0  0  0
  8  9  1  0  0  0  0
  9 10  1  0  0  0  0
  9 14  1  0  0  0  0
 10 11  2  0  0  0  0
M  END
>  <CHROM.0>
-59.81520623,-60.46866453,-65.77737803,-48.33808617,-59.22656599,-63.24657999
-68.54261926,-55.95731291,-167.96768957

>  <CHROM.1>
-46.88323038,84.31692029,-91.24142037,5.79960519,17.76466819,4.32284601,-2.41885553
0.80366818,1.24764027

>  <Name>
P129061958

>  <RI>
3.02409e+07

>  <Rbt.Current_Directory>
/home/fstefaniak/projects/zuza/docking/adenine/4XNR

>  <Rbt.Executable>
rbdock ($Id: //depot/dev/client3/rdock/2013.1/src/exe/rbdock.cxx#4 $)

>  <Rbt.Library>
libRbt.so (2013.1, Build901 2013/11/27)

>  <Rbt.Parameter_File>
/home/fstefaniak/progs/rDock//data/scripts/dock_solv.prm

>  <Rbt.Receptor>
4xnr.prm

>  <SCORE>
-43.892

>  <SCORE.INTER>
-25.9212

>  <SCORE.INTER.CONST>
1

>  <SCORE.INTER.POLAR>
-3.1933

>  <SCORE.INTER.ROT>
3

>  <SCORE.INTER.SOLV>
13.1876

>  <SCORE.INTER.VDW>
-16.6323

>  <SCORE.INTER.norm>
-2.35647

>  <SCORE.INTRA>
2.92129

>  <SCORE.INTRA.DIHEDRAL>
2.29226

>  <SCORE.INTRA.DIHEDRAL.0>
2.71517

>  <SCORE.INTRA.POLAR>
0

>  <SCORE.INTRA.POLAR.0>
0

>  <SCORE.INTRA.REPUL>
0

>  <SCORE.INTRA.REPUL.0>
0

>  <SCORE.INTRA.SOLV>
0.257125

>  <SCORE.INTRA.SOLV.lig_0>
-15.1328

>  <SCORE.INTRA.VDW>
1.6466

>  <SCORE.INTRA.VDW.0>
-0.00798024

>  <SCORE.INTRA.norm>
0.265572

>  <SCORE.RESTR>
0

>  <SCORE.RESTR.CAVITY>
0

>  <SCORE.RESTR.norm>
0

>  <SCORE.SYSTEM>
-20.8921

>  <SCORE.SYSTEM.CONST>
0

>  <SCORE.SYSTEM.DIHEDRAL>
4.01254

>  <SCORE.SYSTEM.POLAR>
-2.96301

>  <SCORE.SYSTEM.SOLV>
0.281391

>  <SCORE.SYSTEM.VDW>
-5.48268

>  <SCORE.SYSTEM.norm>
-1.89928

>  <SCORE.heavy>
11

>  <SCORE.norm>
-3.99018

$$$$
P129061958
 OpenBabel12072022113D
libRbt.so/2013.1/901 2013/11/27
 14 14  0  0  0  0  0  0  0  0999 V2000
    4.6404   17.5580    2.1423 C   0  0  0  0  0  0  0  0  0  0  0  0
    5.6350   16.8534    3.0724 C   0  0  2  0  0  0  0  0  0  0  0  0
    5.1607   15.4404    3.4995 C   0  0  0  0  0  0  0  0  0  0  0  0
    3.7396   15.3854    3.8628 N   0  0  0  0  0  0  0  0  0  0  0  0
    5.9879   17.6965    4.2344 N   0  0  0  0  0  0  0  0  0  0  0  0
    5.0586   17.6924    5.3591 C   0  0  0  0  0  0  0  0  0  0  0  0
    5.7016   18.1987    6.6354 C   0  0  0  0  0  0  0  0  0  0  0  0
    6.3053   19.5492    6.3363 C   0  0  0  0  0  0  0  0  0  0  0  0
    7.1709   19.4688    5.1904 N   0  0  0  0  0  0  0  0  0  0  0  0
    6.9698   18.6612    4.1128 C   0  0  0  0  0  0  0  0  0  0  0  0
    7.6670   18.8242    3.1157 O   0  0  0  0  0  0  0  0  0  0  0  0
    3.6320   15.7130    4.8232 H   0  0  0  0  0  0  0  0  0  0  0  0
    3.4479   14.4081    3.8777 H   0  0  0  0  0  0  0  0  0  0  0  0
    7.8543   20.1970    5.0255 H   0  0  0  0  0  0  0  0  0  0  0  0
  2  3  1  0  0  0  0
  2  5  1  0  0  0  0
  2  1  1  1  0  0  0
  3  4  1  0  0  0  0
  4 12  1  0  0  0  0
  4 13  1  0  0  0  0
  5  6  1  0  0  0  0
  5 10  1  0  0  0  0
  6  7  1  0  0  0  0
  7  8  1  0  0  0  0
  8  9  1  0  0  0  0
  9 10  1  0  0  0  0
  9 14  1  0  0  0  0
 10 11  2  0  0  0  0
M  END
>  <CHROM.0>
-58.26145520,-62.46415921,-64.61222012,-47.87256797,-57.50487457,-64.49197397
-66.46091641,-59.32927546,-167.63848663

>  <CHROM.1>
-43.32563430,82.26856629,-81.40397023,5.80744457,17.74457161,4.31012158,-2.40971028
0.80564573,1.24756833

>  <Name>
P129061958

>  <RI>
3.02409e+07

>  <Rbt.Current_Directory>
/home/fstefaniak/projects/zuza/docking/adenine/4XNR

>  <Rbt.Executable>
rbdock ($Id: //depot/dev/client3/rdock/2013.1/src/exe/rbdock.cxx#4 $)

>  <Rbt.Library>
libRbt.so (2013.1, Build901 2013/11/27)

>  <Rbt.Parameter_File>
/home/fstefaniak/progs/rDock//data/scripts/dock_solv.prm

>  <Rbt.Receptor>
4xnr.prm

>  <SCORE>
-43.8862

>  <SCORE.INTER>
-25.7977

>  <SCORE.INTER.CONST>
1

>  <SCORE.INTER.POLAR>
-3.1933

>  <SCORE.INTER.ROT>
3

>  <SCORE.INTER.SOLV>
13.188

>  <SCORE.INTER.VDW>
-16.5501

>  <SCORE.INTER.norm>
-2.34524

>  <SCORE.INTRA>
2.79066

>  <SCORE.INTRA.DIHEDRAL>
2.05109

>  <SCORE.INTRA.DIHEDRAL.0>
2.71517

>  <SCORE.INTRA.POLAR>
0

>  <SCORE.INTRA.POLAR.0>
0

>  <SCORE.INTRA.REPUL>
0

>  <SCORE.INTRA.REPUL.0>
0

>  <SCORE.INTRA.SOLV>
0.233054

>  <SCORE.INTRA.SOLV.lig_0>
-15.1328

>  <SCORE.INTRA.VDW>
1.64858

>  <SCORE.INTRA.VDW.0>
-0.00798024

>  <SCORE.INTRA.norm>
0.253696

>  <SCORE.RESTR>
0

>  <SCORE.RESTR.CAVITY>
0

>  <SCORE.RESTR.norm>
0

>  <SCORE.SYSTEM>
-20.8792

>  <SCORE.SYSTEM.CONST>
0

>  <SCORE.SYSTEM.DIHEDRAL>
3.94185

>  <SCORE.SYSTEM.POLAR>
-2.97796

>  <SCORE.SYSTEM.SOLV>
0.286002

>  <SCORE.SYSTEM.VDW>
-5.40218

>  <SCORE.SYSTEM.norm>
-1.89811

>  <SCORE.heavy>
11

>  <SCORE.norm>
-3.98965

$$$$
P129061958
 OpenBabel12072022113D
libRbt.so/2013.1/901 2013/11/27
 14 14  0  0  0  0  0  0  0  0999 V2000
    4.6846   17.5739    2.1113 C   0  0  0  0  0  0  0  0  0  0  0  0
    5.6197   16.8550    3.0910 C   0  0  2  0  0  0  0  0  0  0  0  0
    5.0773   15.4715    3.5335 C   0  0  0  0  0  0  0  0  0  0  0  0
    3.6556   15.4899    3.8978 N   0  0  0  0  0  0  0  0  0  0  0  0
    5.9654   17.7119    4.2450 N   0  0  0  0  0  0  0  0  0  0  0  0
    5.0289   17.7217    5.3636 C   0  0  0  0  0  0  0  0  0  0  0  0
    5.6638   18.2432    6.6378 C   0  0  0  0  0  0  0  0  0  0  0  0
    6.2701   19.5898    6.3263 C   0  0  0  0  0  0  0  0  0  0  0  0
    7.1430   19.4952    5.1871 N   0  0  0  0  0  0  0  0  0  0  0  0
    6.9485   18.6748    4.1180 C   0  0  0  0  0  0  0  0  0  0  0  0
    7.6521   18.8255    3.1236 O   0  0  0  0  0  0  0  0  0  0  0  0
    3.5724   15.7134    4.8900 H   0  0  0  0  0  0  0  0  0  0  0  0
    3.2859   14.5438    3.8034 H   0  0  0  0  0  0  0  0  0  0  0  0
    7.8276   20.2212    5.0179 H   0  0  0  0  0  0  0  0  0  0  0  0
  2  3  1  0  0  0  0
  2  5  1  0  0  0  0
  2  1  1  1  0  0  0
  3  4  1  0  0  0  0
  4 12  1  0  0  0  0
  4 13  1  0  0  0  0
  5  6  1  0  0  0  0
  5 10  1  0  0  0  0
  6  7  1  0  0  0  0
  7  8  1  0  0  0  0
  8  9  1  0  0  0  0
  9 10  1  0  0  0  0
  9 14  1  0  0  0  0
 10 11  2  0  0  0  0
M  END
>  <CHROM.0>
-59.91613829,-60.80509362,-64.23868488,-45.76062624,-174.64845826,-62.84851207
-67.55984544,-56.70299112,-167.55595308

>  <CHROM.1>
-45.52792037,85.02389717,-88.79648430,5.77706218,17.77444365,4.31633266,-2.40656278
0.79093066,1.23618357

>  <Name>
P129061958

>  <RI>
3.02409e+07

>  <Rbt.Current_Directory>
/home/fstefaniak/projects/zuza/docking/adenine/4XNR

>  <Rbt.Executable>
rbdock ($Id: //depot/dev/client3/rdock/2013.1/src/exe/rbdock.cxx#4 $)

>  <Rbt.Library>
libRbt.so (2013.1, Build901 2013/11/27)

>  <Rbt.Parameter_File>
/home/fstefaniak/progs/rDock//data/scripts/dock_solv.prm

>  <Rbt.Receptor>
4xnr.prm

>  <SCORE>
-43.768

>  <SCORE.INTER>
-25.866

>  <SCORE.INTER.CONST>
1

>  <SCORE.INTER.POLAR>
-3.1933

>  <SCORE.INTER.ROT>
3

>  <SCORE.INTER.SOLV>
13.1648

>  <SCORE.INTER.VDW>
-16.588

>  <SCORE.INTER.norm>
-2.35145

>  <SCORE.INTRA>
2.97914

>  <SCORE.INTRA.DIHEDRAL>
2.25482

>  <SCORE.INTRA.DIHEDRAL.0>
2.71517

>  <SCORE.INTRA.POLAR>
0

>  <SCORE.INTRA.POLAR.0>
0

>  <SCORE.INTRA.REPUL>
0

>  <SCORE.INTRA.REPUL.0>
0

>  <SCORE.INTRA.SOLV>
0.251764

>  <SCORE.INTRA.SOLV.lig_0>
-15.1328

>  <SCORE.INTRA.VDW>
1.72585

>  <SCORE.INTRA.VDW.0>
-0.00798024

>  <SCORE.INTRA.norm>
0.270831

>  <SCORE.RESTR>
0

>  <SCORE.RESTR.CAVITY>
0

>  <SCORE.RESTR.norm>
0

>  <SCORE.SYSTEM>
-20.8812

>  <SCORE.SYSTEM.CONST>
0

>  <SCORE.SYSTEM.DIHEDRAL>
4.30445

>  <SCORE.SYSTEM.POLAR>
-3.0029

>  <SCORE.SYSTEM.SOLV>
0.116386

>  <SCORE.SYSTEM.VDW>
-5.38471

>  <SCORE.SYSTEM.norm>
-1.89829

>  <SCORE.heavy>
11

>  <SCORE.norm>
-3.97891

$$$$
P129144928
 OpenBabel12072022113D
libRbt.so/2013.1/901 2013/11/27
 17 17  0  0  0  0  0  0  0  0999 V2000
    2.8894   12.5306    2.7381 C   0  0  0  0  0  0  0  0  0  0  0  0
    3.2197   13.2880    3.9364 N   0  0  0  0  0  0  0  0  0  0  0  0
    3.6379   14.6310    3.7398 C   0  0  0  0  0  0  0  0  0  0  0  0
    5.0147   14.8551    3.5774 C   0  0  0  0  0  0  0  0  0  0  0  0
    5.5119   16.1459    3.4045 C   0  0  0  0  0  0  0  0  0  0  0  0
    4.6368   17.2259    3.3793 C   0  0  0  0  0  0  0  0  0  0  0  0
    3.2645   17.0128    3.5166 C   0  0  0  0  0  0  0  0  0  0  0  0
    2.7402   15.7158    3.6883 C   0  0  0  0  0  0  0  0  0  0  0  0
    1.2379   15.5626    3.7493 C   0  0  0  0  0  0  0  0  0  0  0  0
    0.6244   16.5303    4.6525 N   0  0  0  0  0  0  0  0  0  0  0  0
    2.8457   12.7567    5.1588 C   0  0  0  0  0  0  0  0  0  0  0  0
    2.2369   11.7011    5.3045 O   0  0  0  0  0  0  0  0  0  0  0  0
    3.2455   13.4532    6.2589 N   0  0  0  0  0  0  0  0  0  0  0  0
    1.0059   17.4494    4.4131 H   0  0  0  0  0  0  0  0  0  0  0  0
   -0.3728   16.5853    4.4593 H   0  0  0  0  0  0  0  0  0  0  0  0
    3.2222   14.4611    6.1808 H   0  0  0  0  0  0  0  0  0  0  0  0
    4.0760   13.0682    6.6912 H   0  0  0  0  0  0  0  0  0  0  0  0
  1  2  1  0  0  0  0
  2  3  1  0  0  0  0
  2 11  1  0  0  0  0
  3  4  2  0  0  0  0
  3  8  1  0  0  0  0
  4  5  1  0  0  0  0
  5  6  2  0  0  0  0
  6  7  1  0  0  0  0
  7  8  2  0  0  0  0
  8  9  1  0  0  0  0
  9 10  1  0  0  0  0
 10 14  1  0  0  0  0
 10 15  1  0  0  0  0
 11 12  2  0  0  0  0
 11 13  1  0  0  0  0
 13 16  1  0  0  0  0
 13 17  1  0  0  0  0
M  END
>  <CHROM.0>
-57.91017267,-179.08634943,60.15802257,-45.47171382,-173.95928346,-60.01460602
52.39888459,-59.20015489,-168.21285440

>  <CHROM.1>
-90.54964766,135.23609221,48.96927527,37.85771831,3.09443476,14.66959615
4.13103867,-1.80430066,0.27446553,-0.24135228

>  <Name>
P129144928

>  <RI>
9.71178e+06

>  <Rbt.Current_Directory>
/home/fstefaniak/projects/zuza/docking/adenine/4XNR

>  <Rbt.Executable>
rbdock ($Id: //depot/dev/client3/rdock/2013.1/src/exe/rbdock.cxx#4 $)

>  <Rbt.Library>
libRbt.so (2013.1, Build901 2013/11/27)

>  <Rbt.Parameter_File>
/home/fstefaniak/progs/rDock//data/scripts/dock_solv.prm

>  <Rbt.Receptor>
4xnr.prm

>  <SCORE>
-43.1317

>  <SCORE.INTER>
-28.8221

>  <SCORE.INTER.CONST>
1

>  <SCORE.INTER.POLAR>
-3.46258

>  <SCORE.INTER.ROT>
4

>  <SCORE.INTER.SOLV>
12.6092

>  <SCORE.INTER.VDW>
-18.1425

>  <SCORE.INTER.norm>
-2.21708

>  <SCORE.INTRA>
4.48207

>  <SCORE.INTRA.DIHEDRAL>
2.31679

>  <SCORE.INTRA.DIHEDRAL.0>
11.7313

>  <SCORE.INTRA.POLAR>
0.974363

>  <SCORE.INTRA.POLAR.0>
-0.974363

>  <SCORE.INTRA.REPUL>
0

>  <SCORE.INTRA.REPUL.0>
0

>  <SCORE.INTRA.SOLV>
-1.23864

>  <SCORE.INTRA.SOLV.lig_0>
-13.2392

>  <SCORE.INTRA.VDW>
0.63016

>  <SCORE.INTRA.VDW.0>
-2.02501

>  <SCORE.INTRA.norm>
0.344774

>  <SCORE.RESTR>
0

>  <SCORE.RESTR.CAVITY>
0

>  <SCORE.RESTR.norm>
0

>  <SCORE.SYSTEM>
-18.7917

>  <SCORE.SYSTEM.CONST>
0

>  <SCORE.SYSTEM.DIHEDRAL>
4.1676

>  <SCORE.SYSTEM.POLAR>
-2.99363

>  <SCORE.SYSTEM.SOLV>
0.00505983

>  <SCORE.SYSTEM.VDW>
-3.93993

>  <SCORE.SYSTEM.norm>
-1.44552

>  <SCORE.heavy>
13

>  <SCORE.norm>
-3.31783

$$$$
P129144928
 OpenBabel12072022113D
libRbt.so/2013.1/901 2013/11/27
 17 17  0  0  0  0  0  0  0  0999 V2000
    3.3394   12.1322    3.2974 C   0  0  0  0  0  0  0  0  0  0  0  0
    3.1510   12.9359    4.4963 N   0  0  0  0  0  0  0  0  0  0  0  0
    2.6323   14.2442    4.3049 C   0  0  0  0  0  0  0  0  0  0  0  0
    1.2758   14.4451    4.6077 C   0  0  0  0  0  0  0  0  0  0  0  0
    0.6811   15.6926    4.4244 C   0  0  0  0  0  0  0  0  0  0  0  0
    1.4392   16.7563    3.9484 C   0  0  0  0  0  0  0  0  0  0  0  0
    2.7936   16.5740    3.6661 C   0  0  0  0  0  0  0  0  0  0  0  0
    3.4158   15.3225    3.8480 C   0  0  0  0  0  0  0  0  0  0  0  0
    4.9029   15.2285    3.5956 C   0  0  0  0  0  0  0  0  0  0  0  0
    5.3882   16.3249    2.7644 N   0  0  0  0  0  0  0  0  0  0  0  0
    3.2203   12.2938    5.7207 C   0  0  0  0  0  0  0  0  0  0  0  0
    3.4093   11.0903    5.8683 O   0  0  0  0  0  0  0  0  0  0  0  0
    3.1220   13.0930    6.8193 N   0  0  0  0  0  0  0  0  0  0  0  0
    5.1406   17.1963    3.2410 H   0  0  0  0  0  0  0  0  0  0  0  0
    6.4048   16.3027    2.7384 H   0  0  0  0  0  0  0  0  0  0  0  0
    2.8389   14.0490    6.6508 H   0  0  0  0  0  0  0  0  0  0  0  0
    3.8914   12.9734    7.4662 H   0  0  0  0  0  0  0  0  0  0  0  0
  1  2  1  0  0  0  0
  2  3  1  0  0  0  0
  2 11  1  0  0  0  0
  3  4  2  0  0  0  0
  3  8  1  0  0  0  0
  4  5  1  0  0  0  0
  5  6  2  0  0  0  0
  6  7  1  0  0  0  0
  7  8  2  0  0  0  0
  8  9  1  0  0  0  0
  9 10  1  0  0  0  0
 10 14  1  0  0  0  0
 10 15  1  0  0  0  0
 11 12  2  0  0  0  0
 11 13  1  0  0  0  0
 13 16  1  0  0  0  0
 13 17  1  0  0  0  0
M  END
>  <CHROM.0>
-58.14641603,-177.55891994,-72.97444584,-46.89293598,-172.38162986,-59.68006816
-170.62486268,-58.43195360,-168.22556593

>  <CHROM.1>
102.96621642,162.69830466,57.24643008,10.87135289,3.05315702,14.26591432
4.43433114,-1.56718341,0.36208490,-0.44588825

>  <Name>
P129144928

>  <RI>
9.71178e+06

>  <Rbt.Current_Directory>
/home/fstefaniak/projects/zuza/docking/adenine/4XNR

>  <Rbt.Executable>
rbdock ($Id: //depot/dev/client3/rdock/2013.1/src/exe/rbdock.cxx#4 $)

>  <Rbt.Library>
libRbt.so (2013.1, Build901 2013/11/27)

>  <Rbt.Parameter_File>
/home/fstefaniak/progs/rDock//data/scripts/dock_solv.prm

>  <Rbt.Receptor>
4xnr.prm

>  <SCORE>
-42.6096

>  <SCORE.INTER>
-27.1354

>  <SCORE.INTER.CONST>
1

>  <SCORE.INTER.POLAR>
-3.08523

>  <SCORE.INTER.ROT>
4

>  <SCORE.INTER.SOLV>
12.319

>  <SCORE.INTER.VDW>
-18.1791

>  <SCORE.INTER.norm>
-2.08734

>  <SCORE.INTRA>
4.66548

>  <SCORE.INTRA.DIHEDRAL>
0.787846

>  <SCORE.INTRA.DIHEDRAL.0>
11.7313

>  <SCORE.INTRA.POLAR>
0.974363

>  <SCORE.INTRA.POLAR.0>
-0.974363

>  <SCORE.INTRA.REPUL>
0

>  <SCORE.INTRA.REPUL.0>
0

>  <SCORE.INTRA.SOLV>
-1.36413

>  <SCORE.INTRA.SOLV.lig_0>
-13.2392

>  <SCORE.INTRA.VDW>
1.64079

>  <SCORE.INTRA.VDW.0>
-2.02501

>  <SCORE.INTRA.norm>
0.358883

>  <SCORE.RESTR>
0

>  <SCORE.RESTR.CAVITY>
0

>  <SCORE.RESTR.norm>
0

>  <SCORE.SYSTEM>
-20.1397

>  <SCORE.SYSTEM.CONST>
0

>  <SCORE.SYSTEM.DIHEDRAL>
4.99078

>  <SCORE.SYSTEM.POLAR>
-2.97205

>  <SCORE.SYSTEM.SOLV>
0.0408358

>  <SCORE.SYSTEM.VDW>
-5.19686

>  <SCORE.SYSTEM.norm>
-1.54921

>  <SCORE.heavy>
13

>  <SCORE.norm>
-3.27766

$$$$
P129144928
 OpenBabel12072022113D
libRbt.so/2013.1/901 2013/11/27
 17 17  0  0  0  0  0  0  0  0999 V2000
    2.9971   12.3479    2.7270 C   0  0  0  0  0  0  0  0  0  0  0  0
    3.3494   13.1006    3.9220 N   0  0  0  0  0  0  0  0  0  0  0  0
    3.6665   14.4722    3.7341 C   0  0  0  0  0  0  0  0  0  0  0  0
    5.0218   14.7979    3.5625 C   0  0  0  0  0  0  0  0  0  0  0  0
    5.4218   16.1230    3.3973 C   0  0  0  0  0  0  0  0  0  0  0  0
    4.4698   17.1362    3.3890 C   0  0  0  0  0  0  0  0  0  0  0  0
    3.1181   16.8221    3.5356 C   0  0  0  0  0  0  0  0  0  0  0  0
    2.6915   15.4889    3.6998 C   0  0  0  0  0  0  0  0  0  0  0  0
    1.2050   15.2256    3.7717 C   0  0  0  0  0  0  0  0  0  0  0  0
    0.5036   16.2487    4.5397 N   0  0  0  0  0  0  0  0  0  0  0  0
    3.0855   12.5204    5.1508 C   0  0  0  0  0  0  0  0  0  0  0  0
    2.5567   11.4240    5.3062 O   0  0  0  0  0  0  0  0  0  0  0  0
    3.5050   13.2191    6.2423 N   0  0  0  0  0  0  0  0  0  0  0  0
   -0.4929   16.1557    4.3251 H   0  0  0  0  0  0  0  0  0  0  0  0
    0.5934   16.0446    5.5322 H   0  0  0  0  0  0  0  0  0  0  0  0
    3.6312   14.2140    6.1128 H   0  0  0  0  0  0  0  0  0  0  0  0
    4.2407   12.7491    6.7546 H   0  0  0  0  0  0  0  0  0  0  0  0
  1  2  1  0  0  0  0
  2  3  1  0  0  0  0
  2 11  1  0  0  0  0
  3  4  2  0  0  0  0
  3  8  1  0  0  0  0
  4  5  1  0  0  0  0
  5  6  2  0  0  0  0
  6  7  1  0  0  0  0
  7  8  2  0  0  0  0
  8  9  1  0  0  0  0
  9 10  1  0  0  0  0
 10 14  1  0  0  0  0
 10 15  1  0  0  0  0
 11 12  2  0  0  0  0
 11 13  1  0  0  0  0
 13 16  1  0  0  0  0
 13 17  1  0  0  0  0
M  END
>  <CHROM.0>
-56.03833372,66.03356845,-62.37069689,-47.53792097,-58.29003646,-62.14906144
-66.92702279,-58.71912126,-167.03360437

>  <CHROM.1>
-93.62929345,143.18225075,164.34550047,23.08634761,3.13655153,14.46683147
4.12661161,-1.69409395,0.22104083,-0.26951346

>  <Name>
P129144928

>  <RI>
9.71178e+06

>  <Rbt.Current_Directory>
/home/fstefaniak/projects/zuza/docking/adenine/4XNR

>  <Rbt.Executable>
rbdock ($Id: //depot/dev/client3/rdock/2013.1/src/exe/rbdock.cxx#4 $)

>  <Rbt.Library>
libRbt.so (2013.1, Build901 2013/11/27)

>  <Rbt.Parameter_File>
/home/fstefaniak/progs/rDock//data/scripts/dock_solv.prm

>  <Rbt.Receptor>
4xnr.prm

>  <SCORE>
-42.1012

>  <SCORE.INTER>
-26.9342

>  <SCORE.INTER.CONST>
1

>  <SCORE.INTER.POLAR>
-3.52387

>  <SCORE.INTER.ROT>
4

>  <SCORE.INTER.SOLV>
12.5791

>  <SCORE.INTER.VDW>
-16.6696

>  <SCORE.INTER.norm>
-2.07186

>  <SCORE.INTRA>
4.50261

>  <SCORE.INTRA.DIHEDRAL>
2.63941

>  <SCORE.INTRA.DIHEDRAL.0>
11.7313

>  <SCORE.INTRA.POLAR>
0.974363

>  <SCORE.INTRA.POLAR.0>
-0.974363

>  <SCORE.INTRA.REPUL>
0

>  <SCORE.INTRA.REPUL.0>
0

>  <SCORE.INTRA.SOLV>
-1.3666

>  <SCORE.INTRA.SOLV.lig_0>
-13.2392

>  <SCORE.INTRA.VDW>
0.553375

>  <SCORE.INTRA.VDW.0>
-2.02501

>  <SCORE.INTRA.norm>
0.346355

>  <SCORE.RESTR>
0.0534146

>  <SCORE.RESTR.CAVITY>
0.0534146

>  <SCORE.RESTR.norm>
0.00410882

>  <SCORE.SYSTEM>
-19.723

>  <SCORE.SYSTEM.CONST>
0

>  <SCORE.SYSTEM.DIHEDRAL>
4.1226

>  <SCORE.SYSTEM.POLAR>
-3.00311

>  <SCORE.SYSTEM.SOLV>
0.348002

>  <SCORE.SYSTEM.VDW>
-4.62853

>  <SCORE.SYSTEM.norm>
-1.51716

>  <SCORE.heavy>
13

>  <SCORE.norm>
-3.23856

$$$$
P129488019
 OpenBabel12072022113D
libRbt.so/2013.1/901 2013/11/27
 17 17  0  0  0  0  0  0  0  0999 V2000
   -0.5590   12.6081    3.6685 C   0  0  0  0  0  0  0  0  0  0  0  0
    0.8314   13.2021    3.4887 C   0  0  0  0  0  0  0  0  0  0  0  0
    1.2824   14.0833    4.6727 C   0  0  1  0  0  0  0  0  0  0  0  0
    2.7966   14.0403    4.9348 C   0  0  0  0  0  0  0  0  0  0  0  0
    3.6061   14.7490    3.8512 C   0  0  0  0  0  0  0  0  0  0  0  0
    3.1387   16.1880    3.6492 C   0  0  0  0  0  0  0  0  0  0  0  0
    1.6297   16.2755    3.3860 C   0  0  1  0  0  0  0  0  0  0  0  0
    0.8344   15.5430    4.4752 C   0  0  0  0  0  0  0  0  0  0  0  0
    1.1983   17.6659    3.3129 N   0  0  0  0  0  0  0  0  0  0  0  0
    1.5748   18.4718    2.2655 C   0  0  0  0  0  0  0  0  0  0  0  0
    2.0287   18.0710    1.2000 O   0  0  0  0  0  0  0  0  0  0  0  0
    1.3690   19.8149    2.5567 N   0  0  0  0  0  0  0  0  0  0  0  0
    0.3242   20.5014    1.8878 N   0  0  0  0  0  0  0  0  0  0  0  0
    1.0452   18.1445    4.1888 H   0  0  0  0  0  0  0  0  0  0  0  0
    1.5766   20.1054    3.5080 H   0  0  0  0  0  0  0  0  0  0  0  0
    0.3523   20.1931    0.9063 H   0  0  0  0  0  0  0  0  0  0  0  0
    0.6106   21.4837    1.8238 H   0  0  0  0  0  0  0  0  0  0  0  0
  1  2  1  0  0  0  0
  3  2  1  6  0  0  0
  3  4  1  0  0  0  0
  3  8  1  0  0  0  0
  4  5  1  0  0  0  0
  5  6  1  0  0  0  0
  6  7  1  0  0  0  0
  7  8  1  0  0  0  0
  7  9  1  1  0  0  0
  9 10  1  0  0  0  0
  9 14  1  0  0  0  0
 10 11  2  0  0  0  0
 10 12  1  0  0  0  0
 12 13  1  0  0  0  0
 12 15  1  0  0  0  0
 13 16  1  0  0  0  0
 13 17  1  0  0  0  0
M  END
>  <CHROM.0>
-58.99868243,178.85094175,-65.25414373,-48.45842193,-57.46952683,-63.08951511
-70.32530531,-60.50592677,-167.53354390

>  <CHROM.1>
147.48216311,68.90148249,16.38488895,-109.02138848,-41.59821404,1.52315924
16.31456560,3.30210439,1.55240930,0.21261001,2.80721451

>  <Name>
P129488019

>  <RI>
9.71178e+06

>  <Rbt.Current_Directory>
/home/fstefaniak/projects/zuza/docking/adenine/4XNR

>  <Rbt.Executable>
rbdock ($Id: //depot/dev/client3/rdock/2013.1/src/exe/rbdock.cxx#4 $)

>  <Rbt.Library>
libRbt.so (2013.1, Build901 2013/11/27)

>  <Rbt.Parameter_File>
/home/fstefaniak/progs/rDock//data/scripts/dock_solv.prm

>  <Rbt.Receptor>
4xnr.prm

>  <SCORE>
-46.0911

>  <SCORE.INTER>
-26.4105

>  <SCORE.INTER.CONST>
1

>  <SCORE.INTER.POLAR>
-3.52983

>  <SCORE.INTER.ROT>
5

>  <SCORE.INTER.SOLV>
16.1671

>  <SCORE.INTER.VDW>
-18.1633

>  <SCORE.INTER.norm>
-2.03158

>  <SCORE.INTRA>
0.993313

>  <SCORE.INTRA.DIHEDRAL>
2.8425

>  <SCORE.INTRA.DIHEDRAL.0>
2.43994

>  <SCORE.INTRA.POLAR>
0

>  <SCORE.INTRA.POLAR.0>
0

>  <SCORE.INTRA.REPUL>
0

>  <SCORE.INTRA.REPUL.0>
0

>  <SCORE.INTRA.SOLV>
0.0657847

>  <SCORE.INTRA.SOLV.lig_0>
-16.3484

>  <SCORE.INTRA.VDW>
-0.46083

>  <SCORE.INTRA.VDW.0>
-0.283051

>  <SCORE.INTRA.norm>
0.0764087

>  <SCORE.RESTR>
0

>  <SCORE.RESTR.CAVITY>
0

>  <SCORE.RESTR.norm>
0

>  <SCORE.SYSTEM>
-20.6739

>  <SCORE.SYSTEM.CONST>
0

>  <SCORE.SYSTEM.DIHEDRAL>
4.12557

>  <SCORE.SYSTEM.POLAR>
-2.96088

>  <SCORE.SYSTEM.SOLV>
0.256568

>  <SCORE.SYSTEM.VDW>
-5.3737

>  <SCORE.SYSTEM.norm>
-1.5903

>  <SCORE.heavy>
13

>  <SCORE.norm>
-3.54547

$$$$
P129488019
 OpenBabel12072022113D
libRbt.so/2013.1/901 2013/11/27
 17 17  0  0  0  0  0  0  0  0999 V2000
    5.9675   18.6900    4.9785 C   0  0  0  0  0  0  0  0  0  0  0  0
    5.2940   17.3284    5.0833 C   0  0  0  0  0  0  0  0  0  0  0  0
    5.1215   16.6206    3.7227 C   0  0  1  0  0  0  0  0  0  0  0  0
    4.8291   15.1159    3.8406 C   0  0  0  0  0  0  0  0  0  0  0  0
    3.4326   14.8244    4.3850 C   0  0  0  0  0  0  0  0  0  0  0  0
    2.3504   15.5167    3.5606 C   0  0  0  0  0  0  0  0  0  0  0  0
    2.6062   17.0228    3.4171 C   0  0  1  0  0  0  0  0  0  0  0  0
    4.0199   17.2960    2.8858 C   0  0  0  0  0  0  0  0  0  0  0  0
    1.6215   17.6314    2.5314 N   0  0  0  0  0  0  0  0  0  0  0  0
    1.9454   18.7105    1.7445 C   0  0  0  0  0  0  0  0  0  0  0  0
    2.5112   18.6428    0.6595 O   0  0  0  0  0  0  0  0  0  0  0  0
    1.5420   19.9056    2.3277 N   0  0  0  0  0  0  0  0  0  0  0  0
    0.3898   20.5546    1.8163 N   0  0  0  0  0  0  0  0  0  0  0  0
    0.6553   17.5868    2.8214 H   0  0  0  0  0  0  0  0  0  0  0  0
    1.7229   20.0036    3.3228 H   0  0  0  0  0  0  0  0  0  0  0  0
    0.3609   20.3492    0.8082 H   0  0  0  0  0  0  0  0  0  0  0  0
    0.5853   21.5608    1.8357 H   0  0  0  0  0  0  0  0  0  0  0  0
  1  2  1  0  0  0  0
  3  2  1  1  0  0  0
  3  4  1  0  0  0  0
  3  8  1  0  0  0  0
  4  5  1  0  0  0  0
  5  6  1  0  0  0  0
  6  7  1  0  0  0  0
  7  8  1  0  0  0  0
  7  9  1  6  0  0  0
  9 10  1  0  0  0  0
  9 14  1  0  0  0  0
 10 11  2  0  0  0  0
 10 12  1  0  0  0  0
 12 13  1  0  0  0  0
 12 15  1  0  0  0  0
 13 16  1  0  0  0  0
 13 17  1  0  0  0  0
M  END
>  <CHROM.0>
-56.01104825,-64.81889071,-64.90274779,-47.53888999,-59.33919027,-64.28491805
-65.83884706,-169.42271301,-167.41162768

>  <CHROM.1>
163.30666563,-148.21643099,82.41698857,-104.10759009,-32.41392368,3.16560921
17.59117428,3.12394546,-0.73861884,-0.54230929,-0.15565572

>  <Name>
P129488019

>  <RI>
9.71178e+06

>  <Rbt.Current_Directory>
/home/fstefaniak/projects/zuza/docking/adenine/4XNR

>  <Rbt.Executable>
rbdock ($Id: //depot/dev/client3/rdock/2013.1/src/exe/rbdock.cxx#4 $)

>  <Rbt.Library>
libRbt.so (2013.1, Build901 2013/11/27)

>  <Rbt.Parameter_File>
/home/fstefaniak/progs/rDock//data/scripts/dock_solv.prm

>  <Rbt.Receptor>
4xnr.prm

>  <SCORE>
-45.1344

>  <SCORE.INTER>
-25.9004

>  <SCORE.INTER.CONST>
1

>  <SCORE.INTER.POLAR>
-3.64904

>  <SCORE.INTER.ROT>
5

>  <SCORE.INTER.SOLV>
16.5826

>  <SCORE.INTER.VDW>
-17.5643

>  <SCORE.INTER.norm>
-1.99234

>  <SCORE.INTRA>
1.47441

>  <SCORE.INTRA.DIHEDRAL>
0.839253

>  <SCORE.INTRA.DIHEDRAL.0>
2.43994

>  <SCORE.INTRA.POLAR>
0

>  <SCORE.INTRA.POLAR.0>
0

>  <SCORE.INTRA.REPUL>
0

>  <SCORE.INTRA.REPUL.0>
0

>  <SCORE.INTRA.SOLV>
0.404989

>  <SCORE.INTRA.SOLV.lig_0>
-16.3484

>  <SCORE.INTRA.VDW>
0.852286

>  <SCORE.INTRA.VDW.0>
-0.283051

>  <SCORE.INTRA.norm>
0.113416

>  <SCORE.RESTR>
0

>  <SCORE.RESTR.CAVITY>
0

>  <SCORE.RESTR.norm>
0

>  <SCORE.SYSTEM>
-20.7085

>  <SCORE.SYSTEM.CONST>
0

>  <SCORE.SYSTEM.DIHEDRAL>
4.57783

>  <SCORE.SYSTEM.POLAR>
-2.99838

>  <SCORE.SYSTEM.SOLV>
0.150056

>  <SCORE.SYSTEM.VDW>
-5.387

>  <SCORE.SYSTEM.norm>
-1.59296

>  <SCORE.heavy>
13

>  <SCORE.norm>
-3.47188

$$$$
P129488019
 OpenBabel12072022113D
libRbt.so/2013.1/901 2013/11/27
 17 17  0  0  0  0  0  0  0  0999 V2000
    3.0832   11.9945    5.9758 C   0  0  0  0  0  0  0  0  0  0  0  0
    3.4365   13.3931    5.4881 C   0  0  0  0  0  0  0  0  0  0  0  0
    3.0229   13.6577    4.0250 C   0  0  1  0  0  0  0  0  0  0  0  0
    1.5181   13.9149    3.8441 C   0  0  0  0  0  0  0  0  0  0  0  0
    1.0740   15.2603    4.4135 C   0  0  0  0  0  0  0  0  0  0  0  0
    1.8875   16.4141    3.8330 C   0  0  0  0  0  0  0  0  0  0  0  0
    3.3979   16.1954    3.9919 C   0  0  1  0  0  0  0  0  0  0  0  0
    3.8219   14.8317    3.4302 C   0  0  0  0  0  0  0  0  0  0  0  0
    4.1455   17.2554    3.3271 N   0  0  0  0  0  0  0  0  0  0  0  0
    5.5152   17.2039    3.2289 C   0  0  0  0  0  0  0  0  0  0  0  0
    6.1360   16.4990    2.4417 O   0  0  0  0  0  0  0  0  0  0  0  0
    6.1236   18.0648    4.1344 N   0  0  0  0  0  0  0  0  0  0  0  0
    7.3548   18.6685    3.7738 N   0  0  0  0  0  0  0  0  0  0  0  0
    3.7529   18.1850    3.3638 H   0  0  0  0  0  0  0  0  0  0  0  0
    5.5011   18.6059    4.7278 H   0  0  0  0  0  0  0  0  0  0  0  0
    8.0440   17.9076    3.7009 H   0  0  0  0  0  0  0  0  0  0  0  0
    7.6796   19.1888    4.5952 H   0  0  0  0  0  0  0  0  0  0  0  0
  1  2  1  0  0  0  0
  3  2  1  1  0  0  0
  3  4  1  0  0  0  0
  3  8  1  0  0  0  0
  4  5  1  0  0  0  0
  5  6  1  0  0  0  0
  6  7  1  0  0  0  0
  7  8  1  0  0  0  0
  7  9  1  6  0  0  0
  9 10  1  0  0  0  0
  9 14  1  0  0  0  0
 10 11  2  0  0  0  0
 10 12  1  0  0  0  0
 12 13  1  0  0  0  0
 12 15  1  0  0  0  0
 13 16  1  0  0  0  0
 13 17  1  0  0  0  0
M  END
>  <CHROM.0>
-59.01251746,-63.28199444,63.37776619,-43.73062561,-175.07172811,-55.42921812
56.20002684,-56.93441436,-168.07909332

>  <CHROM.1>
76.47186721,-173.87296298,76.72876908,-147.93486764,-65.64731015,3.94582504
15.68344227,3.99764579,-2.29714358,-0.09969333,-0.38266072

>  <Name>
P129488019

>  <RI>
9.71178e+06

>  <Rbt.Current_Directory>
/home/fstefaniak/projects/zuza/docking/adenine/4XNR

>  <Rbt.Executable>
rbdock ($Id: //depot/dev/client3/rdock/2013.1/src/exe/rbdock.cxx#4 $)

>  <Rbt.Library>
libRbt.so (2013.1, Build901 2013/11/27)

>  <Rbt.Parameter_File>
/home/fstefaniak/progs/rDock//data/scripts/dock_solv.prm

>  <Rbt.Receptor>
4xnr.prm

>  <SCORE>
-44.9759

>  <SCORE.INTER>
-26.4601

>  <SCORE.INTER.CONST>
1

>  <SCORE.INTER.POLAR>
-2.75333

>  <SCORE.INTER.ROT>
5

>  <SCORE.INTER.SOLV>
12.6545

>  <SCORE.INTER.VDW>
-19.6138

>  <SCORE.INTER.norm>
-2.03539

>  <SCORE.INTRA>
0.159381

>  <SCORE.INTRA.DIHEDRAL>
0.513698

>  <SCORE.INTRA.DIHEDRAL.0>
2.43994

>  <SCORE.INTRA.POLAR>
0

>  <SCORE.INTRA.POLAR.0>
0

>  <SCORE.INTRA.REPUL>
0

>  <SCORE.INTRA.REPUL.0>
0

>  <SCORE.INTRA.SOLV>
0.0647753

>  <SCORE.INTRA.SOLV.lig_0>
-16.3484

>  <SCORE.INTRA.VDW>
-0.129855

>  <SCORE.INTRA.VDW.0>
-0.283051

>  <SCORE.INTRA.norm>
0.0122601

>  <SCORE.RESTR>
0

>  <SCORE.RESTR.CAVITY>
0

>  <SCORE.RESTR.norm>
0

>  <SCORE.SYSTEM>
-18.6752

>  <SCORE.SYSTEM.CONST>
0

>  <SCORE.SYSTEM.DIHEDRAL>
4.38044

>  <SCORE.SYSTEM.POLAR>
-3.04448

>  <SCORE.SYSTEM.SOLV>
0.0327971

>  <SCORE.SYSTEM.VDW>
-3.7729

>  <SCORE.SYSTEM.norm>
-1.43655

>  <SCORE.heavy>
13

>  <SCORE.norm>
-3.45968

$$$$
P129531989
 OpenBabel12072022113D
libRbt.so/2013.1/901 2013/11/27
 15 16  0  0  0  0  0  0  0  0999 V2000
    5.0720   17.5811    5.3242 C   0  0  0  0  0  0  0  0  0  0  0  0
    4.8367   17.1250    4.0251 C   0  0  0  0  0  0  0  0  0  0  0  0
    5.4951   17.7188    2.9515 C   0  0  0  0  0  0  0  0  0  0  0  0
    6.4146   18.7475    3.1776 C   0  0  0  0  0  0  0  0  0  0  0  0
    6.6394   19.2142    4.4724 C   0  0  0  0  0  0  0  0  0  0  0  0
    5.9645   18.6389    5.5598 C   0  0  0  0  0  0  0  0  0  0  0  0
    6.2241   19.1217    6.9661 C   0  0  0  0  0  0  0  0  0  0  0  0
    7.4812   18.5709    7.4802 N   0  0  0  0  0  0  0  0  0  0  0  0
    8.4794   18.8731    6.4655 O   0  0  0  0  0  0  0  0  0  0  0  0
    7.1291   19.3514    2.1737 O   0  0  0  0  0  0  0  0  0  0  0  0
    7.0836   18.5800    0.9680 C   0  0  0  0  0  0  0  0  0  0  0  0
    5.6642   18.1210    0.6780 C   0  0  0  0  0  0  0  0  0  0  0  0
    5.2002   17.2344    1.7023 O   0  0  0  0  0  0  0  0  0  0  0  0
    7.4237   17.5499    7.4368 H   0  0  0  0  0  0  0  0  0  0  0  0
    8.7699   19.7672    6.7334 H   0  0  0  0  0  0  0  0  0  0  0  0
  1  2  2  0  0  0  0
  1  6  1  0  0  0  0
  2  3  1  0  0  0  0
  3  4  2  0  0  0  0
  3 13  1  0  0  0  0
  4  5  1  0  0  0  0
  4 10  1  0  0  0  0
  5  6  2  0  0  0  0
  6  7  1  0  0  0  0
  7  8  1  0  0  0  0
  8  9  1  0  0  0  0
  8 14  1  0  0  0  0
  9 15  1  0  0  0  0
 10 11  1  0  0  0  0
 11 12  1  0  0  0  0
 12 13  1  0  0  0  0
M  END
>  <CHROM.0>
-62.59822259,-67.38910106,-73.06189574,-48.62101088,-178.40537944,-65.14638914
-172.03756844,-64.64099830,-167.36713829

>  <CHROM.1>
100.11482047,51.64562866,87.17531154,6.34842092,18.38892780,4.00489604,1.32260228
0.55908091,1.58618706

>  <Name>
P129531989

>  <RI>
4.17015e+07

>  <Rbt.Current_Directory>
/home/fstefaniak/projects/zuza/docking/adenine/4XNR

>  <Rbt.Executable>
rbdock ($Id: //depot/dev/client3/rdock/2013.1/src/exe/rbdock.cxx#4 $)

>  <Rbt.Library>
libRbt.so (2013.1, Build901 2013/11/27)

>  <Rbt.Parameter_File>
/home/fstefaniak/progs/rDock//data/scripts/dock_solv.prm

>  <Rbt.Receptor>
4xnr.prm

>  <SCORE>
-48.7654

>  <SCORE.INTER>
-29.5221

>  <SCORE.INTER.CONST>
1

>  <SCORE.INTER.POLAR>
-4.83176

>  <SCORE.INTER.ROT>
2

>  <SCORE.INTER.SOLV>
15.2561

>  <SCORE.INTER.VDW>
-13.5943

>  <SCORE.INTER.norm>
-2.27093

>  <SCORE.INTRA>
1.08519

>  <SCORE.INTRA.DIHEDRAL>
-0.504108

>  <SCORE.INTRA.DIHEDRAL.0>
1.58789

>  <SCORE.INTRA.POLAR>
0

>  <SCORE.INTRA.POLAR.0>
0

>  <SCORE.INTRA.REPUL>
0

>  <SCORE.INTRA.REPUL.0>
0

>  <SCORE.INTRA.SOLV>
1.09346

>  <SCORE.INTRA.SOLV.lig_0>
-15.573

>  <SCORE.INTRA.VDW>
0.790511

>  <SCORE.INTRA.VDW.0>
-0.648946

>  <SCORE.INTRA.norm>
0.083476

>  <SCORE.RESTR>
0

>  <SCORE.RESTR.CAVITY>
0

>  <SCORE.RESTR.norm>
0

>  <SCORE.SYSTEM>
-20.3285

>  <SCORE.SYSTEM.CONST>
0

>  <SCORE.SYSTEM.DIHEDRAL>
4.99464

>  <SCORE.SYSTEM.POLAR>
-2.91628

>  <SCORE.SYSTEM.SOLV>
0.0259046

>  <SCORE.SYSTEM.VDW>
-5.5049

>  <SCORE.SYSTEM.norm>
-1.56373

>  <SCORE.heavy>
13

>  <SCORE.norm>
-3.75119

$$$$
P129531989
 OpenBabel12072022113D
libRbt.so/2013.1/901 2013/11/27
 15 16  0  0  0  0  0  0  0  0999 V2000
    5.0807   17.5647    5.3824 C   0  0  0  0  0  0  0  0  0  0  0  0
    4.8402   17.1145    4.0822 C   0  0  0  0  0  0  0  0  0  0  0  0
    5.5035   17.7048    3.0097 C   0  0  0  0  0  0  0  0  0  0  0  0
    6.4330   18.7240    3.2380 C   0  0  0  0  0  0  0  0  0  0  0  0
    6.6632   19.1850    4.5339 C   0  0  0  0  0  0  0  0  0  0  0  0
    5.9835   18.6132    5.6202 C   0  0  0  0  0  0  0  0  0  0  0  0
    6.2487   19.0897    7.0276 C   0  0  0  0  0  0  0  0  0  0  0  0
    7.5248   18.5648    7.5216 N   0  0  0  0  0  0  0  0  0  0  0  0
    8.4956   18.8650    6.4800 O   0  0  0  0  0  0  0  0  0  0  0  0
    7.1526   19.3238    2.2353 O   0  0  0  0  0  0  0  0  0  0  0  0
    7.0988   18.5562    1.0275 C   0  0  0  0  0  0  0  0  0  0  0  0
    5.6749   18.1116    0.7372 C   0  0  0  0  0  0  0  0  0  0  0  0
    5.2031   17.2267    1.7595 O   0  0  0  0  0  0  0  0  0  0  0  0
    7.4810   17.5424    7.4951 H   0  0  0  0  0  0  0  0  0  0  0  0
    8.7433   19.7848    6.6992 H   0  0  0  0  0  0  0  0  0  0  0  0
  1  2  2  0  0  0  0
  1  6  1  0  0  0  0
  2  3  1  0  0  0  0
  3  4  2  0  0  0  0
  3 13  1  0  0  0  0
  4  5  1  0  0  0  0
  4 10  1  0  0  0  0
  5  6  2  0  0  0  0
  6  7  1  0  0  0  0
  7  8  1  0  0  0  0
  8  9  1  0  0  0  0
  8 14  1  0  0  0  0
  9 15  1  0  0  0  0
 10 11  1  0  0  0  0
 11 12  1  0  0  0  0
 12 13  1  0  0  0  0
M  END
>  <CHROM.0>
-58.28713973,55.39421670,-64.74302696,-48.26251318,-57.02263805,-68.32429234
-69.88079430,-59.75174005,-168.08376109

>  <CHROM.1>
102.17844509,50.02184978,84.24675558,6.36527411,18.37139425,4.05852726,1.32022178
0.55301601,1.58544087

>  <Name>
P129531989

>  <RI>
4.17015e+07

>  <Rbt.Current_Directory>
/home/fstefaniak/projects/zuza/docking/adenine/4XNR

>  <Rbt.Executable>
rbdock ($Id: //depot/dev/client3/rdock/2013.1/src/exe/rbdock.cxx#4 $)

>  <Rbt.Library>
libRbt.so (2013.1, Build901 2013/11/27)

>  <Rbt.Parameter_File>
/home/fstefaniak/progs/rDock//data/scripts/dock_solv.prm

>  <Rbt.Receptor>
4xnr.prm

>  <SCORE>
-48.7053

>  <SCORE.INTER>
-29.9812

>  <SCORE.INTER.CONST>
1

>  <SCORE.INTER.POLAR>
-4.89834

>  <SCORE.INTER.ROT>
2

>  <SCORE.INTER.SOLV>
15.2565

>  <SCORE.INTER.VDW>
-13.6785

>  <SCORE.INTER.norm>
-2.30624

>  <SCORE.INTRA>
1.29237

>  <SCORE.INTRA.DIHEDRAL>
-0.542898

>  <SCORE.INTRA.DIHEDRAL.0>
1.58789

>  <SCORE.INTRA.POLAR>
0

>  <SCORE.INTRA.POLAR.0>
0

>  <SCORE.INTRA.REPUL>
0

>  <SCORE.INTRA.REPUL.0>
0

>  <SCORE.INTRA.SOLV>
1.11456

>  <SCORE.INTRA.SOLV.lig_0>
-15.573

>  <SCORE.INTRA.VDW>
1.00654

>  <SCORE.INTRA.VDW.0>
-0.648946

>  <SCORE.INTRA.norm>
0.0994133

>  <SCORE.RESTR>
0

>  <SCORE.RESTR.CAVITY>
0

>  <SCORE.RESTR.norm>
0

>  <SCORE.SYSTEM>
-20.0166

>  <SCORE.SYSTEM.CONST>
0

>  <SCORE.SYSTEM.DIHEDRAL>
4.40924

>  <SCORE.SYSTEM.POLAR>
-2.98058

>  <SCORE.SYSTEM.SOLV>
0.360722

>  <SCORE.SYSTEM.VDW>
-4.99908

>  <SCORE.SYSTEM.norm>
-1.53973

>  <SCORE.heavy>
13

>  <SCORE.norm>
-3.74657

$$$$
P129531989
 OpenBabel12072022113D
libRbt.so/2013.1/901 2013/11/27
 15 16  0  0  0  0  0  0  0  0999 V2000
    5.0651   17.5662    5.3847 C   0  0  0  0  0  0  0  0  0  0  0  0
    4.8243   17.1200    4.0832 C   0  0  0  0  0  0  0  0  0  0  0  0
    5.4954   17.7064    3.0135 C   0  0  0  0  0  0  0  0  0  0  0  0
    6.4328   18.7175    3.2458 C   0  0  0  0  0  0  0  0  0  0  0  0
    6.6633   19.1745    4.5431 C   0  0  0  0  0  0  0  0  0  0  0  0
    5.9760   18.6067    5.6266 C   0  0  0  0  0  0  0  0  0  0  0  0
    6.2413   19.0788    7.0355 C   0  0  0  0  0  0  0  0  0  0  0  0
    7.5244   18.5642    7.5224 N   0  0  0  0  0  0  0  0  0  0  0  0
    8.4851   18.8638    6.4713 O   0  0  0  0  0  0  0  0  0  0  0  0
    7.1600   19.3127    2.2459 O   0  0  0  0  0  0  0  0  0  0  0  0
    7.1031   18.5475    1.0368 C   0  0  0  0  0  0  0  0  0  0  0  0
    5.6763   18.1153    0.7421 C   0  0  0  0  0  0  0  0  0  0  0  0
    5.1944   17.2328    1.7617 O   0  0  0  0  0  0  0  0  0  0  0  0
    7.4863   17.5415    7.5023 H   0  0  0  0  0  0  0  0  0  0  0  0
    8.7839   19.7592    6.7253 H   0  0  0  0  0  0  0  0  0  0  0  0
  1  2  2  0  0  0  0
  1  6  1  0  0  0  0
  2  3  1  0  0  0  0
  3  4  2  0  0  0  0
  3 13  1  0  0  0  0
  4  5  1  0  0  0  0
  4 10  1  0  0  0  0
  5  6  2  0  0  0  0
  6  7  1  0  0  0  0
  7  8  1  0  0  0  0
  8  9  1  0  0  0  0
  8 14  1  0  0  0  0
  9 15  1  0  0  0  0
 10 11  1  0  0  0  0
 11 12  1  0  0  0  0
 12 13  1  0  0  0  0
M  END
>  <CHROM.0>
-60.77466258,59.45721518,-65.24639626,-48.54844969,-58.45583714,-174.94512316
-65.96361435,-58.60440716,-167.85907637

>  <CHROM.1>
103.30372016,49.30341065,88.68627110,6.36100261,18.36842864,4.06293683,1.32202396
0.54621763,1.58322239

>  <Name>
P129531989

>  <RI>
4.17015e+07

>  <Rbt.Current_Directory>
/home/fstefaniak/projects/zuza/docking/adenine/4XNR

>  <Rbt.Executable>
rbdock ($Id: //depot/dev/client3/rdock/2013.1/src/exe/rbdock.cxx#4 $)

>  <Rbt.Library>
libRbt.so (2013.1, Build901 2013/11/27)

>  <Rbt.Parameter_File>
/home/fstefaniak/progs/rDock//data/scripts/dock_solv.prm

>  <Rbt.Receptor>
4xnr.prm

>  <SCORE>
-48.4951

>  <SCORE.INTER>
-30.1155

>  <SCORE.INTER.CONST>
1

>  <SCORE.INTER.POLAR>
-4.88505

>  <SCORE.INTER.ROT>
2

>  <SCORE.INTER.SOLV>
15.2322

>  <SCORE.INTER.VDW>
-13.8042

>  <SCORE.INTER.norm>
-2.31658

>  <SCORE.INTRA>
1.43

>  <SCORE.INTRA.DIHEDRAL>
-0.448101

>  <SCORE.INTRA.DIHEDRAL.0>
1.58789

>  <SCORE.INTRA.POLAR>
0

>  <SCORE.INTRA.POLAR.0>
0

>  <SCORE.INTRA.REPUL>
0

>  <SCORE.INTRA.REPUL.0>
0

>  <SCORE.INTRA.SOLV>
1.13171

>  <SCORE.INTRA.SOLV.lig_0>
-15.573

>  <SCORE.INTRA.VDW>
1.0882

>  <SCORE.INTRA.VDW.0>
-0.648946

>  <SCORE.INTRA.norm>
0.11

>  <SCORE.RESTR>
0

>  <SCORE.RESTR.CAVITY>
0

>  <SCORE.RESTR.norm>
0

>  <SCORE.SYSTEM>
-19.8096

>  <SCORE.SYSTEM.CONST>
0

>  <SCORE.SYSTEM.DIHEDRAL>
3.82238

>  <SCORE.SYSTEM.POLAR>
-2.95115

>  <SCORE.SYSTEM.SOLV>
0.25377

>  <SCORE.SYSTEM.VDW>
-4.72797

>  <SCORE.SYSTEM.norm>
-1.52382

>  <SCORE.heavy>
13

>  <SCORE.norm>
-3.73039

$$$$
P129629388
 OpenBabel12072022113D
libRbt.so/2013.1/901 2013/11/27
 14 14  0  0  0  0  0  0  0  0999 V2000
    3.9946   14.2792    4.2925 C   0  0  0  0  0  0  0  0  0  0  0  0
    2.9848   13.3054    4.8568 C   0  0  0  0  0  0  0  0  0  0  0  0
    1.5042   13.5197    4.5996 C   0  0  2  0  0  0  0  0  0  0  0  0
    2.2245   12.3910    3.8961 C   0  0  1  0  0  0  0  0  0  0  0  0
    2.6842   12.3006    2.4867 C   0  0  0  0  0  0  0  0  0  0  0  0
    3.6944   11.6726    2.2102 O   0  0  0  0  0  0  0  0  0  0  0  0
    1.8982   12.8688    1.5522 O   0  0  0  0  0  0  0  0  0  0  0  0
    0.9844   14.7107    3.8981 C   0  0  0  0  0  0  0  0  0  0  0  0
    0.4975   14.5902    2.7837 O   0  0  0  0  0  0  0  0  0  0  0  0
    1.0659   15.8666    4.6240 N   0  0  0  0  0  0  0  0  0  0  0  0
    0.5832   17.1318    4.1293 C   0  0  0  0  0  0  0  0  0  0  0  0
    3.3922   12.7259    6.1879 C   0  0  0  0  0  0  0  0  0  0  0  0
    2.1987   12.7329    0.6225 H   0  0  0  0  0  0  0  0  0  0  0  0
    1.5072   15.8423    5.5345 H   0  0  0  0  0  0  0  0  0  0  0  0
  1  2  1  0  0  0  0
  2  3  1  0  0  0  0
  2  4  1  0  0  0  0
  2 12  1  0  0  0  0
  3  4  1  0  0  0  0
  3  8  1  6  0  0  0
  4  5  1  6  0  0  0
  5  6  2  0  0  0  0
  5  7  1  0  0  0  0
  7 13  1  0  0  0  0
  8  9  2  0  0  0  0
  8 10  1  0  0  0  0
 10 11  1  0  0  0  0
 10 14  1  0  0  0  0
M  END
>  <CHROM.0>
-60.66743631,-71.13010822,59.94813837,-48.77407318,59.93898940,-63.10389825
52.46133776,55.84496374,-168.05921117

>  <CHROM.1>
111.08203476,74.57032870,-175.71041921,2.12847777,13.79870237,3.74415968
-0.69346496,-0.84615006,1.02044422

>  <Name>
P129629388

>  <RI>
4.17015e+07

>  <Rbt.Current_Directory>
/home/fstefaniak/projects/zuza/docking/adenine/4XNR

>  <Rbt.Executable>
rbdock ($Id: //depot/dev/client3/rdock/2013.1/src/exe/rbdock.cxx#4 $)

>  <Rbt.Library>
libRbt.so (2013.1, Build901 2013/11/27)

>  <Rbt.Parameter_File>
/home/fstefaniak/progs/rDock//data/scripts/dock_solv.prm

>  <Rbt.Receptor>
4xnr.prm

>  <SCORE>
-37.3512

>  <SCORE.INTER>
-22.427

>  <SCORE.INTER.CONST>
1

>  <SCORE.INTER.POLAR>
-3.39877

>  <SCORE.INTER.ROT>
2

>  <SCORE.INTER.SOLV>
10.0745

>  <SCORE.INTER.VDW>
-11.9136

>  <SCORE.INTER.norm>
-1.86892

>  <SCORE.INTRA>
1.13619

>  <SCORE.INTRA.DIHEDRAL>
-0.368939

>  <SCORE.INTRA.DIHEDRAL.0>
4.88741

>  <SCORE.INTRA.POLAR>
0.559421

>  <SCORE.INTRA.POLAR.0>
-0.559421

>  <SCORE.INTRA.REPUL>
0

>  <SCORE.INTRA.REPUL.0>
0

>  <SCORE.INTRA.SOLV>
0.0469961

>  <SCORE.INTRA.SOLV.lig_0>
-13.2448

>  <SCORE.INTRA.VDW>
-0.60487

>  <SCORE.INTRA.VDW.0>
-1.2147

>  <SCORE.INTRA.norm>
0.0946824

>  <SCORE.RESTR>
0.822156

>  <SCORE.RESTR.CAVITY>
0.822156

>  <SCORE.RESTR.norm>
0.068513

>  <SCORE.SYSTEM>
-16.8826

>  <SCORE.SYSTEM.CONST>
0

>  <SCORE.SYSTEM.DIHEDRAL>
4.31428

>  <SCORE.SYSTEM.POLAR>
-2.92251

>  <SCORE.SYSTEM.SOLV>
-0.208341

>  <SCORE.SYSTEM.VDW>
-2.88197

>  <SCORE.SYSTEM.norm>
-1.40688

>  <SCORE.heavy>
12

>  <SCORE.norm>
-3.1126

$$$$
P129629388
 OpenBabel12072022113D
libRbt.so/2013.1/901 2013/11/27
 14 14  0  0  0  0  0  0  0  0999 V2000
    3.0462   12.6006    2.8594 C   0  0  0  0  0  0  0  0  0  0  0  0
    2.7896   13.1074    4.2608 C   0  0  0  0  0  0  0  0  0  0  0  0
    3.2650   14.4922    4.6616 C   0  0  2  0  0  0  0  0  0  0  0  0
    1.7864   14.2432    4.4628 C   0  0  1  0  0  0  0  0  0  0  0  0
    0.9106   14.6289    3.3269 C   0  0  0  0  0  0  0  0  0  0  0  0
    0.2294   13.7860    2.7640 O   0  0  0  0  0  0  0  0  0  0  0  0
    0.8552   15.9387    3.0182 O   0  0  0  0  0  0  0  0  0  0  0  0
    4.0705   15.3454    3.7650 C   0  0  0  0  0  0  0  0  0  0  0  0
    4.0563   15.1380    2.5607 O   0  0  0  0  0  0  0  0  0  0  0  0
    4.7405   16.3515    4.4041 N   0  0  0  0  0  0  0  0  0  0  0  0
    5.5559   17.3116    3.7027 C   0  0  0  0  0  0  0  0  0  0  0  0
    2.8246   12.0206    5.3054 C   0  0  0  0  0  0  0  0  0  0  0  0
    0.2245   16.1654    2.2944 H   0  0  0  0  0  0  0  0  0  0  0  0
    4.6866   16.4113    5.4130 H   0  0  0  0  0  0  0  0  0  0  0  0
  1  2  1  0  0  0  0
  2  3  1  0  0  0  0
  2  4  1  0  0  0  0
  2 12  1  0  0  0  0
  3  4  1  0  0  0  0
  3  8  1  6  0  0  0
  4  5  1  6  0  0  0
  5  6  2  0  0  0  0
  5  7  1  0  0  0  0
  7 13  1  0  0  0  0
  8  9  2  0  0  0  0
  8 10  1  0  0  0  0
 10 11  1  0  0  0  0
 10 14  1  0  0  0  0
M  END
>  <CHROM.0>
-58.97782151,-63.86851345,-67.23070955,-44.73753560,-59.68609401,-62.61644201
-67.17813123,-60.85736487,-167.68796642

>  <CHROM.1>
21.06704989,53.82272225,-176.57392076,2.83006495,14.61279166,3.71801445,-2.50036086
-0.31323684,-0.32315397

>  <Name>
P129629388

>  <RI>
4.17015e+07

>  <Rbt.Current_Directory>
/home/fstefaniak/projects/zuza/docking/adenine/4XNR

>  <Rbt.Executable>
rbdock ($Id: //depot/dev/client3/rdock/2013.1/src/exe/rbdock.cxx#4 $)

>  <Rbt.Library>
libRbt.so (2013.1, Build901 2013/11/27)

>  <Rbt.Parameter_File>
/home/fstefaniak/progs/rDock//data/scripts/dock_solv.prm

>  <Rbt.Receptor>
4xnr.prm

>  <SCORE>
-33.5641

>  <SCORE.INTER>
-15.1962

>  <SCORE.INTER.CONST>
1

>  <SCORE.INTER.POLAR>
-1.72123

>  <SCORE.INTER.ROT>
2

>  <SCORE.INTER.SOLV>
9.8188

>  <SCORE.INTER.VDW>
-12.5996

>  <SCORE.INTER.norm>
-1.26635

>  <SCORE.INTRA>
2.53313

>  <SCORE.INTRA.DIHEDRAL>
0.0148455

>  <SCORE.INTRA.DIHEDRAL.0>
4.88741

>  <SCORE.INTRA.POLAR>
0.559421

>  <SCORE.INTRA.POLAR.0>
-0.559421

>  <SCORE.INTRA.REPUL>
0

>  <SCORE.INTRA.REPUL.0>
0

>  <SCORE.INTRA.SOLV>
-0.27392

>  <SCORE.INTRA.SOLV.lig_0>
-13.2448

>  <SCORE.INTRA.VDW>
0.76064

>  <SCORE.INTRA.VDW.0>
-1.2147

>  <SCORE.INTRA.norm>
0.211094

>  <SCORE.RESTR>
0

>  <SCORE.RESTR.CAVITY>
0

>  <SCORE.RESTR.norm>
0

>  <SCORE.SYSTEM>
-20.9011

>  <SCORE.SYSTEM.CONST>
0

>  <SCORE.SYSTEM.DIHEDRAL>
4.44446

>  <SCORE.SYSTEM.POLAR>
-3.01439

>  <SCORE.SYSTEM.SOLV>
0.282865

>  <SCORE.SYSTEM.VDW>
-5.46185

>  <SCORE.SYSTEM.norm>
-1.74176

>  <SCORE.heavy>
12

>  <SCORE.norm>
-2.79701

$$$$
P129629388
 OpenBabel12072022113D
libRbt.so/2013.1/901 2013/11/27
 14 14  0  0  0  0  0  0  0  0999 V2000
    2.6362   12.4199    2.8202 C   0  0  0  0  0  0  0  0  0  0  0  0
    1.5055   12.4622    3.8234 C   0  0  0  0  0  0  0  0  0  0  0  0
    1.0060   13.7986    4.3417 C   0  0  2  0  0  0  0  0  0  0  0  0
    0.1469   13.0064    3.3817 C   0  0  1  0  0  0  0  0  0  0  0  0
   -0.0944   13.2257    1.9326 C   0  0  0  0  0  0  0  0  0  0  0  0
    0.7758   13.7220    1.2342 O   0  0  0  0  0  0  0  0  0  0  0  0
   -1.2657   12.7830    1.4365 O   0  0  0  0  0  0  0  0  0  0  0  0
    1.6495   15.0791    3.9854 C   0  0  0  0  0  0  0  0  0  0  0  0
    2.8674   15.1737    4.0230 O   0  0  0  0  0  0  0  0  0  0  0  0
    0.7751   16.0526    3.5890 N   0  0  0  0  0  0  0  0  0  0  0  0
    1.2068   17.3629    3.1700 C   0  0  0  0  0  0  0  0  0  0  0  0
    1.5069   11.2930    4.7754 C   0  0  0  0  0  0  0  0  0  0  0  0
   -1.3929   12.9461    0.4720 H   0  0  0  0  0  0  0  0  0  0  0  0
   -0.2179   15.8585    3.6155 H   0  0  0  0  0  0  0  0  0  0  0  0
  1  2  1  0  0  0  0
  2  3  1  0  0  0  0
  2  4  1  0  0  0  0
  2 12  1  0  0  0  0
  3  4  1  0  0  0  0
  3  8  1  6  0  0  0
  4  5  1  6  0  0  0
  5  6  2  0  0  0  0
  5  7  1  0  0  0  0
  7 13  1  0  0  0  0
  8  9  2  0  0  0  0
  8 10  1  0  0  0  0
 10 11  1  0  0  0  0
 10 14  1  0  0  0  0
M  END
>  <CHROM.0>
-58.34771618,-61.32650586,-67.38703636,-48.27152943,59.13460615,-66.51043197
-65.13822401,-54.91560706,-168.05055292

>  <CHROM.1>
-45.39505612,-42.03968934,179.93164599,1.04837298,13.88409737,3.15952091
-1.91407968,-0.78717643,-0.06387189

>  <Name>
P129629388

>  <RI>
4.17015e+07

>  <Rbt.Current_Directory>
/home/fstefaniak/projects/zuza/docking/adenine/4XNR

>  <Rbt.Executable>
rbdock ($Id: //depot/dev/client3/rdock/2013.1/src/exe/rbdock.cxx#4 $)

>  <Rbt.Library>
libRbt.so (2013.1, Build901 2013/11/27)

>  <Rbt.Parameter_File>
/home/fstefaniak/progs/rDock//data/scripts/dock_solv.prm

>  <Rbt.Receptor>
4xnr.prm

>  <SCORE>
-33.5495

>  <SCORE.INTER>
-16.5108

>  <SCORE.INTER.CONST>
1

>  <SCORE.INTER.POLAR>
-2.72885

>  <SCORE.INTER.ROT>
2

>  <SCORE.INTER.SOLV>
8.7027

>  <SCORE.INTER.VDW>
-9.74526

>  <SCORE.INTER.norm>
-1.3759

>  <SCORE.INTRA>
2.47428

>  <SCORE.INTRA.DIHEDRAL>
-0.168965

>  <SCORE.INTRA.DIHEDRAL.0>
4.88741

>  <SCORE.INTRA.POLAR>
0.559421

>  <SCORE.INTRA.POLAR.0>
-0.559421

>  <SCORE.INTRA.REPUL>
0

>  <SCORE.INTRA.REPUL.0>
0

>  <SCORE.INTRA.SOLV>
0.302792

>  <SCORE.INTRA.SOLV.lig_0>
-13.2448

>  <SCORE.INTRA.VDW>
0.505332

>  <SCORE.INTRA.VDW.0>
-1.2147

>  <SCORE.INTRA.norm>
0.20619

>  <SCORE.RESTR>
0.375824

>  <SCORE.RESTR.CAVITY>
0.375824

>  <SCORE.RESTR.norm>
0.0313187

>  <SCORE.SYSTEM>
-19.8888

>  <SCORE.SYSTEM.CONST>
0

>  <SCORE.SYSTEM.DIHEDRAL>
4.10396

>  <SCORE.SYSTEM.POLAR>
-2.97342

>  <SCORE.SYSTEM.SOLV>
0.075257

>  <SCORE.SYSTEM.VDW>
-4.74089

>  <SCORE.SYSTEM.norm>
-1.6574

>  <SCORE.heavy>
12

>  <SCORE.norm>
-2.79579

$$$$
P129681270
 OpenBabel12072022113D
libRbt.so/2013.1/901 2013/11/27
 18 18  0  0  0  0  0  0  0  0999 V2000
    4.9302   17.5617    2.2229 C   0  0  0  0  0  0  0  0  0  0  0  0
    4.6630   17.2941    3.7059 C   0  0  2  0  0  0  0  0  0  0  0  0
    5.8246   17.7801    4.6011 C   0  0  1  0  0  0  0  0  0  0  0  0
    6.2172   19.2395    4.4319 C   0  0  0  0  0  0  0  0  0  0  0  0
    6.9053   19.5238    5.7428 C   0  0  0  0  0  0  0  0  0  0  0  0
    6.0520   18.7503    6.7231 C   0  0  0  0  0  0  0  0  0  0  0  0
    5.4523   17.6568    5.9957 O   0  0  0  0  0  0  0  0  0  0  0  0
    4.3752   15.8301    3.8660 N   0  0  0  0  0  0  0  0  0  0  0  0
    3.1775   15.2591    4.0992 C   0  0  0  0  0  0  0  0  0  0  0  0
    2.0454   15.9750    4.3406 N   0  3  0  0  0  0  0  0  0  0  0  0
    2.0655   17.0014    4.4166 H   0  0  0  0  0  0  0  0  0  0  0  0
    0.8357   15.3122    4.6058 N   0  0  0  0  0  0  0  0  0  0  0  0
    3.0878   13.9166    4.0703 N   0  0  0  0  0  0  0  0  0  0  0  0
    5.1332   15.1886    3.6748 H   0  0  0  0  0  0  0  0  0  0  0  0
    0.5812   15.4841    5.5867 H   0  0  0  0  0  0  0  0  0  0  0  0
    0.0934   15.7704    4.0609 H   0  0  0  0  0  0  0  0  0  0  0  0
    3.8664   13.3038    3.8854 H   0  0  0  0  0  0  0  0  0  0  0  0
    2.1537   13.5256    4.1224 H   0  0  0  0  0  0  0  0  0  0  0  0
  2  8  1  0  0  0  0
  2  1  1  6  0  0  0
  3  2  1  6  0  0  0
  3  4  1  0  0  0  0
  3  7  1  0  0  0  0
  4  5  1  0  0  0  0
  5  6  1  0  0  0  0
  6  7  1  0  0  0  0
  8  9  1  0  0  0  0
  8 14  1  0  0  0  0
  9 10  2  0  0  0  0
  9 13  1  0  0  0  0
 10 11  1  0  0  0  0
 10 12  1  0  0  0  0
 12 15  1  0  0  0  0
 12 16  1  0  0  0  0
 13 17  1  0  0  0  0
 13 18  1  0  0  0  0
M  CHG  1  10   1
M  END
>  <CHROM.0>
-62.94700101,-174.82454364,-62.78647071,-47.34360604,-175.30574232,59.03472789
-64.59905982,-56.54392841,-168.09056637

>  <CHROM.1>
54.75763066,-106.19601733,111.83238602,4.40958912,16.96536950,4.53813951
-0.38704034,-0.69320840,-1.82744704

>  <Name>
P129681270

>  <RI>
3.58524e+07

>  <Rbt.Current_Directory>
/home/fstefaniak/projects/zuza/docking/adenine/4XNR

>  <Rbt.Executable>
rbdock ($Id: //depot/dev/client3/rdock/2013.1/src/exe/rbdock.cxx#4 $)

>  <Rbt.Library>
libRbt.so (2013.1, Build901 2013/11/27)

>  <Rbt.Parameter_File>
/home/fstefaniak/progs/rDock//data/scripts/dock_solv.prm

>  <Rbt.Receptor>
4xnr.prm

>  <SCORE>
-55.0367

>  <SCORE.INTER>
-36.1588

>  <SCORE.INTER.CONST>
1

>  <SCORE.INTER.POLAR>
-4.22738

>  <SCORE.INTER.ROT>
3

>  <SCORE.INTER.SOLV>
16.6417

>  <SCORE.INTER.VDW>
-21.1618

>  <SCORE.INTER.norm>
-3.01323

>  <SCORE.INTRA>
0.702729

>  <SCORE.INTRA.DIHEDRAL>
-0.248027

>  <SCORE.INTRA.DIHEDRAL.0>
3.75321

>  <SCORE.INTRA.POLAR>
0.908492

>  <SCORE.INTRA.POLAR.0>
-0.978601

>  <SCORE.INTRA.REPUL>
0

>  <SCORE.INTRA.REPUL.0>
0

>  <SCORE.INTRA.SOLV>
-1.80687

>  <SCORE.INTRA.SOLV.lig_0>
-28.1054

>  <SCORE.INTRA.VDW>
-1.3587

>  <SCORE.INTRA.VDW.0>
0.9987

>  <SCORE.INTRA.norm>
0.0585608

>  <SCORE.RESTR>
0

>  <SCORE.RESTR.CAVITY>
0

>  <SCORE.RESTR.norm>
0

>  <SCORE.SYSTEM>
-19.5806

>  <SCORE.SYSTEM.CONST>
0

>  <SCORE.SYSTEM.DIHEDRAL>
3.96078

>  <SCORE.SYSTEM.POLAR>
-2.96359

>  <SCORE.SYSTEM.SOLV>
-0.0311676

>  <SCORE.SYSTEM.VDW>
-4.48495

>  <SCORE.SYSTEM.norm>
-1.63171

>  <SCORE.heavy>
12

>  <SCORE.norm>
-4.58639

$$$$
P129681270
 OpenBabel12072022113D
libRbt.so/2013.1/901 2013/11/27
 18 18  0  0  0  0  0  0  0  0999 V2000
    4.9813   17.6115    2.1799 C   0  0  0  0  0  0  0  0  0  0  0  0
    4.6723   17.3176    3.6497 C   0  0  2  0  0  0  0  0  0  0  0  0
    5.8035   17.7964    4.5868 C   0  0  1  0  0  0  0  0  0  0  0  0
    6.1545   19.2729    4.4904 C   0  0  0  0  0  0  0  0  0  0  0  0
    6.8116   19.5175    5.8250 C   0  0  0  0  0  0  0  0  0  0  0  0
    5.9658   18.6755    6.7539 C   0  0  0  0  0  0  0  0  0  0  0  0
    5.4117   17.5989    5.9675 O   0  0  0  0  0  0  0  0  0  0  0  0
    4.3905   15.8491    3.7772 N   0  0  0  0  0  0  0  0  0  0  0  0
    3.2038   15.2708    4.0459 C   0  0  0  0  0  0  0  0  0  0  0  0
    2.0843   15.9785    4.3596 N   0  3  0  0  0  0  0  0  0  0  0  0
    2.1089   17.0020    4.4663 H   0  0  0  0  0  0  0  0  0  0  0  0
    0.8869   15.3074    4.6579 N   0  0  0  0  0  0  0  0  0  0  0  0
    3.1116   13.9298    3.9795 N   0  0  0  0  0  0  0  0  0  0  0  0
    5.1385   15.2142    3.5327 H   0  0  0  0  0  0  0  0  0  0  0  0
    0.6405   15.5053    5.6360 H   0  0  0  0  0  0  0  0  0  0  0  0
    0.1326   15.7386    4.1077 H   0  0  0  0  0  0  0  0  0  0  0  0
    3.8805   13.3233    3.7413 H   0  0  0  0  0  0  0  0  0  0  0  0
    2.1803   13.5371    4.0612 H   0  0  0  0  0  0  0  0  0  0  0  0
  2  8  1  0  0  0  0
  2  1  1  6  0  0  0
  3  2  1  6  0  0  0
  3  4  1  0  0  0  0
  3  7  1  0  0  0  0
  4  5  1  0  0  0  0
  5  6  1  0  0  0  0
  6  7  1  0  0  0  0
  8  9  1  0  0  0  0
  8 14  1  0  0  0  0
  9 10  2  0  0  0  0
  9 13  1  0  0  0  0
 10 11  1  0  0  0  0
 10 12  1  0  0  0  0
 12 15  1  0  0  0  0
 12 16  1  0  0  0  0
 13 17  1  0  0  0  0
 13 18  1  0  0  0  0
M  CHG  1  10   1
M  END
>  <CHROM.0>
-56.85177238,-61.68912007,-69.21486115,-47.24547967,-175.61793481,-174.82647497
-68.86442438,-58.95222341,-167.30421550

>  <CHROM.1>
56.97336583,-110.54742178,115.91289758,4.40310322,16.96705810,4.52674868
-0.41252844,-0.69750713,-1.84781675

>  <Name>
P129681270

>  <RI>
3.58524e+07

>  <Rbt.Current_Directory>
/home/fstefaniak/projects/zuza/docking/adenine/4XNR

>  <Rbt.Executable>
rbdock ($Id: //depot/dev/client3/rdock/2013.1/src/exe/rbdock.cxx#4 $)

>  <Rbt.Library>
libRbt.so (2013.1, Build901 2013/11/27)

>  <Rbt.Parameter_File>
/home/fstefaniak/progs/rDock//data/scripts/dock_solv.prm

>  <Rbt.Receptor>
4xnr.prm

>  <SCORE>
-50.319

>  <SCORE.INTER>
-30.1571

>  <SCORE.INTER.CONST>
1

>  <SCORE.INTER.POLAR>
-3.17563

>  <SCORE.INTER.ROT>
3

>  <SCORE.INTER.SOLV>
16.7349

>  <SCORE.INTER.VDW>
-20.6976

>  <SCORE.INTER.norm>
-2.51309

>  <SCORE.INTRA>
0.536096

>  <SCORE.INTRA.DIHEDRAL>
-0.391971

>  <SCORE.INTRA.DIHEDRAL.0>
3.75321

>  <SCORE.INTRA.POLAR>
0.908492

>  <SCORE.INTRA.POLAR.0>
-0.978601

>  <SCORE.INTRA.REPUL>
0

>  <SCORE.INTRA.REPUL.0>
0

>  <SCORE.INTRA.SOLV>
-1.76472

>  <SCORE.INTRA.SOLV.lig_0>
-28.1054

>  <SCORE.INTRA.VDW>
-1.47443

>  <SCORE.INTRA.VDW.0>
0.9987

>  <SCORE.INTRA.norm>
0.0446747

>  <SCORE.RESTR>
0

>  <SCORE.RESTR.CAVITY>
0

>  <SCORE.RESTR.norm>
0

>  <SCORE.SYSTEM>
-20.6981

>  <SCORE.SYSTEM.CONST>
0

>  <SCORE.SYSTEM.DIHEDRAL>
4.60142

>  <SCORE.SYSTEM.POLAR>
-2.98917

>  <SCORE.SYSTEM.SOLV>
-0.00598672

>  <SCORE.SYSTEM.VDW>
-5.36661

>  <SCORE.SYSTEM.norm>
-1.72484

>  <SCORE.heavy>
12

>  <SCORE.norm>
-4.19325

$$$$
P129681270
 OpenBabel12072022113D
libRbt.so/2013.1/901 2013/11/27
 18 18  0  0  0  0  0  0  0  0999 V2000
    1.9367   16.3917    3.6273 C   0  0  0  0  0  0  0  0  0  0  0  0
    3.3846   16.0654    4.0004 C   0  0  2  0  0  0  0  0  0  0  0  0
    4.3706   17.1410    3.4927 C   0  0  1  0  0  0  0  0  0  0  0  0
    5.1755   17.8534    4.5684 C   0  0  0  0  0  0  0  0  0  0  0  0
    6.3549   18.3625    3.7794 C   0  0  0  0  0  0  0  0  0  0  0  0
    6.6170   17.2175    2.8266 C   0  0  0  0  0  0  0  0  0  0  0  0
    5.3630   16.5286    2.6332 O   0  0  0  0  0  0  0  0  0  0  0  0
    3.6975   14.6935    3.4788 N   0  0  0  0  0  0  0  0  0  0  0  0
    3.6695   13.5369    4.1690 C   0  0  0  0  0  0  0  0  0  0  0  0
    3.4534   13.4756    5.5114 N   0  3  0  0  0  0  0  0  0  0  0  0
    3.3597   14.3290    6.0793 H   0  0  0  0  0  0  0  0  0  0  0  0
    3.4675   12.2358    6.1715 N   0  0  0  0  0  0  0  0  0  0  0  0
    3.8404   12.3827    3.4982 N   0  0  0  0  0  0  0  0  0  0  0  0
    3.8413   14.6020    2.4820 H   0  0  0  0  0  0  0  0  0  0  0  0
    4.1384   12.2908    6.9483 H   0  0  0  0  0  0  0  0  0  0  0  0
    2.5543   12.1046    6.6259 H   0  0  0  0  0  0  0  0  0  0  0  0
    3.9914   12.3263    2.5033 H   0  0  0  0  0  0  0  0  0  0  0  0
    3.6872   11.5289    4.0232 H   0  0  0  0  0  0  0  0  0  0  0  0
  2  8  1  0  0  0  0
  2  1  1  6  0  0  0
  3  2  1  1  0  0  0
  3  4  1  0  0  0  0
  3  7  1  0  0  0  0
  4  5  1  0  0  0  0
  5  6  1  0  0  0  0
  6  7  1  0  0  0  0
  8  9  1  0  0  0  0
  8 14  1  0  0  0  0
  9 10  2  0  0  0  0
  9 13  1  0  0  0  0
 10 11  1  0  0  0  0
 10 12  1  0  0  0  0
 12 15  1  0  0  0  0
 12 16  1  0  0  0  0
 13 17  1  0  0  0  0
 13 18  1  0  0  0  0
M  CHG  1  10   1
M  END
>  <CHROM.0>
-60.40799316,-165.09236468,61.53196475,-46.23463035,58.63042833,55.51694656
52.62990059,-61.10885670,-168.36460995

>  <CHROM.1>
119.47425939,-97.80147545,125.90441560,4.26450931,15.42658513,3.99038386
1.15052116,0.18385276,-0.22218325

>  <Name>
P129681270

>  <RI>
3.58524e+07

>  <Rbt.Current_Directory>
/home/fstefaniak/projects/zuza/docking/adenine/4XNR

>  <Rbt.Executable>
rbdock ($Id: //depot/dev/client3/rdock/2013.1/src/exe/rbdock.cxx#4 $)

>  <Rbt.Library>
libRbt.so (2013.1, Build901 2013/11/27)

>  <Rbt.Parameter_File>
/home/fstefaniak/progs/rDock//data/scripts/dock_solv.prm

>  <Rbt.Receptor>
4xnr.prm

>  <SCORE>
-50.1228

>  <SCORE.INTER>
-36.3912

>  <SCORE.INTER.CONST>
1

>  <SCORE.INTER.POLAR>
-4.95517

>  <SCORE.INTER.ROT>
3

>  <SCORE.INTER.SOLV>
15.7848

>  <SCORE.INTER.VDW>
-18.6052

>  <SCORE.INTER.norm>
-3.0326

>  <SCORE.INTRA>
2.64524

>  <SCORE.INTRA.DIHEDRAL>
5.24126

>  <SCORE.INTRA.DIHEDRAL.0>
3.75321

>  <SCORE.INTRA.POLAR>
0.908492

>  <SCORE.INTRA.POLAR.0>
-0.978601

>  <SCORE.INTRA.REPUL>
0

>  <SCORE.INTRA.REPUL.0>
0

>  <SCORE.INTRA.SOLV>
-1.30135

>  <SCORE.INTRA.SOLV.lig_0>
-28.1054

>  <SCORE.INTRA.VDW>
-2.41359

>  <SCORE.INTRA.VDW.0>
0.9987

>  <SCORE.INTRA.norm>
0.220437

>  <SCORE.RESTR>
0

>  <SCORE.RESTR.CAVITY>
0

>  <SCORE.RESTR.norm>
0

>  <SCORE.SYSTEM>
-16.3768

>  <SCORE.SYSTEM.CONST>
0

>  <SCORE.SYSTEM.DIHEDRAL>
4.98714

>  <SCORE.SYSTEM.POLAR>
-2.96273

>  <SCORE.SYSTEM.SOLV>
-0.177084

>  <SCORE.SYSTEM.VDW>
-2.64544

>  <SCORE.SYSTEM.norm>
-1.36473

>  <SCORE.heavy>
12

>  <SCORE.norm>
-4.1769

$$$$
P129681588
 OpenBabel12072022113D
libRbt.so/2013.1/901 2013/11/27
 20 20  0  0  0  0  0  0  0  0999 V2000
   -1.5380   12.0995    2.2432 C   0  0  0  0  0  0  0  0  0  0  0  0
   -1.5395   12.2588    3.7586 C   0  0  0  0  0  0  0  0  0  0  0  0
   -0.1588   11.9839    4.3538 C   0  0  0  0  0  0  0  0  0  0  0  0
    0.9444   12.8709    3.7298 C   0  0  0  0  0  0  0  0  0  0  0  0
    0.9095   12.7246    2.1865 C   0  0  0  0  0  0  0  0  0  0  0  0
   -0.4762   12.9756    1.5907 C   0  0  0  0  0  0  0  0  0  0  0  0
    2.3518   12.4164    4.2148 C   0  0  0  0  0  0  0  0  0  0  0  0
    2.6545   12.9391    5.5111 O   0  0  0  0  0  0  0  0  0  0  0  0
    0.7056   14.3256    4.0675 N   0  0  0  0  0  0  0  0  0  0  0  0
    1.6133   15.3166    4.1621 C   0  0  0  0  0  0  0  0  0  0  0  0
    2.9273   15.1565    3.8451 N   0  3  0  0  0  0  0  0  0  0  0  0
    3.2101   14.3709    3.2378 H   0  0  0  0  0  0  0  0  0  0  0  0
    3.8303   16.2134    4.0340 N   0  0  0  0  0  0  0  0  0  0  0  0
    1.2042   16.5267    4.5863 N   0  0  0  0  0  0  0  0  0  0  0  0
    1.9831   12.5565    6.1149 H   0  0  0  0  0  0  0  0  0  0  0  0
   -0.2458   14.5930    4.2790 H   0  0  0  0  0  0  0  0  0  0  0  0
    3.8654   16.4404    5.0352 H   0  0  0  0  0  0  0  0  0  0  0  0
    4.7723   15.8852    3.7868 H   0  0  0  0  0  0  0  0  0  0  0  0
    0.2549   16.7412    4.8483 H   0  0  0  0  0  0  0  0  0  0  0  0
    1.8867   17.2752    4.5426 H   0  0  0  0  0  0  0  0  0  0  0  0
  1  2  1  0  0  0  0
  1  6  1  0  0  0  0
  2  3  1  0  0  0  0
  3  4  1  0  0  0  0
  4  5  1  0  0  0  0
  4  7  1  0  0  0  0
  4  9  1  0  0  0  0
  5  6  1  0  0  0  0
  7  8  1  0  0  0  0
  8 15  1  0  0  0  0
  9 10  1  0  0  0  0
  9 16  1  0  0  0  0
 10 11  2  0  0  0  0
 10 14  1  0  0  0  0
 11 12  1  0  0  0  0
 11 13  1  0  0  0  0
 13 17  1  0  0  0  0
 13 18  1  0  0  0  0
 14 19  1  0  0  0  0
 14 20  1  0  0  0  0
M  CHG  1  11   1
M  END
>  <CHROM.0>
-63.97585398,-59.33010152,-64.84381640,-46.06168897,-66.48335319,-61.38004322
-64.72316748,-64.79539825,-167.70569860

>  <CHROM.1>
-81.12463448,153.26089895,62.55666487,62.37244705,1.08997519,13.72520629
3.75934077,2.55374747,0.55438314,2.90324361

>  <Name>
P129681588

>  <RI>
3.58524e+07

>  <Rbt.Current_Directory>
/home/fstefaniak/projects/zuza/docking/adenine/4XNR

>  <Rbt.Executable>
rbdock ($Id: //depot/dev/client3/rdock/2013.1/src/exe/rbdock.cxx#4 $)

>  <Rbt.Library>
libRbt.so (2013.1, Build901 2013/11/27)

>  <Rbt.Parameter_File>
/home/fstefaniak/progs/rDock//data/scripts/dock_solv.prm

>  <Rbt.Receptor>
4xnr.prm

>  <SCORE>
-46.5419

>  <SCORE.INTER>
-29.8583

>  <SCORE.INTER.CONST>
1

>  <SCORE.INTER.POLAR>
-4.34997

>  <SCORE.INTER.ROT>
3

>  <SCORE.INTER.SOLV>
15.3935

>  <SCORE.INTER.VDW>
-16.1368

>  <SCORE.INTER.norm>
-2.29679

>  <SCORE.INTRA>
3.75552

>  <SCORE.INTRA.DIHEDRAL>
0.487875

>  <SCORE.INTRA.DIHEDRAL.0>
3.73413

>  <SCORE.INTRA.POLAR>
0.830737

>  <SCORE.INTRA.POLAR.0>
-1.01119

>  <SCORE.INTRA.REPUL>
0

>  <SCORE.INTRA.REPUL.0>
0

>  <SCORE.INTRA.SOLV>
-0.365962

>  <SCORE.INTRA.SOLV.lig_0>
-28.5556

>  <SCORE.INTRA.VDW>
0.870057

>  <SCORE.INTRA.VDW.0>
-0.773546

>  <SCORE.INTRA.norm>
0.288886

>  <SCORE.RESTR>
0.290956

>  <SCORE.RESTR.CAVITY>
0.290956

>  <SCORE.RESTR.norm>
0.0223812

>  <SCORE.SYSTEM>
-20.7301

>  <SCORE.SYSTEM.CONST>
0

>  <SCORE.SYSTEM.DIHEDRAL>
4.27687

>  <SCORE.SYSTEM.POLAR>
-2.97011

>  <SCORE.SYSTEM.SOLV>
0.270016

>  <SCORE.SYSTEM.VDW>
-5.43531

>  <SCORE.SYSTEM.norm>
-1.59462

>  <SCORE.heavy>
13

>  <SCORE.norm>
-3.58014

$$$$
P129681588
 OpenBabel12072022113D
libRbt.so/2013.1/901 2013/11/27
 20 20  0  0  0  0  0  0  0  0999 V2000
    3.0024   15.1628    3.5922 C   0  0  0  0  0  0  0  0  0  0  0  0
    4.3847   14.8493    4.1515 C   0  0  0  0  0  0  0  0  0  0  0  0
    5.4653   15.7052    3.4914 C   0  0  0  0  0  0  0  0  0  0  0  0
    5.1778   17.2206    3.6102 C   0  0  0  0  0  0  0  0  0  0  0  0
    3.7550   17.5176    3.0699 C   0  0  0  0  0  0  0  0  0  0  0  0
    2.6750   16.6458    3.7115 C   0  0  0  0  0  0  0  0  0  0  0  0
    6.1877   18.0383    2.7535 C   0  0  0  0  0  0  0  0  0  0  0  0
    6.0140   17.7882    1.3562 O   0  0  0  0  0  0  0  0  0  0  0  0
    5.2288   17.6552    5.0579 N   0  0  0  0  0  0  0  0  0  0  0  0
    6.2566   18.2214    5.7199 C   0  0  0  0  0  0  0  0  0  0  0  0
    7.4165   18.5968    5.1146 N   0  3  0  0  0  0  0  0  0  0  0  0
    7.4308   18.7427    4.0927 H   0  0  0  0  0  0  0  0  0  0  0  0
    8.4720   19.1170    5.8785 N   0  0  0  0  0  0  0  0  0  0  0  0
    6.1327   18.4316    7.0436 N   0  0  0  0  0  0  0  0  0  0  0  0
    5.4218   18.4989    1.0310 H   0  0  0  0  0  0  0  0  0  0  0  0
    4.4049   17.4771    5.6154 H   0  0  0  0  0  0  0  0  0  0  0  0
    8.1176   19.9040    6.4355 H   0  0  0  0  0  0  0  0  0  0  0  0
    8.7665   18.4029    6.5563 H   0  0  0  0  0  0  0  0  0  0  0  0
    5.3163   18.1838    7.5800 H   0  0  0  0  0  0  0  0  0  0  0  0
    6.8774   18.9557    7.4893 H   0  0  0  0  0  0  0  0  0  0  0  0
  1  2  1  0  0  0  0
  1  6  1  0  0  0  0
  2  3  1  0  0  0  0
  3  4  1  0  0  0  0
  4  5  1  0  0  0  0
  4  7  1  0  0  0  0
  4  9  1  0  0  0  0
  5  6  1  0  0  0  0
  7  8  1  0  0  0  0
  8 15  1  0  0  0  0
  9 10  1  0  0  0  0
  9 16  1  0  0  0  0
 10 11  2  0  0  0  0
 10 14  1  0  0  0  0
 11 12  1  0  0  0  0
 11 13  1  0  0  0  0
 13 17  1  0  0  0  0
 13 18  1  0  0  0  0
 14 19  1  0  0  0  0
 14 20  1  0  0  0  0
M  CHG  1  11   1
M  END
>  <CHROM.0>
-59.30409443,-61.83187898,-64.91217435,-43.63098322,-174.69219035,-55.17666049
-63.48364627,-54.84611134,-168.26038652

>  <CHROM.1>
66.08844556,97.20422637,94.61422888,-53.80815448,5.44262067,17.34811243,4.20627173
2.60618254,-0.64061732,-1.58276361

>  <Name>
P129681588

>  <RI>
3.58524e+07

>  <Rbt.Current_Directory>
/home/fstefaniak/projects/zuza/docking/adenine/4XNR

>  <Rbt.Executable>
rbdock ($Id: //depot/dev/client3/rdock/2013.1/src/exe/rbdock.cxx#4 $)

>  <Rbt.Library>
libRbt.so (2013.1, Build901 2013/11/27)

>  <Rbt.Parameter_File>
/home/fstefaniak/progs/rDock//data/scripts/dock_solv.prm

>  <Rbt.Receptor>
4xnr.prm

>  <SCORE>
-44.1288

>  <SCORE.INTER>
-38.1553

>  <SCORE.INTER.CONST>
1

>  <SCORE.INTER.POLAR>
-5.82849

>  <SCORE.INTER.ROT>
3

>  <SCORE.INTER.SOLV>
22.052

>  <SCORE.INTER.VDW>
-18.9592

>  <SCORE.INTER.norm>
-2.93502

>  <SCORE.INTRA>
14.6235

>  <SCORE.INTRA.DIHEDRAL>
4.15129

>  <SCORE.INTRA.DIHEDRAL.0>
3.73413

>  <SCORE.INTRA.POLAR>
1.01119

>  <SCORE.INTRA.POLAR.0>
-1.01119

>  <SCORE.INTRA.REPUL>
0

>  <SCORE.INTRA.REPUL.0>
0

>  <SCORE.INTRA.SOLV>
-1.10002

>  <SCORE.INTRA.SOLV.lig_0>
-28.5556

>  <SCORE.INTRA.VDW>
9.65985

>  <SCORE.INTRA.VDW.0>
-0.773546

>  <SCORE.INTRA.norm>
1.12489

>  <SCORE.RESTR>
0

>  <SCORE.RESTR.CAVITY>
0

>  <SCORE.RESTR.norm>
0

>  <SCORE.SYSTEM>
-20.5971

>  <SCORE.SYSTEM.CONST>
0

>  <SCORE.SYSTEM.DIHEDRAL>
4.49031

>  <SCORE.SYSTEM.POLAR>
-3.05864

>  <SCORE.SYSTEM.SOLV>
0.146144

>  <SCORE.SYSTEM.VDW>
-5.08142

>  <SCORE.SYSTEM.norm>
-1.58439

>  <SCORE.heavy>
13

>  <SCORE.norm>
-3.39452

$$$$
P129681588
 OpenBabel12072022113D
libRbt.so/2013.1/901 2013/11/27
 20 20  0  0  0  0  0  0  0  0999 V2000
    2.6697   15.0246    3.6128 C   0  0  0  0  0  0  0  0  0  0  0  0
    4.0489   14.5075    4.0027 C   0  0  0  0  0  0  0  0  0  0  0  0
    5.1606   15.2921    3.3065 C   0  0  0  0  0  0  0  0  0  0  0  0
    5.0711   16.8132    3.5734 C   0  0  0  0  0  0  0  0  0  0  0  0
    3.6516   17.3168    3.2051 C   0  0  0  0  0  0  0  0  0  0  0  0
    2.5367   16.5183    3.8816 C   0  0  0  0  0  0  0  0  0  0  0  0
    6.0904   17.5856    2.6864 C   0  0  0  0  0  0  0  0  0  0  0  0
    5.6708   17.6281    1.3199 O   0  0  0  0  0  0  0  0  0  0  0  0
    5.3062   17.1064    5.0384 N   0  0  0  0  0  0  0  0  0  0  0  0
    5.7275   18.2570    5.5984 C   0  0  0  0  0  0  0  0  0  0  0  0
    5.9070   19.4072    4.8931 N   0  3  0  0  0  0  0  0  0  0  0  0
    5.4396   19.5197    3.9795 H   0  0  0  0  0  0  0  0  0  0  0  0
    6.4148   20.5501    5.5288 N   0  0  0  0  0  0  0  0  0  0  0  0
    5.9804   18.2753    6.9203 N   0  0  0  0  0  0  0  0  0  0  0  0
    5.1531   18.4556    1.2268 H   0  0  0  0  0  0  0  0  0  0  0  0
    5.1602   16.3427    5.6840 H   0  0  0  0  0  0  0  0  0  0  0  0
    7.3463   20.7523    5.1459 H   0  0  0  0  0  0  0  0  0  0  0  0
    5.8260   21.3531    5.2744 H   0  0  0  0  0  0  0  0  0  0  0  0
    5.8820   17.4747    7.5245 H   0  0  0  0  0  0  0  0  0  0  0  0
    6.1903   19.1798    7.3276 H   0  0  0  0  0  0  0  0  0  0  0  0
  1  2  1  0  0  0  0
  1  6  1  0  0  0  0
  2  3  1  0  0  0  0
  3  4  1  0  0  0  0
  4  5  1  0  0  0  0
  4  7  1  0  0  0  0
  4  9  1  0  0  0  0
  5  6  1  0  0  0  0
  7  8  1  0  0  0  0
  8 15  1  0  0  0  0
  9 10  1  0  0  0  0
  9 16  1  0  0  0  0
 10 11  2  0  0  0  0
 10 14  1  0  0  0  0
 11 12  1  0  0  0  0
 11 13  1  0  0  0  0
 13 17  1  0  0  0  0
 13 18  1  0  0  0  0
 14 19  1  0  0  0  0
 14 20  1  0  0  0  0
M  CHG  1  11   1
M  END
>  <CHROM.0>
-63.98013541,-62.92213213,-66.92117021,-49.62195121,-57.87111624,-61.39769986
-65.46950230,-58.62242850,-167.53853574

>  <CHROM.1>
73.45882803,156.85187184,91.78096623,112.87572750,4.97311953,17.31594131
4.11980183,2.54480886,-0.95354376,-1.73066509

>  <Name>
P129681588

>  <RI>
3.58524e+07

>  <Rbt.Current_Directory>
/home/fstefaniak/projects/zuza/docking/adenine/4XNR

>  <Rbt.Executable>
rbdock ($Id: //depot/dev/client3/rdock/2013.1/src/exe/rbdock.cxx#4 $)

>  <Rbt.Library>
libRbt.so (2013.1, Build901 2013/11/27)

>  <Rbt.Parameter_File>
/home/fstefaniak/progs/rDock//data/scripts/dock_solv.prm

>  <Rbt.Receptor>
4xnr.prm

>  <SCORE>
-44.1246

>  <SCORE.INTER>
-28.8779

>  <SCORE.INTER.CONST>
1

>  <SCORE.INTER.POLAR>
-4.42328

>  <SCORE.INTER.ROT>
3

>  <SCORE.INTER.SOLV>
24.9896

>  <SCORE.INTER.VDW>
-18.4376

>  <SCORE.INTER.norm>
-2.22138

>  <SCORE.INTRA>
5.57471

>  <SCORE.INTRA.DIHEDRAL>
4.24626

>  <SCORE.INTRA.DIHEDRAL.0>
3.73413

>  <SCORE.INTRA.POLAR>
0.942912

>  <SCORE.INTRA.POLAR.0>
-1.01119

>  <SCORE.INTRA.REPUL>
0

>  <SCORE.INTRA.REPUL.0>
0

>  <SCORE.INTRA.SOLV>
-1.5952

>  <SCORE.INTRA.SOLV.lig_0>
-28.5556

>  <SCORE.INTRA.VDW>
1.04328

>  <SCORE.INTRA.VDW.0>
-0.773546

>  <SCORE.INTRA.norm>
0.428824

>  <SCORE.RESTR>
0

>  <SCORE.RESTR.CAVITY>
0

>  <SCORE.RESTR.norm>
0

>  <SCORE.SYSTEM>
-20.8214

>  <SCORE.SYSTEM.CONST>
0

>  <SCORE.SYSTEM.DIHEDRAL>
3.82677

>  <SCORE.SYSTEM.POLAR>
-2.91422

>  <SCORE.SYSTEM.SOLV>
0.278001

>  <SCORE.SYSTEM.VDW>
-5.53515

>  <SCORE.SYSTEM.norm>
-1.60165

>  <SCORE.heavy>
13

>  <SCORE.norm>
-3.3942

$$$$
P129686110
 OpenBabel12072022113D
libRbt.so/2013.1/901 2013/11/27
 15 16  0  0  0  0  0  0  0  0999 V2000
    0.9361   16.1790    4.6469 C   0  0  0  0  0  0  0  0  0  0  0  0
    1.6995   15.4910    3.5203 C   0  0  1  0  0  0  0  0  0  0  0  0
    3.1189   15.1722    4.0057 C   0  0  0  0  0  0  0  0  0  0  0  0
    4.0290   15.9956    4.0241 O   0  0  0  0  0  0  0  0  0  0  0  0
    3.2455   13.9877    4.6897 N   0  0  0  0  0  0  0  0  0  0  0  0
    2.5449   12.7677    4.2587 C   0  0  1  0  0  0  0  0  0  0  0  0
    1.1141   13.0965    3.7121 C   0  0  0  0  0  0  0  0  0  0  0  0
    0.1974   12.2842    3.6052 O   0  0  0  0  0  0  0  0  0  0  0  0
    0.9900   14.3057    3.0614 N   0  0  0  0  0  0  0  0  0  0  0  0
    3.3228   12.1404    3.0868 C   0  0  0  0  0  0  0  0  0  0  0  0
    2.5954   11.8249    5.4569 C   0  0  0  0  0  0  0  0  0  0  0  0
    3.3534   10.5182    5.4458 C   0  0  0  0  0  0  0  0  0  0  0  0
    1.8492   10.5116    5.5146 C   0  0  0  0  0  0  0  0  0  0  0  0
    4.1838   13.8642    5.0473 H   0  0  0  0  0  0  0  0  0  0  0  0
    0.0659   14.4428    2.6699 H   0  0  0  0  0  0  0  0  0  0  0  0
  2  1  1  1  0  0  0
  2  3  1  0  0  0  0
  2  9  1  0  0  0  0
  3  4  2  0  0  0  0
  3  5  1  0  0  0  0
  5  6  1  0  0  0  0
  5 14  1  0  0  0  0
  6  7  1  0  0  0  0
  6 11  1  0  0  0  0
  6 10  1  6  0  0  0
  7  8  2  0  0  0  0
  7  9  1  0  0  0  0
  9 15  1  0  0  0  0
 11 12  1  0  0  0  0
 11 13  1  0  0  0  0
 12 13  1  0  0  0  0
M  END
>  <CHROM.0>
-60.61940124,-177.39239486,-72.44322815,-47.20421357,-177.60166541,-60.40552084
-173.47233089,-176.57350251,-168.05820516

>  <CHROM.1>
-114.50561609,2.22563029,13.42623940,4.22093370,1.60471209,-0.26559651,-0.20764466

>  <Name>
P129686110

>  <RI>
4.17015e+07

>  <Rbt.Current_Directory>
/home/fstefaniak/projects/zuza/docking/adenine/4XNR

>  <Rbt.Executable>
rbdock ($Id: //depot/dev/client3/rdock/2013.1/src/exe/rbdock.cxx#4 $)

>  <Rbt.Library>
libRbt.so (2013.1, Build901 2013/11/27)

>  <Rbt.Parameter_File>
/home/fstefaniak/progs/rDock//data/scripts/dock_solv.prm

>  <Rbt.Receptor>
4xnr.prm

>  <SCORE>
-32.765

>  <SCORE.INTER>
-14.9137

>  <SCORE.INTER.CONST>
1

>  <SCORE.INTER.POLAR>
-1.41864

>  <SCORE.INTER.ROT>
1

>  <SCORE.INTER.SOLV>
7.33548

>  <SCORE.INTER.VDW>
-11.9255

>  <SCORE.INTER.norm>
-1.14721

>  <SCORE.INTRA>
2.28986

>  <SCORE.INTRA.DIHEDRAL>
-1.05317

>  <SCORE.INTRA.DIHEDRAL.0>
3.14242

>  <SCORE.INTRA.POLAR>
0

>  <SCORE.INTRA.POLAR.0>
0

>  <SCORE.INTRA.REPUL>
0

>  <SCORE.INTRA.REPUL.0>
0

>  <SCORE.INTRA.SOLV>
-0.230771

>  <SCORE.INTRA.SOLV.lig_0>
-13.2699

>  <SCORE.INTRA.VDW>
2.93183

>  <SCORE.INTRA.VDW.0>
-0.283232

>  <SCORE.INTRA.norm>
0.176143

>  <SCORE.RESTR>
0.00533726

>  <SCORE.RESTR.CAVITY>
0.00533726

>  <SCORE.RESTR.norm>
0.000410559

>  <SCORE.SYSTEM>
-20.1464

>  <SCORE.SYSTEM.CONST>
0

>  <SCORE.SYSTEM.DIHEDRAL>
4.5121

>  <SCORE.SYSTEM.POLAR>
-2.95229

>  <SCORE.SYSTEM.SOLV>
-0.10003

>  <SCORE.SYSTEM.VDW>
-5.06069

>  <SCORE.SYSTEM.norm>
-1.54973

>  <SCORE.heavy>
13

>  <SCORE.norm>
-2.52038

$$$$
P129686110
 OpenBabel12072022113D
libRbt.so/2013.1/901 2013/11/27
 15 16  0  0  0  0  0  0  0  0999 V2000
   -0.4866   13.3606    1.5671 C   0  0  0  0  0  0  0  0  0  0  0  0
    0.2167   12.5927    2.6810 C   0  0  1  0  0  0  0  0  0  0  0  0
    1.5897   12.1327    2.1759 C   0  0  0  0  0  0  0  0  0  0  0  0
    1.7557   11.1353    1.4800 O   0  0  0  0  0  0  0  0  0  0  0  0
    2.5956   13.0591    2.3060 N   0  0  0  0  0  0  0  0  0  0  0  0
    2.7253   13.8952    3.5098 C   0  0  1  0  0  0  0  0  0  0  0  0
    1.3219   14.3223    4.0594 C   0  0  0  0  0  0  0  0  0  0  0  0
    1.1214   15.2678    4.8194 O   0  0  0  0  0  0  0  0  0  0  0  0
    0.3111   13.4005    3.8883 N   0  0  0  0  0  0  0  0  0  0  0  0
    3.3899   13.0605    4.6205 C   0  0  0  0  0  0  0  0  0  0  0  0
    3.6567   15.0365    3.1138 C   0  0  0  0  0  0  0  0  0  0  0  0
    4.6814   15.6276    4.0533 C   0  0  0  0  0  0  0  0  0  0  0  0
    3.4991   16.4526    3.6186 C   0  0  0  0  0  0  0  0  0  0  0  0
    3.4585   12.7304    1.8923 H   0  0  0  0  0  0  0  0  0  0  0  0
   -0.5584   13.6937    4.3173 H   0  0  0  0  0  0  0  0  0  0  0  0
  2  1  1  6  0  0  0
  2  3  1  0  0  0  0
  2  9  1  0  0  0  0
  3  4  2  0  0  0  0
  3  5  1  0  0  0  0
  5  6  1  0  0  0  0
  5 14  1  0  0  0  0
  6  7  1  0  0  0  0
  6 11  1  0  0  0  0
  6 10  1  1  0  0  0
  7  8  2  0  0  0  0
  7  9  1  0  0  0  0
  9 15  1  0  0  0  0
 11 12  1  0  0  0  0
 11 13  1  0  0  0  0
 12 13  1  0  0  0  0
M  END
>  <CHROM.0>
-57.58495524,61.29931328,-71.62644766,52.53689101,-175.54945742,-64.50410411
-171.13171057,-58.27027574,-167.99421948

>  <CHROM.1>
-143.04582534,2.00962840,13.78122531,3.22101361,2.24115416,-0.05787169,-2.54653419

>  <Name>
P129686110

>  <RI>
4.17015e+07

>  <Rbt.Current_Directory>
/home/fstefaniak/projects/zuza/docking/adenine/4XNR

>  <Rbt.Executable>
rbdock ($Id: //depot/dev/client3/rdock/2013.1/src/exe/rbdock.cxx#4 $)

>  <Rbt.Library>
libRbt.so (2013.1, Build901 2013/11/27)

>  <Rbt.Parameter_File>
/home/fstefaniak/progs/rDock//data/scripts/dock_solv.prm

>  <Rbt.Receptor>
4xnr.prm

>  <SCORE>
-30.9105

>  <SCORE.INTER>
-18.2731

>  <SCORE.INTER.CONST>
1

>  <SCORE.INTER.POLAR>
-2.45772

>  <SCORE.INTER.ROT>
1

>  <SCORE.INTER.SOLV>
9.19999

>  <SCORE.INTER.VDW>
-11.323

>  <SCORE.INTER.norm>
-1.40562

>  <SCORE.INTRA>
1.6532

>  <SCORE.INTRA.DIHEDRAL>
-0.747135

>  <SCORE.INTRA.DIHEDRAL.0>
3.14242

>  <SCORE.INTRA.POLAR>
0

>  <SCORE.INTRA.POLAR.0>
0

>  <SCORE.INTRA.REPUL>
0

>  <SCORE.INTRA.REPUL.0>
0

>  <SCORE.INTRA.SOLV>
-0.13868

>  <SCORE.INTRA.SOLV.lig_0>
-13.2699

>  <SCORE.INTRA.VDW>
2.09611

>  <SCORE.INTRA.VDW.0>
-0.283232

>  <SCORE.INTRA.norm>
0.127169

>  <SCORE.RESTR>
2.03446

>  <SCORE.RESTR.CAVITY>
2.03446

>  <SCORE.RESTR.norm>
0.156497

>  <SCORE.SYSTEM>
-16.3251

>  <SCORE.SYSTEM.CONST>
0

>  <SCORE.SYSTEM.DIHEDRAL>
4.21682

>  <SCORE.SYSTEM.POLAR>
-2.41815

>  <SCORE.SYSTEM.SOLV>
0.0710197

>  <SCORE.SYSTEM.VDW>
-4.25222

>  <SCORE.SYSTEM.norm>
-1.25578

>  <SCORE.heavy>
13

>  <SCORE.norm>
-2.37773

$$$$
P129686110
 OpenBabel12072022113D
libRbt.so/2013.1/901 2013/11/27
 15 16  0  0  0  0  0  0  0  0999 V2000
    1.1210   16.0382    4.7711 C   0  0  0  0  0  0  0  0  0  0  0  0
    1.5102   15.4835    3.4051 C   0  0  1  0  0  0  0  0  0  0  0  0
    3.0192   15.2101    3.3926 C   0  0  0  0  0  0  0  0  0  0  0  0
    3.8634   16.0803    3.2010 O   0  0  0  0  0  0  0  0  0  0  0  0
    3.3909   13.9857    3.8924 N   0  0  0  0  0  0  0  0  0  0  0  0
    2.6272   12.7643    3.5924 C   0  0  1  0  0  0  0  0  0  0  0  0
    1.0878   13.0517    3.5515 C   0  0  0  0  0  0  0  0  0  0  0  0
    0.2092   12.1989    3.6625 O   0  0  0  0  0  0  0  0  0  0  0  0
    0.7283   14.2982    3.0846 N   0  0  0  0  0  0  0  0  0  0  0  0
    3.0141   12.2743    2.1845 C   0  0  0  0  0  0  0  0  0  0  0  0
    3.0818   11.7368    4.6243 C   0  0  0  0  0  0  0  0  0  0  0  0
    2.1241   11.0017    5.5324 C   0  0  0  0  0  0  0  0  0  0  0  0
    3.0906   12.0000    6.1128 C   0  0  0  0  0  0  0  0  0  0  0  0
    4.3974   13.8891    3.9268 H   0  0  0  0  0  0  0  0  0  0  0  0
   -0.2758   14.4119    3.0150 H   0  0  0  0  0  0  0  0  0  0  0  0
  2  1  1  1  0  0  0
  2  3  1  0  0  0  0
  2  9  1  0  0  0  0
  3  4  2  0  0  0  0
  3  5  1  0  0  0  0
  5  6  1  0  0  0  0
  5 14  1  0  0  0  0
  6  7  1  0  0  0  0
  6 11  1  0  0  0  0
  6 10  1  6  0  0  0
  7  8  2  0  0  0  0
  7  9  1  0  0  0  0
  9 15  1  0  0  0  0
 11 12  1  0  0  0  0
 11 13  1  0  0  0  0
 12 13  1  0  0  0  0
M  END
>  <CHROM.0>
-54.80894042,-60.97793769,-72.92642756,-46.56322869,-175.95937553,-63.67528810
-173.06011150,-60.55256125,-167.97705526

>  <CHROM.1>
125.14138360,2.21155118,13.56913620,3.91578381,1.55155751,-0.13331484,-0.29642301

>  <Name>
P129686110

>  <RI>
4.17015e+07

>  <Rbt.Current_Directory>
/home/fstefaniak/projects/zuza/docking/adenine/4XNR

>  <Rbt.Executable>
rbdock ($Id: //depot/dev/client3/rdock/2013.1/src/exe/rbdock.cxx#4 $)

>  <Rbt.Library>
libRbt.so (2013.1, Build901 2013/11/27)

>  <Rbt.Parameter_File>
/home/fstefaniak/progs/rDock//data/scripts/dock_solv.prm

>  <Rbt.Receptor>
4xnr.prm

>  <SCORE>
-29.7826

>  <SCORE.INTER>
-8.92433

>  <SCORE.INTER.CONST>
1

>  <SCORE.INTER.POLAR>
-1.3775

>  <SCORE.INTER.ROT>
1

>  <SCORE.INTER.SOLV>
7.60628

>  <SCORE.INTER.VDW>
-8.15999

>  <SCORE.INTER.norm>
-0.686487

>  <SCORE.INTRA>
-0.673094

>  <SCORE.INTRA.DIHEDRAL>
-1.05636

>  <SCORE.INTRA.DIHEDRAL.0>
3.14242

>  <SCORE.INTRA.POLAR>
0

>  <SCORE.INTRA.POLAR.0>
0

>  <SCORE.INTRA.REPUL>
0

>  <SCORE.INTRA.REPUL.0>
0

>  <SCORE.INTRA.SOLV>
0.0939664

>  <SCORE.INTRA.SOLV.lig_0>
-13.2699

>  <SCORE.INTRA.VDW>
-0.191896

>  <SCORE.INTRA.VDW.0>
-0.283232

>  <SCORE.INTRA.norm>
-0.0517765

>  <SCORE.RESTR>
0.214699

>  <SCORE.RESTR.CAVITY>
0.214699

>  <SCORE.RESTR.norm>
0.0165153

>  <SCORE.SYSTEM>
-20.3999

>  <SCORE.SYSTEM.CONST>
0

>  <SCORE.SYSTEM.DIHEDRAL>
4.8212

>  <SCORE.SYSTEM.POLAR>
-3.00416

>  <SCORE.SYSTEM.SOLV>
0.058212

>  <SCORE.SYSTEM.VDW>
-5.21253

>  <SCORE.SYSTEM.norm>
-1.56922

>  <SCORE.heavy>
13

>  <SCORE.norm>
-2.29097

$$$$
P129686112
 OpenBabel12072022113D
libRbt.so/2013.1/901 2013/11/27
 15 16  0  0  0  0  0  0  0  0999 V2000
   -0.9936   11.3494    1.6119 C   0  0  0  0  0  0  0  0  0  0  0  0
   -0.6987   12.7312    2.1861 C   0  0  1  0  0  0  0  0  0  0  0  0
   -0.8141   12.6762    3.7168 C   0  0  0  0  0  0  0  0  0  0  0  0
   -1.8883   12.6947    4.3121 O   0  0  0  0  0  0  0  0  0  0  0  0
    0.3335   12.3066    4.3761 N   0  0  0  0  0  0  0  0  0  0  0  0
    1.6498   12.7968    3.9486 C   0  0  2  0  0  0  0  0  0  0  0  0
    1.7573   12.8436    2.3906 C   0  0  0  0  0  0  0  0  0  0  0  0
    2.8165   12.8039    1.7680 O   0  0  0  0  0  0  0  0  0  0  0  0
    0.6016   13.2005    1.7287 N   0  0  0  0  0  0  0  0  0  0  0  0
    2.7108   11.8164    4.4743 C   0  0  0  0  0  0  0  0  0  0  0  0
    1.8607   14.1592    4.6111 C   0  0  0  0  0  0  0  0  0  0  0  0
    2.6315   15.2640    3.9222 C   0  0  0  0  0  0  0  0  0  0  0  0
    1.1597   15.4287    4.1752 C   0  0  0  0  0  0  0  0  0  0  0  0
    0.1837   12.2286    5.3741 H   0  0  0  0  0  0  0  0  0  0  0  0
    0.7346   13.2916    0.7291 H   0  0  0  0  0  0  0  0  0  0  0  0
  2  1  1  6  0  0  0
  2  3  1  0  0  0  0
  2  9  1  0  0  0  0
  3  4  2  0  0  0  0
  3  5  1  0  0  0  0
  5  6  1  0  0  0  0
  5 14  1  0  0  0  0
  6  7  1  0  0  0  0
  6 10  1  1  0  0  0
  6 11  1  0  0  0  0
  7  8  2  0  0  0  0
  7  9  1  0  0  0  0
  9 15  1  0  0  0  0
 11 12  1  0  0  0  0
 11 13  1  0  0  0  0
 12 13  1  0  0  0  0
M  END
>  <CHROM.0>
-58.06095208,-176.43982367,-67.52566778,-47.17479937,-60.39380172,-176.18322710
-67.59491697,-58.43147867,-167.77199564

>  <CHROM.1>
-146.47259298,0.84590217,13.06138663,3.31077074,-2.66592333,0.27621422,0.97375775

>  <Name>
P129686112

>  <RI>
4.17015e+07

>  <Rbt.Current_Directory>
/home/fstefaniak/projects/zuza/docking/adenine/4XNR

>  <Rbt.Executable>
rbdock ($Id: //depot/dev/client3/rdock/2013.1/src/exe/rbdock.cxx#4 $)

>  <Rbt.Library>
libRbt.so (2013.1, Build901 2013/11/27)

>  <Rbt.Parameter_File>
/home/fstefaniak/progs/rDock//data/scripts/dock_solv.prm

>  <Rbt.Receptor>
4xnr.prm

>  <SCORE>
-42.772

>  <SCORE.INTER>
-22.388

>  <SCORE.INTER.CONST>
1

>  <SCORE.INTER.POLAR>
-2.63814

>  <SCORE.INTER.ROT>
1

>  <SCORE.INTER.SOLV>
8.69631

>  <SCORE.INTER.VDW>
-13.297

>  <SCORE.INTER.norm>
-1.72216

>  <SCORE.INTRA>
-0.744214

>  <SCORE.INTRA.DIHEDRAL>
-0.688521

>  <SCORE.INTRA.DIHEDRAL.0>
3.20552

>  <SCORE.INTRA.POLAR>
0

>  <SCORE.INTRA.POLAR.0>
0

>  <SCORE.INTRA.REPUL>
0

>  <SCORE.INTRA.REPUL.0>
0

>  <SCORE.INTRA.SOLV>
0.197838

>  <SCORE.INTRA.SOLV.lig_0>
-13.0716

>  <SCORE.INTRA.VDW>
-0.498873

>  <SCORE.INTRA.VDW.0>
-0.348237

>  <SCORE.INTRA.norm>
-0.0572473

>  <SCORE.RESTR>
0.896508

>  <SCORE.RESTR.CAVITY>
0.896508

>  <SCORE.RESTR.norm>
0.0689622

>  <SCORE.SYSTEM>
-20.5363

>  <SCORE.SYSTEM.CONST>
0

>  <SCORE.SYSTEM.DIHEDRAL>
4.2271

>  <SCORE.SYSTEM.POLAR>
-2.98463

>  <SCORE.SYSTEM.SOLV>
0.150161

>  <SCORE.SYSTEM.VDW>
-5.20118

>  <SCORE.SYSTEM.norm>
-1.57971

>  <SCORE.heavy>
13

>  <SCORE.norm>
-3.29016

$$$$
P129686112
 OpenBabel12072022113D
libRbt.so/2013.1/901 2013/11/27
 15 16  0  0  0  0  0  0  0  0999 V2000
    6.8204   19.9401    5.5301 C   0  0  0  0  0  0  0  0  0  0  0  0
    6.9314   18.4236    5.4114 C   0  0  1  0  0  0  0  0  0  0  0  0
    5.6277   17.7823    5.9097 C   0  0  0  0  0  0  0  0  0  0  0  0
    5.3611   17.6362    7.0997 O   0  0  0  0  0  0  0  0  0  0  0  0
    4.6428   17.6483    4.9607 N   0  0  0  0  0  0  0  0  0  0  0  0
    4.9586   17.2383    3.5868 C   0  0  2  0  0  0  0  0  0  0  0  0
    6.2834   17.9005    3.0891 C   0  0  0  0  0  0  0  0  0  0  0  0
    6.5664   18.0797    1.9064 O   0  0  0  0  0  0  0  0  0  0  0  0
    7.2661   18.0477    4.0451 N   0  0  0  0  0  0  0  0  0  0  0  0
    3.8131   17.7134    2.6784 C   0  0  0  0  0  0  0  0  0  0  0  0
    5.0032   15.7095    3.5714 C   0  0  0  0  0  0  0  0  0  0  0  0
    4.3060   14.8861    4.6323 C   0  0  0  0  0  0  0  0  0  0  0  0
    3.8223   14.8329    3.2108 C   0  0  0  0  0  0  0  0  0  0  0  0
    3.7886   17.2772    5.3570 H   0  0  0  0  0  0  0  0  0  0  0  0
    8.1316   18.4104    3.6649 H   0  0  0  0  0  0  0  0  0  0  0  0
  2  1  1  6  0  0  0
  2  3  1  0  0  0  0
  2  9  1  0  0  0  0
  3  4  2  0  0  0  0
  3  5  1  0  0  0  0
  5  6  1  0  0  0  0
  5 14  1  0  0  0  0
  6  7  1  0  0  0  0
  6 10  1  6  0  0  0
  6 11  1  0  0  0  0
  7  8  2  0  0  0  0
  7  9  1  0  0  0  0
  9 15  1  0  0  0  0
 11 12  1  0  0  0  0
 11 13  1  0  0  0  0
 12 13  1  0  0  0  0
M  END
>  <CHROM.0>
-63.66337325,-64.34811105,-66.09361801,-49.96916193,-179.12815624,-60.35761910
-70.47724319,-62.09407340,-168.30435885

>  <CHROM.1>
21.50036168,5.49623205,17.39839054,4.28524766,-0.55539060,-0.88607362,-1.67555320

>  <Name>
P129686112

>  <RI>
4.17015e+07

>  <Rbt.Current_Directory>
/home/fstefaniak/projects/zuza/docking/adenine/4XNR

>  <Rbt.Executable>
rbdock ($Id: //depot/dev/client3/rdock/2013.1/src/exe/rbdock.cxx#4 $)

>  <Rbt.Library>
libRbt.so (2013.1, Build901 2013/11/27)

>  <Rbt.Parameter_File>
/home/fstefaniak/progs/rDock//data/scripts/dock_solv.prm

>  <Rbt.Receptor>
4xnr.prm

>  <SCORE>
-28.1393

>  <SCORE.INTER>
-9.1071

>  <SCORE.INTER.CONST>
1

>  <SCORE.INTER.POLAR>
-0.878682

>  <SCORE.INTER.ROT>
1

>  <SCORE.INTER.SOLV>
14.6602

>  <SCORE.INTER.VDW>
-12.2959

>  <SCORE.INTER.norm>
-0.700546

>  <SCORE.INTRA>
1.85421

>  <SCORE.INTRA.DIHEDRAL>
-0.863494

>  <SCORE.INTRA.DIHEDRAL.0>
3.20552

>  <SCORE.INTRA.POLAR>
0

>  <SCORE.INTRA.POLAR.0>
0

>  <SCORE.INTRA.REPUL>
0

>  <SCORE.INTRA.REPUL.0>
0

>  <SCORE.INTRA.SOLV>
-0.272376

>  <SCORE.INTRA.SOLV.lig_0>
-13.0716

>  <SCORE.INTRA.VDW>
2.42215

>  <SCORE.INTRA.VDW.0>
-0.348237

>  <SCORE.INTRA.norm>
0.142632

>  <SCORE.RESTR>
0

>  <SCORE.RESTR.CAVITY>
0

>  <SCORE.RESTR.norm>
0

>  <SCORE.SYSTEM>
-20.8864

>  <SCORE.SYSTEM.CONST>
0

>  <SCORE.SYSTEM.DIHEDRAL>
4.04645

>  <SCORE.SYSTEM.POLAR>
-2.90444

>  <SCORE.SYSTEM.SOLV>
0.0864825

>  <SCORE.SYSTEM.VDW>
-5.62043

>  <SCORE.SYSTEM.norm>
-1.60664

>  <SCORE.heavy>
13

>  <SCORE.norm>
-2.16456

$$$$
P129686112
 OpenBabel12072022113D
libRbt.so/2013.1/901 2013/11/27
 15 16  0  0  0  0  0  0  0  0999 V2000
    6.8635   19.9137    5.4902 C   0  0  0  0  0  0  0  0  0  0  0  0
    6.9644   18.3982    5.3514 C   0  0  1  0  0  0  0  0  0  0  0  0
    5.6689   17.7571    5.8711 C   0  0  0  0  0  0  0  0  0  0  0  0
    5.4282   17.5982    7.0650 O   0  0  0  0  0  0  0  0  0  0  0  0
    4.6626   17.6389    4.9428 N   0  0  0  0  0  0  0  0  0  0  0  0
    4.9457   17.2435    3.5575 C   0  0  2  0  0  0  0  0  0  0  0  0
    6.2623   17.9054    3.0382 C   0  0  0  0  0  0  0  0  0  0  0  0
    6.5198   18.0972    1.8517 O   0  0  0  0  0  0  0  0  0  0  0  0
    7.2667   18.0368    3.9737 N   0  0  0  0  0  0  0  0  0  0  0  0
    3.7826   17.7346    2.6806 C   0  0  0  0  0  0  0  0  0  0  0  0
    4.9825   15.7148    3.5234 C   0  0  0  0  0  0  0  0  0  0  0  0
    4.3250   14.8825    4.6025 C   0  0  0  0  0  0  0  0  0  0  0  0
    3.7839   14.8473    3.2013 C   0  0  0  0  0  0  0  0  0  0  0  0
    3.8156   17.2670    5.3537 H   0  0  0  0  0  0  0  0  0  0  0  0
    8.1253   18.4000    3.5785 H   0  0  0  0  0  0  0  0  0  0  0  0
  2  1  1  6  0  0  0
  2  3  1  0  0  0  0
  2  9  1  0  0  0  0
  3  4  2  0  0  0  0
  3  5  1  0  0  0  0
  5  6  1  0  0  0  0
  5 14  1  0  0  0  0
  6  7  1  0  0  0  0
  6 10  1  6  0  0  0
  6 11  1  0  0  0  0
  7  8  2  0  0  0  0
  7  9  1  0  0  0  0
  9 15  1  0  0  0  0
 11 12  1  0  0  0  0
 11 13  1  0  0  0  0
 12 13  1  0  0  0  0
M  END
>  <CHROM.0>
-58.62481846,-63.14704695,-67.14639899,-48.20493734,-59.78585477,-175.14592513
-72.02718422,-59.86698500,-167.80362917

>  <CHROM.1>
20.44902815,5.50061861,17.39289650,4.24835801,-0.51475088,-0.88441570,-1.63417245

>  <Name>
P129686112

>  <RI>
4.17015e+07

>  <Rbt.Current_Directory>
/home/fstefaniak/projects/zuza/docking/adenine/4XNR

>  <Rbt.Executable>
rbdock ($Id: //depot/dev/client3/rdock/2013.1/src/exe/rbdock.cxx#4 $)

>  <Rbt.Library>
libRbt.so (2013.1, Build901 2013/11/27)

>  <Rbt.Parameter_File>
/home/fstefaniak/progs/rDock//data/scripts/dock_solv.prm

>  <Rbt.Receptor>
4xnr.prm

>  <SCORE>
-27.9276

>  <SCORE.INTER>
-9.02956

>  <SCORE.INTER.CONST>
1

>  <SCORE.INTER.POLAR>
-0.920964

>  <SCORE.INTER.ROT>
1

>  <SCORE.INTER.SOLV>
14.5892

>  <SCORE.INTER.VDW>
-12.0796

>  <SCORE.INTER.norm>
-0.694581

>  <SCORE.INTRA>
1.80043

>  <SCORE.INTRA.DIHEDRAL>
-0.892344

>  <SCORE.INTRA.DIHEDRAL.0>
3.20552

>  <SCORE.INTRA.POLAR>
0

>  <SCORE.INTRA.POLAR.0>
0

>  <SCORE.INTRA.REPUL>
0

>  <SCORE.INTRA.REPUL.0>
0

>  <SCORE.INTRA.SOLV>
-0.266133

>  <SCORE.INTRA.SOLV.lig_0>
-13.0716

>  <SCORE.INTRA.VDW>
2.37967

>  <SCORE.INTRA.VDW.0>
-0.348237

>  <SCORE.INTRA.norm>
0.138495

>  <SCORE.RESTR>
0

>  <SCORE.RESTR.CAVITY>
0

>  <SCORE.RESTR.norm>
0

>  <SCORE.SYSTEM>
-20.6985

>  <SCORE.SYSTEM.CONST>
0

>  <SCORE.SYSTEM.DIHEDRAL>
4.47263

>  <SCORE.SYSTEM.POLAR>
-2.96171

>  <SCORE.SYSTEM.SOLV>
0.155268

>  <SCORE.SYSTEM.VDW>
-5.46926

>  <SCORE.SYSTEM.norm>
-1.59219

>  <SCORE.heavy>
13

>  <SCORE.norm>
-2.14828

$$$$
P129686358
 OpenBabel12072022113D
libRbt.so/2013.1/901 2013/11/27
 14 14  0  0  0  0  0  0  0  0999 V2000
    5.2304   16.5256    3.3714 C   0  0  0  0  0  0  0  0  0  0  0  0
    4.4177   15.6222    4.2864 C   0  0  0  0  0  0  0  0  0  0  0  0
    3.1446   15.1313    3.5938 C   0  0  0  0  0  0  0  0  0  0  0  0
    2.1499   14.4525    4.5520 C   0  0  2  0  0  0  0  0  0  0  0  0
    2.8796   13.3466    5.3445 C   0  0  0  0  0  0  0  0  0  0  0  0
    3.5813   13.6281    6.3203 O   0  0  0  0  0  0  0  0  0  0  0  0
    2.9442   12.0691    4.8680 N   0  0  0  0  0  0  0  0  0  0  0  0
    2.0049   11.4085    3.9845 C   0  0  0  0  0  0  0  0  0  0  0  0
    1.7502   12.1344    2.6812 C   0  0  0  0  0  0  0  0  0  0  0  0
    0.7176   13.2049    2.8862 C   0  0  0  0  0  0  0  0  0  0  0  0
   -0.2786   13.2962    2.1725 O   0  0  0  0  0  0  0  0  0  0  0  0
    0.8890   14.0770    3.9159 N   0  0  0  0  0  0  0  0  0  0  0  0
    3.4697   11.4724    5.4979 H   0  0  0  0  0  0  0  0  0  0  0  0
    0.1534   14.7742    3.9373 H   0  0  0  0  0  0  0  0  0  0  0  0
  1  2  1  0  0  0  0
  2  3  1  0  0  0  0
  4  5  1  0  0  0  0
  4 12  1  0  0  0  0
  4  3  1  6  0  0  0
  5  6  2  0  0  0  0
  5  7  1  0  0  0  0
  7  8  1  0  0  0  0
  7 13  1  0  0  0  0
  8  9  1  0  0  0  0
  9 10  1  0  0  0  0
 10 11  2  0  0  0  0
 10 12  1  0  0  0  0
 12 14  1  0  0  0  0
M  END
>  <CHROM.0>
-57.67600904,-47.18666577,-67.26160531,-47.04720894,-176.45943052,-63.22770379
-67.61262020,-61.03229504,-167.38079773

>  <CHROM.1>
-168.39654558,-52.53051308,2.46025266,13.75102358,4.00247228,0.33825552,-0.64528191
-0.61830659

>  <Name>
P129686358

>  <RI>
4.17015e+07

>  <Rbt.Current_Directory>
/home/fstefaniak/projects/zuza/docking/adenine/4XNR

>  <Rbt.Executable>
rbdock ($Id: //depot/dev/client3/rdock/2013.1/src/exe/rbdock.cxx#4 $)

>  <Rbt.Library>
libRbt.so (2013.1, Build901 2013/11/27)

>  <Rbt.Parameter_File>
/home/fstefaniak/progs/rDock//data/scripts/dock_solv.prm

>  <Rbt.Receptor>
4xnr.prm

>  <SCORE>
-35.8581

>  <SCORE.INTER>
-17.6384

>  <SCORE.INTER.CONST>
1

>  <SCORE.INTER.POLAR>
-1.59962

>  <SCORE.INTER.ROT>
2

>  <SCORE.INTER.SOLV>
8.96874

>  <SCORE.INTER.VDW>
-14.3497

>  <SCORE.INTER.norm>
-1.46986

>  <SCORE.INTRA>
1.03409

>  <SCORE.INTRA.DIHEDRAL>
0.639909

>  <SCORE.INTRA.DIHEDRAL.0>
0.447682

>  <SCORE.INTRA.POLAR>
0

>  <SCORE.INTRA.POLAR.0>
0

>  <SCORE.INTRA.REPUL>
0

>  <SCORE.INTRA.REPUL.0>
0

>  <SCORE.INTRA.SOLV>
0.101505

>  <SCORE.INTRA.SOLV.lig_0>
-15.0362

>  <SCORE.INTRA.VDW>
0.663381

>  <SCORE.INTRA.VDW.0>
-0.689545

>  <SCORE.INTRA.norm>
0.086174

>  <SCORE.RESTR>
1.01013

>  <SCORE.RESTR.CAVITY>
1.01013

>  <SCORE.RESTR.norm>
0.0841776

>  <SCORE.SYSTEM>
-20.264

>  <SCORE.SYSTEM.CONST>
0

>  <SCORE.SYSTEM.DIHEDRAL>
5.00666

>  <SCORE.SYSTEM.POLAR>
-2.98811

>  <SCORE.SYSTEM.SOLV>
0.152749

>  <SCORE.SYSTEM.VDW>
-5.26875

>  <SCORE.SYSTEM.norm>
-1.68866

>  <SCORE.heavy>
12

>  <SCORE.norm>
-2.98818

$$$$
P129686358
 OpenBabel12072022113D
libRbt.so/2013.1/901 2013/11/27
 14 14  0  0  0  0  0  0  0  0999 V2000
    0.3086   11.5207    4.3562 C   0  0  0  0  0  0  0  0  0  0  0  0
   -0.3135   12.5463    3.4206 C   0  0  0  0  0  0  0  0  0  0  0  0
    0.6883   13.6438    3.0552 C   0  0  0  0  0  0  0  0  0  0  0  0
    1.1108   14.5103    4.2548 C   0  0  2  0  0  0  0  0  0  0  0  0
    1.5071   15.9157    3.7538 C   0  0  0  0  0  0  0  0  0  0  0  0
    0.6441   16.7574    3.4882 O   0  0  0  0  0  0  0  0  0  0  0  0
    2.7929   16.1933    3.3893 N   0  0  0  0  0  0  0  0  0  0  0  0
    4.0029   15.5572    3.8695 C   0  0  0  0  0  0  0  0  0  0  0  0
    4.0301   14.0529    3.7058 C   0  0  0  0  0  0  0  0  0  0  0  0
    3.3026   13.4018    4.8465 C   0  0  0  0  0  0  0  0  0  0  0  0
    3.8100   12.5068    5.5184 O   0  0  0  0  0  0  0  0  0  0  0  0
    2.0539   13.8463    5.1521 N   0  0  0  0  0  0  0  0  0  0  0  0
    2.8814   17.1521    3.0706 H   0  0  0  0  0  0  0  0  0  0  0  0
    1.6468   13.3137    5.9126 H   0  0  0  0  0  0  0  0  0  0  0  0
  1  2  1  0  0  0  0
  2  3  1  0  0  0  0
  4  5  1  0  0  0  0
  4 12  1  0  0  0  0
  4  3  1  6  0  0  0
  5  6  2  0  0  0  0
  5  7  1  0  0  0  0
  7  8  1  0  0  0  0
  7 13  1  0  0  0  0
  8  9  1  0  0  0  0
  9 10  1  0  0  0  0
 10 11  2  0  0  0  0
 10 12  1  0  0  0  0
 12 14  1  0  0  0  0
M  END
>  <CHROM.0>
-55.68531214,45.75372574,-66.62923840,-45.24063054,-63.55088936,-63.51607200
-70.45241785,-174.26169883,-168.06179406

>  <CHROM.1>
-65.38404035,-152.35557613,1.98882578,14.19781620,4.07770822,2.02631961,0.26096304
2.85715991

>  <Name>
P129686358

>  <RI>
4.17015e+07

>  <Rbt.Current_Directory>
/home/fstefaniak/projects/zuza/docking/adenine/4XNR

>  <Rbt.Executable>
rbdock ($Id: //depot/dev/client3/rdock/2013.1/src/exe/rbdock.cxx#4 $)

>  <Rbt.Library>
libRbt.so (2013.1, Build901 2013/11/27)

>  <Rbt.Parameter_File>
/home/fstefaniak/progs/rDock//data/scripts/dock_solv.prm

>  <Rbt.Receptor>
4xnr.prm

>  <SCORE>
-35.7693

>  <SCORE.INTER>
-17.7451

>  <SCORE.INTER.CONST>
1

>  <SCORE.INTER.POLAR>
-1.99331

>  <SCORE.INTER.ROT>
2

>  <SCORE.INTER.SOLV>
10.465

>  <SCORE.INTER.VDW>
-13.6074

>  <SCORE.INTER.norm>
-1.47876

>  <SCORE.INTRA>
1.83704

>  <SCORE.INTRA.DIHEDRAL>
2.03606

>  <SCORE.INTRA.DIHEDRAL.0>
0.447682

>  <SCORE.INTRA.POLAR>
0

>  <SCORE.INTRA.POLAR.0>
0

>  <SCORE.INTRA.REPUL>
0

>  <SCORE.INTRA.REPUL.0>
0

>  <SCORE.INTRA.SOLV>
0.342643

>  <SCORE.INTRA.SOLV.lig_0>
-15.0362

>  <SCORE.INTRA.VDW>
0.647692

>  <SCORE.INTRA.VDW.0>
-0.689545

>  <SCORE.INTRA.norm>
0.153087

>  <SCORE.RESTR>
0.0415558

>  <SCORE.RESTR.CAVITY>
0.0415558

>  <SCORE.RESTR.norm>
0.00346298

>  <SCORE.SYSTEM>
-19.9028

>  <SCORE.SYSTEM.CONST>
0

>  <SCORE.SYSTEM.DIHEDRAL>
5.72688

>  <SCORE.SYSTEM.POLAR>
-3.1043

>  <SCORE.SYSTEM.SOLV>
0.260998

>  <SCORE.SYSTEM.VDW>
-4.9168

>  <SCORE.SYSTEM.norm>
-1.65856

>  <SCORE.heavy>
12

>  <SCORE.norm>
-2.98077

$$$$
P129686358
 OpenBabel12072022113D
libRbt.so/2013.1/901 2013/11/27
 14 14  0  0  0  0  0  0  0  0999 V2000
   -0.5714   11.8965    2.0178 C   0  0  0  0  0  0  0  0  0  0  0  0
   -0.1645   12.5994    3.3041 C   0  0  0  0  0  0  0  0  0  0  0  0
    0.6678   13.8502    3.0137 C   0  0  0  0  0  0  0  0  0  0  0  0
    1.1117   14.5978    4.2836 C   0  0  2  0  0  0  0  0  0  0  0  0
    1.5099   16.0422    3.9116 C   0  0  0  0  0  0  0  0  0  0  0  0
    0.6486   16.9093    3.7384 O   0  0  0  0  0  0  0  0  0  0  0  0
    2.7924   16.3466    3.5569 N   0  0  0  0  0  0  0  0  0  0  0  0
    4.0048   15.6622    3.9582 C   0  0  0  0  0  0  0  0  0  0  0  0
    4.0205   14.1800    3.6533 C   0  0  0  0  0  0  0  0  0  0  0  0
    3.3044   13.4279    4.7377 C   0  0  0  0  0  0  0  0  0  0  0  0
    3.8153   12.4711    5.3153 O   0  0  0  0  0  0  0  0  0  0  0  0
    2.0627   13.8476    5.1012 N   0  0  0  0  0  0  0  0  0  0  0  0
    2.8825   17.3308    3.3286 H   0  0  0  0  0  0  0  0  0  0  0  0
    1.6626   13.2478    5.8138 H   0  0  0  0  0  0  0  0  0  0  0  0
  1  2  1  0  0  0  0
  2  3  1  0  0  0  0
  4  5  1  0  0  0  0
  4 12  1  0  0  0  0
  4  3  1  6  0  0  0
  5  6  2  0  0  0  0
  5  7  1  0  0  0  0
  7  8  1  0  0  0  0
  7 13  1  0  0  0  0
  8  9  1  0  0  0  0
  9 10  1  0  0  0  0
 10 11  2  0  0  0  0
 10 12  1  0  0  0  0
 12 14  1  0  0  0  0
M  END
>  <CHROM.0>
-171.48799142,38.90051009,-68.68026966,-46.29150166,-57.21849346,-63.91356864
-67.33627834,-57.69817925,-168.17695540

>  <CHROM.1>
-179.76362919,-161.12561643,1.92314537,14.31330278,3.88176978,-2.55066701
-0.41251131,-0.05640705

>  <Name>
P129686358

>  <RI>
4.17015e+07

>  <Rbt.Current_Directory>
/home/fstefaniak/projects/zuza/docking/adenine/4XNR

>  <Rbt.Executable>
rbdock ($Id: //depot/dev/client3/rdock/2013.1/src/exe/rbdock.cxx#4 $)

>  <Rbt.Library>
libRbt.so (2013.1, Build901 2013/11/27)

>  <Rbt.Parameter_File>
/home/fstefaniak/progs/rDock//data/scripts/dock_solv.prm

>  <Rbt.Receptor>
4xnr.prm

>  <SCORE>
-34.2882

>  <SCORE.INTER>
-18.3359

>  <SCORE.INTER.CONST>
1

>  <SCORE.INTER.POLAR>
-1.96561

>  <SCORE.INTER.ROT>
2

>  <SCORE.INTER.SOLV>
10.6257

>  <SCORE.INTER.VDW>
-14.1471

>  <SCORE.INTER.norm>
-1.52799

>  <SCORE.INTRA>
0.385898

>  <SCORE.INTRA.DIHEDRAL>
0.955909

>  <SCORE.INTRA.DIHEDRAL.0>
0.447682

>  <SCORE.INTRA.POLAR>
0

>  <SCORE.INTRA.POLAR.0>
0

>  <SCORE.INTRA.REPUL>
0

>  <SCORE.INTRA.REPUL.0>
0

>  <SCORE.INTRA.SOLV>
-0.0682064

>  <SCORE.INTRA.SOLV.lig_0>
-15.0362

>  <SCORE.INTRA.VDW>
-0.0579531

>  <SCORE.INTRA.VDW.0>
-0.689545

>  <SCORE.INTRA.norm>
0.0321582

>  <SCORE.RESTR>
0.0849359

>  <SCORE.RESTR.CAVITY>
0.0849359

>  <SCORE.RESTR.norm>
0.00707799

>  <SCORE.SYSTEM>
-16.4232

>  <SCORE.SYSTEM.CONST>
0

>  <SCORE.SYSTEM.DIHEDRAL>
6.59194

>  <SCORE.SYSTEM.POLAR>
-2.5322

>  <SCORE.SYSTEM.SOLV>
0.398588

>  <SCORE.SYSTEM.VDW>
-4.83832

>  <SCORE.SYSTEM.norm>
-1.3686

>  <SCORE.heavy>
12

>  <SCORE.norm>
-2.85735

$$$$
P129694981
 OpenBabel12072022113D
libRbt.so/2013.1/901 2013/11/27
 17 18  0  0  0  0  0  0  0  0999 V2000
    2.7584   13.8316    5.0199 C   0  0  0  0  0  0  0  0  0  0  0  0
    3.8982   14.5845    4.3517 C   0  0  0  0  0  0  0  0  0  0  0  0
    3.2575   15.7363    3.7321 N   0  0  0  0  0  0  0  0  0  0  0  0
    1.8180   15.5400    3.6516 C   0  0  0  0  0  0  0  0  0  0  0  0
    1.5847   14.0914    4.0838 C   0  0  2  0  0  0  0  0  0  0  0  0
    0.3580   13.9019    4.7664 O   0  0  0  0  0  0  0  0  0  0  0  0
    3.8503   16.8186    3.1150 C   0  0  0  0  0  0  0  0  0  0  0  0
    3.1547   17.6384    2.5059 O   0  0  0  0  0  0  0  0  0  0  0  0
    5.3899   16.9887    3.1831 C   0  0  2  0  0  0  0  0  0  0  0  0
    5.8854   17.6076    4.4806 C   0  0  0  0  0  0  0  0  0  0  0  0
    7.1724   18.3071    4.0849 C   0  0  0  0  0  0  0  0  0  0  0  0
    7.1202   18.5531    2.6745 O   0  0  0  0  0  0  0  0  0  0  0  0
    5.8571   18.0648    2.1881 C   0  0  0  0  0  0  0  0  0  0  0  0
    6.0782   15.6956    2.9097 N   0  0  0  0  0  0  0  0  0  0  0  0
   -0.3606   14.1023    4.1414 H   0  0  0  0  0  0  0  0  0  0  0  0
    5.3863   15.0445    2.5304 H   0  0  0  0  0  0  0  0  0  0  0  0
    6.3473   15.2881    3.8078 H   0  0  0  0  0  0  0  0  0  0  0  0
  1  2  1  0  0  0  0
  1  5  1  0  0  0  0
  2  3  1  0  0  0  0
  3  4  1  0  0  0  0
  3  7  1  0  0  0  0
  4  5  1  0  0  0  0
  5  6  1  1  0  0  0
  6 15  1  0  0  0  0
  7  8  2  0  0  0  0
  9 10  1  0  0  0  0
  9 13  1  0  0  0  0
  9 14  1  0  0  0  0
  9  7  1  6  0  0  0
 10 11  1  0  0  0  0
 11 12  1  0  0  0  0
 12 13  1  0  0  0  0
 14 16  1  0  0  0  0
 14 17  1  0  0  0  0
M  END
>  <CHROM.0>
-65.37339386,-175.39560605,-60.97833030,-46.98338267,-58.33118473,-61.40629501
-67.47636736,-56.14636926,-168.09945096

>  <CHROM.1>
178.39939936,12.81663779,-81.14172445,4.13582705,16.22951796,3.62100899,-2.49712526
-0.18923246,-0.57555440

>  <Name>
P129694981

>  <RI>
1.34432e+07

>  <Rbt.Current_Directory>
/home/fstefaniak/projects/zuza/docking/adenine/4XNR

>  <Rbt.Executable>
rbdock ($Id: //depot/dev/client3/rdock/2013.1/src/exe/rbdock.cxx#4 $)

>  <Rbt.Library>
libRbt.so (2013.1, Build901 2013/11/27)

>  <Rbt.Parameter_File>
/home/fstefaniak/progs/rDock//data/scripts/dock_solv.prm

>  <Rbt.Receptor>
4xnr.prm

>  <SCORE>
-48.8643

>  <SCORE.INTER>
-30.8723

>  <SCORE.INTER.CONST>
1

>  <SCORE.INTER.POLAR>
-3.79417

>  <SCORE.INTER.ROT>
2

>  <SCORE.INTER.SOLV>
14.1949

>  <SCORE.INTER.VDW>
-17.5993

>  <SCORE.INTER.norm>
-2.20517

>  <SCORE.INTRA>
2.55179

>  <SCORE.INTRA.DIHEDRAL>
2.2327

>  <SCORE.INTRA.DIHEDRAL.0>
0.577854

>  <SCORE.INTRA.POLAR>
0

>  <SCORE.INTRA.POLAR.0>
0

>  <SCORE.INTRA.REPUL>
0

>  <SCORE.INTRA.REPUL.0>
0

>  <SCORE.INTRA.SOLV>
0.142219

>  <SCORE.INTRA.SOLV.lig_0>
-15.9758

>  <SCORE.INTRA.VDW>
1.36433

>  <SCORE.INTRA.VDW.0>
-0.09275

>  <SCORE.INTRA.norm>
0.18227

>  <SCORE.RESTR>
0

>  <SCORE.RESTR.CAVITY>
0

>  <SCORE.RESTR.norm>
0

>  <SCORE.SYSTEM>
-20.5437

>  <SCORE.SYSTEM.CONST>
0

>  <SCORE.SYSTEM.DIHEDRAL>
4.12234

>  <SCORE.SYSTEM.POLAR>
-2.95727

>  <SCORE.SYSTEM.SOLV>
0.264293

>  <SCORE.SYSTEM.VDW>
-5.30044

>  <SCORE.SYSTEM.norm>
-1.46741

>  <SCORE.heavy>
14

>  <SCORE.norm>
-3.4903

$$$$
P129694981
 OpenBabel12072022113D
libRbt.so/2013.1/901 2013/11/27
 17 18  0  0  0  0  0  0  0  0999 V2000
    2.7883   13.7123    4.7794 C   0  0  0  0  0  0  0  0  0  0  0  0
    3.9037   14.5270    4.1436 C   0  0  0  0  0  0  0  0  0  0  0  0
    3.2458   15.7393    3.6761 N   0  0  0  0  0  0  0  0  0  0  0  0
    1.8026   15.5572    3.6391 C   0  0  0  0  0  0  0  0  0  0  0  0
    1.5770   14.0723    3.9282 C   0  0  2  0  0  0  0  0  0  0  0  0
    0.3796   13.8167    4.6408 O   0  0  0  0  0  0  0  0  0  0  0  0
    3.8197   16.8781    3.1493 C   0  0  0  0  0  0  0  0  0  0  0  0
    3.1047   17.7592    2.6601 O   0  0  0  0  0  0  0  0  0  0  0  0
    5.3621   17.0350    3.1667 C   0  0  2  0  0  0  0  0  0  0  0  0
    5.9066   17.6352    4.4533 C   0  0  0  0  0  0  0  0  0  0  0  0
    7.1852   18.3288    4.0215 C   0  0  0  0  0  0  0  0  0  0  0  0
    7.0872   18.5911    2.6166 O   0  0  0  0  0  0  0  0  0  0  0  0
    5.8042   18.1184    2.1682 C   0  0  0  0  0  0  0  0  0  0  0  0
    6.0298   15.7396    2.8558 N   0  0  0  0  0  0  0  0  0  0  0  0
   -0.3648   14.0270    4.0504 H   0  0  0  0  0  0  0  0  0  0  0  0
    6.2615   15.2840    3.7420 H   0  0  0  0  0  0  0  0  0  0  0  0
    6.9359   15.9483    2.4311 H   0  0  0  0  0  0  0  0  0  0  0  0
  1  2  1  0  0  0  0
  1  5  1  0  0  0  0
  2  3  1  0  0  0  0
  3  4  1  0  0  0  0
  3  7  1  0  0  0  0
  4  5  1  0  0  0  0
  5  6  1  1  0  0  0
  6 15  1  0  0  0  0
  7  8  2  0  0  0  0
  9 10  1  0  0  0  0
  9 13  1  0  0  0  0
  9 14  1  0  0  0  0
  9  7  1  1  0  0  0
 10 11  1  0  0  0  0
 11 12  1  0  0  0  0
 12 13  1  0  0  0  0
 14 16  1  0  0  0  0
 14 17  1  0  0  0  0
M  END
>  <CHROM.0>
-55.17736990,-61.28041048,-63.98946733,-47.08708029,-57.70226468,-62.11220042
-68.45907805,-59.14430201,-167.71172696

>  <CHROM.1>
-177.85674037,-95.19376064,-86.51711640,4.13015269,16.24394639,3.56059720
-2.47593039,-0.13181971,-0.46339619

>  <Name>
P129694981

>  <RI>
1.34432e+07

>  <Rbt.Current_Directory>
/home/fstefaniak/projects/zuza/docking/adenine/4XNR

>  <Rbt.Executable>
rbdock ($Id: //depot/dev/client3/rdock/2013.1/src/exe/rbdock.cxx#4 $)

>  <Rbt.Library>
libRbt.so (2013.1, Build901 2013/11/27)

>  <Rbt.Parameter_File>
/home/fstefaniak/progs/rDock//data/scripts/dock_solv.prm

>  <Rbt.Receptor>
4xnr.prm

>  <SCORE>
-47.0509

>  <SCORE.INTER>
-28.5016

>  <SCORE.INTER.CONST>
1

>  <SCORE.INTER.POLAR>
-3.59806

>  <SCORE.INTER.ROT>
2

>  <SCORE.INTER.SOLV>
13.7829

>  <SCORE.INTER.VDW>
-16.5352

>  <SCORE.INTER.norm>
-2.03583

>  <SCORE.INTRA>
2.29151

>  <SCORE.INTRA.DIHEDRAL>
1.94529

>  <SCORE.INTRA.DIHEDRAL.0>
0.577854

>  <SCORE.INTRA.POLAR>
0

>  <SCORE.INTRA.POLAR.0>
0

>  <SCORE.INTRA.REPUL>
0

>  <SCORE.INTRA.REPUL.0>
0

>  <SCORE.INTRA.SOLV>
0.0937665

>  <SCORE.INTRA.SOLV.lig_0>
-15.9758

>  <SCORE.INTRA.VDW>
1.27198

>  <SCORE.INTRA.VDW.0>
-0.09275

>  <SCORE.INTRA.norm>
0.163679

>  <SCORE.RESTR>
0

>  <SCORE.RESTR.CAVITY>
0

>  <SCORE.RESTR.norm>
0

>  <SCORE.SYSTEM>
-20.8408

>  <SCORE.SYSTEM.CONST>
0

>  <SCORE.SYSTEM.DIHEDRAL>
4.12736

>  <SCORE.SYSTEM.POLAR>
-3.01773

>  <SCORE.SYSTEM.SOLV>
0.293781

>  <SCORE.SYSTEM.VDW>
-5.30846

>  <SCORE.SYSTEM.norm>
-1.48863

>  <SCORE.heavy>
14

>  <SCORE.norm>
-3.36078

$$$$
P129694981
 OpenBabel12072022113D
libRbt.so/2013.1/901 2013/11/27
 17 18  0  0  0  0  0  0  0  0999 V2000
    2.7684   13.8385    4.7987 C   0  0  0  0  0  0  0  0  0  0  0  0
    3.9010   14.6240    4.1564 C   0  0  0  0  0  0  0  0  0  0  0  0
    3.2649   15.8360    3.6591 N   0  0  0  0  0  0  0  0  0  0  0  0
    1.8195   15.6742    3.6134 C   0  0  0  0  0  0  0  0  0  0  0  0
    1.5697   14.1988    3.9300 C   0  0  2  0  0  0  0  0  0  0  0  0
    0.3628   13.9750    4.6373 O   0  0  0  0  0  0  0  0  0  0  0  0
    3.8597   16.9555    3.1147 C   0  0  0  0  0  0  0  0  0  0  0  0
    3.1619   17.8370    2.6018 O   0  0  0  0  0  0  0  0  0  0  0  0
    5.4041   17.0904    3.1422 C   0  0  2  0  0  0  0  0  0  0  0  0
    5.9497   17.6699    4.4378 C   0  0  0  0  0  0  0  0  0  0  0  0
    7.2404   18.3496    4.0203 C   0  0  0  0  0  0  0  0  0  0  0  0
    7.1541   18.6273    2.6175 O   0  0  0  0  0  0  0  0  0  0  0  0
    5.8672   18.1774    2.1572 C   0  0  0  0  0  0  0  0  0  0  0  0
    6.0552   15.7888    2.8219 N   0  0  0  0  0  0  0  0  0  0  0  0
   -0.3736   14.1635    4.0298 H   0  0  0  0  0  0  0  0  0  0  0  0
    6.2668   15.3168    3.7045 H   0  0  0  0  0  0  0  0  0  0  0  0
    6.9706   15.9888    2.4131 H   0  0  0  0  0  0  0  0  0  0  0  0
  1  2  1  0  0  0  0
  1  5  1  0  0  0  0
  2  3  1  0  0  0  0
  3  4  1  0  0  0  0
  3  7  1  0  0  0  0
  4  5  1  0  0  0  0
  5  6  1  1  0  0  0
  6 15  1  0  0  0  0
  7  8  2  0  0  0  0
  9 10  1  0  0  0  0
  9 13  1  0  0  0  0
  9 14  1  0  0  0  0
  9  7  1  1  0  0  0
 10 11  1  0  0  0  0
 11 12  1  0  0  0  0
 12 13  1  0  0  0  0
 14 16  1  0  0  0  0
 14 17  1  0  0  0  0
M  END
>  <CHROM.0>
-62.02294108,-66.38737119,-65.32386124,-46.10482153,-59.21424344,-62.09523222
-65.09811936,-56.90636601,-168.20042511

>  <CHROM.1>
-176.51147035,-94.63029059,-84.78278393,4.15733424,16.32500833,3.54688087
-2.49460250,-0.13678958,-0.48654776

>  <Name>
P129694981

>  <RI>
1.34432e+07

>  <Rbt.Current_Directory>
/home/fstefaniak/projects/zuza/docking/adenine/4XNR

>  <Rbt.Executable>
rbdock ($Id: //depot/dev/client3/rdock/2013.1/src/exe/rbdock.cxx#4 $)

>  <Rbt.Library>
libRbt.so (2013.1, Build901 2013/11/27)

>  <Rbt.Parameter_File>
/home/fstefaniak/progs/rDock//data/scripts/dock_solv.prm

>  <Rbt.Receptor>
4xnr.prm

>  <SCORE>
-47.0344

>  <SCORE.INTER>
-28.317

>  <SCORE.INTER.CONST>
1

>  <SCORE.INTER.POLAR>
-3.63791

>  <SCORE.INTER.ROT>
2

>  <SCORE.INTER.SOLV>
14.0425

>  <SCORE.INTER.VDW>
-16.3658

>  <SCORE.INTER.norm>
-2.02264

>  <SCORE.INTRA>
2.12513

>  <SCORE.INTRA.DIHEDRAL>
1.81825

>  <SCORE.INTRA.DIHEDRAL.0>
0.577854

>  <SCORE.INTRA.POLAR>
0

>  <SCORE.INTRA.POLAR.0>
0

>  <SCORE.INTRA.REPUL>
0

>  <SCORE.INTRA.REPUL.0>
0

>  <SCORE.INTRA.SOLV>
0.0849311

>  <SCORE.INTRA.SOLV.lig_0>
-15.9758

>  <SCORE.INTRA.VDW>
1.17354

>  <SCORE.INTRA.VDW.0>
-0.09275

>  <SCORE.INTRA.norm>
0.151795

>  <SCORE.RESTR>
0

>  <SCORE.RESTR.CAVITY>
0

>  <SCORE.RESTR.norm>
0

>  <SCORE.SYSTEM>
-20.8426

>  <SCORE.SYSTEM.CONST>
0

>  <SCORE.SYSTEM.DIHEDRAL>
4.16462

>  <SCORE.SYSTEM.POLAR>
-2.98711

>  <SCORE.SYSTEM.SOLV>
0.289473

>  <SCORE.SYSTEM.VDW>
-5.42271

>  <SCORE.SYSTEM.norm>
-1.48876

>  <SCORE.heavy>
14

>  <SCORE.norm>
-3.3596

$$$$
P129738730
 OpenBabel12072022113D
libRbt.so/2013.1/901 2013/11/27
 20 20  0  0  0  0  0  0  0  0999 V2000
    3.5877   12.0280    3.6095 C   0  0  0  0  0  0  0  0  0  0  0  0
    2.8511   11.9496    4.9421 C   0  0  0  0  0  0  0  0  0  0  0  0
    2.9473   13.2603    5.7205 C   0  0  0  0  0  0  0  0  0  0  0  0
    2.4894   14.4638    4.8923 C   0  0  1  0  0  0  0  0  0  0  0  0
    3.1858   14.5541    3.5199 C   0  0  2  0  0  0  0  0  0  0  0  0
    3.1043   13.2086    2.7717 C   0  0  0  0  0  0  0  0  0  0  0  0
    4.6295   15.0553    3.6671 C   0  0  0  0  0  0  0  0  0  0  0  0
    4.7442   16.2775    4.4842 N   0  0  0  0  0  0  0  0  0  0  0  0
    5.6116   17.2866    4.2800 C   0  0  0  0  0  0  0  0  0  0  0  0
    6.4584   17.3181    3.2012 N   0  3  0  0  0  0  0  0  0  0  0  0
    6.3618   16.6934    2.4030 H   0  0  0  0  0  0  0  0  0  0  0  0
    7.4110   18.3458    3.1037 N   0  0  0  0  0  0  0  0  0  0  0  0
    5.6404   18.3077    5.1534 N   0  0  0  0  0  0  0  0  0  0  0  0
    1.0866   14.3784    4.6484 O   0  0  0  0  0  0  0  0  0  0  0  0
    4.0947   16.3871    5.2525 H   0  0  0  0  0  0  0  0  0  0  0  0
    8.3204   17.9975    3.4330 H   0  0  0  0  0  0  0  0  0  0  0  0
    7.5438   18.5963    2.1155 H   0  0  0  0  0  0  0  0  0  0  0  0
    5.0596   18.3542    5.9771 H   0  0  0  0  0  0  0  0  0  0  0  0
    6.2113   19.1088    4.9098 H   0  0  0  0  0  0  0  0  0  0  0  0
    0.6173   14.6025    5.4730 H   0  0  0  0  0  0  0  0  0  0  0  0
  1  2  1  0  0  0  0
  1  6  1  0  0  0  0
  2  3  1  0  0  0  0
  3  4  1  0  0  0  0
  4 14  1  6  0  0  0
  4  5  1  0  0  0  0
  5  6  1  0  0  0  0
  5  7  1  1  0  0  0
  7  8  1  0  0  0  0
  8  9  1  0  0  0  0
  8 15  1  0  0  0  0
  9 10  2  0  0  0  0
  9 13  1  0  0  0  0
 10 11  1  0  0  0  0
 10 12  1  0  0  0  0
 12 16  1  0  0  0  0
 12 17  1  0  0  0  0
 13 18  1  0  0  0  0
 13 19  1  0  0  0  0
 14 20  1  0  0  0  0
M  CHG  1  10   1
M  END
>  <CHROM.0>
-57.79446462,-63.03343244,-58.33191206,-48.62142908,-57.67506937,-58.29390466
-68.92813406,-173.78546262,-167.94372424

>  <CHROM.1>
74.41153682,-49.90302760,-144.25242961,98.72062835,4.14942063,15.17051833
4.15939203,-2.43286490,0.61339330,0.47039479

>  <Name>
P129738730

>  <RI>
3.58524e+07

>  <Rbt.Current_Directory>
/home/fstefaniak/projects/zuza/docking/adenine/4XNR

>  <Rbt.Executable>
rbdock ($Id: //depot/dev/client3/rdock/2013.1/src/exe/rbdock.cxx#4 $)

>  <Rbt.Library>
libRbt.so (2013.1, Build901 2013/11/27)

>  <Rbt.Parameter_File>
/home/fstefaniak/progs/rDock//data/scripts/dock_solv.prm

>  <Rbt.Receptor>
4xnr.prm

>  <SCORE>
-41.6597

>  <SCORE.INTER>
-21.7025

>  <SCORE.INTER.CONST>
1

>  <SCORE.INTER.POLAR>
-3.36302

>  <SCORE.INTER.ROT>
3

>  <SCORE.INTER.SOLV>
19.3742

>  <SCORE.INTER.VDW>
-15.3163

>  <SCORE.INTER.norm>
-1.66942

>  <SCORE.INTRA>
0.59842

>  <SCORE.INTRA.DIHEDRAL>
1.00762

>  <SCORE.INTRA.DIHEDRAL.0>
3.63911

>  <SCORE.INTRA.POLAR>
-0.00716804

>  <SCORE.INTRA.POLAR.0>
-0.0360726

>  <SCORE.INTRA.REPUL>
0

>  <SCORE.INTRA.REPUL.0>
0

>  <SCORE.INTRA.SOLV>
-0.0708894

>  <SCORE.INTRA.SOLV.lig_0>
-32.1416

>  <SCORE.INTRA.VDW>
0.154428

>  <SCORE.INTRA.VDW.0>
-1.04402

>  <SCORE.INTRA.norm>
0.0460323

>  <SCORE.RESTR>
0

>  <SCORE.RESTR.CAVITY>
0

>  <SCORE.RESTR.norm>
0

>  <SCORE.SYSTEM>
-20.5556

>  <SCORE.SYSTEM.CONST>
0

>  <SCORE.SYSTEM.DIHEDRAL>
4.02855

>  <SCORE.SYSTEM.POLAR>
-2.97769

>  <SCORE.SYSTEM.SOLV>
0.1628

>  <SCORE.SYSTEM.VDW>
-5.17523

>  <SCORE.SYSTEM.norm>
-1.5812

>  <SCORE.heavy>
13

>  <SCORE.norm>
-3.20459

$$$$
P129738730
 OpenBabel12072022113D
libRbt.so/2013.1/901 2013/11/27
 20 20  0  0  0  0  0  0  0  0999 V2000
    6.7216   17.8690    2.8909 C   0  0  0  0  0  0  0  0  0  0  0  0
    6.8506   18.9894    3.9169 C   0  0  0  0  0  0  0  0  0  0  0  0
    5.5468   19.2104    4.6812 C   0  0  0  0  0  0  0  0  0  0  0  0
    5.0190   17.9211    5.3164 C   0  0  1  0  0  0  0  0  0  0  0  0
    4.9116   16.7534    4.3155 C   0  0  2  0  0  0  0  0  0  0  0  0
    6.2284   16.5757    3.5337 C   0  0  0  0  0  0  0  0  0  0  0  0
    3.7005   16.9321    3.3891 C   0  0  0  0  0  0  0  0  0  0  0  0
    2.8092   15.7578    3.3577 N   0  0  0  0  0  0  0  0  0  0  0  0
    1.5737   15.6885    3.8879 C   0  0  0  0  0  0  0  0  0  0  0  0
    0.9626   16.7720    4.4663 N   0  3  0  0  0  0  0  0  0  0  0  0
    1.3141   17.7227    4.3701 H   0  0  0  0  0  0  0  0  0  0  0  0
   -0.2830   16.6058    5.0939 N   0  0  0  0  0  0  0  0  0  0  0  0
    0.9071   14.5226    3.8363 N   0  0  0  0  0  0  0  0  0  0  0  0
    5.8952   17.5018    6.3609 O   0  0  0  0  0  0  0  0  0  0  0  0
    3.1390   14.9353    2.8688 H   0  0  0  0  0  0  0  0  0  0  0  0
   -0.5805   17.5022    5.4996 H   0  0  0  0  0  0  0  0  0  0  0  0
   -0.9914   16.3639    4.3892 H   0  0  0  0  0  0  0  0  0  0  0  0
    1.2901   13.6778    3.4394 H   0  0  0  0  0  0  0  0  0  0  0  0
   -0.0631   14.5311    4.1293 H   0  0  0  0  0  0  0  0  0  0  0  0
    5.4445   16.8115    6.8813 H   0  0  0  0  0  0  0  0  0  0  0  0
  1  2  1  0  0  0  0
  1  6  1  0  0  0  0
  2  3  1  0  0  0  0
  3  4  1  0  0  0  0
  4 14  1  1  0  0  0
  4  5  1  0  0  0  0
  5  6  1  0  0  0  0
  5  7  1  6  0  0  0
  7  8  1  0  0  0  0
  8  9  1  0  0  0  0
  8 15  1  0  0  0  0
  9 10  2  0  0  0  0
  9 13  1  0  0  0  0
 10 11  1  0  0  0  0
 10 12  1  0  0  0  0
 12 16  1  0  0  0  0
 12 17  1  0  0  0  0
 13 18  1  0  0  0  0
 13 19  1  0  0  0  0
 14 20  1  0  0  0  0
M  CHG  1  10   1
M  END
>  <CHROM.0>
-52.29068906,-59.69767740,-63.96224769,-44.54430914,-55.21218050,60.53176070
-62.96894444,60.27718263,-167.26036742

>  <CHROM.1>
167.07727745,-127.09605091,109.43707555,178.03893309,3.85099283,16.98356547
4.26466950,-0.26259251,-0.29551770,-2.28630393

>  <Name>
P129738730

>  <RI>
3.58524e+07

>  <Rbt.Current_Directory>
/home/fstefaniak/projects/zuza/docking/adenine/4XNR

>  <Rbt.Executable>
rbdock ($Id: //depot/dev/client3/rdock/2013.1/src/exe/rbdock.cxx#4 $)

>  <Rbt.Library>
libRbt.so (2013.1, Build901 2013/11/27)

>  <Rbt.Parameter_File>
/home/fstefaniak/progs/rDock//data/scripts/dock_solv.prm

>  <Rbt.Receptor>
4xnr.prm

>  <SCORE>
-41.0074

>  <SCORE.INTER>
-24.84

>  <SCORE.INTER.CONST>
1

>  <SCORE.INTER.POLAR>
-4.54262

>  <SCORE.INTER.ROT>
3

>  <SCORE.INTER.SOLV>
21.0167

>  <SCORE.INTER.VDW>
-14.0235

>  <SCORE.INTER.norm>
-1.91077

>  <SCORE.INTRA>
2.30967

>  <SCORE.INTRA.DIHEDRAL>
5.30567

>  <SCORE.INTRA.DIHEDRAL.0>
3.63911

>  <SCORE.INTRA.POLAR>
0.00890804

>  <SCORE.INTRA.POLAR.0>
-0.0360726

>  <SCORE.INTRA.REPUL>
0

>  <SCORE.INTRA.REPUL.0>
0

>  <SCORE.INTRA.SOLV>
-0.48279

>  <SCORE.INTRA.SOLV.lig_0>
-32.1416

>  <SCORE.INTRA.VDW>
-0.132062

>  <SCORE.INTRA.VDW.0>
-1.04402

>  <SCORE.INTRA.norm>
0.177667

>  <SCORE.RESTR>
0

>  <SCORE.RESTR.CAVITY>
0

>  <SCORE.RESTR.norm>
0

>  <SCORE.SYSTEM>
-18.4771

>  <SCORE.SYSTEM.CONST>
0

>  <SCORE.SYSTEM.DIHEDRAL>
4.4199

>  <SCORE.SYSTEM.POLAR>
-3.08879

>  <SCORE.SYSTEM.SOLV>
0.0183227

>  <SCORE.SYSTEM.VDW>
-3.50151

>  <SCORE.SYSTEM.norm>
-1.42132

>  <SCORE.heavy>
13

>  <SCORE.norm>
-3.15442

$$$$
P129738730
 OpenBabel12072022113D
libRbt.so/2013.1/901 2013/11/27
 20 20  0  0  0  0  0  0  0  0999 V2000
    3.7056   13.6465    4.8104 C   0  0  0  0  0  0  0  0  0  0  0  0
    2.2270   13.3528    5.0382 C   0  0  0  0  0  0  0  0  0  0  0  0
    1.3744   14.6149    4.9231 C   0  0  0  0  0  0  0  0  0  0  0  0
    1.6063   15.3553    3.6032 C   0  0  1  0  0  0  0  0  0  0  0  0
    3.0956   15.6359    3.3202 C   0  0  2  0  0  0  0  0  0  0  0  0
    3.9368   14.3537    3.4778 C   0  0  0  0  0  0  0  0  0  0  0  0
    3.6143   16.7872    4.1933 C   0  0  0  0  0  0  0  0  0  0  0  0
    4.9687   17.2380    3.8233 N   0  0  0  0  0  0  0  0  0  0  0  0
    5.8404   17.8693    4.6320 C   0  0  0  0  0  0  0  0  0  0  0  0
    5.5763   18.0971    5.9588 N   0  3  0  0  0  0  0  0  0  0  0  0
    4.8066   17.6518    6.4546 H   0  0  0  0  0  0  0  0  0  0  0  0
    6.4820   18.8536    6.7207 N   0  0  0  0  0  0  0  0  0  0  0  0
    7.0176   18.2780    4.1286 N   0  0  0  0  0  0  0  0  0  0  0  0
    1.1104   14.5754    2.5168 O   0  0  0  0  0  0  0  0  0  0  0  0
    5.2891   17.0306    2.8860 H   0  0  0  0  0  0  0  0  0  0  0  0
    6.2279   19.8479    6.6606 H   0  0  0  0  0  0  0  0  0  0  0  0
    6.3925   18.5970    7.7122 H   0  0  0  0  0  0  0  0  0  0  0  0
    7.2828   18.1595    3.1624 H   0  0  0  0  0  0  0  0  0  0  0  0
    7.7017   18.6370    4.7846 H   0  0  0  0  0  0  0  0  0  0  0  0
    0.1419   14.5063    2.6051 H   0  0  0  0  0  0  0  0  0  0  0  0
  1  2  1  0  0  0  0
  1  6  1  0  0  0  0
  2  3  1  0  0  0  0
  3  4  1  0  0  0  0
  4 14  1  6  0  0  0
  4  5  1  0  0  0  0
  5  6  1  0  0  0  0
  5  7  1  1  0  0  0
  7  8  1  0  0  0  0
  8  9  1  0  0  0  0
  8 15  1  0  0  0  0
  9 10  2  0  0  0  0
  9 13  1  0  0  0  0
 10 11  1  0  0  0  0
 10 12  1  0  0  0  0
 12 16  1  0  0  0  0
 12 17  1  0  0  0  0
 13 18  1  0  0  0  0
 13 19  1  0  0  0  0
 14 20  1  0  0  0  0
M  CHG  1  10   1
M  END
>  <CHROM.0>
-41.12069756,-42.70840364,-49.29238540,-47.93419628,-57.60780536,-62.55818299
-64.02983517,-55.51279431,-168.18850947

>  <CHROM.1>
65.53088240,-171.15490100,-156.06421022,89.30832935,3.91141019,16.08556375
4.40209235,3.12647710,-0.77983530,-1.23330928

>  <Name>
P129738730

>  <RI>
3.58524e+07

>  <Rbt.Current_Directory>
/home/fstefaniak/projects/zuza/docking/adenine/4XNR

>  <Rbt.Executable>
rbdock ($Id: //depot/dev/client3/rdock/2013.1/src/exe/rbdock.cxx#4 $)

>  <Rbt.Library>
libRbt.so (2013.1, Build901 2013/11/27)

>  <Rbt.Parameter_File>
/home/fstefaniak/progs/rDock//data/scripts/dock_solv.prm

>  <Rbt.Receptor>
4xnr.prm

>  <SCORE>
-39.5061

>  <SCORE.INTER>
-20.6982

>  <SCORE.INTER.CONST>
1

>  <SCORE.INTER.POLAR>
-3.56296

>  <SCORE.INTER.ROT>
3

>  <SCORE.INTER.SOLV>
18.7815

>  <SCORE.INTER.VDW>
-13.7827

>  <SCORE.INTER.norm>
-1.59217

>  <SCORE.INTRA>
-0.251235

>  <SCORE.INTRA.DIHEDRAL>
0.104856

>  <SCORE.INTRA.DIHEDRAL.0>
3.63911

>  <SCORE.INTRA.POLAR>
-0.00716804

>  <SCORE.INTRA.POLAR.0>
-0.0360726

>  <SCORE.INTRA.REPUL>
0

>  <SCORE.INTRA.REPUL.0>
0

>  <SCORE.INTRA.SOLV>
-0.573547

>  <SCORE.INTRA.SOLV.lig_0>
-32.1416

>  <SCORE.INTRA.VDW>
0.00748242

>  <SCORE.INTRA.VDW.0>
-1.04402

>  <SCORE.INTRA.norm>
-0.0193257

>  <SCORE.RESTR>
0

>  <SCORE.RESTR.CAVITY>
0

>  <SCORE.RESTR.norm>
0

>  <SCORE.SYSTEM>
-18.5567

>  <SCORE.SYSTEM.CONST>
0

>  <SCORE.SYSTEM.DIHEDRAL>
7.00777

>  <SCORE.SYSTEM.POLAR>
-3.19646

>  <SCORE.SYSTEM.SOLV>
0.411885

>  <SCORE.SYSTEM.VDW>
-4.18946

>  <SCORE.SYSTEM.norm>
-1.42744

>  <SCORE.heavy>
13

>  <SCORE.norm>
-3.03893

$$$$
P129922533
 OpenBabel12072022113D
libRbt.so/2013.1/901 2013/11/27
 18 18  0  0  0  0  0  0  0  0999 V2000
    5.1388   18.1570    6.5597 C   0  0  0  0  0  0  0  0  0  0  0  0
    5.3988   17.2487    5.3603 C   0  0  0  0  0  0  0  0  0  0  0  0
    5.5426   18.0396    4.1389 N   0  0  0  0  0  0  0  0  0  0  0  0
    6.5986   19.0473    4.1887 C   0  0  0  0  0  0  0  0  0  0  0  0
    6.3739   20.0022    5.3592 C   0  0  0  0  0  0  0  0  0  0  0  0
    6.1840   19.2597    6.6770 C   0  0  2  0  0  0  0  0  0  0  0  0
    7.4869   18.6744    7.1206 N   0  3  0  0  0  0  0  0  0  0  0  0
    7.5183   18.5126    8.1377 H   0  0  0  0  0  0  0  0  0  0  0  0
    7.6690   17.7724    6.6617 H   0  0  0  0  0  0  0  0  0  0  0  0
    8.2732   19.2955    6.8886 H   0  0  0  0  0  0  0  0  0  0  0  0
    5.6360   17.1781    2.9331 C   0  0  0  0  0  0  0  0  0  0  0  0
    4.7496   17.6774    1.7782 C   0  0  0  0  0  0  0  0  0  0  0  0
    3.4701   17.8028    1.9879 N   0  0  0  0  0  0  0  0  0  0  0  0
    2.8213   18.2682    0.8319 O   0  0  0  0  0  0  0  0  0  0  0  0
    5.3407   17.9416    0.5630 N   0  0  0  0  0  0  0  0  0  0  0  0
    3.3635   19.0422    0.5835 H   0  0  0  0  0  0  0  0  0  0  0  0
    5.5779   18.9137    0.3938 H   0  0  0  0  0  0  0  0  0  0  0  0
    4.7766   17.5518   -0.1911 H   0  0  0  0  0  0  0  0  0  0  0  0
  1  2  1  0  0  0  0
  1  6  1  0  0  0  0
  2  3  1  0  0  0  0
  3  4  1  0  0  0  0
  3 11  1  0  0  0  0
  4  5  1  0  0  0  0
  5  6  1  0  0  0  0
  6  7  1  6  0  0  0
  7  8  1  0  0  0  0
  7  9  1  0  0  0  0
  7 10  1  0  0  0  0
 11 12  1  0  0  0  0
 12 13  2  0  0  0  0
 12 15  1  0  0  0  0
 13 14  1  0  0  0  0
 14 16  1  0  0  0  0
 15 17  1  0  0  0  0
 15 18  1  0  0  0  0
M  CHG  1   7   1
M  END
>  <CHROM.0>
-54.41316967,61.68786623,-28.05576428,-44.57502063,-53.24246585,-49.87276609
-50.97544122,-52.24601543,-166.38279317

>  <CHROM.1>
134.70112582,-80.40377054,-57.86954325,-96.91516223,-50.12675206,5.39668448
18.28434863,3.92496858,1.10245939,0.38132005,1.59641921

>  <Name>
P129922533

>  <RI>
3.58524e+07

>  <Rbt.Current_Directory>
/home/fstefaniak/projects/zuza/docking/adenine/4XNR

>  <Rbt.Executable>
rbdock ($Id: //depot/dev/client3/rdock/2013.1/src/exe/rbdock.cxx#4 $)

>  <Rbt.Library>
libRbt.so (2013.1, Build901 2013/11/27)

>  <Rbt.Parameter_File>
/home/fstefaniak/progs/rDock//data/scripts/dock_solv.prm

>  <Rbt.Receptor>
4xnr.prm

>  <SCORE>
-54.297

>  <SCORE.INTER>
-37.6886

>  <SCORE.INTER.CONST>
1

>  <SCORE.INTER.POLAR>
-6.60959

>  <SCORE.INTER.ROT>
3

>  <SCORE.INTER.SOLV>
22.8626

>  <SCORE.INTER.VDW>
-16.3146

>  <SCORE.INTER.norm>
-3.14072

>  <SCORE.INTRA>
1.35308

>  <SCORE.INTRA.DIHEDRAL>
1.50929

>  <SCORE.INTRA.DIHEDRAL.0>
3.8185

>  <SCORE.INTRA.POLAR>
0.118298

>  <SCORE.INTRA.POLAR.0>
-0.118298

>  <SCORE.INTRA.REPUL>
0

>  <SCORE.INTRA.REPUL.0>
0

>  <SCORE.INTRA.SOLV>
-0.415541

>  <SCORE.INTRA.SOLV.lig_0>
-31.8262

>  <SCORE.INTRA.VDW>
0.403989

>  <SCORE.INTRA.VDW.0>
-0.589735

>  <SCORE.INTRA.norm>
0.112756

>  <SCORE.RESTR>
0

>  <SCORE.RESTR.CAVITY>
0

>  <SCORE.RESTR.norm>
0

>  <SCORE.SYSTEM>
-17.9615

>  <SCORE.SYSTEM.CONST>
0

>  <SCORE.SYSTEM.DIHEDRAL>
9.14619

>  <SCORE.SYSTEM.POLAR>
-3.49707

>  <SCORE.SYSTEM.SOLV>
0.470935

>  <SCORE.SYSTEM.VDW>
-3.52313

>  <SCORE.SYSTEM.norm>
-1.49679

>  <SCORE.heavy>
12

>  <SCORE.norm>
-4.52475

$$$$
P129922533
 OpenBabel12072022113D
libRbt.so/2013.1/901 2013/11/27
 18 18  0  0  0  0  0  0  0  0999 V2000
    5.1779   18.2047    6.5407 C   0  0  0  0  0  0  0  0  0  0  0  0
    5.4129   17.2692    5.3571 C   0  0  0  0  0  0  0  0  0  0  0  0
    5.5855   18.0351    4.1236 N   0  0  0  0  0  0  0  0  0  0  0  0
    6.6727   19.0096    4.1610 C   0  0  0  0  0  0  0  0  0  0  0  0
    6.4746   19.9901    5.3150 C   0  0  0  0  0  0  0  0  0  0  0  0
    6.2571   19.2756    6.6440 C   0  0  2  0  0  0  0  0  0  0  0  0
    7.5394   18.6567    7.1018 N   0  3  0  0  0  0  0  0  0  0  0  0
    7.5542   18.4916    8.1188 H   0  0  0  0  0  0  0  0  0  0  0  0
    7.7045   17.7516    6.6426 H   0  0  0  0  0  0  0  0  0  0  0  0
    8.3437   19.2586    6.8813 H   0  0  0  0  0  0  0  0  0  0  0  0
    5.6555   17.1515    2.9323 C   0  0  0  0  0  0  0  0  0  0  0  0
    4.7792   17.6529    1.7706 C   0  0  0  0  0  0  0  0  0  0  0  0
    3.4970   17.7713    1.9672 N   0  0  0  0  0  0  0  0  0  0  0  0
    2.8584   18.2399    0.8067 O   0  0  0  0  0  0  0  0  0  0  0  0
    5.3820   17.9262    0.5632 N   0  0  0  0  0  0  0  0  0  0  0  0
    3.2894   19.1051    0.6643 H   0  0  0  0  0  0  0  0  0  0  0  0
    5.5963   18.9034    0.3923 H   0  0  0  0  0  0  0  0  0  0  0  0
    4.8402   17.5179   -0.1973 H   0  0  0  0  0  0  0  0  0  0  0  0
  1  2  1  0  0  0  0
  1  6  1  0  0  0  0
  2  3  1  0  0  0  0
  3  4  1  0  0  0  0
  3 11  1  0  0  0  0
  4  5  1  0  0  0  0
  5  6  1  0  0  0  0
  6  7  1  6  0  0  0
  7  8  1  0  0  0  0
  7  9  1  0  0  0  0
  7 10  1  0  0  0  0
 11 12  1  0  0  0  0
 12 13  2  0  0  0  0
 12 15  1  0  0  0  0
 13 14  1  0  0  0  0
 14 16  1  0  0  0  0
 15 17  1  0  0  0  0
 15 18  1  0  0  0  0
M  CHG  1   7   1
M  END
>  <CHROM.0>
-55.20502418,63.88811733,-63.30766428,-45.70603753,-57.60559072,-55.04528446
-67.22324652,-135.96147429,-167.03850383

>  <CHROM.1>
134.18830761,-79.14448254,-60.07761336,-98.32346310,-60.36984097,5.44175891
18.27464773,3.90769872,1.09710287,0.37447798,1.58996494

>  <Name>
P129922533

>  <RI>
3.58524e+07

>  <Rbt.Current_Directory>
/home/fstefaniak/projects/zuza/docking/adenine/4XNR

>  <Rbt.Executable>
rbdock ($Id: //depot/dev/client3/rdock/2013.1/src/exe/rbdock.cxx#4 $)

>  <Rbt.Library>
libRbt.so (2013.1, Build901 2013/11/27)

>  <Rbt.Parameter_File>
/home/fstefaniak/progs/rDock//data/scripts/dock_solv.prm

>  <Rbt.Receptor>
4xnr.prm

>  <SCORE>
-54.001

>  <SCORE.INTER>
-37.4956

>  <SCORE.INTER.CONST>
1

>  <SCORE.INTER.POLAR>
-6.6473

>  <SCORE.INTER.ROT>
3

>  <SCORE.INTER.SOLV>
22.8012

>  <SCORE.INTER.VDW>
-16.0398

>  <SCORE.INTER.norm>
-3.12464

>  <SCORE.INTRA>
0.832731

>  <SCORE.INTRA.DIHEDRAL>
1.10657

>  <SCORE.INTRA.DIHEDRAL.0>
3.8185

>  <SCORE.INTRA.POLAR>
0.118298

>  <SCORE.INTRA.POLAR.0>
-0.118298

>  <SCORE.INTRA.REPUL>
0

>  <SCORE.INTRA.REPUL.0>
0

>  <SCORE.INTRA.SOLV>
-0.410947

>  <SCORE.INTRA.SOLV.lig_0>
-31.8262

>  <SCORE.INTRA.VDW>
0.0827064

>  <SCORE.INTRA.VDW.0>
-0.589735

>  <SCORE.INTRA.norm>
0.0693942

>  <SCORE.RESTR>
0

>  <SCORE.RESTR.CAVITY>
0

>  <SCORE.RESTR.norm>
0

>  <SCORE.SYSTEM>
-17.3381

>  <SCORE.SYSTEM.CONST>
0

>  <SCORE.SYSTEM.DIHEDRAL>
9.9169

>  <SCORE.SYSTEM.POLAR>
-3.05603

>  <SCORE.SYSTEM.SOLV>
0.215297

>  <SCORE.SYSTEM.VDW>
-4.74934

>  <SCORE.SYSTEM.norm>
-1.44484

>  <SCORE.heavy>
12

>  <SCORE.norm>
-4.50008

$$$$
P129922533
 OpenBabel12072022113D
libRbt.so/2013.1/901 2013/11/27
 18 18  0  0  0  0  0  0  0  0999 V2000
    3.9479   13.4644    3.9621 C   0  0  0  0  0  0  0  0  0  0  0  0
    4.3077   14.9482    3.9582 C   0  0  0  0  0  0  0  0  0  0  0  0
    3.1614   15.7535    3.5392 N   0  0  0  0  0  0  0  0  0  0  0  0
    1.9629   15.5741    4.3543 C   0  0  0  0  0  0  0  0  0  0  0  0
    1.5415   14.1063    4.3729 C   0  0  0  0  0  0  0  0  0  0  0  0
    2.6885   13.1853    4.7733 C   0  0  2  0  0  0  0  0  0  0  0  0
    2.9816   13.3460    6.2310 N   0  3  0  0  0  0  0  0  0  0  0  0
    3.9592   13.1168    6.4623 H   0  0  0  0  0  0  0  0  0  0  0  0
    2.8114   14.3106    6.5442 H   0  0  0  0  0  0  0  0  0  0  0  0
    2.3841   12.7334    6.8015 H   0  0  0  0  0  0  0  0  0  0  0  0
    3.5251   17.1832    3.3709 C   0  0  0  0  0  0  0  0  0  0  0  0
    4.6151   17.3957    2.3052 C   0  0  0  0  0  0  0  0  0  0  0  0
    5.8549   17.1660    2.6317 N   0  0  0  0  0  0  0  0  0  0  0  0
    6.7081   17.4092    1.5422 O   0  0  0  0  0  0  0  0  0  0  0  0
    4.2379   17.8489    1.0609 N   0  0  0  0  0  0  0  0  0  0  0  0
    7.1392   18.2485    1.7959 H   0  0  0  0  0  0  0  0  0  0  0  0
    4.2958   17.1676    0.3109 H   0  0  0  0  0  0  0  0  0  0  0  0
    4.7412   18.7058    0.8347 H   0  0  0  0  0  0  0  0  0  0  0  0
  1  2  1  0  0  0  0
  1  6  1  0  0  0  0
  2  3  1  0  0  0  0
  3  4  1  0  0  0  0
  3 11  1  0  0  0  0
  4  5  1  0  0  0  0
  5  6  1  0  0  0  0
  6  7  1  1  0  0  0
  7  8  1  0  0  0  0
  7  9  1  0  0  0  0
  7 10  1  0  0  0  0
 11 12  1  0  0  0  0
 12 13  2  0  0  0  0
 12 15  1  0  0  0  0
 13 14  1  0  0  0  0
 14 16  1  0  0  0  0
 15 17  1  0  0  0  0
 15 18  1  0  0  0  0
M  CHG  1   7   1
M  END
>  <CHROM.0>
-59.31866009,-176.87782743,-65.82880496,-48.67494219,-177.93104722,59.07592490
-67.76446009,-169.97662359,-167.95914548

>  <CHROM.1>
60.39844649,-30.21023288,-79.46444203,-108.65099539,106.37640645,3.83926713
15.63216877,3.50270902,-2.08602922,0.15388783,-0.62087754

>  <Name>
P129922533

>  <RI>
3.58524e+07

>  <Rbt.Current_Directory>
/home/fstefaniak/projects/zuza/docking/adenine/4XNR

>  <Rbt.Executable>
rbdock ($Id: //depot/dev/client3/rdock/2013.1/src/exe/rbdock.cxx#4 $)

>  <Rbt.Library>
libRbt.so (2013.1, Build901 2013/11/27)

>  <Rbt.Parameter_File>
/home/fstefaniak/progs/rDock//data/scripts/dock_solv.prm

>  <Rbt.Receptor>
4xnr.prm

>  <SCORE>
-53.5213

>  <SCORE.INTER>
-34.6403

>  <SCORE.INTER.CONST>
1

>  <SCORE.INTER.POLAR>
-6.18432

>  <SCORE.INTER.ROT>
3

>  <SCORE.INTER.SOLV>
21.3817

>  <SCORE.INTER.VDW>
-15.2064

>  <SCORE.INTER.norm>
-2.88669

>  <SCORE.INTRA>
0.693066

>  <SCORE.INTRA.DIHEDRAL>
0.0629402

>  <SCORE.INTRA.DIHEDRAL.0>
3.8185

>  <SCORE.INTRA.POLAR>
0.118298

>  <SCORE.INTRA.POLAR.0>
-0.118298

>  <SCORE.INTRA.REPUL>
0

>  <SCORE.INTRA.REPUL.0>
0

>  <SCORE.INTRA.SOLV>
-0.329355

>  <SCORE.INTRA.SOLV.lig_0>
-31.8262

>  <SCORE.INTRA.VDW>
0.42406

>  <SCORE.INTRA.VDW.0>
-0.589735

>  <SCORE.INTRA.norm>
0.0577555

>  <SCORE.RESTR>
0

>  <SCORE.RESTR.CAVITY>
0

>  <SCORE.RESTR.norm>
0

>  <SCORE.SYSTEM>
-19.574

>  <SCORE.SYSTEM.CONST>
0

>  <SCORE.SYSTEM.DIHEDRAL>
4.31536

>  <SCORE.SYSTEM.POLAR>
-2.95013

>  <SCORE.SYSTEM.SOLV>
-0.17896

>  <SCORE.SYSTEM.VDW>
-4.59438

>  <SCORE.SYSTEM.norm>
-1.63117

>  <SCORE.heavy>
12

>  <SCORE.norm>
-4.46011

$$$$
P129929643
 OpenBabel12072022113D
libRbt.so/2013.1/901 2013/11/27
 14 14  0  0  0  0  0  0  0  0999 V2000
    6.0600   18.8147    5.9023 C   0  0  0  0  0  0  0  0  0  0  0  0
    5.6731   18.5774    4.5590 O   0  0  0  0  0  0  0  0  0  0  0  0
    4.7097   17.5531    4.5454 N   0  0  0  0  0  0  0  0  0  0  0  0
    4.6785   16.9463    3.3935 C   0  0  0  0  0  0  0  0  0  0  0  0
    3.6325   15.7841    3.3430 C   0  0  1  0  0  0  0  0  0  0  0  0
    4.0674   14.6053    4.2119 C   0  0  0  0  0  0  0  0  0  0  0  0
    3.3293   13.3123    3.8658 C   0  0  0  0  0  0  0  0  0  0  0  0
    1.9019   13.2231    4.3929 C   0  0  0  0  0  0  0  0  0  0  0  0
    0.9728   14.3510    3.9504 C   0  0  0  0  0  0  0  0  0  0  0  0
    1.3324   15.6883    4.5750 C   0  0  0  0  0  0  0  0  0  0  0  0
    2.3373   16.3996    3.7924 N   0  3  0  0  0  0  0  0  0  0  0  0
    1.9668   16.9171    2.9911 H   0  0  0  0  0  0  0  0  0  0  0  0
    2.7381   17.1931    4.3553 H   0  0  0  0  0  0  0  0  0  0  0  0
    5.3381   17.1068    2.3352 O   0  5  0  0  0  0  0  0  0  0  0  0
  1  2  1  0  0  0  0
  2  3  1  0  0  0  0
  3  4  2  0  0  0  0
  4 14  1  0  0  0  0
  5  4  1  1  0  0  0
  5  6  1  0  0  0  0
  5 11  1  0  0  0  0
  6  7  1  0  0  0  0
  7  8  1  0  0  0  0
  8  9  1  0  0  0  0
  9 10  1  0  0  0  0
 10 11  1  0  0  0  0
 11 12  1  0  0  0  0
 11 13  1  0  0  0  0
M  CHG  2  11   1  14  -1
M  END
>  <CHROM.0>
-58.67100205,174.15595702,60.74420376,-48.97191026,-173.95106106,57.96000514
52.22740477,-59.27367972,-168.61872468

>  <CHROM.1>
-156.00480815,-70.02914595,3.69849767,16.09046453,4.07614729,0.76722564,0.41242587
0.49809359

>  <Name>
P129929643

>  <RI>
4.17015e+07

>  <Rbt.Current_Directory>
/home/fstefaniak/projects/zuza/docking/adenine/4XNR

>  <Rbt.Executable>
rbdock ($Id: //depot/dev/client3/rdock/2013.1/src/exe/rbdock.cxx#4 $)

>  <Rbt.Library>
libRbt.so (2013.1, Build901 2013/11/27)

>  <Rbt.Parameter_File>
/home/fstefaniak/progs/rDock//data/scripts/dock_solv.prm

>  <Rbt.Receptor>
4xnr.prm

>  <SCORE>
-48.8266

>  <SCORE.INTER>
-27.7316

>  <SCORE.INTER.CONST>
1

>  <SCORE.INTER.POLAR>
-3.08837

>  <SCORE.INTER.ROT>
2

>  <SCORE.INTER.SOLV>
18.3877

>  <SCORE.INTER.VDW>
-19.2558

>  <SCORE.INTER.norm>
-2.31097

>  <SCORE.INTRA>
-3.62339

>  <SCORE.INTRA.DIHEDRAL>
-0.341827

>  <SCORE.INTRA.DIHEDRAL.0>
3.04114

>  <SCORE.INTRA.POLAR>
-0.598644

>  <SCORE.INTRA.POLAR.0>
0

>  <SCORE.INTRA.REPUL>
0

>  <SCORE.INTRA.REPUL.0>
0

>  <SCORE.INTRA.SOLV>
-1.9595

>  <SCORE.INTRA.SOLV.lig_0>
-37.9232

>  <SCORE.INTRA.VDW>
-0.437339

>  <SCORE.INTRA.VDW.0>
-0.325588

>  <SCORE.INTRA.norm>
-0.301949

>  <SCORE.RESTR>
0

>  <SCORE.RESTR.CAVITY>
0

>  <SCORE.RESTR.norm>
0

>  <SCORE.SYSTEM>
-17.4716

>  <SCORE.SYSTEM.CONST>
0

>  <SCORE.SYSTEM.DIHEDRAL>
3.91018

>  <SCORE.SYSTEM.POLAR>
-2.91922

>  <SCORE.SYSTEM.SOLV>
-0.12526

>  <SCORE.SYSTEM.VDW>
-3.17865

>  <SCORE.SYSTEM.norm>
-1.45597

>  <SCORE.heavy>
12

>  <SCORE.norm>
-4.06888

$$$$
P129929643
 OpenBabel12072022113D
libRbt.so/2013.1/901 2013/11/27
 14 14  0  0  0  0  0  0  0  0999 V2000
    6.9809   18.2427    1.3342 C   0  0  0  0  0  0  0  0  0  0  0  0
    6.1475   18.2210    2.4811 O   0  0  0  0  0  0  0  0  0  0  0  0
    5.2697   17.1275    2.3755 N   0  0  0  0  0  0  0  0  0  0  0  0
    4.5948   16.9529    3.4755 C   0  0  0  0  0  0  0  0  0  0  0  0
    3.5898   15.7569    3.3927 C   0  0  1  0  0  0  0  0  0  0  0  0
    4.0211   14.6034    4.2967 C   0  0  0  0  0  0  0  0  0  0  0  0
    3.3414   13.2831    3.9346 C   0  0  0  0  0  0  0  0  0  0  0  0
    1.8946   13.1541    4.3966 C   0  0  0  0  0  0  0  0  0  0  0  0
    0.9517   14.2458    3.8964 C   0  0  0  0  0  0  0  0  0  0  0  0
    1.2391   15.6016    4.5186 C   0  0  0  0  0  0  0  0  0  0  0  0
    2.2562   16.3355    3.7735 N   0  3  0  0  0  0  0  0  0  0  0  0
    1.9070   16.8309    2.9490 H   0  0  0  0  0  0  0  0  0  0  0  0
    2.6049   17.1484    4.3434 H   0  0  0  0  0  0  0  0  0  0  0  0
    4.5874   17.5714    4.5702 O   0  5  0  0  0  0  0  0  0  0  0  0
  1  2  1  0  0  0  0
  2  3  1  0  0  0  0
  3  4  2  0  0  0  0
  4 14  1  0  0  0  0
  5  4  1  1  0  0  0
  5  6  1  0  0  0  0
  5 11  1  0  0  0  0
  6  7  1  0  0  0  0
  7  8  1  0  0  0  0
  8  9  1  0  0  0  0
  9 10  1  0  0  0  0
 10 11  1  0  0  0  0
 11 12  1  0  0  0  0
 11 13  1  0  0  0  0
M  CHG  2  11   1  14  -1
M  END
>  <CHROM.0>
-58.43978317,172.28260395,-67.45748231,-47.62314842,-60.33929183,-63.21428418
-67.97665178,-60.97868811,-167.66224224

>  <CHROM.1>
171.86062641,111.36371817,3.76926937,15.98462901,3.52693216,-0.69114638,-0.41449338
3.13589515

>  <Name>
P129929643

>  <RI>
4.17015e+07

>  <Rbt.Current_Directory>
/home/fstefaniak/projects/zuza/docking/adenine/4XNR

>  <Rbt.Executable>
rbdock ($Id: //depot/dev/client3/rdock/2013.1/src/exe/rbdock.cxx#4 $)

>  <Rbt.Library>
libRbt.so (2013.1, Build901 2013/11/27)

>  <Rbt.Parameter_File>
/home/fstefaniak/progs/rDock//data/scripts/dock_solv.prm

>  <Rbt.Receptor>
4xnr.prm

>  <SCORE>
-47.6618

>  <SCORE.INTER>
-26.7398

>  <SCORE.INTER.CONST>
1

>  <SCORE.INTER.POLAR>
-3.29569

>  <SCORE.INTER.ROT>
2

>  <SCORE.INTER.SOLV>
18.9964

>  <SCORE.INTER.VDW>
-18.1064

>  <SCORE.INTER.norm>
-2.22832

>  <SCORE.INTRA>
-0.487763

>  <SCORE.INTRA.DIHEDRAL>
-0.0320753

>  <SCORE.INTRA.DIHEDRAL.0>
3.04114

>  <SCORE.INTRA.POLAR>
0

>  <SCORE.INTRA.POLAR.0>
0

>  <SCORE.INTRA.REPUL>
0

>  <SCORE.INTRA.REPUL.0>
0

>  <SCORE.INTRA.SOLV>
-0.260684

>  <SCORE.INTRA.SOLV.lig_0>
-37.9232

>  <SCORE.INTRA.VDW>
-0.341383

>  <SCORE.INTRA.VDW.0>
-0.325588

>  <SCORE.INTRA.norm>
-0.0406469

>  <SCORE.RESTR>
0

>  <SCORE.RESTR.CAVITY>
0

>  <SCORE.RESTR.norm>
0

>  <SCORE.SYSTEM>
-20.4342

>  <SCORE.SYSTEM.CONST>
0

>  <SCORE.SYSTEM.DIHEDRAL>
4.40018

>  <SCORE.SYSTEM.POLAR>
-2.97198

>  <SCORE.SYSTEM.SOLV>
0.265804

>  <SCORE.SYSTEM.VDW>
-5.27151

>  <SCORE.SYSTEM.norm>
-1.70285

>  <SCORE.heavy>
12

>  <SCORE.norm>
-3.97181

$$$$
P129929643
 OpenBabel12072022113D
libRbt.so/2013.1/901 2013/11/27
 14 14  0  0  0  0  0  0  0  0999 V2000
    6.9923   18.2665    1.3416 C   0  0  0  0  0  0  0  0  0  0  0  0
    6.1839   18.2176    2.5054 O   0  0  0  0  0  0  0  0  0  0  0  0
    5.2992   17.1308    2.3900 N   0  0  0  0  0  0  0  0  0  0  0  0
    4.6195   16.9537    3.4867 C   0  0  0  0  0  0  0  0  0  0  0  0
    3.6067   15.7651    3.3930 C   0  0  1  0  0  0  0  0  0  0  0  0
    4.0396   14.5938    4.2731 C   0  0  0  0  0  0  0  0  0  0  0  0
    3.3488   13.2838    3.8950 C   0  0  0  0  0  0  0  0  0  0  0  0
    1.9056   13.1552    4.3683 C   0  0  0  0  0  0  0  0  0  0  0  0
    0.9646   14.2607    3.8956 C   0  0  0  0  0  0  0  0  0  0  0  0
    1.2658   15.6040    4.5381 C   0  0  0  0  0  0  0  0  0  0  0  0
    2.2802   16.3447    3.7961 N   0  3  0  0  0  0  0  0  0  0  0  0
    1.9263   16.8561    2.9835 H   0  0  0  0  0  0  0  0  0  0  0  0
    2.6389   17.1457    4.3764 H   0  0  0  0  0  0  0  0  0  0  0  0
    4.6127   17.5652    4.5853 O   0  5  0  0  0  0  0  0  0  0  0  0
  1  2  1  0  0  0  0
  2  3  1  0  0  0  0
  3  4  2  0  0  0  0
  4 14  1  0  0  0  0
  5  4  1  1  0  0  0
  5  6  1  0  0  0  0
  5 11  1  0  0  0  0
  6  7  1  0  0  0  0
  7  8  1  0  0  0  0
  8  9  1  0  0  0  0
  9 10  1  0  0  0  0
 10 11  1  0  0  0  0
 11 12  1  0  0  0  0
 11 13  1  0  0  0  0
M  CHG  2  11   1  14  -1
M  END
>  <CHROM.0>
-56.90650834,173.68890009,-66.88985503,-48.77631329,-174.78182923,-174.05233552
-67.47206071,-59.20737050,-167.61635557

>  <CHROM.1>
173.70578365,110.41827455,3.78989494,15.98840374,3.52952904,-0.68261261,-0.42495369
-3.12525431

>  <Name>
P129929643

>  <RI>
4.17015e+07

>  <Rbt.Current_Directory>
/home/fstefaniak/projects/zuza/docking/adenine/4XNR

>  <Rbt.Executable>
rbdock ($Id: //depot/dev/client3/rdock/2013.1/src/exe/rbdock.cxx#4 $)

>  <Rbt.Library>
libRbt.so (2013.1, Build901 2013/11/27)

>  <Rbt.Parameter_File>
/home/fstefaniak/progs/rDock//data/scripts/dock_solv.prm

>  <Rbt.Receptor>
4xnr.prm

>  <SCORE>
-47.4152

>  <SCORE.INTER>
-26.6617

>  <SCORE.INTER.CONST>
1

>  <SCORE.INTER.POLAR>
-3.21048

>  <SCORE.INTER.ROT>
2

>  <SCORE.INTER.SOLV>
18.9978

>  <SCORE.INTER.VDW>
-18.3388

>  <SCORE.INTER.norm>
-2.22181

>  <SCORE.INTRA>
-0.475624

>  <SCORE.INTRA.DIHEDRAL>
-0.0154782

>  <SCORE.INTRA.DIHEDRAL.0>
3.04114

>  <SCORE.INTRA.POLAR>
0

>  <SCORE.INTRA.POLAR.0>
0

>  <SCORE.INTRA.REPUL>
0

>  <SCORE.INTRA.REPUL.0>
0

>  <SCORE.INTRA.SOLV>
-0.250778

>  <SCORE.INTRA.SOLV.lig_0>
-37.9232

>  <SCORE.INTRA.VDW>
-0.342496

>  <SCORE.INTRA.VDW.0>
-0.325588

>  <SCORE.INTRA.norm>
-0.0396353

>  <SCORE.RESTR>
0

>  <SCORE.RESTR.CAVITY>
0

>  <SCORE.RESTR.norm>
0

>  <SCORE.SYSTEM>
-20.2779

>  <SCORE.SYSTEM.CONST>
0

>  <SCORE.SYSTEM.DIHEDRAL>
4.38437

>  <SCORE.SYSTEM.POLAR>
-2.96778

>  <SCORE.SYSTEM.SOLV>
-0.0125993

>  <SCORE.SYSTEM.VDW>
-5.08326

>  <SCORE.SYSTEM.norm>
-1.68983

>  <SCORE.heavy>
12

>  <SCORE.norm>
-3.95127

$$$$
P129929700
 OpenBabel12072022113D
libRbt.so/2013.1/901 2013/11/27
 12 11  0  0  0  0  0  0  0  0999 V2000
    5.5313   18.4522    6.5865 C   0  0  0  0  0  0  0  0  0  0  0  0
    6.6213   18.9258    5.6272 C   0  0  0  0  0  0  0  0  0  0  0  0
    8.0207   18.7081    6.1949 C   0  0  0  0  0  0  0  0  0  0  0  0
    6.4337   18.2775    4.2076 C   0  0  0  0  0  0  0  0  0  0  0  0
    5.8029   17.1381    4.2316 N   0  0  0  0  0  0  0  0  0  0  0  0
    5.6588   16.6054    2.9382 O   0  0  0  0  0  0  0  0  0  0  0  0
    4.5001   15.7885    2.9125 C   0  0  0  0  0  0  0  0  0  0  0  0
    6.9049   18.9574    3.2597 O   0  5  0  0  0  0  0  0  0  0  0  0
    6.4365   20.4036    5.4073 N   0  3  0  0  0  0  0  0  0  0  0  0
    5.6176   20.3792    4.7508 H   0  0  0  0  0  0  0  0  0  0  0  0
    6.2060   20.9656    6.2201 H   0  0  0  0  0  0  0  0  0  0  0  0
    7.1731   20.7833    4.8128 H   0  0  0  0  0  0  0  0  0  0  0  0
  1  2  1  0  0  0  0
  2  3  1  0  0  0  0
  2  4  1  0  0  0  0
  2  9  1  0  0  0  0
  4  5  2  0  0  0  0
  4  8  1  0  0  0  0
  5  6  1  0  0  0  0
  6  7  1  0  0  0  0
  9 10  1  0  0  0  0
  9 11  1  0  0  0  0
  9 12  1  0  0  0  0
M  CHG  2   8  -1   9   1
M  END
>  <CHROM.0>
-56.90457219,-60.87246793,-62.54361038,-46.21030818,-58.67518537,-60.03456557
-70.41791208,-59.37854886,-168.07390812

>  <CHROM.1>
-25.82683227,-76.32423169,-152.53598313,6.20300931,18.16222756,4.57133935
0.86586012,0.95299268,1.34684188

>  <Name>
P129929700

>  <RI>
1.00763e+07

>  <Rbt.Current_Directory>
/home/fstefaniak/projects/zuza/docking/adenine/4XNR

>  <Rbt.Executable>
rbdock ($Id: //depot/dev/client3/rdock/2013.1/src/exe/rbdock.cxx#4 $)

>  <Rbt.Library>
libRbt.so (2013.1, Build901 2013/11/27)

>  <Rbt.Parameter_File>
/home/fstefaniak/progs/rDock//data/scripts/dock_solv.prm

>  <Rbt.Receptor>
4xnr.prm

>  <SCORE>
-42.0784

>  <SCORE.INTER>
-19.7381

>  <SCORE.INTER.CONST>
1

>  <SCORE.INTER.POLAR>
-4.30768

>  <SCORE.INTER.ROT>
2

>  <SCORE.INTER.SOLV>
25.3589

>  <SCORE.INTER.VDW>
-12.1861

>  <SCORE.INTER.norm>
-2.19312

>  <SCORE.INTRA>
-1.53477

>  <SCORE.INTRA.DIHEDRAL>
-1.95524

>  <SCORE.INTRA.DIHEDRAL.0>
4.81264

>  <SCORE.INTRA.POLAR>
0

>  <SCORE.INTRA.POLAR.0>
0

>  <SCORE.INTRA.REPUL>
0

>  <SCORE.INTRA.REPUL.0>
0

>  <SCORE.INTRA.SOLV>
-0.313827

>  <SCORE.INTRA.SOLV.lig_0>
-39.2359

>  <SCORE.INTRA.VDW>
-0.400236

>  <SCORE.INTRA.VDW.0>
2.37471

>  <SCORE.INTRA.norm>
-0.17053

>  <SCORE.RESTR>
0

>  <SCORE.RESTR.CAVITY>
0

>  <SCORE.RESTR.norm>
0

>  <SCORE.SYSTEM>
-20.8056

>  <SCORE.SYSTEM.CONST>
0

>  <SCORE.SYSTEM.DIHEDRAL>
4.20922

>  <SCORE.SYSTEM.POLAR>
-3.01529

>  <SCORE.SYSTEM.SOLV>
0.29255

>  <SCORE.SYSTEM.VDW>
-5.31998

>  <SCORE.SYSTEM.norm>
-2.31173

>  <SCORE.heavy>
9

>  <SCORE.norm>
-4.67538

$$$$
P129929700
 OpenBabel12072022113D
libRbt.so/2013.1/901 2013/11/27
 12 11  0  0  0  0  0  0  0  0999 V2000
    2.3015   12.9095    2.9884 C   0  0  0  0  0  0  0  0  0  0  0  0
    2.2148   13.8834    4.1617 C   0  0  0  0  0  0  0  0  0  0  0  0
    3.0566   13.4281    5.3499 C   0  0  0  0  0  0  0  0  0  0  0  0
    2.5585   15.3455    3.6980 C   0  0  0  0  0  0  0  0  0  0  0  0
    3.7093   15.4472    3.0965 N   0  0  0  0  0  0  0  0  0  0  0  0
    3.9644   16.7719    2.6999 O   0  0  0  0  0  0  0  0  0  0  0  0
    5.2010   17.1810    3.2602 C   0  0  0  0  0  0  0  0  0  0  0  0
    1.6699   16.1964    3.9615 O   0  5  0  0  0  0  0  0  0  0  0  0
    0.7787   13.9449    4.6092 N   0  3  0  0  0  0  0  0  0  0  0  0
    0.8663   14.6602    5.3725 H   0  0  0  0  0  0  0  0  0  0  0  0
    0.0958   14.2560    3.9262 H   0  0  0  0  0  0  0  0  0  0  0  0
    0.5187   13.1085    5.1318 H   0  0  0  0  0  0  0  0  0  0  0  0
  1  2  1  0  0  0  0
  2  3  1  0  0  0  0
  2  4  1  0  0  0  0
  2  9  1  0  0  0  0
  4  5  2  0  0  0  0
  4  8  1  0  0  0  0
  5  6  1  0  0  0  0
  6  7  1  0  0  0  0
  9 10  1  0  0  0  0
  9 11  1  0  0  0  0
  9 12  1  0  0  0  0
M  CHG  2   8  -1   9   1
M  END
>  <CHROM.0>
-59.57971055,-69.65389882,-62.45608205,-47.28439822,-54.16779562,-60.94653237
-68.06115243,-58.92997321,-168.21421048

>  <CHROM.1>
-54.47783848,-177.91930406,124.06968842,2.80402126,15.03362332,3.76687311
-2.24564960,0.25640868,-0.18121748

>  <Name>
P129929700

>  <RI>
1.00763e+07

>  <Rbt.Current_Directory>
/home/fstefaniak/projects/zuza/docking/adenine/4XNR

>  <Rbt.Executable>
rbdock ($Id: //depot/dev/client3/rdock/2013.1/src/exe/rbdock.cxx#4 $)

>  <Rbt.Library>
libRbt.so (2013.1, Build901 2013/11/27)

>  <Rbt.Parameter_File>
/home/fstefaniak/progs/rDock//data/scripts/dock_solv.prm

>  <Rbt.Receptor>
4xnr.prm

>  <SCORE>
-41.1069

>  <SCORE.INTER>
-17.9004

>  <SCORE.INTER.CONST>
1

>  <SCORE.INTER.POLAR>
-3.03799

>  <SCORE.INTER.ROT>
2

>  <SCORE.INTER.SOLV>
16.9912

>  <SCORE.INTER.VDW>
-12.404

>  <SCORE.INTER.norm>
-1.98894

>  <SCORE.INTRA>
-2.54417

>  <SCORE.INTRA.DIHEDRAL>
-3.27903

>  <SCORE.INTRA.DIHEDRAL.0>
4.81264

>  <SCORE.INTRA.POLAR>
0

>  <SCORE.INTRA.POLAR.0>
0

>  <SCORE.INTRA.REPUL>
0

>  <SCORE.INTRA.REPUL.0>
0

>  <SCORE.INTRA.SOLV>
-0.0251767

>  <SCORE.INTRA.SOLV.lig_0>
-39.2359

>  <SCORE.INTRA.VDW>
-0.892065

>  <SCORE.INTRA.VDW.0>
2.37471

>  <SCORE.INTRA.norm>
-0.282686

>  <SCORE.RESTR>
0

>  <SCORE.RESTR.CAVITY>
0

>  <SCORE.RESTR.norm>
0

>  <SCORE.SYSTEM>
-20.6623

>  <SCORE.SYSTEM.CONST>
0

>  <SCORE.SYSTEM.DIHEDRAL>
4.4215

>  <SCORE.SYSTEM.POLAR>
-2.98889

>  <SCORE.SYSTEM.SOLV>
0.290372

>  <SCORE.SYSTEM.VDW>
-5.3825

>  <SCORE.SYSTEM.norm>
-2.29581

>  <SCORE.heavy>
9

>  <SCORE.norm>
-4.56743

$$$$
P129929700
 OpenBabel12072022113D
libRbt.so/2013.1/901 2013/11/27
 12 11  0  0  0  0  0  0  0  0999 V2000
    2.2954   12.9365    2.9745 C   0  0  0  0  0  0  0  0  0  0  0  0
    2.2248   13.9066    4.1520 C   0  0  0  0  0  0  0  0  0  0  0  0
    3.0628   13.4348    5.3364 C   0  0  0  0  0  0  0  0  0  0  0  0
    2.5877   15.3657    3.6935 C   0  0  0  0  0  0  0  0  0  0  0  0
    3.7188   15.4470    3.0526 N   0  0  0  0  0  0  0  0  0  0  0  0
    3.9923   16.7702    2.6627 O   0  0  0  0  0  0  0  0  0  0  0  0
    5.0954   17.2444    3.4167 C   0  0  0  0  0  0  0  0  0  0  0  0
    1.7303   16.2344    3.9984 O   0  5  0  0  0  0  0  0  0  0  0  0
    0.7907   13.9862    4.6029 N   0  3  0  0  0  0  0  0  0  0  0  0
    0.8925   14.6854    5.3794 H   0  0  0  0  0  0  0  0  0  0  0  0
    0.1127   14.3227    3.9270 H   0  0  0  0  0  0  0  0  0  0  0  0
    0.5159   13.1451    5.1101 H   0  0  0  0  0  0  0  0  0  0  0  0
  1  2  1  0  0  0  0
  2  3  1  0  0  0  0
  2  4  1  0  0  0  0
  2  9  1  0  0  0  0
  4  5  2  0  0  0  0
  4  8  1  0  0  0  0
  5  6  1  0  0  0  0
  6  7  1  0  0  0  0
  9 10  1  0  0  0  0
  9 11  1  0  0  0  0
  9 12  1  0  0  0  0
M  CHG  2   8  -1   9   1
M  END
>  <CHROM.0>
-58.74861192,-63.34843754,-64.48025561,-47.47293225,-57.77912023,-65.95018651
-71.24325894,-63.07972145,-168.16715374

>  <CHROM.1>
-52.42676863,-178.80356514,111.17026507,2.80883691,15.05834558,3.77480150
-2.24022928,0.29341450,-0.13562719

>  <Name>
P129929700

>  <RI>
1.00763e+07

>  <Rbt.Current_Directory>
/home/fstefaniak/projects/zuza/docking/adenine/4XNR

>  <Rbt.Executable>
rbdock ($Id: //depot/dev/client3/rdock/2013.1/src/exe/rbdock.cxx#4 $)

>  <Rbt.Library>
libRbt.so (2013.1, Build901 2013/11/27)

>  <Rbt.Parameter_File>
/home/fstefaniak/progs/rDock//data/scripts/dock_solv.prm

>  <Rbt.Receptor>
4xnr.prm

>  <SCORE>
-41.0089

>  <SCORE.INTER>
-17.5881

>  <SCORE.INTER.CONST>
1

>  <SCORE.INTER.POLAR>
-3.02953

>  <SCORE.INTER.ROT>
2

>  <SCORE.INTER.SOLV>
17.0887

>  <SCORE.INTER.VDW>
-12.2565

>  <SCORE.INTER.norm>
-1.95423

>  <SCORE.INTRA>
-2.52431

>  <SCORE.INTRA.DIHEDRAL>
-3.66222

>  <SCORE.INTRA.DIHEDRAL.0>
4.81264

>  <SCORE.INTRA.POLAR>
0

>  <SCORE.INTRA.POLAR.0>
0

>  <SCORE.INTRA.REPUL>
0

>  <SCORE.INTRA.REPUL.0>
0

>  <SCORE.INTRA.SOLV>
0.0943605

>  <SCORE.INTRA.SOLV.lig_0>
-39.2359

>  <SCORE.INTRA.VDW>
-0.740376

>  <SCORE.INTRA.VDW.0>
2.37471

>  <SCORE.INTRA.norm>
-0.280478

>  <SCORE.RESTR>
0

>  <SCORE.RESTR.CAVITY>
0

>  <SCORE.RESTR.norm>
0

>  <SCORE.SYSTEM>
-20.8965

>  <SCORE.SYSTEM.CONST>
0

>  <SCORE.SYSTEM.DIHEDRAL>
4.42083

>  <SCORE.SYSTEM.POLAR>
-2.97925

>  <SCORE.SYSTEM.SOLV>
0.262831

>  <SCORE.SYSTEM.VDW>
-5.56135

>  <SCORE.SYSTEM.norm>
-2.32183

>  <SCORE.heavy>
9

>  <SCORE.norm>
-4.55654

$$$$
P129929867
 OpenBabel12072022113D
libRbt.so/2013.1/901 2013/11/27
 14 14  0  0  0  0  0  0  0  0999 V2000
    1.4320   13.7605    3.8111 C   0  0  0  0  0  0  0  0  0  0  0  0
    0.9239   15.1260    4.2277 C   0  0  0  0  0  0  0  0  0  0  0  0
    1.7506   16.1178    3.6321 O   0  0  0  0  0  0  0  0  0  0  0  0
    3.0304   16.0418    4.2098 N   0  0  0  0  0  0  0  0  0  0  0  0
    3.9309   16.5880    3.4439 C   0  0  0  0  0  0  0  0  0  0  0  0
    5.3831   16.5290    4.0212 C   0  0  1  0  0  0  0  0  0  0  0  0
    6.5386   16.9213    3.1044 C   0  0  0  0  0  0  0  0  0  0  0  0
    6.6369   18.4244    2.8645 C   0  0  0  0  0  0  0  0  0  0  0  0
    6.6694   19.1847    4.1848 C   0  0  0  0  0  0  0  0  0  0  0  0
    5.4535   18.8518    5.0287 C   0  0  0  0  0  0  0  0  0  0  0  0
    5.3848   17.3926    5.2621 N   0  3  0  0  0  0  0  0  0  0  0  0
    6.0094   17.0295    5.9788 H   0  0  0  0  0  0  0  0  0  0  0  0
    4.4008   17.2049    5.5658 H   0  0  0  0  0  0  0  0  0  0  0  0
    3.8461   17.1583    2.3268 O   0  5  0  0  0  0  0  0  0  0  0  0
  1  2  1  0  0  0  0
  2  3  1  0  0  0  0
  3  4  1  0  0  0  0
  4  5  2  0  0  0  0
  5 14  1  0  0  0  0
  6  7  1  0  0  0  0
  6 11  1  0  0  0  0
  6  5  1  6  0  0  0
  7  8  1  0  0  0  0
  8  9  1  0  0  0  0
  9 10  1  0  0  0  0
 10 11  1  0  0  0  0
 11 12  1  0  0  0  0
 11 13  1  0  0  0  0
M  CHG  2  11   1  14  -1
M  END
>  <CHROM.0>
-62.64582196,63.25245720,-67.17043246,-48.69837729,-57.13077578,-62.97919259
-68.58561820,-65.93032511,-167.26008494

>  <CHROM.1>
-67.57932323,159.13458978,169.68299795,4.20692630,16.82672309,3.84911599
-2.92807510,0.57467767,1.21359582

>  <Name>
P129929867

>  <RI>
4.17015e+07

>  <Rbt.Current_Directory>
/home/fstefaniak/projects/zuza/docking/adenine/4XNR

>  <Rbt.Executable>
rbdock ($Id: //depot/dev/client3/rdock/2013.1/src/exe/rbdock.cxx#4 $)

>  <Rbt.Library>
libRbt.so (2013.1, Build901 2013/11/27)

>  <Rbt.Parameter_File>
/home/fstefaniak/progs/rDock//data/scripts/dock_solv.prm

>  <Rbt.Receptor>
4xnr.prm

>  <SCORE>
-40.3932

>  <SCORE.INTER>
-20.1287

>  <SCORE.INTER.CONST>
1

>  <SCORE.INTER.POLAR>
-2.81406

>  <SCORE.INTER.ROT>
3

>  <SCORE.INTER.SOLV>
21.4489

>  <SCORE.INTER.VDW>
-16.7886

>  <SCORE.INTER.norm>
-1.67739

>  <SCORE.INTRA>
-0.333375

>  <SCORE.INTRA.DIHEDRAL>
0.0277704

>  <SCORE.INTRA.DIHEDRAL.0>
3.03576

>  <SCORE.INTRA.POLAR>
-0.392268

>  <SCORE.INTRA.POLAR.0>
0

>  <SCORE.INTRA.REPUL>
0

>  <SCORE.INTRA.REPUL.0>
0

>  <SCORE.INTRA.SOLV>
0.425806

>  <SCORE.INTRA.SOLV.lig_0>
-38.5828

>  <SCORE.INTRA.VDW>
0.773549

>  <SCORE.INTRA.VDW.0>
-0.647759

>  <SCORE.INTRA.norm>
-0.0277813

>  <SCORE.RESTR>
0

>  <SCORE.RESTR.CAVITY>
0

>  <SCORE.RESTR.norm>
0

>  <SCORE.SYSTEM>
-19.9311

>  <SCORE.SYSTEM.CONST>
0

>  <SCORE.SYSTEM.DIHEDRAL>
4.32566

>  <SCORE.SYSTEM.POLAR>
-2.93707

>  <SCORE.SYSTEM.SOLV>
0.322425

>  <SCORE.SYSTEM.VDW>
-5.04653

>  <SCORE.SYSTEM.norm>
-1.66093

>  <SCORE.heavy>
12

>  <SCORE.norm>
-3.3661

$$$$
P129929867
 OpenBabel12072022113D
libRbt.so/2013.1/901 2013/11/27
 14 14  0  0  0  0  0  0  0  0999 V2000
    1.4340   13.8859    3.9019 C   0  0  0  0  0  0  0  0  0  0  0  0
    0.9362   15.2682    4.2730 C   0  0  0  0  0  0  0  0  0  0  0  0
    1.7802   16.2335    3.6585 O   0  0  0  0  0  0  0  0  0  0  0  0
    3.0574   16.1492    4.2409 N   0  0  0  0  0  0  0  0  0  0  0  0
    3.9721   16.6376    3.4532 C   0  0  0  0  0  0  0  0  0  0  0  0
    5.4221   16.5657    4.0346 C   0  0  1  0  0  0  0  0  0  0  0  0
    6.5803   16.9883    3.1348 C   0  0  0  0  0  0  0  0  0  0  0  0
    6.6750   18.4982    2.9400 C   0  0  0  0  0  0  0  0  0  0  0  0
    6.6997   19.2190    4.2824 C   0  0  0  0  0  0  0  0  0  0  0  0
    5.4813   18.8578    5.1109 C   0  0  0  0  0  0  0  0  0  0  0  0
    5.4160   17.3921    5.3006 N   0  3  0  0  0  0  0  0  0  0  0  0
    6.0387   17.0097    6.0089 H   0  0  0  0  0  0  0  0  0  0  0  0
    4.4313   17.1926    5.5944 H   0  0  0  0  0  0  0  0  0  0  0  0
    3.9027   17.1606    2.3122 O   0  5  0  0  0  0  0  0  0  0  0  0
  1  2  1  0  0  0  0
  2  3  1  0  0  0  0
  3  4  1  0  0  0  0
  4  5  2  0  0  0  0
  5 14  1  0  0  0  0
  6  7  1  0  0  0  0
  6 11  1  0  0  0  0
  6  5  1  6  0  0  0
  7  8  1  0  0  0  0
  8  9  1  0  0  0  0
  9 10  1  0  0  0  0
 10 11  1  0  0  0  0
 11 12  1  0  0  0  0
 11 13  1  0  0  0  0
M  CHG  2  11   1  14  -1
M  END
>  <CHROM.0>
-54.76074802,66.50342037,-65.83545770,-45.45284164,-175.82972524,-171.90051948
-64.82337991,-57.58727105,-168.67142817

>  <CHROM.1>
-66.83605162,157.72491680,174.21076226,4.23825342,16.88970026,3.89276737
-2.94704337,0.56406226,1.24275874

>  <Name>
P129929867

>  <RI>
4.17015e+07

>  <Rbt.Current_Directory>
/home/fstefaniak/projects/zuza/docking/adenine/4XNR

>  <Rbt.Executable>
rbdock ($Id: //depot/dev/client3/rdock/2013.1/src/exe/rbdock.cxx#4 $)

>  <Rbt.Library>
libRbt.so (2013.1, Build901 2013/11/27)

>  <Rbt.Parameter_File>
/home/fstefaniak/progs/rDock//data/scripts/dock_solv.prm

>  <Rbt.Receptor>
4xnr.prm

>  <SCORE>
-40.0825

>  <SCORE.INTER>
-19.8078

>  <SCORE.INTER.CONST>
1

>  <SCORE.INTER.POLAR>
-2.84354

>  <SCORE.INTER.ROT>
3

>  <SCORE.INTER.SOLV>
21.6668

>  <SCORE.INTER.VDW>
-16.549

>  <SCORE.INTER.norm>
-1.65065

>  <SCORE.INTRA>
-0.75256

>  <SCORE.INTRA.DIHEDRAL>
-0.0569202

>  <SCORE.INTRA.DIHEDRAL.0>
3.03576

>  <SCORE.INTRA.POLAR>
-0.511307

>  <SCORE.INTRA.POLAR.0>
0

>  <SCORE.INTRA.REPUL>
0

>  <SCORE.INTRA.REPUL.0>
0

>  <SCORE.INTRA.SOLV>
0.384937

>  <SCORE.INTRA.SOLV.lig_0>
-38.5828

>  <SCORE.INTRA.VDW>
0.821875

>  <SCORE.INTRA.VDW.0>
-0.647759

>  <SCORE.INTRA.norm>
-0.0627133

>  <SCORE.RESTR>
0

>  <SCORE.RESTR.CAVITY>
0

>  <SCORE.RESTR.norm>
0

>  <SCORE.SYSTEM>
-19.5222

>  <SCORE.SYSTEM.CONST>
0

>  <SCORE.SYSTEM.DIHEDRAL>
4.65936

>  <SCORE.SYSTEM.POLAR>
-3.03363

>  <SCORE.SYSTEM.SOLV>
0.0680532

>  <SCORE.SYSTEM.VDW>
-4.47848

>  <SCORE.SYSTEM.norm>
-1.62685

>  <SCORE.heavy>
12

>  <SCORE.norm>
-3.34021

$$$$
P129929867
 OpenBabel12072022113D
libRbt.so/2013.1/901 2013/11/27
 14 14  0  0  0  0  0  0  0  0999 V2000
    1.3567   13.8254    3.8835 C   0  0  0  0  0  0  0  0  0  0  0  0
    0.8948   15.2130    4.2803 C   0  0  0  0  0  0  0  0  0  0  0  0
    1.7378   16.1686    3.6494 O   0  0  0  0  0  0  0  0  0  0  0  0
    3.0201   16.0825    4.2202 N   0  0  0  0  0  0  0  0  0  0  0  0
    3.9247   16.5952    3.4362 C   0  0  0  0  0  0  0  0  0  0  0  0
    5.3797   16.5230    4.0051 C   0  0  1  0  0  0  0  0  0  0  0  0
    6.5322   16.9198    3.0865 C   0  0  0  0  0  0  0  0  0  0  0  0
    6.6364   18.4249    2.8625 C   0  0  0  0  0  0  0  0  0  0  0  0
    6.6796   19.1705    4.1909 C   0  0  0  0  0  0  0  0  0  0  0  0
    5.4666   18.8342    5.0375 C   0  0  0  0  0  0  0  0  0  0  0  0
    5.3920   17.3729    5.2553 N   0  3  0  0  0  0  0  0  0  0  0  0
    6.0187   16.9990    5.9647 H   0  0  0  0  0  0  0  0  0  0  0  0
    4.4088   17.1865    5.5622 H   0  0  0  0  0  0  0  0  0  0  0  0
    3.8423   17.1417    2.3072 O   0  5  0  0  0  0  0  0  0  0  0  0
  1  2  1  0  0  0  0
  2  3  1  0  0  0  0
  3  4  1  0  0  0  0
  4  5  2  0  0  0  0
  5 14  1  0  0  0  0
  6  7  1  0  0  0  0
  6 11  1  0  0  0  0
  6  5  1  6  0  0  0
  7  8  1  0  0  0  0
  8  9  1  0  0  0  0
  9 10  1  0  0  0  0
 10 11  1  0  0  0  0
 11 12  1  0  0  0  0
 11 13  1  0  0  0  0
M  CHG  2  11   1  14  -1
M  END
>  <CHROM.0>
-55.62877137,64.83354350,-72.64132047,-47.48650358,-59.57416818,-65.89539000
-170.69407881,-58.10004468,-167.13635972

>  <CHROM.1>
-68.48607503,159.61077479,171.74048123,4.19693997,16.84143228,3.85752384
-2.95329325,0.56589978,1.23564472

>  <Name>
P129929867

>  <RI>
4.17015e+07

>  <Rbt.Current_Directory>
/home/fstefaniak/projects/zuza/docking/adenine/4XNR

>  <Rbt.Executable>
rbdock ($Id: //depot/dev/client3/rdock/2013.1/src/exe/rbdock.cxx#4 $)

>  <Rbt.Library>
libRbt.so (2013.1, Build901 2013/11/27)

>  <Rbt.Parameter_File>
/home/fstefaniak/progs/rDock//data/scripts/dock_solv.prm

>  <Rbt.Receptor>
4xnr.prm

>  <SCORE>
-39.8867

>  <SCORE.INTER>
-20.03

>  <SCORE.INTER.CONST>
1

>  <SCORE.INTER.POLAR>
-2.80542

>  <SCORE.INTER.ROT>
3

>  <SCORE.INTER.SOLV>
21.627

>  <SCORE.INTER.VDW>
-16.8109

>  <SCORE.INTER.norm>
-1.66916

>  <SCORE.INTRA>
-0.572298

>  <SCORE.INTRA.DIHEDRAL>
0.108757

>  <SCORE.INTRA.DIHEDRAL.0>
3.03576

>  <SCORE.INTRA.POLAR>
-0.457625

>  <SCORE.INTRA.POLAR.0>
0

>  <SCORE.INTRA.REPUL>
0

>  <SCORE.INTRA.REPUL.0>
0

>  <SCORE.INTRA.SOLV>
0.391049

>  <SCORE.INTRA.SOLV.lig_0>
-38.5828

>  <SCORE.INTRA.VDW>
0.733723

>  <SCORE.INTRA.VDW.0>
-0.647759

>  <SCORE.INTRA.norm>
-0.0476915

>  <SCORE.RESTR>
0

>  <SCORE.RESTR.CAVITY>
0

>  <SCORE.RESTR.norm>
0

>  <SCORE.SYSTEM>
-19.2844

>  <SCORE.SYSTEM.CONST>
0

>  <SCORE.SYSTEM.DIHEDRAL>
5.05224

>  <SCORE.SYSTEM.POLAR>
-2.98659

>  <SCORE.SYSTEM.SOLV>
0.282844

>  <SCORE.SYSTEM.VDW>
-4.67932

>  <SCORE.SYSTEM.norm>
-1.60703

>  <SCORE.heavy>
12

>  <SCORE.norm>
-3.32389

$$$$
P129960895
 OpenBabel12072022113D
libRbt.so/2013.1/901 2013/11/27
 11 11  0  0  0  0  0  0  0  0999 V2000
    4.6598   15.8868    3.7306 C   0  0  0  0  0  0  0  0  0  0  0  0
    5.5745   17.1007    3.5560 C   0  0  2  0  0  0  0  0  0  0  0  0
    5.2699   18.2543    4.5383 C   0  0  2  0  0  0  0  0  0  0  0  0
    6.2716   19.4045    4.5216 C   0  0  0  0  0  0  0  0  0  0  0  0
    7.0456   19.2285    5.8057 C   0  0  0  0  0  0  0  0  0  0  0  0
    6.0130   18.6136    6.7193 C   0  0  0  0  0  0  0  0  0  0  0  0
    5.2292   17.7458    5.8928 O   0  0  0  0  0  0  0  0  0  0  0  0
    5.4595   17.5968    2.1851 N   0  0  0  0  0  0  0  0  0  0  0  0
    6.4564   18.2971    1.5636 C   0  0  0  0  0  0  0  0  0  0  0  0
    7.5029   18.6596    2.0803 O   0  0  0  0  0  0  0  0  0  0  0  0
    4.6845   17.2423    1.6351 H   0  0  0  0  0  0  0  0  0  0  0  0
  2  8  1  0  0  0  0
  2  1  1  6  0  0  0
  3  4  1  0  0  0  0
  3  7  1  0  0  0  0
  3  2  1  6  0  0  0
  4  5  1  0  0  0  0
  5  6  1  0  0  0  0
  6  7  1  0  0  0  0
  8  9  1  0  0  0  0
  8 11  1  0  0  0  0
  9 10  2  0  0  0  0
M  END
>  <CHROM.0>
-56.04276143,-172.53509495,-67.76199614,-46.64702847,-61.87597781,-62.66666875
-66.39923698,-59.23581514,-167.19930600

>  <CHROM.1>
-154.39137591,172.30332092,5.94568963,18.06505008,4.05593517,1.48377706,-0.85344378
-1.81390303

>  <Name>
P129960895

>  <RI>
3.1908e+07

>  <Rbt.Current_Directory>
/home/fstefaniak/projects/zuza/docking/adenine/4XNR

>  <Rbt.Executable>
rbdock ($Id: //depot/dev/client3/rdock/2013.1/src/exe/rbdock.cxx#4 $)

>  <Rbt.Library>
libRbt.so (2013.1, Build901 2013/11/27)

>  <Rbt.Parameter_File>
/home/fstefaniak/progs/rDock//data/scripts/dock_solv.prm

>  <Rbt.Receptor>
4xnr.prm

>  <SCORE>
-45.1333

>  <SCORE.INTER>
-25.3071

>  <SCORE.INTER.CONST>
1

>  <SCORE.INTER.POLAR>
-1.67386

>  <SCORE.INTER.ROT>
2

>  <SCORE.INTER.SOLV>
10.7192

>  <SCORE.INTER.VDW>
-19.7983

>  <SCORE.INTER.norm>
-2.53071

>  <SCORE.INTRA>
0.843917

>  <SCORE.INTRA.DIHEDRAL>
0.902382

>  <SCORE.INTRA.DIHEDRAL.0>
0.846562

>  <SCORE.INTRA.POLAR>
0

>  <SCORE.INTRA.POLAR.0>
0

>  <SCORE.INTRA.REPUL>
0

>  <SCORE.INTRA.REPUL.0>
0

>  <SCORE.INTRA.SOLV>
0.209085

>  <SCORE.INTRA.SOLV.lig_0>
-10.6719

>  <SCORE.INTRA.VDW>
0.288183

>  <SCORE.INTRA.VDW.0>
0.369087

>  <SCORE.INTRA.norm>
0.0843917

>  <SCORE.RESTR>
0

>  <SCORE.RESTR.CAVITY>
0

>  <SCORE.RESTR.norm>
0

>  <SCORE.SYSTEM>
-20.6701

>  <SCORE.SYSTEM.CONST>
0

>  <SCORE.SYSTEM.DIHEDRAL>
4.52151

>  <SCORE.SYSTEM.POLAR>
-3.00866

>  <SCORE.SYSTEM.SOLV>
0.258624

>  <SCORE.SYSTEM.VDW>
-5.34457

>  <SCORE.SYSTEM.norm>
-2.06701

>  <SCORE.heavy>
10

>  <SCORE.norm>
-4.51333

$$$$
P129960895
 OpenBabel12072022113D
libRbt.so/2013.1/901 2013/11/27
 11 11  0  0  0  0  0  0  0  0999 V2000
    4.6752   15.8987    3.7790 C   0  0  0  0  0  0  0  0  0  0  0  0
    5.5899   17.1063    3.5649 C   0  0  2  0  0  0  0  0  0  0  0  0
    5.3033   18.2810    4.5276 C   0  0  2  0  0  0  0  0  0  0  0  0
    6.3335   19.4056    4.5064 C   0  0  0  0  0  0  0  0  0  0  0  0
    7.0886   19.2287    5.8015 C   0  0  0  0  0  0  0  0  0  0  0  0
    6.0309   18.6526    6.7118 C   0  0  0  0  0  0  0  0  0  0  0  0
    5.2350   17.7929    5.8884 O   0  0  0  0  0  0  0  0  0  0  0  0
    5.4546   17.5741    2.1859 N   0  0  0  0  0  0  0  0  0  0  0  0
    6.4329   18.2816    1.5434 C   0  0  0  0  0  0  0  0  0  0  0  0
    7.4761   18.6740    2.0446 O   0  0  0  0  0  0  0  0  0  0  0  0
    4.6826   17.1943    1.6490 H   0  0  0  0  0  0  0  0  0  0  0  0
  2  8  1  0  0  0  0
  2  1  1  1  0  0  0
  3  4  1  0  0  0  0
  3  7  1  0  0  0  0
  3  2  1  6  0  0  0
  4  5  1  0  0  0  0
  5  6  1  0  0  0  0
  6  7  1  0  0  0  0
  8  9  1  0  0  0  0
  8 11  1  0  0  0  0
  9 10  2  0  0  0  0
M  END
>  <CHROM.0>
-59.29494610,-173.52458505,-65.50362595,-47.24159049,-175.77100897,-174.30548031
-68.56895137,-175.87087872,-167.67002235

>  <CHROM.1>
-155.72343978,170.26368372,5.95881707,18.07607905,4.05208028,1.49761401,-0.85457859
-1.80944922

>  <Name>
P129960895

>  <RI>
3.1908e+07

>  <Rbt.Current_Directory>
/home/fstefaniak/projects/zuza/docking/adenine/4XNR

>  <Rbt.Executable>
rbdock ($Id: //depot/dev/client3/rdock/2013.1/src/exe/rbdock.cxx#4 $)

>  <Rbt.Library>
libRbt.so (2013.1, Build901 2013/11/27)

>  <Rbt.Parameter_File>
/home/fstefaniak/progs/rDock//data/scripts/dock_solv.prm

>  <Rbt.Receptor>
4xnr.prm

>  <SCORE>
-44.9365

>  <SCORE.INTER>
-25.5024

>  <SCORE.INTER.CONST>
1

>  <SCORE.INTER.POLAR>
-1.71048

>  <SCORE.INTER.ROT>
2

>  <SCORE.INTER.SOLV>
10.7051

>  <SCORE.INTER.VDW>
-19.8017

>  <SCORE.INTER.norm>
-2.55024

>  <SCORE.INTRA>
1.03375

>  <SCORE.INTRA.DIHEDRAL>
1.01604

>  <SCORE.INTRA.DIHEDRAL.0>
0.846562

>  <SCORE.INTRA.POLAR>
0

>  <SCORE.INTRA.POLAR.0>
0

>  <SCORE.INTRA.REPUL>
0

>  <SCORE.INTRA.REPUL.0>
0

>  <SCORE.INTRA.SOLV>
0.20363

>  <SCORE.INTRA.SOLV.lig_0>
-10.6719

>  <SCORE.INTRA.VDW>
0.423914

>  <SCORE.INTRA.VDW.0>
0.369087

>  <SCORE.INTRA.norm>
0.103375

>  <SCORE.RESTR>
0

>  <SCORE.RESTR.CAVITY>
0

>  <SCORE.RESTR.norm>
0

>  <SCORE.SYSTEM>
-20.4679

>  <SCORE.SYSTEM.CONST>
0

>  <SCORE.SYSTEM.DIHEDRAL>
4.53272

>  <SCORE.SYSTEM.POLAR>
-2.97424

>  <SCORE.SYSTEM.SOLV>
-0.165304

>  <SCORE.SYSTEM.VDW>
-5.18693

>  <SCORE.SYSTEM.norm>
-2.04679

>  <SCORE.heavy>
10

>  <SCORE.norm>
-4.49365

$$$$
P129960895
 OpenBabel12072022113D
libRbt.so/2013.1/901 2013/11/27
 11 11  0  0  0  0  0  0  0  0999 V2000
    4.7048   15.8327    3.7324 C   0  0  0  0  0  0  0  0  0  0  0  0
    5.5976   17.0639    3.5668 C   0  0  2  0  0  0  0  0  0  0  0  0
    5.2784   18.2013    4.5635 C   0  0  2  0  0  0  0  0  0  0  0  0
    6.2355   19.3882    4.5243 C   0  0  0  0  0  0  0  0  0  0  0  0
    7.0521   19.2361    5.7848 C   0  0  0  0  0  0  0  0  0  0  0  0
    6.0698   18.5790    6.7243 C   0  0  0  0  0  0  0  0  0  0  0  0
    5.2956   17.6859    5.9158 O   0  0  0  0  0  0  0  0  0  0  0  0
    5.4669   17.5732    2.2021 N   0  0  0  0  0  0  0  0  0  0  0  0
    6.4387   18.3173    1.5919 C   0  0  0  0  0  0  0  0  0  0  0  0
    7.4703   18.7112    2.1154 O   0  0  0  0  0  0  0  0  0  0  0  0
    4.7064   17.1977    1.6459 H   0  0  0  0  0  0  0  0  0  0  0  0
  2  8  1  0  0  0  0
  2  1  1  6  0  0  0
  3  4  1  0  0  0  0
  3  7  1  0  0  0  0
  3  2  1  6  0  0  0
  4  5  1  0  0  0  0
  5  6  1  0  0  0  0
  6  7  1  0  0  0  0
  8  9  1  0  0  0  0
  8 11  1  0  0  0  0
  9 10  2  0  0  0  0
M  END
>  <CHROM.0>
-58.24111882,-174.12279353,-67.78987703,-47.62569082,-59.17021194,-176.07521038
-68.09617803,-175.91764595,-168.52678182

>  <CHROM.1>
-155.57563322,174.11766990,5.95899819,18.04523907,4.06890886,1.50498046,-0.88336620
-1.79518241

>  <Name>
P129960895

>  <RI>
3.1908e+07

>  <Rbt.Current_Directory>
/home/fstefaniak/projects/zuza/docking/adenine/4XNR

>  <Rbt.Executable>
rbdock ($Id: //depot/dev/client3/rdock/2013.1/src/exe/rbdock.cxx#4 $)

>  <Rbt.Library>
libRbt.so (2013.1, Build901 2013/11/27)

>  <Rbt.Parameter_File>
/home/fstefaniak/progs/rDock//data/scripts/dock_solv.prm

>  <Rbt.Receptor>
4xnr.prm

>  <SCORE>
-44.8826

>  <SCORE.INTER>
-25.4291

>  <SCORE.INTER.CONST>
1

>  <SCORE.INTER.POLAR>
-1.78238

>  <SCORE.INTER.ROT>
2

>  <SCORE.INTER.SOLV>
10.7031

>  <SCORE.INTER.VDW>
-19.5126

>  <SCORE.INTER.norm>
-2.54291

>  <SCORE.INTRA>
0.993543

>  <SCORE.INTRA.DIHEDRAL>
0.79972

>  <SCORE.INTRA.DIHEDRAL.0>
0.846562

>  <SCORE.INTRA.POLAR>
0

>  <SCORE.INTRA.POLAR.0>
0

>  <SCORE.INTRA.REPUL>
0

>  <SCORE.INTRA.REPUL.0>
0

>  <SCORE.INTRA.SOLV>
0.232261

>  <SCORE.INTRA.SOLV.lig_0>
-10.6719

>  <SCORE.INTRA.VDW>
0.477552

>  <SCORE.INTRA.VDW.0>
0.369087

>  <SCORE.INTRA.norm>
0.0993543

>  <SCORE.RESTR>
0

>  <SCORE.RESTR.CAVITY>
0

>  <SCORE.RESTR.norm>
0

>  <SCORE.SYSTEM>
-20.447

>  <SCORE.SYSTEM.CONST>
0

>  <SCORE.SYSTEM.DIHEDRAL>
4.32501

>  <SCORE.SYSTEM.POLAR>
-2.96642

>  <SCORE.SYSTEM.SOLV>
0.00893054

>  <SCORE.SYSTEM.VDW>
-5.1879

>  <SCORE.SYSTEM.norm>
-2.0447

>  <SCORE.heavy>
10

>  <SCORE.norm>
-4.48826

$$$$
P129962631
 OpenBabel12072022113D
libRbt.so/2013.1/901 2013/11/27
 10 10  0  0  0  0  0  0  0  0999 V2000
    6.2975   18.8766    6.8970 C   0  0  0  0  0  0  0  0  0  0  0  0
    6.4746   19.8568    5.7721 C   0  0  0  0  0  0  0  0  0  0  0  0
    5.5189   18.6961    5.6141 C   0  0  0  0  0  0  0  0  0  0  0  0
    5.8379   17.5505    4.6893 C   0  0  2  0  0  0  0  0  0  0  0  0
    6.4452   18.2253    3.4701 C   0  0  0  0  0  0  0  0  0  0  0  0
    6.9490   18.7851    2.4588 N   0  0  0  0  0  0  0  0  0  0  0  0
    4.6154   16.8512    4.3505 N   0  0  0  0  0  0  0  0  0  0  0  0
    4.4911   16.1717    3.1713 C   0  0  0  0  0  0  0  0  0  0  0  0
    5.3347   16.1258    2.2890 O   0  0  0  0  0  0  0  0  0  0  0  0
    3.8861   16.7666    5.0467 H   0  0  0  0  0  0  0  0  0  0  0  0
  1  2  1  0  0  0  0
  1  3  1  0  0  0  0
  2  3  1  0  0  0  0
  4  5  1  6  0  0  0
  4  7  1  0  0  0  0
  4  3  1  0  0  0  0
  5  6  3  0  0  0  0
  7  8  1  0  0  0  0
  7 10  1  0  0  0  0
  8  9  2  0  0  0  0
M  END
>  <CHROM.0>
-58.66027667,-62.07162475,-70.04608303,-46.77917924,-58.61054959,-62.13466093
-68.21288374,-62.61933166,-168.16171518

>  <CHROM.1>
152.64744406,-111.05775318,5.75255796,17.87215254,4.28458724,1.19074003,0.85849837
1.18177592

>  <Name>
P129962631

>  <RI>
3.1908e+07

>  <Rbt.Current_Directory>
/home/fstefaniak/projects/zuza/docking/adenine/4XNR

>  <Rbt.Executable>
rbdock ($Id: //depot/dev/client3/rdock/2013.1/src/exe/rbdock.cxx#4 $)

>  <Rbt.Library>
libRbt.so (2013.1, Build901 2013/11/27)

>  <Rbt.Parameter_File>
/home/fstefaniak/progs/rDock//data/scripts/dock_solv.prm

>  <Rbt.Receptor>
4xnr.prm

>  <SCORE>
-46.6625

>  <SCORE.INTER>
-27.6852

>  <SCORE.INTER.CONST>
1

>  <SCORE.INTER.POLAR>
-3.11143

>  <SCORE.INTER.ROT>
2

>  <SCORE.INTER.SOLV>
9.85288

>  <SCORE.INTER.VDW>
-16.303

>  <SCORE.INTER.norm>
-3.07613

>  <SCORE.INTRA>
1.92956

>  <SCORE.INTRA.DIHEDRAL>
-1.07872

>  <SCORE.INTRA.DIHEDRAL.0>
3.74909

>  <SCORE.INTRA.POLAR>
0

>  <SCORE.INTRA.POLAR.0>
0

>  <SCORE.INTRA.REPUL>
0

>  <SCORE.INTRA.REPUL.0>
0

>  <SCORE.INTRA.SOLV>
0.343307

>  <SCORE.INTRA.SOLV.lig_0>
-12.3972

>  <SCORE.INTRA.VDW>
2.29726

>  <SCORE.INTRA.VDW.0>
-1.14106

>  <SCORE.INTRA.norm>
0.214395

>  <SCORE.RESTR>
0

>  <SCORE.RESTR.CAVITY>
0

>  <SCORE.RESTR.norm>
0

>  <SCORE.SYSTEM>
-20.9069

>  <SCORE.SYSTEM.CONST>
0

>  <SCORE.SYSTEM.DIHEDRAL>
4.40485

>  <SCORE.SYSTEM.POLAR>
-2.97986

>  <SCORE.SYSTEM.SOLV>
0.272529

>  <SCORE.SYSTEM.VDW>
-5.56419

>  <SCORE.SYSTEM.norm>
-2.32299

>  <SCORE.heavy>
9

>  <SCORE.norm>
-5.18472

$$$$
P129962631
 OpenBabel12072022113D
libRbt.so/2013.1/901 2013/11/27
 10 10  0  0  0  0  0  0  0  0999 V2000
    6.2839   18.8950    6.8610 C   0  0  0  0  0  0  0  0  0  0  0  0
    6.4904   19.8560    5.7247 C   0  0  0  0  0  0  0  0  0  0  0  0
    5.5269   18.7017    5.5671 C   0  0  0  0  0  0  0  0  0  0  0  0
    5.8519   17.5389    4.6660 C   0  0  2  0  0  0  0  0  0  0  0  0
    6.4740   18.1903    3.4416 C   0  0  0  0  0  0  0  0  0  0  0  0
    6.9901   18.7307    2.4258 N   0  0  0  0  0  0  0  0  0  0  0  0
    4.6308   16.8374    4.3268 N   0  0  0  0  0  0  0  0  0  0  0  0
    4.5106   16.1522    3.1504 C   0  0  0  0  0  0  0  0  0  0  0  0
    5.3569   16.1024    2.2711 O   0  0  0  0  0  0  0  0  0  0  0  0
    3.8995   16.7559    5.0211 H   0  0  0  0  0  0  0  0  0  0  0  0
  1  2  1  0  0  0  0
  1  3  1  0  0  0  0
  2  3  1  0  0  0  0
  4  5  1  6  0  0  0
  4  7  1  0  0  0  0
  4  3  1  0  0  0  0
  5  6  3  0  0  0  0
  7  8  1  0  0  0  0
  7 10  1  0  0  0  0
  8  9  2  0  0  0  0
M  END
>  <CHROM.0>
-64.31036345,-62.34686792,-67.77968992,-48.02395087,-175.59784474,-62.54327934
-69.70773500,-58.51915869,-168.38998766

>  <CHROM.1>
151.77779237,-111.63746224,5.76928783,17.85731622,4.25391716,1.20449833,0.84833851
1.16103385

>  <Name>
P129962631

>  <RI>
3.1908e+07

>  <Rbt.Current_Directory>
/home/fstefaniak/projects/zuza/docking/adenine/4XNR

>  <Rbt.Executable>
rbdock ($Id: //depot/dev/client3/rdock/2013.1/src/exe/rbdock.cxx#4 $)

>  <Rbt.Library>
libRbt.so (2013.1, Build901 2013/11/27)

>  <Rbt.Parameter_File>
/home/fstefaniak/progs/rDock//data/scripts/dock_solv.prm

>  <Rbt.Receptor>
4xnr.prm

>  <SCORE>
-46.6575

>  <SCORE.INTER>
-27.6788

>  <SCORE.INTER.CONST>
1

>  <SCORE.INTER.POLAR>
-3.07572

>  <SCORE.INTER.ROT>
2

>  <SCORE.INTER.SOLV>
9.81866

>  <SCORE.INTER.VDW>
-16.4064

>  <SCORE.INTER.norm>
-3.07542

>  <SCORE.INTRA>
1.95634

>  <SCORE.INTRA.DIHEDRAL>
-1.08389

>  <SCORE.INTRA.DIHEDRAL.0>
3.74909

>  <SCORE.INTRA.POLAR>
0

>  <SCORE.INTRA.POLAR.0>
0

>  <SCORE.INTRA.REPUL>
0

>  <SCORE.INTRA.REPUL.0>
0

>  <SCORE.INTRA.SOLV>
0.349151

>  <SCORE.INTRA.SOLV.lig_0>
-12.3972

>  <SCORE.INTRA.VDW>
2.32371

>  <SCORE.INTRA.VDW.0>
-1.14106

>  <SCORE.INTRA.norm>
0.217371

>  <SCORE.RESTR>
0

>  <SCORE.RESTR.CAVITY>
0

>  <SCORE.RESTR.norm>
0

>  <SCORE.SYSTEM>
-20.9351

>  <SCORE.SYSTEM.CONST>
0

>  <SCORE.SYSTEM.DIHEDRAL>
4.33117

>  <SCORE.SYSTEM.POLAR>
-2.93004

>  <SCORE.SYSTEM.SOLV>
0.0905682

>  <SCORE.SYSTEM.VDW>
-5.66382

>  <SCORE.SYSTEM.norm>
-2.32612

>  <SCORE.heavy>
9

>  <SCORE.norm>
-5.18417

$$$$
P129962631
 OpenBabel12072022113D
libRbt.so/2013.1/901 2013/11/27
 10 10  0  0  0  0  0  0  0  0999 V2000
    6.3201   18.8599    6.8814 C   0  0  0  0  0  0  0  0  0  0  0  0
    6.4717   19.8428    5.7551 C   0  0  0  0  0  0  0  0  0  0  0  0
    5.5304   18.6691    5.6068 C   0  0  0  0  0  0  0  0  0  0  0  0
    5.8553   17.5282    4.6782 C   0  0  2  0  0  0  0  0  0  0  0  0
    6.4690   18.2093    3.4658 C   0  0  0  0  0  0  0  0  0  0  0  0
    6.9781   18.7743    2.4600 N   0  0  0  0  0  0  0  0  0  0  0  0
    4.6351   16.8298    4.3291 N   0  0  0  0  0  0  0  0  0  0  0  0
    4.5167   16.1590    3.1443 C   0  0  0  0  0  0  0  0  0  0  0  0
    5.3640   16.1207    2.2653 O   0  0  0  0  0  0  0  0  0  0  0  0
    3.9031   16.7392    5.0216 H   0  0  0  0  0  0  0  0  0  0  0  0
  1  2  1  0  0  0  0
  1  3  1  0  0  0  0
  2  3  1  0  0  0  0
  4  5  1  6  0  0  0
  4  7  1  0  0  0  0
  4  3  1  0  0  0  0
  5  6  3  0  0  0  0
  7  8  1  0  0  0  0
  7 10  1  0  0  0  0
  8  9  2  0  0  0  0
M  END
>  <CHROM.0>
-63.01895902,-60.03383929,-65.69890799,-49.84291455,-62.85449681,-61.83966184
-69.79756851,-60.75075490,-167.90756928

>  <CHROM.1>
152.47526416,-109.83187223,5.77222202,17.85614717,4.27018813,1.19559498,0.85736437
1.17922044

>  <Name>
P129962631

>  <RI>
3.1908e+07

>  <Rbt.Current_Directory>
/home/fstefaniak/projects/zuza/docking/adenine/4XNR

>  <Rbt.Executable>
rbdock ($Id: //depot/dev/client3/rdock/2013.1/src/exe/rbdock.cxx#4 $)

>  <Rbt.Library>
libRbt.so (2013.1, Build901 2013/11/27)

>  <Rbt.Parameter_File>
/home/fstefaniak/progs/rDock//data/scripts/dock_solv.prm

>  <Rbt.Receptor>
4xnr.prm

>  <SCORE>
-46.6542

>  <SCORE.INTER>
-27.781

>  <SCORE.INTER.CONST>
1

>  <SCORE.INTER.POLAR>
-3.12645

>  <SCORE.INTER.ROT>
2

>  <SCORE.INTER.SOLV>
9.83469

>  <SCORE.INTER.VDW>
-16.3107

>  <SCORE.INTER.norm>
-3.08678

>  <SCORE.INTRA>
2.01302

>  <SCORE.INTRA.DIHEDRAL>
-1.06354

>  <SCORE.INTRA.DIHEDRAL.0>
3.74909

>  <SCORE.INTRA.POLAR>
0

>  <SCORE.INTRA.POLAR.0>
0

>  <SCORE.INTRA.REPUL>
0

>  <SCORE.INTRA.REPUL.0>
0

>  <SCORE.INTRA.SOLV>
0.347423

>  <SCORE.INTRA.SOLV.lig_0>
-12.3972

>  <SCORE.INTRA.VDW>
2.37108

>  <SCORE.INTRA.VDW.0>
-1.14106

>  <SCORE.INTRA.norm>
0.223669

>  <SCORE.RESTR>
0

>  <SCORE.RESTR.CAVITY>
0

>  <SCORE.RESTR.norm>
0

>  <SCORE.SYSTEM>
-20.8863

>  <SCORE.SYSTEM.CONST>
0

>  <SCORE.SYSTEM.DIHEDRAL>
3.9376

>  <SCORE.SYSTEM.POLAR>
-2.91283

>  <SCORE.SYSTEM.SOLV>
0.260875

>  <SCORE.SYSTEM.VDW>
-5.61421

>  <SCORE.SYSTEM.norm>
-2.32069

>  <SCORE.heavy>
9

>  <SCORE.norm>
-5.1838

$$$$
P129973817
 OpenBabel12072022113D
libRbt.so/2013.1/901 2013/11/27
 12 11  0  0  0  0  0  0  0  0999 V2000
    7.1187   18.2328    1.5861 C   0  0  0  0  0  0  0  0  0  0  0  0
    6.4952   18.2830    2.9740 C   0  0  1  0  0  0  0  0  0  0  0  0
    5.6642   17.0231    3.2168 C   0  0  0  0  0  0  0  0  0  0  0  0
    5.6616   16.0787    2.4226 O   0  0  0  0  0  0  0  0  0  0  0  0
    4.8242   16.9977    4.4666 C   0  0  0  0  0  0  0  0  0  0  0  0
    7.5057   18.3457    4.0177 N   0  0  0  0  0  0  0  0  0  0  0  0
    7.3974   19.1957    5.0701 C   0  0  0  0  0  0  0  0  0  0  0  0
    6.5428   20.0591    5.1951 O   0  0  0  0  0  0  0  0  0  0  0  0
    8.3509   18.9856    6.0089 N   0  0  0  0  0  0  0  0  0  0  0  0
    8.4252   17.9909    3.7849 H   0  0  0  0  0  0  0  0  0  0  0  0
    8.3422   18.0933    6.4808 H   0  0  0  0  0  0  0  0  0  0  0  0
    8.5094   19.7857    6.6082 H   0  0  0  0  0  0  0  0  0  0  0  0
  2  1  1  6  0  0  0
  2  3  1  0  0  0  0
  2  6  1  0  0  0  0
  3  4  2  0  0  0  0
  3  5  1  0  0  0  0
  6  7  1  0  0  0  0
  6 10  1  0  0  0  0
  7  8  2  0  0  0  0
  7  9  1  0  0  0  0
  9 11  1  0  0  0  0
  9 12  1  0  0  0  0
M  END
>  <CHROM.0>
-65.73041673,-64.91009596,-66.59019148,-49.39121607,-60.72442568,-63.29303034
-67.03859902,-177.46212188,-168.30015814

>  <CHROM.1>
7.13933286,135.69706990,-7.08512259,-63.62794367,6.63743600,18.13430669,3.90774308
-2.16789746,0.70767478,1.26843871

>  <Name>
P129973817

>  <RI>
1.00763e+07

>  <Rbt.Current_Directory>
/home/fstefaniak/projects/zuza/docking/adenine/4XNR

>  <Rbt.Executable>
rbdock ($Id: //depot/dev/client3/rdock/2013.1/src/exe/rbdock.cxx#4 $)

>  <Rbt.Library>
libRbt.so (2013.1, Build901 2013/11/27)

>  <Rbt.Parameter_File>
/home/fstefaniak/progs/rDock//data/scripts/dock_solv.prm

>  <Rbt.Receptor>
4xnr.prm

>  <SCORE>
-53.565

>  <SCORE.INTER>
-34.1928

>  <SCORE.INTER.CONST>
1

>  <SCORE.INTER.POLAR>
-5.16103

>  <SCORE.INTER.ROT>
4

>  <SCORE.INTER.SOLV>
12.9845

>  <SCORE.INTER.VDW>
-16.1866

>  <SCORE.INTER.norm>
-3.7992

>  <SCORE.INTRA>
1.44121

>  <SCORE.INTRA.DIHEDRAL>
0.35402

>  <SCORE.INTRA.DIHEDRAL.0>
3.27417

>  <SCORE.INTRA.POLAR>
0

>  <SCORE.INTRA.POLAR.0>
0

>  <SCORE.INTRA.REPUL>
0

>  <SCORE.INTRA.REPUL.0>
0

>  <SCORE.INTRA.SOLV>
0.173372

>  <SCORE.INTRA.SOLV.lig_0>
-16.0052

>  <SCORE.INTRA.VDW>
1.17752

>  <SCORE.INTRA.VDW.0>
-0.310316

>  <SCORE.INTRA.norm>
0.160135

>  <SCORE.RESTR>
0

>  <SCORE.RESTR.CAVITY>
0

>  <SCORE.RESTR.norm>
0

>  <SCORE.SYSTEM>
-20.8133

>  <SCORE.SYSTEM.CONST>
0

>  <SCORE.SYSTEM.DIHEDRAL>
4.03362

>  <SCORE.SYSTEM.POLAR>
-2.89938

>  <SCORE.SYSTEM.SOLV>
0.125501

>  <SCORE.SYSTEM.VDW>
-5.59732

>  <SCORE.SYSTEM.norm>
-2.31259

>  <SCORE.heavy>
9

>  <SCORE.norm>
-5.95166

$$$$
P129973817
 OpenBabel12072022113D
libRbt.so/2013.1/901 2013/11/27
 12 11  0  0  0  0  0  0  0  0999 V2000
    7.1472   18.2546    1.5744 C   0  0  0  0  0  0  0  0  0  0  0  0
    6.5054   18.2855    2.9545 C   0  0  1  0  0  0  0  0  0  0  0  0
    5.6921   17.0107    3.1786 C   0  0  0  0  0  0  0  0  0  0  0  0
    5.7090   16.0749    2.3745 O   0  0  0  0  0  0  0  0  0  0  0  0
    4.8446   16.9594    4.4225 C   0  0  0  0  0  0  0  0  0  0  0  0
    7.5014   18.3579    4.0114 N   0  0  0  0  0  0  0  0  0  0  0  0
    7.3884   19.2308    5.0442 C   0  0  0  0  0  0  0  0  0  0  0  0
    6.5604   20.1248    5.1255 O   0  0  0  0  0  0  0  0  0  0  0  0
    8.3033   19.0066    6.0175 N   0  0  0  0  0  0  0  0  0  0  0  0
    8.4198   17.9871    3.7995 H   0  0  0  0  0  0  0  0  0  0  0  0
    8.3244   18.0830    6.4242 H   0  0  0  0  0  0  0  0  0  0  0  0
    8.3821   19.7682    6.6796 H   0  0  0  0  0  0  0  0  0  0  0  0
  2  1  1  6  0  0  0
  2  3  1  0  0  0  0
  2  6  1  0  0  0  0
  3  4  2  0  0  0  0
  3  5  1  0  0  0  0
  6  7  1  0  0  0  0
  6 10  1  0  0  0  0
  7  8  2  0  0  0  0
  7  9  1  0  0  0  0
  9 11  1  0  0  0  0
  9 12  1  0  0  0  0
M  END
>  <CHROM.0>
-56.79401112,-66.53728044,-64.05260747,-46.26938570,-174.49126607,61.22890229
-70.00186909,-62.39718898,-167.71822790

>  <CHROM.1>
6.70595386,133.43322705,-8.71355710,-56.10072454,6.64712573,18.14568797,3.87943476
-2.16919909,0.74639940,1.27523898

>  <Name>
P129973817

>  <RI>
1.00763e+07

>  <Rbt.Current_Directory>
/home/fstefaniak/projects/zuza/docking/adenine/4XNR

>  <Rbt.Executable>
rbdock ($Id: //depot/dev/client3/rdock/2013.1/src/exe/rbdock.cxx#4 $)

>  <Rbt.Library>
libRbt.so (2013.1, Build901 2013/11/27)

>  <Rbt.Parameter_File>
/home/fstefaniak/progs/rDock//data/scripts/dock_solv.prm

>  <Rbt.Receptor>
4xnr.prm

>  <SCORE>
-52.3872

>  <SCORE.INTER>
-33.9918

>  <SCORE.INTER.CONST>
1

>  <SCORE.INTER.POLAR>
-5.16721

>  <SCORE.INTER.ROT>
4

>  <SCORE.INTER.SOLV>
13.087

>  <SCORE.INTER.VDW>
-16.0662

>  <SCORE.INTER.norm>
-3.77687

>  <SCORE.INTRA>
1.38318

>  <SCORE.INTRA.DIHEDRAL>
0.32577

>  <SCORE.INTRA.DIHEDRAL.0>
3.27417

>  <SCORE.INTRA.POLAR>
0

>  <SCORE.INTRA.POLAR.0>
0

>  <SCORE.INTRA.REPUL>
0

>  <SCORE.INTRA.REPUL.0>
0

>  <SCORE.INTRA.SOLV>
0.162879

>  <SCORE.INTRA.SOLV.lig_0>
-16.0052

>  <SCORE.INTRA.VDW>
1.13886

>  <SCORE.INTRA.VDW.0>
-0.310316

>  <SCORE.INTRA.norm>
0.153687

>  <SCORE.RESTR>
0

>  <SCORE.RESTR.CAVITY>
0

>  <SCORE.RESTR.norm>
0

>  <SCORE.SYSTEM>
-19.7786

>  <SCORE.SYSTEM.CONST>
0

>  <SCORE.SYSTEM.DIHEDRAL>
4.60992

>  <SCORE.SYSTEM.POLAR>
-3.01196

>  <SCORE.SYSTEM.SOLV>
-0.0232815

>  <SCORE.SYSTEM.VDW>
-4.67472

>  <SCORE.SYSTEM.norm>
-2.19762

>  <SCORE.heavy>
9

>  <SCORE.norm>
-5.8208

$$$$
P129973817
 OpenBabel12072022113D
libRbt.so/2013.1/901 2013/11/27
 12 11  0  0  0  0  0  0  0  0999 V2000
    5.2829   17.6329    4.3482 C   0  0  0  0  0  0  0  0  0  0  0  0
    6.3513   18.7170    4.3202 C   0  0  1  0  0  0  0  0  0  0  0  0
    7.0205   18.8233    5.6905 C   0  0  0  0  0  0  0  0  0  0  0  0
    8.2453   18.7592    5.8264 O   0  0  0  0  0  0  0  0  0  0  0  0
    6.1082   18.9866    6.8776 C   0  0  0  0  0  0  0  0  0  0  0  0
    7.3927   18.4235    3.3488 N   0  0  0  0  0  0  0  0  0  0  0  0
    7.1020   18.0596    2.0741 C   0  0  0  0  0  0  0  0  0  0  0  0
    6.6932   16.9617    1.7292 O   0  0  0  0  0  0  0  0  0  0  0  0
    7.3033   19.0637    1.1876 N   0  0  0  0  0  0  0  0  0  0  0  0
    8.3052   18.1829    3.7163 H   0  0  0  0  0  0  0  0  0  0  0  0
    6.5333   19.3010    0.5797 H   0  0  0  0  0  0  0  0  0  0  0  0
    8.2093   19.0281    0.7375 H   0  0  0  0  0  0  0  0  0  0  0  0
  2  1  1  1  0  0  0
  2  3  1  0  0  0  0
  2  6  1  0  0  0  0
  3  4  2  0  0  0  0
  3  5  1  0  0  0  0
  6  7  1  0  0  0  0
  6 10  1  0  0  0  0
  7  8  2  0  0  0  0
  7  9  1  0  0  0  0
  9 11  1  0  0  0  0
  9 12  1  0  0  0  0
M  END
>  <CHROM.0>
-57.73406379,-163.04722276,-65.45183586,-45.99125553,-177.56872044,-60.00178419
-68.18290462,-62.28512975,-167.76331118

>  <CHROM.1>
126.76026485,48.73108403,-75.37770206,-126.69426040,6.85116527,18.36995751
3.90161791,1.62842711,0.47781324,1.38634697

>  <Name>
P129973817

>  <RI>
1.00763e+07

>  <Rbt.Current_Directory>
/home/fstefaniak/projects/zuza/docking/adenine/4XNR

>  <Rbt.Executable>
rbdock ($Id: //depot/dev/client3/rdock/2013.1/src/exe/rbdock.cxx#4 $)

>  <Rbt.Library>
libRbt.so (2013.1, Build901 2013/11/27)

>  <Rbt.Parameter_File>
/home/fstefaniak/progs/rDock//data/scripts/dock_solv.prm

>  <Rbt.Receptor>
4xnr.prm

>  <SCORE>
-52.3159

>  <SCORE.INTER>
-34.9013

>  <SCORE.INTER.CONST>
1

>  <SCORE.INTER.POLAR>
-5.00872

>  <SCORE.INTER.ROT>
4

>  <SCORE.INTER.SOLV>
13.8409

>  <SCORE.INTER.VDW>
-17.4521

>  <SCORE.INTER.norm>
-3.87792

>  <SCORE.INTRA>
2.87431

>  <SCORE.INTRA.DIHEDRAL>
-0.244418

>  <SCORE.INTRA.DIHEDRAL.0>
3.27417

>  <SCORE.INTRA.POLAR>
0

>  <SCORE.INTRA.POLAR.0>
0

>  <SCORE.INTRA.REPUL>
0

>  <SCORE.INTRA.REPUL.0>
0

>  <SCORE.INTRA.SOLV>
0.0750406

>  <SCORE.INTRA.SOLV.lig_0>
-16.0052

>  <SCORE.INTRA.VDW>
2.959

>  <SCORE.INTRA.VDW.0>
-0.310316

>  <SCORE.INTRA.norm>
0.319368

>  <SCORE.RESTR>
0

>  <SCORE.RESTR.CAVITY>
0

>  <SCORE.RESTR.norm>
0

>  <SCORE.SYSTEM>
-20.2889

>  <SCORE.SYSTEM.CONST>
0

>  <SCORE.SYSTEM.DIHEDRAL>
5.50475

>  <SCORE.SYSTEM.POLAR>
-3.00714

>  <SCORE.SYSTEM.SOLV>
0.0841099

>  <SCORE.SYSTEM.VDW>
-5.3651

>  <SCORE.SYSTEM.norm>
-2.25432

>  <SCORE.heavy>
9

>  <SCORE.norm>
-5.81288

$$$$
P130426551
 OpenBabel12072022113D
libRbt.so/2013.1/901 2013/11/27
 15 16  0  0  0  0  0  0  0  0999 V2000
    2.7157   12.6485    2.0916 C   0  0  0  0  0  0  0  0  0  0  0  0
    2.5106   12.5947    3.6113 C   0  0  2  0  0  0  0  0  0  0  0  0
    1.1132   12.0400    3.9337 C   0  0  0  0  0  0  0  0  0  0  0  0
    0.1970   13.2537    4.1086 C   0  0  0  0  0  0  0  0  0  0  0  0
    1.0917   14.4926    4.0520 C   0  0  0  0  0  0  0  0  0  0  0  0
    2.5123   13.9785    4.2949 C   0  0  2  0  0  0  0  0  0  0  0  0
    3.6247   14.8828    3.8821 C   0  0  0  0  0  0  0  0  0  0  0  0
    3.3125   15.9126    3.0598 N   0  0  0  0  0  0  0  0  0  0  0  0
    4.4756   16.1849    2.4357 N   0  5  0  0  0  0  0  0  0  0  0  0
    5.4302   15.3333    2.8718 N   0  0  0  0  0  0  0  0  0  0  0  0
    4.8974   14.4725    3.7659 N   0  0  0  0  0  0  0  0  0  0  0  0
    2.6821   13.7766    5.7967 N   0  3  0  0  0  0  0  0  0  0  0  0
    3.6889   13.5524    5.9136 H   0  0  0  0  0  0  0  0  0  0  0  0
    2.5978   14.6994    6.2445 H   0  0  0  0  0  0  0  0  0  0  0  0
    2.0909   13.0772    6.2387 H   0  0  0  0  0  0  0  0  0  0  0  0
  2  3  1  0  0  0  0
  2  6  1  0  0  0  0
  2  1  1  6  0  0  0
  3  4  1  0  0  0  0
  4  5  1  0  0  0  0
  5  6  1  0  0  0  0
  6 12  1  1  0  0  0
  6  7  1  0  0  0  0
  7  8  2  0  0  0  0
  7 11  1  0  0  0  0
  8  9  1  0  0  0  0
  9 10  1  0  0  0  0
 10 11  2  0  0  0  0
 12 13  1  0  0  0  0
 12 14  1  0  0  0  0
 12 15  1  0  0  0  0
M  CHG  2   9  -1  12   1
M  END
>  <CHROM.0>
-59.93559058,-176.67191923,-65.13290464,-48.50053382,-59.18107428,58.25287972
-69.87680397,-57.78141946,-167.74467716

>  <CHROM.1>
76.06281708,105.81648483,2.87459819,14.11696846,3.68392855,-3.00410148,0.66990944
0.94141491

>  <Name>
P130426551

>  <RI>
3.02409e+07

>  <Rbt.Current_Directory>
/home/fstefaniak/projects/zuza/docking/adenine/4XNR

>  <Rbt.Executable>
rbdock ($Id: //depot/dev/client3/rdock/2013.1/src/exe/rbdock.cxx#4 $)

>  <Rbt.Library>
libRbt.so (2013.1, Build901 2013/11/27)

>  <Rbt.Parameter_File>
/home/fstefaniak/progs/rDock//data/scripts/dock_solv.prm

>  <Rbt.Receptor>
4xnr.prm

>  <SCORE>
-38.6722

>  <SCORE.INTER>
-19.4606

>  <SCORE.INTER.CONST>
1

>  <SCORE.INTER.POLAR>
-3.88144

>  <SCORE.INTER.ROT>
1

>  <SCORE.INTER.SOLV>
16.8011

>  <SCORE.INTER.VDW>
-9.90265

>  <SCORE.INTER.norm>
-1.62172

>  <SCORE.INTRA>
0.371203

>  <SCORE.INTRA.DIHEDRAL>
-0.0239626

>  <SCORE.INTRA.DIHEDRAL.0>
0.964793

>  <SCORE.INTRA.POLAR>
0.19666

>  <SCORE.INTRA.POLAR.0>
-0.19666

>  <SCORE.INTRA.REPUL>
0

>  <SCORE.INTRA.REPUL.0>
0

>  <SCORE.INTRA.SOLV>
-0.913553

>  <SCORE.INTRA.SOLV.lig_0>
-25.1069

>  <SCORE.INTRA.VDW>
0.171318

>  <SCORE.INTRA.VDW.0>
-0.980818

>  <SCORE.INTRA.norm>
0.0309336

>  <SCORE.RESTR>
0.0513234

>  <SCORE.RESTR.CAVITY>
0.0513234

>  <SCORE.RESTR.norm>
0.00427695

>  <SCORE.SYSTEM>
-19.6341

>  <SCORE.SYSTEM.CONST>
0

>  <SCORE.SYSTEM.DIHEDRAL>
4.06195

>  <SCORE.SYSTEM.POLAR>
-2.9561

>  <SCORE.SYSTEM.SOLV>
0.128456

>  <SCORE.SYSTEM.VDW>
-4.63255

>  <SCORE.SYSTEM.norm>
-1.63618

>  <SCORE.heavy>
12

>  <SCORE.norm>
-3.22268

$$$$
P130426551
 OpenBabel12072022113D
libRbt.so/2013.1/901 2013/11/27
 15 16  0  0  0  0  0  0  0  0999 V2000
    4.3074   17.0796    4.3050 C   0  0  0  0  0  0  0  0  0  0  0  0
    5.6963   17.2640    4.9307 C   0  0  2  0  0  0  0  0  0  0  0  0
    5.5578   17.6663    6.4083 C   0  0  0  0  0  0  0  0  0  0  0  0
    5.6173   19.1954    6.4465 C   0  0  0  0  0  0  0  0  0  0  0  0
    5.9527   19.6586    5.0282 C   0  0  0  0  0  0  0  0  0  0  0  0
    6.5118   18.4230    4.3195 C   0  0  2  0  0  0  0  0  0  0  0  0
    6.5273   18.4637    2.8283 C   0  0  0  0  0  0  0  0  0  0  0  0
    6.6148   17.2791    2.1776 N   0  0  0  0  0  0  0  0  0  0  0  0
    7.1523   17.6095    0.9867 N   0  5  0  0  0  0  0  0  0  0  0  0
    7.3813   18.9411    0.9505 N   0  0  0  0  0  0  0  0  0  0  0  0
    7.0240   19.4960    2.1289 N   0  0  0  0  0  0  0  0  0  0  0  0
    7.9686   18.2656    4.7417 N   0  3  0  0  0  0  0  0  0  0  0  0
    8.3166   19.2394    4.8320 H   0  0  0  0  0  0  0  0  0  0  0  0
    7.9742   17.9275    5.7137 H   0  0  0  0  0  0  0  0  0  0  0  0
    8.5678   17.7105    4.1361 H   0  0  0  0  0  0  0  0  0  0  0  0
  2  3  1  0  0  0  0
  2  6  1  0  0  0  0
  2  1  1  6  0  0  0
  3  4  1  0  0  0  0
  4  5  1  0  0  0  0
  5  6  1  0  0  0  0
  6 12  1  1  0  0  0
  6  7  1  0  0  0  0
  7  8  2  0  0  0  0
  7 11  1  0  0  0  0
  8  9  1  0  0  0  0
  9 10  1  0  0  0  0
 10 11  2  0  0  0  0
 12 13  1  0  0  0  0
 12 14  1  0  0  0  0
 12 15  1  0  0  0  0
M  CHG  2   9  -1  12   1
M  END
>  <CHROM.0>
-54.27158905,47.12582965,-57.48804038,-46.93673199,-57.77831332,-170.09524219
-68.70049823,-56.54811992,-168.27116647

>  <CHROM.1>
-146.77961532,-39.17066621,6.38138702,18.27362588,3.79321859,2.06613099,0.81188466
1.22054918

>  <Name>
P130426551

>  <RI>
3.02409e+07

>  <Rbt.Current_Directory>
/home/fstefaniak/projects/zuza/docking/adenine/4XNR

>  <Rbt.Executable>
rbdock ($Id: //depot/dev/client3/rdock/2013.1/src/exe/rbdock.cxx#4 $)

>  <Rbt.Library>
libRbt.so (2013.1, Build901 2013/11/27)

>  <Rbt.Parameter_File>
/home/fstefaniak/progs/rDock//data/scripts/dock_solv.prm

>  <Rbt.Receptor>
4xnr.prm

>  <SCORE>
-38.545

>  <SCORE.INTER>
-21.1147

>  <SCORE.INTER.CONST>
1

>  <SCORE.INTER.POLAR>
-4.75059

>  <SCORE.INTER.ROT>
1

>  <SCORE.INTER.SOLV>
20.1519

>  <SCORE.INTER.VDW>
-9.22516

>  <SCORE.INTER.norm>
-1.75956

>  <SCORE.INTRA>
2.01888

>  <SCORE.INTRA.DIHEDRAL>
0.879279

>  <SCORE.INTRA.DIHEDRAL.0>
0.964793

>  <SCORE.INTRA.POLAR>
0.19666

>  <SCORE.INTRA.POLAR.0>
-0.19666

>  <SCORE.INTRA.REPUL>
0

>  <SCORE.INTRA.REPUL.0>
0

>  <SCORE.INTRA.SOLV>
-0.201145

>  <SCORE.INTRA.SOLV.lig_0>
-25.1069

>  <SCORE.INTRA.VDW>
1.01117

>  <SCORE.INTRA.VDW.0>
-0.980818

>  <SCORE.INTRA.norm>
0.16824

>  <SCORE.RESTR>
0

>  <SCORE.RESTR.CAVITY>
0

>  <SCORE.RESTR.norm>
0

>  <SCORE.SYSTEM>
-19.4491

>  <SCORE.SYSTEM.CONST>
0

>  <SCORE.SYSTEM.DIHEDRAL>
5.3334

>  <SCORE.SYSTEM.POLAR>
-3.10097

>  <SCORE.SYSTEM.SOLV>
0.314184

>  <SCORE.SYSTEM.VDW>
-4.51204

>  <SCORE.SYSTEM.norm>
-1.62076

>  <SCORE.heavy>
12

>  <SCORE.norm>
-3.21208

$$$$
P130426551
 OpenBabel12072022113D
libRbt.so/2013.1/901 2013/11/27
 15 16  0  0  0  0  0  0  0  0999 V2000
    4.3041   17.0761    4.3257 C   0  0  0  0  0  0  0  0  0  0  0  0
    5.6978   17.2621    4.9401 C   0  0  2  0  0  0  0  0  0  0  0  0
    5.5711   17.6535    6.4217 C   0  0  0  0  0  0  0  0  0  0  0  0
    5.6244   19.1825    6.4700 C   0  0  0  0  0  0  0  0  0  0  0  0
    5.9450   19.6570    5.0520 C   0  0  0  0  0  0  0  0  0  0  0  0
    6.5029   18.4288    4.3296 C   0  0  2  0  0  0  0  0  0  0  0  0
    6.5046   18.4799    2.8387 C   0  0  0  0  0  0  0  0  0  0  0  0
    6.5677   17.2988    2.1789 N   0  0  0  0  0  0  0  0  0  0  0  0
    7.0987   17.6296    0.9852 N   0  5  0  0  0  0  0  0  0  0  0  0
    7.3476   18.9578    0.9560 N   0  0  0  0  0  0  0  0  0  0  0  0
    7.0102   19.5095    2.1418 N   0  0  0  0  0  0  0  0  0  0  0  0
    7.9641   18.2748    4.7376 N   0  3  0  0  0  0  0  0  0  0  0  0
    8.3160   19.2489    4.8050 H   0  0  0  0  0  0  0  0  0  0  0  0
    7.9802   17.9553    5.7158 H   0  0  0  0  0  0  0  0  0  0  0  0
    8.5543   17.7062    4.1356 H   0  0  0  0  0  0  0  0  0  0  0  0
  2  3  1  0  0  0  0
  2  6  1  0  0  0  0
  2  1  1  6  0  0  0
  3  4  1  0  0  0  0
  4  5  1  0  0  0  0
  5  6  1  0  0  0  0
  6 12  1  1  0  0  0
  6  7  1  0  0  0  0
  7  8  2  0  0  0  0
  7 11  1  0  0  0  0
  8  9  1  0  0  0  0
  9 10  1  0  0  0  0
 10 11  2  0  0  0  0
 12 13  1  0  0  0  0
 12 14  1  0  0  0  0
 12 15  1  0  0  0  0
M  CHG  2   9  -1  12   1
M  END
>  <CHROM.0>
-54.29747303,-62.49376831,59.17373092,-49.36823178,-174.33889104,-64.11861923
53.97794172,-61.21747914,-168.16559499

>  <CHROM.1>
-148.34406570,-38.05382137,6.36716486,18.27929060,3.80341606,2.05169472,0.81395317
1.23739566

>  <Name>
P130426551

>  <RI>
3.02409e+07

>  <Rbt.Current_Directory>
/home/fstefaniak/projects/zuza/docking/adenine/4XNR

>  <Rbt.Executable>
rbdock ($Id: //depot/dev/client3/rdock/2013.1/src/exe/rbdock.cxx#4 $)

>  <Rbt.Library>
libRbt.so (2013.1, Build901 2013/11/27)

>  <Rbt.Parameter_File>
/home/fstefaniak/progs/rDock//data/scripts/dock_solv.prm

>  <Rbt.Receptor>
4xnr.prm

>  <SCORE>
-38.4828

>  <SCORE.INTER>
-21.3921

>  <SCORE.INTER.CONST>
1

>  <SCORE.INTER.POLAR>
-4.70934

>  <SCORE.INTER.ROT>
1

>  <SCORE.INTER.SOLV>
20.1056

>  <SCORE.INTER.VDW>
-9.5321

>  <SCORE.INTER.norm>
-1.78267

>  <SCORE.INTRA>
1.90929

>  <SCORE.INTRA.DIHEDRAL>
0.750401

>  <SCORE.INTRA.DIHEDRAL.0>
0.964793

>  <SCORE.INTRA.POLAR>
0.19666

>  <SCORE.INTRA.POLAR.0>
-0.19666

>  <SCORE.INTRA.REPUL>
0

>  <SCORE.INTRA.REPUL.0>
0

>  <SCORE.INTRA.SOLV>
-0.215271

>  <SCORE.INTRA.SOLV.lig_0>
-25.1069

>  <SCORE.INTRA.VDW>
0.973083

>  <SCORE.INTRA.VDW.0>
-0.980818

>  <SCORE.INTRA.norm>
0.159108

>  <SCORE.RESTR>
0

>  <SCORE.RESTR.CAVITY>
0

>  <SCORE.RESTR.norm>
0

>  <SCORE.SYSTEM>
-19.0001

>  <SCORE.SYSTEM.CONST>
0

>  <SCORE.SYSTEM.DIHEDRAL>
3.85648

>  <SCORE.SYSTEM.POLAR>
-2.96795

>  <SCORE.SYSTEM.SOLV>
0.00993824

>  <SCORE.SYSTEM.VDW>
-4.06234

>  <SCORE.SYSTEM.norm>
-1.58334

>  <SCORE.heavy>
12

>  <SCORE.norm>
-3.2069

$$$$
P130489237
 OpenBabel12072022113D
libRbt.so/2013.1/901 2013/11/27
 16 16  0  0  0  0  0  0  0  0999 V2000
    3.8259   10.6939    7.8774 C   0  0  0  0  0  0  0  0  0  0  0  0
    3.4868   10.2913    6.4451 C   0  0  0  0  0  0  0  0  0  0  0  0
    3.7436   11.3514    5.4458 N   0  0  0  0  0  0  0  0  0  0  0  0
    3.4453   10.8797    4.0853 C   0  0  0  0  0  0  0  0  0  0  0  0
    3.6938   11.8803    2.9495 C   0  0  0  0  0  0  0  0  0  0  0  0
    2.6433   12.9857    2.8761 C   0  0  0  0  0  0  0  0  0  0  0  0
    2.9009   14.1716    3.8155 C   0  0  2  0  0  0  0  0  0  0  0  0
    3.5572   13.8165    5.1532 C   0  0  0  0  0  0  0  0  0  0  0  0
    2.9972   12.5639    5.8263 C   0  0  0  0  0  0  0  0  0  0  0  0
    1.5616   14.9188    4.0459 C   0  0  0  0  0  0  0  0  0  0  0  0
    1.4333   16.1380    4.0521 O   0  0  0  0  0  0  0  0  0  0  0  0
    0.4894   14.1005    4.2791 N   0  0  0  0  0  0  0  0  0  0  0  0
    3.7726   15.0899    3.1202 O   0  0  0  0  0  0  0  0  0  0  0  0
   -0.4307   14.4028    3.9783 H   0  0  0  0  0  0  0  0  0  0  0  0
    0.5631   13.4284    5.0303 H   0  0  0  0  0  0  0  0  0  0  0  0
    4.4855   14.5584    2.7222 H   0  0  0  0  0  0  0  0  0  0  0  0
  1  2  1  0  0  0  0
  2  3  1  0  0  0  0
  3  4  1  0  0  0  0
  3  9  1  0  0  0  0
  4  5  1  0  0  0  0
  5  6  1  0  0  0  0
  6  7  1  0  0  0  0
  7  8  1  0  0  0  0
  7 10  1  1  0  0  0
  7 13  1  0  0  0  0
  8  9  1  0  0  0  0
 10 11  2  0  0  0  0
 10 12  1  0  0  0  0
 12 14  1  0  0  0  0
 12 15  1  0  0  0  0
 13 16  1  0  0  0  0
M  END
>  <CHROM.0>
-58.58224197,-175.91568927,59.89852350,-45.39220296,-60.53125120,-61.96096152
52.96522660,-59.06654727,-168.66380282

>  <CHROM.1>
177.80083525,-137.32267704,-45.89042084,-148.98512840,2.88004151,13.01892804
4.61241407,0.97930960,-0.97178242,2.08381865

>  <Name>
P130489237

>  <RI>
1.34432e+07

>  <Rbt.Current_Directory>
/home/fstefaniak/projects/zuza/docking/adenine/4XNR

>  <Rbt.Executable>
rbdock ($Id: //depot/dev/client3/rdock/2013.1/src/exe/rbdock.cxx#4 $)

>  <Rbt.Library>
libRbt.so (2013.1, Build901 2013/11/27)

>  <Rbt.Parameter_File>
/home/fstefaniak/progs/rDock//data/scripts/dock_solv.prm

>  <Rbt.Receptor>
4xnr.prm

>  <SCORE>
-38.8564

>  <SCORE.INTER>
-22.3675

>  <SCORE.INTER.CONST>
1

>  <SCORE.INTER.POLAR>
-3.19819

>  <SCORE.INTER.ROT>
3

>  <SCORE.INTER.SOLV>
10.0094

>  <SCORE.INTER.VDW>
-13.1875

>  <SCORE.INTER.norm>
-1.72058

>  <SCORE.INTRA>
1.70939

>  <SCORE.INTRA.DIHEDRAL>
1.25051

>  <SCORE.INTRA.DIHEDRAL.0>
1.75399

>  <SCORE.INTRA.POLAR>
0.00139688

>  <SCORE.INTRA.POLAR.0>
-0.00139688

>  <SCORE.INTRA.REPUL>
0

>  <SCORE.INTRA.REPUL.0>
0

>  <SCORE.INTRA.SOLV>
-0.192134

>  <SCORE.INTRA.SOLV.lig_0>
-14.8658

>  <SCORE.INTRA.VDW>
1.17546

>  <SCORE.INTRA.VDW.0>
1.19279

>  <SCORE.INTRA.norm>
0.131492

>  <SCORE.RESTR>
0.537838

>  <SCORE.RESTR.CAVITY>
0.537838

>  <SCORE.RESTR.norm>
0.0413721

>  <SCORE.SYSTEM>
-18.7361

>  <SCORE.SYSTEM.CONST>
0

>  <SCORE.SYSTEM.DIHEDRAL>
4.01753

>  <SCORE.SYSTEM.POLAR>
-2.98127

>  <SCORE.SYSTEM.SOLV>
0.169979

>  <SCORE.SYSTEM.VDW>
-3.949

>  <SCORE.SYSTEM.norm>
-1.44124

>  <SCORE.heavy>
13

>  <SCORE.norm>
-2.98895

$$$$
P130489237
 OpenBabel12072022113D
libRbt.so/2013.1/901 2013/11/27
 16 16  0  0  0  0  0  0  0  0999 V2000
    2.5318   11.1057    4.8293 C   0  0  0  0  0  0  0  0  0  0  0  0
    2.9491   12.4527    5.4124 C   0  0  0  0  0  0  0  0  0  0  0  0
    2.8970   13.5693    4.4434 N   0  0  0  0  0  0  0  0  0  0  0  0
    1.6841   14.3787    4.6335 C   0  0  0  0  0  0  0  0  0  0  0  0
    1.4973   15.5590    3.6716 C   0  0  0  0  0  0  0  0  0  0  0  0
    2.4200   16.7373    3.9731 C   0  0  0  0  0  0  0  0  0  0  0  0
    3.8235   16.6184    3.3637 C   0  0  2  0  0  0  0  0  0  0  0  0
    4.3861   15.1957    3.2881 C   0  0  0  0  0  0  0  0  0  0  0  0
    4.1453   14.3471    4.5362 C   0  0  0  0  0  0  0  0  0  0  0  0
    4.7847   17.5442    4.1538 C   0  0  0  0  0  0  0  0  0  0  0  0
    4.7211   17.7518    5.3603 O   0  0  0  0  0  0  0  0  0  0  0  0
    5.7330   18.1640    3.3855 N   0  0  0  0  0  0  0  0  0  0  0  0
    3.7550   17.1436    2.0197 O   0  0  0  0  0  0  0  0  0  0  0  0
    6.2443   17.6153    2.7030 H   0  0  0  0  0  0  0  0  0  0  0  0
    6.1492   19.0128    3.7429 H   0  0  0  0  0  0  0  0  0  0  0  0
    3.4528   18.0671    2.0909 H   0  0  0  0  0  0  0  0  0  0  0  0
  1  2  1  0  0  0  0
  2  3  1  0  0  0  0
  3  4  1  0  0  0  0
  3  9  1  0  0  0  0
  4  5  1  0  0  0  0
  5  6  1  0  0  0  0
  6  7  1  0  0  0  0
  7  8  1  0  0  0  0
  7 10  1  1  0  0  0
  7 13  1  0  0  0  0
  8  9  1  0  0  0  0
 10 11  2  0  0  0  0
 10 12  1  0  0  0  0
 12 14  1  0  0  0  0
 12 15  1  0  0  0  0
 13 16  1  0  0  0  0
M  END
>  <CHROM.0>
-59.55481956,-173.03735887,-65.89596998,-49.68908570,-59.78673762,-62.24350689
-69.54140065,-55.17770056,-167.61990241

>  <CHROM.1>
101.05852128,35.63664848,58.81000781,-46.13255291,3.50880993,15.45730175
4.06503909,-1.97698141,-0.35369154,-0.38215613

>  <Name>
P130489237

>  <RI>
1.34432e+07

>  <Rbt.Current_Directory>
/home/fstefaniak/projects/zuza/docking/adenine/4XNR

>  <Rbt.Executable>
rbdock ($Id: //depot/dev/client3/rdock/2013.1/src/exe/rbdock.cxx#4 $)

>  <Rbt.Library>
libRbt.so (2013.1, Build901 2013/11/27)

>  <Rbt.Parameter_File>
/home/fstefaniak/progs/rDock//data/scripts/dock_solv.prm

>  <Rbt.Receptor>
4xnr.prm

>  <SCORE>
-32.8251

>  <SCORE.INTER>
-12.1816

>  <SCORE.INTER.CONST>
1

>  <SCORE.INTER.POLAR>
-1.80899

>  <SCORE.INTER.ROT>
3

>  <SCORE.INTER.SOLV>
11.319

>  <SCORE.INTER.VDW>
-11.4641

>  <SCORE.INTER.norm>
-0.937045

>  <SCORE.INTRA>
-0.0611529

>  <SCORE.INTRA.DIHEDRAL>
2.81876

>  <SCORE.INTRA.DIHEDRAL.0>
1.75399

>  <SCORE.INTRA.POLAR>
0.00139688

>  <SCORE.INTRA.POLAR.0>
-0.00139688

>  <SCORE.INTRA.REPUL>
0

>  <SCORE.INTRA.REPUL.0>
0

>  <SCORE.INTRA.SOLV>
0.0444164

>  <SCORE.INTRA.SOLV.lig_0>
-14.8658

>  <SCORE.INTRA.VDW>
-1.49749

>  <SCORE.INTRA.VDW.0>
1.19279

>  <SCORE.INTRA.norm>
-0.00470407

>  <SCORE.RESTR>
0.0369028

>  <SCORE.RESTR.CAVITY>
0.0369028

>  <SCORE.RESTR.norm>
0.00283868

>  <SCORE.SYSTEM>
-20.6192

>  <SCORE.SYSTEM.CONST>
0

>  <SCORE.SYSTEM.DIHEDRAL>
4.2337

>  <SCORE.SYSTEM.POLAR>
-2.94275

>  <SCORE.SYSTEM.SOLV>
0.250553

>  <SCORE.SYSTEM.VDW>
-5.43174

>  <SCORE.SYSTEM.norm>
-1.5861

>  <SCORE.heavy>
13

>  <SCORE.norm>
-2.52501

$$$$
P130489237
 OpenBabel12072022113D
libRbt.so/2013.1/901 2013/11/27
 16 16  0  0  0  0  0  0  0  0999 V2000
    2.6406   11.0898    4.8882 C   0  0  0  0  0  0  0  0  0  0  0  0
    2.9233   12.4664    5.4828 C   0  0  0  0  0  0  0  0  0  0  0  0
    2.8852   13.5671    4.4952 N   0  0  0  0  0  0  0  0  0  0  0  0
    1.6752   14.3860    4.6619 C   0  0  0  0  0  0  0  0  0  0  0  0
    1.5025   15.5512    3.6794 C   0  0  0  0  0  0  0  0  0  0  0  0
    2.4292   16.7294    3.9690 C   0  0  0  0  0  0  0  0  0  0  0  0
    3.8369   16.5931    3.3732 C   0  0  2  0  0  0  0  0  0  0  0  0
    4.3923   15.1664    3.3256 C   0  0  0  0  0  0  0  0  0  0  0  0
    4.1369   14.3397    4.5854 C   0  0  0  0  0  0  0  0  0  0  0  0
    4.7967   17.5267    4.1558 C   0  0  0  0  0  0  0  0  0  0  0  0
    4.7403   17.7343    5.3627 O   0  0  0  0  0  0  0  0  0  0  0  0
    5.7343   18.1536    3.3803 N   0  0  0  0  0  0  0  0  0  0  0  0
    3.7822   17.0964    2.0203 O   0  0  0  0  0  0  0  0  0  0  0  0
    6.1530   19.0131    3.7186 H   0  0  0  0  0  0  0  0  0  0  0  0
    5.7221   17.9727    2.3860 H   0  0  0  0  0  0  0  0  0  0  0  0
    3.5509   18.0411    2.0780 H   0  0  0  0  0  0  0  0  0  0  0  0
  1  2  1  0  0  0  0
  2  3  1  0  0  0  0
  3  4  1  0  0  0  0
  3  9  1  0  0  0  0
  4  5  1  0  0  0  0
  5  6  1  0  0  0  0
  6  7  1  0  0  0  0
  7  8  1  0  0  0  0
  7 10  1  1  0  0  0
  7 13  1  0  0  0  0
  8  9  1  0  0  0  0
 10 11  2  0  0  0  0
 10 12  1  0  0  0  0
 12 14  1  0  0  0  0
 12 15  1  0  0  0  0
 13 16  1  0  0  0  0
M  END
>  <CHROM.0>
-55.06646689,-171.33577172,-63.76062051,-45.24489695,-54.63648337,-171.49837571
-68.59533091,-53.62507391,-167.92135973

>  <CHROM.1>
106.90238537,37.12234688,63.06245968,157.05945162,3.51844276,15.44619417
4.08663437,-1.97183564,-0.36154478,-0.39633771

>  <Name>
P130489237

>  <RI>
1.34432e+07

>  <Rbt.Current_Directory>
/home/fstefaniak/projects/zuza/docking/adenine/4XNR

>  <Rbt.Executable>
rbdock ($Id: //depot/dev/client3/rdock/2013.1/src/exe/rbdock.cxx#4 $)

>  <Rbt.Library>
libRbt.so (2013.1, Build901 2013/11/27)

>  <Rbt.Parameter_File>
/home/fstefaniak/progs/rDock//data/scripts/dock_solv.prm

>  <Rbt.Receptor>
4xnr.prm

>  <SCORE>
-31.9223

>  <SCORE.INTER>
-11.9343

>  <SCORE.INTER.CONST>
1

>  <SCORE.INTER.POLAR>
-1.77158

>  <SCORE.INTER.ROT>
3

>  <SCORE.INTER.SOLV>
11.4448

>  <SCORE.INTER.VDW>
-11.4659

>  <SCORE.INTER.norm>
-0.918022

>  <SCORE.INTRA>
0.220268

>  <SCORE.INTRA.DIHEDRAL>
3.32435

>  <SCORE.INTRA.DIHEDRAL.0>
1.75399

>  <SCORE.INTRA.POLAR>
0.00139688

>  <SCORE.INTRA.POLAR.0>
-0.00139688

>  <SCORE.INTRA.REPUL>
0

>  <SCORE.INTRA.REPUL.0>
0

>  <SCORE.INTRA.SOLV>
0.106301

>  <SCORE.INTRA.SOLV.lig_0>
-14.8658

>  <SCORE.INTRA.VDW>
-1.49981

>  <SCORE.INTRA.VDW.0>
1.19279

>  <SCORE.INTRA.norm>
0.0169437

>  <SCORE.RESTR>
0

>  <SCORE.RESTR.CAVITY>
0

>  <SCORE.RESTR.norm>
0

>  <SCORE.SYSTEM>
-20.2083

>  <SCORE.SYSTEM.CONST>
0

>  <SCORE.SYSTEM.DIHEDRAL>
5.27305

>  <SCORE.SYSTEM.POLAR>
-3.07064

>  <SCORE.SYSTEM.SOLV>
0.16714

>  <SCORE.SYSTEM.VDW>
-5.05013

>  <SCORE.SYSTEM.norm>
-1.55449

>  <SCORE.heavy>
13

>  <SCORE.norm>
-2.45556

$$$$
P130754868
 OpenBabel12072022113D
libRbt.so/2013.1/901 2013/11/27
 15 15  0  0  0  0  0  0  0  0999 V2000
    5.9260   18.6974    5.1337 C   0  0  0  0  0  0  0  0  0  0  0  0
    7.1314   18.5490    4.2228 C   0  0  0  0  0  0  0  0  0  0  0  0
    6.5957   17.8304    2.9872 C   0  0  0  0  0  0  0  0  0  0  0  0
    5.3300   17.0910    3.4383 C   0  0  0  0  0  0  0  0  0  0  0  0
    5.1787   17.3877    4.9310 C   0  0  0  0  0  0  0  0  0  0  0  0
    4.1265   17.6037    2.6835 C   0  0  0  0  0  0  0  0  0  0  0  0
    4.1817   17.7958    1.4058 N   0  0  0  0  0  0  0  0  0  0  0  0
    2.9517   18.2730    0.9367 N   0  0  0  0  0  0  0  0  0  0  0  0
    3.0627   18.8689   -0.2069 C   0  0  0  0  0  0  0  0  0  0  0  0
    4.2096   19.0181   -0.9134 N   0  0  0  0  0  0  0  0  0  0  0  0
    2.0170   19.4300   -0.8543 N   0  0  0  0  0  0  0  0  0  0  0  0
    4.5609   18.0797   -1.1031 H   0  0  0  0  0  0  0  0  0  0  0  0
    4.8967   19.5512   -0.3961 H   0  0  0  0  0  0  0  0  0  0  0  0
    2.3156   20.2390   -1.3882 H   0  0  0  0  0  0  0  0  0  0  0  0
    1.2642   19.6648   -0.2189 H   0  0  0  0  0  0  0  0  0  0  0  0
  1  2  1  0  0  0  0
  1  5  1  0  0  0  0
  2  3  1  0  0  0  0
  3  4  1  0  0  0  0
  4  5  1  0  0  0  0
  4  6  1  0  0  0  0
  6  7  2  0  0  0  0
  7  8  1  0  0  0  0
  8  9  2  0  0  0  0
  9 10  1  0  0  0  0
  9 11  1  0  0  0  0
 10 12  1  0  0  0  0
 10 13  1  0  0  0  0
 11 14  1  0  0  0  0
 11 15  1  0  0  0  0
M  END
>  <CHROM.0>
-55.88188970,-63.82356484,-64.40963433,-46.14666187,-55.59263968,-176.25260925
-67.86096355,-173.34409998,-167.90592639

>  <CHROM.1>
44.59578367,159.62632154,59.26833362,147.97163081,4.59412773,18.26451114
2.10383937,0.99446715,0.17820902,1.88907571

>  <Name>
P130754868

>  <RI>
9.71178e+06

>  <Rbt.Current_Directory>
/home/fstefaniak/projects/zuza/docking/adenine/4XNR

>  <Rbt.Executable>
rbdock ($Id: //depot/dev/client3/rdock/2013.1/src/exe/rbdock.cxx#4 $)

>  <Rbt.Library>
libRbt.so (2013.1, Build901 2013/11/27)

>  <Rbt.Parameter_File>
/home/fstefaniak/progs/rDock//data/scripts/dock_solv.prm

>  <Rbt.Receptor>
4xnr.prm

>  <SCORE>
-51.0211

>  <SCORE.INTER>
-31.8367

>  <SCORE.INTER.CONST>
1

>  <SCORE.INTER.POLAR>
-4.26058

>  <SCORE.INTER.ROT>
4

>  <SCORE.INTER.SOLV>
14.5603

>  <SCORE.INTER.VDW>
-18.1427

>  <SCORE.INTER.norm>
-2.89425

>  <SCORE.INTRA>
1.37454

>  <SCORE.INTRA.DIHEDRAL>
0.865265

>  <SCORE.INTRA.DIHEDRAL.0>
2.01532

>  <SCORE.INTRA.POLAR>
0.198813

>  <SCORE.INTRA.POLAR.0>
-0.198813

>  <SCORE.INTRA.REPUL>
0

>  <SCORE.INTRA.REPUL.0>
0

>  <SCORE.INTRA.SOLV>
0.044849

>  <SCORE.INTRA.SOLV.lig_0>
-10.8406

>  <SCORE.INTRA.VDW>
0.243523

>  <SCORE.INTRA.VDW.0>
-0.710625

>  <SCORE.INTRA.norm>
0.124958

>  <SCORE.RESTR>
0

>  <SCORE.RESTR.CAVITY>
0

>  <SCORE.RESTR.norm>
0

>  <SCORE.SYSTEM>
-20.559

>  <SCORE.SYSTEM.CONST>
0

>  <SCORE.SYSTEM.DIHEDRAL>
4.52729

>  <SCORE.SYSTEM.POLAR>
-3.03031

>  <SCORE.SYSTEM.SOLV>
0.0486506

>  <SCORE.SYSTEM.VDW>
-5.13027

>  <SCORE.SYSTEM.norm>
-1.869

>  <SCORE.heavy>
11

>  <SCORE.norm>
-4.63829

$$$$
P130754868
 OpenBabel12072022113D
libRbt.so/2013.1/901 2013/11/27
 15 15  0  0  0  0  0  0  0  0999 V2000
    6.2466   17.8664    4.4298 C   0  0  0  0  0  0  0  0  0  0  0  0
    6.9367   18.0671    3.0925 C   0  0  0  0  0  0  0  0  0  0  0  0
    5.8258   17.9106    2.0574 C   0  0  0  0  0  0  0  0  0  0  0  0
    4.7273   17.0796    2.7320 C   0  0  0  0  0  0  0  0  0  0  0  0
    5.2429   16.7614    4.1362 C   0  0  0  0  0  0  0  0  0  0  0  0
    3.4466   17.8754    2.8182 C   0  0  0  0  0  0  0  0  0  0  0  0
    2.7857   18.1798    1.7491 N   0  0  0  0  0  0  0  0  0  0  0  0
    1.6431   18.9174    2.0825 N   0  0  0  0  0  0  0  0  0  0  0  0
    1.4013   19.8575    1.2264 C   0  0  0  0  0  0  0  0  0  0  0  0
    2.1281   20.1200    0.1131 N   0  0  0  0  0  0  0  0  0  0  0  0
    0.3631   20.7155    1.3423 N   0  0  0  0  0  0  0  0  0  0  0  0
    1.5422   19.8731   -0.6842 H   0  0  0  0  0  0  0  0  0  0  0  0
    2.9864   19.5845    0.0962 H   0  0  0  0  0  0  0  0  0  0  0  0
   -0.0684   20.8834    0.4398 H   0  0  0  0  0  0  0  0  0  0  0  0
    0.6403   21.5828    1.7856 H   0  0  0  0  0  0  0  0  0  0  0  0
  1  2  1  0  0  0  0
  1  5  1  0  0  0  0
  2  3  1  0  0  0  0
  3  4  1  0  0  0  0
  4  5  1  0  0  0  0
  4  6  1  0  0  0  0
  6  7  2  0  0  0  0
  7  8  1  0  0  0  0
  8  9  2  0  0  0  0
  9 10  1  0  0  0  0
  9 11  1  0  0  0  0
 10 12  1  0  0  0  0
 10 13  1  0  0  0  0
 11 14  1  0  0  0  0
 11 15  1  0  0  0  0
M  END
>  <CHROM.0>
-57.45427800,56.69233924,-67.28206876,-46.65604079,-59.26647135,-62.27597843
-67.00211423,62.77698309,-168.44216478

>  <CHROM.1>
68.00409775,141.81032548,111.17607174,-139.37421116,3.66691007,18.53332609
2.30250488,0.62225473,-0.12596160,2.19945052

>  <Name>
P130754868

>  <RI>
9.71178e+06

>  <Rbt.Current_Directory>
/home/fstefaniak/projects/zuza/docking/adenine/4XNR

>  <Rbt.Executable>
rbdock ($Id: //depot/dev/client3/rdock/2013.1/src/exe/rbdock.cxx#4 $)

>  <Rbt.Library>
libRbt.so (2013.1, Build901 2013/11/27)

>  <Rbt.Parameter_File>
/home/fstefaniak/progs/rDock//data/scripts/dock_solv.prm

>  <Rbt.Receptor>
4xnr.prm

>  <SCORE>
-50.5518

>  <SCORE.INTER>
-32.8641

>  <SCORE.INTER.CONST>
1

>  <SCORE.INTER.POLAR>
-5.07567

>  <SCORE.INTER.ROT>
4

>  <SCORE.INTER.SOLV>
14.0351

>  <SCORE.INTER.VDW>
-15.9355

>  <SCORE.INTER.norm>
-2.98764

>  <SCORE.INTRA>
1.31473

>  <SCORE.INTRA.DIHEDRAL>
1.79456

>  <SCORE.INTRA.DIHEDRAL.0>
2.01532

>  <SCORE.INTRA.POLAR>
0.108698

>  <SCORE.INTRA.POLAR.0>
-0.198813

>  <SCORE.INTRA.REPUL>
0

>  <SCORE.INTRA.REPUL.0>
0

>  <SCORE.INTRA.SOLV>
0.140425

>  <SCORE.INTRA.SOLV.lig_0>
-10.8406

>  <SCORE.INTRA.VDW>
-0.0223367

>  <SCORE.INTRA.VDW.0>
-0.710625

>  <SCORE.INTRA.norm>
0.119521

>  <SCORE.RESTR>
0

>  <SCORE.RESTR.CAVITY>
0

>  <SCORE.RESTR.norm>
0

>  <SCORE.SYSTEM>
-19.0025

>  <SCORE.SYSTEM.CONST>
0

>  <SCORE.SYSTEM.DIHEDRAL>
4.15211

>  <SCORE.SYSTEM.POLAR>
-2.99549

>  <SCORE.SYSTEM.SOLV>
0.202083

>  <SCORE.SYSTEM.VDW>
-4.13473

>  <SCORE.SYSTEM.norm>
-1.7275

>  <SCORE.heavy>
11

>  <SCORE.norm>
-4.59562

$$$$
P130754868
 OpenBabel12072022113D
libRbt.so/2013.1/901 2013/11/27
 15 15  0  0  0  0  0  0  0  0999 V2000
    6.1406   19.3625    6.3364 C   0  0  0  0  0  0  0  0  0  0  0  0
    7.3069   19.4976    5.3739 C   0  0  0  0  0  0  0  0  0  0  0  0
    6.9316   18.6153    4.1861 C   0  0  0  0  0  0  0  0  0  0  0  0
    5.9226   17.5897    4.7178 C   0  0  0  0  0  0  0  0  0  0  0  0
    5.7562   17.8962    6.2069 C   0  0  0  0  0  0  0  0  0  0  0  0
    4.5987   17.7400    4.0067 C   0  0  0  0  0  0  0  0  0  0  0  0
    3.8224   16.7201    3.8353 N   0  0  0  0  0  0  0  0  0  0  0  0
    2.6624   17.1068    3.1527 N   0  0  0  0  0  0  0  0  0  0  0  0
    1.5962   16.5800    3.6636 C   0  0  0  0  0  0  0  0  0  0  0  0
    1.5571   15.7626    4.7438 N   0  0  0  0  0  0  0  0  0  0  0  0
    0.3562   16.7888    3.1672 N   0  0  0  0  0  0  0  0  0  0  0  0
    0.7857   16.0853    5.3275 H   0  0  0  0  0  0  0  0  0  0  0  0
    2.4252   15.7926    5.2628 H   0  0  0  0  0  0  0  0  0  0  0  0
   -0.2395   15.9854    3.3358 H   0  0  0  0  0  0  0  0  0  0  0  0
    0.3810   17.0299    2.1840 H   0  0  0  0  0  0  0  0  0  0  0  0
  1  2  1  0  0  0  0
  1  5  1  0  0  0  0
  2  3  1  0  0  0  0
  3  4  1  0  0  0  0
  4  5  1  0  0  0  0
  4  6  1  0  0  0  0
  6  7  2  0  0  0  0
  7  8  1  0  0  0  0
  8  9  2  0  0  0  0
  9 10  1  0  0  0  0
  9 11  1  0  0  0  0
 10 12  1  0  0  0  0
 10 13  1  0  0  0  0
 11 14  1  0  0  0  0
 11 15  1  0  0  0  0
M  END
>  <CHROM.0>
-53.40912316,-62.05404639,-64.46855212,-47.67680395,-54.28462349,-60.21652159
-66.94869914,-172.07794097,-167.63608307

>  <CHROM.1>
150.10986722,-136.74992901,135.28657580,149.98053479,4.17439987,17.58241991
4.49080236,0.27407609,0.42913893,1.61256592

>  <Name>
P130754868

>  <RI>
9.71178e+06

>  <Rbt.Current_Directory>
/home/fstefaniak/projects/zuza/docking/adenine/4XNR

>  <Rbt.Executable>
rbdock ($Id: //depot/dev/client3/rdock/2013.1/src/exe/rbdock.cxx#4 $)

>  <Rbt.Library>
libRbt.so (2013.1, Build901 2013/11/27)

>  <Rbt.Parameter_File>
/home/fstefaniak/progs/rDock//data/scripts/dock_solv.prm

>  <Rbt.Receptor>
4xnr.prm

>  <SCORE>
-49.294

>  <SCORE.INTER>
-29.9842

>  <SCORE.INTER.CONST>
1

>  <SCORE.INTER.POLAR>
-3.60005

>  <SCORE.INTER.ROT>
4

>  <SCORE.INTER.SOLV>
12.9006

>  <SCORE.INTER.VDW>
-18.5562

>  <SCORE.INTER.norm>
-2.72584

>  <SCORE.INTRA>
1.35301

>  <SCORE.INTRA.DIHEDRAL>
1.77047

>  <SCORE.INTRA.DIHEDRAL.0>
2.01532

>  <SCORE.INTRA.POLAR>
0.145608

>  <SCORE.INTRA.POLAR.0>
-0.198813

>  <SCORE.INTRA.REPUL>
0

>  <SCORE.INTRA.REPUL.0>
0

>  <SCORE.INTRA.SOLV>
0.117035

>  <SCORE.INTRA.SOLV.lig_0>
-10.8406

>  <SCORE.INTRA.VDW>
-0.085814

>  <SCORE.INTRA.VDW.0>
-0.710625

>  <SCORE.INTRA.norm>
0.123001

>  <SCORE.RESTR>
0

>  <SCORE.RESTR.CAVITY>
0

>  <SCORE.RESTR.norm>
0

>  <SCORE.SYSTEM>
-20.6627

>  <SCORE.SYSTEM.CONST>
0

>  <SCORE.SYSTEM.DIHEDRAL>
4.46609

>  <SCORE.SYSTEM.POLAR>
-3.0313

>  <SCORE.SYSTEM.SOLV>
0.16781

>  <SCORE.SYSTEM.VDW>
-5.21545

>  <SCORE.SYSTEM.norm>
-1.87843

>  <SCORE.heavy>
11

>  <SCORE.norm>
-4.48127

$$$$
P130754917
 OpenBabel12072022113D
libRbt.so/2013.1/901 2013/11/27
 18 18  0  0  0  0  0  0  0  0999 V2000
    5.4929   18.1135    6.7763 C   0  0  0  0  0  0  0  0  0  0  0  0
    5.7299   18.5599    5.3307 C   0  0  0  0  0  0  0  0  0  0  0  0
    6.7262   19.7266    5.3196 C   0  0  0  0  0  0  0  0  0  0  0  0
    6.2320   17.3980    4.4314 C   0  0  1  0  0  0  0  0  0  0  0  0
    5.1469   16.4296    3.9529 C   0  0  0  0  0  0  0  0  0  0  0  0
    4.3379   17.1326    2.8888 C   0  0  0  0  0  0  0  0  0  0  0  0
    3.0534   17.3224    2.8969 N   0  0  0  0  0  0  0  0  0  0  0  0
    2.4202   16.8016    4.0267 N   0  0  0  0  0  0  0  0  0  0  0  0
    1.3129   16.1981    3.7355 C   0  0  0  0  0  0  0  0  0  0  0  0
    0.7770   16.0812    2.4965 N   0  0  0  0  0  0  0  0  0  0  0  0
    0.5330   15.5964    4.6610 N   0  0  0  0  0  0  0  0  0  0  0  0
    5.1398   17.6615    1.7293 C   0  0  0  0  0  0  0  0  0  0  0  0
    6.2156   18.5591    2.3102 C   0  0  0  0  0  0  0  0  0  0  0  0
    6.9904   17.8727    3.2993 O   0  0  0  0  0  0  0  0  0  0  0  0
   -0.0714   15.5243    2.5925 H   0  0  0  0  0  0  0  0  0  0  0  0
    0.5599   16.9858    2.0982 H   0  0  0  0  0  0  0  0  0  0  0  0
    0.7144   15.9700    5.5863 H   0  0  0  0  0  0  0  0  0  0  0  0
   -0.4497   15.6561    4.4240 H   0  0  0  0  0  0  0  0  0  0  0  0
  1  2  1  0  0  0  0
  2  3  1  0  0  0  0
  4  2  1  6  0  0  0
  4  5  1  0  0  0  0
  4 14  1  0  0  0  0
  5  6  1  0  0  0  0
  6  7  2  0  0  0  0
  6 12  1  0  0  0  0
  7  8  1  0  0  0  0
  8  9  2  0  0  0  0
  9 10  1  0  0  0  0
  9 11  1  0  0  0  0
 10 15  1  0  0  0  0
 10 16  1  0  0  0  0
 11 17  1  0  0  0  0
 11 18  1  0  0  0  0
 12 13  1  0  0  0  0
 13 14  1  0  0  0  0
M  END
>  <CHROM.0>
-56.00163847,78.42079690,-68.68016371,-48.78775872,-173.30234949,-57.35750397
-69.20995466,-56.29206252,-166.74230636

>  <CHROM.1>
78.98918910,-137.48329782,177.81113590,21.83052309,4.26900896,17.39143599
3.86073232,0.19099172,0.40051579,1.46517241

>  <Name>
P130754917

>  <RI>
9.71178e+06

>  <Rbt.Current_Directory>
/home/fstefaniak/projects/zuza/docking/adenine/4XNR

>  <Rbt.Executable>
rbdock ($Id: //depot/dev/client3/rdock/2013.1/src/exe/rbdock.cxx#4 $)

>  <Rbt.Library>
libRbt.so (2013.1, Build901 2013/11/27)

>  <Rbt.Parameter_File>
/home/fstefaniak/progs/rDock//data/scripts/dock_solv.prm

>  <Rbt.Receptor>
4xnr.prm

>  <SCORE>
-41.4133

>  <SCORE.INTER>
-25.7828

>  <SCORE.INTER.CONST>
1

>  <SCORE.INTER.POLAR>
-5.06034

>  <SCORE.INTER.ROT>
4

>  <SCORE.INTER.SOLV>
15.7857

>  <SCORE.INTER.VDW>
-11.8493

>  <SCORE.INTER.norm>
-1.84163

>  <SCORE.INTRA>
3.12966

>  <SCORE.INTRA.DIHEDRAL>
2.67611

>  <SCORE.INTRA.DIHEDRAL.0>
1.10544

>  <SCORE.INTRA.POLAR>
0.189558

>  <SCORE.INTRA.POLAR.0>
-0.189558

>  <SCORE.INTRA.REPUL>
0

>  <SCORE.INTRA.REPUL.0>
0

>  <SCORE.INTRA.SOLV>
0.107328

>  <SCORE.INTRA.SOLV.lig_0>
-12.6681

>  <SCORE.INTRA.VDW>
1.09345

>  <SCORE.INTRA.VDW.0>
-0.219943

>  <SCORE.INTRA.norm>
0.223547

>  <SCORE.RESTR>
0

>  <SCORE.RESTR.CAVITY>
0

>  <SCORE.RESTR.norm>
0

>  <SCORE.SYSTEM>
-18.7601

>  <SCORE.SYSTEM.CONST>
0

>  <SCORE.SYSTEM.DIHEDRAL>
6.09162

>  <SCORE.SYSTEM.POLAR>
-2.98511

>  <SCORE.SYSTEM.SOLV>
0.12563

>  <SCORE.SYSTEM.VDW>
-4.62881

>  <SCORE.SYSTEM.norm>
-1.34001

>  <SCORE.heavy>
14

>  <SCORE.norm>
-2.95809

$$$$
P130754917
 OpenBabel12072022113D
libRbt.so/2013.1/901 2013/11/27
 18 18  0  0  0  0  0  0  0  0999 V2000
    5.5386   18.0286    6.2964 C   0  0  0  0  0  0  0  0  0  0  0  0
    6.1711   18.5593    5.0066 C   0  0  0  0  0  0  0  0  0  0  0  0
    7.3968   19.4121    5.3592 C   0  0  0  0  0  0  0  0  0  0  0  0
    6.5575   17.4173    4.0280 C   0  0  1  0  0  0  0  0  0  0  0  0
    5.4127   16.4777    3.6398 C   0  0  0  0  0  0  0  0  0  0  0  0
    4.5084   17.2218    2.6862 C   0  0  0  0  0  0  0  0  0  0  0  0
    3.2350   17.4283    2.8343 N   0  0  0  0  0  0  0  0  0  0  0  0
    2.7150   16.8835    4.0096 N   0  0  0  0  0  0  0  0  0  0  0  0
    1.5923   16.2705    3.8128 C   0  0  0  0  0  0  0  0  0  0  0  0
    0.9451   16.1647    2.6270 N   0  0  0  0  0  0  0  0  0  0  0  0
    0.9083   15.6459    4.7971 N   0  0  0  0  0  0  0  0  0  0  0  0
    5.1931   17.7733    1.4638 C   0  0  0  0  0  0  0  0  0  0  0  0
    6.3381   18.6394    1.9529 C   0  0  0  0  0  0  0  0  0  0  0  0
    7.2009   17.9145    2.8360 O   0  0  0  0  0  0  0  0  0  0  0  0
    0.1538   15.5398    2.7766 H   0  0  0  0  0  0  0  0  0  0  0  0
    0.6234   17.0658    2.2971 H   0  0  0  0  0  0  0  0  0  0  0  0
   -0.0866   15.6398    4.5998 H   0  0  0  0  0  0  0  0  0  0  0  0
    1.2577   14.7105    4.9656 H   0  0  0  0  0  0  0  0  0  0  0  0
  1  2  1  0  0  0  0
  2  3  1  0  0  0  0
  4  2  1  6  0  0  0
  4  5  1  0  0  0  0
  4 14  1  0  0  0  0
  5  6  1  0  0  0  0
  6  7  2  0  0  0  0
  6 12  1  0  0  0  0
  7  8  1  0  0  0  0
  8  9  2  0  0  0  0
  9 10  1  0  0  0  0
  9 11  1  0  0  0  0
 10 15  1  0  0  0  0
 10 16  1  0  0  0  0
 11 17  1  0  0  0  0
 11 18  1  0  0  0  0
 12 13  1  0  0  0  0
 13 14  1  0  0  0  0
M  END
>  <CHROM.0>
-64.28068496,72.32545759,-63.31089865,-47.62013586,-57.04916816,-60.07674543
-67.62486053,-55.47369257,-168.30948987

>  <CHROM.1>
55.96456076,-135.64431619,173.70770741,151.61439837,4.52725705,17.40919919
3.68127126,0.08605844,0.39268574,1.52725636

>  <Name>
P130754917

>  <RI>
9.71178e+06

>  <Rbt.Current_Directory>
/home/fstefaniak/projects/zuza/docking/adenine/4XNR

>  <Rbt.Executable>
rbdock ($Id: //depot/dev/client3/rdock/2013.1/src/exe/rbdock.cxx#4 $)

>  <Rbt.Library>
libRbt.so (2013.1, Build901 2013/11/27)

>  <Rbt.Parameter_File>
/home/fstefaniak/progs/rDock//data/scripts/dock_solv.prm

>  <Rbt.Receptor>
4xnr.prm

>  <SCORE>
-40.4747

>  <SCORE.INTER>
-23.4016

>  <SCORE.INTER.CONST>
1

>  <SCORE.INTER.POLAR>
-5.22405

>  <SCORE.INTER.ROT>
4

>  <SCORE.INTER.SOLV>
15.2037

>  <SCORE.INTER.VDW>
-9.5221

>  <SCORE.INTER.norm>
-1.67154

>  <SCORE.INTRA>
2.24556

>  <SCORE.INTRA.DIHEDRAL>
1.5972

>  <SCORE.INTRA.DIHEDRAL.0>
1.10544

>  <SCORE.INTRA.POLAR>
0.189558

>  <SCORE.INTRA.POLAR.0>
-0.189558

>  <SCORE.INTRA.REPUL>
0

>  <SCORE.INTRA.REPUL.0>
0

>  <SCORE.INTRA.SOLV>
0.178006

>  <SCORE.INTRA.SOLV.lig_0>
-12.6681

>  <SCORE.INTRA.VDW>
0.713452

>  <SCORE.INTRA.VDW.0>
-0.219943

>  <SCORE.INTRA.norm>
0.160397

>  <SCORE.RESTR>
0

>  <SCORE.RESTR.CAVITY>
0

>  <SCORE.RESTR.norm>
0

>  <SCORE.SYSTEM>
-19.3187

>  <SCORE.SYSTEM.CONST>
0

>  <SCORE.SYSTEM.DIHEDRAL>
4.6861

>  <SCORE.SYSTEM.POLAR>
-2.95661

>  <SCORE.SYSTEM.SOLV>
0.312166

>  <SCORE.SYSTEM.VDW>
-4.68985

>  <SCORE.SYSTEM.norm>
-1.37991

>  <SCORE.heavy>
14

>  <SCORE.norm>
-2.89105

$$$$
P130754917
 OpenBabel12072022113D
libRbt.so/2013.1/901 2013/11/27
 18 18  0  0  0  0  0  0  0  0999 V2000
    5.5346   18.0461    6.2666 C   0  0  0  0  0  0  0  0  0  0  0  0
    6.2270   18.6530    5.0430 C   0  0  0  0  0  0  0  0  0  0  0  0
    7.3785   19.5533    5.5094 C   0  0  0  0  0  0  0  0  0  0  0  0
    6.7404   17.5671    4.0590 C   0  0  1  0  0  0  0  0  0  0  0  0
    5.6870   16.5561    3.5981 C   0  0  0  0  0  0  0  0  0  0  0  0
    4.7732   17.2554    2.6200 C   0  0  0  0  0  0  0  0  0  0  0  0
    3.4826   17.3643    2.7135 N   0  0  0  0  0  0  0  0  0  0  0  0
    2.9529   16.7537    3.8516 N   0  0  0  0  0  0  0  0  0  0  0  0
    1.6874   16.5093    3.7346 C   0  0  0  0  0  0  0  0  0  0  0  0
    0.9178   16.8147    2.6619 N   0  0  0  0  0  0  0  0  0  0  0  0
    0.9586   15.9045    4.6990 N   0  0  0  0  0  0  0  0  0  0  0  0
    5.4686   17.8858    1.4427 C   0  0  0  0  0  0  0  0  0  0  0  0
    6.5233   18.8211    2.0027 C   0  0  0  0  0  0  0  0  0  0  0  0
    7.3974   18.1396    2.9089 O   0  0  0  0  0  0  0  0  0  0  0  0
   -0.0225   16.4787    2.8672 H   0  0  0  0  0  0  0  0  0  0  0  0
    0.9039   17.8111    2.4856 H   0  0  0  0  0  0  0  0  0  0  0  0
    0.6156   16.5810    5.3723 H   0  0  0  0  0  0  0  0  0  0  0  0
    0.2033   15.3522    4.3118 H   0  0  0  0  0  0  0  0  0  0  0  0
  1  2  1  0  0  0  0
  2  3  1  0  0  0  0
  4  2  1  6  0  0  0
  4  5  1  0  0  0  0
  4 14  1  0  0  0  0
  5  6  1  0  0  0  0
  6  7  2  0  0  0  0
  6 12  1  0  0  0  0
  7  8  1  0  0  0  0
  8  9  2  0  0  0  0
  9 10  1  0  0  0  0
  9 11  1  0  0  0  0
 10 15  1  0  0  0  0
 10 16  1  0  0  0  0
 11 17  1  0  0  0  0
 11 18  1  0  0  0  0
 12 13  1  0  0  0  0
 13 14  1  0  0  0  0
M  END
>  <CHROM.0>
-54.36785946,77.40929738,-72.86404608,-47.03541589,-176.64004126,-174.84104119
-174.71332380,-55.71675524,-169.05584187

>  <CHROM.1>
53.92736946,-160.17346738,178.85254984,86.26675671,4.66557117,17.56533709
3.66891146,0.09353952,0.35368392,1.51268969

>  <Name>
P130754917

>  <RI>
9.71178e+06

>  <Rbt.Current_Directory>
/home/fstefaniak/projects/zuza/docking/adenine/4XNR

>  <Rbt.Executable>
rbdock ($Id: //depot/dev/client3/rdock/2013.1/src/exe/rbdock.cxx#4 $)

>  <Rbt.Library>
libRbt.so (2013.1, Build901 2013/11/27)

>  <Rbt.Parameter_File>
/home/fstefaniak/progs/rDock//data/scripts/dock_solv.prm

>  <Rbt.Receptor>
4xnr.prm

>  <SCORE>
-40.3589

>  <SCORE.INTER>
-23.8765

>  <SCORE.INTER.CONST>
1

>  <SCORE.INTER.POLAR>
-5.08443

>  <SCORE.INTER.ROT>
4

>  <SCORE.INTER.SOLV>
15.322

>  <SCORE.INTER.VDW>
-10.3436

>  <SCORE.INTER.norm>
-1.70547

>  <SCORE.INTRA>
1.66548

>  <SCORE.INTRA.DIHEDRAL>
0.492177

>  <SCORE.INTRA.DIHEDRAL.0>
1.10544

>  <SCORE.INTRA.POLAR>
0.189558

>  <SCORE.INTRA.POLAR.0>
-0.189558

>  <SCORE.INTRA.REPUL>
0

>  <SCORE.INTRA.REPUL.0>
0

>  <SCORE.INTRA.SOLV>
0.0782618

>  <SCORE.INTRA.SOLV.lig_0>
-12.6681

>  <SCORE.INTRA.VDW>
0.735762

>  <SCORE.INTRA.VDW.0>
-0.219943

>  <SCORE.INTRA.norm>
0.118963

>  <SCORE.RESTR>
0

>  <SCORE.RESTR.CAVITY>
0

>  <SCORE.RESTR.norm>
0

>  <SCORE.SYSTEM>
-18.1478

>  <SCORE.SYSTEM.CONST>
0

>  <SCORE.SYSTEM.DIHEDRAL>
6.06126

>  <SCORE.SYSTEM.POLAR>
-2.98791

>  <SCORE.SYSTEM.SOLV>
-0.029764

>  <SCORE.SYSTEM.VDW>
-4.14935

>  <SCORE.SYSTEM.norm>
-1.29627

>  <SCORE.heavy>
14

>  <SCORE.norm>
-2.88278

$$$$
P131452763
 OpenBabel12072022113D
libRbt.so/2013.1/901 2013/11/27
 17 17  0  0  0  0  0  0  0  0999 V2000
    6.0290   18.4986    4.5573 C   0  0  0  0  0  0  0  0  0  0  0  0
    5.4488   17.1757    4.3120 C   0  0  0  0  0  0  0  0  0  0  0  0
    4.9881   16.0851    4.1050 C   0  0  0  0  0  0  0  0  0  0  0  0
    4.4579   14.7416    3.8404 C   0  0  0  0  0  0  0  0  0  0  0  0
    3.2036   14.4367    4.5406 N   0  0  0  0  0  0  0  0  0  0  0  0
    3.3532   13.4881    5.6634 C   0  0  0  0  0  0  0  0  0  0  0  0
    3.1869   11.9874    5.3358 C   0  0  0  0  0  0  0  0  0  0  0  0
    1.9578   11.7669    4.5111 N   0  3  0  0  0  0  0  0  0  0  0  0
    1.1197   12.0336    5.0656 H   0  0  0  0  0  0  0  0  0  0  0  0
    1.8431   10.7752    4.2731 H   0  0  0  0  0  0  0  0  0  0  0  0
    1.9213   12.6202    3.2701 C   0  0  0  0  0  0  0  0  0  0  0  0
    2.0665   14.1171    3.6402 C   0  0  1  0  0  0  0  0  0  0  0  0
    0.7731   14.5278    4.3675 C   0  0  0  0  0  0  0  0  0  0  0  0
   -0.1867   13.7632    4.4646 O   0  0  0  0  0  0  0  0  0  0  0  0
    0.7776   15.7570    4.9523 N   0  0  0  0  0  0  0  0  0  0  0  0
    0.5216   16.5544    4.3799 H   0  0  0  0  0  0  0  0  0  0  0  0
    0.6443   15.8578    5.9525 H   0  0  0  0  0  0  0  0  0  0  0  0
  1  2  1  0  0  0  0
  2  3  3  0  0  0  0
  3  4  1  0  0  0  0
  4  5  1  0  0  0  0
  5  6  1  0  0  0  0
  5 12  1  0  0  0  0
  6  7  1  0  0  0  0
  7  8  1  0  0  0  0
  8  9  1  0  0  0  0
  8 10  1  0  0  0  0
  8 11  1  0  0  0  0
 11 12  1  0  0  0  0
 12 13  1  1  0  0  0
 13 14  2  0  0  0  0
 13 15  1  0  0  0  0
 15 16  1  0  0  0  0
 15 17  1  0  0  0  0
M  CHG  1   8   1
M  END
>  <CHROM.0>
-57.25373299,61.74371601,-64.33831794,-47.15022263,-59.47049147,-63.36570499
-69.65033232,-60.01739239,-167.98603860

>  <CHROM.1>
160.88803649,-107.15253923,-130.35264481,86.33939531,2.84103536,14.48942911
4.44947144,0.81110604,-0.01339891,-0.02913796

>  <Name>
P131452763

>  <RI>
9.71178e+06

>  <Rbt.Current_Directory>
/home/fstefaniak/projects/zuza/docking/adenine/4XNR

>  <Rbt.Executable>
rbdock ($Id: //depot/dev/client3/rdock/2013.1/src/exe/rbdock.cxx#4 $)

>  <Rbt.Library>
libRbt.so (2013.1, Build901 2013/11/27)

>  <Rbt.Parameter_File>
/home/fstefaniak/progs/rDock//data/scripts/dock_solv.prm

>  <Rbt.Receptor>
4xnr.prm

>  <SCORE>
-42.1673

>  <SCORE.INTER>
-23.8121

>  <SCORE.INTER.CONST>
1

>  <SCORE.INTER.POLAR>
-3.03523

>  <SCORE.INTER.ROT>
4

>  <SCORE.INTER.SOLV>
12.6817

>  <SCORE.INTER.VDW>
-16.2512

>  <SCORE.INTER.norm>
-1.8317

>  <SCORE.INTRA>
1.34279

>  <SCORE.INTRA.DIHEDRAL>
1.88351

>  <SCORE.INTRA.DIHEDRAL.0>
1.7075

>  <SCORE.INTRA.POLAR>
0.0632002

>  <SCORE.INTRA.POLAR.0>
-0.0632002

>  <SCORE.INTRA.REPUL>
0

>  <SCORE.INTRA.REPUL.0>
0

>  <SCORE.INTRA.SOLV>
-0.0933589

>  <SCORE.INTRA.SOLV.lig_0>
-30.2683

>  <SCORE.INTRA.VDW>
0.232831

>  <SCORE.INTRA.VDW.0>
-0.637986

>  <SCORE.INTRA.norm>
0.103291

>  <SCORE.RESTR>
0.347897

>  <SCORE.RESTR.CAVITY>
0.347897

>  <SCORE.RESTR.norm>
0.0267613

>  <SCORE.SYSTEM>
-20.0459

>  <SCORE.SYSTEM.CONST>
0

>  <SCORE.SYSTEM.DIHEDRAL>
4.14078

>  <SCORE.SYSTEM.POLAR>
-2.99427

>  <SCORE.SYSTEM.SOLV>
0.349408

>  <SCORE.SYSTEM.VDW>
-4.87975

>  <SCORE.SYSTEM.norm>
-1.54199

>  <SCORE.heavy>
13

>  <SCORE.norm>
-3.24364

$$$$
P131452763
 OpenBabel12072022113D
libRbt.so/2013.1/901 2013/11/27
 17 17  0  0  0  0  0  0  0  0999 V2000
    6.0139   18.5289    4.7480 C   0  0  0  0  0  0  0  0  0  0  0  0
    5.4809   17.1901    4.4824 C   0  0  0  0  0  0  0  0  0  0  0  0
    5.0390   16.0971    4.2489 C   0  0  0  0  0  0  0  0  0  0  0  0
    4.4902   14.7730    3.9301 C   0  0  0  0  0  0  0  0  0  0  0  0
    3.2279   14.4603    4.6121 N   0  0  0  0  0  0  0  0  0  0  0  0
    3.3632   13.4928    5.7206 C   0  0  0  0  0  0  0  0  0  0  0  0
    3.1961   11.9982    5.3665 C   0  0  0  0  0  0  0  0  0  0  0  0
    1.9750   11.7950    4.5255 N   0  3  0  0  0  0  0  0  0  0  0  0
    1.1320   12.0550    5.0757 H   0  0  0  0  0  0  0  0  0  0  0  0
    1.8600   10.8078    4.2700 H   0  0  0  0  0  0  0  0  0  0  0  0
    1.9538   12.6689    3.2985 C   0  0  0  0  0  0  0  0  0  0  0  0
    2.0993   14.1589    3.6948 C   0  0  1  0  0  0  0  0  0  0  0  0
    0.7996   14.5614    4.4155 C   0  0  0  0  0  0  0  0  0  0  0  0
   -0.1412   13.7776    4.5414 O   0  0  0  0  0  0  0  0  0  0  0  0
    0.7771   15.8083    4.9613 N   0  0  0  0  0  0  0  0  0  0  0  0
    0.4659   16.5758    4.3756 H   0  0  0  0  0  0  0  0  0  0  0  0
    0.6801   15.9362    5.9625 H   0  0  0  0  0  0  0  0  0  0  0  0
  1  2  1  0  0  0  0
  2  3  3  0  0  0  0
  3  4  1  0  0  0  0
  4  5  1  0  0  0  0
  5  6  1  0  0  0  0
  5 12  1  0  0  0  0
  6  7  1  0  0  0  0
  7  8  1  0  0  0  0
  8  9  1  0  0  0  0
  8 10  1  0  0  0  0
  8 11  1  0  0  0  0
 11 12  1  0  0  0  0
 12 13  1  1  0  0  0
 13 14  2  0  0  0  0
 13 15  1  0  0  0  0
 15 16  1  0  0  0  0
 15 17  1  0  0  0  0
M  CHG  1   8   1
M  END
>  <CHROM.0>
-59.39033865,65.78801160,-67.04466736,-46.05144557,-63.17178854,-63.72225057
-68.84080335,-60.10554206,-170.23668564

>  <CHROM.1>
-108.35482135,-105.67561193,-127.08374542,88.61419740,2.86302393,14.51626913
4.52295083,0.81304372,-0.02693853,-0.01218865

>  <Name>
P131452763

>  <RI>
9.71178e+06

>  <Rbt.Current_Directory>
/home/fstefaniak/projects/zuza/docking/adenine/4XNR

>  <Rbt.Executable>
rbdock ($Id: //depot/dev/client3/rdock/2013.1/src/exe/rbdock.cxx#4 $)

>  <Rbt.Library>
libRbt.so (2013.1, Build901 2013/11/27)

>  <Rbt.Parameter_File>
/home/fstefaniak/progs/rDock//data/scripts/dock_solv.prm

>  <Rbt.Receptor>
4xnr.prm

>  <SCORE>
-41.8197

>  <SCORE.INTER>
-23.6991

>  <SCORE.INTER.CONST>
1

>  <SCORE.INTER.POLAR>
-2.96233

>  <SCORE.INTER.ROT>
4

>  <SCORE.INTER.SOLV>
12.9304

>  <SCORE.INTER.VDW>
-16.5018

>  <SCORE.INTER.norm>
-1.82301

>  <SCORE.INTRA>
1.31875

>  <SCORE.INTRA.DIHEDRAL>
1.814

>  <SCORE.INTRA.DIHEDRAL.0>
1.7075

>  <SCORE.INTRA.POLAR>
0.0632002

>  <SCORE.INTRA.POLAR.0>
-0.0632002

>  <SCORE.INTRA.REPUL>
0

>  <SCORE.INTRA.REPUL.0>
0

>  <SCORE.INTRA.SOLV>
-0.0942194

>  <SCORE.INTRA.SOLV.lig_0>
-30.2683

>  <SCORE.INTRA.VDW>
0.243979

>  <SCORE.INTRA.VDW.0>
-0.637986

>  <SCORE.INTRA.norm>
0.101442

>  <SCORE.RESTR>
0.294999

>  <SCORE.RESTR.CAVITY>
0.294999

>  <SCORE.RESTR.norm>
0.0226923

>  <SCORE.SYSTEM>
-19.7343

>  <SCORE.SYSTEM.CONST>
0

>  <SCORE.SYSTEM.DIHEDRAL>
4.30263

>  <SCORE.SYSTEM.POLAR>
-2.93761

>  <SCORE.SYSTEM.SOLV>
0.323938

>  <SCORE.SYSTEM.VDW>
-4.90637

>  <SCORE.SYSTEM.norm>
-1.51803

>  <SCORE.heavy>
13

>  <SCORE.norm>
-3.2169

$$$$
P131452763
 OpenBabel12072022113D
libRbt.so/2013.1/901 2013/11/27
 17 17  0  0  0  0  0  0  0  0999 V2000
    6.0063   18.5372    4.6104 C   0  0  0  0  0  0  0  0  0  0  0  0
    5.4613   17.2151    4.2913 C   0  0  0  0  0  0  0  0  0  0  0  0
    5.0158   16.1261    4.0459 C   0  0  0  0  0  0  0  0  0  0  0  0
    4.4745   14.7871    3.7815 C   0  0  0  0  0  0  0  0  0  0  0  0
    3.2356   14.4803    4.5077 N   0  0  0  0  0  0  0  0  0  0  0  0
    3.4023   13.5002    5.6006 C   0  0  0  0  0  0  0  0  0  0  0  0
    3.2060   12.0111    5.2384 C   0  0  0  0  0  0  0  0  0  0  0  0
    1.9519   11.8291    4.4423 N   0  3  0  0  0  0  0  0  0  0  0  0
    1.1331   12.0921    5.0265 H   0  0  0  0  0  0  0  0  0  0  0  0
    1.8169   10.8458    4.1816 H   0  0  0  0  0  0  0  0  0  0  0  0
    1.8937   12.7157    3.2256 C   0  0  0  0  0  0  0  0  0  0  0  0
    2.0700   14.2000    3.6308 C   0  0  1  0  0  0  0  0  0  0  0  0
    0.8028   14.6084    4.4040 C   0  0  0  0  0  0  0  0  0  0  0  0
   -0.1253   13.8212    4.5896 O   0  0  0  0  0  0  0  0  0  0  0  0
    0.7969   15.8657    4.9258 N   0  0  0  0  0  0  0  0  0  0  0  0
    0.5696   16.6349    4.3047 H   0  0  0  0  0  0  0  0  0  0  0  0
    0.6275   16.0181    5.9139 H   0  0  0  0  0  0  0  0  0  0  0  0
  1  2  1  0  0  0  0
  2  3  3  0  0  0  0
  3  4  1  0  0  0  0
  4  5  1  0  0  0  0
  5  6  1  0  0  0  0
  5 12  1  0  0  0  0
  6  7  1  0  0  0  0
  7  8  1  0  0  0  0
  8  9  1  0  0  0  0
  8 10  1  0  0  0  0
  8 11  1  0  0  0  0
 11 12  1  0  0  0  0
 12 13  1  1  0  0  0
 13 14  2  0  0  0  0
 13 15  1  0  0  0  0
 15 16  1  0  0  0  0
 15 17  1  0  0  0  0
M  CHG  1   8   1
M  END
>  <CHROM.0>
-60.15237587,65.51805176,-67.61780268,-46.69983807,-57.60575001,59.90245572
-67.33391341,-57.98383593,-168.34502370

>  <CHROM.1>
59.94501775,-108.32574265,-125.03539670,80.73723934,2.85741050,14.54639961
4.42979891,0.81495388,0.01075507,-0.00464230

>  <Name>
P131452763

>  <RI>
9.71178e+06

>  <Rbt.Current_Directory>
/home/fstefaniak/projects/zuza/docking/adenine/4XNR

>  <Rbt.Executable>
rbdock ($Id: //depot/dev/client3/rdock/2013.1/src/exe/rbdock.cxx#4 $)

>  <Rbt.Library>
libRbt.so (2013.1, Build901 2013/11/27)

>  <Rbt.Parameter_File>
/home/fstefaniak/progs/rDock//data/scripts/dock_solv.prm

>  <Rbt.Receptor>
4xnr.prm

>  <SCORE>
-40.657

>  <SCORE.INTER>
-23.4192

>  <SCORE.INTER.CONST>
1

>  <SCORE.INTER.POLAR>
-2.88596

>  <SCORE.INTER.ROT>
4

>  <SCORE.INTER.SOLV>
12.7177

>  <SCORE.INTER.VDW>
-16.4988

>  <SCORE.INTER.norm>
-1.80148

>  <SCORE.INTRA>
1.3383

>  <SCORE.INTRA.DIHEDRAL>
1.84813

>  <SCORE.INTRA.DIHEDRAL.0>
1.7075

>  <SCORE.INTRA.POLAR>
0.0632002

>  <SCORE.INTRA.POLAR.0>
-0.0632002

>  <SCORE.INTRA.REPUL>
0

>  <SCORE.INTRA.REPUL.0>
0

>  <SCORE.INTRA.SOLV>
-0.0916733

>  <SCORE.INTRA.SOLV.lig_0>
-30.2683

>  <SCORE.INTRA.VDW>
0.245193

>  <SCORE.INTRA.VDW.0>
-0.637986

>  <SCORE.INTRA.norm>
0.102946

>  <SCORE.RESTR>
0.199197

>  <SCORE.RESTR.CAVITY>
0.199197

>  <SCORE.RESTR.norm>
0.0153228

>  <SCORE.SYSTEM>
-18.7753

>  <SCORE.SYSTEM.CONST>
0

>  <SCORE.SYSTEM.DIHEDRAL>
4.2473

>  <SCORE.SYSTEM.POLAR>
-2.98069

>  <SCORE.SYSTEM.SOLV>
0.212189

>  <SCORE.SYSTEM.VDW>
-4.06769

>  <SCORE.SYSTEM.norm>
-1.44425

>  <SCORE.heavy>
13

>  <SCORE.norm>
-3.12746

$$$$
P131557109
 OpenBabel12072022113D
libRbt.so/2013.1/901 2013/11/27
 17 17  0  0  0  0  0  0  0  0999 V2000
    4.1067   15.3268    3.9449 C   0  0  0  0  0  0  0  0  0  0  0  0
    3.7872   13.8647    3.6099 C   0  0  0  0  0  0  0  0  0  0  0  0
    2.5019   13.3902    4.2957 C   0  0  2  0  0  0  0  0  0  0  0  0
    1.3120   14.2786    3.8757 C   0  0  0  0  0  0  0  0  0  0  0  0
    1.6372   15.7427    3.9280 C   0  0  0  0  0  0  0  0  0  0  0  0
    2.8935   16.2095    3.9733 C   0  0  0  0  0  0  0  0  0  0  0  0
    2.6560   13.4077    5.7756 N   0  0  0  0  0  0  0  0  0  0  0  0
    3.1053   12.3972    6.5386 C   0  0  0  0  0  0  0  0  0  0  0  0
    3.1896   12.5697    7.9011 N   0  3  0  0  0  0  0  0  0  0  0  0
    2.7696   13.3594    8.3890 H   0  0  0  0  0  0  0  0  0  0  0  0
    3.7247   11.5388    8.6908 N   0  0  0  0  0  0  0  0  0  0  0  0
    3.4675   11.2176    6.0124 N   0  0  0  0  0  0  0  0  0  0  0  0
    2.3848   14.2598    6.2520 H   0  0  0  0  0  0  0  0  0  0  0  0
    4.7509   11.5868    8.6678 H   0  0  0  0  0  0  0  0  0  0  0  0
    3.4508   11.6765    9.6718 H   0  0  0  0  0  0  0  0  0  0  0  0
    3.4203   11.0211    5.0248 H   0  0  0  0  0  0  0  0  0  0  0  0
    3.6680   10.4602    6.6537 H   0  0  0  0  0  0  0  0  0  0  0  0
  1  2  1  0  0  0  0
  1  6  1  0  0  0  0
  2  3  1  0  0  0  0
  3  4  1  0  0  0  0
  3  7  1  1  0  0  0
  4  5  1  0  0  0  0
  5  6  2  0  0  0  0
  7  8  1  0  0  0  0
  7 13  1  0  0  0  0
  8  9  2  0  0  0  0
  8 12  1  0  0  0  0
  9 10  1  0  0  0  0
  9 11  1  0  0  0  0
 11 14  1  0  0  0  0
 11 15  1  0  0  0  0
 12 16  1  0  0  0  0
 12 17  1  0  0  0  0
M  CHG  1   9   1
M  END
>  <CHROM.0>
-61.12714811,-172.18546138,-67.47845449,-47.31464100,-177.51945723,57.16496312
-66.71070546,-59.32874042,-167.33140546

>  <CHROM.1>
-89.77964775,81.75471059,2.97127405,13.55790917,5.41276038,-2.15288840,-1.27693121
1.73016609

>  <Name>
P131557109

>  <RI>
3.58524e+07

>  <Rbt.Current_Directory>
/home/fstefaniak/projects/zuza/docking/adenine/4XNR

>  <Rbt.Executable>
rbdock ($Id: //depot/dev/client3/rdock/2013.1/src/exe/rbdock.cxx#4 $)

>  <Rbt.Library>
libRbt.so (2013.1, Build901 2013/11/27)

>  <Rbt.Parameter_File>
/home/fstefaniak/progs/rDock//data/scripts/dock_solv.prm

>  <Rbt.Receptor>
4xnr.prm

>  <SCORE>
-43.5137

>  <SCORE.INTER>
-23.7322

>  <SCORE.INTER.CONST>
1

>  <SCORE.INTER.POLAR>
-2.81468

>  <SCORE.INTER.ROT>
2

>  <SCORE.INTER.SOLV>
13.9841

>  <SCORE.INTER.VDW>
-16.0339

>  <SCORE.INTER.norm>
-2.15747

>  <SCORE.INTRA>
-0.161712

>  <SCORE.INTRA.DIHEDRAL>
0.146841

>  <SCORE.INTRA.DIHEDRAL.0>
3.12423

>  <SCORE.INTRA.POLAR>
-0.00682269

>  <SCORE.INTRA.POLAR.0>
-0.02985

>  <SCORE.INTRA.REPUL>
0

>  <SCORE.INTRA.REPUL.0>
0

>  <SCORE.INTRA.SOLV>
-0.145094

>  <SCORE.INTRA.SOLV.lig_0>
-26.9231

>  <SCORE.INTRA.VDW>
-0.139388

>  <SCORE.INTRA.VDW.0>
-0.988517

>  <SCORE.INTRA.norm>
-0.0147011

>  <SCORE.RESTR>
0

>  <SCORE.RESTR.CAVITY>
0

>  <SCORE.RESTR.norm>
0

>  <SCORE.SYSTEM>
-19.6198

>  <SCORE.SYSTEM.CONST>
0

>  <SCORE.SYSTEM.DIHEDRAL>
4.40428

>  <SCORE.SYSTEM.POLAR>
-2.96324

>  <SCORE.SYSTEM.SOLV>
-0.0472515

>  <SCORE.SYSTEM.VDW>
-4.65472

>  <SCORE.SYSTEM.norm>
-1.78361

>  <SCORE.heavy>
11

>  <SCORE.norm>
-3.95579

$$$$
P131557109
 OpenBabel12072022113D
libRbt.so/2013.1/901 2013/11/27
 17 17  0  0  0  0  0  0  0  0999 V2000
    5.7998   19.1324    5.3404 C   0  0  0  0  0  0  0  0  0  0  0  0
    5.6305   17.6452    5.6745 C   0  0  0  0  0  0  0  0  0  0  0  0
    5.2739   16.8191    4.4345 C   0  0  2  0  0  0  0  0  0  0  0  0
    6.3657   16.9754    3.3551 C   0  0  0  0  0  0  0  0  0  0  0  0
    6.7782   18.4041    3.1531 C   0  0  0  0  0  0  0  0  0  0  0  0
    6.5098   19.3730    4.0404 C   0  0  0  0  0  0  0  0  0  0  0  0
    3.9522   17.2306    3.8884 N   0  0  0  0  0  0  0  0  0  0  0  0
    2.9358   16.4119    3.5694 C   0  0  0  0  0  0  0  0  0  0  0  0
    1.7709   16.9490    3.0717 N   0  3  0  0  0  0  0  0  0  0  0  0
    1.6905   17.9180    2.7671 H   0  0  0  0  0  0  0  0  0  0  0  0
    0.6841   16.1004    2.8043 N   0  0  0  0  0  0  0  0  0  0  0  0
    3.0246   15.0812    3.7134 N   0  0  0  0  0  0  0  0  0  0  0  0
    3.8122   18.2219    3.7324 H   0  0  0  0  0  0  0  0  0  0  0  0
   -0.0219   16.2041    3.5437 H   0  0  0  0  0  0  0  0  0  0  0  0
    0.2291   16.3862    1.9281 H   0  0  0  0  0  0  0  0  0  0  0  0
    3.8518   14.6222    4.0615 H   0  0  0  0  0  0  0  0  0  0  0  0
    2.2759   14.5174    3.3302 H   0  0  0  0  0  0  0  0  0  0  0  0
  1  2  1  0  0  0  0
  1  6  1  0  0  0  0
  2  3  1  0  0  0  0
  3  4  1  0  0  0  0
  3  7  1  6  0  0  0
  4  5  1  0  0  0  0
  5  6  2  0  0  0  0
  7  8  1  0  0  0  0
  7 13  1  0  0  0  0
  8  9  2  0  0  0  0
  8 12  1  0  0  0  0
  9 10  1  0  0  0  0
  9 11  1  0  0  0  0
 11 14  1  0  0  0  0
 11 15  1  0  0  0  0
 12 16  1  0  0  0  0
 12 17  1  0  0  0  0
M  CHG  1   9   1
M  END
>  <CHROM.0>
-55.25255103,-60.32929247,-60.29012404,-48.97803048,-61.78050245,-174.61698636
-67.75029070,-176.75868419,-168.53294460

>  <CHROM.1>
-130.23275478,103.91847926,4.32009638,17.23997677,3.89192931,0.48156239,-0.19018946
0.12896976

>  <Name>
P131557109

>  <RI>
3.58524e+07

>  <Rbt.Current_Directory>
/home/fstefaniak/projects/zuza/docking/adenine/4XNR

>  <Rbt.Executable>
rbdock ($Id: //depot/dev/client3/rdock/2013.1/src/exe/rbdock.cxx#4 $)

>  <Rbt.Library>
libRbt.so (2013.1, Build901 2013/11/27)

>  <Rbt.Parameter_File>
/home/fstefaniak/progs/rDock//data/scripts/dock_solv.prm

>  <Rbt.Receptor>
4xnr.prm

>  <SCORE>
-42.8551

>  <SCORE.INTER>
-22.3128

>  <SCORE.INTER.CONST>
1

>  <SCORE.INTER.POLAR>
-2.14695

>  <SCORE.INTER.ROT>
2

>  <SCORE.INTER.SOLV>
15.0648

>  <SCORE.INTER.VDW>
-17.6736

>  <SCORE.INTER.norm>
-2.02844

>  <SCORE.INTRA>
-0.0930326

>  <SCORE.INTRA.DIHEDRAL>
0.250449

>  <SCORE.INTRA.DIHEDRAL.0>
3.12423

>  <SCORE.INTRA.POLAR>
-0.00682269

>  <SCORE.INTRA.POLAR.0>
-0.02985

>  <SCORE.INTRA.REPUL>
0

>  <SCORE.INTRA.REPUL.0>
0

>  <SCORE.INTRA.SOLV>
-0.193963

>  <SCORE.INTRA.SOLV.lig_0>
-26.9231

>  <SCORE.INTRA.VDW>
-0.0980789

>  <SCORE.INTRA.VDW.0>
-0.988517

>  <SCORE.INTRA.norm>
-0.00845751

>  <SCORE.RESTR>
0

>  <SCORE.RESTR.CAVITY>
0

>  <SCORE.RESTR.norm>
0

>  <SCORE.SYSTEM>
-20.4493

>  <SCORE.SYSTEM.CONST>
0

>  <SCORE.SYSTEM.DIHEDRAL>
3.85295

>  <SCORE.SYSTEM.POLAR>
-2.97408

>  <SCORE.SYSTEM.SOLV>
0.0454798

>  <SCORE.SYSTEM.VDW>
-5.01873

>  <SCORE.SYSTEM.norm>
-1.85903

>  <SCORE.heavy>
11

>  <SCORE.norm>
-3.89592

$$$$
P131557109
 OpenBabel12072022113D
libRbt.so/2013.1/901 2013/11/27
 17 17  0  0  0  0  0  0  0  0999 V2000
    5.8153   19.1356    5.2518 C   0  0  0  0  0  0  0  0  0  0  0  0
    5.6208   17.6668    5.6479 C   0  0  0  0  0  0  0  0  0  0  0  0
    5.2388   16.7976    4.4454 C   0  0  2  0  0  0  0  0  0  0  0  0
    6.3248   16.8888    3.3527 C   0  0  0  0  0  0  0  0  0  0  0  0
    6.7623   18.2999    3.0892 C   0  0  0  0  0  0  0  0  0  0  0  0
    6.5192   19.3093    3.9379 C   0  0  0  0  0  0  0  0  0  0  0  0
    3.9208   17.2115    3.8925 N   0  0  0  0  0  0  0  0  0  0  0  0
    2.9037   16.3948    3.5702 C   0  0  0  0  0  0  0  0  0  0  0  0
    1.7425   16.9341    3.0662 N   0  3  0  0  0  0  0  0  0  0  0  0
    1.6661   17.9027    2.7595 H   0  0  0  0  0  0  0  0  0  0  0  0
    0.6548   16.0878    2.7953 N   0  0  0  0  0  0  0  0  0  0  0  0
    2.9884   15.0642    3.7171 N   0  0  0  0  0  0  0  0  0  0  0  0
    3.7840   18.2029    3.7340 H   0  0  0  0  0  0  0  0  0  0  0  0
   -0.0499   16.1872    3.5366 H   0  0  0  0  0  0  0  0  0  0  0  0
    0.1985   16.3793    1.9217 H   0  0  0  0  0  0  0  0  0  0  0  0
    3.8128   14.6037    4.0698 H   0  0  0  0  0  0  0  0  0  0  0  0
    2.2400   14.5016    3.3315 H   0  0  0  0  0  0  0  0  0  0  0  0
  1  2  1  0  0  0  0
  1  6  1  0  0  0  0
  2  3  1  0  0  0  0
  3  4  1  0  0  0  0
  3  7  1  6  0  0  0
  4  5  1  0  0  0  0
  5  6  2  0  0  0  0
  7  8  1  0  0  0  0
  7 13  1  0  0  0  0
  8  9  2  0  0  0  0
  8 12  1  0  0  0  0
  9 10  1  0  0  0  0
  9 11  1  0  0  0  0
 11 14  1  0  0  0  0
 11 15  1  0  0  0  0
 12 16  1  0  0  0  0
 12 17  1  0  0  0  0
M  CHG  1   9   1
M  END
>  <CHROM.0>
-59.17144331,-62.53799025,-62.99578470,-49.05936054,-57.48173474,57.09482273
-69.27976492,-174.44278406,-168.28018067

>  <CHROM.1>
-132.76274435,103.32009204,4.29843931,17.21080272,3.86765528,0.47372714,-0.18123009
0.12604293

>  <Name>
P131557109

>  <RI>
3.58524e+07

>  <Rbt.Current_Directory>
/home/fstefaniak/projects/zuza/docking/adenine/4XNR

>  <Rbt.Executable>
rbdock ($Id: //depot/dev/client3/rdock/2013.1/src/exe/rbdock.cxx#4 $)

>  <Rbt.Library>
libRbt.so (2013.1, Build901 2013/11/27)

>  <Rbt.Parameter_File>
/home/fstefaniak/progs/rDock//data/scripts/dock_solv.prm

>  <Rbt.Receptor>
4xnr.prm

>  <SCORE>
-42.0883

>  <SCORE.INTER>
-22.3331

>  <SCORE.INTER.CONST>
1

>  <SCORE.INTER.POLAR>
-2.15041

>  <SCORE.INTER.ROT>
2

>  <SCORE.INTER.SOLV>
15.0581

>  <SCORE.INTER.VDW>
-17.6734

>  <SCORE.INTER.norm>
-2.03028

>  <SCORE.INTRA>
-0.0696582

>  <SCORE.INTRA.DIHEDRAL>
0.258114

>  <SCORE.INTRA.DIHEDRAL.0>
3.12423

>  <SCORE.INTRA.POLAR>
-0.00682269

>  <SCORE.INTRA.POLAR.0>
-0.02985

>  <SCORE.INTRA.REPUL>
0

>  <SCORE.INTRA.REPUL.0>
0

>  <SCORE.INTRA.SOLV>
-0.189216

>  <SCORE.INTRA.SOLV.lig_0>
-26.9231

>  <SCORE.INTRA.VDW>
-0.0809103

>  <SCORE.INTRA.VDW.0>
-0.988517

>  <SCORE.INTRA.norm>
-0.00633256

>  <SCORE.RESTR>
0

>  <SCORE.RESTR.CAVITY>
0

>  <SCORE.RESTR.norm>
0

>  <SCORE.SYSTEM>
-19.6855

>  <SCORE.SYSTEM.CONST>
0

>  <SCORE.SYSTEM.DIHEDRAL>
3.9693

>  <SCORE.SYSTEM.POLAR>
-2.94983

>  <SCORE.SYSTEM.SOLV>
0.0191655

>  <SCORE.SYSTEM.VDW>
-4.62041

>  <SCORE.SYSTEM.norm>
-1.7896

>  <SCORE.heavy>
11

>  <SCORE.norm>
-3.82621

$$$$
P131664782
 OpenBabel12072022113D
libRbt.so/2013.1/901 2013/11/27
 16 16  0  0  0  0  0  0  0  0999 V2000
    7.2342   18.6084    1.1026 C   0  0  0  0  0  0  0  0  0  0  0  0
    6.1367   18.1423    2.0391 C   0  0  0  0  0  0  0  0  0  0  0  0
    5.1458   17.5055    1.4806 N   0  0  0  0  0  0  0  0  0  0  0  0
    4.1297   17.0695    2.3311 N   0  0  0  0  0  0  0  0  0  0  0  0
    4.4806   16.0333    3.0227 C   0  0  0  0  0  0  0  0  0  0  0  0
    5.6784   15.4025    2.9566 N   0  0  0  0  0  0  0  0  0  0  0  0
    3.6698   15.4367    3.9249 N   0  0  0  0  0  0  0  0  0  0  0  0
    6.3209   18.4493    3.4479 C   0  0  0  0  0  0  0  0  0  0  0  0
    5.4914   18.4452    4.5566 C   0  0  0  0  0  0  0  0  0  0  0  0
    6.2699   18.8424    5.6709 C   0  0  0  0  0  0  0  0  0  0  0  0
    7.5332   19.0699    5.1872 C   0  0  0  0  0  0  0  0  0  0  0  0
    7.5771   18.8403    3.8520 O   0  0  0  0  0  0  0  0  0  0  0  0
    6.0555   15.3772    3.9030 H   0  0  0  0  0  0  0  0  0  0  0  0
    5.5848   14.4636    2.5904 H   0  0  0  0  0  0  0  0  0  0  0  0
    3.9965   14.5023    4.1452 H   0  0  0  0  0  0  0  0  0  0  0  0
    3.5627   15.9964    4.7622 H   0  0  0  0  0  0  0  0  0  0  0  0
  1  2  1  0  0  0  0
  2  3  2  0  0  0  0
  2  8  1  0  0  0  0
  3  4  1  0  0  0  0
  4  5  2  0  0  0  0
  5  6  1  0  0  0  0
  5  7  1  0  0  0  0
  6 13  1  0  0  0  0
  6 14  1  0  0  0  0
  7 15  1  0  0  0  0
  7 16  1  0  0  0  0
  8  9  2  0  0  0  0
  8 12  1  0  0  0  0
  9 10  1  0  0  0  0
 10 11  2  0  0  0  0
 11 12  1  0  0  0  0
M  END
>  <CHROM.0>
-58.54771414,-163.36141184,-74.78660022,-48.97052541,-174.73428288,-62.97103401
-170.36763509,-178.02142524,-168.25955686

>  <CHROM.1>
165.26258851,-75.14674761,125.02632378,162.44875186,5.80590778,17.59543526
3.28795469,-0.37909611,-0.81472816,-1.66067666

>  <Name>
P131664782

>  <RI>
9.71178e+06

>  <Rbt.Current_Directory>
/home/fstefaniak/projects/zuza/docking/adenine/4XNR

>  <Rbt.Executable>
rbdock ($Id: //depot/dev/client3/rdock/2013.1/src/exe/rbdock.cxx#4 $)

>  <Rbt.Library>
libRbt.so (2013.1, Build901 2013/11/27)

>  <Rbt.Parameter_File>
/home/fstefaniak/progs/rDock//data/scripts/dock_solv.prm

>  <Rbt.Receptor>
4xnr.prm

>  <SCORE>
-58.7857

>  <SCORE.INTER>
-41.8982

>  <SCORE.INTER.CONST>
1

>  <SCORE.INTER.POLAR>
-5.61743

>  <SCORE.INTER.ROT>
4

>  <SCORE.INTER.SOLV>
13.7055

>  <SCORE.INTER.VDW>
-20.0425

>  <SCORE.INTER.norm>
-3.49152

>  <SCORE.INTRA>
2.8138

>  <SCORE.INTRA.DIHEDRAL>
3.67353

>  <SCORE.INTRA.DIHEDRAL.0>
1.04121

>  <SCORE.INTRA.POLAR>
0.184672

>  <SCORE.INTRA.POLAR.0>
-0.184672

>  <SCORE.INTRA.REPUL>
0

>  <SCORE.INTRA.REPUL.0>
0

>  <SCORE.INTRA.SOLV>
1.86761

>  <SCORE.INTRA.SOLV.lig_0>
-15.2379

>  <SCORE.INTRA.VDW>
-0.584647

>  <SCORE.INTRA.VDW.0>
0.0418228

>  <SCORE.INTRA.norm>
0.234484

>  <SCORE.RESTR>
0

>  <SCORE.RESTR.CAVITY>
0

>  <SCORE.RESTR.norm>
0

>  <SCORE.SYSTEM>
-19.7013

>  <SCORE.SYSTEM.CONST>
0

>  <SCORE.SYSTEM.DIHEDRAL>
6.12359

>  <SCORE.SYSTEM.POLAR>
-2.92276

>  <SCORE.SYSTEM.SOLV>
-0.120685

>  <SCORE.SYSTEM.VDW>
-5.39263

>  <SCORE.SYSTEM.norm>
-1.64177

>  <SCORE.heavy>
12

>  <SCORE.norm>
-4.89881

$$$$
P131664782
 OpenBabel12072022113D
libRbt.so/2013.1/901 2013/11/27
 16 16  0  0  0  0  0  0  0  0999 V2000
    7.0697   18.1274    1.8245 C   0  0  0  0  0  0  0  0  0  0  0  0
    6.1006   17.6325    2.8803 C   0  0  0  0  0  0  0  0  0  0  0  0
    5.3392   16.6343    2.5294 N   0  0  0  0  0  0  0  0  0  0  0  0
    4.4439   16.1678    3.4921 N   0  0  0  0  0  0  0  0  0  0  0  0
    3.3123   16.7947    3.4535 C   0  0  0  0  0  0  0  0  0  0  0  0
    2.9900   17.8006    2.6041 N   0  0  0  0  0  0  0  0  0  0  0  0
    2.2812   16.5121    4.2806 N   0  0  0  0  0  0  0  0  0  0  0  0
    6.1399   18.3193    4.1609 C   0  0  0  0  0  0  0  0  0  0  0  0
    6.7213   19.4915    4.6138 C   0  0  0  0  0  0  0  0  0  0  0  0
    6.3914   19.6273    5.9843 C   0  0  0  0  0  0  0  0  0  0  0  0
    5.6275   18.5323    6.2990 C   0  0  0  0  0  0  0  0  0  0  0  0
    5.4711   17.7365    5.2131 O   0  0  0  0  0  0  0  0  0  0  0  0
    2.8510   18.6367    3.1701 H   0  0  0  0  0  0  0  0  0  0  0  0
    3.7185   17.9571    1.9191 H   0  0  0  0  0  0  0  0  0  0  0  0
    2.6058   16.0433    5.1192 H   0  0  0  0  0  0  0  0  0  0  0  0
    1.7425   17.3396    4.5063 H   0  0  0  0  0  0  0  0  0  0  0  0
  1  2  1  0  0  0  0
  2  3  2  0  0  0  0
  2  8  1  0  0  0  0
  3  4  1  0  0  0  0
  4  5  2  0  0  0  0
  5  6  1  0  0  0  0
  5  7  1  0  0  0  0
  6 13  1  0  0  0  0
  6 14  1  0  0  0  0
  7 15  1  0  0  0  0
  7 16  1  0  0  0  0
  8  9  2  0  0  0  0
  8 12  1  0  0  0  0
  9 10  1  0  0  0  0
 10 11  2  0  0  0  0
 11 12  1  0  0  0  0
M  END
>  <CHROM.0>
-58.93567547,-170.34524551,-63.72900302,-48.30349115,-62.49539574,-177.17156894
-66.23357550,-57.78506612,-168.17398067

>  <CHROM.1>
12.41579836,88.56698565,-115.06337146,21.92900137,5.09363456,17.75755852
3.92627428,-0.56797177,-0.43153624,-1.92593204

>  <Name>
P131664782

>  <RI>
9.71178e+06

>  <Rbt.Current_Directory>
/home/fstefaniak/projects/zuza/docking/adenine/4XNR

>  <Rbt.Executable>
rbdock ($Id: //depot/dev/client3/rdock/2013.1/src/exe/rbdock.cxx#4 $)

>  <Rbt.Library>
libRbt.so (2013.1, Build901 2013/11/27)

>  <Rbt.Parameter_File>
/home/fstefaniak/progs/rDock//data/scripts/dock_solv.prm

>  <Rbt.Receptor>
4xnr.prm

>  <SCORE>
-58.5599

>  <SCORE.INTER>
-40.4214

>  <SCORE.INTER.CONST>
1

>  <SCORE.INTER.POLAR>
-5.32004

>  <SCORE.INTER.ROT>
4

>  <SCORE.INTER.SOLV>
12.8195

>  <SCORE.INTER.VDW>
-19.754

>  <SCORE.INTER.norm>
-3.36845

>  <SCORE.INTRA>
2.24677

>  <SCORE.INTRA.DIHEDRAL>
3.62156

>  <SCORE.INTRA.DIHEDRAL.0>
1.04121

>  <SCORE.INTRA.POLAR>
0.166743

>  <SCORE.INTRA.POLAR.0>
-0.184672

>  <SCORE.INTRA.REPUL>
0

>  <SCORE.INTRA.REPUL.0>
0

>  <SCORE.INTRA.SOLV>
1.78629

>  <SCORE.INTRA.SOLV.lig_0>
-15.2379

>  <SCORE.INTRA.VDW>
-1.02409

>  <SCORE.INTRA.VDW.0>
0.0418228

>  <SCORE.INTRA.norm>
0.18723

>  <SCORE.RESTR>
0

>  <SCORE.RESTR.CAVITY>
0

>  <SCORE.RESTR.norm>
0

>  <SCORE.SYSTEM>
-20.3853

>  <SCORE.SYSTEM.CONST>
0

>  <SCORE.SYSTEM.DIHEDRAL>
4.16191

>  <SCORE.SYSTEM.POLAR>
-2.96462

>  <SCORE.SYSTEM.SOLV>
0.14784

>  <SCORE.SYSTEM.VDW>
-5.14467

>  <SCORE.SYSTEM.norm>
-1.69877

>  <SCORE.heavy>
12

>  <SCORE.norm>
-4.87999

$$$$
P131664782
 OpenBabel12072022113D
libRbt.so/2013.1/901 2013/11/27
 16 16  0  0  0  0  0  0  0  0999 V2000
    7.3216   18.5175    1.0988 C   0  0  0  0  0  0  0  0  0  0  0  0
    6.1609   18.1142    1.9871 C   0  0  0  0  0  0  0  0  0  0  0  0
    5.1720   17.5101    1.3903 N   0  0  0  0  0  0  0  0  0  0  0  0
    4.0980   17.1319    2.1963 N   0  0  0  0  0  0  0  0  0  0  0  0
    4.3780   16.1081    2.9369 C   0  0  0  0  0  0  0  0  0  0  0  0
    5.5570   15.4399    2.9557 N   0  0  0  0  0  0  0  0  0  0  0  0
    3.5011   15.5649    3.8105 N   0  0  0  0  0  0  0  0  0  0  0  0
    6.2896   18.4374    3.3985 C   0  0  0  0  0  0  0  0  0  0  0  0
    5.4500   18.3387    4.4952 C   0  0  0  0  0  0  0  0  0  0  0  0
    6.1632   18.8184    5.6206 C   0  0  0  0  0  0  0  0  0  0  0  0
    7.4000   19.1865    5.1551 C   0  0  0  0  0  0  0  0  0  0  0  0
    7.4883   18.9656    3.8207 O   0  0  0  0  0  0  0  0  0  0  0  0
    5.8749   15.4217    3.9238 H   0  0  0  0  0  0  0  0  0  0  0  0
    5.4561   14.4971    2.6013 H   0  0  0  0  0  0  0  0  0  0  0  0
    3.7219   14.5915    3.9894 H   0  0  0  0  0  0  0  0  0  0  0  0
    3.4509   16.0955    4.6718 H   0  0  0  0  0  0  0  0  0  0  0  0
  1  2  1  0  0  0  0
  2  3  2  0  0  0  0
  2  8  1  0  0  0  0
  3  4  1  0  0  0  0
  4  5  2  0  0  0  0
  5  6  1  0  0  0  0
  5  7  1  0  0  0  0
  6 13  1  0  0  0  0
  6 14  1  0  0  0  0
  7 15  1  0  0  0  0
  7 16  1  0  0  0  0
  8  9  2  0  0  0  0
  8 12  1  0  0  0  0
  9 10  1  0  0  0  0
 10 11  2  0  0  0  0
 11 12  1  0  0  0  0
M  END
>  <CHROM.0>
-60.93363607,-163.83209065,60.46375873,-47.88044605,-58.32608529,-61.18032796
51.97727851,-177.81360172,-166.59425449

>  <CHROM.1>
174.38282752,-74.02840516,125.81074004,155.54257071,5.74615528,17.62193521
3.22980991,-0.42462804,-0.78072705,-1.72046652

>  <Name>
P131664782

>  <RI>
9.71178e+06

>  <Rbt.Current_Directory>
/home/fstefaniak/projects/zuza/docking/adenine/4XNR

>  <Rbt.Executable>
rbdock ($Id: //depot/dev/client3/rdock/2013.1/src/exe/rbdock.cxx#4 $)

>  <Rbt.Library>
libRbt.so (2013.1, Build901 2013/11/27)

>  <Rbt.Parameter_File>
/home/fstefaniak/progs/rDock//data/scripts/dock_solv.prm

>  <Rbt.Receptor>
4xnr.prm

>  <SCORE>
-57.2596

>  <SCORE.INTER>
-41.8798

>  <SCORE.INTER.CONST>
1

>  <SCORE.INTER.POLAR>
-5.48359

>  <SCORE.INTER.ROT>
4

>  <SCORE.INTER.SOLV>
13.5083

>  <SCORE.INTER.VDW>
-20.4106

>  <SCORE.INTER.norm>
-3.48998

>  <SCORE.INTRA>
2.85933

>  <SCORE.INTRA.DIHEDRAL>
2.9974

>  <SCORE.INTRA.DIHEDRAL.0>
1.04121

>  <SCORE.INTRA.POLAR>
0.184672

>  <SCORE.INTRA.POLAR.0>
-0.184672

>  <SCORE.INTRA.REPUL>
0

>  <SCORE.INTRA.REPUL.0>
0

>  <SCORE.INTRA.SOLV>
1.94313

>  <SCORE.INTRA.SOLV.lig_0>
-15.2379

>  <SCORE.INTRA.VDW>
-0.238818

>  <SCORE.INTRA.VDW.0>
0.0418228

>  <SCORE.INTRA.norm>
0.238278

>  <SCORE.RESTR>
0

>  <SCORE.RESTR.CAVITY>
0

>  <SCORE.RESTR.norm>
0

>  <SCORE.SYSTEM>
-18.2392

>  <SCORE.SYSTEM.CONST>
0

>  <SCORE.SYSTEM.DIHEDRAL>
5.12639

>  <SCORE.SYSTEM.POLAR>
-2.93579

>  <SCORE.SYSTEM.SOLV>
0.0209547

>  <SCORE.SYSTEM.VDW>
-4.08926

>  <SCORE.SYSTEM.norm>
-1.51993

>  <SCORE.heavy>
12

>  <SCORE.norm>
-4.77164

$$$$
P132005043
 OpenBabel12072022113D
libRbt.so/2013.1/901 2013/11/27
 14 14  0  0  0  0  0  0  0  0999 V2000
    1.1739   12.4071    3.5087 C   0  0  0  0  0  0  0  0  0  0  0  0
    1.0618   13.9250    3.5371 C   0  0  0  0  0  0  0  0  0  0  0  0
    2.3277   14.5882    4.0589 C   0  0  0  0  0  0  0  0  0  0  0  0
    3.5996   14.5825    3.1724 C   0  0  0  0  0  0  0  0  0  0  0  0
    3.6657   16.0190    3.3670 N   0  0  0  0  0  0  0  0  0  0  0  0
    2.3694   16.1393    4.0081 C   0  0  0  0  0  0  0  0  0  0  0  0
    4.7680   16.8148    3.4273 C   0  0  0  0  0  0  0  0  0  0  0  0
    5.5336   16.9963    2.4882 O   0  0  0  0  0  0  0  0  0  0  0  0
    4.8987   17.3911    4.6534 O   0  0  0  0  0  0  0  0  0  0  0  0
    5.9968   18.3012    4.8001 C   0  0  0  0  0  0  0  0  0  0  0  0
    6.0922   18.7922    6.2329 C   0  0  0  0  0  0  0  0  0  0  0  0
    2.6882   14.1675    5.4308 N   0  0  0  0  0  0  0  0  0  0  0  0
    1.9078   14.1510    6.0857 H   0  0  0  0  0  0  0  0  0  0  0  0
    3.4147   14.7351    5.8650 H   0  0  0  0  0  0  0  0  0  0  0  0
  1  2  1  0  0  0  0
  2  3  1  0  0  0  0
  3  4  1  0  0  0  0
  3  6  1  0  0  0  0
  3 12  1  0  0  0  0
  4  5  1  0  0  0  0
  5  6  1  0  0  0  0
  5  7  1  0  0  0  0
  7  8  2  0  0  0  0
  7  9  1  0  0  0  0
  9 10  1  0  0  0  0
 10 11  1  0  0  0  0
 12 13  1  0  0  0  0
 12 14  1  0  0  0  0
M  END
>  <CHROM.0>
-56.73112872,175.97751980,-64.44988851,-46.07423892,57.35941275,-65.77211767
-66.63618944,-55.79804910,-168.25243605

>  <CHROM.1>
71.33581787,-45.25241665,64.94471831,-177.12775890,-175.80105335,3.70719914
15.85884982,4.08518528,2.80491618,-0.79104126,-1.81981188

>  <Name>
P132005043

>  <RI>
4.17015e+07

>  <Rbt.Current_Directory>
/home/fstefaniak/projects/zuza/docking/adenine/4XNR

>  <Rbt.Executable>
rbdock ($Id: //depot/dev/client3/rdock/2013.1/src/exe/rbdock.cxx#4 $)

>  <Rbt.Library>
libRbt.so (2013.1, Build901 2013/11/27)

>  <Rbt.Parameter_File>
/home/fstefaniak/progs/rDock//data/scripts/dock_solv.prm

>  <Rbt.Receptor>
4xnr.prm

>  <SCORE>
-48.3184

>  <SCORE.INTER>
-27.0458

>  <SCORE.INTER.CONST>
1

>  <SCORE.INTER.POLAR>
-3.63108

>  <SCORE.INTER.ROT>
5

>  <SCORE.INTER.SOLV>
9.83409

>  <SCORE.INTER.VDW>
-16.1383

>  <SCORE.INTER.norm>
-2.25382

>  <SCORE.INTRA>
-1.6945

>  <SCORE.INTRA.DIHEDRAL>
-2.41842

>  <SCORE.INTRA.DIHEDRAL.0>
3.6382

>  <SCORE.INTRA.POLAR>
0

>  <SCORE.INTRA.POLAR.0>
0

>  <SCORE.INTRA.REPUL>
0

>  <SCORE.INTRA.REPUL.0>
0

>  <SCORE.INTRA.SOLV>
-0.107919

>  <SCORE.INTRA.SOLV.lig_0>
-9.88095

>  <SCORE.INTRA.VDW>
-0.431333

>  <SCORE.INTRA.VDW.0>
1.05056

>  <SCORE.INTRA.norm>
-0.141208

>  <SCORE.RESTR>
0

>  <SCORE.RESTR.CAVITY>
0

>  <SCORE.RESTR.norm>
0

>  <SCORE.SYSTEM>
-19.5781

>  <SCORE.SYSTEM.CONST>
0

>  <SCORE.SYSTEM.DIHEDRAL>
4.3145

>  <SCORE.SYSTEM.POLAR>
-3.02342

>  <SCORE.SYSTEM.SOLV>
0.0699683

>  <SCORE.SYSTEM.VDW>
-4.4355

>  <SCORE.SYSTEM.norm>
-1.63151

>  <SCORE.heavy>
12

>  <SCORE.norm>
-4.02654

$$$$
P132005043
 OpenBabel12072022113D
libRbt.so/2013.1/901 2013/11/27
 14 14  0  0  0  0  0  0  0  0999 V2000
    1.1642   12.4153    3.4647 C   0  0  0  0  0  0  0  0  0  0  0  0
    1.0576   13.9332    3.5083 C   0  0  0  0  0  0  0  0  0  0  0  0
    2.3187   14.5855    4.0548 C   0  0  0  0  0  0  0  0  0  0  0  0
    3.6111   14.5574    3.1989 C   0  0  0  0  0  0  0  0  0  0  0  0
    3.6900   15.9946    3.3837 N   0  0  0  0  0  0  0  0  0  0  0  0
    2.3804   16.1356    3.9928 C   0  0  0  0  0  0  0  0  0  0  0  0
    4.8002   16.7776    3.4639 C   0  0  0  0  0  0  0  0  0  0  0  0
    5.6031   16.9229    2.5500 O   0  0  0  0  0  0  0  0  0  0  0  0
    4.8923   17.3866    4.6777 O   0  0  0  0  0  0  0  0  0  0  0  0
    5.9765   18.3125    4.8293 C   0  0  0  0  0  0  0  0  0  0  0  0
    6.0647   18.7970    6.2648 C   0  0  0  0  0  0  0  0  0  0  0  0
    2.6415   14.1719    5.4382 N   0  0  0  0  0  0  0  0  0  0  0  0
    1.8505   14.1926    6.0801 H   0  0  0  0  0  0  0  0  0  0  0  0
    3.3807   14.7193    5.8768 H   0  0  0  0  0  0  0  0  0  0  0  0
  1  2  1  0  0  0  0
  2  3  1  0  0  0  0
  3  4  1  0  0  0  0
  3  6  1  0  0  0  0
  3 12  1  0  0  0  0
  4  5  1  0  0  0  0
  5  6  1  0  0  0  0
  5  7  1  0  0  0  0
  7  8  2  0  0  0  0
  7  9  1  0  0  0  0
  9 10  1  0  0  0  0
 10 11  1  0  0  0  0
 12 13  1  0  0  0  0
 12 14  1  0  0  0  0
M  END
>  <CHROM.0>
-58.61187336,176.07022185,-64.02019342,176.36327108,-60.89958858,-59.43832864
-69.37540183,-57.14164345,-167.64812774

>  <CHROM.1>
70.02175099,-46.71605291,63.54047673,-175.57970886,-173.44154375,3.70892499
15.84776042,4.09733572,-2.75813449,0.77224662,1.26862932

>  <Name>
P132005043

>  <RI>
4.17015e+07

>  <Rbt.Current_Directory>
/home/fstefaniak/projects/zuza/docking/adenine/4XNR

>  <Rbt.Executable>
rbdock ($Id: //depot/dev/client3/rdock/2013.1/src/exe/rbdock.cxx#4 $)

>  <Rbt.Library>
libRbt.so (2013.1, Build901 2013/11/27)

>  <Rbt.Parameter_File>
/home/fstefaniak/progs/rDock//data/scripts/dock_solv.prm

>  <Rbt.Receptor>
4xnr.prm

>  <SCORE>
-46.8542

>  <SCORE.INTER>
-27.21

>  <SCORE.INTER.CONST>
1

>  <SCORE.INTER.POLAR>
-3.63652

>  <SCORE.INTER.ROT>
5

>  <SCORE.INTER.SOLV>
9.88615

>  <SCORE.INTER.VDW>
-16.247

>  <SCORE.INTER.norm>
-2.2675

>  <SCORE.INTRA>
-1.62107

>  <SCORE.INTRA.DIHEDRAL>
-2.28369

>  <SCORE.INTRA.DIHEDRAL.0>
3.6382

>  <SCORE.INTRA.POLAR>
0

>  <SCORE.INTRA.POLAR.0>
0

>  <SCORE.INTRA.REPUL>
0

>  <SCORE.INTRA.REPUL.0>
0

>  <SCORE.INTRA.SOLV>
-0.105743

>  <SCORE.INTRA.SOLV.lig_0>
-9.88095

>  <SCORE.INTRA.VDW>
-0.42635

>  <SCORE.INTRA.VDW.0>
1.05056

>  <SCORE.INTRA.norm>
-0.135089

>  <SCORE.RESTR>
0.00597629

>  <SCORE.RESTR.CAVITY>
0.00597629

>  <SCORE.RESTR.norm>
0.000498024

>  <SCORE.SYSTEM>
-18.0291

>  <SCORE.SYSTEM.CONST>
0

>  <SCORE.SYSTEM.DIHEDRAL>
3.46278

>  <SCORE.SYSTEM.POLAR>
-2.42171

>  <SCORE.SYSTEM.SOLV>
0.0866967

>  <SCORE.SYSTEM.VDW>
-5.13015

>  <SCORE.SYSTEM.norm>
-1.50242

>  <SCORE.heavy>
12

>  <SCORE.norm>
-3.90451

$$$$
P132005043
 OpenBabel12072022113D
libRbt.so/2013.1/901 2013/11/27
 14 14  0  0  0  0  0  0  0  0999 V2000
    0.2706   13.0558    3.9102 C   0  0  0  0  0  0  0  0  0  0  0  0
    1.7226   12.9254    3.4722 C   0  0  0  0  0  0  0  0  0  0  0  0
    2.6229   13.9520    4.1431 C   0  0  0  0  0  0  0  0  0  0  0  0
    4.0612   14.1582    3.6024 C   0  0  0  0  0  0  0  0  0  0  0  0
    3.7630   15.5764    3.5285 N   0  0  0  0  0  0  0  0  0  0  0  0
    2.3453   15.4423    3.8078 C   0  0  0  0  0  0  0  0  0  0  0  0
    4.6095   16.6288    3.6956 C   0  0  0  0  0  0  0  0  0  0  0  0
    4.6511   17.3203    4.7061 O   0  0  0  0  0  0  0  0  0  0  0  0
    5.4091   16.8014    2.6077 O   0  0  0  0  0  0  0  0  0  0  0  0
    6.3953   17.8363    2.7174 C   0  0  0  0  0  0  0  0  0  0  0  0
    6.9877   18.1521    1.3564 C   0  0  0  0  0  0  0  0  0  0  0  0
    2.6707   13.8179    5.6158 N   0  0  0  0  0  0  0  0  0  0  0  0
    2.0473   13.1067    5.9950 H   0  0  0  0  0  0  0  0  0  0  0  0
    2.4646   14.6785    6.1212 H   0  0  0  0  0  0  0  0  0  0  0  0
  1  2  1  0  0  0  0
  2  3  1  0  0  0  0
  3  4  1  0  0  0  0
  3  6  1  0  0  0  0
  3 12  1  0  0  0  0
  4  5  1  0  0  0  0
  5  6  1  0  0  0  0
  5  7  1  0  0  0  0
  7  8  2  0  0  0  0
  7  9  1  0  0  0  0
  9 10  1  0  0  0  0
 10 11  1  0  0  0  0
 12 13  1  0  0  0  0
 12 14  1  0  0  0  0
M  END
>  <CHROM.0>
-58.85300783,173.17258922,-57.68321132,-42.83059063,58.68999921,-57.87846750
-64.63232860,-177.90297118,-168.36605529

>  <CHROM.1>
-167.45648946,-4.27958384,-103.81334569,-176.32795530,-166.50961603,3.80513621
15.49612095,3.60806572,3.09489311,0.78751961,1.25387073

>  <Name>
P132005043

>  <RI>
4.17015e+07

>  <Rbt.Current_Directory>
/home/fstefaniak/projects/zuza/docking/adenine/4XNR

>  <Rbt.Executable>
rbdock ($Id: //depot/dev/client3/rdock/2013.1/src/exe/rbdock.cxx#4 $)

>  <Rbt.Library>
libRbt.so (2013.1, Build901 2013/11/27)

>  <Rbt.Parameter_File>
/home/fstefaniak/progs/rDock//data/scripts/dock_solv.prm

>  <Rbt.Receptor>
4xnr.prm

>  <SCORE>
-46.8457

>  <SCORE.INTER>
-28.237

>  <SCORE.INTER.CONST>
1

>  <SCORE.INTER.POLAR>
-3.89763

>  <SCORE.INTER.ROT>
5

>  <SCORE.INTER.SOLV>
10.6122

>  <SCORE.INTER.VDW>
-16.3033

>  <SCORE.INTER.norm>
-2.35308

>  <SCORE.INTRA>
0.353154

>  <SCORE.INTRA.DIHEDRAL>
0.204811

>  <SCORE.INTRA.DIHEDRAL.0>
3.6382

>  <SCORE.INTRA.POLAR>
0

>  <SCORE.INTRA.POLAR.0>
0

>  <SCORE.INTRA.REPUL>
0

>  <SCORE.INTRA.REPUL.0>
0

>  <SCORE.INTRA.SOLV>
-0.0356035

>  <SCORE.INTRA.SOLV.lig_0>
-9.88095

>  <SCORE.INTRA.VDW>
0.268551

>  <SCORE.INTRA.VDW.0>
1.05056

>  <SCORE.INTRA.norm>
0.0294295

>  <SCORE.RESTR>
0

>  <SCORE.RESTR.CAVITY>
0

>  <SCORE.RESTR.norm>
0

>  <SCORE.SYSTEM>
-18.9619

>  <SCORE.SYSTEM.CONST>
0

>  <SCORE.SYSTEM.DIHEDRAL>
4.45682

>  <SCORE.SYSTEM.POLAR>
-3.05782

>  <SCORE.SYSTEM.SOLV>
-0.034285

>  <SCORE.SYSTEM.VDW>
-3.92273

>  <SCORE.SYSTEM.norm>
-1.58016

>  <SCORE.heavy>
12

>  <SCORE.norm>
-3.90381

$$$$
P132137500
 OpenBabel12072022113D
libRbt.so/2013.1/901 2013/11/27
 17 18  0  0  0  0  0  0  0  0999 V2000
    2.9514   11.5660    3.5327 C   0  0  0  0  0  0  0  0  0  0  0  0
    1.8154   12.5037    4.0040 C   0  0  2  0  0  0  0  0  0  0  0  0
    0.7150   11.6425    4.6617 C   0  0  0  0  0  0  0  0  0  0  0  0
   -0.4851   11.6565    3.7169 C   0  0  0  0  0  0  0  0  0  0  0  0
   -0.3110   12.8549    2.8651 N   0  3  0  0  0  0  0  0  0  0  0  0
   -0.7875   12.7805    1.9604 H   0  0  0  0  0  0  0  0  0  0  0  0
   -0.8648   13.6649    3.2937 H   0  0  0  0  0  0  0  0  0  0  0  0
    1.1575   13.1189    2.7570 C   0  0  0  0  0  0  0  0  0  0  0  0
    2.4518   13.5692    4.9677 C   0  0  0  0  0  0  0  0  0  0  0  0
    2.4541   14.7671    4.6728 O   0  0  0  0  0  0  0  0  0  0  0  0
    3.0391   13.2095    6.1583 N   0  0  0  0  0  0  0  0  0  0  0  0
    3.0060   11.8746    6.7055 C   0  0  1  0  0  0  0  0  0  0  0  0
    4.1402   10.8534    6.7757 C   0  0  0  0  0  0  0  0  0  0  0  0
    3.3472   10.2947    8.0382 C   0  0  1  0  0  0  0  0  0  0  0  0
    3.0041   11.7851    8.2703 C   0  0  0  0  0  0  0  0  0  0  0  0
    2.1768    9.5892    7.7454 O   0  5  0  0  0  0  0  0  0  0  0  0
    3.4145   13.9859    6.6933 H   0  0  0  0  0  0  0  0  0  0  0  0
  2  1  1  6  0  0  0
  2  3  1  0  0  0  0
  2  8  1  0  0  0  0
  2  9  1  0  0  0  0
  3  4  1  0  0  0  0
  4  5  1  0  0  0  0
  5  6  1  0  0  0  0
  5  7  1  0  0  0  0
  5  8  1  0  0  0  0
  9 10  2  0  0  0  0
  9 11  1  0  0  0  0
 11 17  1  0  0  0  0
 12 11  1  1  0  0  0
 12 13  1  0  0  0  0
 12 15  1  0  0  0  0
 13 14  1  0  0  0  0
 14 15  1  0  0  0  0
 14 16  1  6  0  0  0
M  CHG  2   5   1  16  -1
M  END
>  <CHROM.0>
-57.15599885,69.50683901,-71.41653276,-47.59529985,-57.98208441,-61.91304597
-173.23002248,-62.32197598,-167.89489398

>  <CHROM.1>
116.11174123,106.50679832,2.07848195,12.10282478,5.33215434,2.23131964,-0.73237595
-0.64847988

>  <Name>
P132137500

>  <RI>
1.34432e+07

>  <Rbt.Current_Directory>
/home/fstefaniak/projects/zuza/docking/adenine/4XNR

>  <Rbt.Executable>
rbdock ($Id: //depot/dev/client3/rdock/2013.1/src/exe/rbdock.cxx#4 $)

>  <Rbt.Library>
libRbt.so (2013.1, Build901 2013/11/27)

>  <Rbt.Parameter_File>
/home/fstefaniak/progs/rDock//data/scripts/dock_solv.prm

>  <Rbt.Receptor>
4xnr.prm

>  <SCORE>
-38.3158

>  <SCORE.INTER>
-15.387

>  <SCORE.INTER.CONST>
1

>  <SCORE.INTER.POLAR>
-2.70991

>  <SCORE.INTER.ROT>
2

>  <SCORE.INTER.SOLV>
12.6794

>  <SCORE.INTER.VDW>
-10.3847

>  <SCORE.INTER.norm>
-1.09907

>  <SCORE.INTRA>
-4.76095

>  <SCORE.INTRA.DIHEDRAL>
0.353724

>  <SCORE.INTRA.DIHEDRAL.0>
1.03468

>  <SCORE.INTRA.POLAR>
0

>  <SCORE.INTRA.POLAR.0>
0

>  <SCORE.INTRA.REPUL>
0

>  <SCORE.INTRA.REPUL.0>
0

>  <SCORE.INTRA.SOLV>
-9.77776

>  <SCORE.INTRA.SOLV.lig_0>
-45.2568

>  <SCORE.INTRA.VDW>
-0.0489301

>  <SCORE.INTRA.VDW.0>
-0.666104

>  <SCORE.INTRA.norm>
-0.340068

>  <SCORE.RESTR>
0.90197

>  <SCORE.RESTR.CAVITY>
0.90197

>  <SCORE.RESTR.norm>
0.0644264

>  <SCORE.SYSTEM>
-19.0698

>  <SCORE.SYSTEM.CONST>
0

>  <SCORE.SYSTEM.DIHEDRAL>
4.80375

>  <SCORE.SYSTEM.POLAR>
-2.97594

>  <SCORE.SYSTEM.SOLV>
0.267747

>  <SCORE.SYSTEM.VDW>
-4.48392

>  <SCORE.SYSTEM.norm>
-1.36213

>  <SCORE.heavy>
14

>  <SCORE.norm>
-2.73684

$$$$
P132137500
 OpenBabel12072022113D
libRbt.so/2013.1/901 2013/11/27
 17 18  0  0  0  0  0  0  0  0999 V2000
    2.9610   11.5395    3.5552 C   0  0  0  0  0  0  0  0  0  0  0  0
    1.8202   12.4783    4.0123 C   0  0  2  0  0  0  0  0  0  0  0  0
    0.7202   11.6205    4.6751 C   0  0  0  0  0  0  0  0  0  0  0  0
   -0.4764   11.6204    3.7259 C   0  0  0  0  0  0  0  0  0  0  0  0
   -0.3032   12.8102    2.8619 N   0  3  0  0  0  0  0  0  0  0  0  0
   -0.7761   12.7245    1.9563 H   0  0  0  0  0  0  0  0  0  0  0  0
   -0.8613   13.6229    3.2799 H   0  0  0  0  0  0  0  0  0  0  0  0
    1.1648   13.0780    2.7564 C   0  0  0  0  0  0  0  0  0  0  0  0
    2.4494   13.5562    4.9669 C   0  0  0  0  0  0  0  0  0  0  0  0
    2.4504   14.7506    4.6583 O   0  0  0  0  0  0  0  0  0  0  0  0
    3.0319   13.2114    6.1642 N   0  0  0  0  0  0  0  0  0  0  0  0
    2.9992   11.8827    6.7265 C   0  0  1  0  0  0  0  0  0  0  0  0
    4.1248   10.8510    6.7799 C   0  0  0  0  0  0  0  0  0  0  0  0
    3.3576   10.3135    8.0673 C   0  0  1  0  0  0  0  0  0  0  0  0
    3.0348   11.8097    8.2917 C   0  0  0  0  0  0  0  0  0  0  0  0
    2.1736    9.6168    7.8108 O   0  5  0  0  0  0  0  0  0  0  0  0
    3.4029   13.9947    6.6922 H   0  0  0  0  0  0  0  0  0  0  0  0
  2  1  1  6  0  0  0
  2  3  1  0  0  0  0
  2  8  1  0  0  0  0
  2  9  1  0  0  0  0
  3  4  1  0  0  0  0
  4  5  1  0  0  0  0
  5  6  1  0  0  0  0
  5  7  1  0  0  0  0
  5  8  1  0  0  0  0
  9 10  2  0  0  0  0
  9 11  1  0  0  0  0
 11 17  1  0  0  0  0
 12 11  1  1  0  0  0
 12 13  1  0  0  0  0
 12 15  1  0  0  0  0
 13 14  1  0  0  0  0
 14 15  1  0  0  0  0
 14 16  1  6  0  0  0
M  CHG  2   5   1  16  -1
M  END
>  <CHROM.0>
-52.92396978,70.39057608,62.03568263,-45.14464674,60.81529367,-60.54424938
52.84195703,-61.01023457,-167.18823844

>  <CHROM.1>
116.01662514,104.69023594,2.08167473,12.09223652,5.34515837,2.23233591,-0.73680290
-0.65869234

>  <Name>
P132137500

>  <RI>
1.34432e+07

>  <Rbt.Current_Directory>
/home/fstefaniak/projects/zuza/docking/adenine/4XNR

>  <Rbt.Executable>
rbdock ($Id: //depot/dev/client3/rdock/2013.1/src/exe/rbdock.cxx#4 $)

>  <Rbt.Library>
libRbt.so (2013.1, Build901 2013/11/27)

>  <Rbt.Parameter_File>
/home/fstefaniak/progs/rDock//data/scripts/dock_solv.prm

>  <Rbt.Receptor>
4xnr.prm

>  <SCORE>
-36.17

>  <SCORE.INTER>
-15.8047

>  <SCORE.INTER.CONST>
1

>  <SCORE.INTER.POLAR>
-2.73411

>  <SCORE.INTER.ROT>
2

>  <SCORE.INTER.SOLV>
12.5103

>  <SCORE.INTER.VDW>
-10.5262

>  <SCORE.INTER.norm>
-1.12891

>  <SCORE.INTRA>
-4.74627

>  <SCORE.INTRA.DIHEDRAL>
0.366333

>  <SCORE.INTRA.DIHEDRAL.0>
1.03468

>  <SCORE.INTRA.POLAR>
0

>  <SCORE.INTRA.POLAR.0>
0

>  <SCORE.INTRA.REPUL>
0

>  <SCORE.INTRA.REPUL.0>
0

>  <SCORE.INTRA.SOLV>
-9.80338

>  <SCORE.INTRA.SOLV.lig_0>
-45.2568

>  <SCORE.INTRA.VDW>
-0.027745

>  <SCORE.INTRA.VDW.0>
-0.666104

>  <SCORE.INTRA.norm>
-0.339019

>  <SCORE.RESTR>
0.954828

>  <SCORE.RESTR.CAVITY>
0.954828

>  <SCORE.RESTR.norm>
0.068202

>  <SCORE.SYSTEM>
-16.5738

>  <SCORE.SYSTEM.CONST>
0

>  <SCORE.SYSTEM.DIHEDRAL>
4.858

>  <SCORE.SYSTEM.POLAR>
-3.04387

>  <SCORE.SYSTEM.SOLV>
0.0245226

>  <SCORE.SYSTEM.VDW>
-2.53048

>  <SCORE.SYSTEM.norm>
-1.18384

>  <SCORE.heavy>
14

>  <SCORE.norm>
-2.58357

$$$$
P132137500
 OpenBabel12072022113D
libRbt.so/2013.1/901 2013/11/27
 17 18  0  0  0  0  0  0  0  0999 V2000
    4.3892   15.0043    4.0638 C   0  0  0  0  0  0  0  0  0  0  0  0
    3.0939   14.1635    4.1478 C   0  0  2  0  0  0  0  0  0  0  0  0
    2.9876   13.5743    5.5713 C   0  0  0  0  0  0  0  0  0  0  0  0
    3.2361   12.0721    5.4509 C   0  0  0  0  0  0  0  0  0  0  0  0
    2.9603   11.7320    4.0366 N   0  3  0  0  0  0  0  0  0  0  0  0
    3.4518   10.8897    3.7201 H   0  0  0  0  0  0  0  0  0  0  0  0
    1.9486   11.3907    3.9559 H   0  0  0  0  0  0  0  0  0  0  0  0
    3.2534   12.9489    3.2173 C   0  0  0  0  0  0  0  0  0  0  0  0
    1.8958   15.1013    3.7551 C   0  0  0  0  0  0  0  0  0  0  0  0
    2.0700   16.3101    3.5806 O   0  0  0  0  0  0  0  0  0  0  0  0
    0.6164   14.6185    3.6077 N   0  0  0  0  0  0  0  0  0  0  0  0
    0.2706   13.2180    3.6512 C   0  0  1  0  0  0  0  0  0  0  0  0
   -0.8495   12.5452    4.4429 C   0  0  0  0  0  0  0  0  0  0  0  0
   -0.7943   11.4510    3.2877 C   0  0  1  0  0  0  0  0  0  0  0  0
   -0.4696   12.6648    2.3853 C   0  0  0  0  0  0  0  0  0  0  0  0
    0.3090   10.5940    3.3276 O   0  5  0  0  0  0  0  0  0  0  0  0
   -0.0709   15.3202    3.3526 H   0  0  0  0  0  0  0  0  0  0  0  0
  2  1  1  6  0  0  0
  2  3  1  0  0  0  0
  2  8  1  0  0  0  0
  2  9  1  0  0  0  0
  3  4  1  0  0  0  0
  4  5  1  0  0  0  0
  5  6  1  0  0  0  0
  5  7  1  0  0  0  0
  5  8  1  0  0  0  0
  9 10  2  0  0  0  0
  9 11  1  0  0  0  0
 11 17  1  0  0  0  0
 12 11  1  6  0  0  0
 12 13  1  0  0  0  0
 12 15  1  0  0  0  0
 13 14  1  0  0  0  0
 14 15  1  0  0  0  0
 14 16  1  1  0  0  0
M  CHG  2   5   1  16  -1
M  END
>  <CHROM.0>
-61.40871891,-70.86786607,-66.73858146,-44.72899288,-62.85116158,-62.52654272
-68.43510957,-62.50618971,-168.23068661

>  <CHROM.1>
-7.12712027,131.87171357,1.64963816,13.26844913,3.88664105,-0.63367069,0.30725300
3.02095920

>  <Name>
P132137500

>  <RI>
1.34432e+07

>  <Rbt.Current_Directory>
/home/fstefaniak/projects/zuza/docking/adenine/4XNR

>  <Rbt.Executable>
rbdock ($Id: //depot/dev/client3/rdock/2013.1/src/exe/rbdock.cxx#4 $)

>  <Rbt.Library>
libRbt.so (2013.1, Build901 2013/11/27)

>  <Rbt.Parameter_File>
/home/fstefaniak/progs/rDock//data/scripts/dock_solv.prm

>  <Rbt.Receptor>
4xnr.prm

>  <SCORE>
-33.2477

>  <SCORE.INTER>
-9.34522

>  <SCORE.INTER.CONST>
1

>  <SCORE.INTER.POLAR>
-0.573578

>  <SCORE.INTER.ROT>
2

>  <SCORE.INTER.SOLV>
8.39514

>  <SCORE.INTER.VDW>
-12.0499

>  <SCORE.INTER.norm>
-0.667516

>  <SCORE.INTRA>
-5.07144

>  <SCORE.INTRA.DIHEDRAL>
0.243624

>  <SCORE.INTRA.DIHEDRAL.0>
1.03468

>  <SCORE.INTRA.POLAR>
-1.35358

>  <SCORE.INTRA.POLAR.0>
0

>  <SCORE.INTRA.REPUL>
0

>  <SCORE.INTRA.REPUL.0>
0

>  <SCORE.INTRA.SOLV>
-1.05304

>  <SCORE.INTRA.SOLV.lig_0>
-45.2568

>  <SCORE.INTRA.VDW>
-0.0645658

>  <SCORE.INTRA.VDW.0>
-0.666104

>  <SCORE.INTRA.norm>
-0.362246

>  <SCORE.RESTR>
1.95225

>  <SCORE.RESTR.CAVITY>
1.95225

>  <SCORE.RESTR.norm>
0.139446

>  <SCORE.SYSTEM>
-20.7833

>  <SCORE.SYSTEM.CONST>
0

>  <SCORE.SYSTEM.DIHEDRAL>
4.9932

>  <SCORE.SYSTEM.POLAR>
-3.00345

>  <SCORE.SYSTEM.SOLV>
0.264229

>  <SCORE.SYSTEM.VDW>
-5.59652

>  <SCORE.SYSTEM.norm>
-1.48452

>  <SCORE.heavy>
14

>  <SCORE.norm>
-2.37484

$$$$
P132150445
 OpenBabel12072022113D
libRbt.so/2013.1/901 2013/11/27
 15 15  0  0  0  0  0  0  0  0999 V2000
    2.8852   13.1446    5.2759 C   0  0  0  0  0  0  0  0  0  0  0  0
    2.5083   14.2083    4.2172 C   0  0  0  0  0  0  0  0  0  0  0  0
    3.7945   14.9084    3.7500 C   0  0  0  0  0  0  0  0  0  0  0  0
    1.8240   13.4633    3.0116 C   0  0  0  0  0  0  0  0  0  0  0  0
    2.4399   13.2880    1.9520 O   0  0  0  0  0  0  0  0  0  0  0  0
    0.5328   12.9831    3.1267 N   0  0  0  0  0  0  0  0  0  0  0  0
   -0.3533   12.9910    4.2821 C   0  0  0  0  0  0  0  0  0  0  0  0
   -1.4258   11.9628    3.9438 C   0  0  0  0  0  0  0  0  0  0  0  0
   -1.5314   12.0768    2.4302 C   0  0  0  0  0  0  0  0  0  0  0  0
   -0.0844   12.2841    2.0097 C   0  0  0  0  0  0  0  0  0  0  0  0
    1.4981   15.1511    4.7911 N   0  0  0  0  0  0  0  0  0  0  0  0
    1.1643   16.2217    3.8675 N   0  0  0  0  0  0  0  0  0  0  0  0
    1.9095   15.5305    5.6540 H   0  0  0  0  0  0  0  0  0  0  0  0
    1.3959   17.1343    4.2724 H   0  0  0  0  0  0  0  0  0  0  0  0
    0.1541   16.2637    3.7021 H   0  0  0  0  0  0  0  0  0  0  0  0
  1  2  1  0  0  0  0
  2  3  1  0  0  0  0
  2  4  1  0  0  0  0
  2 11  1  0  0  0  0
  4  5  2  0  0  0  0
  4  6  1  0  0  0  0
  6  7  1  0  0  0  0
  6 10  1  0  0  0  0
  7  8  1  0  0  0  0
  8  9  1  0  0  0  0
  9 10  1  0  0  0  0
 11 12  1  0  0  0  0
 11 13  1  0  0  0  0
 12 14  1  0  0  0  0
 12 15  1  0  0  0  0
M  END
>  <CHROM.0>
-55.87905212,-70.25883150,-63.43203006,-46.27191042,-57.44820598,-61.93615363
-68.90438612,-172.55001773,-168.07975583

>  <CHROM.1>
-105.01641000,176.57629807,-119.53677235,1.12193600,13.60098115,3.56354342
0.60520984,0.27491570,0.80021876

>  <Name>
P132150445

>  <RI>
1.34432e+07

>  <Rbt.Current_Directory>
/home/fstefaniak/projects/zuza/docking/adenine/4XNR

>  <Rbt.Executable>
rbdock ($Id: //depot/dev/client3/rdock/2013.1/src/exe/rbdock.cxx#4 $)

>  <Rbt.Library>
libRbt.so (2013.1, Build901 2013/11/27)

>  <Rbt.Parameter_File>
/home/fstefaniak/progs/rDock//data/scripts/dock_solv.prm

>  <Rbt.Receptor>
4xnr.prm

>  <SCORE>
-42.2054

>  <SCORE.INTER>
-21.7172

>  <SCORE.INTER.CONST>
1

>  <SCORE.INTER.POLAR>
-2.95162

>  <SCORE.INTER.ROT>
3

>  <SCORE.INTER.SOLV>
9.77496

>  <SCORE.INTER.VDW>
-13.4977

>  <SCORE.INTER.norm>
-1.80977

>  <SCORE.INTRA>
0.0830412

>  <SCORE.INTRA.DIHEDRAL>
2.0012

>  <SCORE.INTRA.DIHEDRAL.0>
0.310745

>  <SCORE.INTRA.POLAR>
0

>  <SCORE.INTRA.POLAR.0>
0

>  <SCORE.INTRA.REPUL>
0

>  <SCORE.INTRA.REPUL.0>
0

>  <SCORE.INTRA.SOLV>
0.604632

>  <SCORE.INTRA.SOLV.lig_0>
-12.8377

>  <SCORE.INTRA.VDW>
-1.21988

>  <SCORE.INTRA.VDW.0>
1.55732

>  <SCORE.INTRA.norm>
0.0069201

>  <SCORE.RESTR>
0.0801357

>  <SCORE.RESTR.CAVITY>
0.0801357

>  <SCORE.RESTR.norm>
0.00667797

>  <SCORE.SYSTEM>
-20.6514

>  <SCORE.SYSTEM.CONST>
0

>  <SCORE.SYSTEM.DIHEDRAL>
4.90727

>  <SCORE.SYSTEM.POLAR>
-3.02446

>  <SCORE.SYSTEM.SOLV>
0.151553

>  <SCORE.SYSTEM.VDW>
-5.37231

>  <SCORE.SYSTEM.norm>
-1.72095

>  <SCORE.heavy>
12

>  <SCORE.norm>
-3.51712

$$$$
P132150445
 OpenBabel12072022113D
libRbt.so/2013.1/901 2013/11/27
 15 15  0  0  0  0  0  0  0  0999 V2000
    4.7931   17.5885    4.6311 C   0  0  0  0  0  0  0  0  0  0  0  0
    5.0439   16.8968    3.2700 C   0  0  0  0  0  0  0  0  0  0  0  0
    6.5228   17.0819    2.8940 C   0  0  0  0  0  0  0  0  0  0  0  0
    4.7118   15.3679    3.4407 C   0  0  0  0  0  0  0  0  0  0  0  0
    5.6119   14.5202    3.3786 O   0  0  0  0  0  0  0  0  0  0  0  0
    3.4137   14.9551    3.6766 N   0  0  0  0  0  0  0  0  0  0  0  0
    2.2138   15.7561    3.8732 C   0  0  0  0  0  0  0  0  0  0  0  0
    1.2181   14.7960    4.5124 C   0  0  0  0  0  0  0  0  0  0  0  0
    1.6032   13.4583    3.8978 C   0  0  0  0  0  0  0  0  0  0  0  0
    3.1212   13.5398    3.8460 C   0  0  0  0  0  0  0  0  0  0  0  0
    4.1014   17.4471    2.2465 N   0  0  0  0  0  0  0  0  0  0  0  0
    4.7412   17.6234    0.9542 N   0  0  0  0  0  0  0  0  0  0  0  0
    3.7663   18.3481    2.6123 H   0  0  0  0  0  0  0  0  0  0  0  0
    5.1301   18.5679    0.8688 H   0  0  0  0  0  0  0  0  0  0  0  0
    4.0583   17.5577    0.1932 H   0  0  0  0  0  0  0  0  0  0  0  0
  1  2  1  0  0  0  0
  2  3  1  0  0  0  0
  2  4  1  0  0  0  0
  2 11  1  0  0  0  0
  4  5  2  0  0  0  0
  4  6  1  0  0  0  0
  6  7  1  0  0  0  0
  6 10  1  0  0  0  0
  7  8  1  0  0  0  0
  8  9  1  0  0  0  0
  9 10  1  0  0  0  0
 11 12  1  0  0  0  0
 11 13  1  0  0  0  0
 12 14  1  0  0  0  0
 12 15  1  0  0  0  0
M  END
>  <CHROM.0>
-57.40789584,-60.24437205,62.28903943,-45.02796972,-62.65770229,-65.73084100
54.83424197,-174.49466245,-167.64488009

>  <CHROM.1>
-112.46321578,140.49977912,-91.60417961,3.94897017,15.79023328,3.35240155
0.81099351,0.07279798,-0.38791120

>  <Name>
P132150445

>  <RI>
1.34432e+07

>  <Rbt.Current_Directory>
/home/fstefaniak/projects/zuza/docking/adenine/4XNR

>  <Rbt.Executable>
rbdock ($Id: //depot/dev/client3/rdock/2013.1/src/exe/rbdock.cxx#4 $)

>  <Rbt.Library>
libRbt.so (2013.1, Build901 2013/11/27)

>  <Rbt.Parameter_File>
/home/fstefaniak/progs/rDock//data/scripts/dock_solv.prm

>  <Rbt.Receptor>
4xnr.prm

>  <SCORE>
-40.5927

>  <SCORE.INTER>
-24.7692

>  <SCORE.INTER.CONST>
1

>  <SCORE.INTER.POLAR>
-3.61834

>  <SCORE.INTER.ROT>
3

>  <SCORE.INTER.SOLV>
13.2019

>  <SCORE.INTER.VDW>
-14.4523

>  <SCORE.INTER.norm>
-2.0641

>  <SCORE.INTRA>
2.98753

>  <SCORE.INTRA.DIHEDRAL>
2.71321

>  <SCORE.INTRA.DIHEDRAL.0>
0.310745

>  <SCORE.INTRA.POLAR>
0

>  <SCORE.INTRA.POLAR.0>
0

>  <SCORE.INTRA.REPUL>
0

>  <SCORE.INTRA.REPUL.0>
0

>  <SCORE.INTRA.SOLV>
0.108223

>  <SCORE.INTRA.SOLV.lig_0>
-12.8377

>  <SCORE.INTRA.VDW>
1.57681

>  <SCORE.INTRA.VDW.0>
1.55732

>  <SCORE.INTRA.norm>
0.248961

>  <SCORE.RESTR>
0

>  <SCORE.RESTR.CAVITY>
0

>  <SCORE.RESTR.norm>
0

>  <SCORE.SYSTEM>
-18.8111

>  <SCORE.SYSTEM.CONST>
0

>  <SCORE.SYSTEM.DIHEDRAL>
4.32326

>  <SCORE.SYSTEM.POLAR>
-3.01423

>  <SCORE.SYSTEM.SOLV>
0.0460594

>  <SCORE.SYSTEM.VDW>
-3.9497

>  <SCORE.SYSTEM.norm>
-1.56759

>  <SCORE.heavy>
12

>  <SCORE.norm>
-3.38273

$$$$
P132150445
 OpenBabel12072022113D
libRbt.so/2013.1/901 2013/11/27
 15 15  0  0  0  0  0  0  0  0999 V2000
    4.8193   17.6176    4.6425 C   0  0  0  0  0  0  0  0  0  0  0  0
    5.0535   16.9013    3.2912 C   0  0  0  0  0  0  0  0  0  0  0  0
    6.5382   17.0382    2.9175 C   0  0  0  0  0  0  0  0  0  0  0  0
    4.6763   15.3851    3.4805 C   0  0  0  0  0  0  0  0  0  0  0  0
    5.5533   14.5119    3.4455 O   0  0  0  0  0  0  0  0  0  0  0  0
    3.3639   15.0122    3.7028 N   0  0  0  0  0  0  0  0  0  0  0  0
    2.1840   15.8491    3.8685 C   0  0  0  0  0  0  0  0  0  0  0  0
    1.1524   14.9273    4.5071 C   0  0  0  0  0  0  0  0  0  0  0  0
    1.5091   13.5699    3.9194 C   0  0  0  0  0  0  0  0  0  0  0  0
    3.0294   13.6085    3.8897 C   0  0  0  0  0  0  0  0  0  0  0  0
    4.1303   17.4655    2.2578 N   0  0  0  0  0  0  0  0  0  0  0  0
    4.7938   17.6579    0.9798 N   0  0  0  0  0  0  0  0  0  0  0  0
    3.7892   18.3621    2.6289 H   0  0  0  0  0  0  0  0  0  0  0  0
    5.1479   18.6161    0.8965 H   0  0  0  0  0  0  0  0  0  0  0  0
    4.1326   17.5606    0.2033 H   0  0  0  0  0  0  0  0  0  0  0  0
  1  2  1  0  0  0  0
  2  3  1  0  0  0  0
  2  4  1  0  0  0  0
  2 11  1  0  0  0  0
  4  5  2  0  0  0  0
  4  6  1  0  0  0  0
  6  7  1  0  0  0  0
  6 10  1  0  0  0  0
  7  8  1  0  0  0  0
  8  9  1  0  0  0  0
  9 10  1  0  0  0  0
 11 12  1  0  0  0  0
 11 13  1  0  0  0  0
 12 14  1  0  0  0  0
 12 15  1  0  0  0  0
M  END
>  <CHROM.0>
-56.45839287,-62.59589425,58.66158725,-45.55316794,-61.34033969,-61.35508726
52.04563573,-59.42598546,-168.22515775

>  <CHROM.1>
-111.73816252,138.13006001,-94.16755631,3.92553598,15.83221092,3.37600729
0.78370322,0.06613586,-0.40188447

>  <Name>
P132150445

>  <RI>
1.34432e+07

>  <Rbt.Current_Directory>
/home/fstefaniak/projects/zuza/docking/adenine/4XNR

>  <Rbt.Executable>
rbdock ($Id: //depot/dev/client3/rdock/2013.1/src/exe/rbdock.cxx#4 $)

>  <Rbt.Library>
libRbt.so (2013.1, Build901 2013/11/27)

>  <Rbt.Parameter_File>
/home/fstefaniak/progs/rDock//data/scripts/dock_solv.prm

>  <Rbt.Receptor>
4xnr.prm

>  <SCORE>
-40.5796

>  <SCORE.INTER>
-24.8599

>  <SCORE.INTER.CONST>
1

>  <SCORE.INTER.POLAR>
-3.64876

>  <SCORE.INTER.ROT>
3

>  <SCORE.INTER.SOLV>
13.1603

>  <SCORE.INTER.VDW>
-14.3975

>  <SCORE.INTER.norm>
-2.07166

>  <SCORE.INTRA>
3.23112

>  <SCORE.INTRA.DIHEDRAL>
2.95813

>  <SCORE.INTRA.DIHEDRAL.0>
0.310745

>  <SCORE.INTRA.POLAR>
0

>  <SCORE.INTRA.POLAR.0>
0

>  <SCORE.INTRA.REPUL>
0

>  <SCORE.INTRA.REPUL.0>
0

>  <SCORE.INTRA.SOLV>
0.101588

>  <SCORE.INTRA.SOLV.lig_0>
-12.8377

>  <SCORE.INTRA.VDW>
1.70126

>  <SCORE.INTRA.VDW.0>
1.55732

>  <SCORE.INTRA.norm>
0.26926

>  <SCORE.RESTR>
0

>  <SCORE.RESTR.CAVITY>
0

>  <SCORE.RESTR.norm>
0

>  <SCORE.SYSTEM>
-18.9508

>  <SCORE.SYSTEM.CONST>
0

>  <SCORE.SYSTEM.DIHEDRAL>
4.10544

>  <SCORE.SYSTEM.POLAR>
-3.00236

>  <SCORE.SYSTEM.SOLV>
0.195641

>  <SCORE.SYSTEM.VDW>
-4.05966

>  <SCORE.SYSTEM.norm>
-1.57923

>  <SCORE.heavy>
12

>  <SCORE.norm>
-3.38163

$$$$
P132826030
 OpenBabel12072022113D
libRbt.so/2013.1/901 2013/11/27
 17 16  0  0  0  0  0  0  0  0999 V2000
    6.4111   18.7630    4.1518 C   0  0  0  0  0  0  0  0  0  0  0  0
    6.0500   18.0602    2.9275 N   0  0  0  0  0  0  0  0  0  0  0  0
    7.0300   18.1463    1.8507 C   0  0  0  0  0  0  0  0  0  0  0  0
    4.9937   17.1800    2.7910 C   0  0  0  0  0  0  0  0  0  0  0  0
    4.8157   16.4958    1.7745 O   0  0  0  0  0  0  0  0  0  0  0  0
    4.0738   16.9102    3.9717 C   0  0  0  0  0  0  0  0  0  0  0  0
    3.2200   15.7436    3.6883 N   0  0  0  0  0  0  0  0  0  0  0  0
    1.9058   15.6742    3.9966 C   0  0  0  0  0  0  0  0  0  0  0  0
    1.2198   16.7027    4.5844 N   0  3  0  0  0  0  0  0  0  0  0  0
    1.5527   17.6792    4.5239 H   0  0  0  0  0  0  0  0  0  0  0  0
   -0.1174   16.5055    4.9704 N   0  0  0  0  0  0  0  0  0  0  0  0
    1.2390   14.5400    3.7195 N   0  0  0  0  0  0  0  0  0  0  0  0
    3.6445   14.9236    3.2801 H   0  0  0  0  0  0  0  0  0  0  0  0
   -0.4824   17.3836    5.3595 H   0  0  0  0  0  0  0  0  0  0  0  0
   -0.6751   16.3172    4.1271 H   0  0  0  0  0  0  0  0  0  0  0  0
    1.6513   13.7395    3.2665 H   0  0  0  0  0  0  0  0  0  0  0  0
    0.2349   14.5627    3.8629 H   0  0  0  0  0  0  0  0  0  0  0  0
  1  2  1  0  0  0  0
  2  3  1  0  0  0  0
  2  4  1  0  0  0  0
  4  5  2  0  0  0  0
  4  6  1  0  0  0  0
  6  7  1  0  0  0  0
  7  8  1  0  0  0  0
  7 13  1  0  0  0  0
  8  9  2  0  0  0  0
  8 12  1  0  0  0  0
  9 10  1  0  0  0  0
  9 11  1  0  0  0  0
 11 14  1  0  0  0  0
 11 15  1  0  0  0  0
 12 16  1  0  0  0  0
 12 17  1  0  0  0  0
M  CHG  1   9   1
M  END
>  <CHROM.0>
-59.98252609,-164.15173895,59.48768132,-47.09483805,-62.01539246,-177.96882907
55.20863166,-61.39184777,-168.24329614

>  <CHROM.1>
-167.77882334,-138.48164802,-177.99248318,3.66890156,16.78091519,3.48993197
0.10088165,0.45721168,0.69821098

>  <Name>
P132826030

>  <RI>
3.58524e+07

>  <Rbt.Current_Directory>
/home/fstefaniak/projects/zuza/docking/adenine/4XNR

>  <Rbt.Executable>
rbdock ($Id: //depot/dev/client3/rdock/2013.1/src/exe/rbdock.cxx#4 $)

>  <Rbt.Library>
libRbt.so (2013.1, Build901 2013/11/27)

>  <Rbt.Parameter_File>
/home/fstefaniak/progs/rDock//data/scripts/dock_solv.prm

>  <Rbt.Receptor>
4xnr.prm

>  <SCORE>
-54.3756

>  <SCORE.INTER>
-37.7756

>  <SCORE.INTER.CONST>
1

>  <SCORE.INTER.POLAR>
-5.54202

>  <SCORE.INTER.ROT>
3

>  <SCORE.INTER.SOLV>
17.675

>  <SCORE.INTER.VDW>
-18.202

>  <SCORE.INTER.norm>
-3.43414

>  <SCORE.INTRA>
1.57242

>  <SCORE.INTRA.DIHEDRAL>
0.235088

>  <SCORE.INTRA.DIHEDRAL.0>
4.37463

>  <SCORE.INTRA.POLAR>
0.536477

>  <SCORE.INTRA.POLAR.0>
-0.57776

>  <SCORE.INTRA.REPUL>
0

>  <SCORE.INTRA.REPUL.0>
0

>  <SCORE.INTRA.SOLV>
-1.71621

>  <SCORE.INTRA.SOLV.lig_0>
-32.5569

>  <SCORE.INTRA.VDW>
0.488953

>  <SCORE.INTRA.VDW.0>
-0.906106

>  <SCORE.INTRA.norm>
0.142947

>  <SCORE.RESTR>
0

>  <SCORE.RESTR.CAVITY>
0

>  <SCORE.RESTR.norm>
0

>  <SCORE.SYSTEM>
-18.1724

>  <SCORE.SYSTEM.CONST>
0

>  <SCORE.SYSTEM.DIHEDRAL>
4.81201

>  <SCORE.SYSTEM.POLAR>
-2.96399

>  <SCORE.SYSTEM.SOLV>
0.0405781

>  <SCORE.SYSTEM.VDW>
-3.85254

>  <SCORE.SYSTEM.norm>
-1.65204

>  <SCORE.heavy>
11

>  <SCORE.norm>
-4.94324

$$$$
P132826030
 OpenBabel12072022113D
libRbt.so/2013.1/901 2013/11/27
 17 16  0  0  0  0  0  0  0  0999 V2000
    6.3688   18.7573    4.3094 C   0  0  0  0  0  0  0  0  0  0  0  0
    6.0430   18.0589    3.0726 N   0  0  0  0  0  0  0  0  0  0  0  0
    7.0082   18.2275    1.9922 C   0  0  0  0  0  0  0  0  0  0  0  0
    5.0420   17.1183    2.9237 C   0  0  0  0  0  0  0  0  0  0  0  0
    4.8991   16.4456    1.8941 O   0  0  0  0  0  0  0  0  0  0  0  0
    4.1487   16.7680    4.1038 C   0  0  0  0  0  0  0  0  0  0  0  0
    3.2656   15.6431    3.7501 N   0  0  0  0  0  0  0  0  0  0  0  0
    1.9398   15.6102    4.0113 C   0  0  0  0  0  0  0  0  0  0  0  0
    1.2696   16.6415    4.6122 N   0  3  0  0  0  0  0  0  0  0  0  0
    1.6379   17.6070    4.5979 H   0  0  0  0  0  0  0  0  0  0  0  0
   -0.0863   16.4790    4.9455 N   0  0  0  0  0  0  0  0  0  0  0  0
    1.2444   14.5107    3.6715 N   0  0  0  0  0  0  0  0  0  0  0  0
    3.6756   14.8232    3.3274 H   0  0  0  0  0  0  0  0  0  0  0  0
   -0.4604   17.3827    5.2601 H   0  0  0  0  0  0  0  0  0  0  0  0
   -0.6054   16.2410    4.0902 H   0  0  0  0  0  0  0  0  0  0  0  0
    1.6443   13.7122    3.2042 H   0  0  0  0  0  0  0  0  0  0  0  0
    0.2373   14.5644    3.7816 H   0  0  0  0  0  0  0  0  0  0  0  0
  1  2  1  0  0  0  0
  2  3  1  0  0  0  0
  2  4  1  0  0  0  0
  4  5  2  0  0  0  0
  4  6  1  0  0  0  0
  6  7  1  0  0  0  0
  7  8  1  0  0  0  0
  7 13  1  0  0  0  0
  8  9  2  0  0  0  0
  8 12  1  0  0  0  0
  9 10  1  0  0  0  0
  9 11  1  0  0  0  0
 11 14  1  0  0  0  0
 11 15  1  0  0  0  0
 12 16  1  0  0  0  0
 12 17  1  0  0  0  0
M  CHG  1   9   1
M  END
>  <CHROM.0>
-58.20273833,35.21483941,-67.08089577,-49.30906527,-173.60890387,-63.62050910
-70.55800170,-56.69889831,-167.93318543

>  <CHROM.1>
-173.65133722,-133.94071278,-172.06497402,3.69614944,16.74025505,3.56570662
0.13255352,0.44616971,0.68869404

>  <Name>
P132826030

>  <RI>
3.58524e+07

>  <Rbt.Current_Directory>
/home/fstefaniak/projects/zuza/docking/adenine/4XNR

>  <Rbt.Executable>
rbdock ($Id: //depot/dev/client3/rdock/2013.1/src/exe/rbdock.cxx#4 $)

>  <Rbt.Library>
libRbt.so (2013.1, Build901 2013/11/27)

>  <Rbt.Parameter_File>
/home/fstefaniak/progs/rDock//data/scripts/dock_solv.prm

>  <Rbt.Receptor>
4xnr.prm

>  <SCORE>
-53.5721

>  <SCORE.INTER>
-35.9795

>  <SCORE.INTER.CONST>
1

>  <SCORE.INTER.POLAR>
-5.2002

>  <SCORE.INTER.ROT>
3

>  <SCORE.INTER.SOLV>
17.6194

>  <SCORE.INTER.VDW>
-18.1255

>  <SCORE.INTER.norm>
-3.27086

>  <SCORE.INTRA>
1.85275

>  <SCORE.INTRA.DIHEDRAL>
0.257656

>  <SCORE.INTRA.DIHEDRAL.0>
4.37463

>  <SCORE.INTRA.POLAR>
0.544712

>  <SCORE.INTRA.POLAR.0>
-0.57776

>  <SCORE.INTRA.REPUL>
0

>  <SCORE.INTRA.REPUL.0>
0

>  <SCORE.INTRA.SOLV>
-1.67007

>  <SCORE.INTRA.SOLV.lig_0>
-32.5569

>  <SCORE.INTRA.VDW>
0.706937

>  <SCORE.INTRA.VDW.0>
-0.906106

>  <SCORE.INTRA.norm>
0.168432

>  <SCORE.RESTR>
0

>  <SCORE.RESTR.CAVITY>
0

>  <SCORE.RESTR.norm>
0

>  <SCORE.SYSTEM>
-19.4453

>  <SCORE.SYSTEM.CONST>
0

>  <SCORE.SYSTEM.DIHEDRAL>
6.91337

>  <SCORE.SYSTEM.POLAR>
-3.10037

>  <SCORE.SYSTEM.SOLV>
0.241551

>  <SCORE.SYSTEM.VDW>
-5.01397

>  <SCORE.SYSTEM.norm>
-1.76776

>  <SCORE.heavy>
11

>  <SCORE.norm>
-4.87019

$$$$
P132826030
 OpenBabel12072022113D
libRbt.so/2013.1/901 2013/11/27
 17 16  0  0  0  0  0  0  0  0999 V2000
    6.5405   18.6297    4.1110 C   0  0  0  0  0  0  0  0  0  0  0  0
    6.0739   18.0308    2.8672 N   0  0  0  0  0  0  0  0  0  0  0  0
    6.9427   18.2389    1.7143 C   0  0  0  0  0  0  0  0  0  0  0  0
    5.0246   17.1394    2.7516 C   0  0  0  0  0  0  0  0  0  0  0  0
    4.7601   16.5451    1.6982 O   0  0  0  0  0  0  0  0  0  0  0  0
    4.2288   16.7407    3.9850 C   0  0  0  0  0  0  0  0  0  0  0  0
    3.3231   15.6249    3.6606 N   0  0  0  0  0  0  0  0  0  0  0  0
    2.0050   15.6083    3.9589 C   0  0  0  0  0  0  0  0  0  0  0  0
    1.3639   16.6496    4.5742 N   0  3  0  0  0  0  0  0  0  0  0  0
    1.7427   17.6107    4.5459 H   0  0  0  0  0  0  0  0  0  0  0  0
    0.0161   16.5041    4.9460 N   0  0  0  0  0  0  0  0  0  0  0  0
    1.2876   14.5159    3.6429 N   0  0  0  0  0  0  0  0  0  0  0  0
    3.7116   14.7987    3.2297 H   0  0  0  0  0  0  0  0  0  0  0  0
   -0.0288   16.2838    5.9485 H   0  0  0  0  0  0  0  0  0  0  0  0
   -0.4518   17.4134    4.8358 H   0  0  0  0  0  0  0  0  0  0  0  0
    1.6650   13.7110    3.1678 H   0  0  0  0  0  0  0  0  0  0  0  0
    0.2846   14.5817    3.7810 H   0  0  0  0  0  0  0  0  0  0  0  0
  1  2  1  0  0  0  0
  2  3  1  0  0  0  0
  2  4  1  0  0  0  0
  4  5  2  0  0  0  0
  4  6  1  0  0  0  0
  6  7  1  0  0  0  0
  7  8  1  0  0  0  0
  7 13  1  0  0  0  0
  8  9  2  0  0  0  0
  8 12  1  0  0  0  0
  9 10  1  0  0  0  0
  9 11  1  0  0  0  0
 11 14  1  0  0  0  0
 11 15  1  0  0  0  0
 12 16  1  0  0  0  0
 12 17  1  0  0  0  0
M  CHG  1   9   1
M  END
>  <CHROM.0>
-53.68569961,-61.59324182,-71.61755746,-45.53761057,-56.75678631,-57.60651432
-169.82284245,-54.76423099,-168.39097995

>  <CHROM.1>
-170.53714482,-130.06242486,99.64167799,3.73651653,16.73807724,3.45048409
0.07526191,0.48101739,0.75510969

>  <Name>
P132826030

>  <RI>
3.58524e+07

>  <Rbt.Current_Directory>
/home/fstefaniak/projects/zuza/docking/adenine/4XNR

>  <Rbt.Executable>
rbdock ($Id: //depot/dev/client3/rdock/2013.1/src/exe/rbdock.cxx#4 $)

>  <Rbt.Library>
libRbt.so (2013.1, Build901 2013/11/27)

>  <Rbt.Parameter_File>
/home/fstefaniak/progs/rDock//data/scripts/dock_solv.prm

>  <Rbt.Receptor>
4xnr.prm

>  <SCORE>
-53.202

>  <SCORE.INTER>
-34.5223

>  <SCORE.INTER.CONST>
1

>  <SCORE.INTER.POLAR>
-5.04963

>  <SCORE.INTER.ROT>
3

>  <SCORE.INTER.SOLV>
17.7782

>  <SCORE.INTER.VDW>
-17.7088

>  <SCORE.INTER.norm>
-3.13839

>  <SCORE.INTRA>
1.35341

>  <SCORE.INTRA.DIHEDRAL>
0.616363

>  <SCORE.INTRA.DIHEDRAL.0>
4.37463

>  <SCORE.INTRA.POLAR>
0.505293

>  <SCORE.INTRA.POLAR.0>
-0.57776

>  <SCORE.INTRA.REPUL>
0

>  <SCORE.INTRA.REPUL.0>
0

>  <SCORE.INTRA.SOLV>
-1.87883

>  <SCORE.INTRA.SOLV.lig_0>
-32.5569

>  <SCORE.INTRA.VDW>
0.26665

>  <SCORE.INTRA.VDW.0>
-0.906106

>  <SCORE.INTRA.norm>
0.123037

>  <SCORE.RESTR>
0

>  <SCORE.RESTR.CAVITY>
0

>  <SCORE.RESTR.norm>
0

>  <SCORE.SYSTEM>
-20.0331

>  <SCORE.SYSTEM.CONST>
0

>  <SCORE.SYSTEM.DIHEDRAL>
5.13975

>  <SCORE.SYSTEM.POLAR>
-3.05513

>  <SCORE.SYSTEM.SOLV>
0.261036

>  <SCORE.SYSTEM.VDW>
-4.97192

>  <SCORE.SYSTEM.norm>
-1.82119

>  <SCORE.heavy>
11

>  <SCORE.norm>
-4.83655

$$$$
P132826043
 OpenBabel12072022113D
libRbt.so/2013.1/901 2013/11/27
 18 18  0  0  0  0  0  0  0  0999 V2000
    6.8494   18.4855    1.7738 C   0  0  0  0  0  0  0  0  0  0  0  0
    7.0987   17.5855    2.9868 C   0  0  1  0  0  0  0  0  0  0  0  0
    6.9518   18.3559    4.3057 C   0  0  0  0  0  0  0  0  0  0  0  0
    5.4997   18.6792    4.6479 C   0  0  0  0  0  0  0  0  0  0  0  0
    4.6249   17.4296    4.6385 C   0  0  0  0  0  0  0  0  0  0  0  0
    4.7225   16.6660    3.3140 C   0  0  1  0  0  0  0  0  0  0  0  0
    6.1877   16.3502    2.9755 C   0  0  0  0  0  0  0  0  0  0  0  0
    3.9471   15.4035    3.3697 N   0  0  0  0  0  0  0  0  0  0  0  0
    2.6887   15.2744    3.8301 C   0  0  0  0  0  0  0  0  0  0  0  0
    1.9481   16.3520    4.2471 N   0  3  0  0  0  0  0  0  0  0  0  0
    2.2205   17.3138    4.0539 H   0  0  0  0  0  0  0  0  0  0  0  0
    0.6708   16.1391    4.7910 N   0  0  0  0  0  0  0  0  0  0  0  0
    2.1312   14.0524    3.8698 N   0  0  0  0  0  0  0  0  0  0  0  0
    4.3754   14.5686    2.9898 H   0  0  0  0  0  0  0  0  0  0  0  0
    0.0760   15.6760    4.0924 H   0  0  0  0  0  0  0  0  0  0  0  0
    0.7391   15.4902    5.5850 H   0  0  0  0  0  0  0  0  0  0  0  0
    2.6133   13.2108    3.5916 H   0  0  0  0  0  0  0  0  0  0  0  0
    1.1453   13.9995    4.0990 H   0  0  0  0  0  0  0  0  0  0  0  0
  2  1  1  6  0  0  0
  2  3  1  0  0  0  0
  2  7  1  0  0  0  0
  3  4  1  0  0  0  0
  4  5  1  0  0  0  0
  5  6  1  0  0  0  0
  6  7  1  0  0  0  0
  6  8  1  1  0  0  0
  8  9  1  0  0  0  0
  8 14  1  0  0  0  0
  9 10  2  0  0  0  0
  9 13  1  0  0  0  0
 10 11  1  0  0  0  0
 10 12  1  0  0  0  0
 12 15  1  0  0  0  0
 12 16  1  0  0  0  0
 13 17  1  0  0  0  0
 13 18  1  0  0  0  0
M  CHG  1  10   1
M  END
>  <CHROM.0>
-55.64064522,-59.36537573,-64.30923181,54.86290431,-58.16971613,-64.97461210
-66.60178817,-172.34906590,-168.14088848

>  <CHROM.1>
47.04650776,-60.09656939,4.37083106,16.69491286,3.73510882,-0.31964968,-0.42933504
-2.59829530

>  <Name>
P132826043

>  <RI>
3.58524e+07

>  <Rbt.Current_Directory>
/home/fstefaniak/projects/zuza/docking/adenine/4XNR

>  <Rbt.Executable>
rbdock ($Id: //depot/dev/client3/rdock/2013.1/src/exe/rbdock.cxx#4 $)

>  <Rbt.Library>
libRbt.so (2013.1, Build901 2013/11/27)

>  <Rbt.Parameter_File>
/home/fstefaniak/progs/rDock//data/scripts/dock_solv.prm

>  <Rbt.Receptor>
4xnr.prm

>  <SCORE>
-48.7184

>  <SCORE.INTER>
-32.8203

>  <SCORE.INTER.CONST>
1

>  <SCORE.INTER.POLAR>
-4.3024

>  <SCORE.INTER.ROT>
2

>  <SCORE.INTER.SOLV>
15.3719

>  <SCORE.INTER.VDW>
-17.5961

>  <SCORE.INTER.norm>
-2.73502

>  <SCORE.INTRA>
1.69431

>  <SCORE.INTRA.DIHEDRAL>
0.184162

>  <SCORE.INTRA.DIHEDRAL.0>
3.08996

>  <SCORE.INTRA.POLAR>
0.0362239

>  <SCORE.INTRA.POLAR.0>
-0.0362239

>  <SCORE.INTRA.REPUL>
0

>  <SCORE.INTRA.REPUL.0>
0

>  <SCORE.INTRA.SOLV>
0.677704

>  <SCORE.INTRA.SOLV.lig_0>
-27.2241

>  <SCORE.INTRA.VDW>
1.14021

>  <SCORE.INTRA.VDW.0>
-0.602231

>  <SCORE.INTRA.norm>
0.141192

>  <SCORE.RESTR>
0

>  <SCORE.RESTR.CAVITY>
0

>  <SCORE.RESTR.norm>
0

>  <SCORE.SYSTEM>
-17.5924

>  <SCORE.SYSTEM.CONST>
0

>  <SCORE.SYSTEM.DIHEDRAL>
3.64107

>  <SCORE.SYSTEM.POLAR>
-2.44751

>  <SCORE.SYSTEM.SOLV>
0.0915974

>  <SCORE.SYSTEM.VDW>
-4.81414

>  <SCORE.SYSTEM.norm>
-1.46604

>  <SCORE.heavy>
12

>  <SCORE.norm>
-4.05986

$$$$
P132826043
 OpenBabel12072022113D
libRbt.so/2013.1/901 2013/11/27
 18 18  0  0  0  0  0  0  0  0999 V2000
    6.7826   18.4989    1.7882 C   0  0  0  0  0  0  0  0  0  0  0  0
    7.0641   17.6113    3.0033 C   0  0  1  0  0  0  0  0  0  0  0  0
    6.9040   18.3830    4.3200 C   0  0  0  0  0  0  0  0  0  0  0  0
    5.4457   18.6676    4.6699 C   0  0  0  0  0  0  0  0  0  0  0  0
    4.6057   17.3943    4.6710 C   0  0  0  0  0  0  0  0  0  0  0  0
    4.7162   16.6279    3.3490 C   0  0  1  0  0  0  0  0  0  0  0  0
    6.1875   16.3513    3.0027 C   0  0  0  0  0  0  0  0  0  0  0  0
    3.9764   15.3448    3.4148 N   0  0  0  0  0  0  0  0  0  0  0  0
    2.7205   15.1849    3.8725 C   0  0  0  0  0  0  0  0  0  0  0  0
    1.9486   16.2453    4.2766 N   0  3  0  0  0  0  0  0  0  0  0  0
    2.1945   17.2125    4.0748 H   0  0  0  0  0  0  0  0  0  0  0  0
    0.6759   16.0019    4.8187 N   0  0  0  0  0  0  0  0  0  0  0  0
    2.1974   13.9482    3.9224 N   0  0  0  0  0  0  0  0  0  0  0  0
    4.4292   14.5187    3.0443 H   0  0  0  0  0  0  0  0  0  0  0  0
    0.7756   15.6716    5.7867 H   0  0  0  0  0  0  0  0  0  0  0  0
    0.1495   16.8831    4.8691 H   0  0  0  0  0  0  0  0  0  0  0  0
    2.7038   13.1178    3.6540 H   0  0  0  0  0  0  0  0  0  0  0  0
    1.2126   13.8699    4.1491 H   0  0  0  0  0  0  0  0  0  0  0  0
  2  1  1  6  0  0  0
  2  3  1  0  0  0  0
  2  7  1  0  0  0  0
  3  4  1  0  0  0  0
  4  5  1  0  0  0  0
  5  6  1  0  0  0  0
  6  7  1  0  0  0  0
  6  8  1  1  0  0  0
  8  9  1  0  0  0  0
  8 14  1  0  0  0  0
  9 10  2  0  0  0  0
  9 13  1  0  0  0  0
 10 11  1  0  0  0  0
 10 12  1  0  0  0  0
 12 15  1  0  0  0  0
 12 16  1  0  0  0  0
 13 17  1  0  0  0  0
 13 18  1  0  0  0  0
M  CHG  1  10   1
M  END
>  <CHROM.0>
-61.12928606,-62.63919543,61.17588350,-46.67735552,-175.91493224,-63.41316824
53.12280184,-179.39473178,-168.60679858

>  <CHROM.1>
47.67309125,76.81136971,4.36415454,16.66004110,3.77065493,-0.34273318,-0.44048737
-2.62657416

>  <Name>
P132826043

>  <RI>
3.58524e+07

>  <Rbt.Current_Directory>
/home/fstefaniak/projects/zuza/docking/adenine/4XNR

>  <Rbt.Executable>
rbdock ($Id: //depot/dev/client3/rdock/2013.1/src/exe/rbdock.cxx#4 $)

>  <Rbt.Library>
libRbt.so (2013.1, Build901 2013/11/27)

>  <Rbt.Parameter_File>
/home/fstefaniak/progs/rDock//data/scripts/dock_solv.prm

>  <Rbt.Receptor>
4xnr.prm

>  <SCORE>
-46.3061

>  <SCORE.INTER>
-28.5063

>  <SCORE.INTER.CONST>
1

>  <SCORE.INTER.POLAR>
-3.34685

>  <SCORE.INTER.ROT>
2

>  <SCORE.INTER.SOLV>
15.3658

>  <SCORE.INTER.VDW>
-17.9033

>  <SCORE.INTER.norm>
-2.37553

>  <SCORE.INTRA>
1.14933

>  <SCORE.INTRA.DIHEDRAL>
0.337429

>  <SCORE.INTRA.DIHEDRAL.0>
3.08996

>  <SCORE.INTRA.POLAR>
-0.00704997

>  <SCORE.INTRA.POLAR.0>
-0.0362239

>  <SCORE.INTRA.REPUL>
0

>  <SCORE.INTRA.REPUL.0>
0

>  <SCORE.INTRA.SOLV>
0.249662

>  <SCORE.INTRA.SOLV.lig_0>
-27.2241

>  <SCORE.INTRA.VDW>
0.879759

>  <SCORE.INTRA.VDW.0>
-0.602231

>  <SCORE.INTRA.norm>
0.0957779

>  <SCORE.RESTR>
0

>  <SCORE.RESTR.CAVITY>
0

>  <SCORE.RESTR.norm>
0

>  <SCORE.SYSTEM>
-18.9491

>  <SCORE.SYSTEM.CONST>
0

>  <SCORE.SYSTEM.DIHEDRAL>
3.91917

>  <SCORE.SYSTEM.POLAR>
-2.94849

>  <SCORE.SYSTEM.SOLV>
-0.126986

>  <SCORE.SYSTEM.VDW>
-4.06848

>  <SCORE.SYSTEM.norm>
-1.57909

>  <SCORE.heavy>
12

>  <SCORE.norm>
-3.85884

$$$$
P132826043
 OpenBabel12072022113D
libRbt.so/2013.1/901 2013/11/27
 18 18  0  0  0  0  0  0  0  0999 V2000
    6.4057   18.1724    1.6280 C   0  0  0  0  0  0  0  0  0  0  0  0
    6.7373   17.2470    2.8016 C   0  0  1  0  0  0  0  0  0  0  0  0
    7.1503   18.0381    4.0499 C   0  0  0  0  0  0  0  0  0  0  0  0
    5.9743   18.7352    4.7291 C   0  0  0  0  0  0  0  0  0  0  0  0
    4.8438   17.7604    5.0427 C   0  0  0  0  0  0  0  0  0  0  0  0
    4.3851   16.9887    3.8012 C   0  0  1  0  0  0  0  0  0  0  0  0
    5.5762   16.2955    3.1216 C   0  0  0  0  0  0  0  0  0  0  0  0
    3.3613   15.9757    4.1530 N   0  0  0  0  0  0  0  0  0  0  0  0
    2.0287   16.1389    4.0541 C   0  0  0  0  0  0  0  0  0  0  0  0
    1.4676   17.2789    3.5352 N   0  3  0  0  0  0  0  0  0  0  0  0
    2.0078   17.9725    3.0216 H   0  0  0  0  0  0  0  0  0  0  0  0
    0.0700   17.4182    3.5343 N   0  0  0  0  0  0  0  0  0  0  0  0
    1.2185   15.1477    4.4627 N   0  0  0  0  0  0  0  0  0  0  0  0
    3.6823   15.0634    4.4518 H   0  0  0  0  0  0  0  0  0  0  0  0
   -0.3596   16.5386    3.2213 H   0  0  0  0  0  0  0  0  0  0  0  0
   -0.2606   17.5731    4.4949 H   0  0  0  0  0  0  0  0  0  0  0  0
    1.5529   14.2849    4.8648 H   0  0  0  0  0  0  0  0  0  0  0  0
    0.2299   15.2437    4.2607 H   0  0  0  0  0  0  0  0  0  0  0  0
  2  1  1  6  0  0  0
  2  3  1  0  0  0  0
  2  7  1  0  0  0  0
  3  4  1  0  0  0  0
  4  5  1  0  0  0  0
  5  6  1  0  0  0  0
  6  7  1  0  0  0  0
  6  8  1  1  0  0  0
  8  9  1  0  0  0  0
  8 14  1  0  0  0  0
  9 10  2  0  0  0  0
  9 13  1  0  0  0  0
 10 11  1  0  0  0  0
 10 12  1  0  0  0  0
 12 15  1  0  0  0  0
 12 16  1  0  0  0  0
 13 17  1  0  0  0  0
 13 18  1  0  0  0  0
M  CHG  1  10   1
M  END
>  <CHROM.0>
-61.78672179,-60.08406622,-67.71184447,-45.61407069,-60.45492232,-61.22040277
-66.32300254,-179.25984768,-167.47956000

>  <CHROM.1>
96.48167050,-44.48004869,4.01905018,17.08259639,3.74272389,0.23687086,-0.15008113
-0.95545367

>  <Name>
P132826043

>  <RI>
3.58524e+07

>  <Rbt.Current_Directory>
/home/fstefaniak/projects/zuza/docking/adenine/4XNR

>  <Rbt.Executable>
rbdock ($Id: //depot/dev/client3/rdock/2013.1/src/exe/rbdock.cxx#4 $)

>  <Rbt.Library>
libRbt.so (2013.1, Build901 2013/11/27)

>  <Rbt.Parameter_File>
/home/fstefaniak/progs/rDock//data/scripts/dock_solv.prm

>  <Rbt.Receptor>
4xnr.prm

>  <SCORE>
-46.152

>  <SCORE.INTER>
-26.5072

>  <SCORE.INTER.CONST>
1

>  <SCORE.INTER.POLAR>
-3.30363

>  <SCORE.INTER.ROT>
2

>  <SCORE.INTER.SOLV>
17.112

>  <SCORE.INTER.VDW>
-17.2967

>  <SCORE.INTER.norm>
-2.20893

>  <SCORE.INTRA>
1.12667

>  <SCORE.INTRA.DIHEDRAL>
0.00271992

>  <SCORE.INTRA.DIHEDRAL.0>
3.08996

>  <SCORE.INTRA.POLAR>
0.0362239

>  <SCORE.INTRA.POLAR.0>
-0.0362239

>  <SCORE.INTRA.REPUL>
0

>  <SCORE.INTRA.REPUL.0>
0

>  <SCORE.INTRA.SOLV>
0.124355

>  <SCORE.INTRA.SOLV.lig_0>
-27.2241

>  <SCORE.INTRA.VDW>
0.939971

>  <SCORE.INTRA.VDW.0>
-0.602231

>  <SCORE.INTRA.norm>
0.0938892

>  <SCORE.RESTR>
0

>  <SCORE.RESTR.CAVITY>
0

>  <SCORE.RESTR.norm>
0

>  <SCORE.SYSTEM>
-20.7715

>  <SCORE.SYSTEM.CONST>
0

>  <SCORE.SYSTEM.DIHEDRAL>
4.24691

>  <SCORE.SYSTEM.POLAR>
-2.98601

>  <SCORE.SYSTEM.SOLV>
0.148177

>  <SCORE.SYSTEM.VDW>
-5.35933

>  <SCORE.SYSTEM.norm>
-1.73096

>  <SCORE.heavy>
12

>  <SCORE.norm>
-3.846

$$$$
P132826048
 OpenBabel12072022113D
libRbt.so/2013.1/901 2013/11/27
 18 18  0  0  0  0  0  0  0  0999 V2000
   -0.1828   12.9247    1.9428 C   0  0  0  0  0  0  0  0  0  0  0  0
    0.2747   12.2541    3.2403 C   0  0  1  0  0  0  0  0  0  0  0  0
    1.7043   11.7101    3.1253 C   0  0  0  0  0  0  0  0  0  0  0  0
    2.7666   12.8037    3.1888 C   0  0  0  0  0  0  0  0  0  0  0  0
    2.6106   13.6676    4.4377 C   0  0  0  0  0  0  0  0  0  0  0  0
    1.2044   14.2654    4.5739 C   0  0  2  0  0  0  0  0  0  0  0  0
    0.1285   13.1757    4.4632 C   0  0  0  0  0  0  0  0  0  0  0  0
    1.0101   15.3509    3.5853 N   0  0  0  0  0  0  0  0  0  0  0  0
    1.8602   16.3681    3.3484 C   0  0  0  0  0  0  0  0  0  0  0  0
    1.5117   17.3331    2.4306 N   0  3  0  0  0  0  0  0  0  0  0  0
    0.7218   17.2414    1.7938 H   0  0  0  0  0  0  0  0  0  0  0  0
    2.3560   18.4406    2.2475 N   0  0  0  0  0  0  0  0  0  0  0  0
    3.0446   16.4667    3.9700 N   0  0  0  0  0  0  0  0  0  0  0  0
    0.1872   15.3104    2.9974 H   0  0  0  0  0  0  0  0  0  0  0  0
    2.5753   18.8595    3.1601 H   0  0  0  0  0  0  0  0  0  0  0  0
    1.8662   19.1645    1.7071 H   0  0  0  0  0  0  0  0  0  0  0  0
    3.3778   15.7750    4.6236 H   0  0  0  0  0  0  0  0  0  0  0  0
    3.6839   17.1838    3.6503 H   0  0  0  0  0  0  0  0  0  0  0  0
  2  1  1  6  0  0  0
  2  3  1  0  0  0  0
  2  7  1  0  0  0  0
  3  4  1  0  0  0  0
  4  5  1  0  0  0  0
  5  6  1  0  0  0  0
  6  7  1  0  0  0  0
  6  8  1  6  0  0  0
  8  9  1  0  0  0  0
  8 14  1  0  0  0  0
  9 10  2  0  0  0  0
  9 13  1  0  0  0  0
 10 11  1  0  0  0  0
 10 12  1  0  0  0  0
 12 15  1  0  0  0  0
 12 16  1  0  0  0  0
 13 17  1  0  0  0  0
 13 18  1  0  0  0  0
M  CHG  1  10   1
M  END
>  <CHROM.0>
-55.32725484,-169.41630325,-64.89373080,-47.64123912,60.21396766,-61.97766849
-70.85538595,57.98863815,-167.63186137

>  <CHROM.1>
-48.37853442,-50.54515262,1.53833183,14.64181733,3.35154285,1.84914762,0.56796330
2.88929676

>  <Name>
P132826048

>  <RI>
3.58524e+07

>  <Rbt.Current_Directory>
/home/fstefaniak/projects/zuza/docking/adenine/4XNR

>  <Rbt.Executable>
rbdock ($Id: //depot/dev/client3/rdock/2013.1/src/exe/rbdock.cxx#4 $)

>  <Rbt.Library>
libRbt.so (2013.1, Build901 2013/11/27)

>  <Rbt.Parameter_File>
/home/fstefaniak/progs/rDock//data/scripts/dock_solv.prm

>  <Rbt.Receptor>
4xnr.prm

>  <SCORE>
-38.7251

>  <SCORE.INTER>
-24.6126

>  <SCORE.INTER.CONST>
1

>  <SCORE.INTER.POLAR>
-4.13064

>  <SCORE.INTER.ROT>
2

>  <SCORE.INTER.SOLV>
14.874

>  <SCORE.INTER.VDW>
-12.531

>  <SCORE.INTER.norm>
-2.05105

>  <SCORE.INTRA>
3.53626

>  <SCORE.INTRA.DIHEDRAL>
-0.050573

>  <SCORE.INTRA.DIHEDRAL.0>
3.05781

>  <SCORE.INTRA.POLAR>
0.00683082

>  <SCORE.INTRA.POLAR.0>
-0.0299945

>  <SCORE.INTRA.REPUL>
0

>  <SCORE.INTRA.REPUL.0>
0

>  <SCORE.INTRA.SOLV>
0.675209

>  <SCORE.INTRA.SOLV.lig_0>
-26.0797

>  <SCORE.INTRA.VDW>
3.20072

>  <SCORE.INTRA.VDW.0>
-1.12556

>  <SCORE.INTRA.norm>
0.294688

>  <SCORE.RESTR>
0.962257

>  <SCORE.RESTR.CAVITY>
0.962257

>  <SCORE.RESTR.norm>
0.0801881

>  <SCORE.SYSTEM>
-18.611

>  <SCORE.SYSTEM.CONST>
0

>  <SCORE.SYSTEM.DIHEDRAL>
4.81343

>  <SCORE.SYSTEM.POLAR>
-3.00188

>  <SCORE.SYSTEM.SOLV>
-0.130637

>  <SCORE.SYSTEM.VDW>
-3.96198

>  <SCORE.SYSTEM.norm>
-1.55091

>  <SCORE.heavy>
12

>  <SCORE.norm>
-3.22709

$$$$
P132826048
 OpenBabel12072022113D
libRbt.so/2013.1/901 2013/11/27
 18 18  0  0  0  0  0  0  0  0999 V2000
   -0.1994   12.9775    1.9677 C   0  0  0  0  0  0  0  0  0  0  0  0
    0.2668   12.3098    3.2637 C   0  0  1  0  0  0  0  0  0  0  0  0
    1.6919   11.7568    3.1372 C   0  0  0  0  0  0  0  0  0  0  0  0
    2.7613   12.8442    3.1855 C   0  0  0  0  0  0  0  0  0  0  0  0
    2.6227   13.7145    4.4321 C   0  0  0  0  0  0  0  0  0  0  0  0
    1.2214   14.3213    4.5793 C   0  0  2  0  0  0  0  0  0  0  0  0
    0.1380   13.2376    4.4839 C   0  0  0  0  0  0  0  0  0  0  0  0
    1.0239   15.4036    3.5879 N   0  0  0  0  0  0  0  0  0  0  0  0
    1.8671   16.4273    3.3541 C   0  0  0  0  0  0  0  0  0  0  0  0
    1.5160   17.3880    2.4327 N   0  3  0  0  0  0  0  0  0  0  0  0
    0.7305   17.2889    1.7917 H   0  0  0  0  0  0  0  0  0  0  0  0
    2.3524   18.5019    2.2525 N   0  0  0  0  0  0  0  0  0  0  0  0
    3.0472   16.5364    3.9821 N   0  0  0  0  0  0  0  0  0  0  0  0
    0.2047   15.3556    2.9954 H   0  0  0  0  0  0  0  0  0  0  0  0
    2.4071   19.0354    3.1294 H   0  0  0  0  0  0  0  0  0  0  0  0
    1.9420   19.1344    1.5542 H   0  0  0  0  0  0  0  0  0  0  0  0
    3.3823   15.8484    4.6387 H   0  0  0  0  0  0  0  0  0  0  0  0
    3.6825   17.2582    3.6648 H   0  0  0  0  0  0  0  0  0  0  0  0
  2  1  1  6  0  0  0
  2  3  1  0  0  0  0
  2  7  1  0  0  0  0
  3  4  1  0  0  0  0
  4  5  1  0  0  0  0
  5  6  1  0  0  0  0
  6  7  1  0  0  0  0
  6  8  1  6  0  0  0
  8  9  1  0  0  0  0
  8 14  1  0  0  0  0
  9 10  2  0  0  0  0
  9 13  1  0  0  0  0
 10 11  1  0  0  0  0
 10 12  1  0  0  0  0
 12 15  1  0  0  0  0
 12 16  1  0  0  0  0
 13 17  1  0  0  0  0
 13 18  1  0  0  0  0
M  CHG  1  10   1
M  END
>  <CHROM.0>
-65.24873897,-58.68305965,-65.80961003,-46.90607370,59.55518191,58.75208925
-69.25823075,-62.28716151,-168.60663125

>  <CHROM.1>
-49.58035051,-62.10649914,1.53939773,14.69696392,3.35909389,1.84896981,0.56672878
2.88755169

>  <Name>
P132826048

>  <RI>
3.58524e+07

>  <Rbt.Current_Directory>
/home/fstefaniak/projects/zuza/docking/adenine/4XNR

>  <Rbt.Executable>
rbdock ($Id: //depot/dev/client3/rdock/2013.1/src/exe/rbdock.cxx#4 $)

>  <Rbt.Library>
libRbt.so (2013.1, Build901 2013/11/27)

>  <Rbt.Parameter_File>
/home/fstefaniak/progs/rDock//data/scripts/dock_solv.prm

>  <Rbt.Receptor>
4xnr.prm

>  <SCORE>
-38.4439

>  <SCORE.INTER>
-23.6316

>  <SCORE.INTER.CONST>
1

>  <SCORE.INTER.POLAR>
-4.00518

>  <SCORE.INTER.ROT>
2

>  <SCORE.INTER.SOLV>
14.9237

>  <SCORE.INTER.VDW>
-12.3117

>  <SCORE.INTER.norm>
-1.9693

>  <SCORE.INTRA>
3.07377

>  <SCORE.INTRA.DIHEDRAL>
0.034015

>  <SCORE.INTRA.DIHEDRAL.0>
3.05781

>  <SCORE.INTRA.POLAR>
-0.000949505

>  <SCORE.INTRA.POLAR.0>
-0.0299945

>  <SCORE.INTRA.REPUL>
0

>  <SCORE.INTRA.REPUL.0>
0

>  <SCORE.INTRA.SOLV>
0.611875

>  <SCORE.INTRA.SOLV.lig_0>
-26.0797

>  <SCORE.INTRA.VDW>
2.75406

>  <SCORE.INTRA.VDW.0>
-1.12556

>  <SCORE.INTRA.norm>
0.256148

>  <SCORE.RESTR>
0.872462

>  <SCORE.RESTR.CAVITY>
0.872462

>  <SCORE.RESTR.norm>
0.0727052

>  <SCORE.SYSTEM>
-18.7585

>  <SCORE.SYSTEM.CONST>
0

>  <SCORE.SYSTEM.DIHEDRAL>
4.20548

>  <SCORE.SYSTEM.POLAR>
-2.93706

>  <SCORE.SYSTEM.SOLV>
-0.0667064

>  <SCORE.SYSTEM.VDW>
-4.09506

>  <SCORE.SYSTEM.norm>
-1.56321

>  <SCORE.heavy>
12

>  <SCORE.norm>
-3.20366

$$$$
P132826048
 OpenBabel12072022113D
libRbt.so/2013.1/901 2013/11/27
 18 18  0  0  0  0  0  0  0  0999 V2000
    0.9634   11.2106    4.6791 C   0  0  0  0  0  0  0  0  0  0  0  0
    2.4697   11.0794    4.9167 C   0  0  1  0  0  0  0  0  0  0  0  0
    3.2455   10.9705    3.5979 C   0  0  0  0  0  0  0  0  0  0  0  0
    3.3677   12.3033    2.8648 C   0  0  0  0  0  0  0  0  0  0  0  0
    3.9645   13.3855    3.7609 C   0  0  0  0  0  0  0  0  0  0  0  0
    3.1958   13.5563    5.0775 C   0  0  2  0  0  0  0  0  0  0  0  0
    3.0280   12.2105    5.7971 C   0  0  0  0  0  0  0  0  0  0  0  0
    1.8993   14.2286    4.8315 N   0  0  0  0  0  0  0  0  0  0  0  0
    1.7319   15.4969    4.4108 C   0  0  0  0  0  0  0  0  0  0  0  0
    0.4559   15.9967    4.2794 N   0  3  0  0  0  0  0  0  0  0  0  0
   -0.3802   15.4162    4.3216 H   0  0  0  0  0  0  0  0  0  0  0  0
    0.2818   17.3450    3.9267 N   0  0  0  0  0  0  0  0  0  0  0  0
    2.7698   16.2887    4.1031 N   0  0  0  0  0  0  0  0  0  0  0  0
    1.0560   13.6805    4.9444 H   0  0  0  0  0  0  0  0  0  0  0  0
   -0.6019   17.6915    4.3211 H   0  0  0  0  0  0  0  0  0  0  0  0
    0.1953   17.4282    2.9061 H   0  0  0  0  0  0  0  0  0  0  0  0
    3.7270   15.9737    4.1400 H   0  0  0  0  0  0  0  0  0  0  0  0
    2.5665   17.1828    3.6737 H   0  0  0  0  0  0  0  0  0  0  0  0
  2  1  1  6  0  0  0
  2  3  1  0  0  0  0
  2  7  1  0  0  0  0
  3  4  1  0  0  0  0
  4  5  1  0  0  0  0
  5  6  1  0  0  0  0
  6  7  1  0  0  0  0
  6  8  1  6  0  0  0
  8  9  1  0  0  0  0
  8 14  1  0  0  0  0
  9 10  2  0  0  0  0
  9 13  1  0  0  0  0
 10 11  1  0  0  0  0
 10 12  1  0  0  0  0
 12 15  1  0  0  0  0
 12 16  1  0  0  0  0
 13 17  1  0  0  0  0
 13 18  1  0  0  0  0
M  CHG  1  10   1
M  END
>  <CHROM.0>
-59.94948599,-174.71188741,60.72790454,-47.75523949,-59.80499246,58.81509708
53.25573841,-177.35972578,-168.20782588

>  <CHROM.1>
-66.30564159,-150.99697803,2.23183304,13.74184085,4.33678387,1.22137600,-0.28534397
2.99674528

>  <Name>
P132826048

>  <RI>
3.58524e+07

>  <Rbt.Current_Directory>
/home/fstefaniak/projects/zuza/docking/adenine/4XNR

>  <Rbt.Executable>
rbdock ($Id: //depot/dev/client3/rdock/2013.1/src/exe/rbdock.cxx#4 $)

>  <Rbt.Library>
libRbt.so (2013.1, Build901 2013/11/27)

>  <Rbt.Parameter_File>
/home/fstefaniak/progs/rDock//data/scripts/dock_solv.prm

>  <Rbt.Receptor>
4xnr.prm

>  <SCORE>
-37.5361

>  <SCORE.INTER>
-22.1945

>  <SCORE.INTER.CONST>
1

>  <SCORE.INTER.POLAR>
-4.09829

>  <SCORE.INTER.ROT>
2

>  <SCORE.INTER.SOLV>
15.379

>  <SCORE.INTER.VDW>
-11.195

>  <SCORE.INTER.norm>
-1.84954

>  <SCORE.INTRA>
1.17817

>  <SCORE.INTRA.DIHEDRAL>
0.0840608

>  <SCORE.INTRA.DIHEDRAL.0>
3.05781

>  <SCORE.INTRA.POLAR>
-0.0069856

>  <SCORE.INTRA.POLAR.0>
-0.0299945

>  <SCORE.INTRA.REPUL>
0

>  <SCORE.INTRA.REPUL.0>
0

>  <SCORE.INTRA.SOLV>
0.277052

>  <SCORE.INTRA.SOLV.lig_0>
-26.0797

>  <SCORE.INTRA.VDW>
1.02137

>  <SCORE.INTRA.VDW.0>
-1.12556

>  <SCORE.INTRA.norm>
0.0981809

>  <SCORE.RESTR>
1.17059

>  <SCORE.RESTR.CAVITY>
1.17059

>  <SCORE.RESTR.norm>
0.0975494

>  <SCORE.SYSTEM>
-17.6904

>  <SCORE.SYSTEM.CONST>
0

>  <SCORE.SYSTEM.DIHEDRAL>
3.82643

>  <SCORE.SYSTEM.POLAR>
-2.94674

>  <SCORE.SYSTEM.SOLV>
-0.101046

>  <SCORE.SYSTEM.VDW>
-3.2129

>  <SCORE.SYSTEM.norm>
-1.4742

>  <SCORE.heavy>
12

>  <SCORE.norm>
-3.12801

$$$$
P133005854
 OpenBabel12072022113D
libRbt.so/2013.1/901 2013/11/27
 10 10  0  0  0  0  0  0  0  0999 V2000
    4.7033   17.0326    4.0465 C   0  0  0  0  0  0  0  0  0  0  0  0
    4.4042   17.3479    2.5927 C   0  0  0  0  0  0  0  0  0  0  0  0
    5.6623   17.5706    1.9352 O   0  0  0  0  0  0  0  0  0  0  0  0
    6.7151   17.2600    2.8540 C   0  0  0  0  0  0  0  0  0  0  0  0
    6.1401   17.4900    4.2361 C   0  0  1  0  0  0  0  0  0  0  0  0
    6.2846   18.9411    4.7151 C   0  0  1  0  0  0  0  0  0  0  0  0
    5.8953   19.2007    6.1681 C   0  0  0  0  0  0  0  0  0  0  0  0
    5.3656   18.3394    6.8694 O   0  0  0  0  0  0  0  0  0  0  0  0
    7.6346   19.3515    4.4906 O   0  0  0  0  0  0  0  0  0  0  0  0
    7.7121   20.2575    4.8553 H   0  0  0  0  0  0  0  0  0  0  0  0
  1  2  1  0  0  0  0
  1  5  1  0  0  0  0
  2  3  1  0  0  0  0
  3  4  1  0  0  0  0
  4  5  1  0  0  0  0
  5  6  1  6  0  0  0
  6  7  1  1  0  0  0
  6  9  1  0  0  0  0
  7  8  2  0  0  0  0
  9 10  1  0  0  0  0
M  END
>  <CHROM.0>
-57.64999013,-166.05584852,-65.79116707,-46.71342163,-58.61606351,-63.37537274
-67.52765222,-56.75633975,-168.28078718

>  <CHROM.1>
72.26398394,-7.50808425,-176.54399221,5.89203784,18.08151360,4.20772091,1.77493624
-0.52930818,-1.88490309

>  <Name>
P133005854

>  <RI>
3.1908e+07

>  <Rbt.Current_Directory>
/home/fstefaniak/projects/zuza/docking/adenine/4XNR

>  <Rbt.Executable>
rbdock ($Id: //depot/dev/client3/rdock/2013.1/src/exe/rbdock.cxx#4 $)

>  <Rbt.Library>
libRbt.so (2013.1, Build901 2013/11/27)

>  <Rbt.Parameter_File>
/home/fstefaniak/progs/rDock//data/scripts/dock_solv.prm

>  <Rbt.Receptor>
4xnr.prm

>  <SCORE>
-48.5282

>  <SCORE.INTER>
-25.7414

>  <SCORE.INTER.CONST>
1

>  <SCORE.INTER.POLAR>
-3.19448

>  <SCORE.INTER.ROT>
2

>  <SCORE.INTER.SOLV>
10.1388

>  <SCORE.INTER.VDW>
-14.8256

>  <SCORE.INTER.norm>
-2.86016

>  <SCORE.INTRA>
-2.35205

>  <SCORE.INTRA.DIHEDRAL>
-3.02913

>  <SCORE.INTRA.DIHEDRAL.0>
4.46298

>  <SCORE.INTRA.POLAR>
0

>  <SCORE.INTRA.POLAR.0>
0

>  <SCORE.INTRA.REPUL>
0

>  <SCORE.INTRA.REPUL.0>
0

>  <SCORE.INTRA.SOLV>
-0.249299

>  <SCORE.INTRA.SOLV.lig_0>
-10.1399

>  <SCORE.INTRA.VDW>
-0.712831

>  <SCORE.INTRA.VDW.0>
0.782296

>  <SCORE.INTRA.norm>
-0.261339

>  <SCORE.RESTR>
0

>  <SCORE.RESTR.CAVITY>
0

>  <SCORE.RESTR.norm>
0

>  <SCORE.SYSTEM>
-20.4348

>  <SCORE.SYSTEM.CONST>
0

>  <SCORE.SYSTEM.DIHEDRAL>
4.9954

>  <SCORE.SYSTEM.POLAR>
-3.00263

>  <SCORE.SYSTEM.SOLV>
0.260248

>  <SCORE.SYSTEM.VDW>
-5.36628

>  <SCORE.SYSTEM.norm>
-2.27053

>  <SCORE.heavy>
9

>  <SCORE.norm>
-5.39203

$$$$
P133005854
 OpenBabel12072022113D
libRbt.so/2013.1/901 2013/11/27
 10 10  0  0  0  0  0  0  0  0999 V2000
    4.6913   16.9656    4.0059 C   0  0  0  0  0  0  0  0  0  0  0  0
    4.3888   17.3151    2.5607 C   0  0  0  0  0  0  0  0  0  0  0  0
    5.6433   17.5840    1.9136 O   0  0  0  0  0  0  0  0  0  0  0  0
    6.7005   17.2710    2.8266 C   0  0  0  0  0  0  0  0  0  0  0  0
    6.1171   17.4491    4.2128 C   0  0  1  0  0  0  0  0  0  0  0  0
    6.2281   18.8890    4.7329 C   0  0  1  0  0  0  0  0  0  0  0  0
    5.8909   19.0880    6.2083 C   0  0  0  0  0  0  0  0  0  0  0  0
    5.3595   18.2078    6.8844 O   0  0  0  0  0  0  0  0  0  0  0  0
    7.5515   19.3574    4.4671 O   0  0  0  0  0  0  0  0  0  0  0  0
    7.6082   20.2572    4.8503 H   0  0  0  0  0  0  0  0  0  0  0  0
  1  2  1  0  0  0  0
  1  5  1  0  0  0  0
  2  3  1  0  0  0  0
  3  4  1  0  0  0  0
  4  5  1  0  0  0  0
  5  6  1  6  0  0  0
  6  7  1  1  0  0  0
  6  9  1  0  0  0  0
  7  8  2  0  0  0  0
  9 10  1  0  0  0  0
M  END
>  <CHROM.0>
-58.25962012,-166.51859369,-63.39112429,-47.41991864,-59.06641051,58.43315368
-68.49388887,-58.44389559,-167.67156318

>  <CHROM.1>
74.95153529,-11.34210126,-177.07953383,5.86501306,18.03756054,4.19665827
1.77155112,-0.56598189,-1.85269628

>  <Name>
P133005854

>  <RI>
3.1908e+07

>  <Rbt.Current_Directory>
/home/fstefaniak/projects/zuza/docking/adenine/4XNR

>  <Rbt.Executable>
rbdock ($Id: //depot/dev/client3/rdock/2013.1/src/exe/rbdock.cxx#4 $)

>  <Rbt.Library>
libRbt.so (2013.1, Build901 2013/11/27)

>  <Rbt.Parameter_File>
/home/fstefaniak/progs/rDock//data/scripts/dock_solv.prm

>  <Rbt.Receptor>
4xnr.prm

>  <SCORE>
-47.3589

>  <SCORE.INTER>
-25.8703

>  <SCORE.INTER.CONST>
1

>  <SCORE.INTER.POLAR>
-3.16028

>  <SCORE.INTER.ROT>
2

>  <SCORE.INTER.SOLV>
10.0915

>  <SCORE.INTER.VDW>
-15.0097

>  <SCORE.INTER.norm>
-2.87447

>  <SCORE.INTRA>
-2.14755

>  <SCORE.INTRA.DIHEDRAL>
-2.70315

>  <SCORE.INTRA.DIHEDRAL.0>
4.46298

>  <SCORE.INTRA.POLAR>
0

>  <SCORE.INTRA.POLAR.0>
0

>  <SCORE.INTRA.REPUL>
0

>  <SCORE.INTRA.REPUL.0>
0

>  <SCORE.INTRA.SOLV>
-0.240319

>  <SCORE.INTRA.SOLV.lig_0>
-10.1399

>  <SCORE.INTRA.VDW>
-0.675814

>  <SCORE.INTRA.VDW.0>
0.782296

>  <SCORE.INTRA.norm>
-0.238617

>  <SCORE.RESTR>
0

>  <SCORE.RESTR.CAVITY>
0

>  <SCORE.RESTR.norm>
0

>  <SCORE.SYSTEM>
-19.3411

>  <SCORE.SYSTEM.CONST>
0

>  <SCORE.SYSTEM.DIHEDRAL>
4.79595

>  <SCORE.SYSTEM.POLAR>
-2.98486

>  <SCORE.SYSTEM.SOLV>
0.13183

>  <SCORE.SYSTEM.VDW>
-4.5871

>  <SCORE.SYSTEM.norm>
-2.14901

>  <SCORE.heavy>
9

>  <SCORE.norm>
-5.2621

$$$$
P133005854
 OpenBabel12072022113D
libRbt.so/2013.1/901 2013/11/27
 10 10  0  0  0  0  0  0  0  0999 V2000
    5.0112   16.3809    4.1623 C   0  0  0  0  0  0  0  0  0  0  0  0
    3.6678   16.6370    3.5050 C   0  0  0  0  0  0  0  0  0  0  0  0
    3.8921   17.5394    2.4096 O   0  0  0  0  0  0  0  0  0  0  0  0
    5.3031   17.7282    2.2595 C   0  0  0  0  0  0  0  0  0  0  0  0
    5.9008   17.4925    3.6310 C   0  0  1  0  0  0  0  0  0  0  0  0
    5.9249   18.7555    4.5030 C   0  0  1  0  0  0  0  0  0  0  0  0
    6.2305   18.5333    5.9820 C   0  0  0  0  0  0  0  0  0  0  0  0
    5.4398   17.9700    6.7380 O   0  0  0  0  0  0  0  0  0  0  0  0
    6.8708   19.6667    3.9405 O   0  0  0  0  0  0  0  0  0  0  0  0
    6.9116   20.4332    4.5493 H   0  0  0  0  0  0  0  0  0  0  0  0
  1  2  1  0  0  0  0
  1  5  1  0  0  0  0
  2  3  1  0  0  0  0
  3  4  1  0  0  0  0
  4  5  1  0  0  0  0
  5  6  1  1  0  0  0
  6  7  1  1  0  0  0
  6  9  1  0  0  0  0
  7  8  2  0  0  0  0
  9 10  1  0  0  0  0
M  END
>  <CHROM.0>
-58.62787600,-169.46714536,59.95229206,-47.21582571,-174.81981466,-175.82859823
52.55916577,-60.22759345,-167.75082479

>  <CHROM.1>
51.86271149,-69.33382336,-176.11593358,5.35869122,17.89090009,4.12625147
2.38570701,-0.81674511,-1.41624250

>  <Name>
P133005854

>  <RI>
3.1908e+07

>  <Rbt.Current_Directory>
/home/fstefaniak/projects/zuza/docking/adenine/4XNR

>  <Rbt.Executable>
rbdock ($Id: //depot/dev/client3/rdock/2013.1/src/exe/rbdock.cxx#4 $)

>  <Rbt.Library>
libRbt.so (2013.1, Build901 2013/11/27)

>  <Rbt.Parameter_File>
/home/fstefaniak/progs/rDock//data/scripts/dock_solv.prm

>  <Rbt.Receptor>
4xnr.prm

>  <SCORE>
-46.0847

>  <SCORE.INTER>
-26.0135

>  <SCORE.INTER.CONST>
1

>  <SCORE.INTER.POLAR>
-3.32689

>  <SCORE.INTER.ROT>
2

>  <SCORE.INTER.SOLV>
10.0317

>  <SCORE.INTER.VDW>
-14.5299

>  <SCORE.INTER.norm>
-2.89039

>  <SCORE.INTRA>
-1.57854

>  <SCORE.INTRA.DIHEDRAL>
-0.864729

>  <SCORE.INTRA.DIHEDRAL.0>
4.46298

>  <SCORE.INTRA.POLAR>
0

>  <SCORE.INTRA.POLAR.0>
0

>  <SCORE.INTRA.REPUL>
0

>  <SCORE.INTRA.REPUL.0>
0

>  <SCORE.INTRA.SOLV>
-0.405705

>  <SCORE.INTRA.SOLV.lig_0>
-10.1399

>  <SCORE.INTRA.VDW>
-0.943318

>  <SCORE.INTRA.VDW.0>
0.782296

>  <SCORE.INTRA.norm>
-0.175393

>  <SCORE.RESTR>
0

>  <SCORE.RESTR.CAVITY>
0

>  <SCORE.RESTR.norm>
0

>  <SCORE.SYSTEM>
-18.4927

>  <SCORE.SYSTEM.CONST>
0

>  <SCORE.SYSTEM.DIHEDRAL>
4.53342

>  <SCORE.SYSTEM.POLAR>
-2.95963

>  <SCORE.SYSTEM.SOLV>
-0.125372

>  <SCORE.SYSTEM.VDW>
-3.93236

>  <SCORE.SYSTEM.norm>
-2.05474

>  <SCORE.heavy>
9

>  <SCORE.norm>
-5.12052

$$$$
P133035570
 OpenBabel12072022113D
libRbt.so/2013.1/901 2013/11/27
 19 19  0  0  0  0  0  0  0  0999 V2000
    5.7432   18.0927    4.1640 C   0  0  0  0  0  0  0  0  0  0  0  0
    6.9246   18.3007    3.2052 C   0  0  0  0  0  0  0  0  0  0  0  0
    6.4872   17.7033    1.8718 C   0  0  1  0  0  0  0  0  0  0  0  0
    4.9671   17.6581    1.9386 C   0  0  0  0  0  0  0  0  0  0  0  0
    4.7076   17.2654    3.3947 C   0  0  1  0  0  0  0  0  0  0  0  0
    4.9117   15.7704    3.6175 C   0  0  0  0  0  0  0  0  0  0  0  0
    5.8986   15.1832    3.1851 O   0  0  0  0  0  0  0  0  0  0  0  0
    3.9230   15.1709    4.3572 N   0  0  0  0  0  0  0  0  0  0  0  0
    3.1410   14.0855    3.7878 C   0  0  0  0  0  0  0  0  0  0  0  0
    1.6861   14.5328    3.6122 C   0  0  0  0  0  0  0  0  0  0  0  0
    1.0307   14.3389    2.5907 O   0  0  0  0  0  0  0  0  0  0  0  0
    1.1363   15.1593    4.6926 N   0  0  0  0  0  0  0  0  0  0  0  0
    6.9359   18.5399    0.7406 N   0  3  0  0  0  0  0  0  0  0  0  0
    6.4458   19.4423    0.6968 H   0  0  0  0  0  0  0  0  0  0  0  0
    7.9440   18.7342    0.8054 H   0  0  0  0  0  0  0  0  0  0  0  0
    6.7808   18.0552   -0.1536 H   0  0  0  0  0  0  0  0  0  0  0  0
    4.0216   15.1568    5.3655 H   0  0  0  0  0  0  0  0  0  0  0  0
    1.6483   15.3728    5.5384 H   0  0  0  0  0  0  0  0  0  0  0  0
    0.1769   15.4766    4.6233 H   0  0  0  0  0  0  0  0  0  0  0  0
  1  2  1  0  0  0  0
  1  5  1  0  0  0  0
  2  3  1  0  0  0  0
  3  4  1  0  0  0  0
  3 13  1  6  0  0  0
  4  5  1  0  0  0  0
  5  6  1  6  0  0  0
  6  7  2  0  0  0  0
  6  8  1  0  0  0  0
  8  9  1  0  0  0  0
  8 17  1  0  0  0  0
  9 10  1  0  0  0  0
 10 11  2  0  0  0  0
 10 12  1  0  0  0  0
 12 18  1  0  0  0  0
 12 19  1  0  0  0  0
 13 14  1  0  0  0  0
 13 15  1  0  0  0  0
 13 16  1  0  0  0  0
M  CHG  1  13   1
M  END
>  <CHROM.0>
-59.96127976,-170.95471226,-63.32670883,-45.93134210,-60.23354698,-61.94876369
-67.17541063,-57.25344451,-168.14323544

>  <CHROM.1>
-68.97480729,-67.73154044,120.18376371,-113.54266379,133.88078375,4.41659437
16.29599873,3.14464681,-0.46300467,0.52257441,1.91744818

>  <Name>
P133035570

>  <RI>
3.58524e+07

>  <Rbt.Current_Directory>
/home/fstefaniak/projects/zuza/docking/adenine/4XNR

>  <Rbt.Executable>
rbdock ($Id: //depot/dev/client3/rdock/2013.1/src/exe/rbdock.cxx#4 $)

>  <Rbt.Library>
libRbt.so (2013.1, Build901 2013/11/27)

>  <Rbt.Parameter_File>
/home/fstefaniak/progs/rDock//data/scripts/dock_solv.prm

>  <Rbt.Receptor>
4xnr.prm

>  <SCORE>
-57.4873

>  <SCORE.INTER>
-38.2394

>  <SCORE.INTER.CONST>
1

>  <SCORE.INTER.POLAR>
-6.48167

>  <SCORE.INTER.ROT>
4

>  <SCORE.INTER.SOLV>
24.1058

>  <SCORE.INTER.VDW>
-18.1893

>  <SCORE.INTER.norm>
-2.94149

>  <SCORE.INTRA>
1.33966

>  <SCORE.INTRA.DIHEDRAL>
4.3855

>  <SCORE.INTRA.DIHEDRAL.0>
3.12305

>  <SCORE.INTRA.POLAR>
0

>  <SCORE.INTRA.POLAR.0>
0

>  <SCORE.INTRA.REPUL>
0

>  <SCORE.INTRA.REPUL.0>
0

>  <SCORE.INTRA.SOLV>
-0.23956

>  <SCORE.INTRA.SOLV.lig_0>
-38.6798

>  <SCORE.INTRA.VDW>
-0.733313

>  <SCORE.INTRA.VDW.0>
-0.586582

>  <SCORE.INTRA.norm>
0.103051

>  <SCORE.RESTR>
0

>  <SCORE.RESTR.CAVITY>
0

>  <SCORE.RESTR.norm>
0

>  <SCORE.SYSTEM>
-20.5875

>  <SCORE.SYSTEM.CONST>
0

>  <SCORE.SYSTEM.DIHEDRAL>
4.38746

>  <SCORE.SYSTEM.POLAR>
-2.99923

>  <SCORE.SYSTEM.SOLV>
0.26433

>  <SCORE.SYSTEM.VDW>
-5.27818

>  <SCORE.SYSTEM.norm>
-1.58366

>  <SCORE.heavy>
13

>  <SCORE.norm>
-4.4221

$$$$
P133035570
 OpenBabel12072022113D
libRbt.so/2013.1/901 2013/11/27
 19 19  0  0  0  0  0  0  0  0999 V2000
    6.5140   17.0708    3.0437 C   0  0  0  0  0  0  0  0  0  0  0  0
    6.7616   18.5547    3.3520 C   0  0  0  0  0  0  0  0  0  0  0  0
    5.8781   18.8825    4.5513 C   0  0  1  0  0  0  0  0  0  0  0  0
    5.5767   17.5384    5.1992 C   0  0  0  0  0  0  0  0  0  0  0  0
    5.3978   16.6169    3.9907 C   0  0  1  0  0  0  0  0  0  0  0  0
    4.0227   16.7876    3.3535 C   0  0  0  0  0  0  0  0  0  0  0  0
    3.8920   17.1757    2.1968 O   0  0  0  0  0  0  0  0  0  0  0  0
    2.9759   16.4427    4.1717 N   0  0  0  0  0  0  0  0  0  0  0  0
    1.6945   16.0646    3.5983 C   0  0  0  0  0  0  0  0  0  0  0  0
    0.6046   17.0222    4.0910 C   0  0  0  0  0  0  0  0  0  0  0  0
    0.1939   17.9814    3.4414 O   0  0  0  0  0  0  0  0  0  0  0  0
    0.0861   16.7302    5.3189 N   0  0  0  0  0  0  0  0  0  0  0  0
    6.5760   19.7746    5.4989 N   0  3  0  0  0  0  0  0  0  0  0  0
    5.9723   20.0805    6.2724 H   0  0  0  0  0  0  0  0  0  0  0  0
    7.3955   19.3061    5.9079 H   0  0  0  0  0  0  0  0  0  0  0  0
    6.9208   20.6166    5.0184 H   0  0  0  0  0  0  0  0  0  0  0  0
    3.1885   16.0348    5.0745 H   0  0  0  0  0  0  0  0  0  0  0  0
    0.4186   15.9747    5.9036 H   0  0  0  0  0  0  0  0  0  0  0  0
   -0.6355   17.3371    5.6891 H   0  0  0  0  0  0  0  0  0  0  0  0
  1  2  1  0  0  0  0
  1  5  1  0  0  0  0
  2  3  1  0  0  0  0
  3  4  1  0  0  0  0
  3 13  1  1  0  0  0
  4  5  1  0  0  0  0
  5  6  1  6  0  0  0
  6  7  2  0  0  0  0
  6  8  1  0  0  0  0
  8  9  1  0  0  0  0
  8 17  1  0  0  0  0
  9 10  1  0  0  0  0
 10 11  2  0  0  0  0
 10 12  1  0  0  0  0
 12 18  1  0  0  0  0
 12 19  1  0  0  0  0
 13 14  1  0  0  0  0
 13 15  1  0  0  0  0
 13 16  1  0  0  0  0
M  CHG  1  13   1
M  END
>  <CHROM.0>
-60.83961127,-61.35011208,-75.72550717,-46.63274221,-57.54087371,-62.50631321
-171.83496370,-63.81538529,-169.19001351

>  <CHROM.1>
174.70717986,3.64850147,-156.69577060,-120.04171813,98.26050659,3.83602964
17.47073107,4.01661676,-0.17529019,-0.18228637,-2.26011457

>  <Name>
P133035570

>  <RI>
3.58524e+07

>  <Rbt.Current_Directory>
/home/fstefaniak/projects/zuza/docking/adenine/4XNR

>  <Rbt.Executable>
rbdock ($Id: //depot/dev/client3/rdock/2013.1/src/exe/rbdock.cxx#4 $)

>  <Rbt.Library>
libRbt.so (2013.1, Build901 2013/11/27)

>  <Rbt.Parameter_File>
/home/fstefaniak/progs/rDock//data/scripts/dock_solv.prm

>  <Rbt.Receptor>
4xnr.prm

>  <SCORE>
-57.2147

>  <SCORE.INTER>
-37.6334

>  <SCORE.INTER.CONST>
1

>  <SCORE.INTER.POLAR>
-4.93595

>  <SCORE.INTER.ROT>
4

>  <SCORE.INTER.SOLV>
25.7256

>  <SCORE.INTER.VDW>
-23.4776

>  <SCORE.INTER.norm>
-2.89488

>  <SCORE.INTRA>
0.660307

>  <SCORE.INTRA.DIHEDRAL>
1.08255

>  <SCORE.INTRA.DIHEDRAL.0>
3.12305

>  <SCORE.INTRA.POLAR>
0

>  <SCORE.INTRA.POLAR.0>
0

>  <SCORE.INTRA.REPUL>
0

>  <SCORE.INTRA.REPUL.0>
0

>  <SCORE.INTRA.SOLV>
-0.332046

>  <SCORE.INTRA.SOLV.lig_0>
-38.6798

>  <SCORE.INTRA.VDW>
0.285055

>  <SCORE.INTRA.VDW.0>
-0.586582

>  <SCORE.INTRA.norm>
0.0507928

>  <SCORE.RESTR>
0

>  <SCORE.RESTR.CAVITY>
0

>  <SCORE.RESTR.norm>
0

>  <SCORE.SYSTEM>
-20.2416

>  <SCORE.SYSTEM.CONST>
0

>  <SCORE.SYSTEM.DIHEDRAL>
4.97993

>  <SCORE.SYSTEM.POLAR>
-2.92087

>  <SCORE.SYSTEM.SOLV>
0.214485

>  <SCORE.SYSTEM.VDW>
-5.48965

>  <SCORE.SYSTEM.norm>
-1.55705

>  <SCORE.heavy>
13

>  <SCORE.norm>
-4.40113

$$$$
P133035570
 OpenBabel12072022113D
libRbt.so/2013.1/901 2013/11/27
 19 19  0  0  0  0  0  0  0  0999 V2000
    6.5205   17.0767    3.0711 C   0  0  0  0  0  0  0  0  0  0  0  0
    6.7401   18.5640    3.3841 C   0  0  0  0  0  0  0  0  0  0  0  0
    5.8445   18.8735    4.5792 C   0  0  1  0  0  0  0  0  0  0  0  0
    5.5632   17.5228    5.2225 C   0  0  0  0  0  0  0  0  0  0  0  0
    5.4073   16.6010    4.0110 C   0  0  1  0  0  0  0  0  0  0  0  0
    4.0328   16.7490    3.3667 C   0  0  0  0  0  0  0  0  0  0  0  0
    3.9022   17.1254    2.2061 O   0  0  0  0  0  0  0  0  0  0  0  0
    2.9870   16.3978    4.1834 N   0  0  0  0  0  0  0  0  0  0  0  0
    1.7125   15.9998    3.6079 C   0  0  0  0  0  0  0  0  0  0  0  0
    0.6149   16.9672    4.0628 C   0  0  0  0  0  0  0  0  0  0  0  0
    0.2093   17.9078    3.3835 O   0  0  0  0  0  0  0  0  0  0  0  0
    0.0833   16.7065    5.2922 N   0  0  0  0  0  0  0  0  0  0  0  0
    6.5214   19.7756    5.5325 N   0  3  0  0  0  0  0  0  0  0  0  0
    7.3072   19.3228    6.0162 H   0  0  0  0  0  0  0  0  0  0  0  0
    6.8875   20.6085    5.0525 H   0  0  0  0  0  0  0  0  0  0  0  0
    5.8619   20.1079    6.2490 H   0  0  0  0  0  0  0  0  0  0  0  0
    3.2008   15.9997    5.0902 H   0  0  0  0  0  0  0  0  0  0  0  0
    0.4110   15.9677    5.9004 H   0  0  0  0  0  0  0  0  0  0  0  0
   -0.6438   17.3211    5.6380 H   0  0  0  0  0  0  0  0  0  0  0  0
  1  2  1  0  0  0  0
  1  5  1  0  0  0  0
  2  3  1  0  0  0  0
  3  4  1  0  0  0  0
  3 13  1  1  0  0  0
  4  5  1  0  0  0  0
  5  6  1  6  0  0  0
  6  7  2  0  0  0  0
  6  8  1  0  0  0  0
  8  9  1  0  0  0  0
  8 17  1  0  0  0  0
  9 10  1  0  0  0  0
 10 11  2  0  0  0  0
 10 12  1  0  0  0  0
 12 18  1  0  0  0  0
 12 19  1  0  0  0  0
 13 14  1  0  0  0  0
 13 15  1  0  0  0  0
 13 16  1  0  0  0  0
M  CHG  1  13   1
M  END
>  <CHROM.0>
-59.12961727,-67.73369654,-66.45639200,-41.26612590,-59.70572227,61.27205966
-65.24984864,-54.44030605,-168.54110435

>  <CHROM.1>
-68.99354026,4.33506692,-156.74732945,-118.74069691,98.15534973,3.83230537
17.44221781,4.02365372,-0.19051502,-0.18243702,-2.26624280

>  <Name>
P133035570

>  <RI>
3.58524e+07

>  <Rbt.Current_Directory>
/home/fstefaniak/projects/zuza/docking/adenine/4XNR

>  <Rbt.Executable>
rbdock ($Id: //depot/dev/client3/rdock/2013.1/src/exe/rbdock.cxx#4 $)

>  <Rbt.Library>
libRbt.so (2013.1, Build901 2013/11/27)

>  <Rbt.Parameter_File>
/home/fstefaniak/progs/rDock//data/scripts/dock_solv.prm

>  <Rbt.Receptor>
4xnr.prm

>  <SCORE>
-56.4323

>  <SCORE.INTER>
-37.7067

>  <SCORE.INTER.CONST>
1

>  <SCORE.INTER.POLAR>
-4.96031

>  <SCORE.INTER.ROT>
4

>  <SCORE.INTER.SOLV>
25.7657

>  <SCORE.INTER.VDW>
-23.4587

>  <SCORE.INTER.norm>
-2.90052

>  <SCORE.INTRA>
0.724121

>  <SCORE.INTRA.DIHEDRAL>
1.24952

>  <SCORE.INTRA.DIHEDRAL.0>
3.12305

>  <SCORE.INTRA.POLAR>
0

>  <SCORE.INTRA.POLAR.0>
0

>  <SCORE.INTRA.REPUL>
0

>  <SCORE.INTRA.REPUL.0>
0

>  <SCORE.INTRA.SOLV>
-0.351784

>  <SCORE.INTRA.SOLV.lig_0>
-38.6798

>  <SCORE.INTRA.VDW>
0.275252

>  <SCORE.INTRA.VDW.0>
-0.586582

>  <SCORE.INTRA.norm>
0.0557016

>  <SCORE.RESTR>
0

>  <SCORE.RESTR.CAVITY>
0

>  <SCORE.RESTR.norm>
0

>  <SCORE.SYSTEM>
-19.4496

>  <SCORE.SYSTEM.CONST>
0

>  <SCORE.SYSTEM.DIHEDRAL>
5.02112

>  <SCORE.SYSTEM.POLAR>
-3.07082

>  <SCORE.SYSTEM.SOLV>
0.174642

>  <SCORE.SYSTEM.VDW>
-4.4623

>  <SCORE.SYSTEM.norm>
-1.49613

>  <SCORE.heavy>
13

>  <SCORE.norm>
-4.34094

$$$$
P133055839
 OpenBabel12072022113D
libRbt.so/2013.1/901 2013/11/27
 14 14  0  0  0  0  0  0  0  0999 V2000
    3.7074   15.0630    3.7571 C   0  0  0  0  0  0  0  0  0  0  0  0
    2.9583   16.3947    3.6862 C   0  0  0  0  0  0  0  0  0  0  0  0
    1.5684   16.0874    4.2180 C   0  0  2  0  0  0  0  0  0  0  0  0
    1.2797   14.6779    3.7383 C   0  0  0  0  0  0  0  0  0  0  0  0
    2.6339   13.9702    3.8328 C   0  0  2  0  0  0  0  0  0  0  0  0
    2.7231   13.0374    5.0415 C   0  0  0  0  0  0  0  0  0  0  0  0
    2.9039   13.5235    6.1637 O   0  0  0  0  0  0  0  0  0  0  0  0
    2.7066   11.6736    4.8908 N   0  0  0  0  0  0  0  0  0  0  0  0
    3.8653   10.9265    4.9224 O   0  5  0  0  0  0  0  0  0  0  0  0
    0.5753   17.0313    3.6547 N   0  3  0  0  0  0  0  0  0  0  0  0
    0.7467   17.9967    3.9488 H   0  0  0  0  0  0  0  0  0  0  0  0
    0.6160   16.9772    2.6303 H   0  0  0  0  0  0  0  0  0  0  0  0
   -0.3662   16.7454    3.9444 H   0  0  0  0  0  0  0  0  0  0  0  0
    1.9886   11.3197    4.2635 H   0  0  0  0  0  0  0  0  0  0  0  0
  1  2  1  0  0  0  0
  1  5  1  0  0  0  0
  2  3  1  0  0  0  0
  3  4  1  0  0  0  0
  3 10  1  6  0  0  0
  4  5  1  0  0  0  0
  5  6  1  1  0  0  0
  6  7  2  0  0  0  0
  6  8  1  0  0  0  0
  8  9  1  0  0  0  0
  8 14  1  0  0  0  0
 10 11  1  0  0  0  0
 10 12  1  0  0  0  0
 10 13  1  0  0  0  0
M  CHG  2   9  -1  10   1
M  END
>  <CHROM.0>
-53.94297876,-21.29217853,-68.60334243,-45.60668018,-55.86126334,-54.89091035
-67.11946718,58.64006883,-167.53348156

>  <CHROM.1>
-64.23176270,45.91725809,99.88288818,2.47026420,14.23169505,4.39873979,-1.92410880
-0.11356631,2.82053822

>  <Name>
P133055839

>  <RI>
9.71178e+06

>  <Rbt.Current_Directory>
/home/fstefaniak/projects/zuza/docking/adenine/4XNR

>  <Rbt.Executable>
rbdock ($Id: //depot/dev/client3/rdock/2013.1/src/exe/rbdock.cxx#4 $)

>  <Rbt.Library>
libRbt.so (2013.1, Build901 2013/11/27)

>  <Rbt.Parameter_File>
/home/fstefaniak/progs/rDock//data/scripts/dock_solv.prm

>  <Rbt.Receptor>
4xnr.prm

>  <SCORE>
-45.8449

>  <SCORE.INTER>
-28.6355

>  <SCORE.INTER.CONST>
1

>  <SCORE.INTER.POLAR>
-4.61727

>  <SCORE.INTER.ROT>
2

>  <SCORE.INTER.SOLV>
20.3889

>  <SCORE.INTER.VDW>
-15.429

>  <SCORE.INTER.norm>
-2.86355

>  <SCORE.INTRA>
-1.06834

>  <SCORE.INTRA.DIHEDRAL>
2.83046

>  <SCORE.INTRA.DIHEDRAL.0>
1.19454

>  <SCORE.INTRA.POLAR>
0

>  <SCORE.INTRA.POLAR.0>
0

>  <SCORE.INTRA.REPUL>
0

>  <SCORE.INTRA.REPUL.0>
0

>  <SCORE.INTRA.SOLV>
-5.57853

>  <SCORE.INTRA.SOLV.lig_0>
-54.2655

>  <SCORE.INTRA.VDW>
0.305702

>  <SCORE.INTRA.VDW.0>
-1.02733

>  <SCORE.INTRA.norm>
-0.106834

>  <SCORE.RESTR>
0

>  <SCORE.RESTR.CAVITY>
0

>  <SCORE.RESTR.norm>
0

>  <SCORE.SYSTEM>
-16.1411

>  <SCORE.SYSTEM.CONST>
0

>  <SCORE.SYSTEM.DIHEDRAL>
9.76945

>  <SCORE.SYSTEM.POLAR>
-3.06678

>  <SCORE.SYSTEM.SOLV>
0.277458

>  <SCORE.SYSTEM.VDW>
-3.88712

>  <SCORE.SYSTEM.norm>
-1.61411

>  <SCORE.heavy>
10

>  <SCORE.norm>
-4.58449

$$$$
P133055839
 OpenBabel12072022113D
libRbt.so/2013.1/901 2013/11/27
 14 14  0  0  0  0  0  0  0  0999 V2000
    3.2865   14.8845    3.7471 C   0  0  0  0  0  0  0  0  0  0  0  0
    2.6082   16.2540    3.8082 C   0  0  0  0  0  0  0  0  0  0  0  0
    1.4205   16.0584    4.7355 C   0  0  2  0  0  0  0  0  0  0  0  0
    0.9434   14.6471    4.4512 C   0  0  0  0  0  0  0  0  0  0  0  0
    2.2343   13.8640    4.1985 C   0  0  2  0  0  0  0  0  0  0  0  0
    2.6294   12.9881    5.3884 C   0  0  0  0  0  0  0  0  0  0  0  0
    3.0382   13.5283    6.4226 O   0  0  0  0  0  0  0  0  0  0  0  0
    2.6334   11.6192    5.2943 N   0  0  0  0  0  0  0  0  0  0  0  0
    3.7691   10.9198    4.9442 O   0  5  0  0  0  0  0  0  0  0  0  0
    0.3490   17.0319    4.4211 N   0  3  0  0  0  0  0  0  0  0  0  0
   -0.2258   17.2541    5.2385 H   0  0  0  0  0  0  0  0  0  0  0  0
    0.7820   17.8930    4.0676 H   0  0  0  0  0  0  0  0  0  0  0  0
   -0.2449   16.6532    3.6756 H   0  0  0  0  0  0  0  0  0  0  0  0
    1.7625   11.2089    4.9665 H   0  0  0  0  0  0  0  0  0  0  0  0
  1  2  1  0  0  0  0
  1  5  1  0  0  0  0
  2  3  1  0  0  0  0
  3  4  1  0  0  0  0
  3 10  1  6  0  0  0
  4  5  1  0  0  0  0
  5  6  1  1  0  0  0
  6  7  2  0  0  0  0
  6  8  1  0  0  0  0
  8  9  1  0  0  0  0
  8 14  1  0  0  0  0
 10 11  1  0  0  0  0
 10 12  1  0  0  0  0
 10 13  1  0  0  0  0
M  CHG  2   9  -1  10   1
M  END
>  <CHROM.0>
-56.69173599,-28.19389167,-63.59643879,-46.12377018,-59.65404526,-61.09531221
-66.46641155,60.16659000,-168.21375214

>  <CHROM.1>
-152.01363950,52.30451440,92.59500518,2.27406424,14.17568299,4.75454023,-2.03646381
-0.53804884,2.67928597

>  <Name>
P133055839

>  <RI>
9.71178e+06

>  <Rbt.Current_Directory>
/home/fstefaniak/projects/zuza/docking/adenine/4XNR

>  <Rbt.Executable>
rbdock ($Id: //depot/dev/client3/rdock/2013.1/src/exe/rbdock.cxx#4 $)

>  <Rbt.Library>
libRbt.so (2013.1, Build901 2013/11/27)

>  <Rbt.Parameter_File>
/home/fstefaniak/progs/rDock//data/scripts/dock_solv.prm

>  <Rbt.Receptor>
4xnr.prm

>  <SCORE>
-44.0342

>  <SCORE.INTER>
-27.4109

>  <SCORE.INTER.CONST>
1

>  <SCORE.INTER.POLAR>
-4.57136

>  <SCORE.INTER.ROT>
2

>  <SCORE.INTER.SOLV>
21.964

>  <SCORE.INTER.VDW>
-15.2907

>  <SCORE.INTER.norm>
-2.74109

>  <SCORE.INTRA>
0.470431

>  <SCORE.INTRA.DIHEDRAL>
4.61013

>  <SCORE.INTRA.DIHEDRAL.0>
1.19454

>  <SCORE.INTRA.POLAR>
0

>  <SCORE.INTRA.POLAR.0>
0

>  <SCORE.INTRA.REPUL>
0

>  <SCORE.INTRA.REPUL.0>
0

>  <SCORE.INTRA.SOLV>
-5.41355

>  <SCORE.INTRA.SOLV.lig_0>
-54.2655

>  <SCORE.INTRA.VDW>
0.872138

>  <SCORE.INTRA.VDW.0>
-1.02733

>  <SCORE.INTRA.norm>
0.0470431

>  <SCORE.RESTR>
0

>  <SCORE.RESTR.CAVITY>
0

>  <SCORE.RESTR.norm>
0

>  <SCORE.SYSTEM>
-17.0937

>  <SCORE.SYSTEM.CONST>
0

>  <SCORE.SYSTEM.DIHEDRAL>
7.79098

>  <SCORE.SYSTEM.POLAR>
-3.01586

>  <SCORE.SYSTEM.SOLV>
0.250376

>  <SCORE.SYSTEM.VDW>
-4.02338

>  <SCORE.SYSTEM.norm>
-1.70937

>  <SCORE.heavy>
10

>  <SCORE.norm>
-4.40342

$$$$
P133055839
 OpenBabel12072022113D
libRbt.so/2013.1/901 2013/11/27
 14 14  0  0  0  0  0  0  0  0999 V2000
    3.9240   14.6715    4.0997 C   0  0  0  0  0  0  0  0  0  0  0  0
    3.2108   16.0118    3.9149 C   0  0  0  0  0  0  0  0  0  0  0  0
    1.7775   15.7521    4.3476 C   0  0  2  0  0  0  0  0  0  0  0  0
    1.4978   14.3287    3.9052 C   0  0  0  0  0  0  0  0  0  0  0  0
    2.8254   13.6020    4.1355 C   0  0  2  0  0  0  0  0  0  0  0  0
    2.8004   12.7203    5.3850 C   0  0  0  0  0  0  0  0  0  0  0  0
    3.2536   13.1671    6.4449 O   0  0  0  0  0  0  0  0  0  0  0  0
    2.3788   11.4158    5.3272 N   0  0  0  0  0  0  0  0  0  0  0  0
    2.8655   10.4576    6.1913 O   0  5  0  0  0  0  0  0  0  0  0  0
    0.8513   16.6883    3.6691 N   0  3  0  0  0  0  0  0  0  0  0  0
   -0.1304   16.4400    3.8188 H   0  0  0  0  0  0  0  0  0  0  0  0
    1.0197   17.6347    4.0295 H   0  0  0  0  0  0  0  0  0  0  0  0
    1.0546   16.6970    2.6639 H   0  0  0  0  0  0  0  0  0  0  0  0
    2.1604   11.0761    4.3938 H   0  0  0  0  0  0  0  0  0  0  0  0
  1  2  1  0  0  0  0
  1  5  1  0  0  0  0
  2  3  1  0  0  0  0
  3  4  1  0  0  0  0
  3 10  1  6  0  0  0
  4  5  1  0  0  0  0
  5  6  1  1  0  0  0
  6  7  2  0  0  0  0
  6  8  1  0  0  0  0
  8  9  1  0  0  0  0
  8 14  1  0  0  0  0
 10 11  1  0  0  0  0
 10 12  1  0  0  0  0
 10 13  1  0  0  0  0
M  CHG  2   9  -1  10   1
M  END
>  <CHROM.0>
-57.49126335,-34.73500146,-64.87508721,-44.50186319,-58.31448100,-62.98717304
-67.54350788,-65.36436228,-168.21149155

>  <CHROM.1>
170.51630875,26.51332589,150.66168528,2.51038467,13.87414702,4.75487187,-1.76726634
0.18926142,2.76750170

>  <Name>
P133055839

>  <RI>
9.71178e+06

>  <Rbt.Current_Directory>
/home/fstefaniak/projects/zuza/docking/adenine/4XNR

>  <Rbt.Executable>
rbdock ($Id: //depot/dev/client3/rdock/2013.1/src/exe/rbdock.cxx#4 $)

>  <Rbt.Library>
libRbt.so (2013.1, Build901 2013/11/27)

>  <Rbt.Parameter_File>
/home/fstefaniak/progs/rDock//data/scripts/dock_solv.prm

>  <Rbt.Receptor>
4xnr.prm

>  <SCORE>
-43.6567

>  <SCORE.INTER>
-23.1204

>  <SCORE.INTER.CONST>
1

>  <SCORE.INTER.POLAR>
-3.23921

>  <SCORE.INTER.ROT>
2

>  <SCORE.INTER.SOLV>
16.5451

>  <SCORE.INTER.VDW>
-15.0646

>  <SCORE.INTER.norm>
-2.31204

>  <SCORE.INTRA>
-1.65641

>  <SCORE.INTRA.DIHEDRAL>
1.42678

>  <SCORE.INTRA.DIHEDRAL.0>
1.19454

>  <SCORE.INTRA.POLAR>
0

>  <SCORE.INTRA.POLAR.0>
0

>  <SCORE.INTRA.REPUL>
0

>  <SCORE.INTRA.REPUL.0>
0

>  <SCORE.INTRA.SOLV>
-6.05795

>  <SCORE.INTRA.SOLV.lig_0>
-54.2655

>  <SCORE.INTRA.VDW>
0.659175

>  <SCORE.INTRA.VDW.0>
-1.02733

>  <SCORE.INTRA.norm>
-0.165641

>  <SCORE.RESTR>
0

>  <SCORE.RESTR.CAVITY>
0

>  <SCORE.RESTR.norm>
0

>  <SCORE.SYSTEM>
-18.8799

>  <SCORE.SYSTEM.CONST>
0

>  <SCORE.SYSTEM.DIHEDRAL>
7.0741

>  <SCORE.SYSTEM.POLAR>
-3.03562

>  <SCORE.SYSTEM.SOLV>
0.386138

>  <SCORE.SYSTEM.VDW>
-4.95459

>  <SCORE.SYSTEM.norm>
-1.88799

>  <SCORE.heavy>
10

>  <SCORE.norm>
-4.36567

$$$$
P133406437
 OpenBabel12072022113D
libRbt.so/2013.1/901 2013/11/27
 13 13  0  0  0  0  0  0  0  0999 V2000
    3.5154   16.4941    3.7126 C   0  0  0  0  0  0  0  0  0  0  0  0
    4.8703   16.3542    4.3910 C   0  0  0  0  0  0  0  0  0  0  0  0
    5.7558   17.4812    4.1087 N   0  0  0  0  0  0  0  0  0  0  0  0
    5.8237   18.6257    5.0675 C   0  0  0  0  0  0  0  0  0  0  0  0
    5.3904   18.3028    6.5234 C   0  0  0  0  0  0  0  0  0  0  0  0
    6.4403   19.2383    6.9904 N   0  0  0  0  0  0  0  0  0  0  0  0
    7.1808   18.9691    5.7361 C   0  0  0  0  0  0  0  0  0  0  0  0
    6.5181   17.4075    2.9563 C   0  0  0  0  0  0  0  0  0  0  0  0
    6.4325   16.5213    2.1134 O   0  0  0  0  0  0  0  0  0  0  0  0
    7.4113   18.4133    2.7750 N   0  0  0  0  0  0  0  0  0  0  0  0
    6.9198   18.9436    7.8405 H   0  0  0  0  0  0  0  0  0  0  0  0
    8.3122   18.3114    3.2170 H   0  0  0  0  0  0  0  0  0  0  0  0
    7.4556   18.7231    1.8120 H   0  0  0  0  0  0  0  0  0  0  0  0
  1  2  1  0  0  0  0
  2  3  1  0  0  0  0
  3  4  1  0  0  0  0
  3  8  1  0  0  0  0
  4  5  1  0  0  0  0
  4  7  1  0  0  0  0
  5  6  1  0  0  0  0
  6  7  1  0  0  0  0
  6 11  1  0  0  0  0
  8  9  2  0  0  0  0
  8 10  1  0  0  0  0
 10 12  1  0  0  0  0
 10 13  1  0  0  0  0
M  END
>  <CHROM.0>
-49.98369734,-64.27280210,-64.07340191,-46.85143867,-60.88914558,-62.18021361
-70.33146548,-59.66029022,-167.31600323

>  <CHROM.1>
94.77427687,22.91347862,85.35731633,5.95040599,17.77195011,4.41352736,1.72773506
-0.52933629,-2.00899811

>  <Name>
P133406437

>  <RI>
3.02409e+07

>  <Rbt.Current_Directory>
/home/fstefaniak/projects/zuza/docking/adenine/4XNR

>  <Rbt.Executable>
rbdock ($Id: //depot/dev/client3/rdock/2013.1/src/exe/rbdock.cxx#4 $)

>  <Rbt.Library>
libRbt.so (2013.1, Build901 2013/11/27)

>  <Rbt.Parameter_File>
/home/fstefaniak/progs/rDock//data/scripts/dock_solv.prm

>  <Rbt.Receptor>
4xnr.prm

>  <SCORE>
-46.5604

>  <SCORE.INTER>
-26.1537

>  <SCORE.INTER.CONST>
1

>  <SCORE.INTER.POLAR>
-2.82605

>  <SCORE.INTER.ROT>
3

>  <SCORE.INTER.SOLV>
13.6135

>  <SCORE.INTER.VDW>
-18.1534

>  <SCORE.INTER.norm>
-2.61537

>  <SCORE.INTRA>
0.279728

>  <SCORE.INTRA.DIHEDRAL>
0.0192336

>  <SCORE.INTRA.DIHEDRAL.0>
2.92104

>  <SCORE.INTRA.POLAR>
0

>  <SCORE.INTRA.POLAR.0>
0

>  <SCORE.INTRA.REPUL>
0

>  <SCORE.INTRA.REPUL.0>
0

>  <SCORE.INTRA.SOLV>
-0.0543726

>  <SCORE.INTRA.SOLV.lig_0>
-14.9407

>  <SCORE.INTRA.VDW>
0.297297

>  <SCORE.INTRA.VDW.0>
0.0640313

>  <SCORE.INTRA.norm>
0.0279728

>  <SCORE.RESTR>
0

>  <SCORE.RESTR.CAVITY>
0

>  <SCORE.RESTR.norm>
0

>  <SCORE.SYSTEM>
-20.6864

>  <SCORE.SYSTEM.CONST>
0

>  <SCORE.SYSTEM.DIHEDRAL>
4.75472

>  <SCORE.SYSTEM.POLAR>
-3.06314

>  <SCORE.SYSTEM.SOLV>
0.288625

>  <SCORE.SYSTEM.VDW>
-5.26159

>  <SCORE.SYSTEM.norm>
-2.06864

>  <SCORE.heavy>
10

>  <SCORE.norm>
-4.65604

$$$$
P133406437
 OpenBabel12072022113D
libRbt.so/2013.1/901 2013/11/27
 13 13  0  0  0  0  0  0  0  0999 V2000
    6.8555   18.3570    1.6252 C   0  0  0  0  0  0  0  0  0  0  0  0
    7.0814   18.0083    3.0891 C   0  0  0  0  0  0  0  0  0  0  0  0
    5.8308   17.8890    3.8347 N   0  0  0  0  0  0  0  0  0  0  0  0
    5.5719   18.7968    4.9933 C   0  0  0  0  0  0  0  0  0  0  0  0
    5.3519   18.0899    6.3585 C   0  0  0  0  0  0  0  0  0  0  0  0
    6.0597   19.2215    7.0021 N   0  0  0  0  0  0  0  0  0  0  0  0
    6.7757   19.4468    5.7250 C   0  0  0  0  0  0  0  0  0  0  0  0
    4.9265   16.9380    3.3959 C   0  0  0  0  0  0  0  0  0  0  0  0
    5.1377   16.1298    2.4984 O   0  0  0  0  0  0  0  0  0  0  0  0
    3.7296   16.9233    4.0357 N   0  0  0  0  0  0  0  0  0  0  0  0
    6.6566   18.9553    7.7845 H   0  0  0  0  0  0  0  0  0  0  0  0
    2.9190   16.6828    3.4858 H   0  0  0  0  0  0  0  0  0  0  0  0
    3.7753   16.4548    4.9321 H   0  0  0  0  0  0  0  0  0  0  0  0
  1  2  1  0  0  0  0
  2  3  1  0  0  0  0
  3  4  1  0  0  0  0
  3  8  1  0  0  0  0
  4  5  1  0  0  0  0
  4  7  1  0  0  0  0
  5  6  1  0  0  0  0
  6  7  1  0  0  0  0
  6 11  1  0  0  0  0
  8  9  2  0  0  0  0
  8 10  1  0  0  0  0
 10 12  1  0  0  0  0
 10 13  1  0  0  0  0
M  END
>  <CHROM.0>
-45.20496034,-62.80402985,-66.03992066,-47.28564220,-176.27602773,-62.49277378
-68.84464693,-57.13123235,-168.37321572

>  <CHROM.1>
-119.19525530,-120.18639797,145.92412578,5.71741285,17.95311365,4.24385489
-1.69457456,0.63273571,1.19483657

>  <Name>
P133406437

>  <RI>
3.02409e+07

>  <Rbt.Current_Directory>
/home/fstefaniak/projects/zuza/docking/adenine/4XNR

>  <Rbt.Executable>
rbdock ($Id: //depot/dev/client3/rdock/2013.1/src/exe/rbdock.cxx#4 $)

>  <Rbt.Library>
libRbt.so (2013.1, Build901 2013/11/27)

>  <Rbt.Parameter_File>
/home/fstefaniak/progs/rDock//data/scripts/dock_solv.prm

>  <Rbt.Receptor>
4xnr.prm

>  <SCORE>
-46.4108

>  <SCORE.INTER>
-26.6804

>  <SCORE.INTER.CONST>
1

>  <SCORE.INTER.POLAR>
-2.7571

>  <SCORE.INTER.ROT>
3

>  <SCORE.INTER.SOLV>
12.9813

>  <SCORE.INTER.VDW>
-18.5237

>  <SCORE.INTER.norm>
-2.66804

>  <SCORE.INTRA>
0.807334

>  <SCORE.INTRA.DIHEDRAL>
-0.0361915

>  <SCORE.INTRA.DIHEDRAL.0>
2.92104

>  <SCORE.INTRA.POLAR>
0

>  <SCORE.INTRA.POLAR.0>
0

>  <SCORE.INTRA.REPUL>
0

>  <SCORE.INTRA.REPUL.0>
0

>  <SCORE.INTRA.SOLV>
0.0483978

>  <SCORE.INTRA.SOLV.lig_0>
-14.9407

>  <SCORE.INTRA.VDW>
0.801231

>  <SCORE.INTRA.VDW.0>
0.0640313

>  <SCORE.INTRA.norm>
0.0807334

>  <SCORE.RESTR>
0

>  <SCORE.RESTR.CAVITY>
0

>  <SCORE.RESTR.norm>
0

>  <SCORE.SYSTEM>
-20.5377

>  <SCORE.SYSTEM.CONST>
0

>  <SCORE.SYSTEM.DIHEDRAL>
5.11735

>  <SCORE.SYSTEM.POLAR>
-3.09402

>  <SCORE.SYSTEM.SOLV>
0.127641

>  <SCORE.SYSTEM.VDW>
-5.12674

>  <SCORE.SYSTEM.norm>
-2.05377

>  <SCORE.heavy>
10

>  <SCORE.norm>
-4.64108

$$$$
P133406437
 OpenBabel12072022113D
libRbt.so/2013.1/901 2013/11/27
 13 13  0  0  0  0  0  0  0  0999 V2000
    6.0817   19.2798    4.8912 C   0  0  0  0  0  0  0  0  0  0  0  0
    6.4917   17.8946    4.4127 C   0  0  0  0  0  0  0  0  0  0  0  0
    5.9836   17.5915    3.0770 N   0  0  0  0  0  0  0  0  0  0  0  0
    4.8546   16.6254    2.9176 C   0  0  0  0  0  0  0  0  0  0  0  0
    4.8714   15.4135    3.8886 C   0  0  0  0  0  0  0  0  0  0  0  0
    3.3922   15.4899    3.9303 N   0  0  0  0  0  0  0  0  0  0  0  0
    3.4982   16.9313    3.6058 C   0  0  0  0  0  0  0  0  0  0  0  0
    6.5741   18.2541    2.0154 C   0  0  0  0  0  0  0  0  0  0  0  0
    7.5478   18.9940    2.1037 O   0  0  0  0  0  0  0  0  0  0  0  0
    6.0111   18.0386    0.7994 N   0  0  0  0  0  0  0  0  0  0  0  0
    2.9851   15.2869    4.8427 H   0  0  0  0  0  0  0  0  0  0  0  0
    5.2680   18.6613    0.5215 H   0  0  0  0  0  0  0  0  0  0  0  0
    6.7009   17.8695    0.0777 H   0  0  0  0  0  0  0  0  0  0  0  0
  1  2  1  0  0  0  0
  2  3  1  0  0  0  0
  3  4  1  0  0  0  0
  3  8  1  0  0  0  0
  4  5  1  0  0  0  0
  4  7  1  0  0  0  0
  5  6  1  0  0  0  0
  6  7  1  0  0  0  0
  6 11  1  0  0  0  0
  8  9  2  0  0  0  0
  8 10  1  0  0  0  0
 10 12  1  0  0  0  0
 10 13  1  0  0  0  0
M  END
>  <CHROM.0>
-59.95541477,-64.64385998,-65.96852312,-47.41363493,-60.96286729,-172.97859240
-66.55011444,-174.49298648,-167.85093834

>  <CHROM.1>
-106.59042689,-37.11575067,89.66184460,5.54102050,17.47630904,3.15134080
-0.23227822,0.79732940,1.38346725

>  <Name>
P133406437

>  <RI>
3.02409e+07

>  <Rbt.Current_Directory>
/home/fstefaniak/projects/zuza/docking/adenine/4XNR

>  <Rbt.Executable>
rbdock ($Id: //depot/dev/client3/rdock/2013.1/src/exe/rbdock.cxx#4 $)

>  <Rbt.Library>
libRbt.so (2013.1, Build901 2013/11/27)

>  <Rbt.Parameter_File>
/home/fstefaniak/progs/rDock//data/scripts/dock_solv.prm

>  <Rbt.Receptor>
4xnr.prm

>  <SCORE>
-46.3796

>  <SCORE.INTER>
-25.7401

>  <SCORE.INTER.CONST>
1

>  <SCORE.INTER.POLAR>
-3.65709

>  <SCORE.INTER.ROT>
3

>  <SCORE.INTER.SOLV>
12.1447

>  <SCORE.INTER.VDW>
-14.618

>  <SCORE.INTER.norm>
-2.57401

>  <SCORE.INTRA>
-0.0164838

>  <SCORE.INTRA.DIHEDRAL>
-0.0950391

>  <SCORE.INTRA.DIHEDRAL.0>
2.92104

>  <SCORE.INTRA.POLAR>
0

>  <SCORE.INTRA.POLAR.0>
0

>  <SCORE.INTRA.REPUL>
0

>  <SCORE.INTRA.REPUL.0>
0

>  <SCORE.INTRA.SOLV>
-0.197137

>  <SCORE.INTRA.SOLV.lig_0>
-14.9407

>  <SCORE.INTRA.VDW>
0.129604

>  <SCORE.INTRA.VDW.0>
0.0640313

>  <SCORE.INTRA.norm>
-0.00164838

>  <SCORE.RESTR>
0

>  <SCORE.RESTR.CAVITY>
0

>  <SCORE.RESTR.norm>
0

>  <SCORE.SYSTEM>
-20.623

>  <SCORE.SYSTEM.CONST>
0

>  <SCORE.SYSTEM.DIHEDRAL>
4.34176

>  <SCORE.SYSTEM.POLAR>
-2.96833

>  <SCORE.SYSTEM.SOLV>
0.0337886

>  <SCORE.SYSTEM.VDW>
-5.31277

>  <SCORE.SYSTEM.norm>
-2.0623

>  <SCORE.heavy>
10

>  <SCORE.norm>
-4.63796

$$$$
P133607560
 OpenBabel12072022113D
libRbt.so/2013.1/901 2013/11/27
 13 13  0  0  0  0  0  0  0  0999 V2000
    3.1313   11.9142    3.5053 C   0  0  0  0  0  0  0  0  0  0  0  0
    2.7916   13.0411    4.4827 C   0  0  1  0  0  0  0  0  0  0  0  0
    3.5257   14.3345    4.1390 C   0  0  0  0  0  0  0  0  0  0  0  0
    2.4971   15.3149    3.8465 O   0  0  0  0  0  0  0  0  0  0  0  0
    1.4151   14.9867    4.7352 C   0  0  0  0  0  0  0  0  0  0  0  0
    1.3323   13.4679    4.5804 C   0  0  1  0  0  0  0  0  0  0  0  0
    0.6511   13.2271    3.2517 N   0  3  0  0  0  0  0  0  0  0  0  0
    0.4518   12.2305    3.1203 H   0  0  0  0  0  0  0  0  0  0  0  0
   -0.2252   13.7525    3.1900 H   0  0  0  0  0  0  0  0  0  0  0  0
    1.2798   13.5550    2.5042 H   0  0  0  0  0  0  0  0  0  0  0  0
    3.0728   12.6316    5.9368 C   0  0  0  0  0  0  0  0  0  0  0  0
    3.2750   13.5883    6.7307 O   0  0  0  0  0  0  0  0  0  0  0  0
    2.9672   11.4036    6.1787 O   0  5  0  0  0  0  0  0  0  0  0  0
  2  1  1  6  0  0  0
  2  3  1  0  0  0  0
  2  6  1  0  0  0  0
  2 11  1  0  0  0  0
  3  4  1  0  0  0  0
  4  5  1  0  0  0  0
  5  6  1  0  0  0  0
  6  7  1  6  0  0  0
  7  8  1  0  0  0  0
  7  9  1  0  0  0  0
  7 10  1  0  0  0  0
 11 12  2  0  0  0  0
 11 13  1  0  0  0  0
M  CHG  2   7   1  13  -1
M  END
>  <CHROM.0>
-60.37478440,-38.94798380,-68.72166827,-44.86098174,-175.48245192,-64.34115924
-68.84500553,-59.94954761,-168.04001595

>  <CHROM.1>
156.20588491,76.11606713,2.44302897,13.39303256,4.71537693,0.61715889,1.00078339
-3.07719960

>  <Name>
P133607560

>  <RI>
3.4169e+07

>  <Rbt.Current_Directory>
/home/fstefaniak/projects/zuza/docking/adenine/4XNR

>  <Rbt.Executable>
rbdock ($Id: //depot/dev/client3/rdock/2013.1/src/exe/rbdock.cxx#4 $)

>  <Rbt.Library>
libRbt.so (2013.1, Build901 2013/11/27)

>  <Rbt.Parameter_File>
/home/fstefaniak/progs/rDock//data/scripts/dock_solv.prm

>  <Rbt.Receptor>
4xnr.prm

>  <SCORE>
-35.2632

>  <SCORE.INTER>
-14.7678

>  <SCORE.INTER.CONST>
1

>  <SCORE.INTER.POLAR>
-2.42893

>  <SCORE.INTER.ROT>
1

>  <SCORE.INTER.SOLV>
14.4379

>  <SCORE.INTER.VDW>
-10.8281

>  <SCORE.INTER.norm>
-1.47678

>  <SCORE.INTRA>
-1.02906

>  <SCORE.INTRA.DIHEDRAL>
0.445706

>  <SCORE.INTRA.DIHEDRAL.0>
0.92964

>  <SCORE.INTRA.POLAR>
0.000563443

>  <SCORE.INTRA.POLAR.0>
-0.000563443

>  <SCORE.INTRA.REPUL>
0

>  <SCORE.INTRA.REPUL.0>
0

>  <SCORE.INTRA.SOLV>
0.0416826

>  <SCORE.INTRA.SOLV.lig_0>
-45.0273

>  <SCORE.INTRA.VDW>
-1.27467

>  <SCORE.INTRA.VDW.0>
3.41698

>  <SCORE.INTRA.norm>
-0.102906

>  <SCORE.RESTR>
0

>  <SCORE.RESTR.CAVITY>
0

>  <SCORE.RESTR.norm>
0

>  <SCORE.SYSTEM>
-19.4663

>  <SCORE.SYSTEM.CONST>
0

>  <SCORE.SYSTEM.DIHEDRAL>
6.6131

>  <SCORE.SYSTEM.POLAR>
-3.00239

>  <SCORE.SYSTEM.SOLV>
0.184568

>  <SCORE.SYSTEM.VDW>
-5.23547

>  <SCORE.SYSTEM.norm>
-1.94663

>  <SCORE.heavy>
10

>  <SCORE.norm>
-3.52632

$$$$
P133607560
 OpenBabel12072022113D
libRbt.so/2013.1/901 2013/11/27
 13 13  0  0  0  0  0  0  0  0999 V2000
    3.1646   11.9042    3.4871 C   0  0  0  0  0  0  0  0  0  0  0  0
    2.8141   13.0251    4.4677 C   0  0  1  0  0  0  0  0  0  0  0  0
    3.5627   14.3165    4.1486 C   0  0  0  0  0  0  0  0  0  0  0  0
    2.5459   15.3060    3.8456 O   0  0  0  0  0  0  0  0  0  0  0  0
    1.4456   14.9774    4.7115 C   0  0  0  0  0  0  0  0  0  0  0  0
    1.3560   13.4606    4.5422 C   0  0  1  0  0  0  0  0  0  0  0  0
    0.6980   13.2354    3.1992 N   0  3  0  0  0  0  0  0  0  0  0  0
    1.3532   13.4306    2.4356 H   0  0  0  0  0  0  0  0  0  0  0  0
    0.3644   12.2715    3.1130 H   0  0  0  0  0  0  0  0  0  0  0  0
   -0.1127   13.8673    3.1285 H   0  0  0  0  0  0  0  0  0  0  0  0
    3.0659   12.6015    5.9232 C   0  0  0  0  0  0  0  0  0  0  0  0
    3.3037   13.5473    6.7203 O   0  0  0  0  0  0  0  0  0  0  0  0
    2.9046   11.3790    6.1621 O   0  5  0  0  0  0  0  0  0  0  0  0
  2  1  1  6  0  0  0
  2  3  1  0  0  0  0
  2  6  1  0  0  0  0
  2 11  1  0  0  0  0
  3  4  1  0  0  0  0
  4  5  1  0  0  0  0
  5  6  1  0  0  0  0
  6  7  1  6  0  0  0
  7  8  1  0  0  0  0
  7  9  1  0  0  0  0
  7 10  1  0  0  0  0
 11 12  2  0  0  0  0
 11 13  1  0  0  0  0
M  CHG  2   7   1  13  -1
M  END
>  <CHROM.0>
-54.35480820,-39.57229003,-65.19757774,-46.74470090,-59.94280954,-57.75607415
-67.68205628,-62.30405717,-167.54806051

>  <CHROM.1>
153.93670735,-36.29808976,2.46327777,13.37771115,4.69721688,0.64888886,1.01000586
-3.10797523

>  <Name>
P133607560

>  <RI>
3.4169e+07

>  <Rbt.Current_Directory>
/home/fstefaniak/projects/zuza/docking/adenine/4XNR

>  <Rbt.Executable>
rbdock ($Id: //depot/dev/client3/rdock/2013.1/src/exe/rbdock.cxx#4 $)

>  <Rbt.Library>
libRbt.so (2013.1, Build901 2013/11/27)

>  <Rbt.Parameter_File>
/home/fstefaniak/progs/rDock//data/scripts/dock_solv.prm

>  <Rbt.Receptor>
4xnr.prm

>  <SCORE>
-35.2139

>  <SCORE.INTER>
-15.2177

>  <SCORE.INTER.CONST>
1

>  <SCORE.INTER.POLAR>
-2.42181

>  <SCORE.INTER.ROT>
1

>  <SCORE.INTER.SOLV>
14.2906

>  <SCORE.INTER.VDW>
-11.1026

>  <SCORE.INTER.norm>
-1.52177

>  <SCORE.INTRA>
-0.644145

>  <SCORE.INTRA.DIHEDRAL>
1.01654

>  <SCORE.INTRA.DIHEDRAL.0>
0.92964

>  <SCORE.INTRA.POLAR>
0.000563443

>  <SCORE.INTRA.POLAR.0>
-0.000563443

>  <SCORE.INTRA.REPUL>
0

>  <SCORE.INTRA.REPUL.0>
0

>  <SCORE.INTRA.SOLV>
-0.0525173

>  <SCORE.INTRA.SOLV.lig_0>
-45.0273

>  <SCORE.INTRA.VDW>
-1.12807

>  <SCORE.INTRA.VDW.0>
3.41698

>  <SCORE.INTRA.norm>
-0.0644145

>  <SCORE.RESTR>
0.00345158

>  <SCORE.RESTR.CAVITY>
0.00345158

>  <SCORE.RESTR.norm>
0.000345158

>  <SCORE.SYSTEM>
-19.3555

>  <SCORE.SYSTEM.CONST>
0

>  <SCORE.SYSTEM.DIHEDRAL>
6.03753

>  <SCORE.SYSTEM.POLAR>
-3.03033

>  <SCORE.SYSTEM.SOLV>
0.379117

>  <SCORE.SYSTEM.VDW>
-4.94147

>  <SCORE.SYSTEM.norm>
-1.93555

>  <SCORE.heavy>
10

>  <SCORE.norm>
-3.52139

$$$$
P133607560
 OpenBabel12072022113D
libRbt.so/2013.1/901 2013/11/27
 13 13  0  0  0  0  0  0  0  0999 V2000
    3.1430   11.9070    3.5003 C   0  0  0  0  0  0  0  0  0  0  0  0
    2.7971   13.0381    4.4708 C   0  0  1  0  0  0  0  0  0  0  0  0
    3.5311   14.3308    4.1245 C   0  0  0  0  0  0  0  0  0  0  0  0
    2.5025   15.3084    3.8225 O   0  0  0  0  0  0  0  0  0  0  0  0
    1.4167   14.9829    4.7075 C   0  0  0  0  0  0  0  0  0  0  0  0
    1.3367   13.4633    4.5595 C   0  0  1  0  0  0  0  0  0  0  0  0
    0.6623   13.2153    3.2287 N   0  3  0  0  0  0  0  0  0  0  0  0
    1.2646   13.5124    2.4545 H   0  0  0  0  0  0  0  0  0  0  0  0
    0.4365   12.2237    3.1129 H   0  0  0  0  0  0  0  0  0  0  0  0
   -0.2163   13.7531    3.2085 H   0  0  0  0  0  0  0  0  0  0  0  0
    3.0719   12.6358    5.9282 C   0  0  0  0  0  0  0  0  0  0  0  0
    3.2524   13.5970    6.7217 O   0  0  0  0  0  0  0  0  0  0  0  0
    2.9830   11.4068    6.1717 O   0  5  0  0  0  0  0  0  0  0  0  0
  2  1  1  6  0  0  0
  2  3  1  0  0  0  0
  2  6  1  0  0  0  0
  2 11  1  0  0  0  0
  3  4  1  0  0  0  0
  4  5  1  0  0  0  0
  5  6  1  0  0  0  0
  6  7  1  6  0  0  0
  7  8  1  0  0  0  0
  7  9  1  0  0  0  0
  7 10  1  0  0  0  0
 11 12  2  0  0  0  0
 11 13  1  0  0  0  0
M  CHG  2   7   1  13  -1
M  END
>  <CHROM.0>
-56.43552991,-37.75261354,-72.71700954,-48.09664022,-56.78470570,-64.75637096
-172.71958172,-177.50898156,-168.04617578

>  <CHROM.1>
157.05173633,-43.15240990,2.44648326,13.39035878,4.70030495,0.60642493,1.00769441
-3.06865268

>  <Name>
P133607560

>  <RI>
3.4169e+07

>  <Rbt.Current_Directory>
/home/fstefaniak/projects/zuza/docking/adenine/4XNR

>  <Rbt.Executable>
rbdock ($Id: //depot/dev/client3/rdock/2013.1/src/exe/rbdock.cxx#4 $)

>  <Rbt.Library>
libRbt.so (2013.1, Build901 2013/11/27)

>  <Rbt.Parameter_File>
/home/fstefaniak/progs/rDock//data/scripts/dock_solv.prm

>  <Rbt.Receptor>
4xnr.prm

>  <SCORE>
-34.732

>  <SCORE.INTER>
-14.9778

>  <SCORE.INTER.CONST>
1

>  <SCORE.INTER.POLAR>
-2.42124

>  <SCORE.INTER.ROT>
1

>  <SCORE.INTER.SOLV>
14.4294

>  <SCORE.INTER.VDW>
-10.9908

>  <SCORE.INTER.norm>
-1.49778

>  <SCORE.INTRA>
-1.08352

>  <SCORE.INTRA.DIHEDRAL>
0.495757

>  <SCORE.INTRA.DIHEDRAL.0>
0.92964

>  <SCORE.INTRA.POLAR>
0.000563443

>  <SCORE.INTRA.POLAR.0>
-0.000563443

>  <SCORE.INTRA.REPUL>
0

>  <SCORE.INTRA.REPUL.0>
0

>  <SCORE.INTRA.SOLV>
-0.0510731

>  <SCORE.INTRA.SOLV.lig_0>
-45.0273

>  <SCORE.INTRA.VDW>
-1.30778

>  <SCORE.INTRA.VDW.0>
3.41698

>  <SCORE.INTRA.norm>
-0.108352

>  <SCORE.RESTR>
0

>  <SCORE.RESTR.CAVITY>
0

>  <SCORE.RESTR.norm>
0

>  <SCORE.SYSTEM>
-18.6708

>  <SCORE.SYSTEM.CONST>
0

>  <SCORE.SYSTEM.DIHEDRAL>
6.74125

>  <SCORE.SYSTEM.POLAR>
-2.97142

>  <SCORE.SYSTEM.SOLV>
0.183253

>  <SCORE.SYSTEM.VDW>
-4.8506

>  <SCORE.SYSTEM.norm>
-1.86708

>  <SCORE.heavy>
10

>  <SCORE.norm>
-3.4732

$$$$
P133621473
 OpenBabel12072022113D
libRbt.so/2013.1/901 2013/11/27
 19 19  0  0  0  0  0  0  0  0999 V2000
    2.0788   17.4098    2.6833 H   0  0  0  0  0  0  0  0  0  0  0  0
    2.9893   17.6218    3.0859 N   0  0  0  0  0  0  0  0  0  0  0  0
    3.4623   16.6747    3.8062 C   0  0  0  0  0  0  0  0  0  0  0  0
    2.6648   15.5647    4.1040 N   0  0  0  0  0  0  0  0  0  0  0  0
    1.3440   15.4843    4.2725 C   0  0  0  0  0  0  0  0  0  0  0  0
    0.5826   16.5769    4.3858 N   0  3  0  0  0  0  0  0  0  0  0  0
   -0.4187   16.5321    4.5191 H   0  0  0  0  0  0  0  0  0  0  0  0
    1.0191   17.4951    4.4323 H   0  0  0  0  0  0  0  0  0  0  0  0
    0.7567   14.2855    4.3660 N   0  0  0  0  0  0  0  0  0  0  0  0
    4.7389   16.6186    4.2919 N   0  0  0  0  0  0  0  0  0  0  0  0
    5.1955   17.3372    5.4816 C   0  0  0  0  0  0  0  0  0  0  0  0
    5.7601   18.7162    5.1366 C   0  0  0  0  0  0  0  0  0  0  0  0
    7.1785   18.6426    4.5757 C   0  0  0  0  0  0  0  0  0  0  0  0
    7.2958   18.3106    3.0891 C   0  0  0  0  0  0  0  0  0  0  0  0
    6.2555   17.3717    2.4799 C   0  0  0  0  0  0  0  0  0  0  0  0
    5.8233   16.2122    3.3753 C   0  0  0  0  0  0  0  0  0  0  0  0
    3.1877   14.7126    4.2251 H   0  0  0  0  0  0  0  0  0  0  0  0
    1.2771   13.4243    4.2551 H   0  0  0  0  0  0  0  0  0  0  0  0
   -0.2420   14.1992    4.5087 H   0  0  0  0  0  0  0  0  0  0  0  0
  1  2  1  0  0  0  0
  2  3  2  0  0  0  0
  3  4  1  0  0  0  0
  3 10  1  0  0  0  0
  4  5  1  0  0  0  0
  4 17  1  0  0  0  0
  5  6  2  0  0  0  0
  5  9  1  0  0  0  0
  6  7  1  0  0  0  0
  6  8  1  0  0  0  0
  9 18  1  0  0  0  0
  9 19  1  0  0  0  0
 10 11  1  0  0  0  0
 10 16  1  0  0  0  0
 11 12  1  0  0  0  0
 12 13  1  0  0  0  0
 13 14  1  0  0  0  0
 14 15  1  0  0  0  0
 15 16  1  0  0  0  0
M  CHG  1   6   1
M  END
>  <CHROM.0>
-57.69378911,-61.64841339,-66.98952009,-48.47481832,-174.25471372,-64.15313646
-71.81178533,-57.74201069,-168.22029474

>  <CHROM.1>
80.41495616,4.09814440,16.85510845,4.03682893,-2.87122098,0.35627752,0.77267519

>  <Name>
P133621473

>  <RI>
3.58524e+07

>  <Rbt.Current_Directory>
/home/fstefaniak/projects/zuza/docking/adenine/4XNR

>  <Rbt.Executable>
rbdock ($Id: //depot/dev/client3/rdock/2013.1/src/exe/rbdock.cxx#4 $)

>  <Rbt.Library>
libRbt.so (2013.1, Build901 2013/11/27)

>  <Rbt.Parameter_File>
/home/fstefaniak/progs/rDock//data/scripts/dock_solv.prm

>  <Rbt.Receptor>
4xnr.prm

>  <SCORE>
-43.2412

>  <SCORE.INTER>
-21.1122

>  <SCORE.INTER.CONST>
1

>  <SCORE.INTER.POLAR>
-3.08568

>  <SCORE.INTER.ROT>
1

>  <SCORE.INTER.SOLV>
18.7022

>  <SCORE.INTER.VDW>
-14.2899

>  <SCORE.INTER.norm>
-1.62402

>  <SCORE.INTRA>
-1.15122

>  <SCORE.INTRA.DIHEDRAL>
-0.0088212

>  <SCORE.INTRA.DIHEDRAL.0>
0.488893

>  <SCORE.INTRA.POLAR>
0

>  <SCORE.INTRA.POLAR.0>
0

>  <SCORE.INTRA.REPUL>
0

>  <SCORE.INTRA.REPUL.0>
0

>  <SCORE.INTRA.SOLV>
-0.166288

>  <SCORE.INTRA.SOLV.lig_0>
-30.5203

>  <SCORE.INTRA.VDW>
-1.06367

>  <SCORE.INTRA.VDW.0>
0.0338725

>  <SCORE.INTRA.norm>
-0.0885557

>  <SCORE.RESTR>
0

>  <SCORE.RESTR.CAVITY>
0

>  <SCORE.RESTR.norm>
0

>  <SCORE.SYSTEM>
-20.9778

>  <SCORE.SYSTEM.CONST>
0

>  <SCORE.SYSTEM.DIHEDRAL>
4.49383

>  <SCORE.SYSTEM.POLAR>
-2.96862

>  <SCORE.SYSTEM.SOLV>
0.0936855

>  <SCORE.SYSTEM.VDW>
-5.61896

>  <SCORE.SYSTEM.norm>
-1.61368

>  <SCORE.heavy>
13

>  <SCORE.norm>
-3.32625

$$$$
P133621473
 OpenBabel12072022113D
libRbt.so/2013.1/901 2013/11/27
 19 19  0  0  0  0  0  0  0  0999 V2000
    2.0903   17.4125    2.6919 H   0  0  0  0  0  0  0  0  0  0  0  0
    2.9980   17.6273    3.0994 N   0  0  0  0  0  0  0  0  0  0  0  0
    3.4687   16.6829    3.8247 C   0  0  0  0  0  0  0  0  0  0  0  0
    2.6718   15.5718    4.1203 N   0  0  0  0  0  0  0  0  0  0  0  0
    1.3502   15.4889    4.2811 C   0  0  0  0  0  0  0  0  0  0  0  0
    0.5859   16.5802    4.3874 N   0  3  0  0  0  0  0  0  0  0  0  0
   -0.4161   16.5335    4.5149 H   0  0  0  0  0  0  0  0  0  0  0  0
    1.0201   17.4994    4.4345 H   0  0  0  0  0  0  0  0  0  0  0  0
    0.7650   14.2891    4.3738 N   0  0  0  0  0  0  0  0  0  0  0  0
    4.7426   16.6306    4.3181 N   0  0  0  0  0  0  0  0  0  0  0  0
    5.1957   17.3686    5.4972 C   0  0  0  0  0  0  0  0  0  0  0  0
    5.7674   18.7391    5.1308 C   0  0  0  0  0  0  0  0  0  0  0  0
    7.1884   18.6502    4.5788 C   0  0  0  0  0  0  0  0  0  0  0  0
    7.3122   18.2913    3.0990 C   0  0  0  0  0  0  0  0  0  0  0  0
    6.2716   17.3456    2.5010 C   0  0  0  0  0  0  0  0  0  0  0  0
    5.8301   16.2039    3.4146 C   0  0  0  0  0  0  0  0  0  0  0  0
    3.1958   14.7211    4.2464 H   0  0  0  0  0  0  0  0  0  0  0  0
    1.2878   13.4288    4.2679 H   0  0  0  0  0  0  0  0  0  0  0  0
   -0.2343   14.2009    4.5108 H   0  0  0  0  0  0  0  0  0  0  0  0
  1  2  1  0  0  0  0
  2  3  2  0  0  0  0
  3  4  1  0  0  0  0
  3 10  1  0  0  0  0
  4  5  1  0  0  0  0
  4 17  1  0  0  0  0
  5  6  2  0  0  0  0
  5  9  1  0  0  0  0
  6  7  1  0  0  0  0
  6  8  1  0  0  0  0
  9 18  1  0  0  0  0
  9 19  1  0  0  0  0
 10 11  1  0  0  0  0
 10 16  1  0  0  0  0
 11 12  1  0  0  0  0
 12 13  1  0  0  0  0
 13 14  1  0  0  0  0
 14 15  1  0  0  0  0
 15 16  1  0  0  0  0
M  CHG  1   6   1
M  END
>  <CHROM.0>
-58.93287456,-62.72707659,-66.48674812,-46.51458897,-57.45492666,-60.49180909
-67.73213687,-62.33241505,-167.39512762

>  <CHROM.1>
79.46069373,4.10588285,16.85907350,4.05012965,-2.86051520,0.34642837,0.74152281

>  <Name>
P133621473

>  <RI>
3.58524e+07

>  <Rbt.Current_Directory>
/home/fstefaniak/projects/zuza/docking/adenine/4XNR

>  <Rbt.Executable>
rbdock ($Id: //depot/dev/client3/rdock/2013.1/src/exe/rbdock.cxx#4 $)

>  <Rbt.Library>
libRbt.so (2013.1, Build901 2013/11/27)

>  <Rbt.Parameter_File>
/home/fstefaniak/progs/rDock//data/scripts/dock_solv.prm

>  <Rbt.Receptor>
4xnr.prm

>  <SCORE>
-43.1031

>  <SCORE.INTER>
-21.0959

>  <SCORE.INTER.CONST>
1

>  <SCORE.INTER.POLAR>
-3.11111

>  <SCORE.INTER.ROT>
1

>  <SCORE.INTER.SOLV>
18.7427

>  <SCORE.INTER.VDW>
-14.2078

>  <SCORE.INTER.norm>
-1.62276

>  <SCORE.INTRA>
-1.1519

>  <SCORE.INTRA.DIHEDRAL>
-0.00798696

>  <SCORE.INTRA.DIHEDRAL.0>
0.488893

>  <SCORE.INTRA.POLAR>
0

>  <SCORE.INTRA.POLAR.0>
0

>  <SCORE.INTRA.REPUL>
0

>  <SCORE.INTRA.REPUL.0>
0

>  <SCORE.INTRA.SOLV>
-0.1655

>  <SCORE.INTRA.SOLV.lig_0>
-30.5203

>  <SCORE.INTRA.VDW>
-1.06515

>  <SCORE.INTRA.VDW.0>
0.0338725

>  <SCORE.INTRA.norm>
-0.0886075

>  <SCORE.RESTR>
0

>  <SCORE.RESTR.CAVITY>
0

>  <SCORE.RESTR.norm>
0

>  <SCORE.SYSTEM>
-20.8552

>  <SCORE.SYSTEM.CONST>
0

>  <SCORE.SYSTEM.DIHEDRAL>
4.22779

>  <SCORE.SYSTEM.POLAR>
-2.99171

>  <SCORE.SYSTEM.SOLV>
0.284754

>  <SCORE.SYSTEM.VDW>
-5.43531

>  <SCORE.SYSTEM.norm>
-1.60425

>  <SCORE.heavy>
13

>  <SCORE.norm>
-3.31562

$$$$
P133621473
 OpenBabel12072022113D
libRbt.so/2013.1/901 2013/11/27
 19 19  0  0  0  0  0  0  0  0999 V2000
    2.0556   17.4056    2.6788 H   0  0  0  0  0  0  0  0  0  0  0  0
    2.9694   17.6192    3.0733 N   0  0  0  0  0  0  0  0  0  0  0  0
    3.4480   16.6751    3.7937 C   0  0  0  0  0  0  0  0  0  0  0  0
    2.6528   15.5663    4.1025 N   0  0  0  0  0  0  0  0  0  0  0  0
    1.3334   15.4867    4.2818 C   0  0  0  0  0  0  0  0  0  0  0  0
    0.5730   16.5798    4.3965 N   0  3  0  0  0  0  0  0  0  0  0  0
   -0.4273   16.5357    4.5379 H   0  0  0  0  0  0  0  0  0  0  0  0
    1.0099   17.4982    4.4358 H   0  0  0  0  0  0  0  0  0  0  0  0
    0.7469   14.2884    4.3849 N   0  0  0  0  0  0  0  0  0  0  0  0
    4.7284   16.6209    4.2696 N   0  0  0  0  0  0  0  0  0  0  0  0
    5.1909   17.3333    5.4608 C   0  0  0  0  0  0  0  0  0  0  0  0
    5.7473   18.7169    5.1211 C   0  0  0  0  0  0  0  0  0  0  0  0
    7.1618   18.6531    4.5492 C   0  0  0  0  0  0  0  0  0  0  0  0
    7.2693   18.3317    3.0595 C   0  0  0  0  0  0  0  0  0  0  0  0
    6.2284   17.3926    2.4516 C   0  0  0  0  0  0  0  0  0  0  0  0
    5.8076   16.2253    3.3422 C   0  0  0  0  0  0  0  0  0  0  0  0
    3.1767   14.7148    4.2230 H   0  0  0  0  0  0  0  0  0  0  0  0
    1.2663   13.4267    4.2735 H   0  0  0  0  0  0  0  0  0  0  0  0
   -0.2506   14.2027    4.5359 H   0  0  0  0  0  0  0  0  0  0  0  0
  1  2  1  0  0  0  0
  2  3  2  0  0  0  0
  3  4  1  0  0  0  0
  3 10  1  0  0  0  0
  4  5  1  0  0  0  0
  4 17  1  0  0  0  0
  5  6  2  0  0  0  0
  5  9  1  0  0  0  0
  6  7  1  0  0  0  0
  6  8  1  0  0  0  0
  9 18  1  0  0  0  0
  9 19  1  0  0  0  0
 10 11  1  0  0  0  0
 10 16  1  0  0  0  0
 11 12  1  0  0  0  0
 12 13  1  0  0  0  0
 13 14  1  0  0  0  0
 14 15  1  0  0  0  0
 15 16  1  0  0  0  0
M  CHG  1   6   1
M  END
>  <CHROM.0>
-55.15307985,-61.47557354,-68.58541178,-44.97452433,-176.09573917,-58.30505872
-68.40099758,-54.10481026,-168.09047017

>  <CHROM.1>
81.09081008,4.08357765,16.86064038,4.02470407,-2.88103235,0.36687549,0.79049831

>  <Name>
P133621473

>  <RI>
3.58524e+07

>  <Rbt.Current_Directory>
/home/fstefaniak/projects/zuza/docking/adenine/4XNR

>  <Rbt.Executable>
rbdock ($Id: //depot/dev/client3/rdock/2013.1/src/exe/rbdock.cxx#4 $)

>  <Rbt.Library>
libRbt.so (2013.1, Build901 2013/11/27)

>  <Rbt.Parameter_File>
/home/fstefaniak/progs/rDock//data/scripts/dock_solv.prm

>  <Rbt.Receptor>
4xnr.prm

>  <SCORE>
-42.9377

>  <SCORE.INTER>
-21.0068

>  <SCORE.INTER.CONST>
1

>  <SCORE.INTER.POLAR>
-3.06091

>  <SCORE.INTER.ROT>
1

>  <SCORE.INTER.SOLV>
18.7711

>  <SCORE.INTER.VDW>
-14.3252

>  <SCORE.INTER.norm>
-1.61591

>  <SCORE.INTRA>
-1.15045

>  <SCORE.INTRA.DIHEDRAL>
-0.00941227

>  <SCORE.INTRA.DIHEDRAL.0>
0.488893

>  <SCORE.INTRA.POLAR>
0

>  <SCORE.INTRA.POLAR.0>
0

>  <SCORE.INTRA.REPUL>
0

>  <SCORE.INTRA.REPUL.0>
0

>  <SCORE.INTRA.SOLV>
-0.166815

>  <SCORE.INTRA.SOLV.lig_0>
-30.5203

>  <SCORE.INTRA.VDW>
-1.06233

>  <SCORE.INTRA.VDW.0>
0.0338725

>  <SCORE.INTRA.norm>
-0.0884958

>  <SCORE.RESTR>
0

>  <SCORE.RESTR.CAVITY>
0

>  <SCORE.RESTR.norm>
0

>  <SCORE.SYSTEM>
-20.7804

>  <SCORE.SYSTEM.CONST>
0

>  <SCORE.SYSTEM.DIHEDRAL>
4.79562

>  <SCORE.SYSTEM.POLAR>
-3.05791

>  <SCORE.SYSTEM.SOLV>
0.127707

>  <SCORE.SYSTEM.VDW>
-5.30168

>  <SCORE.SYSTEM.norm>
-1.59849

>  <SCORE.heavy>
13

>  <SCORE.norm>
-3.3029

$$$$
P133628255
 OpenBabel12072022113D
libRbt.so/2013.1/901 2013/11/27
 15 15  0  0  0  0  0  0  0  0999 V2000
    6.1716   18.8614    5.1372 C   0  0  0  0  0  0  0  0  0  0  0  0
    5.4637   18.1969    3.9582 C   0  0  0  0  0  0  0  0  0  0  0  0
    6.4767   17.5943    2.9902 C   0  0  0  0  0  0  0  0  0  0  0  0
    4.5447   17.1679    4.4262 N   0  0  0  0  0  0  0  0  0  0  0  0
    3.4766   16.7426    3.6594 C   0  0  0  0  0  0  0  0  0  0  0  0
    3.2816   17.1348    2.5133 O   0  0  0  0  0  0  0  0  0  0  0  0
    2.5803   15.7313    4.3617 C   0  0  1  0  0  0  0  0  0  0  0  0
    1.3745   15.3946    3.4953 C   0  0  0  0  0  0  0  0  0  0  0  0
    1.6325   14.1395    2.8380 O   0  0  0  0  0  0  0  0  0  0  0  0
    2.9618   13.7206    3.1913 C   0  0  0  0  0  0  0  0  0  0  0  0
    3.2656   14.3847    4.5346 C   0  0  2  0  0  0  0  0  0  0  0  0
    2.6422   13.6326    5.6473 N   0  0  0  0  0  0  0  0  0  0  0  0
    4.5984   16.8870    5.3969 H   0  0  0  0  0  0  0  0  0  0  0  0
    2.3198   14.2998    6.3499 H   0  0  0  0  0  0  0  0  0  0  0  0
    3.3664   13.0873    6.1215 H   0  0  0  0  0  0  0  0  0  0  0  0
  1  2  1  0  0  0  0
  2  3  1  0  0  0  0
  2  4  1  0  0  0  0
  4  5  1  0  0  0  0
  4 13  1  0  0  0  0
  5  6  2  0  0  0  0
  7  5  1  6  0  0  0
  7  8  1  0  0  0  0
  7 11  1  0  0  0  0
  8  9  1  0  0  0  0
  9 10  1  0  0  0  0
 10 11  1  0  0  0  0
 11 12  1  1  0  0  0
 12 14  1  0  0  0  0
 12 15  1  0  0  0  0
M  END
>  <CHROM.0>
-60.37754827,-73.49885299,-66.33595179,-47.85962890,57.95298736,-174.13010758
-66.78744356,-176.06149823,-168.49265241

>  <CHROM.1>
157.50844950,175.70535948,-32.25126260,3.65586362,16.04268751,3.90191056
-0.43205066,0.73942497,2.20995093

>  <Name>
P133628255

>  <RI>
1.34432e+07

>  <Rbt.Current_Directory>
/home/fstefaniak/projects/zuza/docking/adenine/4XNR

>  <Rbt.Executable>
rbdock ($Id: //depot/dev/client3/rdock/2013.1/src/exe/rbdock.cxx#4 $)

>  <Rbt.Library>
libRbt.so (2013.1, Build901 2013/11/27)

>  <Rbt.Parameter_File>
/home/fstefaniak/progs/rDock//data/scripts/dock_solv.prm

>  <Rbt.Receptor>
4xnr.prm

>  <SCORE>
-43.4445

>  <SCORE.INTER>
-25.2029

>  <SCORE.INTER.CONST>
1

>  <SCORE.INTER.POLAR>
-3.08109

>  <SCORE.INTER.ROT>
3

>  <SCORE.INTER.SOLV>
11.5496

>  <SCORE.INTER.VDW>
-15.9815

>  <SCORE.INTER.norm>
-2.10024

>  <SCORE.INTRA>
1.14588

>  <SCORE.INTRA.DIHEDRAL>
1.72326

>  <SCORE.INTRA.DIHEDRAL.0>
1.70904

>  <SCORE.INTRA.POLAR>
0

>  <SCORE.INTRA.POLAR.0>
0

>  <SCORE.INTRA.REPUL>
0

>  <SCORE.INTRA.REPUL.0>
0

>  <SCORE.INTRA.SOLV>
0.0194877

>  <SCORE.INTRA.SOLV.lig_0>
-13.9426

>  <SCORE.INTRA.VDW>
0.274501

>  <SCORE.INTRA.VDW.0>
-0.331955

>  <SCORE.INTRA.norm>
0.0954897

>  <SCORE.RESTR>
0

>  <SCORE.RESTR.CAVITY>
0

>  <SCORE.RESTR.norm>
0

>  <SCORE.SYSTEM>
-19.3874

>  <SCORE.SYSTEM.CONST>
0

>  <SCORE.SYSTEM.DIHEDRAL>
4.88493

>  <SCORE.SYSTEM.POLAR>
-2.95201

>  <SCORE.SYSTEM.SOLV>
-0.181414

>  <SCORE.SYSTEM.VDW>
-4.65275

>  <SCORE.SYSTEM.norm>
-1.61562

>  <SCORE.heavy>
12

>  <SCORE.norm>
-3.62037

$$$$
P133628255
 OpenBabel12072022113D
libRbt.so/2013.1/901 2013/11/27
 15 15  0  0  0  0  0  0  0  0999 V2000
    3.9715    9.8195    6.9853 C   0  0  0  0  0  0  0  0  0  0  0  0
    3.0900   10.9632    7.4827 C   0  0  0  0  0  0  0  0  0  0  0  0
    3.4308   11.3192    8.9261 C   0  0  0  0  0  0  0  0  0  0  0  0
    3.2401   12.1343    6.6292 N   0  0  0  0  0  0  0  0  0  0  0  0
    2.5683   12.2499    5.4271 C   0  0  0  0  0  0  0  0  0  0  0  0
    1.7452   11.4254    5.0423 O   0  0  0  0  0  0  0  0  0  0  0  0
    2.9306   13.5014    4.6387 C   0  0  1  0  0  0  0  0  0  0  0  0
    3.1416   13.1640    3.1692 C   0  0  0  0  0  0  0  0  0  0  0  0
    1.9443   13.5196    2.4522 O   0  0  0  0  0  0  0  0  0  0  0  0
    0.9784   13.9868    3.4092 C   0  0  0  0  0  0  0  0  0  0  0  0
    1.7866   14.5027    4.6003 C   0  0  2  0  0  0  0  0  0  0  0  0
    2.3064   15.8634    4.3346 N   0  0  0  0  0  0  0  0  0  0  0  0
    3.9784   12.7911    6.8472 H   0  0  0  0  0  0  0  0  0  0  0  0
    2.9181   15.8238    3.5179 H   0  0  0  0  0  0  0  0  0  0  0  0
    2.9215   16.1362    5.1054 H   0  0  0  0  0  0  0  0  0  0  0  0
  1  2  1  0  0  0  0
  2  3  1  0  0  0  0
  2  4  1  0  0  0  0
  4  5  1  0  0  0  0
  4 13  1  0  0  0  0
  5  6  2  0  0  0  0
  7  5  1  1  0  0  0
  7  8  1  0  0  0  0
  7 11  1  0  0  0  0
  8  9  1  0  0  0  0
  9 10  1  0  0  0  0
 10 11  1  0  0  0  0
 11 12  1  6  0  0  0
 12 14  1  0  0  0  0
 12 15  1  0  0  0  0
M  END
>  <CHROM.0>
-57.78900105,-60.83911026,-66.18477329,-49.12031521,-57.83808381,-62.96955370
-70.77194066,-175.67168675,-167.92599477

>  <CHROM.1>
80.93575991,135.60258329,50.50763953,2.60228844,12.71268581,5.24567906,0.28876946
1.30165770,-2.74529376

>  <Name>
P133628255

>  <RI>
1.34432e+07

>  <Rbt.Current_Directory>
/home/fstefaniak/projects/zuza/docking/adenine/4XNR

>  <Rbt.Executable>
rbdock ($Id: //depot/dev/client3/rdock/2013.1/src/exe/rbdock.cxx#4 $)

>  <Rbt.Library>
libRbt.so (2013.1, Build901 2013/11/27)

>  <Rbt.Parameter_File>
/home/fstefaniak/progs/rDock//data/scripts/dock_solv.prm

>  <Rbt.Receptor>
4xnr.prm

>  <SCORE>
-42.6298

>  <SCORE.INTER>
-22.9516

>  <SCORE.INTER.CONST>
1

>  <SCORE.INTER.POLAR>
-2.96905

>  <SCORE.INTER.ROT>
3

>  <SCORE.INTER.SOLV>
8.51239

>  <SCORE.INTER.VDW>
-13.8417

>  <SCORE.INTER.norm>
-1.91263

>  <SCORE.INTRA>
1.17634

>  <SCORE.INTRA.DIHEDRAL>
2.81624

>  <SCORE.INTRA.DIHEDRAL.0>
1.70904

>  <SCORE.INTRA.POLAR>
0

>  <SCORE.INTRA.POLAR.0>
0

>  <SCORE.INTRA.REPUL>
0

>  <SCORE.INTRA.REPUL.0>
0

>  <SCORE.INTRA.SOLV>
-0.0459554

>  <SCORE.INTRA.SOLV.lig_0>
-13.9426

>  <SCORE.INTRA.VDW>
-0.208801

>  <SCORE.INTRA.VDW.0>
-0.331955

>  <SCORE.INTRA.norm>
0.0980286

>  <SCORE.RESTR>
0

>  <SCORE.RESTR.CAVITY>
0

>  <SCORE.RESTR.norm>
0

>  <SCORE.SYSTEM>
-20.8546

>  <SCORE.SYSTEM.CONST>
0

>  <SCORE.SYSTEM.DIHEDRAL>
4.19332

>  <SCORE.SYSTEM.POLAR>
-2.95796

>  <SCORE.SYSTEM.SOLV>
0.137367

>  <SCORE.SYSTEM.VDW>
-5.48675

>  <SCORE.SYSTEM.norm>
-1.73788

>  <SCORE.heavy>
12

>  <SCORE.norm>
-3.55249

$$$$
P133628255
 OpenBabel12072022113D
libRbt.so/2013.1/901 2013/11/27
 15 15  0  0  0  0  0  0  0  0999 V2000
    2.9247   14.3649    3.7500 C   0  0  0  0  0  0  0  0  0  0  0  0
    2.9236   15.8827    3.5801 C   0  0  0  0  0  0  0  0  0  0  0  0
    1.6129   16.4810    4.0804 C   0  0  0  0  0  0  0  0  0  0  0  0
    4.0487   16.4784    4.2883 N   0  0  0  0  0  0  0  0  0  0  0  0
    5.1725   16.9282    3.6218 C   0  0  0  0  0  0  0  0  0  0  0  0
    5.2628   16.9355    2.3982 O   0  0  0  0  0  0  0  0  0  0  0  0
    6.2749   17.4296    4.5452 C   0  0  1  0  0  0  0  0  0  0  0  0
    7.3360   18.1794    3.7516 C   0  0  0  0  0  0  0  0  0  0  0  0
    7.0920   19.5908    3.9009 O   0  0  0  0  0  0  0  0  0  0  0  0
    5.8945   19.7524    4.6801 C   0  0  0  0  0  0  0  0  0  0  0  0
    5.7684   18.4811    5.5202 C   0  0  2  0  0  0  0  0  0  0  0  0
    6.6503   18.5446    6.7078 N   0  0  0  0  0  0  0  0  0  0  0  0
    4.0701   16.4034    5.2972 H   0  0  0  0  0  0  0  0  0  0  0  0
    6.8483   17.5917    7.0168 H   0  0  0  0  0  0  0  0  0  0  0  0
    6.1292   18.9645    7.4817 H   0  0  0  0  0  0  0  0  0  0  0  0
  1  2  1  0  0  0  0
  2  3  1  0  0  0  0
  2  4  1  0  0  0  0
  4  5  1  0  0  0  0
  4 13  1  0  0  0  0
  5  6  2  0  0  0  0
  7  5  1  6  0  0  0
  7  8  1  0  0  0  0
  7 11  1  0  0  0  0
  8  9  1  0  0  0  0
  9 10  1  0  0  0  0
 10 11  1  0  0  0  0
 11 12  1  1  0  0  0
 12 14  1  0  0  0  0
 12 15  1  0  0  0  0
M  END
>  <CHROM.0>
-54.52648907,-60.96553250,-64.27949549,-47.18757129,-175.35098871,-66.93121930
-65.89338413,-60.15076461,-167.91985051

>  <CHROM.1>
103.90774122,-167.64547626,-45.30685136,5.08337845,17.42920740,4.24963350
-2.68878449,0.58866384,1.17674265

>  <Name>
P133628255

>  <RI>
1.34432e+07

>  <Rbt.Current_Directory>
/home/fstefaniak/projects/zuza/docking/adenine/4XNR

>  <Rbt.Executable>
rbdock ($Id: //depot/dev/client3/rdock/2013.1/src/exe/rbdock.cxx#4 $)

>  <Rbt.Library>
libRbt.so (2013.1, Build901 2013/11/27)

>  <Rbt.Parameter_File>
/home/fstefaniak/progs/rDock//data/scripts/dock_solv.prm

>  <Rbt.Receptor>
4xnr.prm

>  <SCORE>
-42.5072

>  <SCORE.INTER>
-21.6734

>  <SCORE.INTER.CONST>
1

>  <SCORE.INTER.POLAR>
-3.77627

>  <SCORE.INTER.ROT>
3

>  <SCORE.INTER.SOLV>
12.4293

>  <SCORE.INTER.VDW>
-11.6045

>  <SCORE.INTER.norm>
-1.80611

>  <SCORE.INTRA>
0.0458265

>  <SCORE.INTRA.DIHEDRAL>
0.61373

>  <SCORE.INTRA.DIHEDRAL.0>
1.70904

>  <SCORE.INTRA.POLAR>
0

>  <SCORE.INTRA.POLAR.0>
0

>  <SCORE.INTRA.REPUL>
0

>  <SCORE.INTRA.REPUL.0>
0

>  <SCORE.INTRA.SOLV>
0.0668928

>  <SCORE.INTRA.SOLV.lig_0>
-13.9426

>  <SCORE.INTRA.VDW>
-0.294485

>  <SCORE.INTRA.VDW.0>
-0.331955

>  <SCORE.INTRA.norm>
0.00381887

>  <SCORE.RESTR>
0

>  <SCORE.RESTR.CAVITY>
0

>  <SCORE.RESTR.norm>
0

>  <SCORE.SYSTEM>
-20.8797

>  <SCORE.SYSTEM.CONST>
0

>  <SCORE.SYSTEM.DIHEDRAL>
4.2343

>  <SCORE.SYSTEM.POLAR>
-3.0169

>  <SCORE.SYSTEM.SOLV>
0.112935

>  <SCORE.SYSTEM.VDW>
-5.31253

>  <SCORE.SYSTEM.norm>
-1.73997

>  <SCORE.heavy>
12

>  <SCORE.norm>
-3.54227

$$$$
P133629862
 OpenBabel12072022113D
libRbt.so/2013.1/901 2013/11/27
 15 15  0  0  0  0  0  0  0  0999 V2000
    0.9267   16.2629    4.5389 C   0  0  0  0  0  0  0  0  0  0  0  0
    2.0033   16.4531    4.0411 C   0  0  0  0  0  0  0  0  0  0  0  0
    3.3189   16.6851    3.4399 C   0  0  0  0  0  0  0  0  0  0  0  0
    4.2701   17.0384    4.4657 N   0  0  0  0  0  0  0  0  0  0  0  0
    5.4216   17.7219    4.1395 C   0  0  0  0  0  0  0  0  0  0  0  0
    5.6568   18.1156    3.0016 O   0  0  0  0  0  0  0  0  0  0  0  0
    6.3597   17.9405    5.3175 C   0  0  2  0  0  0  0  0  0  0  0  0
    5.5741   18.3950    6.5403 C   0  0  0  0  0  0  0  0  0  0  0  0
    5.7421   19.8195    6.6748 O   0  0  0  0  0  0  0  0  0  0  0  0
    6.4950   20.2848    5.5425 C   0  0  0  0  0  0  0  0  0  0  0  0
    7.3255   19.0895    5.0761 C   0  0  1  0  0  0  0  0  0  0  0  0
    8.5319   18.9235    5.9180 N   0  0  0  0  0  0  0  0  0  0  0  0
    4.2175   16.5459    5.3474 H   0  0  0  0  0  0  0  0  0  0  0  0
    8.4355   18.0621    6.4620 H   0  0  0  0  0  0  0  0  0  0  0  0
    8.5470   19.6685    6.6163 H   0  0  0  0  0  0  0  0  0  0  0  0
  1  2  3  0  0  0  0
  2  3  1  0  0  0  0
  3  4  1  0  0  0  0
  4  5  1  0  0  0  0
  4 13  1  0  0  0  0
  5  6  2  0  0  0  0
  7  8  1  0  0  0  0
  7  5  1  6  0  0  0
  7 11  1  0  0  0  0
  8  9  1  0  0  0  0
  9 10  1  0  0  0  0
 10 11  1  0  0  0  0
 11 12  1  1  0  0  0
 12 14  1  0  0  0  0
 12 15  1  0  0  0  0
M  END
>  <CHROM.0>
-56.11578339,-63.25685603,-65.92948903,-48.51240268,-58.82315336,-63.04771046
-68.79961411,-59.24542356,-167.96284814

>  <CHROM.1>
-11.11558289,-158.32634021,-44.45942252,0.57807129,5.22199504,18.11133430
4.93014339,2.64000311,-0.32801056,-2.03533461

>  <Name>
P133629862

>  <RI>
1.34432e+07

>  <Rbt.Current_Directory>
/home/fstefaniak/projects/zuza/docking/adenine/4XNR

>  <Rbt.Executable>
rbdock ($Id: //depot/dev/client3/rdock/2013.1/src/exe/rbdock.cxx#4 $)

>  <Rbt.Library>
libRbt.so (2013.1, Build901 2013/11/27)

>  <Rbt.Parameter_File>
/home/fstefaniak/progs/rDock//data/scripts/dock_solv.prm

>  <Rbt.Receptor>
4xnr.prm

>  <SCORE>
-49.1474

>  <SCORE.INTER>
-30.9881

>  <SCORE.INTER.CONST>
1

>  <SCORE.INTER.POLAR>
-4.36901

>  <SCORE.INTER.ROT>
4

>  <SCORE.INTER.SOLV>
13.3796

>  <SCORE.INTER.VDW>
-16.8219

>  <SCORE.INTER.norm>
-2.58234

>  <SCORE.INTRA>
2.77997

>  <SCORE.INTRA.DIHEDRAL>
2.36013

>  <SCORE.INTRA.DIHEDRAL.0>
1.82166

>  <SCORE.INTRA.POLAR>
0

>  <SCORE.INTRA.POLAR.0>
0

>  <SCORE.INTRA.REPUL>
0

>  <SCORE.INTRA.REPUL.0>
0

>  <SCORE.INTRA.SOLV>
0.172301

>  <SCORE.INTRA.SOLV.lig_0>
-15.2803

>  <SCORE.INTRA.VDW>
1.51375

>  <SCORE.INTRA.VDW.0>
-0.554709

>  <SCORE.INTRA.norm>
0.231664

>  <SCORE.RESTR>
0

>  <SCORE.RESTR.CAVITY>
0

>  <SCORE.RESTR.norm>
0

>  <SCORE.SYSTEM>
-20.9393

>  <SCORE.SYSTEM.CONST>
0

>  <SCORE.SYSTEM.DIHEDRAL>
4.06803

>  <SCORE.SYSTEM.POLAR>
-2.98199

>  <SCORE.SYSTEM.SOLV>
0.280875

>  <SCORE.SYSTEM.VDW>
-5.46922

>  <SCORE.SYSTEM.norm>
-1.74494

>  <SCORE.heavy>
12

>  <SCORE.norm>
-4.09562

$$$$
P133629862
 OpenBabel12072022113D
libRbt.so/2013.1/901 2013/11/27
 15 15  0  0  0  0  0  0  0  0999 V2000
    0.9134   16.2677    4.5225 C   0  0  0  0  0  0  0  0  0  0  0  0
    1.9979   16.4395    4.0353 C   0  0  0  0  0  0  0  0  0  0  0  0
    3.3221   16.6427    3.4425 C   0  0  0  0  0  0  0  0  0  0  0  0
    4.2648   17.0187    4.4681 N   0  0  0  0  0  0  0  0  0  0  0  0
    5.4216   17.6901    4.1358 C   0  0  0  0  0  0  0  0  0  0  0  0
    5.6687   18.0545    2.9906 O   0  0  0  0  0  0  0  0  0  0  0  0
    6.3493   17.9353    5.3168 C   0  0  2  0  0  0  0  0  0  0  0  0
    5.5532   18.4179    6.5218 C   0  0  0  0  0  0  0  0  0  0  0  0
    5.7208   19.8450    6.6252 O   0  0  0  0  0  0  0  0  0  0  0  0
    6.4839   20.2840    5.4894 C   0  0  0  0  0  0  0  0  0  0  0  0
    7.3179   19.0780    5.0578 C   0  0  1  0  0  0  0  0  0  0  0  0
    8.5166   18.9309    5.9139 N   0  0  0  0  0  0  0  0  0  0  0  0
    4.2023   16.5485    5.3613 H   0  0  0  0  0  0  0  0  0  0  0  0
    8.4314   18.0636    6.4504 H   0  0  0  0  0  0  0  0  0  0  0  0
    8.5072   19.6707    6.6178 H   0  0  0  0  0  0  0  0  0  0  0  0
  1  2  3  0  0  0  0
  2  3  1  0  0  0  0
  3  4  1  0  0  0  0
  4  5  1  0  0  0  0
  4 13  1  0  0  0  0
  5  6  2  0  0  0  0
  7  8  1  0  0  0  0
  7  5  1  6  0  0  0
  7 11  1  0  0  0  0
  8  9  1  0  0  0  0
  9 10  1  0  0  0  0
 10 11  1  0  0  0  0
 11 12  1  1  0  0  0
 12 14  1  0  0  0  0
 12 15  1  0  0  0  0
M  END
>  <CHROM.0>
-60.16985194,-61.57980606,-67.62672246,-47.97157439,58.54653164,-64.06234732
-70.06053786,-59.01966063,-168.30833800

>  <CHROM.1>
-86.80364269,-157.91802764,-44.25412916,2.71230129,5.21382358,18.10111020
4.91507646,2.63216046,-0.31879813,-2.06326988

>  <Name>
P133629862

>  <RI>
1.34432e+07

>  <Rbt.Current_Directory>
/home/fstefaniak/projects/zuza/docking/adenine/4XNR

>  <Rbt.Executable>
rbdock ($Id: //depot/dev/client3/rdock/2013.1/src/exe/rbdock.cxx#4 $)

>  <Rbt.Library>
libRbt.so (2013.1, Build901 2013/11/27)

>  <Rbt.Parameter_File>
/home/fstefaniak/progs/rDock//data/scripts/dock_solv.prm

>  <Rbt.Receptor>
4xnr.prm

>  <SCORE>
-48.1955

>  <SCORE.INTER>
-30.9924

>  <SCORE.INTER.CONST>
1

>  <SCORE.INTER.POLAR>
-4.38833

>  <SCORE.INTER.ROT>
4

>  <SCORE.INTER.SOLV>
13.3509

>  <SCORE.INTER.VDW>
-16.7508

>  <SCORE.INTER.norm>
-2.5827

>  <SCORE.INTRA>
2.77245

>  <SCORE.INTRA.DIHEDRAL>
2.343

>  <SCORE.INTRA.DIHEDRAL.0>
1.82166

>  <SCORE.INTRA.POLAR>
0

>  <SCORE.INTRA.POLAR.0>
0

>  <SCORE.INTRA.REPUL>
0

>  <SCORE.INTRA.REPUL.0>
0

>  <SCORE.INTRA.SOLV>
0.172849

>  <SCORE.INTRA.SOLV.lig_0>
-15.2803

>  <SCORE.INTRA.VDW>
1.51452

>  <SCORE.INTRA.VDW.0>
-0.554709

>  <SCORE.INTRA.norm>
0.231037

>  <SCORE.RESTR>
0

>  <SCORE.RESTR.CAVITY>
0

>  <SCORE.RESTR.norm>
0

>  <SCORE.SYSTEM>
-19.9756

>  <SCORE.SYSTEM.CONST>
0

>  <SCORE.SYSTEM.DIHEDRAL>
4.22797

>  <SCORE.SYSTEM.POLAR>
-2.95504

>  <SCORE.SYSTEM.SOLV>
0.0597103

>  <SCORE.SYSTEM.VDW>
-4.89612

>  <SCORE.SYSTEM.norm>
-1.66463

>  <SCORE.heavy>
12

>  <SCORE.norm>
-4.01629

$$$$
P133629862
 OpenBabel12072022113D
libRbt.so/2013.1/901 2013/11/27
 15 15  0  0  0  0  0  0  0  0999 V2000
    1.4074   14.5062    4.1400 C   0  0  0  0  0  0  0  0  0  0  0  0
    2.6002   14.6379    4.1940 C   0  0  0  0  0  0  0  0  0  0  0  0
    4.0555   14.7947    4.2547 C   0  0  0  0  0  0  0  0  0  0  0  0
    4.3982   16.1959    4.2234 N   0  0  0  0  0  0  0  0  0  0  0  0
    5.2637   16.6780    3.2651 C   0  0  0  0  0  0  0  0  0  0  0  0
    5.7196   15.9723    2.3711 O   0  0  0  0  0  0  0  0  0  0  0  0
    5.5908   18.1558    3.4219 C   0  0  2  0  0  0  0  0  0  0  0  0
    6.5710   18.5965    2.3431 C   0  0  0  0  0  0  0  0  0  0  0  0
    7.8829   18.6680    2.9340 O   0  0  0  0  0  0  0  0  0  0  0  0
    7.7855   18.1904    4.2859 C   0  0  0  0  0  0  0  0  0  0  0  0
    6.3400   18.4437    4.7130 C   0  0  1  0  0  0  0  0  0  0  0  0
    6.1456   19.8571    5.1079 N   0  0  0  0  0  0  0  0  0  0  0  0
    4.2246   16.7427    5.0563 H   0  0  0  0  0  0  0  0  0  0  0  0
    5.3957   20.2564    4.5375 H   0  0  0  0  0  0  0  0  0  0  0  0
    6.9784   20.3865    4.8451 H   0  0  0  0  0  0  0  0  0  0  0  0
  1  2  3  0  0  0  0
  2  3  1  0  0  0  0
  3  4  1  0  0  0  0
  4  5  1  0  0  0  0
  4 13  1  0  0  0  0
  5  6  2  0  0  0  0
  7  8  1  0  0  0  0
  7  5  1  6  0  0  0
  7 11  1  0  0  0  0
  8  9  1  0  0  0  0
  9 10  1  0  0  0  0
 10 11  1  0  0  0  0
 11 12  1  6  0  0  0
 12 14  1  0  0  0  0
 12 15  1  0  0  0  0
M  END
>  <CHROM.0>
-56.48454532,-63.08007576,-69.71125899,-48.67251944,-61.74960243,-177.66088709
-68.68954321,-62.20265934,-167.92604281

>  <CHROM.1>
124.26057254,-124.61349988,178.86021573,12.07917194,5.40093721,17.13515845
3.75868337,2.65436325,-0.60858226,-2.39516368

>  <Name>
P133629862

>  <RI>
1.34432e+07

>  <Rbt.Current_Directory>
/home/fstefaniak/projects/zuza/docking/adenine/4XNR

>  <Rbt.Executable>
rbdock ($Id: //depot/dev/client3/rdock/2013.1/src/exe/rbdock.cxx#4 $)

>  <Rbt.Library>
libRbt.so (2013.1, Build901 2013/11/27)

>  <Rbt.Parameter_File>
/home/fstefaniak/progs/rDock//data/scripts/dock_solv.prm

>  <Rbt.Receptor>
4xnr.prm

>  <SCORE>
-48.1945

>  <SCORE.INTER>
-29.6581

>  <SCORE.INTER.CONST>
1

>  <SCORE.INTER.POLAR>
-4.52799

>  <SCORE.INTER.ROT>
4

>  <SCORE.INTER.SOLV>
13.5143

>  <SCORE.INTER.VDW>
-15.4502

>  <SCORE.INTER.norm>
-2.47151

>  <SCORE.INTRA>
2.17891

>  <SCORE.INTRA.DIHEDRAL>
2.03322

>  <SCORE.INTRA.DIHEDRAL.0>
1.82166

>  <SCORE.INTRA.POLAR>
0

>  <SCORE.INTRA.POLAR.0>
0

>  <SCORE.INTRA.REPUL>
0

>  <SCORE.INTRA.REPUL.0>
0

>  <SCORE.INTRA.SOLV>
0.261012

>  <SCORE.INTRA.SOLV.lig_0>
-15.2803

>  <SCORE.INTRA.VDW>
1.03179

>  <SCORE.INTRA.VDW.0>
-0.554709

>  <SCORE.INTRA.norm>
0.181576

>  <SCORE.RESTR>
0

>  <SCORE.RESTR.CAVITY>
0

>  <SCORE.RESTR.norm>
0

>  <SCORE.SYSTEM>
-20.7153

>  <SCORE.SYSTEM.CONST>
0

>  <SCORE.SYSTEM.DIHEDRAL>
4.30062

>  <SCORE.SYSTEM.POLAR>
-2.96612

>  <SCORE.SYSTEM.SOLV>
0.15638

>  <SCORE.SYSTEM.VDW>
-5.40883

>  <SCORE.SYSTEM.norm>
-1.72628

>  <SCORE.heavy>
12

>  <SCORE.norm>
-4.01621

$$$$
P133633748
 OpenBabel12072022113D
libRbt.so/2013.1/901 2013/11/27
 16 17  0  0  0  0  0  0  0  0999 V2000
    2.2194   10.9663    9.2794 C   0  0  0  0  0  0  0  0  0  0  0  0
    3.7094   11.3116    9.0912 C   0  0  0  0  0  0  0  0  0  0  0  0
    3.5145   11.0850    7.5725 C   0  0  0  0  0  0  0  0  0  0  0  0
    2.2891   10.2127    7.9368 C   0  0  0  0  0  0  0  0  0  0  0  0
    3.1735   12.3096    6.8157 N   0  0  0  0  0  0  0  0  0  0  0  0
    3.2479   12.3567    5.4354 C   0  0  0  0  0  0  0  0  0  0  0  0
    3.5955   11.3956    4.7563 O   0  0  0  0  0  0  0  0  0  0  0  0
    2.8582   13.7045    4.8457 C   0  0  1  0  0  0  0  0  0  0  0  0
    3.2720   13.7826    3.3824 C   0  0  0  0  0  0  0  0  0  0  0  0
    2.1058   13.5362    2.5744 O   0  0  0  0  0  0  0  0  0  0  0  0
    1.0156   13.2189    3.4563 C   0  0  0  0  0  0  0  0  0  0  0  0
    1.3501   13.8890    4.7890 C   0  0  2  0  0  0  0  0  0  0  0  0
    1.0158   15.3308    4.7534 N   0  0  0  0  0  0  0  0  0  0  0  0
    2.8039   13.1170    7.3036 H   0  0  0  0  0  0  0  0  0  0  0  0
    0.7354   15.6228    5.6911 H   0  0  0  0  0  0  0  0  0  0  0  0
    0.1766   15.4592    4.1820 H   0  0  0  0  0  0  0  0  0  0  0  0
  1  2  1  0  0  0  0
  1  4  1  0  0  0  0
  2  3  1  0  0  0  0
  3  4  1  0  0  0  0
  3  5  1  0  0  0  0
  5  6  1  0  0  0  0
  5 14  1  0  0  0  0
  6  7  2  0  0  0  0
  8  6  1  6  0  0  0
  8  9  1  0  0  0  0
  8 12  1  0  0  0  0
  9 10  1  0  0  0  0
 10 11  1  0  0  0  0
 11 12  1  0  0  0  0
 12 13  1  6  0  0  0
 13 15  1  0  0  0  0
 13 16  1  0  0  0  0
M  END
>  <CHROM.0>
-56.55975410,67.19666800,-68.49514256,-46.66574755,-61.22605989,-63.77965697
-68.29643075,-54.18969201,-168.41926061

>  <CHROM.1>
165.75125122,166.74800977,-100.58042704,2.54349944,12.57639568,5.70393730
1.28571710,-0.82490720,1.91296407

>  <Name>
P133633748

>  <RI>
1.34432e+07

>  <Rbt.Current_Directory>
/home/fstefaniak/projects/zuza/docking/adenine/4XNR

>  <Rbt.Executable>
rbdock ($Id: //depot/dev/client3/rdock/2013.1/src/exe/rbdock.cxx#4 $)

>  <Rbt.Library>
libRbt.so (2013.1, Build901 2013/11/27)

>  <Rbt.Parameter_File>
/home/fstefaniak/progs/rDock//data/scripts/dock_solv.prm

>  <Rbt.Receptor>
4xnr.prm

>  <SCORE>
-47.4802

>  <SCORE.INTER>
-28.6993

>  <SCORE.INTER.CONST>
1

>  <SCORE.INTER.POLAR>
-3.66079

>  <SCORE.INTER.ROT>
3

>  <SCORE.INTER.SOLV>
9.69018

>  <SCORE.INTER.VDW>
-15.7603

>  <SCORE.INTER.norm>
-2.20764

>  <SCORE.INTRA>
0.937825

>  <SCORE.INTRA.DIHEDRAL>
1.69182

>  <SCORE.INTRA.DIHEDRAL.0>
2.15352

>  <SCORE.INTRA.POLAR>
0

>  <SCORE.INTRA.POLAR.0>
0

>  <SCORE.INTRA.REPUL>
0

>  <SCORE.INTRA.REPUL.0>
0

>  <SCORE.INTRA.SOLV>
-0.0518988

>  <SCORE.INTRA.SOLV.lig_0>
-14.0672

>  <SCORE.INTRA.VDW>
0.117865

>  <SCORE.INTRA.VDW.0>
-0.908363

>  <SCORE.INTRA.norm>
0.0721404

>  <SCORE.RESTR>
0.00583812

>  <SCORE.RESTR.CAVITY>
0.00583812

>  <SCORE.RESTR.norm>
0.000449086

>  <SCORE.SYSTEM>
-19.7246

>  <SCORE.SYSTEM.CONST>
0

>  <SCORE.SYSTEM.DIHEDRAL>
4.7073

>  <SCORE.SYSTEM.POLAR>
-3.01025

>  <SCORE.SYSTEM.SOLV>
0.329274

>  <SCORE.SYSTEM.VDW>
-4.79442

>  <SCORE.SYSTEM.norm>
-1.51727

>  <SCORE.heavy>
13

>  <SCORE.norm>
-3.65232

$$$$
P133633748
 OpenBabel12072022113D
libRbt.so/2013.1/901 2013/11/27
 16 17  0  0  0  0  0  0  0  0999 V2000
    1.3848   15.0783    4.8003 C   0  0  0  0  0  0  0  0  0  0  0  0
    2.3015   14.6609    3.6340 C   0  0  0  0  0  0  0  0  0  0  0  0
    2.7107   16.1471    3.4947 C   0  0  0  0  0  0  0  0  0  0  0  0
    1.3832   16.5008    4.2073 C   0  0  0  0  0  0  0  0  0  0  0  0
    3.9194   16.5176    4.2631 N   0  0  0  0  0  0  0  0  0  0  0  0
    4.9174   17.3035    3.7158 C   0  0  0  0  0  0  0  0  0  0  0  0
    4.8644   17.7414    2.5708 O   0  0  0  0  0  0  0  0  0  0  0  0
    6.0769   17.5714    4.6644 C   0  0  1  0  0  0  0  0  0  0  0  0
    7.2816   18.0954    3.8946 C   0  0  0  0  0  0  0  0  0  0  0  0
    7.3313   19.5248    4.0614 O   0  0  0  0  0  0  0  0  0  0  0  0
    6.1728   19.9229    4.8138 C   0  0  0  0  0  0  0  0  0  0  0  0
    5.7707   18.6992    5.6371 C   0  0  2  0  0  0  0  0  0  0  0  0
    6.6187   18.5732    6.8441 N   0  0  0  0  0  0  0  0  0  0  0  0
    3.9953   16.2577    5.2395 H   0  0  0  0  0  0  0  0  0  0  0  0
    6.7560   17.5808    7.0429 H   0  0  0  0  0  0  0  0  0  0  0  0
    6.0972   18.9276    7.6501 H   0  0  0  0  0  0  0  0  0  0  0  0
  1  2  1  0  0  0  0
  1  4  1  0  0  0  0
  2  3  1  0  0  0  0
  3  4  1  0  0  0  0
  3  5  1  0  0  0  0
  5  6  1  0  0  0  0
  5 14  1  0  0  0  0
  6  7  2  0  0  0  0
  8  6  1  6  0  0  0
  8  9  1  0  0  0  0
  8 12  1  0  0  0  0
  9 10  1  0  0  0  0
 10 11  1  0  0  0  0
 11 12  1  0  0  0  0
 12 13  1  1  0  0  0
 13 15  1  0  0  0  0
 13 16  1  0  0  0  0
M  END
>  <CHROM.0>
-51.38832886,-62.87195331,-64.71419185,-49.18443320,-60.17371673,-63.45912658
-69.47251406,-62.93552242,-168.28385764

>  <CHROM.1>
135.82285262,164.34666269,-34.65330118,4.71205591,17.43972791,4.37201577
2.93115323,-0.60703048,-1.68264182

>  <Name>
P133633748

>  <RI>
1.34432e+07

>  <Rbt.Current_Directory>
/home/fstefaniak/projects/zuza/docking/adenine/4XNR

>  <Rbt.Executable>
rbdock ($Id: //depot/dev/client3/rdock/2013.1/src/exe/rbdock.cxx#4 $)

>  <Rbt.Library>
libRbt.so (2013.1, Build901 2013/11/27)

>  <Rbt.Parameter_File>
/home/fstefaniak/progs/rDock//data/scripts/dock_solv.prm

>  <Rbt.Receptor>
4xnr.prm

>  <SCORE>
-46.2936

>  <SCORE.INTER>
-26.0772

>  <SCORE.INTER.CONST>
1

>  <SCORE.INTER.POLAR>
-3.26538

>  <SCORE.INTER.ROT>
3

>  <SCORE.INTER.SOLV>
13.1904

>  <SCORE.INTER.VDW>
-16.497

>  <SCORE.INTER.norm>
-2.00594

>  <SCORE.INTRA>
0.602512

>  <SCORE.INTRA.DIHEDRAL>
1.38896

>  <SCORE.INTRA.DIHEDRAL.0>
2.15352

>  <SCORE.INTRA.POLAR>
0

>  <SCORE.INTRA.POLAR.0>
0

>  <SCORE.INTRA.REPUL>
0

>  <SCORE.INTRA.REPUL.0>
0

>  <SCORE.INTRA.SOLV>
-0.113429

>  <SCORE.INTRA.SOLV.lig_0>
-14.0672

>  <SCORE.INTRA.VDW>
-0.0352558

>  <SCORE.INTRA.VDW.0>
-0.908363

>  <SCORE.INTRA.norm>
0.0463471

>  <SCORE.RESTR>
0

>  <SCORE.RESTR.CAVITY>
0

>  <SCORE.RESTR.norm>
0

>  <SCORE.SYSTEM>
-20.8189

>  <SCORE.SYSTEM.CONST>
0

>  <SCORE.SYSTEM.DIHEDRAL>
4.25945

>  <SCORE.SYSTEM.POLAR>
-3.0102

>  <SCORE.SYSTEM.SOLV>
0.277896

>  <SCORE.SYSTEM.VDW>
-5.35773

>  <SCORE.SYSTEM.norm>
-1.60145

>  <SCORE.heavy>
13

>  <SCORE.norm>
-3.56104

$$$$
P133633748
 OpenBabel12072022113D
libRbt.so/2013.1/901 2013/11/27
 16 17  0  0  0  0  0  0  0  0999 V2000
    1.4618   15.0224    4.7905 C   0  0  0  0  0  0  0  0  0  0  0  0
    2.3810   14.6663    3.6061 C   0  0  0  0  0  0  0  0  0  0  0  0
    2.7556   16.1654    3.5159 C   0  0  0  0  0  0  0  0  0  0  0  0
    1.4245   16.4640    4.2467 C   0  0  0  0  0  0  0  0  0  0  0  0
    3.9600   16.5369    4.2906 N   0  0  0  0  0  0  0  0  0  0  0  0
    4.9510   17.3395    3.7550 C   0  0  0  0  0  0  0  0  0  0  0  0
    4.8950   17.7923    2.6159 O   0  0  0  0  0  0  0  0  0  0  0  0
    6.1070   17.6055    4.7085 C   0  0  1  0  0  0  0  0  0  0  0  0
    7.3031   18.1633    3.9490 C   0  0  0  0  0  0  0  0  0  0  0  0
    7.3312   19.5897    4.1450 O   0  0  0  0  0  0  0  0  0  0  0  0
    6.1673   19.9547    4.9058 C   0  0  0  0  0  0  0  0  0  0  0  0
    5.7844   18.7085    5.7041 C   0  0  2  0  0  0  0  0  0  0  0  0
    6.6350   18.5708    6.9079 N   0  0  0  0  0  0  0  0  0  0  0  0
    4.0374   16.2646    5.2634 H   0  0  0  0  0  0  0  0  0  0  0  0
    6.7759   17.5765    7.0945 H   0  0  0  0  0  0  0  0  0  0  0  0
    6.1138   18.9137    7.7191 H   0  0  0  0  0  0  0  0  0  0  0  0
  1  2  1  0  0  0  0
  1  4  1  0  0  0  0
  2  3  1  0  0  0  0
  3  4  1  0  0  0  0
  3  5  1  0  0  0  0
  5  6  1  0  0  0  0
  5 14  1  0  0  0  0
  6  7  2  0  0  0  0
  8  6  1  6  0  0  0
  8  9  1  0  0  0  0
  8 12  1  0  0  0  0
  9 10  1  0  0  0  0
 10 11  1  0  0  0  0
 11 12  1  0  0  0  0
 12 13  1  1  0  0  0
 13 15  1  0  0  0  0
 13 16  1  0  0  0  0
M  END
>  <CHROM.0>
-47.26466064,-59.11248278,-64.48580695,-47.93358925,-65.10222429,-65.44639189
-66.85531884,-177.87192219,-167.87875967

>  <CHROM.1>
134.35859341,164.86961217,-35.48696305,4.74420680,17.45866698,4.41412173
2.92794894,-0.62194417,-1.66628662

>  <Name>
P133633748

>  <RI>
1.34432e+07

>  <Rbt.Current_Directory>
/home/fstefaniak/projects/zuza/docking/adenine/4XNR

>  <Rbt.Executable>
rbdock ($Id: //depot/dev/client3/rdock/2013.1/src/exe/rbdock.cxx#4 $)

>  <Rbt.Library>
libRbt.so (2013.1, Build901 2013/11/27)

>  <Rbt.Parameter_File>
/home/fstefaniak/progs/rDock//data/scripts/dock_solv.prm

>  <Rbt.Receptor>
4xnr.prm

>  <SCORE>
-46.2343

>  <SCORE.INTER>
-26.3116

>  <SCORE.INTER.CONST>
1

>  <SCORE.INTER.POLAR>
-3.28657

>  <SCORE.INTER.ROT>
3

>  <SCORE.INTER.SOLV>
13.2599

>  <SCORE.INTER.VDW>
-16.6058

>  <SCORE.INTER.norm>
-2.02397

>  <SCORE.INTRA>
0.560954

>  <SCORE.INTRA.DIHEDRAL>
1.31036

>  <SCORE.INTRA.DIHEDRAL.0>
2.15352

>  <SCORE.INTRA.POLAR>
0

>  <SCORE.INTRA.POLAR.0>
0

>  <SCORE.INTRA.REPUL>
0

>  <SCORE.INTRA.REPUL.0>
0

>  <SCORE.INTRA.SOLV>
-0.11183

>  <SCORE.INTRA.SOLV.lig_0>
-14.0672

>  <SCORE.INTRA.VDW>
-0.0383109

>  <SCORE.INTRA.VDW.0>
-0.908363

>  <SCORE.INTRA.norm>
0.0431503

>  <SCORE.RESTR>
0

>  <SCORE.RESTR.CAVITY>
0

>  <SCORE.RESTR.norm>
0

>  <SCORE.SYSTEM>
-20.4837

>  <SCORE.SYSTEM.CONST>
0

>  <SCORE.SYSTEM.DIHEDRAL>
4.75493

>  <SCORE.SYSTEM.POLAR>
-3.06767

>  <SCORE.SYSTEM.SOLV>
0.153352

>  <SCORE.SYSTEM.VDW>
-5.06629

>  <SCORE.SYSTEM.norm>
-1.57567

>  <SCORE.heavy>
13

>  <SCORE.norm>
-3.55648

$$$$
P133651182
 OpenBabel12072022113D
libRbt.so/2013.1/901 2013/11/27
 16 16  0  0  0  0  0  0  0  0999 V2000
    1.1917   15.6403    4.6664 C   0  0  0  0  0  0  0  0  0  0  0  0
    2.2353   14.5755    4.3047 C   0  0  1  0  0  0  0  0  0  0  0  0
    2.7627   13.8228    5.5266 C   0  0  0  0  0  0  0  0  0  0  0  0
    3.0778   12.4767    5.1169 O   0  0  0  0  0  0  0  0  0  0  0  0
    2.7205   12.3318    3.7312 C   0  0  0  0  0  0  0  0  0  0  0  0
    1.6848   13.4251    3.4453 C   0  0  1  0  0  0  0  0  0  0  0  0
    0.3431   12.9647    3.8738 N   0  0  0  0  0  0  0  0  0  0  0  0
    3.3994   15.2700    3.5700 C   0  0  0  0  0  0  0  0  0  0  0  0
    3.7642   14.9448    2.4418 O   0  0  0  0  0  0  0  0  0  0  0  0
    4.0033   16.3056    4.2461 N   0  0  0  0  0  0  0  0  0  0  0  0
    5.1106   17.0217    3.6609 C   0  0  0  0  0  0  0  0  0  0  0  0
    5.6007   18.0349    4.5989 C   0  0  0  0  0  0  0  0  0  0  0  0
    6.0022   18.8650    5.3688 C   0  0  0  0  0  0  0  0  0  0  0  0
   -0.3385   13.7010    3.6756 H   0  0  0  0  0  0  0  0  0  0  0  0
    0.3382   12.8719    4.8907 H   0  0  0  0  0  0  0  0  0  0  0  0
    3.7139   16.5592    5.1803 H   0  0  0  0  0  0  0  0  0  0  0  0
  2  1  1  1  0  0  0
  2  3  1  0  0  0  0
  2  8  1  0  0  0  0
  2  6  1  0  0  0  0
  3  4  1  0  0  0  0
  4  5  1  0  0  0  0
  5  6  1  0  0  0  0
  6  7  1  1  0  0  0
  7 14  1  0  0  0  0
  7 15  1  0  0  0  0
  8  9  2  0  0  0  0
  8 10  1  0  0  0  0
 10 11  1  0  0  0  0
 10 16  1  0  0  0  0
 11 12  1  0  0  0  0
 12 13  3  0  0  0  0
M  END
>  <CHROM.0>
-57.20963760,-72.10453290,60.60161991,-44.93146728,-62.75842663,-63.55583560
53.83275532,-59.15779736,-168.41223351

>  <CHROM.1>
-122.76876886,68.43043029,-177.86564939,28.89269390,3.15894621,14.97309690
4.19522473,2.23890373,-0.20162941,-2.91030881

>  <Name>
P133651182

>  <RI>
1.34432e+07

>  <Rbt.Current_Directory>
/home/fstefaniak/projects/zuza/docking/adenine/4XNR

>  <Rbt.Executable>
rbdock ($Id: //depot/dev/client3/rdock/2013.1/src/exe/rbdock.cxx#4 $)

>  <Rbt.Library>
libRbt.so (2013.1, Build901 2013/11/27)

>  <Rbt.Parameter_File>
/home/fstefaniak/progs/rDock//data/scripts/dock_solv.prm

>  <Rbt.Receptor>
4xnr.prm

>  <SCORE>
-38.921

>  <SCORE.INTER>
-20.4456

>  <SCORE.INTER.CONST>
1

>  <SCORE.INTER.POLAR>
-2.67844

>  <SCORE.INTER.ROT>
4

>  <SCORE.INTER.SOLV>
10.1377

>  <SCORE.INTER.VDW>
-14.3482

>  <SCORE.INTER.norm>
-1.57274

>  <SCORE.INTRA>
0.258754

>  <SCORE.INTRA.DIHEDRAL>
0.19639

>  <SCORE.INTRA.DIHEDRAL.0>
1.36138

>  <SCORE.INTRA.POLAR>
0

>  <SCORE.INTRA.POLAR.0>
0

>  <SCORE.INTRA.REPUL>
0

>  <SCORE.INTRA.REPUL.0>
0

>  <SCORE.INTRA.SOLV>
-0.0174075

>  <SCORE.INTRA.SOLV.lig_0>
-14.007

>  <SCORE.INTRA.VDW>
0.169263

>  <SCORE.INTRA.VDW.0>
-0.3462

>  <SCORE.INTRA.norm>
0.0199042

>  <SCORE.RESTR>
0

>  <SCORE.RESTR.CAVITY>
0

>  <SCORE.RESTR.norm>
0

>  <SCORE.SYSTEM>
-18.7342

>  <SCORE.SYSTEM.CONST>
0

>  <SCORE.SYSTEM.DIHEDRAL>
4.7537

>  <SCORE.SYSTEM.POLAR>
-3.01036

>  <SCORE.SYSTEM.SOLV>
0.180909

>  <SCORE.SYSTEM.VDW>
-4.09979

>  <SCORE.SYSTEM.norm>
-1.44109

>  <SCORE.heavy>
13

>  <SCORE.norm>
-2.99393

$$$$
P133651182
 OpenBabel12072022113D
libRbt.so/2013.1/901 2013/11/27
 16 16  0  0  0  0  0  0  0  0999 V2000
    1.1954   15.6375    4.6397 C   0  0  0  0  0  0  0  0  0  0  0  0
    2.2540   14.5834    4.2902 C   0  0  1  0  0  0  0  0  0  0  0  0
    2.7719   13.8333    5.5178 C   0  0  0  0  0  0  0  0  0  0  0  0
    3.1055   12.4911    5.1099 O   0  0  0  0  0  0  0  0  0  0  0  0
    2.7685   12.3456    3.7192 C   0  0  0  0  0  0  0  0  0  0  0  0
    1.7264   13.4295    3.4213 C   0  0  1  0  0  0  0  0  0  0  0  0
    0.3834   12.9555    3.8305 N   0  0  0  0  0  0  0  0  0  0  0  0
    3.4213   15.2905    3.5729 C   0  0  0  0  0  0  0  0  0  0  0  0
    3.8078   14.9678    2.4512 O   0  0  0  0  0  0  0  0  0  0  0  0
    4.0021   16.3344    4.2565 N   0  0  0  0  0  0  0  0  0  0  0  0
    5.1100   17.0626    3.6877 C   0  0  0  0  0  0  0  0  0  0  0  0
    5.6186   18.0350    4.6585 C   0  0  0  0  0  0  0  0  0  0  0  0
    6.0347   18.8321    5.4551 C   0  0  0  0  0  0  0  0  0  0  0  0
   -0.3063   13.6740    3.5981 H   0  0  0  0  0  0  0  0  0  0  0  0
    0.3564   12.8880    4.8491 H   0  0  0  0  0  0  0  0  0  0  0  0
    3.6949   16.5860    5.1856 H   0  0  0  0  0  0  0  0  0  0  0  0
  2  1  1  1  0  0  0
  2  3  1  0  0  0  0
  2  8  1  0  0  0  0
  2  6  1  0  0  0  0
  3  4  1  0  0  0  0
  4  5  1  0  0  0  0
  5  6  1  0  0  0  0
  6  7  1  1  0  0  0
  7 14  1  0  0  0  0
  7 15  1  0  0  0  0
  8  9  2  0  0  0  0
  8 10  1  0  0  0  0
 10 11  1  0  0  0  0
 10 16  1  0  0  0  0
 11 12  1  0  0  0  0
 12 13  3  0  0  0  0
M  END
>  <CHROM.0>
-54.97696630,-73.27019545,-66.91988503,-47.14293768,59.80649829,-60.02985116
-67.18492341,58.86575404,-169.40017542

>  <CHROM.1>
-123.05057792,70.14690189,-174.88803614,-12.96771236,3.18219465,14.98259956
4.19813969,2.23054073,-0.15178870,-2.93331796

>  <Name>
P133651182

>  <RI>
1.34432e+07

>  <Rbt.Current_Directory>
/home/fstefaniak/projects/zuza/docking/adenine/4XNR

>  <Rbt.Executable>
rbdock ($Id: //depot/dev/client3/rdock/2013.1/src/exe/rbdock.cxx#4 $)

>  <Rbt.Library>
libRbt.so (2013.1, Build901 2013/11/27)

>  <Rbt.Parameter_File>
/home/fstefaniak/progs/rDock//data/scripts/dock_solv.prm

>  <Rbt.Receptor>
4xnr.prm

>  <SCORE>
-38.8947

>  <SCORE.INTER>
-20.5971

>  <SCORE.INTER.CONST>
1

>  <SCORE.INTER.POLAR>
-2.60756

>  <SCORE.INTER.ROT>
4

>  <SCORE.INTER.SOLV>
10.0879

>  <SCORE.INTER.VDW>
-14.6688

>  <SCORE.INTER.norm>
-1.58439

>  <SCORE.INTRA>
0.278179

>  <SCORE.INTRA.DIHEDRAL>
0.275121

>  <SCORE.INTRA.DIHEDRAL.0>
1.36138

>  <SCORE.INTRA.POLAR>
0

>  <SCORE.INTRA.POLAR.0>
0

>  <SCORE.INTRA.REPUL>
0

>  <SCORE.INTRA.REPUL.0>
0

>  <SCORE.INTRA.SOLV>
-0.0190334

>  <SCORE.INTRA.SOLV.lig_0>
-14.007

>  <SCORE.INTRA.VDW>
0.150135

>  <SCORE.INTRA.VDW.0>
-0.3462

>  <SCORE.INTRA.norm>
0.0213984

>  <SCORE.RESTR>
0

>  <SCORE.RESTR.CAVITY>
0

>  <SCORE.RESTR.norm>
0

>  <SCORE.SYSTEM>
-18.5758

>  <SCORE.SYSTEM.CONST>
0

>  <SCORE.SYSTEM.DIHEDRAL>
4.78717

>  <SCORE.SYSTEM.POLAR>
-2.97979

>  <SCORE.SYSTEM.SOLV>
-0.0960986

>  <SCORE.SYSTEM.VDW>
-4.01494

>  <SCORE.SYSTEM.norm>
-1.42891

>  <SCORE.heavy>
13

>  <SCORE.norm>
-2.9919

$$$$
P133651182
 OpenBabel12072022113D
libRbt.so/2013.1/901 2013/11/27
 16 16  0  0  0  0  0  0  0  0999 V2000
    1.1578   15.5913    4.6699 C   0  0  0  0  0  0  0  0  0  0  0  0
    2.2132   14.5411    4.3001 C   0  0  1  0  0  0  0  0  0  0  0  0
    2.7442   13.7803    5.5155 C   0  0  0  0  0  0  0  0  0  0  0  0
    3.0741   12.4420    5.0922 O   0  0  0  0  0  0  0  0  0  0  0  0
    2.7228   12.3087    3.7037 C   0  0  0  0  0  0  0  0  0  0  0  0
    1.6771   13.3947    3.4263 C   0  0  1  0  0  0  0  0  0  0  0  0
    0.3388   12.9162    3.8452 N   0  0  0  0  0  0  0  0  0  0  0  0
    3.3727   15.2552    3.5770 C   0  0  0  0  0  0  0  0  0  0  0  0
    3.7653   14.9253    2.4595 O   0  0  0  0  0  0  0  0  0  0  0  0
    3.9390   16.3136    4.2503 N   0  0  0  0  0  0  0  0  0  0  0  0
    5.0385   17.0497    3.6754 C   0  0  0  0  0  0  0  0  0  0  0  0
    5.5553   18.0152    4.6488 C   0  0  0  0  0  0  0  0  0  0  0  0
    5.9785   18.8062    5.4478 C   0  0  0  0  0  0  0  0  0  0  0  0
   -0.3537   13.6365    3.6266 H   0  0  0  0  0  0  0  0  0  0  0  0
    0.3224   12.8394    4.8633 H   0  0  0  0  0  0  0  0  0  0  0  0
    3.6269   16.5714    5.1761 H   0  0  0  0  0  0  0  0  0  0  0  0
  2  1  1  1  0  0  0
  2  3  1  0  0  0  0
  2  8  1  0  0  0  0
  2  6  1  0  0  0  0
  3  4  1  0  0  0  0
  4  5  1  0  0  0  0
  5  6  1  0  0  0  0
  6  7  1  1  0  0  0
  7 14  1  0  0  0  0
  7 15  1  0  0  0  0
  8  9  2  0  0  0  0
  8 10  1  0  0  0  0
 10 11  1  0  0  0  0
 10 16  1  0  0  0  0
 11 12  1  0  0  0  0
 12 13  3  0  0  0  0
M  END
>  <CHROM.0>
-64.63391967,-72.37145882,57.32722641,-47.73034695,-62.36327376,-61.19998726
52.21373915,58.73643537,-168.22249802

>  <CHROM.1>
-124.54970491,70.13098057,-173.43928119,17.02380388,3.13472825,14.94691423
4.19844913,2.22868433,-0.18245738,-2.91362763

>  <Name>
P133651182

>  <RI>
1.34432e+07

>  <Rbt.Current_Directory>
/home/fstefaniak/projects/zuza/docking/adenine/4XNR

>  <Rbt.Executable>
rbdock ($Id: //depot/dev/client3/rdock/2013.1/src/exe/rbdock.cxx#4 $)

>  <Rbt.Library>
libRbt.so (2013.1, Build901 2013/11/27)

>  <Rbt.Parameter_File>
/home/fstefaniak/progs/rDock//data/scripts/dock_solv.prm

>  <Rbt.Receptor>
4xnr.prm

>  <SCORE>
-38.0663

>  <SCORE.INTER>
-20.7132

>  <SCORE.INTER.CONST>
1

>  <SCORE.INTER.POLAR>
-2.61661

>  <SCORE.INTER.ROT>
4

>  <SCORE.INTER.SOLV>
10.0546

>  <SCORE.INTER.VDW>
-14.705

>  <SCORE.INTER.norm>
-1.59333

>  <SCORE.INTRA>
0.365304

>  <SCORE.INTRA.DIHEDRAL>
0.315408

>  <SCORE.INTRA.DIHEDRAL.0>
1.36138

>  <SCORE.INTRA.POLAR>
0

>  <SCORE.INTRA.POLAR.0>
0

>  <SCORE.INTRA.REPUL>
0

>  <SCORE.INTRA.REPUL.0>
0

>  <SCORE.INTRA.SOLV>
-0.0217417

>  <SCORE.INTRA.SOLV.lig_0>
-14.007

>  <SCORE.INTRA.VDW>
0.218472

>  <SCORE.INTRA.VDW.0>
-0.3462

>  <SCORE.INTRA.norm>
0.0281003

>  <SCORE.RESTR>
0

>  <SCORE.RESTR.CAVITY>
0

>  <SCORE.RESTR.norm>
0

>  <SCORE.SYSTEM>
-17.7184

>  <SCORE.SYSTEM.CONST>
0

>  <SCORE.SYSTEM.DIHEDRAL>
4.60318

>  <SCORE.SYSTEM.POLAR>
-2.9158

>  <SCORE.SYSTEM.SOLV>
-0.0052444

>  <SCORE.SYSTEM.VDW>
-3.62558

>  <SCORE.SYSTEM.norm>
-1.36295

>  <SCORE.heavy>
13

>  <SCORE.norm>
-2.92818

$$$$
P133654346
 OpenBabel12072022113D
libRbt.so/2013.1/901 2013/11/27
 17 18  0  0  0  0  0  0  0  0999 V2000
    5.5293   18.0106    6.0490 C   0  0  0  0  0  0  0  0  0  0  0  0
    5.5023   18.2221    4.5734 C   0  0  1  0  0  0  0  0  0  0  0  0
    6.0668   17.1855    3.6424 C   0  0  0  0  0  0  0  0  0  0  0  0
    4.5805   17.4308    3.6799 C   0  0  1  0  0  0  0  0  0  0  0  0
    3.6941   16.4389    4.2016 N   0  0  0  0  0  0  0  0  0  0  0  0
    3.3774   15.2923    3.4935 C   0  0  0  0  0  0  0  0  0  0  0  0
    3.8602   15.0541    2.3861 O   0  0  0  0  0  0  0  0  0  0  0  0
    2.3724   14.3502    4.1856 C   0  0  2  0  0  0  0  0  0  0  0  0
    3.0622   13.6582    5.3610 C   0  0  0  0  0  0  0  0  0  0  0  0
    3.7173   12.4816    4.8491 O   0  0  0  0  0  0  0  0  0  0  0  0
    3.2509   12.2481    3.5081 C   0  0  0  0  0  0  0  0  0  0  0  0
    2.0114   13.1244    3.3340 C   0  0  2  0  0  0  0  0  0  0  0  0
    1.5770   13.3813    1.9625 N   0  0  0  0  0  0  0  0  0  0  0  0
    1.1291   15.1401    4.6050 C   0  0  0  0  0  0  0  0  0  0  0  0
    3.2890   16.6022    5.1138 H   0  0  0  0  0  0  0  0  0  0  0  0
    0.5629   13.2972    1.8983 H   0  0  0  0  0  0  0  0  0  0  0  0
    1.9447   12.6271    1.3657 H   0  0  0  0  0  0  0  0  0  0  0  0
  2  1  1  1  0  0  0
  2  3  1  0  0  0  0
  2  4  1  0  0  0  0
  3  4  1  0  0  0  0
  4  5  1  1  0  0  0
  5  6  1  0  0  0  0
  5 15  1  0  0  0  0
  6  7  2  0  0  0  0
  8  9  1  0  0  0  0
  8 12  1  0  0  0  0
  8 14  1  1  0  0  0
  8  6  1  0  0  0  0
  9 10  1  0  0  0  0
 10 11  1  0  0  0  0
 11 12  1  0  0  0  0
 12 13  1  6  0  0  0
 13 16  1  0  0  0  0
 13 17  1  0  0  0  0
M  END
>  <CHROM.0>
-58.61402229,-68.69358566,-65.36117276,-47.13542648,-61.07851735,-172.19320200
-66.49885781,59.02524474,-167.70187315

>  <CHROM.1>
-146.09574095,-72.22239360,-102.47934722,3.53659039,15.10615057,3.98107016
-0.30169962,0.97649275,2.16479496

>  <Name>
P133654346

>  <RI>
1.34432e+07

>  <Rbt.Current_Directory>
/home/fstefaniak/projects/zuza/docking/adenine/4XNR

>  <Rbt.Executable>
rbdock ($Id: //depot/dev/client3/rdock/2013.1/src/exe/rbdock.cxx#4 $)

>  <Rbt.Library>
libRbt.so (2013.1, Build901 2013/11/27)

>  <Rbt.Parameter_File>
/home/fstefaniak/progs/rDock//data/scripts/dock_solv.prm

>  <Rbt.Receptor>
4xnr.prm

>  <SCORE>
-38.7243

>  <SCORE.INTER>
-20.4904

>  <SCORE.INTER.CONST>
1

>  <SCORE.INTER.POLAR>
-2.21502

>  <SCORE.INTER.ROT>
3

>  <SCORE.INTER.SOLV>
11.5204

>  <SCORE.INTER.VDW>
-15.717

>  <SCORE.INTER.norm>
-1.4636

>  <SCORE.INTRA>
1.35285

>  <SCORE.INTRA.DIHEDRAL>
1.74334

>  <SCORE.INTRA.DIHEDRAL.0>
1.44444

>  <SCORE.INTRA.POLAR>
0

>  <SCORE.INTRA.POLAR.0>
0

>  <SCORE.INTRA.REPUL>
0

>  <SCORE.INTRA.REPUL.0>
0

>  <SCORE.INTRA.SOLV>
-0.226319

>  <SCORE.INTRA.SOLV.lig_0>
-12.3174

>  <SCORE.INTRA.VDW>
0.594338

>  <SCORE.INTRA.VDW.0>
-1.45316

>  <SCORE.INTRA.norm>
0.0966321

>  <SCORE.RESTR>
0

>  <SCORE.RESTR.CAVITY>
0

>  <SCORE.RESTR.norm>
0

>  <SCORE.SYSTEM>
-19.5867

>  <SCORE.SYSTEM.CONST>
0

>  <SCORE.SYSTEM.DIHEDRAL>
4.53938

>  <SCORE.SYSTEM.POLAR>
-2.98151

>  <SCORE.SYSTEM.SOLV>
-0.00389027

>  <SCORE.SYSTEM.VDW>
-4.63129

>  <SCORE.SYSTEM.norm>
-1.39905

>  <SCORE.heavy>
14

>  <SCORE.norm>
-2.76602

$$$$
P133654346
 OpenBabel12072022113D
libRbt.so/2013.1/901 2013/11/27
 17 18  0  0  0  0  0  0  0  0999 V2000
    5.6441   18.1838    5.6382 C   0  0  0  0  0  0  0  0  0  0  0  0
    5.6698   18.1399    4.1482 C   0  0  1  0  0  0  0  0  0  0  0  0
    6.0989   16.8921    3.4277 C   0  0  0  0  0  0  0  0  0  0  0  0
    4.6608   17.3380    3.3652 C   0  0  1  0  0  0  0  0  0  0  0  0
    3.6369   16.5791    4.0112 N   0  0  0  0  0  0  0  0  0  0  0  0
    3.1864   15.3726    3.5032 C   0  0  0  0  0  0  0  0  0  0  0  0
    3.6595   14.8772    2.4801 O   0  0  0  0  0  0  0  0  0  0  0  0
    2.0475   14.7084    4.3023 C   0  0  2  0  0  0  0  0  0  0  0  0
    2.6501   13.8558    5.4186 C   0  0  0  0  0  0  0  0  0  0  0  0
    2.9364   12.5562    4.8665 O   0  0  0  0  0  0  0  0  0  0  0  0
    2.3008   12.4583    3.5794 C   0  0  0  0  0  0  0  0  0  0  0  0
    1.3106   13.6197    3.5086 C   0  0  2  0  0  0  0  0  0  0  0  0
    0.8260   13.9887    2.1801 N   0  0  0  0  0  0  0  0  0  0  0  0
    1.0885   15.7825    4.8239 C   0  0  0  0  0  0  0  0  0  0  0  0
    3.2354   16.9560    4.8596 H   0  0  0  0  0  0  0  0  0  0  0  0
    0.0051   14.5876    2.2642 H   0  0  0  0  0  0  0  0  0  0  0  0
    0.4855   13.1343    1.7171 H   0  0  0  0  0  0  0  0  0  0  0  0
  2  1  1  1  0  0  0
  2  3  1  0  0  0  0
  2  4  1  0  0  0  0
  3  4  1  0  0  0  0
  4  5  1  1  0  0  0
  5  6  1  0  0  0  0
  5 15  1  0  0  0  0
  6  7  2  0  0  0  0
  8  9  1  0  0  0  0
  8 12  1  0  0  0  0
  8 14  1  1  0  0  0
  8  6  1  0  0  0  0
  9 10  1  0  0  0  0
 10 11  1  0  0  0  0
 11 12  1  0  0  0  0
 12 13  1  6  0  0  0
 13 16  1  0  0  0  0
 13 17  1  0  0  0  0
M  END
>  <CHROM.0>
-56.75605464,-71.23422652,-64.78633881,-44.06172009,-55.93562668,58.97041480
-69.81615840,-56.46494703,-168.15148890

>  <CHROM.1>
-145.27376639,-86.67594970,-74.40142461,3.24027884,15.27917661,3.94426495
-0.20420743,0.83750092,1.97548375

>  <Name>
P133654346

>  <RI>
1.34432e+07

>  <Rbt.Current_Directory>
/home/fstefaniak/projects/zuza/docking/adenine/4XNR

>  <Rbt.Executable>
rbdock ($Id: //depot/dev/client3/rdock/2013.1/src/exe/rbdock.cxx#4 $)

>  <Rbt.Library>
libRbt.so (2013.1, Build901 2013/11/27)

>  <Rbt.Parameter_File>
/home/fstefaniak/progs/rDock//data/scripts/dock_solv.prm

>  <Rbt.Receptor>
4xnr.prm

>  <SCORE>
-38.6416

>  <SCORE.INTER>
-21.3977

>  <SCORE.INTER.CONST>
1

>  <SCORE.INTER.POLAR>
-2.45376

>  <SCORE.INTER.ROT>
3

>  <SCORE.INTER.SOLV>
11.2517

>  <SCORE.INTER.VDW>
-15.4365

>  <SCORE.INTER.norm>
-1.52841

>  <SCORE.INTRA>
2.219

>  <SCORE.INTRA.DIHEDRAL>
1.41969

>  <SCORE.INTRA.DIHEDRAL.0>
1.44444

>  <SCORE.INTRA.POLAR>
0

>  <SCORE.INTRA.POLAR.0>
0

>  <SCORE.INTRA.REPUL>
0

>  <SCORE.INTRA.REPUL.0>
0

>  <SCORE.INTRA.SOLV>
-0.263261

>  <SCORE.INTRA.SOLV.lig_0>
-12.3174

>  <SCORE.INTRA.VDW>
1.64079

>  <SCORE.INTRA.VDW.0>
-1.45316

>  <SCORE.INTRA.norm>
0.1585

>  <SCORE.RESTR>
0.0887041

>  <SCORE.RESTR.CAVITY>
0.0887041

>  <SCORE.RESTR.norm>
0.00633601

>  <SCORE.SYSTEM>
-19.5516

>  <SCORE.SYSTEM.CONST>
0

>  <SCORE.SYSTEM.DIHEDRAL>
5.2178

>  <SCORE.SYSTEM.POLAR>
-3.06074

>  <SCORE.SYSTEM.SOLV>
0.163494

>  <SCORE.SYSTEM.VDW>
-4.62569

>  <SCORE.SYSTEM.norm>
-1.39654

>  <SCORE.heavy>
14

>  <SCORE.norm>
-2.76011

$$$$
P133654346
 OpenBabel12072022113D
libRbt.so/2013.1/901 2013/11/27
 17 18  0  0  0  0  0  0  0  0999 V2000
    5.5313   18.0516    6.0693 C   0  0  0  0  0  0  0  0  0  0  0  0
    5.5209   18.2459    4.5911 C   0  0  1  0  0  0  0  0  0  0  0  0
    6.1056   17.2036    3.6792 C   0  0  0  0  0  0  0  0  0  0  0  0
    4.6170   17.4366    3.6955 C   0  0  1  0  0  0  0  0  0  0  0  0
    3.7325   16.4432    4.2176 N   0  0  0  0  0  0  0  0  0  0  0  0
    3.4176   15.2958    3.5098 C   0  0  0  0  0  0  0  0  0  0  0  0
    3.9005   15.0585    2.4023 O   0  0  0  0  0  0  0  0  0  0  0  0
    2.4146   14.3521    4.2024 C   0  0  2  0  0  0  0  0  0  0  0  0
    3.1035   13.6682    5.3830 C   0  0  0  0  0  0  0  0  0  0  0  0
    3.7657   12.4924    4.8783 O   0  0  0  0  0  0  0  0  0  0  0  0
    3.3051   12.2512    3.5367 C   0  0  0  0  0  0  0  0  0  0  0  0
    2.0622   13.1210    3.3547 C   0  0  2  0  0  0  0  0  0  0  0  0
    1.6313   13.3703    1.9806 N   0  0  0  0  0  0  0  0  0  0  0  0
    1.1662   15.1379    4.6141 C   0  0  0  0  0  0  0  0  0  0  0  0
    3.3275   16.6058    5.1300 H   0  0  0  0  0  0  0  0  0  0  0  0
    0.6154   13.4496    1.9446 H   0  0  0  0  0  0  0  0  0  0  0  0
    1.8528   12.5346    1.4212 H   0  0  0  0  0  0  0  0  0  0  0  0
  2  1  1  1  0  0  0
  2  3  1  0  0  0  0
  2  4  1  0  0  0  0
  3  4  1  0  0  0  0
  4  5  1  1  0  0  0
  5  6  1  0  0  0  0
  5 15  1  0  0  0  0
  6  7  2  0  0  0  0
  8  9  1  0  0  0  0
  8 12  1  0  0  0  0
  8 14  1  1  0  0  0
  8  6  1  0  0  0  0
  9 10  1  0  0  0  0
 10 11  1  0  0  0  0
 11 12  1  0  0  0  0
 12 13  1  6  0  0  0
 13 16  1  0  0  0  0
 13 17  1  0  0  0  0
M  END
>  <CHROM.0>
-62.66566557,-69.24703803,61.25446899,-45.57862480,-177.74114746,-67.16185418
53.46583369,-178.09795012,-168.06548922

>  <CHROM.1>
-147.14766339,-71.86430576,-92.22646786,3.57470250,15.11441784,4.00170320
-0.30535386,0.98218325,2.16693715

>  <Name>
P133654346

>  <RI>
1.34432e+07

>  <Rbt.Current_Directory>
/home/fstefaniak/projects/zuza/docking/adenine/4XNR

>  <Rbt.Executable>
rbdock ($Id: //depot/dev/client3/rdock/2013.1/src/exe/rbdock.cxx#4 $)

>  <Rbt.Library>
libRbt.so (2013.1, Build901 2013/11/27)

>  <Rbt.Parameter_File>
/home/fstefaniak/progs/rDock//data/scripts/dock_solv.prm

>  <Rbt.Receptor>
4xnr.prm

>  <SCORE>
-37.8656

>  <SCORE.INTER>
-19.9277

>  <SCORE.INTER.CONST>
1

>  <SCORE.INTER.POLAR>
-2.1397

>  <SCORE.INTER.ROT>
3

>  <SCORE.INTER.SOLV>
11.5343

>  <SCORE.INTER.VDW>
-15.5976

>  <SCORE.INTER.norm>
-1.42341

>  <SCORE.INTRA>
0.925266

>  <SCORE.INTRA.DIHEDRAL>
1.11504

>  <SCORE.INTRA.DIHEDRAL.0>
1.44444

>  <SCORE.INTRA.POLAR>
0

>  <SCORE.INTRA.POLAR.0>
0

>  <SCORE.INTRA.REPUL>
0

>  <SCORE.INTRA.REPUL.0>
0

>  <SCORE.INTRA.SOLV>
-0.233199

>  <SCORE.INTRA.SOLV.lig_0>
-12.3174

>  <SCORE.INTRA.VDW>
0.484343

>  <SCORE.INTRA.VDW.0>
-1.45316

>  <SCORE.INTRA.norm>
0.0660904

>  <SCORE.RESTR>
0

>  <SCORE.RESTR.CAVITY>
0

>  <SCORE.RESTR.norm>
0

>  <SCORE.SYSTEM>
-18.8632

>  <SCORE.SYSTEM.CONST>
0

>  <SCORE.SYSTEM.DIHEDRAL>
4.62513

>  <SCORE.SYSTEM.POLAR>
-2.96927

>  <SCORE.SYSTEM.SOLV>
-0.141106

>  <SCORE.SYSTEM.VDW>
-4.17257

>  <SCORE.SYSTEM.norm>
-1.34737

>  <SCORE.heavy>
14

>  <SCORE.norm>
-2.70469

$$$$
P134346401
 OpenBabel12072022113D
libRbt.so/2013.1/901 2013/11/27
 12 12  0  0  0  0  0  0  0  0999 V2000
    6.0014   19.2037    7.0624 C   0  0  0  0  0  0  0  0  0  0  0  0
    5.4769   18.0543    6.6160 C   0  0  0  0  0  0  0  0  0  0  0  0
    4.9458   17.8386    5.2269 C   0  0  0  0  0  0  0  0  0  0  0  0
    5.8070   16.9320    4.4505 N   0  0  0  0  0  0  0  0  0  0  0  0
    5.0507   16.2126    3.3947 C   0  0  0  0  0  0  0  0  0  0  0  0
    4.5923   17.0915    2.2069 C   0  0  0  0  0  0  0  0  0  0  0  0
    5.6978   17.8292    1.5809 N   0  0  0  0  0  0  0  0  0  0  0  0
    6.4901   18.5474    2.5952 C   0  0  0  0  0  0  0  0  0  0  0  0
    6.9429   17.6475    3.7829 C   0  0  1  0  0  0  0  0  0  0  0  0
    7.8035   18.4335    4.7021 C   0  0  0  0  0  0  0  0  0  0  0  0
    8.4694   19.0747    5.4060 N   0  0  0  0  0  0  0  0  0  0  0  0
    5.3280   18.4896    0.8974 H   0  0  0  0  0  0  0  0  0  0  0  0
  1  2  2  0  0  0  0
  2  3  1  0  0  0  0
  3  4  1  0  0  0  0
  4  5  1  0  0  0  0
  4  9  1  0  0  0  0
  5  6  1  0  0  0  0
  6  7  1  0  0  0  0
  7  8  1  0  0  0  0
  7 12  1  0  0  0  0
  8  9  1  0  0  0  0
  9 10  1  1  0  0  0
 10 11  3  0  0  0  0
M  END
>  <CHROM.0>
-58.98102066,-62.78509916,-67.79603661,-47.64976082,-57.93926036,-62.56247977
-67.00801614,-56.52197911,-167.97701378

>  <CHROM.1>
110.28055890,153.12603057,6.08696375,17.89420141,4.23460834,1.22204271,0.48863813
1.39738302

>  <Name>
P134346401

>  <RI>
3.1908e+07

>  <Rbt.Current_Directory>
/home/fstefaniak/projects/zuza/docking/adenine/4XNR

>  <Rbt.Executable>
rbdock ($Id: //depot/dev/client3/rdock/2013.1/src/exe/rbdock.cxx#4 $)

>  <Rbt.Library>
libRbt.so (2013.1, Build901 2013/11/27)

>  <Rbt.Parameter_File>
/home/fstefaniak/progs/rDock//data/scripts/dock_solv.prm

>  <Rbt.Receptor>
4xnr.prm

>  <SCORE>
-36.2941

>  <SCORE.INTER>
-15.892

>  <SCORE.INTER.CONST>
1

>  <SCORE.INTER.POLAR>
-2.52689

>  <SCORE.INTER.ROT>
2

>  <SCORE.INTER.SOLV>
12.2986

>  <SCORE.INTER.VDW>
-11.2046

>  <SCORE.INTER.norm>
-1.44473

>  <SCORE.INTRA>
0.50307

>  <SCORE.INTRA.DIHEDRAL>
0.979203

>  <SCORE.INTRA.DIHEDRAL.0>
0.173776

>  <SCORE.INTRA.POLAR>
0

>  <SCORE.INTRA.POLAR.0>
0

>  <SCORE.INTRA.REPUL>
0

>  <SCORE.INTRA.REPUL.0>
0

>  <SCORE.INTRA.SOLV>
0.357984

>  <SCORE.INTRA.SOLV.lig_0>
-11.4098

>  <SCORE.INTRA.VDW>
-0.165524

>  <SCORE.INTRA.VDW.0>
-0.148853

>  <SCORE.INTRA.norm>
0.0457336

>  <SCORE.RESTR>
0

>  <SCORE.RESTR.CAVITY>
0

>  <SCORE.RESTR.norm>
0

>  <SCORE.SYSTEM>
-20.9052

>  <SCORE.SYSTEM.CONST>
0

>  <SCORE.SYSTEM.DIHEDRAL>
4.12241

>  <SCORE.SYSTEM.POLAR>
-2.97626

>  <SCORE.SYSTEM.SOLV>
0.286009

>  <SCORE.SYSTEM.VDW>
-5.4854

>  <SCORE.SYSTEM.norm>
-1.90047

>  <SCORE.heavy>
11

>  <SCORE.norm>
-3.29947

$$$$
P134346401
 OpenBabel12072022113D
libRbt.so/2013.1/901 2013/11/27
 12 12  0  0  0  0  0  0  0  0999 V2000
    6.0300   19.2061    7.0343 C   0  0  0  0  0  0  0  0  0  0  0  0
    5.4768   18.0626    6.6080 C   0  0  0  0  0  0  0  0  0  0  0  0
    4.9371   17.8371    5.2238 C   0  0  0  0  0  0  0  0  0  0  0  0
    5.7932   16.9248    4.4485 N   0  0  0  0  0  0  0  0  0  0  0  0
    5.0344   16.2137    3.3889 C   0  0  0  0  0  0  0  0  0  0  0  0
    4.5875   17.0986    2.2011 C   0  0  0  0  0  0  0  0  0  0  0  0
    5.7012   17.8282    1.5803 N   0  0  0  0  0  0  0  0  0  0  0  0
    6.4962   18.5378    2.5986 C   0  0  0  0  0  0  0  0  0  0  0  0
    6.9373   17.6318    3.7861 C   0  0  1  0  0  0  0  0  0  0  0  0
    7.8014   18.4089    4.7097 C   0  0  0  0  0  0  0  0  0  0  0  0
    8.4704   19.0431    5.4171 N   0  0  0  0  0  0  0  0  0  0  0  0
    5.3393   18.4930    0.8968 H   0  0  0  0  0  0  0  0  0  0  0  0
  1  2  2  0  0  0  0
  2  3  1  0  0  0  0
  3  4  1  0  0  0  0
  4  5  1  0  0  0  0
  4  9  1  0  0  0  0
  5  6  1  0  0  0  0
  6  7  1  0  0  0  0
  7  8  1  0  0  0  0
  7 12  1  0  0  0  0
  8  9  1  0  0  0  0
  9 10  1  1  0  0  0
 10 11  3  0  0  0  0
M  END
>  <CHROM.0>
-60.62075058,-64.32080702,-64.17275161,-45.48110717,-174.14273393,-63.24810129
-66.07678059,-58.28740967,-168.18568943

>  <CHROM.1>
108.80263383,154.01277286,6.08595029,17.88790597,4.23192727,1.21580714,0.48147118
1.39817148

>  <Name>
P134346401

>  <RI>
3.1908e+07

>  <Rbt.Current_Directory>
/home/fstefaniak/projects/zuza/docking/adenine/4XNR

>  <Rbt.Executable>
rbdock ($Id: //depot/dev/client3/rdock/2013.1/src/exe/rbdock.cxx#4 $)

>  <Rbt.Library>
libRbt.so (2013.1, Build901 2013/11/27)

>  <Rbt.Parameter_File>
/home/fstefaniak/progs/rDock//data/scripts/dock_solv.prm

>  <Rbt.Receptor>
4xnr.prm

>  <SCORE>
-36.2911

>  <SCORE.INTER>
-16.0533

>  <SCORE.INTER.CONST>
1

>  <SCORE.INTER.POLAR>
-2.54304

>  <SCORE.INTER.ROT>
2

>  <SCORE.INTER.SOLV>
12.2722

>  <SCORE.INTER.VDW>
-11.2495

>  <SCORE.INTER.norm>
-1.45939

>  <SCORE.INTRA>
0.67875

>  <SCORE.INTRA.DIHEDRAL>
0.985064

>  <SCORE.INTRA.DIHEDRAL.0>
0.173776

>  <SCORE.INTRA.POLAR>
0

>  <SCORE.INTRA.POLAR.0>
0

>  <SCORE.INTRA.REPUL>
0

>  <SCORE.INTRA.REPUL.0>
0

>  <SCORE.INTRA.SOLV>
0.366931

>  <SCORE.INTRA.SOLV.lig_0>
-11.4098

>  <SCORE.INTRA.VDW>
0.00275199

>  <SCORE.INTRA.VDW.0>
-0.148853

>  <SCORE.INTRA.norm>
0.0617045

>  <SCORE.RESTR>
0

>  <SCORE.RESTR.CAVITY>
0

>  <SCORE.RESTR.norm>
0

>  <SCORE.SYSTEM>
-20.9166

>  <SCORE.SYSTEM.CONST>
0

>  <SCORE.SYSTEM.DIHEDRAL>
4.27084

>  <SCORE.SYSTEM.POLAR>
-3.00084

>  <SCORE.SYSTEM.SOLV>
0.114757

>  <SCORE.SYSTEM.VDW>
-5.40349

>  <SCORE.SYSTEM.norm>
-1.90151

>  <SCORE.heavy>
11

>  <SCORE.norm>
-3.29919

$$$$
P134346401
 OpenBabel12072022113D
libRbt.so/2013.1/901 2013/11/27
 12 12  0  0  0  0  0  0  0  0999 V2000
    6.0318   19.2156    7.0706 C   0  0  0  0  0  0  0  0  0  0  0  0
    5.4951   18.0624    6.6491 C   0  0  0  0  0  0  0  0  0  0  0  0
    4.9464   17.8275    5.2701 C   0  0  0  0  0  0  0  0  0  0  0  0
    5.8037   16.9191    4.4915 N   0  0  0  0  0  0  0  0  0  0  0  0
    5.0409   16.1928    3.4451 C   0  0  0  0  0  0  0  0  0  0  0  0
    4.5714   17.0648    2.2565 C   0  0  0  0  0  0  0  0  0  0  0  0
    5.6704   17.8019    1.6185 N   0  0  0  0  0  0  0  0  0  0  0  0
    6.4688   18.5269    2.6231 C   0  0  0  0  0  0  0  0  0  0  0  0
    6.9327   17.6338    3.8117 C   0  0  1  0  0  0  0  0  0  0  0  0
    7.7985   18.4263    4.7204 C   0  0  0  0  0  0  0  0  0  0  0  0
    8.4684   19.0724    5.4160 N   0  0  0  0  0  0  0  0  0  0  0  0
    5.2939   18.4581    0.9346 H   0  0  0  0  0  0  0  0  0  0  0  0
  1  2  2  0  0  0  0
  2  3  1  0  0  0  0
  3  4  1  0  0  0  0
  4  5  1  0  0  0  0
  4  9  1  0  0  0  0
  5  6  1  0  0  0  0
  6  7  1  0  0  0  0
  7  8  1  0  0  0  0
  7 12  1  0  0  0  0
  8  9  1  0  0  0  0
  9 10  1  1  0  0  0
 10 11  3  0  0  0  0
M  END
>  <CHROM.0>
-62.77894000,-64.66402070,-63.33988908,-46.12629379,-177.33315599,-61.19964730
-67.62822753,-177.03894002,-168.52121413

>  <CHROM.1>
109.41468410,153.71076448,6.08212951,17.88286283,4.26646723,1.20873553,0.49320125
1.39602034

>  <Name>
P134346401

>  <RI>
3.1908e+07

>  <Rbt.Current_Directory>
/home/fstefaniak/projects/zuza/docking/adenine/4XNR

>  <Rbt.Executable>
rbdock ($Id: //depot/dev/client3/rdock/2013.1/src/exe/rbdock.cxx#4 $)

>  <Rbt.Library>
libRbt.so (2013.1, Build901 2013/11/27)

>  <Rbt.Parameter_File>
/home/fstefaniak/progs/rDock//data/scripts/dock_solv.prm

>  <Rbt.Receptor>
4xnr.prm

>  <SCORE>
-36.2238

>  <SCORE.INTER>
-16.0071

>  <SCORE.INTER.CONST>
1

>  <SCORE.INTER.POLAR>
-2.5634

>  <SCORE.INTER.ROT>
2

>  <SCORE.INTER.SOLV>
12.2687

>  <SCORE.INTER.VDW>
-11.1497

>  <SCORE.INTER.norm>
-1.45519

>  <SCORE.INTRA>
0.60552

>  <SCORE.INTRA.DIHEDRAL>
0.977652

>  <SCORE.INTRA.DIHEDRAL.0>
0.173776

>  <SCORE.INTRA.POLAR>
0

>  <SCORE.INTRA.POLAR.0>
0

>  <SCORE.INTRA.REPUL>
0

>  <SCORE.INTRA.REPUL.0>
0

>  <SCORE.INTRA.SOLV>
0.363551

>  <SCORE.INTRA.SOLV.lig_0>
-11.4098

>  <SCORE.INTRA.VDW>
-0.0650819

>  <SCORE.INTRA.VDW.0>
-0.148853

>  <SCORE.INTRA.norm>
0.0550473

>  <SCORE.RESTR>
0

>  <SCORE.RESTR.CAVITY>
0

>  <SCORE.RESTR.norm>
0

>  <SCORE.SYSTEM>
-20.8222

>  <SCORE.SYSTEM.CONST>
0

>  <SCORE.SYSTEM.DIHEDRAL>
4.13543

>  <SCORE.SYSTEM.POLAR>
-2.96998

>  <SCORE.SYSTEM.SOLV>
-0.0257248

>  <SCORE.SYSTEM.VDW>
-5.35141

>  <SCORE.SYSTEM.norm>
-1.89292

>  <SCORE.heavy>
11

>  <SCORE.norm>
-3.29307

$$$$
P134378955
 OpenBabel12072022113D
libRbt.so/2013.1/901 2013/11/27
 14 14  0  0  0  0  0  0  0  0999 V2000
    6.6682   18.0639    2.0632 C   0  0  0  0  0  0  0  0  0  0  0  0
    5.9984   17.0259    2.9584 C   0  0  1  0  0  0  0  0  0  0  0  0
    5.7857   17.6286    4.3617 C   0  0  0  0  0  0  0  0  0  0  0  0
    4.7729   17.4117    5.0260 O   0  0  0  0  0  0  0  0  0  0  0  0
    6.8040   18.4550    4.7889 N   0  0  0  0  0  0  0  0  0  0  0  0
    6.7709   19.0502    6.1009 C   0  0  0  0  0  0  0  0  0  0  0  0
    4.6961   16.6536    2.3698 N   0  0  0  0  0  0  0  0  0  0  0  0
    3.9668   15.8035    3.2310 N   0  0  0  0  0  0  0  0  0  0  0  0
    4.4575   14.6383    3.7459 C   0  0  0  0  0  0  0  0  0  0  0  0
    3.4728   14.0697    4.5255 C   0  0  0  0  0  0  0  0  0  0  0  0
    2.3440   14.9234    4.4616 C   0  0  0  0  0  0  0  0  0  0  0  0
    2.6762   15.9809    3.6402 C   0  0  0  0  0  0  0  0  0  0  0  0
    7.6828   18.4480    4.2870 H   0  0  0  0  0  0  0  0  0  0  0  0
    4.1790   17.5191    2.1906 H   0  0  0  0  0  0  0  0  0  0  0  0
  2  1  1  6  0  0  0
  2  3  1  0  0  0  0
  2  7  1  0  0  0  0
  3  4  2  0  0  0  0
  3  5  1  0  0  0  0
  5  6  1  0  0  0  0
  5 13  1  0  0  0  0
  7  8  1  0  0  0  0
  7 14  1  0  0  0  0
  8  9  1  0  0  0  0
  8 12  1  0  0  0  0
  9 10  2  0  0  0  0
 10 11  1  0  0  0  0
 11 12  2  0  0  0  0
M  END
>  <CHROM.0>
-56.20186711,173.58945776,-62.95072436,-47.42942936,-58.11710228,-63.44088256
-70.01971852,-62.68699918,-167.11146820

>  <CHROM.1>
141.26092172,-173.61350666,-53.93113875,4.92315585,16.71800316,3.94280466
-0.26865038,-0.76469460,-1.79398493

>  <Name>
P134378955

>  <RI>
4.17015e+07

>  <Rbt.Current_Directory>
/home/fstefaniak/projects/zuza/docking/adenine/4XNR

>  <Rbt.Executable>
rbdock ($Id: //depot/dev/client3/rdock/2013.1/src/exe/rbdock.cxx#4 $)

>  <Rbt.Library>
libRbt.so (2013.1, Build901 2013/11/27)

>  <Rbt.Parameter_File>
/home/fstefaniak/progs/rDock//data/scripts/dock_solv.prm

>  <Rbt.Receptor>
4xnr.prm

>  <SCORE>
-42.5419

>  <SCORE.INTER>
-25.237

>  <SCORE.INTER.CONST>
1

>  <SCORE.INTER.POLAR>
-2.08268

>  <SCORE.INTER.ROT>
3

>  <SCORE.INTER.SOLV>
11.7482

>  <SCORE.INTER.VDW>
-19.3984

>  <SCORE.INTER.norm>
-2.10308

>  <SCORE.INTRA>
3.09077

>  <SCORE.INTRA.DIHEDRAL>
-1.05357

>  <SCORE.INTRA.DIHEDRAL.0>
3.19132

>  <SCORE.INTRA.POLAR>
0

>  <SCORE.INTRA.POLAR.0>
0

>  <SCORE.INTRA.REPUL>
0

>  <SCORE.INTRA.REPUL.0>
0

>  <SCORE.INTRA.SOLV>
0.697141

>  <SCORE.INTRA.SOLV.lig_0>
-15.864

>  <SCORE.INTRA.VDW>
3.26899

>  <SCORE.INTRA.VDW.0>
-1.3474

>  <SCORE.INTRA.norm>
0.257564

>  <SCORE.RESTR>
0

>  <SCORE.RESTR.CAVITY>
0

>  <SCORE.RESTR.norm>
0

>  <SCORE.SYSTEM>
-20.3956

>  <SCORE.SYSTEM.CONST>
0

>  <SCORE.SYSTEM.DIHEDRAL>
4.44944

>  <SCORE.SYSTEM.POLAR>
-3.00181

>  <SCORE.SYSTEM.SOLV>
0.268474

>  <SCORE.SYSTEM.VDW>
-5.16371

>  <SCORE.SYSTEM.norm>
-1.69964

>  <SCORE.heavy>
12

>  <SCORE.norm>
-3.54515

$$$$
P134378955
 OpenBabel12072022113D
libRbt.so/2013.1/901 2013/11/27
 14 14  0  0  0  0  0  0  0  0999 V2000
    7.0647   18.2736    1.2426 C   0  0  0  0  0  0  0  0  0  0  0  0
    6.3345   18.2695    2.5820 C   0  0  1  0  0  0  0  0  0  0  0  0
    5.7565   16.8633    2.8399 C   0  0  0  0  0  0  0  0  0  0  0  0
    6.4137   15.8379    2.6648 O   0  0  0  0  0  0  0  0  0  0  0  0
    4.4380   16.8531    3.2447 N   0  0  0  0  0  0  0  0  0  0  0  0
    3.7761   15.6159    3.5734 C   0  0  0  0  0  0  0  0  0  0  0  0
    7.2907   18.6224    3.6508 N   0  0  0  0  0  0  0  0  0  0  0  0
    6.6523   18.6927    4.9092 N   0  0  0  0  0  0  0  0  0  0  0  0
    6.7963   19.7349    5.7792 C   0  0  0  0  0  0  0  0  0  0  0  0
    6.0456   19.4586    6.9020 C   0  0  0  0  0  0  0  0  0  0  0  0
    5.4405   18.1937    6.6995 C   0  0  0  0  0  0  0  0  0  0  0  0
    5.8476   17.7383    5.4625 C   0  0  0  0  0  0  0  0  0  0  0  0
    4.0121   17.7202    3.5461 H   0  0  0  0  0  0  0  0  0  0  0  0
    8.0257   17.9095    3.6558 H   0  0  0  0  0  0  0  0  0  0  0  0
  2  1  1  6  0  0  0
  2  3  1  0  0  0  0
  2  7  1  0  0  0  0
  3  4  2  0  0  0  0
  3  5  1  0  0  0  0
  5  6  1  0  0  0  0
  5 13  1  0  0  0  0
  7  8  1  0  0  0  0
  7 14  1  0  0  0  0
  8  9  1  0  0  0  0
  8 12  1  0  0  0  0
  9 10  2  0  0  0  0
 10 11  1  0  0  0  0
 11 12  2  0  0  0  0
M  END
>  <CHROM.0>
-60.30027776,-63.99364577,-64.13816514,-47.29734900,-59.62662227,-62.72892007
-66.49459790,-60.85539080,-168.07033286

>  <CHROM.1>
45.93947275,177.34125945,-131.16744758,5.98618151,17.79789784,4.05955936
-1.73925901,0.76819333,1.13446991

>  <Name>
P134378955

>  <RI>
4.17015e+07

>  <Rbt.Current_Directory>
/home/fstefaniak/projects/zuza/docking/adenine/4XNR

>  <Rbt.Executable>
rbdock ($Id: //depot/dev/client3/rdock/2013.1/src/exe/rbdock.cxx#4 $)

>  <Rbt.Library>
libRbt.so (2013.1, Build901 2013/11/27)

>  <Rbt.Parameter_File>
/home/fstefaniak/progs/rDock//data/scripts/dock_solv.prm

>  <Rbt.Receptor>
4xnr.prm

>  <SCORE>
-42.5325

>  <SCORE.INTER>
-23.8222

>  <SCORE.INTER.CONST>
1

>  <SCORE.INTER.POLAR>
-1.55559

>  <SCORE.INTER.ROT>
3

>  <SCORE.INTER.SOLV>
13.5539

>  <SCORE.INTER.VDW>
-20.8141

>  <SCORE.INTER.norm>
-1.98519

>  <SCORE.INTRA>
2.20993

>  <SCORE.INTRA.DIHEDRAL>
-0.165175

>  <SCORE.INTRA.DIHEDRAL.0>
3.19132

>  <SCORE.INTRA.POLAR>
0

>  <SCORE.INTRA.POLAR.0>
0

>  <SCORE.INTRA.REPUL>
0

>  <SCORE.INTRA.REPUL.0>
0

>  <SCORE.INTRA.SOLV>
1.02889

>  <SCORE.INTRA.SOLV.lig_0>
-15.864

>  <SCORE.INTRA.VDW>
1.77808

>  <SCORE.INTRA.VDW.0>
-1.3474

>  <SCORE.INTRA.norm>
0.184161

>  <SCORE.RESTR>
0

>  <SCORE.RESTR.CAVITY>
0

>  <SCORE.RESTR.norm>
0

>  <SCORE.SYSTEM>
-20.9202

>  <SCORE.SYSTEM.CONST>
0

>  <SCORE.SYSTEM.DIHEDRAL>
3.89477

>  <SCORE.SYSTEM.POLAR>
-2.97103

>  <SCORE.SYSTEM.SOLV>
0.282675

>  <SCORE.SYSTEM.VDW>
-5.43587

>  <SCORE.SYSTEM.norm>
-1.74335

>  <SCORE.heavy>
12

>  <SCORE.norm>
-3.54438

$$$$
P134378955
 OpenBabel12072022113D
libRbt.so/2013.1/901 2013/11/27
 14 14  0  0  0  0  0  0  0  0999 V2000
    6.6462   18.0774    2.0374 C   0  0  0  0  0  0  0  0  0  0  0  0
    5.9906   17.0377    2.9411 C   0  0  1  0  0  0  0  0  0  0  0  0
    5.7863   17.6430    4.3446 C   0  0  0  0  0  0  0  0  0  0  0  0
    4.7950   17.3971    5.0309 O   0  0  0  0  0  0  0  0  0  0  0  0
    6.7848   18.5059    4.7455 N   0  0  0  0  0  0  0  0  0  0  0  0
    6.7583   19.1090    6.0541 C   0  0  0  0  0  0  0  0  0  0  0  0
    4.6856   16.6558    2.3648 N   0  0  0  0  0  0  0  0  0  0  0  0
    3.9774   15.7881    3.2260 N   0  0  0  0  0  0  0  0  0  0  0  0
    4.5004   14.6411    3.7500 C   0  0  0  0  0  0  0  0  0  0  0  0
    3.5288   14.0464    4.5265 C   0  0  0  0  0  0  0  0  0  0  0  0
    2.3747   14.8646    4.4513 C   0  0  0  0  0  0  0  0  0  0  0  0
    2.6794   15.9277    3.6263 C   0  0  0  0  0  0  0  0  0  0  0  0
    7.6530   18.5246    4.2258 H   0  0  0  0  0  0  0  0  0  0  0  0
    4.1560   17.5168    2.2012 H   0  0  0  0  0  0  0  0  0  0  0  0
  2  1  1  6  0  0  0
  2  3  1  0  0  0  0
  2  7  1  0  0  0  0
  3  4  2  0  0  0  0
  3  5  1  0  0  0  0
  5  6  1  0  0  0  0
  5 13  1  0  0  0  0
  7  8  1  0  0  0  0
  7 14  1  0  0  0  0
  8  9  1  0  0  0  0
  8 12  1  0  0  0  0
  9 10  2  0  0  0  0
 10 11  1  0  0  0  0
 11 12  2  0  0  0  0
M  END
>  <CHROM.0>
-56.33057867,177.86882957,-61.91844330,-46.57068318,-57.49947073,-61.49118658
-66.30842858,-53.58206279,-168.27025013

>  <CHROM.1>
142.97655759,-174.46908336,-52.17433723,4.92999708,16.71834757,3.92792162
-0.26449574,-0.78254885,-1.79239706

>  <Name>
P134378955

>  <RI>
4.17015e+07

>  <Rbt.Current_Directory>
/home/fstefaniak/projects/zuza/docking/adenine/4XNR

>  <Rbt.Executable>
rbdock ($Id: //depot/dev/client3/rdock/2013.1/src/exe/rbdock.cxx#4 $)

>  <Rbt.Library>
libRbt.so (2013.1, Build901 2013/11/27)

>  <Rbt.Parameter_File>
/home/fstefaniak/progs/rDock//data/scripts/dock_solv.prm

>  <Rbt.Receptor>
4xnr.prm

>  <SCORE>
-42.4485

>  <SCORE.INTER>
-25.2724

>  <SCORE.INTER.CONST>
1

>  <SCORE.INTER.POLAR>
-2.11635

>  <SCORE.INTER.ROT>
3

>  <SCORE.INTER.SOLV>
11.7864

>  <SCORE.INTER.VDW>
-19.3226

>  <SCORE.INTER.norm>
-2.10603

>  <SCORE.INTRA>
3.29426

>  <SCORE.INTRA.DIHEDRAL>
-1.00727

>  <SCORE.INTRA.DIHEDRAL.0>
3.19132

>  <SCORE.INTRA.POLAR>
0

>  <SCORE.INTRA.POLAR.0>
0

>  <SCORE.INTRA.REPUL>
0

>  <SCORE.INTRA.REPUL.0>
0

>  <SCORE.INTRA.SOLV>
0.690813

>  <SCORE.INTRA.SOLV.lig_0>
-15.864

>  <SCORE.INTRA.VDW>
3.45249

>  <SCORE.INTRA.VDW.0>
-1.3474

>  <SCORE.INTRA.norm>
0.274522

>  <SCORE.RESTR>
0

>  <SCORE.RESTR.CAVITY>
0

>  <SCORE.RESTR.norm>
0

>  <SCORE.SYSTEM>
-20.4703

>  <SCORE.SYSTEM.CONST>
0

>  <SCORE.SYSTEM.DIHEDRAL>
4.07852

>  <SCORE.SYSTEM.POLAR>
-3.03102

>  <SCORE.SYSTEM.SOLV>
0.294126

>  <SCORE.SYSTEM.VDW>
-5.00103

>  <SCORE.SYSTEM.norm>
-1.70586

>  <SCORE.heavy>
12

>  <SCORE.norm>
-3.53737

$$$$
P134486215
 OpenBabel12072022113D
libRbt.so/2013.1/901 2013/11/27
  9  8  0  0  0  0  0  0  0  0999 V2000
    4.8056   16.9790    3.7612 C   0  0  0  0  0  0  0  0  0  0  0  0
    6.0504   17.6918    4.2905 C   0  0  1  0  0  0  0  0  0  0  0  0
    6.7372   18.4173    3.1448 C   0  0  0  0  0  0  0  0  0  0  0  0
    7.3069   19.0191    2.1944 N   0  0  0  0  0  0  0  0  0  0  0  0
    5.7139   18.6968    5.3999 C   0  0  2  0  0  0  0  0  0  0  0  0
    6.8875   19.6312    5.6822 C   0  0  0  0  0  0  0  0  0  0  0  0
    8.0556   19.2528    5.6147 O   0  0  0  0  0  0  0  0  0  0  0  0
    5.3770   17.9948    6.5992 O   0  0  0  0  0  0  0  0  0  0  0  0
    6.2051   17.5858    6.9298 H   0  0  0  0  0  0  0  0  0  0  0  0
  2  1  1  6  0  0  0
  2  3  1  0  0  0  0
  3  4  3  0  0  0  0
  5  6  1  1  0  0  0
  5  8  1  0  0  0  0
  5  2  1  0  0  0  0
  6  7  2  0  0  0  0
  8  9  1  0  0  0  0
M  END
>  <CHROM.0>
-57.99227305,-175.91350813,-68.36965668,-52.23308033,-61.83120088,-63.00434702
-65.85878059,-60.44207514,-168.38382059

>  <CHROM.1>
-35.16718136,69.78158299,-166.27928186,6.36084015,18.44002770,4.66417426
1.35923054,-0.64759974,-1.73309043

>  <Name>
P134486215

>  <RI>
3.1908e+07

>  <Rbt.Current_Directory>
/home/fstefaniak/projects/zuza/docking/adenine/4XNR

>  <Rbt.Executable>
rbdock ($Id: //depot/dev/client3/rdock/2013.1/src/exe/rbdock.cxx#4 $)

>  <Rbt.Library>
libRbt.so (2013.1, Build901 2013/11/27)

>  <Rbt.Parameter_File>
/home/fstefaniak/progs/rDock//data/scripts/dock_solv.prm

>  <Rbt.Receptor>
4xnr.prm

>  <SCORE>
-51.0308

>  <SCORE.INTER>
-28.8255

>  <SCORE.INTER.CONST>
1

>  <SCORE.INTER.POLAR>
-3.69534

>  <SCORE.INTER.ROT>
2

>  <SCORE.INTER.SOLV>
10.6899

>  <SCORE.INTER.VDW>
-15.3958

>  <SCORE.INTER.norm>
-3.60318

>  <SCORE.INTRA>
-1.52681

>  <SCORE.INTRA.DIHEDRAL>
-2.07671

>  <SCORE.INTRA.DIHEDRAL.0>
5.3869

>  <SCORE.INTRA.POLAR>
0

>  <SCORE.INTRA.POLAR.0>
0

>  <SCORE.INTRA.REPUL>
0

>  <SCORE.INTRA.REPUL.0>
0

>  <SCORE.INTRA.SOLV>
0.221053

>  <SCORE.INTRA.SOLV.lig_0>
-11.8403

>  <SCORE.INTRA.VDW>
-0.59898

>  <SCORE.INTRA.VDW.0>
1.05287

>  <SCORE.INTRA.norm>
-0.190851

>  <SCORE.RESTR>
0

>  <SCORE.RESTR.CAVITY>
0

>  <SCORE.RESTR.norm>
0

>  <SCORE.SYSTEM>
-20.6785

>  <SCORE.SYSTEM.CONST>
0

>  <SCORE.SYSTEM.DIHEDRAL>
3.64439

>  <SCORE.SYSTEM.POLAR>
-2.89162

>  <SCORE.SYSTEM.SOLV>
0.246236

>  <SCORE.SYSTEM.VDW>
-5.44379

>  <SCORE.SYSTEM.norm>
-2.58481

>  <SCORE.heavy>
8

>  <SCORE.norm>
-6.37885

$$$$
P134486215
 OpenBabel12072022113D
libRbt.so/2013.1/901 2013/11/27
  9  8  0  0  0  0  0  0  0  0999 V2000
    4.7549   16.9841    3.8476 C   0  0  0  0  0  0  0  0  0  0  0  0
    6.0251   17.6584    4.3666 C   0  0  1  0  0  0  0  0  0  0  0  0
    6.7412   18.3357    3.2094 C   0  0  0  0  0  0  0  0  0  0  0  0
    7.3353   18.8976    2.2496 N   0  0  0  0  0  0  0  0  0  0  0  0
    5.7255   18.6959    5.4565 C   0  0  2  0  0  0  0  0  0  0  0  0
    6.9249   19.6065    5.7061 C   0  0  0  0  0  0  0  0  0  0  0  0
    8.0789   19.1815    5.7107 O   0  0  0  0  0  0  0  0  0  0  0  0
    5.3838   18.0294    6.6746 O   0  0  0  0  0  0  0  0  0  0  0  0
    6.1906   17.5600    6.9762 H   0  0  0  0  0  0  0  0  0  0  0  0
  2  1  1  6  0  0  0
  2  3  1  0  0  0  0
  3  4  3  0  0  0  0
  5  6  1  1  0  0  0
  5  8  1  0  0  0  0
  5  2  1  0  0  0  0
  6  7  2  0  0  0  0
  8  9  1  0  0  0  0
M  END
>  <CHROM.0>
-60.09418687,-168.63772986,-68.10018980,-48.67282211,-177.48914957,-61.68711106
-68.87092216,60.67749381,-167.88643185

>  <CHROM.1>
-39.40131010,66.26916287,-165.21952435,6.36490617,18.40479316,4.73203459
1.40322237,-0.61492782,-1.74614183

>  <Name>
P134486215

>  <RI>
3.1908e+07

>  <Rbt.Current_Directory>
/home/fstefaniak/projects/zuza/docking/adenine/4XNR

>  <Rbt.Executable>
rbdock ($Id: //depot/dev/client3/rdock/2013.1/src/exe/rbdock.cxx#4 $)

>  <Rbt.Library>
libRbt.so (2013.1, Build901 2013/11/27)

>  <Rbt.Parameter_File>
/home/fstefaniak/progs/rDock//data/scripts/dock_solv.prm

>  <Rbt.Receptor>
4xnr.prm

>  <SCORE>
-50.2061

>  <SCORE.INTER>
-29.0539

>  <SCORE.INTER.CONST>
1

>  <SCORE.INTER.POLAR>
-3.77859

>  <SCORE.INTER.ROT>
2

>  <SCORE.INTER.SOLV>
10.6375

>  <SCORE.INTER.VDW>
-15.2532

>  <SCORE.INTER.norm>
-3.63174

>  <SCORE.INTRA>
-1.53344

>  <SCORE.INTRA.DIHEDRAL>
-1.97511

>  <SCORE.INTRA.DIHEDRAL.0>
5.3869

>  <SCORE.INTRA.POLAR>
0

>  <SCORE.INTRA.POLAR.0>
0

>  <SCORE.INTRA.REPUL>
0

>  <SCORE.INTRA.REPUL.0>
0

>  <SCORE.INTRA.SOLV>
0.212167

>  <SCORE.INTRA.SOLV.lig_0>
-11.8403

>  <SCORE.INTRA.VDW>
-0.651966

>  <SCORE.INTRA.VDW.0>
1.05287

>  <SCORE.INTRA.norm>
-0.19168

>  <SCORE.RESTR>
0

>  <SCORE.RESTR.CAVITY>
0

>  <SCORE.RESTR.norm>
0

>  <SCORE.SYSTEM>
-19.6187

>  <SCORE.SYSTEM.CONST>
0

>  <SCORE.SYSTEM.DIHEDRAL>
4.67802

>  <SCORE.SYSTEM.POLAR>
-2.94343

>  <SCORE.SYSTEM.SOLV>
-0.10481

>  <SCORE.SYSTEM.VDW>
-4.79208

>  <SCORE.SYSTEM.norm>
-2.45234

>  <SCORE.heavy>
8

>  <SCORE.norm>
-6.27576

$$$$
P134486215
 OpenBabel12072022113D
libRbt.so/2013.1/901 2013/11/27
  9  8  0  0  0  0  0  0  0  0999 V2000
    4.7441   17.0681    3.8194 C   0  0  0  0  0  0  0  0  0  0  0  0
    6.0222   17.6883    4.3845 C   0  0  1  0  0  0  0  0  0  0  0  0
    6.7949   18.3564    3.2587 C   0  0  0  0  0  0  0  0  0  0  0  0
    7.4358   18.9106    2.3249 N   0  0  0  0  0  0  0  0  0  0  0  0
    5.7288   18.7197    5.4818 C   0  0  2  0  0  0  0  0  0  0  0  0
    6.9289   19.6300    5.7285 C   0  0  0  0  0  0  0  0  0  0  0  0
    8.0838   19.2075    5.7157 O   0  0  0  0  0  0  0  0  0  0  0  0
    5.3955   18.0463    6.6985 O   0  0  0  0  0  0  0  0  0  0  0  0
    6.2062   17.5807    6.9954 H   0  0  0  0  0  0  0  0  0  0  0  0
  2  1  1  6  0  0  0
  2  3  1  0  0  0  0
  3  4  3  0  0  0  0
  5  6  1  1  0  0  0
  5  8  1  0  0  0  0
  5  2  1  0  0  0  0
  6  7  2  0  0  0  0
  8  9  1  0  0  0  0
M  END
>  <CHROM.0>
-59.31760687,-171.22107060,-66.31498220,-47.91440520,-57.99381051,56.58903186
-65.29754193,-60.47448204,-168.24131694

>  <CHROM.1>
-38.97010270,66.62183955,-162.26114327,6.38459562,18.43492328,4.75466649
1.35284113,-0.59665634,-1.75562331

>  <Name>
P134486215

>  <RI>
3.1908e+07

>  <Rbt.Current_Directory>
/home/fstefaniak/projects/zuza/docking/adenine/4XNR

>  <Rbt.Executable>
rbdock ($Id: //depot/dev/client3/rdock/2013.1/src/exe/rbdock.cxx#4 $)

>  <Rbt.Library>
libRbt.so (2013.1, Build901 2013/11/27)

>  <Rbt.Parameter_File>
/home/fstefaniak/progs/rDock//data/scripts/dock_solv.prm

>  <Rbt.Receptor>
4xnr.prm

>  <SCORE>
-50.1204

>  <SCORE.INTER>
-29.2981

>  <SCORE.INTER.CONST>
1

>  <SCORE.INTER.POLAR>
-3.88155

>  <SCORE.INTER.ROT>
2

>  <SCORE.INTER.SOLV>
10.7133

>  <SCORE.INTER.VDW>
-15.098

>  <SCORE.INTER.norm>
-3.66226

>  <SCORE.INTRA>
-1.26192

>  <SCORE.INTRA.DIHEDRAL>
-1.71142

>  <SCORE.INTRA.DIHEDRAL.0>
5.3869

>  <SCORE.INTRA.POLAR>
0

>  <SCORE.INTRA.POLAR.0>
0

>  <SCORE.INTRA.REPUL>
0

>  <SCORE.INTRA.REPUL.0>
0

>  <SCORE.INTRA.SOLV>
0.238621

>  <SCORE.INTRA.SOLV.lig_0>
-11.8403

>  <SCORE.INTRA.VDW>
-0.52552

>  <SCORE.INTRA.VDW.0>
1.05287

>  <SCORE.INTRA.norm>
-0.15774

>  <SCORE.RESTR>
0

>  <SCORE.RESTR.CAVITY>
0

>  <SCORE.RESTR.norm>
0

>  <SCORE.SYSTEM>
-19.5604

>  <SCORE.SYSTEM.CONST>
0

>  <SCORE.SYSTEM.DIHEDRAL>
4.17276

>  <SCORE.SYSTEM.POLAR>
-2.96505

>  <SCORE.SYSTEM.SOLV>
0.13376

>  <SCORE.SYSTEM.VDW>
-4.59226

>  <SCORE.SYSTEM.norm>
-2.44505

>  <SCORE.heavy>
8

>  <SCORE.norm>
-6.26505

$$$$
P134619762
 OpenBabel12072022113D
libRbt.so/2013.1/901 2013/11/27
 13 13  0  0  0  0  0  0  0  0999 V2000
    0.8282   13.4330    3.7813 C   0  0  0  0  0  0  0  0  0  0  0  0
    2.0605   14.1422    4.0823 N   0  0  0  0  0  0  0  0  0  0  0  0
    2.9589   13.4681    5.0102 C   0  0  0  0  0  0  0  0  0  0  0  0
    2.0925   15.5040    3.8038 C   0  0  0  0  0  0  0  0  0  0  0  0
    1.1225   16.1173    3.3630 O   0  0  0  0  0  0  0  0  0  0  0  0
    3.2962   16.1199    4.0555 N   0  0  0  0  0  0  0  0  0  0  0  0
    4.3331   16.1644    3.0664 C   0  0  2  0  0  0  0  0  0  0  0  0
    5.6855   16.7378    3.3909 C   0  0  0  0  0  0  0  0  0  0  0  0
    4.7744   17.4754    2.4573 C   0  0  1  0  0  0  0  0  0  0  0  0
    5.1035   17.5535    1.0351 N   0  0  0  0  0  0  0  0  0  0  0  0
    3.5898   16.1164    5.0201 H   0  0  0  0  0  0  0  0  0  0  0  0
    5.2683   18.5168    0.7427 H   0  0  0  0  0  0  0  0  0  0  0  0
    4.3248   17.2202    0.4671 H   0  0  0  0  0  0  0  0  0  0  0  0
  1  2  1  0  0  0  0
  2  3  1  0  0  0  0
  2  4  1  0  0  0  0
  4  5  2  0  0  0  0
  4  6  1  0  0  0  0
  6 11  1  0  0  0  0
  7  8  1  0  0  0  0
  7  9  1  0  0  0  0
  7  6  1  1  0  0  0
  8  9  1  0  0  0  0
  9 10  1  6  0  0  0
 10 12  1  0  0  0  0
 10 13  1  0  0  0  0
M  END
>  <CHROM.0>
-58.56910193,-63.98763147,-67.70705289,-48.47586266,-59.89809885,-63.19829655
-69.02220369,-59.85340872,-167.13206867

>  <CHROM.1>
87.44333661,-174.80943318,172.77347112,3.19961644,15.66657619,3.39348525
2.32736734,0.17608943,2.42447860

>  <Name>
P134619762

>  <RI>
3.02409e+07

>  <Rbt.Current_Directory>
/home/fstefaniak/projects/zuza/docking/adenine/4XNR

>  <Rbt.Executable>
rbdock ($Id: //depot/dev/client3/rdock/2013.1/src/exe/rbdock.cxx#4 $)

>  <Rbt.Library>
libRbt.so (2013.1, Build901 2013/11/27)

>  <Rbt.Parameter_File>
/home/fstefaniak/progs/rDock//data/scripts/dock_solv.prm

>  <Rbt.Receptor>
4xnr.prm

>  <SCORE>
-50.5793

>  <SCORE.INTER>
-28.8904

>  <SCORE.INTER.CONST>
1

>  <SCORE.INTER.POLAR>
-4.02886

>  <SCORE.INTER.ROT>
3

>  <SCORE.INTER.SOLV>
10.9134

>  <SCORE.INTER.VDW>
-15.0685

>  <SCORE.INTER.norm>
-2.88904

>  <SCORE.INTRA>
-0.791317

>  <SCORE.INTRA.DIHEDRAL>
0.262812

>  <SCORE.INTRA.DIHEDRAL.0>
2.97979

>  <SCORE.INTRA.POLAR>
0

>  <SCORE.INTRA.POLAR.0>
0

>  <SCORE.INTRA.REPUL>
0

>  <SCORE.INTRA.REPUL.0>
0

>  <SCORE.INTRA.SOLV>
-0.115375

>  <SCORE.INTRA.SOLV.lig_0>
-14.5147

>  <SCORE.INTRA.VDW>
-0.865036

>  <SCORE.INTRA.VDW.0>
-0.216234

>  <SCORE.INTRA.norm>
-0.0791317

>  <SCORE.RESTR>
0

>  <SCORE.RESTR.CAVITY>
0

>  <SCORE.RESTR.norm>
0

>  <SCORE.SYSTEM>
-20.8976

>  <SCORE.SYSTEM.CONST>
0

>  <SCORE.SYSTEM.DIHEDRAL>
4.24615

>  <SCORE.SYSTEM.POLAR>
-2.95654

>  <SCORE.SYSTEM.SOLV>
0.270043

>  <SCORE.SYSTEM.VDW>
-5.58199

>  <SCORE.SYSTEM.norm>
-2.08976

>  <SCORE.heavy>
10

>  <SCORE.norm>
-5.05793

$$$$
P134619762
 OpenBabel12072022113D
libRbt.so/2013.1/901 2013/11/27
 13 13  0  0  0  0  0  0  0  0999 V2000
    6.7104   18.2820    3.3858 C   0  0  0  0  0  0  0  0  0  0  0  0
    5.5887   17.7030    4.1058 N   0  0  0  0  0  0  0  0  0  0  0  0
    5.5284   18.0182    5.5270 C   0  0  0  0  0  0  0  0  0  0  0  0
    4.9388   16.6285    3.5090 C   0  0  0  0  0  0  0  0  0  0  0  0
    5.3014   16.1399    2.4408 O   0  0  0  0  0  0  0  0  0  0  0  0
    3.8518   16.1496    4.2023 N   0  0  0  0  0  0  0  0  0  0  0  0
    2.5730   15.9967    3.5724 C   0  0  2  0  0  0  0  0  0  0  0  0
    1.3015   16.1193    4.3668 C   0  0  0  0  0  0  0  0  0  0  0  0
    1.7147   14.7807    3.8348 C   0  0  1  0  0  0  0  0  0  0  0  0
    0.9540   14.1669    2.7477 N   0  0  0  0  0  0  0  0  0  0  0  0
    3.8492   16.3467    5.1912 H   0  0  0  0  0  0  0  0  0  0  0  0
    0.0488   14.6204    2.6234 H   0  0  0  0  0  0  0  0  0  0  0  0
    0.7490   13.1906    2.9590 H   0  0  0  0  0  0  0  0  0  0  0  0
  1  2  1  0  0  0  0
  2  3  1  0  0  0  0
  2  4  1  0  0  0  0
  4  5  2  0  0  0  0
  4  6  1  0  0  0  0
  6 11  1  0  0  0  0
  7  8  1  0  0  0  0
  7  9  1  0  0  0  0
  7  6  1  1  0  0  0
  8  9  1  0  0  0  0
  9 10  1  6  0  0  0
 10 12  1  0  0  0  0
 10 13  1  0  0  0  0
M  END
>  <CHROM.0>
-62.54838316,-58.44029747,-63.97373254,-46.39138700,61.26007086,-65.65602769
-66.97857688,-57.27601938,-167.26391472

>  <CHROM.1>
127.22057218,-150.64590085,-85.77392812,3.85857967,16.39526707,3.76145998
-0.37859109,-0.42565074,-2.15278555

>  <Name>
P134619762

>  <RI>
3.02409e+07

>  <Rbt.Current_Directory>
/home/fstefaniak/projects/zuza/docking/adenine/4XNR

>  <Rbt.Executable>
rbdock ($Id: //depot/dev/client3/rdock/2013.1/src/exe/rbdock.cxx#4 $)

>  <Rbt.Library>
libRbt.so (2013.1, Build901 2013/11/27)

>  <Rbt.Parameter_File>
/home/fstefaniak/progs/rDock//data/scripts/dock_solv.prm

>  <Rbt.Receptor>
4xnr.prm

>  <SCORE>
-49.0888

>  <SCORE.INTER>
-30.0211

>  <SCORE.INTER.CONST>
1

>  <SCORE.INTER.POLAR>
-3.9148

>  <SCORE.INTER.ROT>
3

>  <SCORE.INTER.SOLV>
9.90847

>  <SCORE.INTER.VDW>
-15.8676

>  <SCORE.INTER.norm>
-3.00211

>  <SCORE.INTRA>
0.731106

>  <SCORE.INTRA.DIHEDRAL>
-0.151737

>  <SCORE.INTRA.DIHEDRAL.0>
2.97979

>  <SCORE.INTRA.POLAR>
0

>  <SCORE.INTRA.POLAR.0>
0

>  <SCORE.INTRA.REPUL>
0

>  <SCORE.INTRA.REPUL.0>
0

>  <SCORE.INTRA.SOLV>
-0.119626

>  <SCORE.INTRA.SOLV.lig_0>
-14.5147

>  <SCORE.INTRA.VDW>
0.866787

>  <SCORE.INTRA.VDW.0>
-0.216234

>  <SCORE.INTRA.norm>
0.0731106

>  <SCORE.RESTR>
0

>  <SCORE.RESTR.CAVITY>
0

>  <SCORE.RESTR.norm>
0

>  <SCORE.SYSTEM>
-19.7988

>  <SCORE.SYSTEM.CONST>
0

>  <SCORE.SYSTEM.DIHEDRAL>
4.21938

>  <SCORE.SYSTEM.POLAR>
-2.97889

>  <SCORE.SYSTEM.SOLV>
0.0735033

>  <SCORE.SYSTEM.VDW>
-4.70051

>  <SCORE.SYSTEM.norm>
-1.97988

>  <SCORE.heavy>
10

>  <SCORE.norm>
-4.90888

$$$$
P134619762
 OpenBabel12072022113D
libRbt.so/2013.1/901 2013/11/27
 13 13  0  0  0  0  0  0  0  0999 V2000
    6.5353   18.3820    3.2611 C   0  0  0  0  0  0  0  0  0  0  0  0
    5.5606   17.6533    4.0555 N   0  0  0  0  0  0  0  0  0  0  0  0
    5.5308   17.9912    5.4724 C   0  0  0  0  0  0  0  0  0  0  0  0
    5.0556   16.4758    3.5158 C   0  0  0  0  0  0  0  0  0  0  0  0
    5.4305   16.0227    2.4361 O   0  0  0  0  0  0  0  0  0  0  0  0
    4.0979   15.8508    4.2797 N   0  0  0  0  0  0  0  0  0  0  0  0
    2.8619   15.4032    3.7077 C   0  0  2  0  0  0  0  0  0  0  0  0
    1.6087   16.2252    3.8373 C   0  0  0  0  0  0  0  0  0  0  0  0
    1.7236   14.9301    4.5824 C   0  0  1  0  0  0  0  0  0  0  0  0
    0.9087   13.7862    4.1769 N   0  0  0  0  0  0  0  0  0  0  0  0
    4.0763   16.1207    5.2511 H   0  0  0  0  0  0  0  0  0  0  0  0
   -0.0434   14.0698    3.9454 H   0  0  0  0  0  0  0  0  0  0  0  0
    0.8212   13.1178    4.9421 H   0  0  0  0  0  0  0  0  0  0  0  0
  1  2  1  0  0  0  0
  2  3  1  0  0  0  0
  2  4  1  0  0  0  0
  4  5  2  0  0  0  0
  4  6  1  0  0  0  0
  6 11  1  0  0  0  0
  7  8  1  0  0  0  0
  7  9  1  0  0  0  0
  7  6  1  1  0  0  0
  8  9  1  0  0  0  0
  9 10  1  6  0  0  0
 10 12  1  0  0  0  0
 10 13  1  0  0  0  0
M  END
>  <CHROM.0>
-57.84010060,-60.10614683,-73.39081443,-46.93320818,-59.38841043,-59.28910022
-172.37410246,-174.66233085,-168.60068153

>  <CHROM.1>
131.48377435,-98.82413671,-111.92691547,3.94017162,16.26969698,3.93724718
-0.28415884,-0.53185817,-2.20548297

>  <Name>
P134619762

>  <RI>
3.02409e+07

>  <Rbt.Current_Directory>
/home/fstefaniak/projects/zuza/docking/adenine/4XNR

>  <Rbt.Executable>
rbdock ($Id: //depot/dev/client3/rdock/2013.1/src/exe/rbdock.cxx#4 $)

>  <Rbt.Library>
libRbt.so (2013.1, Build901 2013/11/27)

>  <Rbt.Parameter_File>
/home/fstefaniak/progs/rDock//data/scripts/dock_solv.prm

>  <Rbt.Receptor>
4xnr.prm

>  <SCORE>
-48.5352

>  <SCORE.INTER>
-29.012

>  <SCORE.INTER.CONST>
1

>  <SCORE.INTER.POLAR>
-3.62155

>  <SCORE.INTER.ROT>
3

>  <SCORE.INTER.SOLV>
10.2743

>  <SCORE.INTER.VDW>
-16.2942

>  <SCORE.INTER.norm>
-2.9012

>  <SCORE.INTRA>
0.645238

>  <SCORE.INTRA.DIHEDRAL>
-0.285813

>  <SCORE.INTRA.DIHEDRAL.0>
2.97979

>  <SCORE.INTRA.POLAR>
0

>  <SCORE.INTRA.POLAR.0>
0

>  <SCORE.INTRA.REPUL>
0

>  <SCORE.INTRA.REPUL.0>
0

>  <SCORE.INTRA.SOLV>
-0.0773458

>  <SCORE.INTRA.SOLV.lig_0>
-14.5147

>  <SCORE.INTRA.VDW>
0.826817

>  <SCORE.INTRA.VDW.0>
-0.216234

>  <SCORE.INTRA.norm>
0.0645238

>  <SCORE.RESTR>
0

>  <SCORE.RESTR.CAVITY>
0

>  <SCORE.RESTR.norm>
0

>  <SCORE.SYSTEM>
-20.1685

>  <SCORE.SYSTEM.CONST>
0

>  <SCORE.SYSTEM.DIHEDRAL>
4.70157

>  <SCORE.SYSTEM.POLAR>
-2.96167

>  <SCORE.SYSTEM.SOLV>
0.100217

>  <SCORE.SYSTEM.VDW>
-5.17403

>  <SCORE.SYSTEM.norm>
-2.01685

>  <SCORE.heavy>
10

>  <SCORE.norm>
-4.85352

$$$$
P134782587
 OpenBabel12072022113D
libRbt.so/2013.1/901 2013/11/27
 18 18  0  0  0  0  0  0  0  0999 V2000
    5.4866   18.0611    4.1869 C   0  0  0  0  0  0  0  0  0  0  0  0
    6.6591   18.4655    3.2859 C   0  0  0  0  0  0  0  0  0  0  0  0
    6.4127   17.7383    1.9754 C   0  0  1  0  0  0  0  0  0  0  0  0
    4.8978   17.7138    1.8603 C   0  0  0  0  0  0  0  0  0  0  0  0
    4.4526   17.3606    3.2869 C   0  0  1  0  0  0  0  0  0  0  0  0
    4.4725   15.8497    3.5145 C   0  0  0  0  0  0  0  0  0  0  0  0
    5.5384   15.2287    3.4971 O   0  0  0  0  0  0  0  0  0  0  0  0
    3.3069   15.1875    3.8068 N   0  0  0  0  0  0  0  0  0  0  0  0
    2.0661   15.7047    4.0798 C   0  0  0  0  0  0  0  0  0  0  0  0
    1.7549   16.8857    4.0568 O   0  0  0  0  0  0  0  0  0  0  0  0
    1.1603   14.7509    4.4264 N   0  0  0  0  0  0  0  0  0  0  0  0
    7.0190   18.4632    0.8431 N   0  3  0  0  0  0  0  0  0  0  0  0
    6.9984   17.9192   -0.0295 H   0  0  0  0  0  0  0  0  0  0  0  0
    6.5297   19.3507    0.6674 H   0  0  0  0  0  0  0  0  0  0  0  0
    8.0014   18.6956    1.0420 H   0  0  0  0  0  0  0  0  0  0  0  0
    3.4323   14.2054    3.9995 H   0  0  0  0  0  0  0  0  0  0  0  0
    0.2554   14.7283    3.9764 H   0  0  0  0  0  0  0  0  0  0  0  0
    1.1299   14.5546    5.4222 H   0  0  0  0  0  0  0  0  0  0  0  0
  1  2  1  0  0  0  0
  1  5  1  0  0  0  0
  2  3  1  0  0  0  0
  3  4  1  0  0  0  0
  3 12  1  6  0  0  0
  4  5  1  0  0  0  0
  5  6  1  6  0  0  0
  6  7  2  0  0  0  0
  6  8  1  0  0  0  0
  8  9  1  0  0  0  0
  8 16  1  0  0  0  0
  9 10  2  0  0  0  0
  9 11  1  0  0  0  0
 11 17  1  0  0  0  0
 11 18  1  0  0  0  0
 12 13  1  0  0  0  0
 12 14  1  0  0  0  0
 12 15  1  0  0  0  0
M  CHG  1  12   1
M  END
>  <CHROM.0>
-58.70485616,-63.93648594,-176.68713363,-47.29468882,-57.56415407,-64.25063231
178.52950584,-177.90776405,-168.12255218

>  <CHROM.1>
170.76530217,-49.60073130,-130.52061082,4.43179064,16.77500040,3.21603048
0.59142135,0.29264480,-0.26764692

>  <Name>
P134782587

>  <RI>
3.58524e+07

>  <Rbt.Current_Directory>
/home/fstefaniak/projects/zuza/docking/adenine/4XNR

>  <Rbt.Executable>
rbdock ($Id: //depot/dev/client3/rdock/2013.1/src/exe/rbdock.cxx#4 $)

>  <Rbt.Library>
libRbt.so (2013.1, Build901 2013/11/27)

>  <Rbt.Parameter_File>
/home/fstefaniak/progs/rDock//data/scripts/dock_solv.prm

>  <Rbt.Receptor>
4xnr.prm

>  <SCORE>
-49.4724

>  <SCORE.INTER>
-31.3804

>  <SCORE.INTER.CONST>
1

>  <SCORE.INTER.POLAR>
-4.83805

>  <SCORE.INTER.ROT>
2

>  <SCORE.INTER.SOLV>
23.4199

>  <SCORE.INTER.VDW>
-17.5334

>  <SCORE.INTER.norm>
-2.61503

>  <SCORE.INTRA>
0.806368

>  <SCORE.INTRA.DIHEDRAL>
2.68375

>  <SCORE.INTRA.DIHEDRAL.0>
1.79452

>  <SCORE.INTRA.POLAR>
0

>  <SCORE.INTRA.POLAR.0>
0

>  <SCORE.INTRA.REPUL>
0

>  <SCORE.INTRA.REPUL.0>
0

>  <SCORE.INTRA.SOLV>
-0.165214

>  <SCORE.INTRA.SOLV.lig_0>
-40.1875

>  <SCORE.INTRA.VDW>
-0.452898

>  <SCORE.INTRA.VDW.0>
-0.318058

>  <SCORE.INTRA.norm>
0.0671973

>  <SCORE.RESTR>
0

>  <SCORE.RESTR.CAVITY>
0

>  <SCORE.RESTR.norm>
0

>  <SCORE.SYSTEM>
-18.8984

>  <SCORE.SYSTEM.CONST>
0

>  <SCORE.SYSTEM.DIHEDRAL>
3.77648

>  <SCORE.SYSTEM.POLAR>
-2.51431

>  <SCORE.SYSTEM.SOLV>
0.0457992

>  <SCORE.SYSTEM.VDW>
-5.49198

>  <SCORE.SYSTEM.norm>
-1.57487

>  <SCORE.heavy>
12

>  <SCORE.norm>
-4.1227

$$$$
P134782587
 OpenBabel12072022113D
libRbt.so/2013.1/901 2013/11/27
 18 18  0  0  0  0  0  0  0  0999 V2000
    5.7739   17.8951    4.2885 C   0  0  0  0  0  0  0  0  0  0  0  0
    6.8749   18.2908    3.2979 C   0  0  0  0  0  0  0  0  0  0  0  0
    6.4468   17.6801    1.9747 C   0  0  1  0  0  0  0  0  0  0  0  0
    4.9301   17.7598    2.0191 C   0  0  0  0  0  0  0  0  0  0  0  0
    4.6075   17.3302    3.4577 C   0  0  1  0  0  0  0  0  0  0  0  0
    4.5438   15.8083    3.5793 C   0  0  0  0  0  0  0  0  0  0  0  0
    5.5757   15.1336    3.5326 O   0  0  0  0  0  0  0  0  0  0  0  0
    3.3402   15.1912    3.8093 N   0  0  0  0  0  0  0  0  0  0  0  0
    2.1239   15.7542    4.1014 C   0  0  0  0  0  0  0  0  0  0  0  0
    1.8759   16.9490    4.1569 O   0  0  0  0  0  0  0  0  0  0  0  0
    1.1634   14.8289    4.3685 N   0  0  0  0  0  0  0  0  0  0  0  0
    6.9851   18.4477    0.8362 N   0  3  0  0  0  0  0  0  0  0  0  0
    6.4834   19.3327    0.6851 H   0  0  0  0  0  0  0  0  0  0  0  0
    7.9783   18.6741    0.9792 H   0  0  0  0  0  0  0  0  0  0  0  0
    6.9233   17.9022   -0.0341 H   0  0  0  0  0  0  0  0  0  0  0  0
    3.4103   14.1927    3.9344 H   0  0  0  0  0  0  0  0  0  0  0  0
    0.3326   14.7849    3.7943 H   0  0  0  0  0  0  0  0  0  0  0  0
    0.9868   14.6931    5.3592 H   0  0  0  0  0  0  0  0  0  0  0  0
  1  2  1  0  0  0  0
  1  5  1  0  0  0  0
  2  3  1  0  0  0  0
  3  4  1  0  0  0  0
  3 12  1  6  0  0  0
  4  5  1  0  0  0  0
  5  6  1  6  0  0  0
  6  7  2  0  0  0  0
  6  8  1  0  0  0  0
  8  9  1  0  0  0  0
  8 16  1  0  0  0  0
  9 10  2  0  0  0  0
  9 11  1  0  0  0  0
 11 17  1  0  0  0  0
 11 18  1  0  0  0  0
 12 13  1  0  0  0  0
 12 14  1  0  0  0  0
 12 15  1  0  0  0  0
M  CHG  1  12   1
M  END
>  <CHROM.0>
-56.07898646,-61.78384963,-71.77749831,-46.13940187,-54.28347064,-175.27072924
-170.32095173,-172.21868381,-167.96595494

>  <CHROM.1>
-75.30311662,-42.75185426,-119.73200060,4.51223536,16.74802591,3.26252496
-0.60376675,-0.20057058,2.74149835

>  <Name>
P134782587

>  <RI>
3.58524e+07

>  <Rbt.Current_Directory>
/home/fstefaniak/projects/zuza/docking/adenine/4XNR

>  <Rbt.Executable>
rbdock ($Id: //depot/dev/client3/rdock/2013.1/src/exe/rbdock.cxx#4 $)

>  <Rbt.Library>
libRbt.so (2013.1, Build901 2013/11/27)

>  <Rbt.Parameter_File>
/home/fstefaniak/progs/rDock//data/scripts/dock_solv.prm

>  <Rbt.Receptor>
4xnr.prm

>  <SCORE>
-48.9625

>  <SCORE.INTER>
-29.9068

>  <SCORE.INTER.CONST>
1

>  <SCORE.INTER.POLAR>
-4.94201

>  <SCORE.INTER.ROT>
2

>  <SCORE.INTER.SOLV>
23.4479

>  <SCORE.INTER.VDW>
-16.2138

>  <SCORE.INTER.norm>
-2.49223

>  <SCORE.INTRA>
0.871794

>  <SCORE.INTRA.DIHEDRAL>
2.70351

>  <SCORE.INTRA.DIHEDRAL.0>
1.79452

>  <SCORE.INTRA.POLAR>
0

>  <SCORE.INTRA.POLAR.0>
0

>  <SCORE.INTRA.REPUL>
0

>  <SCORE.INTRA.REPUL.0>
0

>  <SCORE.INTRA.SOLV>
-0.187517

>  <SCORE.INTRA.SOLV.lig_0>
-40.1875

>  <SCORE.INTRA.VDW>
-0.386202

>  <SCORE.INTRA.VDW.0>
-0.318058

>  <SCORE.INTRA.norm>
0.0726495

>  <SCORE.RESTR>
0

>  <SCORE.RESTR.CAVITY>
0

>  <SCORE.RESTR.norm>
0

>  <SCORE.SYSTEM>
-19.9276

>  <SCORE.SYSTEM.CONST>
0

>  <SCORE.SYSTEM.DIHEDRAL>
5.29439

>  <SCORE.SYSTEM.POLAR>
-3.01693

>  <SCORE.SYSTEM.SOLV>
-0.00345411

>  <SCORE.SYSTEM.VDW>
-4.99225

>  <SCORE.SYSTEM.norm>
-1.66063

>  <SCORE.heavy>
12

>  <SCORE.norm>
-4.08021

$$$$
P134782587
 OpenBabel12072022113D
libRbt.so/2013.1/901 2013/11/27
 18 18  0  0  0  0  0  0  0  0999 V2000
    5.5134   18.1077    4.2887 C   0  0  0  0  0  0  0  0  0  0  0  0
    6.6547   18.4675    3.3305 C   0  0  0  0  0  0  0  0  0  0  0  0
    6.3379   17.7178    2.0480 C   0  0  1  0  0  0  0  0  0  0  0  0
    4.8194   17.7233    1.9973 C   0  0  0  0  0  0  0  0  0  0  0  0
    4.4280   17.4104    3.4488 C   0  0  1  0  0  0  0  0  0  0  0  0
    4.4265   15.9047    3.7090 C   0  0  0  0  0  0  0  0  0  0  0  0
    5.4892   15.2830    3.7897 O   0  0  0  0  0  0  0  0  0  0  0  0
    3.2400   15.2493    3.9215 N   0  0  0  0  0  0  0  0  0  0  0  0
    1.9824   15.7727    4.0839 C   0  0  0  0  0  0  0  0  0  0  0  0
    1.6766   16.9531    4.0112 O   0  0  0  0  0  0  0  0  0  0  0  0
    1.0499   14.8268    4.3772 N   0  0  0  0  0  0  0  0  0  0  0  0
    6.9104   18.4051    0.8753 N   0  3  0  0  0  0  0  0  0  0  0  0
    6.9470   17.8011    0.0436 H   0  0  0  0  0  0  0  0  0  0  0  0
    6.3599   19.2386    0.6299 H   0  0  0  0  0  0  0  0  0  0  0  0
    7.8688   18.7243    1.0708 H   0  0  0  0  0  0  0  0  0  0  0  0
    3.3476   14.2715    4.1442 H   0  0  0  0  0  0  0  0  0  0  0  0
    0.1995   14.7722    3.8336 H   0  0  0  0  0  0  0  0  0  0  0  0
    0.9127   14.6789    5.3724 H   0  0  0  0  0  0  0  0  0  0  0  0
  1  2  1  0  0  0  0
  1  5  1  0  0  0  0
  2  3  1  0  0  0  0
  3  4  1  0  0  0  0
  3 12  1  6  0  0  0
  4  5  1  0  0  0  0
  5  6  1  6  0  0  0
  6  7  2  0  0  0  0
  6  8  1  0  0  0  0
  8  9  1  0  0  0  0
  8 16  1  0  0  0  0
  9 10  2  0  0  0  0
  9 11  1  0  0  0  0
 11 17  1  0  0  0  0
 11 18  1  0  0  0  0
 12 13  1  0  0  0  0
 12 14  1  0  0  0  0
 12 15  1  0  0  0  0
M  CHG  1  12   1
M  END
>  <CHROM.0>
-55.18928381,-63.13708669,58.53829761,-44.64522923,-52.08399782,-61.30609627
52.25834619,-59.04523175,-168.01427516

>  <CHROM.1>
163.73023712,-42.52208880,-128.13998621,4.37140726,16.80851027,3.30169886
-0.62275292,-0.11702948,2.63708783

>  <Name>
P134782587

>  <RI>
3.58524e+07

>  <Rbt.Current_Directory>
/home/fstefaniak/projects/zuza/docking/adenine/4XNR

>  <Rbt.Executable>
rbdock ($Id: //depot/dev/client3/rdock/2013.1/src/exe/rbdock.cxx#4 $)

>  <Rbt.Library>
libRbt.so (2013.1, Build901 2013/11/27)

>  <Rbt.Parameter_File>
/home/fstefaniak/progs/rDock//data/scripts/dock_solv.prm

>  <Rbt.Receptor>
4xnr.prm

>  <SCORE>
-48.069

>  <SCORE.INTER>
-30.3032

>  <SCORE.INTER.CONST>
1

>  <SCORE.INTER.POLAR>
-4.75994

>  <SCORE.INTER.ROT>
2

>  <SCORE.INTER.SOLV>
23.1984

>  <SCORE.INTER.VDW>
-17.0018

>  <SCORE.INTER.norm>
-2.52527

>  <SCORE.INTRA>
1.01176

>  <SCORE.INTRA.DIHEDRAL>
2.76015

>  <SCORE.INTRA.DIHEDRAL.0>
1.79452

>  <SCORE.INTRA.POLAR>
0

>  <SCORE.INTRA.POLAR.0>
0

>  <SCORE.INTRA.REPUL>
0

>  <SCORE.INTRA.REPUL.0>
0

>  <SCORE.INTRA.SOLV>
-0.146495

>  <SCORE.INTRA.SOLV.lig_0>
-40.1875

>  <SCORE.INTRA.VDW>
-0.295061

>  <SCORE.INTRA.VDW.0>
-0.318058

>  <SCORE.INTRA.norm>
0.0843137

>  <SCORE.RESTR>
0

>  <SCORE.RESTR.CAVITY>
0

>  <SCORE.RESTR.norm>
0

>  <SCORE.SYSTEM>
-18.7775

>  <SCORE.SYSTEM.CONST>
0

>  <SCORE.SYSTEM.DIHEDRAL>
4.56747

>  <SCORE.SYSTEM.POLAR>
-3.04976

>  <SCORE.SYSTEM.SOLV>
0.208707

>  <SCORE.SYSTEM.VDW>
-3.94455

>  <SCORE.SYSTEM.norm>
-1.5648

>  <SCORE.heavy>
12

>  <SCORE.norm>
-4.00575

$$$$
P134782635
 OpenBabel12072022113D
libRbt.so/2013.1/901 2013/11/27
 18 18  0  0  0  0  0  0  0  0999 V2000
    3.5305   13.9225    3.5300 C   0  0  0  0  0  0  0  0  0  0  0  0
    4.2172   14.9626    4.4038 C   0  0  0  0  0  0  0  0  0  0  0  0
    3.4699   16.2751    4.1155 C   0  0  2  0  0  0  0  0  0  0  0  0
    2.0830   15.8324    3.6200 C   0  0  1  0  0  0  0  0  0  0  0  0
    2.0652   14.3059    3.6365 C   0  0  0  0  0  0  0  0  0  0  0  0
    1.0137   16.3413    4.5168 N   0  3  0  0  0  0  0  0  0  0  0  0
    1.0503   15.9528    5.4662 H   0  0  0  0  0  0  0  0  0  0  0  0
    1.1342   17.3740    4.6124 H   0  0  0  0  0  0  0  0  0  0  0  0
    0.0730   16.1910    4.1347 H   0  0  0  0  0  0  0  0  0  0  0  0
    4.1627   17.0879    3.0257 C   0  0  0  0  0  0  0  0  0  0  0  0
    3.5846   17.4144    1.9911 O   0  0  0  0  0  0  0  0  0  0  0  0
    5.4433   17.5468    3.2412 N   0  0  0  0  0  0  0  0  0  0  0  0
    6.1128   17.7108    4.4260 C   0  0  0  0  0  0  0  0  0  0  0  0
    5.6810   17.4024    5.5326 O   0  0  0  0  0  0  0  0  0  0  0  0
    7.3227   18.3048    4.2810 N   0  0  0  0  0  0  0  0  0  0  0  0
    5.7953   18.0853    2.4598 H   0  0  0  0  0  0  0  0  0  0  0  0
    8.0987   17.8127    3.8547 H   0  0  0  0  0  0  0  0  0  0  0  0
    7.5927   18.9733    4.9952 H   0  0  0  0  0  0  0  0  0  0  0  0
  1  2  1  0  0  0  0
  1  5  1  0  0  0  0
  2  3  1  0  0  0  0
  3 10  1  6  0  0  0
  3  4  1  0  0  0  0
  4  5  1  0  0  0  0
  4  6  1  1  0  0  0
  6  7  1  0  0  0  0
  6  8  1  0  0  0  0
  6  9  1  0  0  0  0
 10 11  2  0  0  0  0
 10 12  1  0  0  0  0
 12 13  1  0  0  0  0
 12 16  1  0  0  0  0
 13 14  2  0  0  0  0
 13 15  1  0  0  0  0
 15 17  1  0  0  0  0
 15 18  1  0  0  0  0
M  CHG  1   6   1
M  END
>  <CHROM.0>
-59.71133446,-167.33576871,-175.96728045,-45.76442010,-177.63268608,-62.90959249
-57.61077382,-59.80947509,-168.14220632

>  <CHROM.1>
122.02405948,-64.75717264,-71.31725518,4.05640284,16.46347283,3.87459812
-2.71397262,-0.37597943,-0.51684903

>  <Name>
P134782635

>  <RI>
3.58524e+07

>  <Rbt.Current_Directory>
/home/fstefaniak/projects/zuza/docking/adenine/4XNR

>  <Rbt.Executable>
rbdock ($Id: //depot/dev/client3/rdock/2013.1/src/exe/rbdock.cxx#4 $)

>  <Rbt.Library>
libRbt.so (2013.1, Build901 2013/11/27)

>  <Rbt.Parameter_File>
/home/fstefaniak/progs/rDock//data/scripts/dock_solv.prm

>  <Rbt.Receptor>
4xnr.prm

>  <SCORE>
-52.4117

>  <SCORE.INTER>
-35.098

>  <SCORE.INTER.CONST>
1

>  <SCORE.INTER.POLAR>
-5.6159

>  <SCORE.INTER.ROT>
2

>  <SCORE.INTER.SOLV>
20.8266

>  <SCORE.INTER.VDW>
-16.5545

>  <SCORE.INTER.norm>
-2.92483

>  <SCORE.INTRA>
1.17607

>  <SCORE.INTRA.DIHEDRAL>
-1.10603

>  <SCORE.INTRA.DIHEDRAL.0>
2.30794

>  <SCORE.INTRA.POLAR>
0.957875

>  <SCORE.INTRA.POLAR.0>
-0.957875

>  <SCORE.INTRA.REPUL>
0

>  <SCORE.INTRA.REPUL.0>
0

>  <SCORE.INTRA.SOLV>
-2.88678

>  <SCORE.INTRA.SOLV.lig_0>
-36.6402

>  <SCORE.INTRA.VDW>
-0.0843031

>  <SCORE.INTRA.VDW.0>
-0.753591

>  <SCORE.INTRA.norm>
0.0980057

>  <SCORE.RESTR>
0

>  <SCORE.RESTR.CAVITY>
0

>  <SCORE.RESTR.norm>
0

>  <SCORE.SYSTEM>
-18.4898

>  <SCORE.SYSTEM.CONST>
0

>  <SCORE.SYSTEM.DIHEDRAL>
4.59627

>  <SCORE.SYSTEM.POLAR>
-2.53744

>  <SCORE.SYSTEM.SOLV>
0.0494661

>  <SCORE.SYSTEM.VDW>
-5.41694

>  <SCORE.SYSTEM.norm>
-1.54081

>  <SCORE.heavy>
12

>  <SCORE.norm>
-4.36764

$$$$
P134782635
 OpenBabel12072022113D
libRbt.so/2013.1/901 2013/11/27
 18 18  0  0  0  0  0  0  0  0999 V2000
    3.7178   14.0756    3.5119 C   0  0  0  0  0  0  0  0  0  0  0  0
    4.3862   15.1502    4.3579 C   0  0  0  0  0  0  0  0  0  0  0  0
    3.5732   16.4270    4.0877 C   0  0  2  0  0  0  0  0  0  0  0  0
    2.1918   15.9212    3.6397 C   0  0  1  0  0  0  0  0  0  0  0  0
    2.2413   14.3956    3.6642 C   0  0  0  0  0  0  0  0  0  0  0  0
    1.1307   16.3887    4.5683 N   0  3  0  0  0  0  0  0  0  0  0  0
    1.0913   17.4092    4.6712 H   0  0  0  0  0  0  0  0  0  0  0  0
    0.2073   16.0921    4.1819 H   0  0  0  0  0  0  0  0  0  0  0  0
    1.2070   15.9656    5.5004 H   0  0  0  0  0  0  0  0  0  0  0  0
    4.1943   17.2624    2.9720 C   0  0  0  0  0  0  0  0  0  0  0  0
    3.6196   17.4474    1.9012 O   0  0  0  0  0  0  0  0  0  0  0  0
    5.3925   17.9025    3.1992 N   0  0  0  0  0  0  0  0  0  0  0  0
    5.9861   18.2236    4.3922 C   0  0  0  0  0  0  0  0  0  0  0  0
    5.5555   17.9235    5.5016 O   0  0  0  0  0  0  0  0  0  0  0  0
    7.1107   18.9670    4.2491 N   0  0  0  0  0  0  0  0  0  0  0  0
    5.7003   18.4380    2.3974 H   0  0  0  0  0  0  0  0  0  0  0  0
    8.0268   18.5350    4.2541 H   0  0  0  0  0  0  0  0  0  0  0  0
    7.0893   19.9072    4.6306 H   0  0  0  0  0  0  0  0  0  0  0  0
  1  2  1  0  0  0  0
  1  5  1  0  0  0  0
  2  3  1  0  0  0  0
  3 10  1  6  0  0  0
  3  4  1  0  0  0  0
  4  5  1  0  0  0  0
  4  6  1  1  0  0  0
  6  7  1  0  0  0  0
  6  8  1  0  0  0  0
  6  9  1  0  0  0  0
 10 11  2  0  0  0  0
 10 12  1  0  0  0  0
 12 13  1  0  0  0  0
 12 16  1  0  0  0  0
 13 14  2  0  0  0  0
 13 15  1  0  0  0  0
 15 17  1  0  0  0  0
 15 18  1  0  0  0  0
M  CHG  1   6   1
M  END
>  <CHROM.0>
-55.78159694,-168.66175918,-71.41811804,-48.23217444,-56.00200401,58.70763259
-168.65239158,-64.06519316,-166.64354031

>  <CHROM.1>
114.76908164,57.04828080,-96.70222095,4.08644609,16.71424356,3.85252852,-2.61907410
-0.46229452,-0.53621099

>  <Name>
P134782635

>  <RI>
3.58524e+07

>  <Rbt.Current_Directory>
/home/fstefaniak/projects/zuza/docking/adenine/4XNR

>  <Rbt.Executable>
rbdock ($Id: //depot/dev/client3/rdock/2013.1/src/exe/rbdock.cxx#4 $)

>  <Rbt.Library>
libRbt.so (2013.1, Build901 2013/11/27)

>  <Rbt.Parameter_File>
/home/fstefaniak/progs/rDock//data/scripts/dock_solv.prm

>  <Rbt.Receptor>
4xnr.prm

>  <SCORE>
-51.6798

>  <SCORE.INTER>
-33.9923

>  <SCORE.INTER.CONST>
1

>  <SCORE.INTER.POLAR>
-5.23079

>  <SCORE.INTER.ROT>
2

>  <SCORE.INTER.SOLV>
20.9788

>  <SCORE.INTER.VDW>
-17.1518

>  <SCORE.INTER.norm>
-2.83269

>  <SCORE.INTRA>
1.02698

>  <SCORE.INTRA.DIHEDRAL>
-1.12949

>  <SCORE.INTRA.DIHEDRAL.0>
2.30794

>  <SCORE.INTRA.POLAR>
0.957875

>  <SCORE.INTRA.POLAR.0>
-0.957875

>  <SCORE.INTRA.REPUL>
0

>  <SCORE.INTRA.REPUL.0>
0

>  <SCORE.INTRA.SOLV>
-3.08179

>  <SCORE.INTRA.SOLV.lig_0>
-36.6402

>  <SCORE.INTRA.VDW>
-0.124148

>  <SCORE.INTRA.VDW.0>
-0.753591

>  <SCORE.INTRA.norm>
0.0855819

>  <SCORE.RESTR>
0

>  <SCORE.RESTR.CAVITY>
0

>  <SCORE.RESTR.norm>
0

>  <SCORE.SYSTEM>
-18.7145

>  <SCORE.SYSTEM.CONST>
0

>  <SCORE.SYSTEM.DIHEDRAL>
5.54699

>  <SCORE.SYSTEM.POLAR>
-2.98185

>  <SCORE.SYSTEM.SOLV>
0.0755341

>  <SCORE.SYSTEM.VDW>
-4.41103

>  <SCORE.SYSTEM.norm>
-1.55954

>  <SCORE.heavy>
12

>  <SCORE.norm>
-4.30665

$$$$
P134782635
 OpenBabel12072022113D
libRbt.so/2013.1/901 2013/11/27
 18 18  0  0  0  0  0  0  0  0999 V2000
    3.3687   13.9394    3.4754 C   0  0  0  0  0  0  0  0  0  0  0  0
    4.1044   14.9105    4.3880 C   0  0  0  0  0  0  0  0  0  0  0  0
    3.4200   16.2673    4.1534 C   0  0  2  0  0  0  0  0  0  0  0  0
    2.0135   15.9108    3.6441 C   0  0  1  0  0  0  0  0  0  0  0  0
    1.9233   14.3874    3.6004 C   0  0  0  0  0  0  0  0  0  0  0  0
    0.9700   16.4339    4.5628 N   0  3  0  0  0  0  0  0  0  0  0  0
    1.0180   17.4490    4.7082 H   0  0  0  0  0  0  0  0  0  0  0  0
    0.0362   16.2373    4.1391 H   0  0  0  0  0  0  0  0  0  0  0  0
    0.9797   15.9686    5.4776 H   0  0  0  0  0  0  0  0  0  0  0  0
    4.1501   17.0888    3.0950 C   0  0  0  0  0  0  0  0  0  0  0  0
    3.6540   17.3191    1.9940 O   0  0  0  0  0  0  0  0  0  0  0  0
    5.3610   17.6653    3.4088 N   0  0  0  0  0  0  0  0  0  0  0  0
    5.8926   17.9376    4.6425 C   0  0  0  0  0  0  0  0  0  0  0  0
    5.3786   17.6414    5.7169 O   0  0  0  0  0  0  0  0  0  0  0  0
    7.0585   18.6267    4.5843 N   0  0  0  0  0  0  0  0  0  0  0  0
    5.7445   18.1978    2.6382 H   0  0  0  0  0  0  0  0  0  0  0  0
    7.8466   18.2766    4.0530 H   0  0  0  0  0  0  0  0  0  0  0  0
    7.3138   19.1644    5.4063 H   0  0  0  0  0  0  0  0  0  0  0  0
  1  2  1  0  0  0  0
  1  5  1  0  0  0  0
  2  3  1  0  0  0  0
  3 10  1  6  0  0  0
  3  4  1  0  0  0  0
  4  5  1  0  0  0  0
  4  6  1  1  0  0  0
  6  7  1  0  0  0  0
  6  8  1  0  0  0  0
  6  9  1  0  0  0  0
 10 11  2  0  0  0  0
 10 12  1  0  0  0  0
 12 13  1  0  0  0  0
 12 16  1  0  0  0  0
 13 14  2  0  0  0  0
 13 15  1  0  0  0  0
 15 17  1  0  0  0  0
 15 18  1  0  0  0  0
M  CHG  1   6   1
M  END
>  <CHROM.0>
-56.61318484,-165.48637785,-67.45071036,-47.74997316,-65.07007363,-63.17118502
-68.48442924,-175.29293775,-165.78483364

>  <CHROM.1>
111.31933512,57.26782639,-55.70313830,3.93912897,16.55046713,3.95523261,-2.76332745
-0.52309502,-0.66795118

>  <Name>
P134782635

>  <RI>
3.58524e+07

>  <Rbt.Current_Directory>
/home/fstefaniak/projects/zuza/docking/adenine/4XNR

>  <Rbt.Executable>
rbdock ($Id: //depot/dev/client3/rdock/2013.1/src/exe/rbdock.cxx#4 $)

>  <Rbt.Library>
libRbt.so (2013.1, Build901 2013/11/27)

>  <Rbt.Parameter_File>
/home/fstefaniak/progs/rDock//data/scripts/dock_solv.prm

>  <Rbt.Receptor>
4xnr.prm

>  <SCORE>
-51.6176

>  <SCORE.INTER>
-32.3824

>  <SCORE.INTER.CONST>
1

>  <SCORE.INTER.POLAR>
-4.986

>  <SCORE.INTER.ROT>
2

>  <SCORE.INTER.SOLV>
21.071

>  <SCORE.INTER.VDW>
-16.9253

>  <SCORE.INTER.norm>
-2.69854

>  <SCORE.INTRA>
1.03122

>  <SCORE.INTRA.DIHEDRAL>
-1.04361

>  <SCORE.INTRA.DIHEDRAL.0>
2.30794

>  <SCORE.INTRA.POLAR>
0.957875

>  <SCORE.INTRA.POLAR.0>
-0.957875

>  <SCORE.INTRA.REPUL>
0

>  <SCORE.INTRA.REPUL.0>
0

>  <SCORE.INTRA.SOLV>
-3.1058

>  <SCORE.INTRA.SOLV.lig_0>
-36.6402

>  <SCORE.INTRA.VDW>
-0.150845

>  <SCORE.INTRA.VDW.0>
-0.753591

>  <SCORE.INTRA.norm>
0.0859354

>  <SCORE.RESTR>
0

>  <SCORE.RESTR.CAVITY>
0

>  <SCORE.RESTR.norm>
0

>  <SCORE.SYSTEM>
-20.2664

>  <SCORE.SYSTEM.CONST>
0

>  <SCORE.SYSTEM.DIHEDRAL>
5.56576

>  <SCORE.SYSTEM.POLAR>
-2.98539

>  <SCORE.SYSTEM.SOLV>
0.103888

>  <SCORE.SYSTEM.VDW>
-5.44953

>  <SCORE.SYSTEM.norm>
-1.68887

>  <SCORE.heavy>
12

>  <SCORE.norm>
-4.30147

$$$$
P134782687
 OpenBabel12072022113D
libRbt.so/2013.1/901 2013/11/27
 18 18  0  0  0  0  0  0  0  0999 V2000
    6.6556   17.4614    3.4326 C   0  0  0  0  0  0  0  0  0  0  0  0
    6.5402   18.8129    4.1188 C   0  0  1  0  0  0  0  0  0  0  0  0
    5.7538   18.4955    5.3870 C   0  0  0  0  0  0  0  0  0  0  0  0
    4.8366   17.3833    5.0023 N   0  3  0  0  0  0  0  0  0  0  0  0
    4.7840   16.6589    5.7289 H   0  0  0  0  0  0  0  0  0  0  0  0
    3.8746   17.7450    4.8573 H   0  0  0  0  0  0  0  0  0  0  0  0
    5.3023   16.8061    3.6591 C   0  0  1  0  0  0  0  0  0  0  0  0
    4.2547   17.1645    2.5832 C   0  0  0  0  0  0  0  0  0  0  0  0
    4.6062   17.1472    1.3975 O   0  0  0  0  0  0  0  0  0  0  0  0
    2.9832   17.5289    2.9290 N   0  0  0  0  0  0  0  0  0  0  0  0
    2.0364   16.6775    3.4221 C   0  0  0  0  0  0  0  0  0  0  0  0
    2.1464   16.0615    4.4719 O   0  0  0  0  0  0  0  0  0  0  0  0
    0.9438   16.5575    2.6317 N   0  0  0  0  0  0  0  0  0  0  0  0
    7.8190   19.3236    4.4361 O   0  0  0  0  0  0  0  0  0  0  0  0
    2.8852   18.5015    3.1881 H   0  0  0  0  0  0  0  0  0  0  0  0
    0.1535   15.9883    2.9054 H   0  0  0  0  0  0  0  0  0  0  0  0
    0.6944   17.3905    2.1059 H   0  0  0  0  0  0  0  0  0  0  0  0
    7.7209   20.1723    4.9080 H   0  0  0  0  0  0  0  0  0  0  0  0
  1  2  1  0  0  0  0
  1  7  1  0  0  0  0
  2  3  1  0  0  0  0
  2 14  1  1  0  0  0
  3  4  1  0  0  0  0
  4  5  1  0  0  0  0
  4  6  1  0  0  0  0
  4  7  1  0  0  0  0
  7  8  1  6  0  0  0
  8  9  2  0  0  0  0
  8 10  1  0  0  0  0
 10 11  1  0  0  0  0
 10 15  1  0  0  0  0
 11 12  2  0  0  0  0
 11 13  1  0  0  0  0
 13 16  1  0  0  0  0
 13 17  1  0  0  0  0
 14 18  1  0  0  0  0
M  CHG  1   4   1
M  END
>  <CHROM.0>
-57.48503568,62.33422479,-63.26703497,-44.79953498,61.52568088,-55.35567793
-68.38309440,-54.50422179,-168.02354827

>  <CHROM.1>
-177.66397584,44.27136494,-71.74223380,61.79778570,-177.27631390,4.47790987
17.47202933,3.63887232,-0.26068633,-0.36377767,-1.66433611

>  <Name>
P134782687

>  <RI>
3.58524e+07

>  <Rbt.Current_Directory>
/home/fstefaniak/projects/zuza/docking/adenine/4XNR

>  <Rbt.Executable>
rbdock ($Id: //depot/dev/client3/rdock/2013.1/src/exe/rbdock.cxx#4 $)

>  <Rbt.Library>
libRbt.so (2013.1, Build901 2013/11/27)

>  <Rbt.Parameter_File>
/home/fstefaniak/progs/rDock//data/scripts/dock_solv.prm

>  <Rbt.Receptor>
4xnr.prm

>  <SCORE>
-55.5387

>  <SCORE.INTER>
-37.8534

>  <SCORE.INTER.CONST>
1

>  <SCORE.INTER.POLAR>
-6.26334

>  <SCORE.INTER.ROT>
4

>  <SCORE.INTER.SOLV>
23.2402

>  <SCORE.INTER.VDW>
-18.3712

>  <SCORE.INTER.norm>
-3.15445

>  <SCORE.INTRA>
1.11783

>  <SCORE.INTRA.DIHEDRAL>
1.01619

>  <SCORE.INTRA.DIHEDRAL.0>
2.76127

>  <SCORE.INTRA.POLAR>
0

>  <SCORE.INTRA.POLAR.0>
0

>  <SCORE.INTRA.REPUL>
0

>  <SCORE.INTRA.REPUL.0>
0

>  <SCORE.INTRA.SOLV>
3.30648

>  <SCORE.INTRA.SOLV.lig_0>
-41.0816

>  <SCORE.INTRA.VDW>
-1.0435

>  <SCORE.INTRA.VDW.0>
-0.449492

>  <SCORE.INTRA.norm>
0.0931527

>  <SCORE.RESTR>
0

>  <SCORE.RESTR.CAVITY>
0

>  <SCORE.RESTR.norm>
0

>  <SCORE.SYSTEM>
-18.8032

>  <SCORE.SYSTEM.CONST>
0

>  <SCORE.SYSTEM.DIHEDRAL>
4.48557

>  <SCORE.SYSTEM.POLAR>
-3.05768

>  <SCORE.SYSTEM.SOLV>
0.169441

>  <SCORE.SYSTEM.VDW>
-3.89485

>  <SCORE.SYSTEM.norm>
-1.56693

>  <SCORE.heavy>
12

>  <SCORE.norm>
-4.62823

$$$$
P134782687
 OpenBabel12072022113D
libRbt.so/2013.1/901 2013/11/27
 18 18  0  0  0  0  0  0  0  0999 V2000
    6.2996   17.6522    3.3412 C   0  0  0  0  0  0  0  0  0  0  0  0
    6.0710   18.9654    4.0720 C   0  0  1  0  0  0  0  0  0  0  0  0
    5.9151   18.5338    5.5270 C   0  0  0  0  0  0  0  0  0  0  0  0
    5.2661   17.1918    5.4623 N   0  3  0  0  0  0  0  0  0  0  0  0
    5.6810   16.5309    6.1305 H   0  0  0  0  0  0  0  0  0  0  0  0
    4.2569   17.2695    5.6918 H   0  0  0  0  0  0  0  0  0  0  0  0
    5.3562   16.6725    4.0213 C   0  0  1  0  0  0  0  0  0  0  0  0
    3.9361   16.6610    3.4159 C   0  0  0  0  0  0  0  0  0  0  0  0
    3.7996   17.0212    2.2406 O   0  0  0  0  0  0  0  0  0  0  0  0
    2.8514   16.3004    4.1658 N   0  0  0  0  0  0  0  0  0  0  0  0
    1.6326   15.9553    3.6559 C   0  0  0  0  0  0  0  0  0  0  0  0
    1.3528   14.8408    3.2397 O   0  0  0  0  0  0  0  0  0  0  0  0
    0.7396   16.9727    3.6367 N   0  0  0  0  0  0  0  0  0  0  0  0
    7.1839   19.8228    3.9196 O   0  0  0  0  0  0  0  0  0  0  0  0
    3.0818   15.9109    5.0701 H   0  0  0  0  0  0  0  0  0  0  0  0
    0.9582   17.8753    4.0380 H   0  0  0  0  0  0  0  0  0  0  0  0
    0.1486   17.0164    2.8113 H   0  0  0  0  0  0  0  0  0  0  0  0
    7.0511   20.6250    4.4594 H   0  0  0  0  0  0  0  0  0  0  0  0
  1  2  1  0  0  0  0
  1  7  1  0  0  0  0
  2  3  1  0  0  0  0
  2 14  1  1  0  0  0
  3  4  1  0  0  0  0
  4  5  1  0  0  0  0
  4  6  1  0  0  0  0
  4  7  1  0  0  0  0
  7  8  1  6  0  0  0
  8  9  2  0  0  0  0
  8 10  1  0  0  0  0
 10 11  1  0  0  0  0
 10 15  1  0  0  0  0
 11 12  2  0  0  0  0
 11 13  1  0  0  0  0
 13 16  1  0  0  0  0
 13 17  1  0  0  0  0
 14 18  1  0  0  0  0
M  CHG  1   4   1
M  END
>  <CHROM.0>
-58.20731157,-61.64054125,62.76186762,-44.78756815,-57.92468298,-62.89747327
54.22740719,-57.56834265,-168.12162275

>  <CHROM.1>
-175.02797310,24.87740856,-163.59970322,82.81823161,-4.59110186,4.18974164
17.24159847,3.90006814,-0.07853779,-0.53904691,-1.42446949

>  <Name>
P134782687

>  <RI>
3.58524e+07

>  <Rbt.Current_Directory>
/home/fstefaniak/projects/zuza/docking/adenine/4XNR

>  <Rbt.Executable>
rbdock ($Id: //depot/dev/client3/rdock/2013.1/src/exe/rbdock.cxx#4 $)

>  <Rbt.Library>
libRbt.so (2013.1, Build901 2013/11/27)

>  <Rbt.Parameter_File>
/home/fstefaniak/progs/rDock//data/scripts/dock_solv.prm

>  <Rbt.Receptor>
4xnr.prm

>  <SCORE>
-53.0966

>  <SCORE.INTER>
-34.1783

>  <SCORE.INTER.CONST>
1

>  <SCORE.INTER.POLAR>
-5.32756

>  <SCORE.INTER.ROT>
4

>  <SCORE.INTER.SOLV>
24.3688

>  <SCORE.INTER.VDW>
-19.4166

>  <SCORE.INTER.norm>
-2.84819

>  <SCORE.INTRA>
-0.00568113

>  <SCORE.INTRA.DIHEDRAL>
0.352163

>  <SCORE.INTRA.DIHEDRAL.0>
2.76127

>  <SCORE.INTRA.POLAR>
-0.273089

>  <SCORE.INTRA.POLAR.0>
0

>  <SCORE.INTRA.REPUL>
0

>  <SCORE.INTRA.REPUL.0>
0

>  <SCORE.INTRA.SOLV>
1.2934

>  <SCORE.INTRA.SOLV.lig_0>
-41.0816

>  <SCORE.INTRA.VDW>
0.100038

>  <SCORE.INTRA.VDW.0>
-0.449492

>  <SCORE.INTRA.norm>
-0.000473427

>  <SCORE.RESTR>
0

>  <SCORE.RESTR.CAVITY>
0

>  <SCORE.RESTR.norm>
0

>  <SCORE.SYSTEM>
-18.9125

>  <SCORE.SYSTEM.CONST>
0

>  <SCORE.SYSTEM.DIHEDRAL>
4.11118

>  <SCORE.SYSTEM.POLAR>
-3.01655

>  <SCORE.SYSTEM.SOLV>
0.196183

>  <SCORE.SYSTEM.VDW>
-3.98898

>  <SCORE.SYSTEM.norm>
-1.57605

>  <SCORE.heavy>
12

>  <SCORE.norm>
-4.42471

$$$$
P134782687
 OpenBabel12072022113D
libRbt.so/2013.1/901 2013/11/27
 18 18  0  0  0  0  0  0  0  0999 V2000
    6.3081   17.6428    3.4073 C   0  0  0  0  0  0  0  0  0  0  0  0
    6.1476   18.9564    4.1553 C   0  0  1  0  0  0  0  0  0  0  0  0
    5.9552   18.5138    5.6026 C   0  0  0  0  0  0  0  0  0  0  0  0
    5.2322   17.2116    5.5134 N   0  3  0  0  0  0  0  0  0  0  0  0
    5.6035   16.5191    6.1751 H   0  0  0  0  0  0  0  0  0  0  0  0
    4.2271   17.3429    5.7362 H   0  0  0  0  0  0  0  0  0  0  0  0
    5.3053   16.7084    4.0658 C   0  0  1  0  0  0  0  0  0  0  0  0
    3.8920   16.7857    3.4492 C   0  0  0  0  0  0  0  0  0  0  0  0
    3.7937   17.0583    2.2469 O   0  0  0  0  0  0  0  0  0  0  0  0
    2.7757   16.5967    4.2156 N   0  0  0  0  0  0  0  0  0  0  0  0
    1.5005   16.5354    3.7314 C   0  0  0  0  0  0  0  0  0  0  0  0
    1.1443   17.0260    2.6701 O   0  0  0  0  0  0  0  0  0  0  0  0
    0.6374   15.8821    4.5445 N   0  0  0  0  0  0  0  0  0  0  0  0
    7.3083   19.7517    4.0241 O   0  0  0  0  0  0  0  0  0  0  0  0
    2.9456   16.1085    5.0847 H   0  0  0  0  0  0  0  0  0  0  0  0
    0.6965   15.9620    5.5513 H   0  0  0  0  0  0  0  0  0  0  0  0
   -0.3102   15.7915    4.1891 H   0  0  0  0  0  0  0  0  0  0  0  0
    7.2120   20.5573    4.5665 H   0  0  0  0  0  0  0  0  0  0  0  0
  1  2  1  0  0  0  0
  1  7  1  0  0  0  0
  2  3  1  0  0  0  0
  2 14  1  1  0  0  0
  3  4  1  0  0  0  0
  4  5  1  0  0  0  0
  4  6  1  0  0  0  0
  4  7  1  0  0  0  0
  7  8  1  6  0  0  0
  8  9  2  0  0  0  0
  8 10  1  0  0  0  0
 10 11  1  0  0  0  0
 10 15  1  0  0  0  0
 11 12  2  0  0  0  0
 11 13  1  0  0  0  0
 13 16  1  0  0  0  0
 13 17  1  0  0  0  0
 14 18  1  0  0  0  0
M  CHG  1   4   1
M  END
>  <CHROM.0>
-58.42688024,-63.14444013,59.93298056,-45.12879619,-174.66769532,-175.96189007
-174.33274943,-175.56098076,-168.14827005

>  <CHROM.1>
-175.66457385,30.96529375,-174.15130320,-23.19953965,37.10789792,4.15348630
17.40812192,3.98545232,-0.05150680,-0.43428573,-1.38982011

>  <Name>
P134782687

>  <RI>
3.58524e+07

>  <Rbt.Current_Directory>
/home/fstefaniak/projects/zuza/docking/adenine/4XNR

>  <Rbt.Executable>
rbdock ($Id: //depot/dev/client3/rdock/2013.1/src/exe/rbdock.cxx#4 $)

>  <Rbt.Library>
libRbt.so (2013.1, Build901 2013/11/27)

>  <Rbt.Parameter_File>
/home/fstefaniak/progs/rDock//data/scripts/dock_solv.prm

>  <Rbt.Receptor>
4xnr.prm

>  <SCORE>
-52.1659

>  <SCORE.INTER>
-34.7059

>  <SCORE.INTER.CONST>
1

>  <SCORE.INTER.POLAR>
-5.34236

>  <SCORE.INTER.ROT>
4

>  <SCORE.INTER.SOLV>
25.9416

>  <SCORE.INTER.VDW>
-20.2432

>  <SCORE.INTER.norm>
-2.89216

>  <SCORE.INTRA>
0.023939

>  <SCORE.INTRA.DIHEDRAL>
0.583661

>  <SCORE.INTRA.DIHEDRAL.0>
2.76127

>  <SCORE.INTRA.POLAR>
-0.369577

>  <SCORE.INTRA.POLAR.0>
0

>  <SCORE.INTRA.REPUL>
0

>  <SCORE.INTRA.REPUL.0>
0

>  <SCORE.INTRA.SOLV>
1.27347

>  <SCORE.INTRA.SOLV.lig_0>
-41.0816

>  <SCORE.INTRA.VDW>
0.351935

>  <SCORE.INTRA.VDW.0>
-0.449492

>  <SCORE.INTRA.norm>
0.00199492

>  <SCORE.RESTR>
0

>  <SCORE.RESTR.CAVITY>
0

>  <SCORE.RESTR.norm>
0

>  <SCORE.SYSTEM>
-17.484

>  <SCORE.SYSTEM.CONST>
0

>  <SCORE.SYSTEM.DIHEDRAL>
4.26149

>  <SCORE.SYSTEM.POLAR>
-2.54723

>  <SCORE.SYSTEM.SOLV>
-0.271134

>  <SCORE.SYSTEM.VDW>
-4.49536

>  <SCORE.SYSTEM.norm>
-1.457

>  <SCORE.heavy>
12

>  <SCORE.norm>
-4.34716

$$$$
P134782778
 OpenBabel12072022113D
libRbt.so/2013.1/901 2013/11/27
 19 19  0  0  0  0  0  0  0  0999 V2000
    2.7803   13.1995    3.8414 C   0  0  0  0  0  0  0  0  0  0  0  0
    1.7041   14.2030    4.2496 C   0  0  0  0  0  0  0  0  0  0  0  0
    2.3909   15.5759    4.3181 C   0  0  1  0  0  0  0  0  0  0  0  0
    3.6184   15.4091    3.3900 C   0  0  2  0  0  0  0  0  0  0  0  0
    4.0748   13.9920    3.7299 C   0  0  0  0  0  0  0  0  0  0  0  0
    4.6969   16.4608    3.6324 C   0  0  0  0  0  0  0  0  0  0  0  0
    4.4936   17.3891    4.4245 O   0  0  0  0  0  0  0  0  0  0  0  0
    5.8414   16.4350    2.8857 N   0  0  0  0  0  0  0  0  0  0  0  0
    6.4116   17.5792    2.3970 C   0  0  0  0  0  0  0  0  0  0  0  0
    7.1897   18.3060    2.9950 O   0  0  0  0  0  0  0  0  0  0  0  0
    6.0252   17.8519    1.1222 N   0  0  0  0  0  0  0  0  0  0  0  0
    1.4274   16.6986    3.9257 C   0  0  0  0  0  0  0  0  0  0  0  0
    0.2076   16.6672    4.7617 N   0  3  0  0  0  0  0  0  0  0  0  0
   -0.2196   17.5963    4.8554 H   0  0  0  0  0  0  0  0  0  0  0  0
   -0.5365   16.0815    4.3298 H   0  0  0  0  0  0  0  0  0  0  0  0
    0.3797   16.2972    5.7033 H   0  0  0  0  0  0  0  0  0  0  0  0
    6.5450   15.8274    3.2829 H   0  0  0  0  0  0  0  0  0  0  0  0
    5.3571   18.5949    0.9617 H   0  0  0  0  0  0  0  0  0  0  0  0
    6.7869   17.8391    0.4503 H   0  0  0  0  0  0  0  0  0  0  0  0
  1  2  1  0  0  0  0
  1  5  1  0  0  0  0
  2  3  1  0  0  0  0
  3 12  1  6  0  0  0
  3  4  1  0  0  0  0
  4  5  1  0  0  0  0
  4  6  1  1  0  0  0
  6  7  2  0  0  0  0
  6  8  1  0  0  0  0
  8  9  1  0  0  0  0
  8 17  1  0  0  0  0
  9 10  2  0  0  0  0
  9 11  1  0  0  0  0
 11 18  1  0  0  0  0
 11 19  1  0  0  0  0
 12 13  1  0  0  0  0
 13 14  1  0  0  0  0
 13 15  1  0  0  0  0
 13 16  1  0  0  0  0
M  CHG  1  13   1
M  END
>  <CHROM.0>
-62.99848368,171.92245523,-68.98696603,-44.97738676,-177.50121994,-70.19801379
-68.94342588,-59.06936811,-168.10799316

>  <CHROM.1>
55.53561027,-5.69517812,138.55366349,85.33478041,105.03625472,152.50206551
3.89962585,16.18910924,3.51668555,-2.68263075,0.35558102,-0.02343126

>  <Name>
P134782778

>  <RI>
3.58524e+07

>  <Rbt.Current_Directory>
/home/fstefaniak/projects/zuza/docking/adenine/4XNR

>  <Rbt.Executable>
rbdock ($Id: //depot/dev/client3/rdock/2013.1/src/exe/rbdock.cxx#4 $)

>  <Rbt.Library>
libRbt.so (2013.1, Build901 2013/11/27)

>  <Rbt.Parameter_File>
/home/fstefaniak/progs/rDock//data/scripts/dock_solv.prm

>  <Rbt.Receptor>
4xnr.prm

>  <SCORE>
-67.6379

>  <SCORE.INTER>
-48.5473

>  <SCORE.INTER.CONST>
1

>  <SCORE.INTER.POLAR>
-8.14706

>  <SCORE.INTER.ROT>
5

>  <SCORE.INTER.SOLV>
26.3005

>  <SCORE.INTER.VDW>
-20.9082

>  <SCORE.INTER.norm>
-3.73441

>  <SCORE.INTRA>
1.23233

>  <SCORE.INTRA.DIHEDRAL>
-0.116594

>  <SCORE.INTRA.DIHEDRAL.0>
3.87105

>  <SCORE.INTRA.POLAR>
0.874571

>  <SCORE.INTRA.POLAR.0>
-0.874571

>  <SCORE.INTRA.REPUL>
0

>  <SCORE.INTRA.REPUL.0>
0

>  <SCORE.INTRA.SOLV>
-2.94342

>  <SCORE.INTRA.SOLV.lig_0>
-36.5463

>  <SCORE.INTRA.VDW>
-0.211198

>  <SCORE.INTRA.VDW.0>
-0.982517

>  <SCORE.INTRA.norm>
0.0947949

>  <SCORE.RESTR>
0

>  <SCORE.RESTR.CAVITY>
0

>  <SCORE.RESTR.norm>
0

>  <SCORE.SYSTEM>
-20.3229

>  <SCORE.SYSTEM.CONST>
0

>  <SCORE.SYSTEM.DIHEDRAL>
5.35714

>  <SCORE.SYSTEM.POLAR>
-2.98772

>  <SCORE.SYSTEM.SOLV>
0.0717188

>  <SCORE.SYSTEM.VDW>
-5.39918

>  <SCORE.SYSTEM.norm>
-1.5633

>  <SCORE.heavy>
13

>  <SCORE.norm>
-5.20291

$$$$
P134782778
 OpenBabel12072022113D
libRbt.so/2013.1/901 2013/11/27
 19 19  0  0  0  0  0  0  0  0999 V2000
    2.7862   13.2249    3.8242 C   0  0  0  0  0  0  0  0  0  0  0  0
    1.7069   14.2199    4.2446 C   0  0  0  0  0  0  0  0  0  0  0  0
    2.3874   15.5956    4.3208 C   0  0  1  0  0  0  0  0  0  0  0  0
    3.6118   15.4419    3.3863 C   0  0  2  0  0  0  0  0  0  0  0  0
    4.0764   14.0244    3.7134 C   0  0  0  0  0  0  0  0  0  0  0  0
    4.6862   16.4969    3.6323 C   0  0  0  0  0  0  0  0  0  0  0  0
    4.4598   17.4511    4.3864 O   0  0  0  0  0  0  0  0  0  0  0  0
    5.8559   16.4426    2.9274 N   0  0  0  0  0  0  0  0  0  0  0  0
    6.4489   17.5684    2.4233 C   0  0  0  0  0  0  0  0  0  0  0  0
    7.2703   18.2662    2.9976 O   0  0  0  0  0  0  0  0  0  0  0  0
    6.0313   17.8586    1.1622 N   0  0  0  0  0  0  0  0  0  0  0  0
    1.4168   16.7165    3.9411 C   0  0  0  0  0  0  0  0  0  0  0  0
    0.1890   16.6566    4.7638 N   0  3  0  0  0  0  0  0  0  0  0  0
   -0.4850   15.9721    4.4012 H   0  0  0  0  0  0  0  0  0  0  0  0
    0.3934   16.3325    5.7315 H   0  0  0  0  0  0  0  0  0  0  0  0
   -0.2845   17.5638    4.8389 H   0  0  0  0  0  0  0  0  0  0  0  0
    6.5420   15.8450    3.3680 H   0  0  0  0  0  0  0  0  0  0  0  0
    5.3523   18.5970    1.0294 H   0  0  0  0  0  0  0  0  0  0  0  0
    6.7779   17.8652    0.4734 H   0  0  0  0  0  0  0  0  0  0  0  0
  1  2  1  0  0  0  0
  1  5  1  0  0  0  0
  2  3  1  0  0  0  0
  3 12  1  6  0  0  0
  3  4  1  0  0  0  0
  4  5  1  0  0  0  0
  4  6  1  1  0  0  0
  6  7  2  0  0  0  0
  6  8  1  0  0  0  0
  8  9  1  0  0  0  0
  8 17  1  0  0  0  0
  9 10  2  0  0  0  0
  9 11  1  0  0  0  0
 11 18  1  0  0  0  0
 11 19  1  0  0  0  0
 12 13  1  0  0  0  0
 13 14  1  0  0  0  0
 13 15  1  0  0  0  0
 13 16  1  0  0  0  0
M  CHG  1  13   1
M  END
>  <CHROM.0>
-59.59584313,-63.16558163,-71.43940907,-47.57210600,-176.34856679,-66.43699311
-169.82323623,-60.58158104,-168.22710404

>  <CHROM.1>
54.41545322,-8.94927731,138.60941846,89.97929678,102.29614324,-82.09428856
3.90471341,16.20323737,3.52119258,-2.69360671,0.35033955,-0.01750096

>  <Name>
P134782778

>  <RI>
3.58524e+07

>  <Rbt.Current_Directory>
/home/fstefaniak/projects/zuza/docking/adenine/4XNR

>  <Rbt.Executable>
rbdock ($Id: //depot/dev/client3/rdock/2013.1/src/exe/rbdock.cxx#4 $)

>  <Rbt.Library>
libRbt.so (2013.1, Build901 2013/11/27)

>  <Rbt.Parameter_File>
/home/fstefaniak/progs/rDock//data/scripts/dock_solv.prm

>  <Rbt.Receptor>
4xnr.prm

>  <SCORE>
-65.8872

>  <SCORE.INTER>
-46.6705

>  <SCORE.INTER.CONST>
1

>  <SCORE.INTER.POLAR>
-7.90805

>  <SCORE.INTER.ROT>
5

>  <SCORE.INTER.SOLV>
26.2225

>  <SCORE.INTER.VDW>
-20.4277

>  <SCORE.INTER.norm>
-3.59004

>  <SCORE.INTRA>
1.12846

>  <SCORE.INTRA.DIHEDRAL>
-0.531926

>  <SCORE.INTRA.DIHEDRAL.0>
3.87105

>  <SCORE.INTRA.POLAR>
0.874571

>  <SCORE.INTRA.POLAR.0>
-0.874571

>  <SCORE.INTRA.REPUL>
0

>  <SCORE.INTRA.REPUL.0>
0

>  <SCORE.INTRA.SOLV>
-2.83608

>  <SCORE.INTRA.SOLV.lig_0>
-36.5463

>  <SCORE.INTRA.VDW>
-0.161078

>  <SCORE.INTRA.VDW.0>
-0.982517

>  <SCORE.INTRA.norm>
0.0868045

>  <SCORE.RESTR>
0

>  <SCORE.RESTR.CAVITY>
0

>  <SCORE.RESTR.norm>
0

>  <SCORE.SYSTEM>
-20.3452

>  <SCORE.SYSTEM.CONST>
0

>  <SCORE.SYSTEM.DIHEDRAL>
4.80464

>  <SCORE.SYSTEM.POLAR>
-2.95435

>  <SCORE.SYSTEM.SOLV>
0.0452938

>  <SCORE.SYSTEM.VDW>
-5.33225

>  <SCORE.SYSTEM.norm>
-1.56501

>  <SCORE.heavy>
13

>  <SCORE.norm>
-5.06825

$$$$
P134782778
 OpenBabel12072022113D
libRbt.so/2013.1/901 2013/11/27
 19 19  0  0  0  0  0  0  0  0999 V2000
    2.8358   13.2471    3.8322 C   0  0  0  0  0  0  0  0  0  0  0  0
    1.7491   14.2346    4.2513 C   0  0  0  0  0  0  0  0  0  0  0  0
    2.4120   15.6203    4.2954 C   0  0  1  0  0  0  0  0  0  0  0  0
    3.6252   15.4673    3.3463 C   0  0  2  0  0  0  0  0  0  0  0  0
    4.1134   14.0618    3.6900 C   0  0  0  0  0  0  0  0  0  0  0  0
    4.6886   16.5404    3.5598 C   0  0  0  0  0  0  0  0  0  0  0  0
    4.4614   17.5018    4.3045 O   0  0  0  0  0  0  0  0  0  0  0  0
    5.8470   16.4927    2.8360 N   0  0  0  0  0  0  0  0  0  0  0  0
    6.4281   17.6222    2.3265 C   0  0  0  0  0  0  0  0  0  0  0  0
    7.2389   18.3336    2.8989 O   0  0  0  0  0  0  0  0  0  0  0  0
    6.0114   17.8990    1.0621 N   0  0  0  0  0  0  0  0  0  0  0  0
    1.4211   16.7217    3.9110 C   0  0  0  0  0  0  0  0  0  0  0  0
    0.1955   16.6441    4.7354 N   0  3  0  0  0  0  0  0  0  0  0  0
   -0.4725   15.9555    4.3691 H   0  0  0  0  0  0  0  0  0  0  0  0
    0.4046   16.3153    5.7004 H   0  0  0  0  0  0  0  0  0  0  0  0
   -0.2868   17.5461    4.8176 H   0  0  0  0  0  0  0  0  0  0  0  0
    6.5421   15.8958    3.2634 H   0  0  0  0  0  0  0  0  0  0  0  0
    5.3472   18.6490    0.9190 H   0  0  0  0  0  0  0  0  0  0  0  0
    6.7550   17.8782    0.3705 H   0  0  0  0  0  0  0  0  0  0  0  0
  1  2  1  0  0  0  0
  1  5  1  0  0  0  0
  2  3  1  0  0  0  0
  3 12  1  6  0  0  0
  3  4  1  0  0  0  0
  4  5  1  0  0  0  0
  4  6  1  1  0  0  0
  6  7  2  0  0  0  0
  6  8  1  0  0  0  0
  8  9  1  0  0  0  0
  8 17  1  0  0  0  0
  9 10  2  0  0  0  0
  9 11  1  0  0  0  0
 11 18  1  0  0  0  0
 11 19  1  0  0  0  0
 12 13  1  0  0  0  0
 13 14  1  0  0  0  0
 13 15  1  0  0  0  0
 13 16  1  0  0  0  0
M  CHG  1  13   1
M  END
>  <CHROM.0>
-65.70942002,-64.78995414,-72.25524838,50.98137527,-61.39113484,61.15176214
-173.97495030,-60.27068510,-167.27698019

>  <CHROM.1>
53.39131307,-8.72159829,139.77153382,88.62855034,104.32227378,-82.92863507
3.91192629,16.23536097,3.46855351,-2.67753602,0.35941774,-0.03860044

>  <Name>
P134782778

>  <RI>
3.58524e+07

>  <Rbt.Current_Directory>
/home/fstefaniak/projects/zuza/docking/adenine/4XNR

>  <Rbt.Executable>
rbdock ($Id: //depot/dev/client3/rdock/2013.1/src/exe/rbdock.cxx#4 $)

>  <Rbt.Library>
libRbt.so (2013.1, Build901 2013/11/27)

>  <Rbt.Parameter_File>
/home/fstefaniak/progs/rDock//data/scripts/dock_solv.prm

>  <Rbt.Receptor>
4xnr.prm

>  <SCORE>
-61.6464

>  <SCORE.INTER>
-46.9389

>  <SCORE.INTER.CONST>
1

>  <SCORE.INTER.POLAR>
-7.94702

>  <SCORE.INTER.ROT>
5

>  <SCORE.INTER.SOLV>
26.1462

>  <SCORE.INTER.VDW>
-20.4512

>  <SCORE.INTER.norm>
-3.61068

>  <SCORE.INTRA>
1.23048

>  <SCORE.INTRA.DIHEDRAL>
-0.418082

>  <SCORE.INTRA.DIHEDRAL.0>
3.87105

>  <SCORE.INTRA.POLAR>
0.874571

>  <SCORE.INTRA.POLAR.0>
-0.874571

>  <SCORE.INTRA.REPUL>
0

>  <SCORE.INTRA.REPUL.0>
0

>  <SCORE.INTRA.SOLV>
-2.82512

>  <SCORE.INTRA.SOLV.lig_0>
-36.5463

>  <SCORE.INTRA.VDW>
-0.121458

>  <SCORE.INTRA.VDW.0>
-0.982517

>  <SCORE.INTRA.norm>
0.0946523

>  <SCORE.RESTR>
0

>  <SCORE.RESTR.CAVITY>
0

>  <SCORE.RESTR.norm>
0

>  <SCORE.SYSTEM>
-15.9381

>  <SCORE.SYSTEM.CONST>
0

>  <SCORE.SYSTEM.DIHEDRAL>
4.32998

>  <SCORE.SYSTEM.POLAR>
-2.36509

>  <SCORE.SYSTEM.SOLV>
0.0345342

>  <SCORE.SYSTEM.VDW>
-4.19658

>  <SCORE.SYSTEM.norm>
-1.226

>  <SCORE.heavy>
13

>  <SCORE.norm>
-4.74203

$$$$
P134836611
 OpenBabel12072022113D
libRbt.so/2013.1/901 2013/11/27
 14 14  0  0  0  0  0  0  0  0999 V2000
    7.6242   18.2916    4.5159 C   0  0  0  0  0  0  0  0  0  0  0  0
    6.7885   17.6339    3.4080 C   0  0  1  0  0  0  0  0  0  0  0  0
    5.4767   17.3999    4.0960 C   0  0  0  0  0  0  0  0  0  0  0  0
    5.3803   18.1178    5.2222 C   0  0  0  0  0  0  0  0  0  0  0  0
    6.6083   18.9288    5.4784 C   0  0  2  0  0  0  0  0  0  0  0  0
    6.3482   20.3214    5.1265 N   0  0  0  0  0  0  0  0  0  0  0  0
    6.5782   18.4710    2.1446 C   0  0  0  0  0  0  0  0  0  0  0  0
    7.0427   19.6072    2.0226 O   0  0  0  0  0  0  0  0  0  0  0  0
    5.8925   17.8667    1.1184 N   0  0  0  0  0  0  0  0  0  0  0  0
    4.5025   17.6993    1.3325 O   0  0  0  0  0  0  0  0  0  0  0  0
    5.6762   20.3415    4.3558 H   0  0  0  0  0  0  0  0  0  0  0  0
    7.2037   20.7211    4.7340 H   0  0  0  0  0  0  0  0  0  0  0  0
    6.1988   17.9980    0.1479 H   0  0  0  0  0  0  0  0  0  0  0  0
    4.1813   17.4804    0.4303 H   0  0  0  0  0  0  0  0  0  0  0  0
  1  2  1  0  0  0  0
  1  5  1  0  0  0  0
  2  3  1  0  0  0  0
  2  7  1  6  0  0  0
  3  4  2  0  0  0  0
  4  5  1  0  0  0  0
  5  6  1  6  0  0  0
  6 11  1  0  0  0  0
  6 12  1  0  0  0  0
  7  8  2  0  0  0  0
  7  9  1  0  0  0  0
  9 10  1  0  0  0  0
  9 13  1  0  0  0  0
 10 14  1  0  0  0  0
M  END
>  <CHROM.0>
-56.46244940,-59.35092910,-68.29798936,-45.90143792,-173.68512756,-60.51071507
-68.32473992,-172.30637470,-167.28340683

>  <CHROM.1>
-0.41015033,80.59492233,72.35845998,166.07350227,6.19964734,18.47076672,3.35543287
-1.22437398,-0.80272024,-1.58242355

>  <Name>
P134836611

>  <RI>
9.71178e+06

>  <Rbt.Current_Directory>
/home/fstefaniak/projects/zuza/docking/adenine/4XNR

>  <Rbt.Executable>
rbdock ($Id: //depot/dev/client3/rdock/2013.1/src/exe/rbdock.cxx#4 $)

>  <Rbt.Library>
libRbt.so (2013.1, Build901 2013/11/27)

>  <Rbt.Parameter_File>
/home/fstefaniak/progs/rDock//data/scripts/dock_solv.prm

>  <Rbt.Receptor>
4xnr.prm

>  <SCORE>
-54.1333

>  <SCORE.INTER>
-35.729

>  <SCORE.INTER.CONST>
1

>  <SCORE.INTER.POLAR>
-5.38685

>  <SCORE.INTER.ROT>
3

>  <SCORE.INTER.SOLV>
15.9813

>  <SCORE.INTER.VDW>
-16.7902

>  <SCORE.INTER.norm>
-3.5729

>  <SCORE.INTRA>
2.36421

>  <SCORE.INTRA.DIHEDRAL>
-0.40485

>  <SCORE.INTRA.DIHEDRAL.0>
2.89922

>  <SCORE.INTRA.POLAR>
1

>  <SCORE.INTRA.POLAR.0>
-1

>  <SCORE.INTRA.REPUL>
-0.0619539

>  <SCORE.INTRA.REPUL.0>
0.0619539

>  <SCORE.INTRA.SOLV>
-0.531651

>  <SCORE.INTRA.SOLV.lig_0>
-17.3961

>  <SCORE.INTRA.VDW>
-0.257765

>  <SCORE.INTRA.VDW.0>
0.00616269

>  <SCORE.INTRA.norm>
0.236421

>  <SCORE.RESTR>
0

>  <SCORE.RESTR.CAVITY>
0

>  <SCORE.RESTR.norm>
0

>  <SCORE.SYSTEM>
-20.7685

>  <SCORE.SYSTEM.CONST>
0

>  <SCORE.SYSTEM.DIHEDRAL>
4.88284

>  <SCORE.SYSTEM.POLAR>
-3.0149

>  <SCORE.SYSTEM.SOLV>
-0.0217676

>  <SCORE.SYSTEM.VDW>
-5.41636

>  <SCORE.SYSTEM.norm>
-2.07685

>  <SCORE.heavy>
10

>  <SCORE.norm>
-5.41333

$$$$
P134836611
 OpenBabel12072022113D
libRbt.so/2013.1/901 2013/11/27
 14 14  0  0  0  0  0  0  0  0999 V2000
    7.5736   18.3109    4.5632 C   0  0  0  0  0  0  0  0  0  0  0  0
    6.7572   17.6458    3.4454 C   0  0  1  0  0  0  0  0  0  0  0  0
    5.4355   17.4111    4.1140 C   0  0  0  0  0  0  0  0  0  0  0  0
    5.3195   18.1339    5.2352 C   0  0  0  0  0  0  0  0  0  0  0  0
    6.5410   18.9496    5.5067 C   0  0  2  0  0  0  0  0  0  0  0  0
    6.2826   20.3398    5.1444 N   0  0  0  0  0  0  0  0  0  0  0  0
    6.5643   18.4765    2.1751 C   0  0  0  0  0  0  0  0  0  0  0  0
    7.0312   19.6118    2.0534 O   0  0  0  0  0  0  0  0  0  0  0  0
    5.8921   17.8674    1.1429 N   0  0  0  0  0  0  0  0  0  0  0  0
    4.5030   17.6823    1.3484 O   0  0  0  0  0  0  0  0  0  0  0  0
    5.6258   20.3544    4.3606 H   0  0  0  0  0  0  0  0  0  0  0  0
    7.1441   20.7414    4.7673 H   0  0  0  0  0  0  0  0  0  0  0  0
    6.2023   18.0056    0.1746 H   0  0  0  0  0  0  0  0  0  0  0  0
    4.1882   17.4712    0.4421 H   0  0  0  0  0  0  0  0  0  0  0  0
  1  2  1  0  0  0  0
  1  5  1  0  0  0  0
  2  3  1  0  0  0  0
  2  7  1  6  0  0  0
  3  4  2  0  0  0  0
  4  5  1  0  0  0  0
  5  6  1  6  0  0  0
  6 11  1  0  0  0  0
  6 12  1  0  0  0  0
  7  8  2  0  0  0  0
  7  9  1  0  0  0  0
  9 10  1  0  0  0  0
  9 13  1  0  0  0  0
 10 14  1  0  0  0  0
M  END
>  <CHROM.0>
-61.06813900,53.29524576,58.88850455,-46.73455423,-177.12472146,-62.97410041
53.15513167,-61.96687097,-168.21086132

>  <CHROM.1>
-0.17043192,80.35309124,71.37773767,165.54137356,6.16665570,18.47933850,3.38151662
-1.24649411,-0.80405063,-1.60506949

>  <Name>
P134836611

>  <RI>
9.71178e+06

>  <Rbt.Current_Directory>
/home/fstefaniak/projects/zuza/docking/adenine/4XNR

>  <Rbt.Executable>
rbdock ($Id: //depot/dev/client3/rdock/2013.1/src/exe/rbdock.cxx#4 $)

>  <Rbt.Library>
libRbt.so (2013.1, Build901 2013/11/27)

>  <Rbt.Parameter_File>
/home/fstefaniak/progs/rDock//data/scripts/dock_solv.prm

>  <Rbt.Receptor>
4xnr.prm

>  <SCORE>
-51.5847

>  <SCORE.INTER>
-35.741

>  <SCORE.INTER.CONST>
1

>  <SCORE.INTER.POLAR>
-5.38721

>  <SCORE.INTER.ROT>
3

>  <SCORE.INTER.SOLV>
16.0048

>  <SCORE.INTER.VDW>
-16.8049

>  <SCORE.INTER.norm>
-3.5741

>  <SCORE.INTRA>
2.37731

>  <SCORE.INTRA.DIHEDRAL>
-0.411029

>  <SCORE.INTRA.DIHEDRAL.0>
2.89922

>  <SCORE.INTRA.POLAR>
1

>  <SCORE.INTRA.POLAR.0>
-1

>  <SCORE.INTRA.REPUL>
-0.0619539

>  <SCORE.INTRA.REPUL.0>
0.0619539

>  <SCORE.INTRA.SOLV>
-0.522315

>  <SCORE.INTRA.SOLV.lig_0>
-17.3961

>  <SCORE.INTRA.VDW>
-0.24625

>  <SCORE.INTRA.VDW.0>
0.00616269

>  <SCORE.INTRA.norm>
0.237731

>  <SCORE.RESTR>
0

>  <SCORE.RESTR.CAVITY>
0

>  <SCORE.RESTR.norm>
0

>  <SCORE.SYSTEM>
-18.221

>  <SCORE.SYSTEM.CONST>
0

>  <SCORE.SYSTEM.DIHEDRAL>
4.09441

>  <SCORE.SYSTEM.POLAR>
-2.97694

>  <SCORE.SYSTEM.SOLV>
0.109162

>  <SCORE.SYSTEM.VDW>
-3.62538

>  <SCORE.SYSTEM.norm>
-1.8221

>  <SCORE.heavy>
10

>  <SCORE.norm>
-5.15847

$$$$
P134836611
 OpenBabel12072022113D
libRbt.so/2013.1/901 2013/11/27
 14 14  0  0  0  0  0  0  0  0999 V2000
    7.6407   18.3881    4.6493 C   0  0  0  0  0  0  0  0  0  0  0  0
    6.8646   17.6797    3.5293 C   0  0  1  0  0  0  0  0  0  0  0  0
    5.5382   17.4181    4.1783 C   0  0  0  0  0  0  0  0  0  0  0  0
    5.3807   18.1567    5.2840 C   0  0  0  0  0  0  0  0  0  0  0  0
    6.5729   19.0126    5.5625 C   0  0  2  0  0  0  0  0  0  0  0  0
    6.2808   20.3880    5.1705 N   0  0  0  0  0  0  0  0  0  0  0  0
    6.6710   18.4819    2.2409 C   0  0  0  0  0  0  0  0  0  0  0  0
    6.9951   19.6686    2.1491 O   0  0  0  0  0  0  0  0  0  0  0  0
    6.1710   17.7936    1.1618 N   0  0  0  0  0  0  0  0  0  0  0  0
    4.7723   17.5709    1.1786 O   0  0  0  0  0  0  0  0  0  0  0  0
    5.6195   20.3700    4.3906 H   0  0  0  0  0  0  0  0  0  0  0  0
    7.1308   20.8003    4.7791 H   0  0  0  0  0  0  0  0  0  0  0  0
    6.6133   17.8893    0.2409 H   0  0  0  0  0  0  0  0  0  0  0  0
    4.4210   18.4570    0.9409 H   0  0  0  0  0  0  0  0  0  0  0  0
  1  2  1  0  0  0  0
  1  5  1  0  0  0  0
  2  3  1  0  0  0  0
  2  7  1  6  0  0  0
  3  4  2  0  0  0  0
  4  5  1  0  0  0  0
  5  6  1  6  0  0  0
  6 11  1  0  0  0  0
  6 12  1  0  0  0  0
  7  8  2  0  0  0  0
  7  9  1  0  0  0  0
  9 10  1  0  0  0  0
  9 13  1  0  0  0  0
 10 14  1  0  0  0  0
M  END
>  <CHROM.0>
-53.12351410,-65.51070019,-67.96713970,-48.02392550,59.93885027,-176.99853230
-72.54154107,-176.12237440,-168.16198830

>  <CHROM.1>
-7.10218933,81.80620348,78.73266822,75.50836168,6.26804817,18.49704851,3.41911711
-1.28680256,-0.91137001,-1.63171866

>  <Name>
P134836611

>  <RI>
9.71178e+06

>  <Rbt.Current_Directory>
/home/fstefaniak/projects/zuza/docking/adenine/4XNR

>  <Rbt.Executable>
rbdock ($Id: //depot/dev/client3/rdock/2013.1/src/exe/rbdock.cxx#4 $)

>  <Rbt.Library>
libRbt.so (2013.1, Build901 2013/11/27)

>  <Rbt.Parameter_File>
/home/fstefaniak/progs/rDock//data/scripts/dock_solv.prm

>  <Rbt.Receptor>
4xnr.prm

>  <SCORE>
-51.2687

>  <SCORE.INTER>
-33.7236

>  <SCORE.INTER.CONST>
1

>  <SCORE.INTER.POLAR>
-5.15036

>  <SCORE.INTER.ROT>
3

>  <SCORE.INTER.SOLV>
16.273

>  <SCORE.INTER.VDW>
-16.3388

>  <SCORE.INTER.norm>
-3.37236

>  <SCORE.INTRA>
2.10094

>  <SCORE.INTRA.DIHEDRAL>
-0.52101

>  <SCORE.INTRA.DIHEDRAL.0>
2.89922

>  <SCORE.INTRA.POLAR>
1

>  <SCORE.INTRA.POLAR.0>
-1

>  <SCORE.INTRA.REPUL>
-0.0619539

>  <SCORE.INTRA.REPUL.0>
0.0619539

>  <SCORE.INTRA.SOLV>
-0.632561

>  <SCORE.INTRA.SOLV.lig_0>
-17.3961

>  <SCORE.INTRA.VDW>
-0.412506

>  <SCORE.INTRA.VDW.0>
0.00616269

>  <SCORE.INTRA.norm>
0.210094

>  <SCORE.RESTR>
0

>  <SCORE.RESTR.CAVITY>
0

>  <SCORE.RESTR.norm>
0

>  <SCORE.SYSTEM>
-19.6461

>  <SCORE.SYSTEM.CONST>
0

>  <SCORE.SYSTEM.DIHEDRAL>
4.86956

>  <SCORE.SYSTEM.POLAR>
-3.01077

>  <SCORE.SYSTEM.SOLV>
-0.182798

>  <SCORE.SYSTEM.VDW>
-4.62375

>  <SCORE.SYSTEM.norm>
-1.96461

>  <SCORE.heavy>
10

>  <SCORE.norm>
-5.12687

$$$$
P135102317
 OpenBabel12072022113D
libRbt.so/2013.1/901 2013/11/27
 13 13  0  0  0  0  0  0  0  0999 V2000
    3.8556   14.9942    3.4428 C   0  0  0  0  0  0  0  0  0  0  0  0
    3.1360   14.4165    4.6554 C   0  0  2  0  0  0  0  0  0  0  0  0
    3.1036   12.8970    4.6772 C   0  0  2  0  0  0  0  0  0  0  0  0
    1.8417   12.4798    3.9187 C   0  0  0  0  0  0  0  0  0  0  0  0
    1.0069   13.7401    3.7440 C   0  0  0  0  0  0  0  0  0  0  0  0
    1.6884   14.7648    4.5684 N   0  3  0  0  0  0  0  0  0  0  0  0
    1.3595   14.5390    5.5558 H   0  0  0  0  0  0  0  0  0  0  0  0
    1.4425   15.7435    4.4177 H   0  0  0  0  0  0  0  0  0  0  0  0
    3.1581   12.3710    6.1062 C   0  0  0  0  0  0  0  0  0  0  0  0
    3.2201   13.1802    7.0373 O   0  0  0  0  0  0  0  0  0  0  0  0
    3.1134   11.0270    6.3816 N   0  0  0  0  0  0  0  0  0  0  0  0
    3.2127   10.0316    5.4361 O   0  5  0  0  0  0  0  0  0  0  0  0
    3.2182   10.7407    7.3536 H   0  0  0  0  0  0  0  0  0  0  0  0
  2  1  1  6  0  0  0
  2  3  1  0  0  0  0
  2  6  1  0  0  0  0
  3  4  1  0  0  0  0
  3  9  1  1  0  0  0
  4  5  1  0  0  0  0
  5  6  1  0  0  0  0
  6  7  1  0  0  0  0
  6  8  1  0  0  0  0
  9 10  2  0  0  0  0
  9 11  1  0  0  0  0
 11 12  1  0  0  0  0
 11 13  1  0  0  0  0
M  CHG  2   6   1  12  -1
M  END
>  <CHROM.0>
-59.42629859,-45.26565092,-67.11083528,-50.08465684,-60.45396042,-64.88569603
-69.20112047,-59.54662370,-168.00902193

>  <CHROM.1>
-0.06883630,2.72820425,12.98005351,5.02515636,-1.88819431,0.97057940,2.87108636

>  <Name>
P135102317

>  <RI>
3.02409e+07

>  <Rbt.Current_Directory>
/home/fstefaniak/projects/zuza/docking/adenine/4XNR

>  <Rbt.Executable>
rbdock ($Id: //depot/dev/client3/rdock/2013.1/src/exe/rbdock.cxx#4 $)

>  <Rbt.Library>
libRbt.so (2013.1, Build901 2013/11/27)

>  <Rbt.Parameter_File>
/home/fstefaniak/progs/rDock//data/scripts/dock_solv.prm

>  <Rbt.Receptor>
4xnr.prm

>  <SCORE>
-39.4316

>  <SCORE.INTER>
-15.6369

>  <SCORE.INTER.CONST>
1

>  <SCORE.INTER.POLAR>
-2.1493

>  <SCORE.INTER.ROT>
1

>  <SCORE.INTER.SOLV>
14.5174

>  <SCORE.INTER.VDW>
-12.3661

>  <SCORE.INTER.norm>
-1.56369

>  <SCORE.INTRA>
-3.7367

>  <SCORE.INTRA.DIHEDRAL>
-0.100643

>  <SCORE.INTRA.DIHEDRAL.0>
0.650065

>  <SCORE.INTRA.POLAR>
0

>  <SCORE.INTRA.POLAR.0>
0

>  <SCORE.INTRA.REPUL>
0

>  <SCORE.INTRA.REPUL.0>
0

>  <SCORE.INTRA.SOLV>
-8.57734

>  <SCORE.INTRA.SOLV.lig_0>
-47.7374

>  <SCORE.INTRA.VDW>
0.602297

>  <SCORE.INTRA.VDW.0>
-0.705052

>  <SCORE.INTRA.norm>
-0.37367

>  <SCORE.RESTR>
0

>  <SCORE.RESTR.CAVITY>
0

>  <SCORE.RESTR.norm>
0

>  <SCORE.SYSTEM>
-20.058

>  <SCORE.SYSTEM.CONST>
0

>  <SCORE.SYSTEM.DIHEDRAL>
4.94786

>  <SCORE.SYSTEM.POLAR>
-2.92457

>  <SCORE.SYSTEM.SOLV>
0.320049

>  <SCORE.SYSTEM.VDW>
-5.37941

>  <SCORE.SYSTEM.norm>
-2.0058

>  <SCORE.heavy>
10

>  <SCORE.norm>
-3.94316

$$$$
P135102317
 OpenBabel12072022113D
libRbt.so/2013.1/901 2013/11/27
 13 13  0  0  0  0  0  0  0  0999 V2000
    4.1053   15.7337    3.1501 C   0  0  0  0  0  0  0  0  0  0  0  0
    3.4144   15.2041    4.4006 C   0  0  2  0  0  0  0  0  0  0  0  0
    2.9862   13.7499    4.2898 C   0  0  2  0  0  0  0  0  0  0  0  0
    1.5754   13.7578    3.6971 C   0  0  0  0  0  0  0  0  0  0  0  0
    1.0868   15.1973    3.7657 C   0  0  0  0  0  0  0  0  0  0  0  0
    2.1103   15.9085    4.5662 N   0  3  0  0  0  0  0  0  0  0  0  0
    1.8580   15.6484    5.5676 H   0  0  0  0  0  0  0  0  0  0  0  0
    2.1140   16.9285    4.5436 H   0  0  0  0  0  0  0  0  0  0  0  0
    3.0762   13.0505    5.6406 C   0  0  0  0  0  0  0  0  0  0  0  0
    3.4277   13.7041    6.6279 O   0  0  0  0  0  0  0  0  0  0  0  0
    2.7521   11.7250    5.7888 N   0  0  0  0  0  0  0  0  0  0  0  0
    2.5119   10.8578    4.7472 O   0  5  0  0  0  0  0  0  0  0  0  0
    2.8954   11.3037    6.7052 H   0  0  0  0  0  0  0  0  0  0  0  0
  2  1  1  6  0  0  0
  2  3  1  0  0  0  0
  2  6  1  0  0  0  0
  3  4  1  0  0  0  0
  3  9  1  1  0  0  0
  4  5  1  0  0  0  0
  5  6  1  0  0  0  0
  6  7  1  0  0  0  0
  6  8  1  0  0  0  0
  9 10  2  0  0  0  0
  9 11  1  0  0  0  0
 11 12  1  0  0  0  0
 11 13  1  0  0  0  0
M  CHG  2   6   1  12  -1
M  END
>  <CHROM.0>
-58.16553960,-50.01237201,-67.68619796,-45.33912281,-57.98530709,-62.38577892
-67.37151368,-63.04974037,-167.80318819

>  <CHROM.1>
1.93003786,2.70090904,13.87676221,4.69514961,-1.59952083,0.77316780,2.76333823

>  <Name>
P135102317

>  <RI>
3.02409e+07

>  <Rbt.Current_Directory>
/home/fstefaniak/projects/zuza/docking/adenine/4XNR

>  <Rbt.Executable>
rbdock ($Id: //depot/dev/client3/rdock/2013.1/src/exe/rbdock.cxx#4 $)

>  <Rbt.Library>
libRbt.so (2013.1, Build901 2013/11/27)

>  <Rbt.Parameter_File>
/home/fstefaniak/progs/rDock//data/scripts/dock_solv.prm

>  <Rbt.Receptor>
4xnr.prm

>  <SCORE>
-39.2511

>  <SCORE.INTER>
-15.3331

>  <SCORE.INTER.CONST>
1

>  <SCORE.INTER.POLAR>
-2.82867

>  <SCORE.INTER.ROT>
1

>  <SCORE.INTER.SOLV>
17.0783

>  <SCORE.INTER.VDW>
-10.7526

>  <SCORE.INTER.norm>
-1.53331

>  <SCORE.INTRA>
-3.78123

>  <SCORE.INTRA.DIHEDRAL>
-0.0953669

>  <SCORE.INTRA.DIHEDRAL.0>
0.650065

>  <SCORE.INTRA.POLAR>
0

>  <SCORE.INTRA.POLAR.0>
0

>  <SCORE.INTRA.REPUL>
0

>  <SCORE.INTRA.REPUL.0>
0

>  <SCORE.INTRA.SOLV>
-8.63371

>  <SCORE.INTRA.SOLV.lig_0>
-47.7374

>  <SCORE.INTRA.VDW>
0.583311

>  <SCORE.INTRA.VDW.0>
-0.705052

>  <SCORE.INTRA.norm>
-0.378123

>  <SCORE.RESTR>
0.25286

>  <SCORE.RESTR.CAVITY>
0.25286

>  <SCORE.RESTR.norm>
0.025286

>  <SCORE.SYSTEM>
-20.3897

>  <SCORE.SYSTEM.CONST>
0

>  <SCORE.SYSTEM.DIHEDRAL>
4.85776

>  <SCORE.SYSTEM.POLAR>
-3.01363

>  <SCORE.SYSTEM.SOLV>
0.31451

>  <SCORE.SYSTEM.VDW>
-5.27178

>  <SCORE.SYSTEM.norm>
-2.03897

>  <SCORE.heavy>
10

>  <SCORE.norm>
-3.92511

$$$$
P135102317
 OpenBabel12072022113D
libRbt.so/2013.1/901 2013/11/27
 13 13  0  0  0  0  0  0  0  0999 V2000
    4.1365   15.7513    3.1645 C   0  0  0  0  0  0  0  0  0  0  0  0
    3.4357   15.2236    4.4104 C   0  0  2  0  0  0  0  0  0  0  0  0
    3.0070   13.7696    4.2978 C   0  0  2  0  0  0  0  0  0  0  0  0
    1.6007   13.7782    3.6945 C   0  0  0  0  0  0  0  0  0  0  0  0
    1.1129   15.2183    3.7579 C   0  0  0  0  0  0  0  0  0  0  0  0
    2.1309   15.9293    4.5654 N   0  3  0  0  0  0  0  0  0  0  0  0
    1.8709   15.6704    5.5651 H   0  0  0  0  0  0  0  0  0  0  0  0
    2.1358   16.9493    4.5418 H   0  0  0  0  0  0  0  0  0  0  0  0
    3.0862   13.0715    5.6500 C   0  0  0  0  0  0  0  0  0  0  0  0
    3.4329   13.7253    6.6389 O   0  0  0  0  0  0  0  0  0  0  0  0
    2.7576   11.7470    5.7975 N   0  0  0  0  0  0  0  0  0  0  0  0
    2.5219   10.8793    4.7553 O   0  5  0  0  0  0  0  0  0  0  0  0
    2.8937   11.3265    6.7153 H   0  0  0  0  0  0  0  0  0  0  0  0
  2  1  1  6  0  0  0
  2  3  1  0  0  0  0
  2  6  1  0  0  0  0
  3  4  1  0  0  0  0
  3  9  1  1  0  0  0
  4  5  1  0  0  0  0
  5  6  1  0  0  0  0
  6  7  1  0  0  0  0
  6  8  1  0  0  0  0
  9 10  2  0  0  0  0
  9 11  1  0  0  0  0
 11 12  1  0  0  0  0
 11 13  1  0  0  0  0
M  CHG  2   6   1  12  -1
M  END
>  <CHROM.0>
-57.61293174,-50.05891363,-64.44203643,-47.55820171,-59.98070896,-63.78008991
-68.66328596,-173.53347748,-167.06940076

>  <CHROM.1>
1.81511968,2.71824305,13.89728537,4.70095698,-1.59335732,0.77855828,2.75781386

>  <Name>
P135102317

>  <RI>
3.02409e+07

>  <Rbt.Current_Directory>
/home/fstefaniak/projects/zuza/docking/adenine/4XNR

>  <Rbt.Executable>
rbdock ($Id: //depot/dev/client3/rdock/2013.1/src/exe/rbdock.cxx#4 $)

>  <Rbt.Library>
libRbt.so (2013.1, Build901 2013/11/27)

>  <Rbt.Parameter_File>
/home/fstefaniak/progs/rDock//data/scripts/dock_solv.prm

>  <Rbt.Receptor>
4xnr.prm

>  <SCORE>
-39.0781

>  <SCORE.INTER>
-15.2259

>  <SCORE.INTER.CONST>
1

>  <SCORE.INTER.POLAR>
-2.84999

>  <SCORE.INTER.ROT>
1

>  <SCORE.INTER.SOLV>
17.1884

>  <SCORE.INTER.VDW>
-10.6467

>  <SCORE.INTER.norm>
-1.52259

>  <SCORE.INTRA>
-3.77892

>  <SCORE.INTRA.DIHEDRAL>
-0.0961595

>  <SCORE.INTRA.DIHEDRAL.0>
0.650065

>  <SCORE.INTRA.POLAR>
0

>  <SCORE.INTRA.POLAR.0>
0

>  <SCORE.INTRA.REPUL>
0

>  <SCORE.INTRA.REPUL.0>
0

>  <SCORE.INTRA.SOLV>
-8.6305

>  <SCORE.INTRA.SOLV.lig_0>
-47.7374

>  <SCORE.INTRA.VDW>
0.584404

>  <SCORE.INTRA.VDW.0>
-0.705052

>  <SCORE.INTRA.norm>
-0.377892

>  <SCORE.RESTR>
0.230772

>  <SCORE.RESTR.CAVITY>
0.230772

>  <SCORE.RESTR.norm>
0.0230772

>  <SCORE.SYSTEM>
-20.3041

>  <SCORE.SYSTEM.CONST>
0

>  <SCORE.SYSTEM.DIHEDRAL>
4.75779

>  <SCORE.SYSTEM.POLAR>
-2.98382

>  <SCORE.SYSTEM.SOLV>
0.175903

>  <SCORE.SYSTEM.VDW>
-5.23457

>  <SCORE.SYSTEM.norm>
-2.03041

>  <SCORE.heavy>
10

>  <SCORE.norm>
-3.90781

$$$$
P135265592
 OpenBabel12072022113D
libRbt.so/2013.1/901 2013/11/27
 17 17  0  0  0  0  0  0  0  0999 V2000
    0.8988   12.9601    3.1161 C   0  0  0  0  0  0  0  0  0  0  0  0
    2.3010   12.5770    2.6124 C   0  0  0  0  0  0  0  0  0  0  0  0
    3.3020   13.1610    3.6273 C   0  0  2  0  0  0  0  0  0  0  0  0
    2.4870   13.0517    4.9217 C   0  0  0  0  0  0  0  0  0  0  0  0
    1.1042   13.5527    4.5116 C   0  0  1  0  0  0  0  0  0  0  0  0
    1.1369   15.0287    4.3968 N   0  3  0  0  0  0  0  0  0  0  0  0
    0.2525   15.4168    4.0120 H   0  0  0  0  0  0  0  0  0  0  0  0
    1.1140   15.4356    5.3531 H   0  0  0  0  0  0  0  0  0  0  0  0
    1.9280   15.4224    3.8829 H   0  0  0  0  0  0  0  0  0  0  0  0
    3.5991   14.5616    3.2382 N   0  0  0  0  0  0  0  0  0  0  0  0
    4.5789   15.2104    4.1585 C   0  0  0  0  0  0  0  0  0  0  0  0
    5.0126   16.5982    3.6653 C   0  0  0  0  0  0  0  0  0  0  0  0
    5.6026   16.7991    2.6024 O   0  0  0  0  0  0  0  0  0  0  0  0
    4.6878   17.6339    4.4883 N   0  0  0  0  0  0  0  0  0  0  0  0
    4.0783   14.5173    2.3283 H   0  0  0  0  0  0  0  0  0  0  0  0
    4.3151   17.5087    5.4219 H   0  0  0  0  0  0  0  0  0  0  0  0
    4.9954   18.5671    4.2385 H   0  0  0  0  0  0  0  0  0  0  0  0
  1  2  1  0  0  0  0
  1  5  1  0  0  0  0
  2  3  1  0  0  0  0
  3  4  1  0  0  0  0
  3 10  1  6  0  0  0
  4  5  1  0  0  0  0
  5  6  1  6  0  0  0
  6  7  1  0  0  0  0
  6  8  1  0  0  0  0
  6  9  1  0  0  0  0
 10 11  1  0  0  0  0
 10 15  1  0  0  0  0
 11 12  1  0  0  0  0
 12 13  2  0  0  0  0
 12 14  1  0  0  0  0
 14 16  1  0  0  0  0
 14 17  1  0  0  0  0
M  CHG  1   6   1
M  END
>  <CHROM.0>
-56.81841009,-62.41642096,-69.69850947,-45.59144939,-176.19946663,-62.10905879
-66.04254001,-58.41843776,-167.62608927

>  <CHROM.1>
-179.30423764,60.69456568,173.25164867,-62.02014061,3.16019066,14.72378685
3.75788213,-2.45902185,0.47922364,0.47921863

>  <Name>
P135265592

>  <RI>
3.58524e+07

>  <Rbt.Current_Directory>
/home/fstefaniak/projects/zuza/docking/adenine/4XNR

>  <Rbt.Executable>
rbdock ($Id: //depot/dev/client3/rdock/2013.1/src/exe/rbdock.cxx#4 $)

>  <Rbt.Library>
libRbt.so (2013.1, Build901 2013/11/27)

>  <Rbt.Parameter_File>
/home/fstefaniak/progs/rDock//data/scripts/dock_solv.prm

>  <Rbt.Receptor>
4xnr.prm

>  <SCORE>
-52.2082

>  <SCORE.INTER>
-31.7904

>  <SCORE.INTER.CONST>
1

>  <SCORE.INTER.POLAR>
-4.68685

>  <SCORE.INTER.ROT>
3

>  <SCORE.INTER.SOLV>
15.4487

>  <SCORE.INTER.VDW>
-16.3204

>  <SCORE.INTER.norm>
-2.89004

>  <SCORE.INTRA>
0.209159

>  <SCORE.INTRA.DIHEDRAL>
-1.21914

>  <SCORE.INTRA.DIHEDRAL.0>
2.89237

>  <SCORE.INTRA.POLAR>
0.748493

>  <SCORE.INTRA.POLAR.0>
-1.45607

>  <SCORE.INTRA.REPUL>
0

>  <SCORE.INTRA.REPUL.0>
0

>  <SCORE.INTRA.SOLV>
-3.49057

>  <SCORE.INTRA.SOLV.lig_0>
-28.0551

>  <SCORE.INTRA.VDW>
0.0191377

>  <SCORE.INTRA.VDW.0>
-0.741888

>  <SCORE.INTRA.norm>
0.0190145

>  <SCORE.RESTR>
0.265779

>  <SCORE.RESTR.CAVITY>
0.265779

>  <SCORE.RESTR.norm>
0.0241617

>  <SCORE.SYSTEM>
-20.8927

>  <SCORE.SYSTEM.CONST>
0

>  <SCORE.SYSTEM.DIHEDRAL>
4.51753

>  <SCORE.SYSTEM.POLAR>
-3.01565

>  <SCORE.SYSTEM.SOLV>
0.115172

>  <SCORE.SYSTEM.VDW>
-5.42052

>  <SCORE.SYSTEM.norm>
-1.89933

>  <SCORE.heavy>
11

>  <SCORE.norm>
-4.7462

$$$$
P135265592
 OpenBabel12072022113D
libRbt.so/2013.1/901 2013/11/27
 17 17  0  0  0  0  0  0  0  0999 V2000
    0.9128   12.9577    3.2090 C   0  0  0  0  0  0  0  0  0  0  0  0
    2.3087   12.6135    2.6617 C   0  0  0  0  0  0  0  0  0  0  0  0
    3.3242   13.2161    3.6510 C   0  0  2  0  0  0  0  0  0  0  0  0
    2.5507   13.0778    4.9679 C   0  0  0  0  0  0  0  0  0  0  0  0
    1.1443   13.5464    4.6021 C   0  0  1  0  0  0  0  0  0  0  0  0
    1.1366   15.0235    4.4970 N   0  3  0  0  0  0  0  0  0  0  0  0
    1.3633   15.4870    5.3995 H   0  0  0  0  0  0  0  0  0  0  0  0
    1.9556   15.3191    3.9291 H   0  0  0  0  0  0  0  0  0  0  0  0
    0.2891   15.4422    4.1080 H   0  0  0  0  0  0  0  0  0  0  0  0
    3.5746   14.6262    3.2634 N   0  0  0  0  0  0  0  0  0  0  0  0
    4.6608   15.2527    4.0730 C   0  0  0  0  0  0  0  0  0  0  0  0
    4.9948   16.6750    3.6006 C   0  0  0  0  0  0  0  0  0  0  0  0
    5.5315   16.9354    2.5225 O   0  0  0  0  0  0  0  0  0  0  0  0
    4.6422   17.6698    4.4616 N   0  0  0  0  0  0  0  0  0  0  0  0
    3.9389   14.6050    2.3010 H   0  0  0  0  0  0  0  0  0  0  0  0
    4.3131   17.5008    5.4046 H   0  0  0  0  0  0  0  0  0  0  0  0
    4.8859   18.6252    4.2251 H   0  0  0  0  0  0  0  0  0  0  0  0
  1  2  1  0  0  0  0
  1  5  1  0  0  0  0
  2  3  1  0  0  0  0
  3  4  1  0  0  0  0
  3 10  1  6  0  0  0
  4  5  1  0  0  0  0
  5  6  1  6  0  0  0
  6  7  1  0  0  0  0
  6  8  1  0  0  0  0
  6  9  1  0  0  0  0
 10 11  1  0  0  0  0
 10 15  1  0  0  0  0
 11 12  1  0  0  0  0
 12 13  2  0  0  0  0
 12 14  1  0  0  0  0
 14 16  1  0  0  0  0
 14 17  1  0  0  0  0
M  CHG  1   6   1
M  END
>  <CHROM.0>
-62.23363637,-67.00500101,-66.51873845,-48.37893884,-63.20510793,-64.39230783
-68.91326959,176.73838396,-168.45465145

>  <CHROM.1>
-173.67361310,-175.51302157,175.56612130,-68.43020726,3.16576960,14.76564956
3.77297396,-2.46427357,0.51901006,0.47646150

>  <Name>
P135265592

>  <RI>
3.58524e+07

>  <Rbt.Current_Directory>
/home/fstefaniak/projects/zuza/docking/adenine/4XNR

>  <Rbt.Executable>
rbdock ($Id: //depot/dev/client3/rdock/2013.1/src/exe/rbdock.cxx#4 $)

>  <Rbt.Library>
libRbt.so (2013.1, Build901 2013/11/27)

>  <Rbt.Parameter_File>
/home/fstefaniak/progs/rDock//data/scripts/dock_solv.prm

>  <Rbt.Receptor>
4xnr.prm

>  <SCORE>
-50.6676

>  <SCORE.INTER>
-29.9958

>  <SCORE.INTER.CONST>
1

>  <SCORE.INTER.POLAR>
-4.42315

>  <SCORE.INTER.ROT>
3

>  <SCORE.INTER.SOLV>
15.3907

>  <SCORE.INTER.VDW>
-15.9836

>  <SCORE.INTER.norm>
-2.72689

>  <SCORE.INTRA>
-0.14475

>  <SCORE.INTRA.DIHEDRAL>
-1.28896

>  <SCORE.INTRA.DIHEDRAL.0>
2.89237

>  <SCORE.INTRA.POLAR>
0.522822

>  <SCORE.INTRA.POLAR.0>
-1.45607

>  <SCORE.INTRA.REPUL>
0

>  <SCORE.INTRA.REPUL.0>
0

>  <SCORE.INTRA.SOLV>
-3.08321

>  <SCORE.INTRA.SOLV.lig_0>
-28.0551

>  <SCORE.INTRA.VDW>
0.26374

>  <SCORE.INTRA.VDW.0>
-0.741888

>  <SCORE.INTRA.norm>
-0.0131591

>  <SCORE.RESTR>
0.209372

>  <SCORE.RESTR.CAVITY>
0.209372

>  <SCORE.RESTR.norm>
0.0190338

>  <SCORE.SYSTEM>
-20.7364

>  <SCORE.SYSTEM.CONST>
0

>  <SCORE.SYSTEM.DIHEDRAL>
4.34248

>  <SCORE.SYSTEM.POLAR>
-2.93508

>  <SCORE.SYSTEM.SOLV>
0.121714

>  <SCORE.SYSTEM.VDW>
-5.52875

>  <SCORE.SYSTEM.norm>
-1.88513

>  <SCORE.heavy>
11

>  <SCORE.norm>
-4.60615

$$$$
P135265592
 OpenBabel12072022113D
libRbt.so/2013.1/901 2013/11/27
 17 17  0  0  0  0  0  0  0  0999 V2000
    0.9017   13.0045    3.1080 C   0  0  0  0  0  0  0  0  0  0  0  0
    2.3030   12.6279    2.5970 C   0  0  0  0  0  0  0  0  0  0  0  0
    3.3063   13.2113    3.6099 C   0  0  2  0  0  0  0  0  0  0  0  0
    2.4971   13.0943    4.9073 C   0  0  0  0  0  0  0  0  0  0  0  0
    1.1110   13.5924    4.5049 C   0  0  1  0  0  0  0  0  0  0  0  0
    1.1384   15.0690    4.3957 N   0  3  0  0  0  0  0  0  0  0  0  0
    0.2575   15.4543    4.0004 H   0  0  0  0  0  0  0  0  0  0  0  0
    1.1008   15.4723    5.3531 H   0  0  0  0  0  0  0  0  0  0  0  0
    1.9346   15.4680    3.8940 H   0  0  0  0  0  0  0  0  0  0  0  0
    3.5973   14.6144    3.2251 N   0  0  0  0  0  0  0  0  0  0  0  0
    4.7183   15.1994    4.0181 C   0  0  0  0  0  0  0  0  0  0  0  0
    5.0621   16.6291    3.5765 C   0  0  0  0  0  0  0  0  0  0  0  0
    5.6471   16.9051    2.5277 O   0  0  0  0  0  0  0  0  0  0  0  0
    4.6604   17.6121    4.4296 N   0  0  0  0  0  0  0  0  0  0  0  0
    3.9435   14.5863    2.2562 H   0  0  0  0  0  0  0  0  0  0  0  0
    4.2883   17.4305    5.3542 H   0  0  0  0  0  0  0  0  0  0  0  0
    4.9067   18.5718    4.2146 H   0  0  0  0  0  0  0  0  0  0  0  0
  1  2  1  0  0  0  0
  1  5  1  0  0  0  0
  2  3  1  0  0  0  0
  3  4  1  0  0  0  0
  3 10  1  6  0  0  0
  4  5  1  0  0  0  0
  5  6  1  6  0  0  0
  6  7  1  0  0  0  0
  6  8  1  0  0  0  0
  6  9  1  0  0  0  0
 10 11  1  0  0  0  0
 10 15  1  0  0  0  0
 11 12  1  0  0  0  0
 12 13  2  0  0  0  0
 12 14  1  0  0  0  0
 14 16  1  0  0  0  0
 14 17  1  0  0  0  0
M  CHG  1   6   1
M  END
>  <CHROM.0>
-51.20714439,-62.01776497,60.56772822,-45.13290481,-57.57570745,-59.50477871
53.97284593,-61.32967744,-168.05451668

>  <CHROM.1>
-171.07024017,59.67825918,177.38653761,-73.26528012,3.17899265,14.76255661
3.71830369,-2.47337531,0.47960836,0.46418482

>  <Name>
P135265592

>  <RI>
3.58524e+07

>  <Rbt.Current_Directory>
/home/fstefaniak/projects/zuza/docking/adenine/4XNR

>  <Rbt.Executable>
rbdock ($Id: //depot/dev/client3/rdock/2013.1/src/exe/rbdock.cxx#4 $)

>  <Rbt.Library>
libRbt.so (2013.1, Build901 2013/11/27)

>  <Rbt.Parameter_File>
/home/fstefaniak/progs/rDock//data/scripts/dock_solv.prm

>  <Rbt.Receptor>
4xnr.prm

>  <SCORE>
-49.7021

>  <SCORE.INTER>
-31.0788

>  <SCORE.INTER.CONST>
1

>  <SCORE.INTER.POLAR>
-4.59364

>  <SCORE.INTER.ROT>
3

>  <SCORE.INTER.SOLV>
15.6003

>  <SCORE.INTER.VDW>
-16.2072

>  <SCORE.INTER.norm>
-2.82535

>  <SCORE.INTRA>
-0.0472183

>  <SCORE.INTRA.DIHEDRAL>
-1.18385

>  <SCORE.INTRA.DIHEDRAL.0>
2.89237

>  <SCORE.INTRA.POLAR>
0.743643

>  <SCORE.INTRA.POLAR.0>
-1.45607

>  <SCORE.INTRA.REPUL>
0

>  <SCORE.INTRA.REPUL.0>
0

>  <SCORE.INTRA.SOLV>
-3.56854

>  <SCORE.INTRA.SOLV.lig_0>
-28.0551

>  <SCORE.INTRA.VDW>
-0.19941

>  <SCORE.INTRA.VDW.0>
-0.741888

>  <SCORE.INTRA.norm>
-0.00429257

>  <SCORE.RESTR>
0.228325

>  <SCORE.RESTR.CAVITY>
0.228325

>  <SCORE.RESTR.norm>
0.0207568

>  <SCORE.SYSTEM>
-18.8043

>  <SCORE.SYSTEM.CONST>
0

>  <SCORE.SYSTEM.DIHEDRAL>
4.34419

>  <SCORE.SYSTEM.POLAR>
-3.06845

>  <SCORE.SYSTEM.SOLV>
0.20798

>  <SCORE.SYSTEM.VDW>
-3.82545

>  <SCORE.SYSTEM.norm>
-1.70949

>  <SCORE.heavy>
11

>  <SCORE.norm>
-4.51837

$$$$
P135289872
 OpenBabel12072022113D
libRbt.so/2013.1/901 2013/11/27
 16 16  0  0  0  0  0  0  0  0999 V2000
    4.4016   16.0498    2.7199 C   0  0  0  0  0  0  0  0  0  0  0  0
    4.6372   16.0103    4.2292 C   0  0  0  0  0  0  0  0  0  0  0  0
    5.7512   17.0320    4.5106 C   0  0  1  0  0  0  0  0  0  0  0  0
    6.1231   17.6313    3.1513 C   0  0  0  0  0  0  0  0  0  0  0  0
    4.8617   17.4447    2.3147 C   0  0  1  0  0  0  0  0  0  0  0  0
    5.0779   17.5715    0.8924 N   0  0  0  0  0  0  0  0  0  0  0  0
    5.2220   18.0772    5.4323 N   0  3  0  0  0  0  0  0  0  0  0  0
    4.7343   18.8487    4.9286 H   0  0  0  0  0  0  0  0  0  0  0  0
    4.4875   17.6914    6.0393 H   0  0  0  0  0  0  0  0  0  0  0  0
    6.2147   18.7908    6.3129 C   0  0  0  0  0  0  0  0  0  0  0  0
    7.3739   19.2189    5.3946 C   0  0  0  0  0  0  0  0  0  0  0  0
    8.6591   18.9313    6.0666 N   0  0  0  0  0  0  0  0  0  0  0  0
    5.2530   18.5363    0.6099 H   0  0  0  0  0  0  0  0  0  0  0  0
    4.2748   17.2521    0.3512 H   0  0  0  0  0  0  0  0  0  0  0  0
    8.5684   18.0503    6.5895 H   0  0  0  0  0  0  0  0  0  0  0  0
    8.7835   19.6195    6.8222 H   0  0  0  0  0  0  0  0  0  0  0  0
  1  2  1  0  0  0  0
  1  5  1  0  0  0  0
  2  3  1  0  0  0  0
  3  4  1  0  0  0  0
  3  7  1  1  0  0  0
  4  5  1  0  0  0  0
  5  6  1  6  0  0  0
  6 13  1  0  0  0  0
  6 14  1  0  0  0  0
  7  8  1  0  0  0  0
  7  9  1  0  0  0  0
  7 10  1  0  0  0  0
 10 11  1  0  0  0  0
 11 12  1  0  0  0  0
 12 15  1  0  0  0  0
 12 16  1  0  0  0  0
M  CHG  1   7   1
M  END
>  <CHROM.0>
-58.65275610,46.55577663,-45.30594908,-46.07282889,-58.50610274,-69.23582082
-67.53770182,-56.13496870,-168.06999606

>  <CHROM.1>
-86.06621691,171.66984664,48.11250123,-136.19583324,37.06901673,5.84712338
17.70924370,4.11715307,2.31305320,-0.68993877,-1.51622180

>  <Name>
P135289872

>  <RI>
3.58524e+07

>  <Rbt.Current_Directory>
/home/fstefaniak/projects/zuza/docking/adenine/4XNR

>  <Rbt.Executable>
rbdock ($Id: //depot/dev/client3/rdock/2013.1/src/exe/rbdock.cxx#4 $)

>  <Rbt.Library>
libRbt.so (2013.1, Build901 2013/11/27)

>  <Rbt.Parameter_File>
/home/fstefaniak/progs/rDock//data/scripts/dock_solv.prm

>  <Rbt.Receptor>
4xnr.prm

>  <SCORE>
-59.0651

>  <SCORE.INTER>
-43.2

>  <SCORE.INTER.CONST>
1

>  <SCORE.INTER.POLAR>
-7.45958

>  <SCORE.INTER.ROT>
5

>  <SCORE.INTER.SOLV>
21.162

>  <SCORE.INTER.VDW>
-17.9221

>  <SCORE.INTER.norm>
-4.32

>  <SCORE.INTRA>
3.55557

>  <SCORE.INTRA.DIHEDRAL>
3.3771

>  <SCORE.INTRA.DIHEDRAL.0>
3.82453

>  <SCORE.INTRA.POLAR>
0.500058

>  <SCORE.INTRA.POLAR.0>
-0.500058

>  <SCORE.INTRA.REPUL>
0

>  <SCORE.INTRA.REPUL.0>
0

>  <SCORE.INTRA.SOLV>
-2.91385

>  <SCORE.INTRA.SOLV.lig_0>
-23.9648

>  <SCORE.INTRA.VDW>
1.62374

>  <SCORE.INTRA.VDW.0>
0.63085

>  <SCORE.INTRA.norm>
0.355557

>  <SCORE.RESTR>
0

>  <SCORE.RESTR.CAVITY>
0

>  <SCORE.RESTR.norm>
0

>  <SCORE.SYSTEM>
-19.4207

>  <SCORE.SYSTEM.CONST>
0

>  <SCORE.SYSTEM.DIHEDRAL>
6.15335

>  <SCORE.SYSTEM.POLAR>
-3.18795

>  <SCORE.SYSTEM.SOLV>
0.42178

>  <SCORE.SYSTEM.VDW>
-4.51234

>  <SCORE.SYSTEM.norm>
-1.94207

>  <SCORE.heavy>
10

>  <SCORE.norm>
-5.90651

$$$$
P135289872
 OpenBabel12072022113D
libRbt.so/2013.1/901 2013/11/27
 16 16  0  0  0  0  0  0  0  0999 V2000
    6.7301   18.5582    3.6211 C   0  0  0  0  0  0  0  0  0  0  0  0
    6.1569   17.1833    3.2801 C   0  0  0  0  0  0  0  0  0  0  0  0
    5.4360   16.6987    4.5487 C   0  0  1  0  0  0  0  0  0  0  0  0
    5.6154   17.8129    5.5839 C   0  0  0  0  0  0  0  0  0  0  0  0
    5.8256   19.0643    4.7379 C   0  0  1  0  0  0  0  0  0  0  0  0
    6.3999   20.1728    5.4642 N   0  0  0  0  0  0  0  0  0  0  0  0
    3.9951   16.4873    4.2307 N   0  3  0  0  0  0  0  0  0  0  0  0
    3.4076   16.3698    5.0837 H   0  0  0  0  0  0  0  0  0  0  0  0
    3.5939   17.3203    3.7816 H   0  0  0  0  0  0  0  0  0  0  0  0
    3.6415   15.2946    3.3807 C   0  0  0  0  0  0  0  0  0  0  0  0
    3.4088   14.1259    4.3555 C   0  0  0  0  0  0  0  0  0  0  0  0
    2.0533   14.2378    4.9351 N   0  0  0  0  0  0  0  0  0  0  0  0
    6.9148   20.8109    4.8569 H   0  0  0  0  0  0  0  0  0  0  0  0
    7.0548   19.8641    6.1823 H   0  0  0  0  0  0  0  0  0  0  0  0
    2.0833   14.9027    5.7192 H   0  0  0  0  0  0  0  0  0  0  0  0
    1.8372   13.3510    5.4116 H   0  0  0  0  0  0  0  0  0  0  0  0
  1  2  1  0  0  0  0
  1  5  1  0  0  0  0
  2  3  1  0  0  0  0
  3  4  1  0  0  0  0
  3  7  1  6  0  0  0
  4  5  1  0  0  0  0
  5  6  1  1  0  0  0
  6 13  1  0  0  0  0
  6 14  1  0  0  0  0
  7  8  1  0  0  0  0
  7  9  1  0  0  0  0
  7 10  1  0  0  0  0
 10 11  1  0  0  0  0
 11 12  1  0  0  0  0
 12 15  1  0  0  0  0
 12 16  1  0  0  0  0
M  CHG  1   7   1
M  END
>  <CHROM.0>
-56.31354466,-76.06789986,-68.24404964,-47.26234150,-56.68880110,-59.76749407
-72.05338543,-61.43351047,-168.54963175

>  <CHROM.1>
-166.92221620,37.53223629,89.35547621,79.97408962,-82.40372269,4.88413956
16.95659194,4.44219849,-0.62560777,-0.74058200,-2.31832686

>  <Name>
P135289872

>  <RI>
3.58524e+07

>  <Rbt.Current_Directory>
/home/fstefaniak/projects/zuza/docking/adenine/4XNR

>  <Rbt.Executable>
rbdock ($Id: //depot/dev/client3/rdock/2013.1/src/exe/rbdock.cxx#4 $)

>  <Rbt.Library>
libRbt.so (2013.1, Build901 2013/11/27)

>  <Rbt.Parameter_File>
/home/fstefaniak/progs/rDock//data/scripts/dock_solv.prm

>  <Rbt.Receptor>
4xnr.prm

>  <SCORE>
-52.7238

>  <SCORE.INTER>
-34.0711

>  <SCORE.INTER.CONST>
1

>  <SCORE.INTER.POLAR>
-4.45455

>  <SCORE.INTER.ROT>
5

>  <SCORE.INTER.SOLV>
16.8065

>  <SCORE.INTER.VDW>
-20.401

>  <SCORE.INTER.norm>
-3.40711

>  <SCORE.INTRA>
1.75299

>  <SCORE.INTRA.DIHEDRAL>
0.880579

>  <SCORE.INTRA.DIHEDRAL.0>
3.82453

>  <SCORE.INTRA.POLAR>
0.500058

>  <SCORE.INTRA.POLAR.0>
-0.500058

>  <SCORE.INTRA.REPUL>
0

>  <SCORE.INTRA.REPUL.0>
0

>  <SCORE.INTRA.SOLV>
-1.2317

>  <SCORE.INTRA.SOLV.lig_0>
-23.9648

>  <SCORE.INTRA.VDW>
0.228352

>  <SCORE.INTRA.VDW.0>
0.63085

>  <SCORE.INTRA.norm>
0.175299

>  <SCORE.RESTR>
0

>  <SCORE.RESTR.CAVITY>
0

>  <SCORE.RESTR.norm>
0

>  <SCORE.SYSTEM>
-20.4058

>  <SCORE.SYSTEM.CONST>
0

>  <SCORE.SYSTEM.DIHEDRAL>
5.71081

>  <SCORE.SYSTEM.POLAR>
-2.99209

>  <SCORE.SYSTEM.SOLV>
0.266044

>  <SCORE.SYSTEM.VDW>
-5.6225

>  <SCORE.SYSTEM.norm>
-2.04058

>  <SCORE.heavy>
10

>  <SCORE.norm>
-5.27238

$$$$
P135289872
 OpenBabel12072022113D
libRbt.so/2013.1/901 2013/11/27
 16 16  0  0  0  0  0  0  0  0999 V2000
    6.7368   18.7174    3.6049 C   0  0  0  0  0  0  0  0  0  0  0  0
    5.7709   18.0788    4.6021 C   0  0  0  0  0  0  0  0  0  0  0  0
    4.6969   17.3728    3.7584 C   0  0  1  0  0  0  0  0  0  0  0  0
    5.0789   17.6258    2.2971 C   0  0  0  0  0  0  0  0  0  0  0  0
    6.5842   17.8649    2.3514 C   0  0  1  0  0  0  0  0  0  0  0  0
    7.1188   18.5038    1.1715 N   0  0  0  0  0  0  0  0  0  0  0  0
    4.7186   15.9163    4.0752 N   0  3  0  0  0  0  0  0  0  0  0  0
    5.6437   15.4762    3.8830 H   0  0  0  0  0  0  0  0  0  0  0  0
    4.5883   15.7596    5.0828 H   0  0  0  0  0  0  0  0  0  0  0  0
    3.7395   15.0343    3.3449 C   0  0  0  0  0  0  0  0  0  0  0  0
    2.3393   15.4533    3.8291 C   0  0  0  0  0  0  0  0  0  0  0  0
    1.3241   14.5904    3.1883 N   0  0  0  0  0  0  0  0  0  0  0  0
    6.9170   17.9794    0.3198 H   0  0  0  0  0  0  0  0  0  0  0  0
    8.1324   18.6065    1.2156 H   0  0  0  0  0  0  0  0  0  0  0  0
    0.3902   14.9641    3.4028 H   0  0  0  0  0  0  0  0  0  0  0  0
    1.3152   13.6881    3.6842 H   0  0  0  0  0  0  0  0  0  0  0  0
  1  2  1  0  0  0  0
  1  5  1  0  0  0  0
  2  3  1  0  0  0  0
  3  4  1  0  0  0  0
  3  7  1  6  0  0  0
  4  5  1  0  0  0  0
  5  6  1  6  0  0  0
  6 13  1  0  0  0  0
  6 14  1  0  0  0  0
  7  8  1  0  0  0  0
  7  9  1  0  0  0  0
  7 10  1  0  0  0  0
 10 11  1  0  0  0  0
 11 12  1  0  0  0  0
 12 15  1  0  0  0  0
 12 16  1  0  0  0  0
M  CHG  1   7   1
M  END
>  <CHROM.0>
-56.15652938,-60.19297997,63.13711130,-46.74506612,-174.06395193,-66.86967155
-175.71290697,-59.01303731,-168.17566713

>  <CHROM.1>
-59.05027220,-173.28091092,-66.46724532,-177.89502145,-171.53592979,4.78626030
16.87110076,3.21261803,-0.12639513,0.66598953,1.48120568

>  <Name>
P135289872

>  <RI>
3.58524e+07

>  <Rbt.Current_Directory>
/home/fstefaniak/projects/zuza/docking/adenine/4XNR

>  <Rbt.Executable>
rbdock ($Id: //depot/dev/client3/rdock/2013.1/src/exe/rbdock.cxx#4 $)

>  <Rbt.Library>
libRbt.so (2013.1, Build901 2013/11/27)

>  <Rbt.Parameter_File>
/home/fstefaniak/progs/rDock//data/scripts/dock_solv.prm

>  <Rbt.Receptor>
4xnr.prm

>  <SCORE>
-52.0269

>  <SCORE.INTER>
-32.2647

>  <SCORE.INTER.CONST>
1

>  <SCORE.INTER.POLAR>
-4.57553

>  <SCORE.INTER.ROT>
5

>  <SCORE.INTER.SOLV>
16.9283

>  <SCORE.INTER.VDW>
-18.8341

>  <SCORE.INTER.norm>
-3.22647

>  <SCORE.INTRA>
-2.05831

>  <SCORE.INTRA.DIHEDRAL>
-3.22549

>  <SCORE.INTRA.DIHEDRAL.0>
3.82453

>  <SCORE.INTRA.POLAR>
0.500058

>  <SCORE.INTRA.POLAR.0>
-0.500058

>  <SCORE.INTRA.REPUL>
0

>  <SCORE.INTRA.REPUL.0>
0

>  <SCORE.INTRA.SOLV>
-3.38809

>  <SCORE.INTRA.SOLV.lig_0>
-23.9648

>  <SCORE.INTRA.VDW>
-0.45172

>  <SCORE.INTRA.VDW.0>
0.63085

>  <SCORE.INTRA.norm>
-0.205831

>  <SCORE.RESTR>
0

>  <SCORE.RESTR.CAVITY>
0

>  <SCORE.RESTR.norm>
0

>  <SCORE.SYSTEM>
-17.7038

>  <SCORE.SYSTEM.CONST>
0

>  <SCORE.SYSTEM.DIHEDRAL>
4.13563

>  <SCORE.SYSTEM.POLAR>
-2.54218

>  <SCORE.SYSTEM.SOLV>
-0.0308742

>  <SCORE.SYSTEM.VDW>
-4.69689

>  <SCORE.SYSTEM.norm>
-1.77038

>  <SCORE.heavy>
10

>  <SCORE.norm>
-5.20269

$$$$
P135363290
 OpenBabel12072022113D
libRbt.so/2013.1/901 2013/11/27
 17 17  0  0  0  0  0  0  0  0999 V2000
    0.7108   12.0017    1.6266 C   0  0  0  0  0  0  0  0  0  0  0  0
    1.2751   11.7633    2.9516 N   0  0  0  0  0  0  0  0  0  0  0  0
    2.7029   12.0653    3.0349 C   0  0  0  0  0  0  0  0  0  0  0  0
    3.0005   13.5619    3.1391 C   0  0  0  0  0  0  0  0  0  0  0  0
    2.1888   14.2685    4.2488 C   0  0  0  0  0  0  0  0  0  0  0  0
    0.6989   13.8774    4.1455 C   0  0  0  0  0  0  0  0  0  0  0  0
    0.4982   12.3655    4.0329 C   0  0  0  0  0  0  0  0  0  0  0  0
    2.3523   15.7832    4.0615 C   0  0  0  0  0  0  0  0  0  0  0  0
    3.2477   16.2928    3.2422 N   0  3  0  0  0  0  0  0  0  0  0  0
    3.3535   17.2936    3.1284 H   0  0  0  0  0  0  0  0  0  0  0  0
    3.8763   15.7048    2.7050 H   0  0  0  0  0  0  0  0  0  0  0  0
    1.5473   16.5260    4.7921 N   0  0  0  0  0  0  0  0  0  0  0  0
    2.7189   13.8613    5.5920 N   0  0  0  0  0  0  0  0  0  0  0  0
    0.9129   16.0102    5.4094 H   0  0  0  0  0  0  0  0  0  0  0  0
    1.5351   17.5349    4.7960 H   0  0  0  0  0  0  0  0  0  0  0  0
    2.1724   13.0723    5.9542 H   0  0  0  0  0  0  0  0  0  0  0  0
    2.5389   14.6046    6.2753 H   0  0  0  0  0  0  0  0  0  0  0  0
  1  2  1  0  0  0  0
  2  3  1  0  0  0  0
  2  7  1  0  0  0  0
  3  4  1  0  0  0  0
  4  5  1  0  0  0  0
  5  6  1  0  0  0  0
  5  8  1  0  0  0  0
  5 13  1  0  0  0  0
  6  7  1  0  0  0  0
  8  9  2  0  0  0  0
  8 12  1  0  0  0  0
  9 10  1  0  0  0  0
  9 11  1  0  0  0  0
 12 14  1  0  0  0  0
 12 15  1  0  0  0  0
 13 16  1  0  0  0  0
 13 17  1  0  0  0  0
M  CHG  1   9   1
M  END
>  <CHROM.0>
-57.37793642,-176.06261203,-65.95005169,-47.36151143,-57.91692667,-173.29549168
-66.31707451,59.49803454,-167.67189291

>  <CHROM.1>
-11.59631869,-94.49057730,1.90558198,13.88041564,3.72862235,-1.97988572,0.84261702
0.68327484

>  <Name>
P135363290

>  <RI>
3.58524e+07

>  <Rbt.Current_Directory>
/home/fstefaniak/projects/zuza/docking/adenine/4XNR

>  <Rbt.Executable>
rbdock ($Id: //depot/dev/client3/rdock/2013.1/src/exe/rbdock.cxx#4 $)

>  <Rbt.Library>
libRbt.so (2013.1, Build901 2013/11/27)

>  <Rbt.Parameter_File>
/home/fstefaniak/progs/rDock//data/scripts/dock_solv.prm

>  <Rbt.Receptor>
4xnr.prm

>  <SCORE>
-37.81

>  <SCORE.INTER>
-23.6137

>  <SCORE.INTER.CONST>
1

>  <SCORE.INTER.POLAR>
-4.1007

>  <SCORE.INTER.ROT>
2

>  <SCORE.INTER.SOLV>
15.9343

>  <SCORE.INTER.VDW>
-12.3183

>  <SCORE.INTER.norm>
-2.1467

>  <SCORE.INTRA>
3.66894

>  <SCORE.INTRA.DIHEDRAL>
0.486662

>  <SCORE.INTRA.DIHEDRAL.0>
1.90138

>  <SCORE.INTRA.POLAR>
0.276813

>  <SCORE.INTRA.POLAR.0>
-0.276813

>  <SCORE.INTRA.REPUL>
0

>  <SCORE.INTRA.REPUL.0>
0

>  <SCORE.INTRA.SOLV>
0.000302097

>  <SCORE.INTRA.SOLV.lig_0>
-29.7492

>  <SCORE.INTRA.VDW>
2.48429

>  <SCORE.INTRA.VDW.0>
-0.359228

>  <SCORE.INTRA.norm>
0.33354

>  <SCORE.RESTR>
1.64896

>  <SCORE.RESTR.CAVITY>
1.64896

>  <SCORE.RESTR.norm>
0.149905

>  <SCORE.SYSTEM>
-19.5141

>  <SCORE.SYSTEM.CONST>
0

>  <SCORE.SYSTEM.DIHEDRAL>
4.21513

>  <SCORE.SYSTEM.POLAR>
-2.99074

>  <SCORE.SYSTEM.SOLV>
-0.0166387

>  <SCORE.SYSTEM.VDW>
-4.4398

>  <SCORE.SYSTEM.norm>
-1.77401

>  <SCORE.heavy>
11

>  <SCORE.norm>
-3.43727

$$$$
P135363290
 OpenBabel12072022113D
libRbt.so/2013.1/901 2013/11/27
 17 17  0  0  0  0  0  0  0  0999 V2000
    3.6929   10.8464    3.7956 C   0  0  0  0  0  0  0  0  0  0  0  0
    2.5715   11.4339    4.5225 N   0  0  0  0  0  0  0  0  0  0  0  0
    2.9869   12.3060    5.6197 C   0  0  0  0  0  0  0  0  0  0  0  0
    3.4529   13.6860    5.1534 C   0  0  0  0  0  0  0  0  0  0  0  0
    2.4487   14.3796    4.2048 C   0  0  0  0  0  0  0  0  0  0  0  0
    2.0058   13.4012    3.0957 C   0  0  0  0  0  0  0  0  0  0  0  0
    1.5692   12.0455    3.6526 C   0  0  0  0  0  0  0  0  0  0  0  0
    3.1476   15.5985    3.5868 C   0  0  0  0  0  0  0  0  0  0  0  0
    4.2510   15.4857    2.8778 N   0  3  0  0  0  0  0  0  0  0  0  0
    4.7095   16.2955    2.4781 H   0  0  0  0  0  0  0  0  0  0  0  0
    4.6932   14.5868    2.7170 H   0  0  0  0  0  0  0  0  0  0  0  0
    2.5729   16.7568    3.8352 N   0  0  0  0  0  0  0  0  0  0  0  0
    1.2475   14.8234    4.9865 N   0  0  0  0  0  0  0  0  0  0  0  0
    1.7334   16.7142    4.4207 H   0  0  0  0  0  0  0  0  0  0  0  0
    2.9111   17.6514    3.5139 H   0  0  0  0  0  0  0  0  0  0  0  0
    1.5493   15.2732    5.8577 H   0  0  0  0  0  0  0  0  0  0  0  0
    0.7253   14.0039    5.3144 H   0  0  0  0  0  0  0  0  0  0  0  0
  1  2  1  0  0  0  0
  2  3  1  0  0  0  0
  2  7  1  0  0  0  0
  3  4  1  0  0  0  0
  4  5  1  0  0  0  0
  5  6  1  0  0  0  0
  5  8  1  0  0  0  0
  5 13  1  0  0  0  0
  6  7  1  0  0  0  0
  8  9  2  0  0  0  0
  8 12  1  0  0  0  0
  9 10  1  0  0  0  0
  9 11  1  0  0  0  0
 12 14  1  0  0  0  0
 12 15  1  0  0  0  0
 13 16  1  0  0  0  0
 13 17  1  0  0  0  0
M  CHG  1   9   1
M  END
>  <CHROM.0>
-56.73751181,-174.75443411,-68.84255503,-45.52204465,-57.26068573,-60.57059078
-67.82750778,-58.58902121,-167.23065150

>  <CHROM.1>
58.98834783,45.00792719,2.72666281,13.73282130,4.12197651,-1.59927205,0.59436835
-0.11981410

>  <Name>
P135363290

>  <RI>
3.58524e+07

>  <Rbt.Current_Directory>
/home/fstefaniak/projects/zuza/docking/adenine/4XNR

>  <Rbt.Executable>
rbdock ($Id: //depot/dev/client3/rdock/2013.1/src/exe/rbdock.cxx#4 $)

>  <Rbt.Library>
libRbt.so (2013.1, Build901 2013/11/27)

>  <Rbt.Parameter_File>
/home/fstefaniak/progs/rDock//data/scripts/dock_solv.prm

>  <Rbt.Receptor>
4xnr.prm

>  <SCORE>
-37.0911

>  <SCORE.INTER>
-17.0682

>  <SCORE.INTER.CONST>
1

>  <SCORE.INTER.POLAR>
-2.94532

>  <SCORE.INTER.ROT>
2

>  <SCORE.INTER.SOLV>
14.8741

>  <SCORE.INTER.VDW>
-11.4525

>  <SCORE.INTER.norm>
-1.55166

>  <SCORE.INTRA>
-0.315265

>  <SCORE.INTRA.DIHEDRAL>
-0.5018

>  <SCORE.INTRA.DIHEDRAL.0>
1.90138

>  <SCORE.INTRA.POLAR>
-0.0018992

>  <SCORE.INTRA.POLAR.0>
-0.276813

>  <SCORE.INTRA.REPUL>
0

>  <SCORE.INTRA.REPUL.0>
0

>  <SCORE.INTRA.SOLV>
0.0833202

>  <SCORE.INTRA.SOLV.lig_0>
-29.7492

>  <SCORE.INTRA.VDW>
-0.0995678

>  <SCORE.INTRA.VDW.0>
-0.359228

>  <SCORE.INTRA.norm>
-0.0286605

>  <SCORE.RESTR>
0.925284

>  <SCORE.RESTR.CAVITY>
0.925284

>  <SCORE.RESTR.norm>
0.0841167

>  <SCORE.SYSTEM>
-20.6329

>  <SCORE.SYSTEM.CONST>
0

>  <SCORE.SYSTEM.DIHEDRAL>
4.66302

>  <SCORE.SYSTEM.POLAR>
-3.02392

>  <SCORE.SYSTEM.SOLV>
0.267486

>  <SCORE.SYSTEM.VDW>
-5.31903

>  <SCORE.SYSTEM.norm>
-1.87572

>  <SCORE.heavy>
11

>  <SCORE.norm>
-3.37192

$$$$
P135363290
 OpenBabel12072022113D
libRbt.so/2013.1/901 2013/11/27
 17 17  0  0  0  0  0  0  0  0999 V2000
    3.3295   12.8084    5.7380 C   0  0  0  0  0  0  0  0  0  0  0  0
    2.7552   12.6673    4.4033 N   0  0  0  0  0  0  0  0  0  0  0  0
    1.2950   12.5993    4.4063 C   0  0  0  0  0  0  0  0  0  0  0  0
    0.6255   13.9623    4.5883 C   0  0  0  0  0  0  0  0  0  0  0  0
    1.1577   15.0373    3.6133 C   0  0  0  0  0  0  0  0  0  0  0  0
    2.7016   15.0332    3.6121 C   0  0  0  0  0  0  0  0  0  0  0  0
    3.2819   13.6291    3.4375 C   0  0  0  0  0  0  0  0  0  0  0  0
    0.6326   16.4014    4.0823 C   0  0  0  0  0  0  0  0  0  0  0  0
    0.2846   16.6234    5.3322 N   0  3  0  0  0  0  0  0  0  0  0  0
   -0.0664   17.5246    5.6327 H   0  0  0  0  0  0  0  0  0  0  0  0
    0.3397   15.8977    6.0392 H   0  0  0  0  0  0  0  0  0  0  0  0
    0.5406   17.3175    3.1410 N   0  0  0  0  0  0  0  0  0  0  0  0
    0.6576   14.7478    2.2287 N   0  0  0  0  0  0  0  0  0  0  0  0
    0.8181   17.0133    2.2031 H   0  0  0  0  0  0  0  0  0  0  0  0
    0.2040   18.2585    3.2803 H   0  0  0  0  0  0  0  0  0  0  0  0
   -0.3285   15.0207    2.1536 H   0  0  0  0  0  0  0  0  0  0  0  0
    0.6328   13.7342    2.0742 H   0  0  0  0  0  0  0  0  0  0  0  0
  1  2  1  0  0  0  0
  2  3  1  0  0  0  0
  2  7  1  0  0  0  0
  3  4  1  0  0  0  0
  4  5  1  0  0  0  0
  5  6  1  0  0  0  0
  5  8  1  0  0  0  0
  5 13  1  0  0  0  0
  6  7  1  0  0  0  0
  8  9  2  0  0  0  0
  8 12  1  0  0  0  0
  9 10  1  0  0  0  0
  9 11  1  0  0  0  0
 12 14  1  0  0  0  0
 12 15  1  0  0  0  0
 13 16  1  0  0  0  0
 13 17  1  0  0  0  0
M  CHG  1   9   1
M  END
>  <CHROM.0>
-56.66290930,52.06065352,-73.39397740,-48.62475886,-57.07635995,-63.80959097
-172.83088742,-177.50747366,-168.72605471

>  <CHROM.1>
24.20139219,76.19529391,1.54798464,14.64281748,4.05038442,0.26423477,-1.01468901
1.64844359

>  <Name>
P135363290

>  <RI>
3.58524e+07

>  <Rbt.Current_Directory>
/home/fstefaniak/projects/zuza/docking/adenine/4XNR

>  <Rbt.Executable>
rbdock ($Id: //depot/dev/client3/rdock/2013.1/src/exe/rbdock.cxx#4 $)

>  <Rbt.Library>
libRbt.so (2013.1, Build901 2013/11/27)

>  <Rbt.Parameter_File>
/home/fstefaniak/progs/rDock//data/scripts/dock_solv.prm

>  <Rbt.Receptor>
4xnr.prm

>  <SCORE>
-36.7492

>  <SCORE.INTER>
-18.7882

>  <SCORE.INTER.CONST>
1

>  <SCORE.INTER.POLAR>
-4.10005

>  <SCORE.INTER.ROT>
2

>  <SCORE.INTER.SOLV>
21.6703

>  <SCORE.INTER.VDW>
-11.0154

>  <SCORE.INTER.norm>
-1.70801

>  <SCORE.INTRA>
1.41565

>  <SCORE.INTRA.DIHEDRAL>
-0.0293705

>  <SCORE.INTRA.DIHEDRAL.0>
1.90138

>  <SCORE.INTRA.POLAR>
0.200559

>  <SCORE.INTRA.POLAR.0>
-0.276813

>  <SCORE.INTRA.REPUL>
0

>  <SCORE.INTRA.REPUL.0>
0

>  <SCORE.INTRA.SOLV>
-0.0822381

>  <SCORE.INTRA.SOLV.lig_0>
-29.7492

>  <SCORE.INTRA.VDW>
0.789557

>  <SCORE.INTRA.VDW.0>
-0.359228

>  <SCORE.INTRA.norm>
0.128696

>  <SCORE.RESTR>
0.0424096

>  <SCORE.RESTR.CAVITY>
0.0424096

>  <SCORE.RESTR.norm>
0.00385542

>  <SCORE.SYSTEM>
-19.4191

>  <SCORE.SYSTEM.CONST>
0

>  <SCORE.SYSTEM.DIHEDRAL>
4.80414

>  <SCORE.SYSTEM.POLAR>
-2.9703

>  <SCORE.SYSTEM.SOLV>
0.196637

>  <SCORE.SYSTEM.VDW>
-4.71198

>  <SCORE.SYSTEM.norm>
-1.76537

>  <SCORE.heavy>
11

>  <SCORE.norm>
-3.34083

$$$$
P135416025
 OpenBabel12072022113D
libRbt.so/2013.1/901 2013/11/27
 14 14  0  0  0  0  0  0  0  0999 V2000
    3.2881   14.7200    4.0922 C   0  0  0  0  0  0  0  0  0  0  0  0
    4.0099   15.8501    3.4048 C   0  0  0  0  0  0  0  0  0  0  0  0
    4.4170   15.7301    2.2502 O   0  0  0  0  0  0  0  0  0  0  0  0
    4.2320   17.1005    4.2325 C   0  0  0  0  0  0  0  0  0  0  0  0
    5.7086   17.3322    4.5699 C   0  0  2  0  0  0  0  0  0  0  0  0
    5.9229   17.9545    5.9587 C   0  0  0  0  0  0  0  0  0  0  0  0
    5.9391   19.4526    5.6856 C   0  0  0  0  0  0  0  0  0  0  0  0
    6.6662   19.5429    4.3555 C   0  0  0  0  0  0  0  0  0  0  0  0
    6.3064   18.3178    3.6578 N   0  0  0  0  0  0  0  0  0  0  0  0
    6.6808   17.9641    2.3916 C   0  0  0  0  0  0  0  0  0  0  0  0
    6.4740   16.8639    1.8922 O   0  0  0  0  0  0  0  0  0  0  0  0
    7.3334   18.9153    1.6813 N   0  0  0  0  0  0  0  0  0  0  0  0
    6.7902   19.4911    1.0588 H   0  0  0  0  0  0  0  0  0  0  0  0
    8.2105   18.5875    1.2977 H   0  0  0  0  0  0  0  0  0  0  0  0
  1  2  1  0  0  0  0
  2  3  2  0  0  0  0
  2  4  1  0  0  0  0
  5  6  1  0  0  0  0
  5  9  1  0  0  0  0
  5  4  1  6  0  0  0
  6  7  1  0  0  0  0
  7  8  1  0  0  0  0
  8  9  1  0  0  0  0
  9 10  1  0  0  0  0
 10 11  2  0  0  0  0
 10 12  1  0  0  0  0
 12 13  1  0  0  0  0
 12 14  1  0  0  0  0
M  END
>  <CHROM.0>
-61.02058244,-64.35324022,-66.66905296,-48.54960258,-175.56184762,-63.98327356
-70.12127637,-60.37820575,-168.32042750

>  <CHROM.1>
111.58633621,-145.14158981,-95.32111957,5.59208614,17.46755589,3.63001275
2.70628705,-0.82200071,-2.02955213

>  <Name>
P135416025

>  <RI>
4.17015e+07

>  <Rbt.Current_Directory>
/home/fstefaniak/projects/zuza/docking/adenine/4XNR

>  <Rbt.Executable>
rbdock ($Id: //depot/dev/client3/rdock/2013.1/src/exe/rbdock.cxx#4 $)

>  <Rbt.Library>
libRbt.so (2013.1, Build901 2013/11/27)

>  <Rbt.Parameter_File>
/home/fstefaniak/progs/rDock//data/scripts/dock_solv.prm

>  <Rbt.Receptor>
4xnr.prm

>  <SCORE>
-44.2336

>  <SCORE.INTER>
-25.9777

>  <SCORE.INTER.CONST>
1

>  <SCORE.INTER.POLAR>
-2.88575

>  <SCORE.INTER.ROT>
3

>  <SCORE.INTER.SOLV>
13.747

>  <SCORE.INTER.VDW>
-17.8816

>  <SCORE.INTER.norm>
-2.16481

>  <SCORE.INTRA>
2.71451

>  <SCORE.INTRA.DIHEDRAL>
4.12961

>  <SCORE.INTRA.DIHEDRAL.0>
2.19418

>  <SCORE.INTRA.POLAR>
0

>  <SCORE.INTRA.POLAR.0>
0

>  <SCORE.INTRA.REPUL>
0

>  <SCORE.INTRA.REPUL.0>
0

>  <SCORE.INTRA.SOLV>
0.846796

>  <SCORE.INTRA.SOLV.lig_0>
-13.9362

>  <SCORE.INTRA.VDW>
0.226305

>  <SCORE.INTRA.VDW.0>
-0.392096

>  <SCORE.INTRA.norm>
0.226209

>  <SCORE.RESTR>
0

>  <SCORE.RESTR.CAVITY>
0

>  <SCORE.RESTR.norm>
0

>  <SCORE.SYSTEM>
-20.9704

>  <SCORE.SYSTEM.CONST>
0

>  <SCORE.SYSTEM.DIHEDRAL>
4.26622

>  <SCORE.SYSTEM.POLAR>
-2.94169

>  <SCORE.SYSTEM.SOLV>
0.0888334

>  <SCORE.SYSTEM.VDW>
-5.62628

>  <SCORE.SYSTEM.norm>
-1.74753

>  <SCORE.heavy>
12

>  <SCORE.norm>
-3.68613

$$$$
P135416025
 OpenBabel12072022113D
libRbt.so/2013.1/901 2013/11/27
 14 14  0  0  0  0  0  0  0  0999 V2000
    3.2909   14.7206    4.1090 C   0  0  0  0  0  0  0  0  0  0  0  0
    3.9977   15.8533    3.4103 C   0  0  0  0  0  0  0  0  0  0  0  0
    4.3961   15.7311    2.2529 O   0  0  0  0  0  0  0  0  0  0  0  0
    4.2166   17.1092    4.2304 C   0  0  0  0  0  0  0  0  0  0  0  0
    5.6908   17.3382    4.5800 C   0  0  2  0  0  0  0  0  0  0  0  0
    5.8949   17.9569    5.9720 C   0  0  0  0  0  0  0  0  0  0  0  0
    5.9152   19.4555    5.7027 C   0  0  0  0  0  0  0  0  0  0  0  0
    6.6529   19.5481    4.3786 C   0  0  0  0  0  0  0  0  0  0  0  0
    6.2970   18.3252    3.6751 N   0  0  0  0  0  0  0  0  0  0  0  0
    6.6811   17.9741    2.4111 C   0  0  0  0  0  0  0  0  0  0  0  0
    6.4768   16.8754    1.9073 O   0  0  0  0  0  0  0  0  0  0  0  0
    7.3406   18.9262    1.7083 N   0  0  0  0  0  0  0  0  0  0  0  0
    6.7988   19.5235    1.1050 H   0  0  0  0  0  0  0  0  0  0  0  0
    8.2054   18.5894    1.3050 H   0  0  0  0  0  0  0  0  0  0  0  0
  1  2  1  0  0  0  0
  2  3  2  0  0  0  0
  2  4  1  0  0  0  0
  5  6  1  0  0  0  0
  5  9  1  0  0  0  0
  5  4  1  6  0  0  0
  6  7  1  0  0  0  0
  7  8  1  0  0  0  0
  8  9  1  0  0  0  0
  9 10  1  0  0  0  0
 10 11  2  0  0  0  0
 10 12  1  0  0  0  0
 12 13  1  0  0  0  0
 12 14  1  0  0  0  0
M  END
>  <CHROM.0>
-57.62710004,-63.01339136,-72.96677695,-47.75880593,-63.29656226,-62.19287236
-174.37224806,-64.11932145,-168.43824962

>  <CHROM.1>
110.34121282,-144.53081787,-93.41625341,5.58161897,17.47347625,3.64390447
2.70301453,-0.82051122,-2.03417269

>  <Name>
P135416025

>  <RI>
4.17015e+07

>  <Rbt.Current_Directory>
/home/fstefaniak/projects/zuza/docking/adenine/4XNR

>  <Rbt.Executable>
rbdock ($Id: //depot/dev/client3/rdock/2013.1/src/exe/rbdock.cxx#4 $)

>  <Rbt.Library>
libRbt.so (2013.1, Build901 2013/11/27)

>  <Rbt.Parameter_File>
/home/fstefaniak/progs/rDock//data/scripts/dock_solv.prm

>  <Rbt.Receptor>
4xnr.prm

>  <SCORE>
-43.5298

>  <SCORE.INTER>
-25.7701

>  <SCORE.INTER.CONST>
1

>  <SCORE.INTER.POLAR>
-2.85611

>  <SCORE.INTER.ROT>
3

>  <SCORE.INTER.SOLV>
13.7726

>  <SCORE.INTER.VDW>
-17.8505

>  <SCORE.INTER.norm>
-2.14751

>  <SCORE.INTRA>
2.54019

>  <SCORE.INTRA.DIHEDRAL>
4.1834

>  <SCORE.INTRA.DIHEDRAL.0>
2.19418

>  <SCORE.INTRA.POLAR>
0

>  <SCORE.INTRA.POLAR.0>
0

>  <SCORE.INTRA.REPUL>
0

>  <SCORE.INTRA.REPUL.0>
0

>  <SCORE.INTRA.SOLV>
0.829437

>  <SCORE.INTRA.SOLV.lig_0>
-13.9362

>  <SCORE.INTRA.VDW>
0.0337705

>  <SCORE.INTRA.VDW.0>
-0.392096

>  <SCORE.INTRA.norm>
0.211683

>  <SCORE.RESTR>
0

>  <SCORE.RESTR.CAVITY>
0

>  <SCORE.RESTR.norm>
0

>  <SCORE.SYSTEM>
-20.2999

>  <SCORE.SYSTEM.CONST>
0

>  <SCORE.SYSTEM.DIHEDRAL>
4.52193

>  <SCORE.SYSTEM.POLAR>
-2.9547

>  <SCORE.SYSTEM.SOLV>
0.21723

>  <SCORE.SYSTEM.VDW>
-5.26398

>  <SCORE.SYSTEM.norm>
-1.69166

>  <SCORE.heavy>
12

>  <SCORE.norm>
-3.62748

$$$$
P135416025
 OpenBabel12072022113D
libRbt.so/2013.1/901 2013/11/27
 14 14  0  0  0  0  0  0  0  0999 V2000
    3.3256   14.6879    4.0733 C   0  0  0  0  0  0  0  0  0  0  0  0
    4.0266   15.8417    3.4040 C   0  0  0  0  0  0  0  0  0  0  0  0
    4.4302   15.7496    2.2455 O   0  0  0  0  0  0  0  0  0  0  0  0
    4.2332   17.0798    4.2539 C   0  0  0  0  0  0  0  0  0  0  0  0
    5.7072   17.3262    4.5921 C   0  0  2  0  0  0  0  0  0  0  0  0
    5.9141   17.9555    5.9790 C   0  0  0  0  0  0  0  0  0  0  0  0
    5.9170   19.4526    5.7005 C   0  0  0  0  0  0  0  0  0  0  0  0
    6.6449   19.5447    4.3708 C   0  0  0  0  0  0  0  0  0  0  0  0
    6.2970   18.3138    3.6772 N   0  0  0  0  0  0  0  0  0  0  0  0
    6.6762   17.9590    2.4128 C   0  0  0  0  0  0  0  0  0  0  0  0
    6.4801   16.8552    1.9170 O   0  0  0  0  0  0  0  0  0  0  0  0
    7.3210   18.9136    1.6998 N   0  0  0  0  0  0  0  0  0  0  0  0
    6.7701   19.4964    1.0906 H   0  0  0  0  0  0  0  0  0  0  0  0
    8.1907   18.5856    1.2996 H   0  0  0  0  0  0  0  0  0  0  0  0
  1  2  1  0  0  0  0
  2  3  2  0  0  0  0
  2  4  1  0  0  0  0
  5  6  1  0  0  0  0
  5  9  1  0  0  0  0
  5  4  1  6  0  0  0
  6  7  1  0  0  0  0
  7  8  1  0  0  0  0
  8  9  1  0  0  0  0
  9 10  1  0  0  0  0
 10 11  2  0  0  0  0
 10 12  1  0  0  0  0
 12 13  1  0  0  0  0
 12 14  1  0  0  0  0
M  END
>  <CHROM.0>
-60.94823360,-64.25921198,-72.63623164,-46.65439788,-54.74969882,-63.21695054
-172.84605673,-55.41630574,-167.55604398

>  <CHROM.1>
111.43509553,-146.44304187,-93.92626509,5.59171998,17.46239942,3.64261413
2.68639333,-0.82780533,-2.03361831

>  <Name>
P135416025

>  <RI>
4.17015e+07

>  <Rbt.Current_Directory>
/home/fstefaniak/projects/zuza/docking/adenine/4XNR

>  <Rbt.Executable>
rbdock ($Id: //depot/dev/client3/rdock/2013.1/src/exe/rbdock.cxx#4 $)

>  <Rbt.Library>
libRbt.so (2013.1, Build901 2013/11/27)

>  <Rbt.Parameter_File>
/home/fstefaniak/progs/rDock//data/scripts/dock_solv.prm

>  <Rbt.Receptor>
4xnr.prm

>  <SCORE>
-43.4331

>  <SCORE.INTER>
-26.0562

>  <SCORE.INTER.CONST>
1

>  <SCORE.INTER.POLAR>
-2.89019

>  <SCORE.INTER.ROT>
3

>  <SCORE.INTER.SOLV>
13.7488

>  <SCORE.INTER.VDW>
-17.9198

>  <SCORE.INTER.norm>
-2.17135

>  <SCORE.INTRA>
2.8627

>  <SCORE.INTRA.DIHEDRAL>
3.95847

>  <SCORE.INTRA.DIHEDRAL.0>
2.19418

>  <SCORE.INTRA.POLAR>
0

>  <SCORE.INTRA.POLAR.0>
0

>  <SCORE.INTRA.REPUL>
0

>  <SCORE.INTRA.REPUL.0>
0

>  <SCORE.INTRA.SOLV>
0.871367

>  <SCORE.INTRA.SOLV.lig_0>
-13.9362

>  <SCORE.INTRA.VDW>
0.447783

>  <SCORE.INTRA.VDW.0>
-0.392096

>  <SCORE.INTRA.norm>
0.238558

>  <SCORE.RESTR>
0

>  <SCORE.RESTR.CAVITY>
0

>  <SCORE.RESTR.norm>
0

>  <SCORE.SYSTEM>
-20.2396

>  <SCORE.SYSTEM.CONST>
0

>  <SCORE.SYSTEM.DIHEDRAL>
4.92926

>  <SCORE.SYSTEM.POLAR>
-2.97971

>  <SCORE.SYSTEM.SOLV>
0.23273

>  <SCORE.SYSTEM.VDW>
-5.28135

>  <SCORE.SYSTEM.norm>
-1.68663

>  <SCORE.heavy>
12

>  <SCORE.norm>
-3.61942

$$$$
P135625956
 OpenBabel12072022113D
libRbt.so/2013.1/901 2013/11/27
 17 18  0  0  0  0  0  0  0  0999 V2000
    5.8936   17.1938    3.1553 C   0  0  0  0  0  0  0  0  0  0  0  0
    6.4745   18.6056    3.2999 C   0  0  0  0  0  0  0  0  0  0  0  0
    6.4971   18.8974    4.8023 C   0  0  1  0  0  0  0  0  0  0  0  0
    5.3034   18.0813    5.3193 C   0  0  0  0  0  0  0  0  0  0  0  0
    5.4140   16.7516    4.5546 C   0  0  1  0  0  0  0  0  0  0  0  0
    4.1717   15.9605    4.5181 N   0  0  0  0  0  0  0  0  0  0  0  0
    4.3798   14.6351    3.8864 C   0  0  0  0  0  0  0  0  0  0  0  0
    3.0683   13.8387    3.7837 C   0  0  0  0  0  0  0  0  0  0  0  0
    2.0763   14.5606    3.0443 O   0  0  0  0  0  0  0  0  0  0  0  0
    1.8211   15.8196    3.6773 C   0  0  0  0  0  0  0  0  0  0  0  0
    3.1018   16.6643    3.7695 C   0  0  0  0  0  0  0  0  0  0  0  0
    7.8388   18.4599    5.4443 C   0  0  0  0  0  0  0  0  0  0  0  0
    8.6303   19.6120    5.7335 O   0  0  0  0  0  0  0  0  0  0  0  0
    6.3111   20.3285    5.1060 N   0  0  0  0  0  0  0  0  0  0  0  0
    8.1363   20.0693    6.4465 H   0  0  0  0  0  0  0  0  0  0  0  0
    5.5145   20.6873    4.5764 H   0  0  0  0  0  0  0  0  0  0  0  0
    7.1193   20.8548    4.7691 H   0  0  0  0  0  0  0  0  0  0  0  0
  1  2  1  0  0  0  0
  2  3  1  0  0  0  0
  3  4  1  0  0  0  0
  3 14  1  0  0  0  0
  3 12  1  1  0  0  0
  4  5  1  0  0  0  0
  5  1  1  6  0  0  0
  5  6  1  0  0  0  0
  6  7  1  0  0  0  0
  6 11  1  0  0  0  0
  7  8  1  0  0  0  0
  8  9  1  0  0  0  0
  9 10  1  0  0  0  0
 10 11  1  0  0  0  0
 12 13  1  0  0  0  0
 13 15  1  0  0  0  0
 14 16  1  0  0  0  0
 14 17  1  0  0  0  0
M  END
>  <CHROM.0>
-56.53257101,-62.01866088,-65.79937230,-49.07728964,-175.33776455,57.20665760
-66.60359220,-171.74688471,-167.74097263

>  <CHROM.1>
48.08189042,105.76474419,67.96959109,67.55618097,5.08755599,17.13570155,4.30248236
-0.76148589,0.24550925,-3.05443031

>  <Name>
P135625956

>  <RI>
1.34432e+07

>  <Rbt.Current_Directory>
/home/fstefaniak/projects/zuza/docking/adenine/4XNR

>  <Rbt.Executable>
rbdock ($Id: //depot/dev/client3/rdock/2013.1/src/exe/rbdock.cxx#4 $)

>  <Rbt.Library>
libRbt.so (2013.1, Build901 2013/11/27)

>  <Rbt.Parameter_File>
/home/fstefaniak/progs/rDock//data/scripts/dock_solv.prm

>  <Rbt.Receptor>
4xnr.prm

>  <SCORE>
-46.9608

>  <SCORE.INTER>
-30.5627

>  <SCORE.INTER.CONST>
1

>  <SCORE.INTER.POLAR>
-4.79493

>  <SCORE.INTER.ROT>
3

>  <SCORE.INTER.SOLV>
15.1015

>  <SCORE.INTER.VDW>
-15.0259

>  <SCORE.INTER.norm>
-2.18305

>  <SCORE.INTRA>
3.36811

>  <SCORE.INTRA.DIHEDRAL>
1.68027

>  <SCORE.INTRA.DIHEDRAL.0>
2.84206

>  <SCORE.INTRA.POLAR>
0.376643

>  <SCORE.INTRA.POLAR.0>
-0.376643

>  <SCORE.INTRA.REPUL>
0

>  <SCORE.INTRA.REPUL.0>
0

>  <SCORE.INTRA.SOLV>
0.1305

>  <SCORE.INTRA.SOLV.lig_0>
-13.7969

>  <SCORE.INTRA.VDW>
1.18214

>  <SCORE.INTRA.VDW.0>
1.30305

>  <SCORE.INTRA.norm>
0.240579

>  <SCORE.RESTR>
0

>  <SCORE.RESTR.CAVITY>
0

>  <SCORE.RESTR.norm>
0

>  <SCORE.SYSTEM>
-19.7662

>  <SCORE.SYSTEM.CONST>
0

>  <SCORE.SYSTEM.DIHEDRAL>
4.21606

>  <SCORE.SYSTEM.POLAR>
-2.96651

>  <SCORE.SYSTEM.SOLV>
-0.150384

>  <SCORE.SYSTEM.VDW>
-4.64431

>  <SCORE.SYSTEM.norm>
-1.41187

>  <SCORE.heavy>
14

>  <SCORE.norm>
-3.35434

$$$$
P135625956
 OpenBabel12072022113D
libRbt.so/2013.1/901 2013/11/27
 17 18  0  0  0  0  0  0  0  0999 V2000
    5.9201   17.1603    3.2007 C   0  0  0  0  0  0  0  0  0  0  0  0
    6.4911   18.5770    3.3373 C   0  0  0  0  0  0  0  0  0  0  0  0
    6.4762   18.8920    4.8352 C   0  0  1  0  0  0  0  0  0  0  0  0
    5.2740   18.0783    5.3358 C   0  0  0  0  0  0  0  0  0  0  0  0
    5.4087   16.7375    4.5948 C   0  0  1  0  0  0  0  0  0  0  0  0
    4.1711   15.9400    4.5407 N   0  0  0  0  0  0  0  0  0  0  0  0
    4.3819   14.6396    3.8599 C   0  0  0  0  0  0  0  0  0  0  0  0
    3.0746   13.8388    3.7401 C   0  0  0  0  0  0  0  0  0  0  0  0
    2.0715   14.5801    3.0358 O   0  0  0  0  0  0  0  0  0  0  0  0
    1.8141   15.8139    3.7158 C   0  0  0  0  0  0  0  0  0  0  0  0
    3.0902   16.6632    3.8272 C   0  0  0  0  0  0  0  0  0  0  0  0
    7.8039   18.4708    5.5159 C   0  0  0  0  0  0  0  0  0  0  0  0
    8.6396   19.6154    5.6866 O   0  0  0  0  0  0  0  0  0  0  0  0
    6.2766   20.3267    5.1120 N   0  0  0  0  0  0  0  0  0  0  0  0
    8.1855   20.1427    6.3775 H   0  0  0  0  0  0  0  0  0  0  0  0
    5.5066   20.6789    4.5405 H   0  0  0  0  0  0  0  0  0  0  0  0
    7.1003   20.8488    4.8079 H   0  0  0  0  0  0  0  0  0  0  0  0
  1  2  1  0  0  0  0
  2  3  1  0  0  0  0
  3  4  1  0  0  0  0
  3 14  1  0  0  0  0
  3 12  1  1  0  0  0
  4  5  1  0  0  0  0
  5  1  1  6  0  0  0
  5  6  1  0  0  0  0
  6  7  1  0  0  0  0
  6 11  1  0  0  0  0
  7  8  1  0  0  0  0
  8  9  1  0  0  0  0
  9 10  1  0  0  0  0
 10 11  1  0  0  0  0
 12 13  1  0  0  0  0
 13 15  1  0  0  0  0
 14 16  1  0  0  0  0
 14 17  1  0  0  0  0
M  END
>  <CHROM.0>
-60.69962499,-61.38076460,60.32733939,-47.82313237,-57.84226241,-62.63073239
52.93462018,-173.75164406,-167.39936016

>  <CHROM.1>
46.67525519,100.08713454,64.47045953,69.79783942,5.08178173,17.13107071,4.31810445
-0.77069070,0.20991066,-3.01440114

>  <Name>
P135625956

>  <RI>
1.34432e+07

>  <Rbt.Current_Directory>
/home/fstefaniak/projects/zuza/docking/adenine/4XNR

>  <Rbt.Executable>
rbdock ($Id: //depot/dev/client3/rdock/2013.1/src/exe/rbdock.cxx#4 $)

>  <Rbt.Library>
libRbt.so (2013.1, Build901 2013/11/27)

>  <Rbt.Parameter_File>
/home/fstefaniak/progs/rDock//data/scripts/dock_solv.prm

>  <Rbt.Receptor>
4xnr.prm

>  <SCORE>
-45.8966

>  <SCORE.INTER>
-30.1705

>  <SCORE.INTER.CONST>
1

>  <SCORE.INTER.POLAR>
-4.74245

>  <SCORE.INTER.ROT>
3

>  <SCORE.INTER.SOLV>
15.1689

>  <SCORE.INTER.VDW>
-14.9618

>  <SCORE.INTER.norm>
-2.15503

>  <SCORE.INTRA>
3.16243

>  <SCORE.INTRA.DIHEDRAL>
1.18881

>  <SCORE.INTRA.DIHEDRAL.0>
2.84206

>  <SCORE.INTRA.POLAR>
0.376643

>  <SCORE.INTRA.POLAR.0>
-0.376643

>  <SCORE.INTRA.REPUL>
0

>  <SCORE.INTRA.REPUL.0>
0

>  <SCORE.INTRA.SOLV>
0.138858

>  <SCORE.INTRA.SOLV.lig_0>
-13.7969

>  <SCORE.INTRA.VDW>
1.21802

>  <SCORE.INTRA.VDW.0>
1.30305

>  <SCORE.INTRA.norm>
0.225888

>  <SCORE.RESTR>
0

>  <SCORE.RESTR.CAVITY>
0

>  <SCORE.RESTR.norm>
0

>  <SCORE.SYSTEM>
-18.8886

>  <SCORE.SYSTEM.CONST>
0

>  <SCORE.SYSTEM.DIHEDRAL>
3.98691

>  <SCORE.SYSTEM.POLAR>
-2.94405

>  <SCORE.SYSTEM.SOLV>
0.0493232

>  <SCORE.SYSTEM.VDW>
-4.12432

>  <SCORE.SYSTEM.norm>
-1.34919

>  <SCORE.heavy>
14

>  <SCORE.norm>
-3.27833

$$$$
P135625956
 OpenBabel12072022113D
libRbt.so/2013.1/901 2013/11/27
 17 18  0  0  0  0  0  0  0  0999 V2000
    5.8874   17.2259    3.1623 C   0  0  0  0  0  0  0  0  0  0  0  0
    6.4686   18.6365    3.3172 C   0  0  0  0  0  0  0  0  0  0  0  0
    6.4891   18.9183    4.8216 C   0  0  1  0  0  0  0  0  0  0  0  0
    5.2943   18.0992    5.3313 C   0  0  0  0  0  0  0  0  0  0  0  0
    5.4054   16.7746    4.5580 C   0  0  1  0  0  0  0  0  0  0  0  0
    4.1629   15.9842    4.5144 N   0  0  0  0  0  0  0  0  0  0  0  0
    4.3810   14.6458    3.9144 C   0  0  0  0  0  0  0  0  0  0  0  0
    3.0705   13.8489    3.8035 C   0  0  0  0  0  0  0  0  0  0  0  0
    2.0937   14.5563    3.0305 O   0  0  0  0  0  0  0  0  0  0  0  0
    1.8285   15.8284    3.6322 C   0  0  0  0  0  0  0  0  0  0  0  0
    3.1084   16.6735    3.7312 C   0  0  0  0  0  0  0  0  0  0  0  0
    7.8296   18.4760    5.4625 C   0  0  0  0  0  0  0  0  0  0  0  0
    8.6362   19.6235    5.7275 O   0  0  0  0  0  0  0  0  0  0  0  0
    6.3031   20.3474    5.1345 N   0  0  0  0  0  0  0  0  0  0  0  0
    8.1532   20.0973    6.4372 H   0  0  0  0  0  0  0  0  0  0  0  0
    5.5136   20.7124    4.5987 H   0  0  0  0  0  0  0  0  0  0  0  0
    7.1164   20.8743    4.8111 H   0  0  0  0  0  0  0  0  0  0  0  0
  1  2  1  0  0  0  0
  2  3  1  0  0  0  0
  3  4  1  0  0  0  0
  3 14  1  0  0  0  0
  3 12  1  1  0  0  0
  4  5  1  0  0  0  0
  5  1  1  6  0  0  0
  5  6  1  0  0  0  0
  6  7  1  0  0  0  0
  6 11  1  0  0  0  0
  7  8  1  0  0  0  0
  8  9  1  0  0  0  0
  9 10  1  0  0  0  0
 10 11  1  0  0  0  0
 12 13  1  0  0  0  0
 13 15  1  0  0  0  0
 14 16  1  0  0  0  0
 14 17  1  0  0  0  0
M  END
>  <CHROM.0>
-58.91224956,42.81463851,61.04492884,-46.93218336,-174.77325173,-61.41758759
53.03324662,-59.11550419,-168.69778223

>  <CHROM.1>
47.49443997,104.20928504,69.83482601,67.68792539,5.08636438,17.15190057,4.30560504
-0.75925042,0.26542024,-3.07098781

>  <Name>
P135625956

>  <RI>
1.34432e+07

>  <Rbt.Current_Directory>
/home/fstefaniak/projects/zuza/docking/adenine/4XNR

>  <Rbt.Executable>
rbdock ($Id: //depot/dev/client3/rdock/2013.1/src/exe/rbdock.cxx#4 $)

>  <Rbt.Library>
libRbt.so (2013.1, Build901 2013/11/27)

>  <Rbt.Parameter_File>
/home/fstefaniak/progs/rDock//data/scripts/dock_solv.prm

>  <Rbt.Receptor>
4xnr.prm

>  <SCORE>
-44.6698

>  <SCORE.INTER>
-30.0979

>  <SCORE.INTER.CONST>
1

>  <SCORE.INTER.POLAR>
-4.7923

>  <SCORE.INTER.ROT>
3

>  <SCORE.INTER.SOLV>
15.0749

>  <SCORE.INTER.VDW>
-14.7159

>  <SCORE.INTER.norm>
-2.14985

>  <SCORE.INTRA>
3.3347

>  <SCORE.INTRA.DIHEDRAL>
1.58633

>  <SCORE.INTRA.DIHEDRAL.0>
2.84206

>  <SCORE.INTRA.POLAR>
0.376643

>  <SCORE.INTRA.POLAR.0>
-0.376643

>  <SCORE.INTRA.REPUL>
0

>  <SCORE.INTRA.REPUL.0>
0

>  <SCORE.INTRA.SOLV>
0.132753

>  <SCORE.INTRA.SOLV.lig_0>
-13.7969

>  <SCORE.INTRA.VDW>
1.19457

>  <SCORE.INTRA.VDW.0>
1.30305

>  <SCORE.INTRA.norm>
0.238193

>  <SCORE.RESTR>
0

>  <SCORE.RESTR.CAVITY>
0

>  <SCORE.RESTR.norm>
0

>  <SCORE.SYSTEM>
-17.9066

>  <SCORE.SYSTEM.CONST>
0

>  <SCORE.SYSTEM.DIHEDRAL>
5.18787

>  <SCORE.SYSTEM.POLAR>
-3.045

>  <SCORE.SYSTEM.SOLV>
0.148794

>  <SCORE.SYSTEM.VDW>
-3.5666

>  <SCORE.SYSTEM.norm>
-1.27904

>  <SCORE.heavy>
14

>  <SCORE.norm>
-3.1907

$$$$
P135648622
 OpenBabel12072022113D
libRbt.so/2013.1/901 2013/11/27
 18 18  0  0  0  0  0  0  0  0999 V2000
    4.8453   17.7264    1.8593 C   0  0  0  0  0  0  0  0  0  0  0  0
    6.3477   18.0686    1.7895 C   0  0  0  0  0  0  0  0  0  0  0  0
    6.7491   18.9571    2.8635 O   0  0  0  0  0  0  0  0  0  0  0  0
    6.4421   18.3653    4.1601 C   0  0  2  0  0  0  0  0  0  0  0  0
    4.9253   18.1433    4.2524 C   0  0  0  0  0  0  0  0  0  0  0  0
    4.5241   17.2180    3.1992 N   0  0  0  0  0  0  0  0  0  0  0  0
    4.6183   15.8760    3.5082 C   0  0  0  0  0  0  0  0  0  0  0  0
    3.8079   15.2984    4.2250 O   0  0  0  0  0  0  0  0  0  0  0  0
    5.6939   15.2334    3.0034 N   0  0  0  0  0  0  0  0  0  0  0  0
    6.9084   19.2974    5.2406 C   0  0  0  0  0  0  0  0  0  0  0  0
    7.8969   18.9391    6.0361 N   0  3  0  0  0  0  0  0  0  0  0  0
    8.2461   19.5449    6.7691 H   0  0  0  0  0  0  0  0  0  0  0  0
    8.3637   18.0400    5.9276 H   0  0  0  0  0  0  0  0  0  0  0  0
    6.3077   20.4670    5.3249 N   0  0  0  0  0  0  0  0  0  0  0  0
    5.5302   14.3086    2.6280 H   0  0  0  0  0  0  0  0  0  0  0  0
    6.5100   15.2795    3.6041 H   0  0  0  0  0  0  0  0  0  0  0  0
    6.5460   21.1824    5.9975 H   0  0  0  0  0  0  0  0  0  0  0  0
    5.5792   20.6644    4.6353 H   0  0  0  0  0  0  0  0  0  0  0  0
  1  2  1  0  0  0  0
  1  6  1  0  0  0  0
  2  3  1  0  0  0  0
  3  4  1  0  0  0  0
  4  5  1  0  0  0  0
  4 10  1  1  0  0  0
  5  6  1  0  0  0  0
  6  7  1  0  0  0  0
  7  8  2  0  0  0  0
  7  9  1  0  0  0  0
  9 15  1  0  0  0  0
  9 16  1  0  0  0  0
 10 11  2  0  0  0  0
 10 14  1  0  0  0  0
 11 12  1  0  0  0  0
 11 13  1  0  0  0  0
 14 17  1  0  0  0  0
 14 18  1  0  0  0  0
M  CHG  1  11   1
M  END
>  <CHROM.0>
-56.69838153,63.32928853,-72.30810886,-47.67457746,-58.02165026,-63.22846867
-172.37651039,-60.95517048,-168.19582776

>  <CHROM.1>
-113.57822138,-141.01391861,-138.24395588,5.77668120,17.79839255,3.80662192
-2.88694885,1.03835210,1.78279774

>  <Name>
P135648622

>  <RI>
3.58524e+07

>  <Rbt.Current_Directory>
/home/fstefaniak/projects/zuza/docking/adenine/4XNR

>  <Rbt.Executable>
rbdock ($Id: //depot/dev/client3/rdock/2013.1/src/exe/rbdock.cxx#4 $)

>  <Rbt.Library>
libRbt.so (2013.1, Build901 2013/11/27)

>  <Rbt.Parameter_File>
/home/fstefaniak/progs/rDock//data/scripts/dock_solv.prm

>  <Rbt.Receptor>
4xnr.prm

>  <SCORE>
-55.2015

>  <SCORE.INTER>
-35.2112

>  <SCORE.INTER.CONST>
1

>  <SCORE.INTER.POLAR>
-6.60402

>  <SCORE.INTER.ROT>
3

>  <SCORE.INTER.SOLV>
26.0726

>  <SCORE.INTER.VDW>
-15.7516

>  <SCORE.INTER.norm>
-2.93427

>  <SCORE.INTRA>
-0.553791

>  <SCORE.INTRA.DIHEDRAL>
0.0171729

>  <SCORE.INTRA.DIHEDRAL.0>
2.17469

>  <SCORE.INTRA.POLAR>
0.172921

>  <SCORE.INTRA.POLAR.0>
-0.183781

>  <SCORE.INTRA.REPUL>
0

>  <SCORE.INTRA.REPUL.0>
0

>  <SCORE.INTRA.SOLV>
-0.0433844

>  <SCORE.INTRA.SOLV.lig_0>
-38.4222

>  <SCORE.INTRA.VDW>
-1.12862

>  <SCORE.INTRA.VDW.0>
0.370614

>  <SCORE.INTRA.norm>
-0.0461493

>  <SCORE.RESTR>
0

>  <SCORE.RESTR.CAVITY>
0

>  <SCORE.RESTR.norm>
0

>  <SCORE.SYSTEM>
-19.4365

>  <SCORE.SYSTEM.CONST>
0

>  <SCORE.SYSTEM.DIHEDRAL>
4.55873

>  <SCORE.SYSTEM.POLAR>
-2.97514

>  <SCORE.SYSTEM.SOLV>
0.292008

>  <SCORE.SYSTEM.VDW>
-4.65745

>  <SCORE.SYSTEM.norm>
-1.61971

>  <SCORE.heavy>
12

>  <SCORE.norm>
-4.60013

$$$$
P135648622
 OpenBabel12072022113D
libRbt.so/2013.1/901 2013/11/27
 18 18  0  0  0  0  0  0  0  0999 V2000
    5.7244   15.7955    3.1187 C   0  0  0  0  0  0  0  0  0  0  0  0
    4.7145   16.0028    4.2660 C   0  0  0  0  0  0  0  0  0  0  0  0
    5.2417   16.8756    5.2976 O   0  0  0  0  0  0  0  0  0  0  0  0
    5.6141   18.1678    4.7346 C   0  0  2  0  0  0  0  0  0  0  0  0
    6.7064   17.9473    3.6778 C   0  0  0  0  0  0  0  0  0  0  0  0
    6.1669   17.1034    2.6181 N   0  0  0  0  0  0  0  0  0  0  0  0
    5.4918   17.7608    1.6094 C   0  0  0  0  0  0  0  0  0  0  0  0
    4.2760   17.6903    1.4649 O   0  0  0  0  0  0  0  0  0  0  0  0
    6.2624   18.4633    0.7507 N   0  0  0  0  0  0  0  0  0  0  0  0
    6.1162   19.0511    5.8398 C   0  0  0  0  0  0  0  0  0  0  0  0
    6.5502   18.5151    6.9636 N   0  3  0  0  0  0  0  0  0  0  0  0
    6.9064   19.0775    7.7272 H   0  0  0  0  0  0  0  0  0  0  0  0
    6.5629   17.5052    7.0976 H   0  0  0  0  0  0  0  0  0  0  0  0
    6.1219   20.3494    5.6152 N   0  0  0  0  0  0  0  0  0  0  0  0
    5.8695   19.3249    0.3953 H   0  0  0  0  0  0  0  0  0  0  0  0
    6.6848   17.8914    0.0273 H   0  0  0  0  0  0  0  0  0  0  0  0
    6.4527   21.0399    6.2745 H   0  0  0  0  0  0  0  0  0  0  0  0
    5.8018   20.6618    4.6958 H   0  0  0  0  0  0  0  0  0  0  0  0
  1  2  1  0  0  0  0
  1  6  1  0  0  0  0
  2  3  1  0  0  0  0
  3  4  1  0  0  0  0
  4  5  1  0  0  0  0
  4 10  1  1  0  0  0
  5  6  1  0  0  0  0
  6  7  1  0  0  0  0
  7  8  2  0  0  0  0
  7  9  1  0  0  0  0
  9 15  1  0  0  0  0
  9 16  1  0  0  0  0
 10 11  2  0  0  0  0
 10 14  1  0  0  0  0
 11 12  1  0  0  0  0
 11 13  1  0  0  0  0
 14 17  1  0  0  0  0
 14 18  1  0  0  0  0
M  CHG  1  11   1
M  END
>  <CHROM.0>
-55.38114531,-169.17445156,-73.70389887,-47.40746574,-56.89691772,-59.58100852
-172.28771377,-57.91206676,-167.27535667

>  <CHROM.1>
20.98815482,33.47236579,-144.81201880,5.74760132,17.83214324,3.83544272,2.07297457
-1.26887109,-1.37520208

>  <Name>
P135648622

>  <RI>
3.58524e+07

>  <Rbt.Current_Directory>
/home/fstefaniak/projects/zuza/docking/adenine/4XNR

>  <Rbt.Executable>
rbdock ($Id: //depot/dev/client3/rdock/2013.1/src/exe/rbdock.cxx#4 $)

>  <Rbt.Library>
libRbt.so (2013.1, Build901 2013/11/27)

>  <Rbt.Parameter_File>
/home/fstefaniak/progs/rDock//data/scripts/dock_solv.prm

>  <Rbt.Receptor>
4xnr.prm

>  <SCORE>
-54.6773

>  <SCORE.INTER>
-33.8878

>  <SCORE.INTER.CONST>
1

>  <SCORE.INTER.POLAR>
-6.53375

>  <SCORE.INTER.ROT>
3

>  <SCORE.INTER.SOLV>
28.441

>  <SCORE.INTER.VDW>
-15.8931

>  <SCORE.INTER.norm>
-2.82399

>  <SCORE.INTRA>
-0.870409

>  <SCORE.INTRA.DIHEDRAL>
-0.0467489

>  <SCORE.INTRA.DIHEDRAL.0>
2.17469

>  <SCORE.INTRA.POLAR>
0.182855

>  <SCORE.INTRA.POLAR.0>
-0.183781

>  <SCORE.INTRA.REPUL>
0

>  <SCORE.INTRA.REPUL.0>
0

>  <SCORE.INTRA.SOLV>
-0.322132

>  <SCORE.INTRA.SOLV.lig_0>
-38.4222

>  <SCORE.INTRA.VDW>
-1.30767

>  <SCORE.INTRA.VDW.0>
0.370614

>  <SCORE.INTRA.norm>
-0.0725341

>  <SCORE.RESTR>
0

>  <SCORE.RESTR.CAVITY>
0

>  <SCORE.RESTR.norm>
0

>  <SCORE.SYSTEM>
-19.9191

>  <SCORE.SYSTEM.CONST>
0

>  <SCORE.SYSTEM.DIHEDRAL>
5.38221

>  <SCORE.SYSTEM.POLAR>
-2.99063

>  <SCORE.SYSTEM.SOLV>
0.211215

>  <SCORE.SYSTEM.VDW>
-5.17511

>  <SCORE.SYSTEM.norm>
-1.65992

>  <SCORE.heavy>
12

>  <SCORE.norm>
-4.55644

$$$$
P135648622
 OpenBabel12072022113D
libRbt.so/2013.1/901 2013/11/27
 18 18  0  0  0  0  0  0  0  0999 V2000
    6.8661   17.5900    3.0776 C   0  0  0  0  0  0  0  0  0  0  0  0
    5.7600   17.8328    2.0303 C   0  0  0  0  0  0  0  0  0  0  0  0
    4.6799   16.8726    2.1539 O   0  0  0  0  0  0  0  0  0  0  0  0
    4.1042   16.9183    3.4926 C   0  0  2  0  0  0  0  0  0  0  0  0
    5.1964   16.5568    4.5100 C   0  0  0  0  0  0  0  0  0  0  0  0
    6.2657   17.5438    4.4172 N   0  0  0  0  0  0  0  0  0  0  0  0
    6.1016   18.6834    5.1787 C   0  0  0  0  0  0  0  0  0  0  0  0
    5.7092   18.6582    6.3403 O   0  0  0  0  0  0  0  0  0  0  0  0
    6.3608   19.8501    4.5492 N   0  0  0  0  0  0  0  0  0  0  0  0
    2.9677   15.9401    3.5648 C   0  0  0  0  0  0  0  0  0  0  0  0
    3.1540   14.6880    3.1960 N   0  3  0  0  0  0  0  0  0  0  0  0
    2.4146   13.9968    3.2407 H   0  0  0  0  0  0  0  0  0  0  0  0
    4.0625   14.3623    2.8697 H   0  0  0  0  0  0  0  0  0  0  0  0
    1.8188   16.3878    4.0292 N   0  0  0  0  0  0  0  0  0  0  0  0
    7.2040   20.3340    4.8280 H   0  0  0  0  0  0  0  0  0  0  0  0
    5.5543   20.4621    4.4856 H   0  0  0  0  0  0  0  0  0  0  0  0
    0.9901   15.8207    4.1411 H   0  0  0  0  0  0  0  0  0  0  0  0
    1.7886   17.3657    4.3260 H   0  0  0  0  0  0  0  0  0  0  0  0
  1  2  1  0  0  0  0
  1  6  1  0  0  0  0
  2  3  1  0  0  0  0
  3  4  1  0  0  0  0
  4  5  1  0  0  0  0
  4 10  1  6  0  0  0
  5  6  1  0  0  0  0
  6  7  1  0  0  0  0
  7  8  2  0  0  0  0
  7  9  1  0  0  0  0
  9 15  1  0  0  0  0
  9 16  1  0  0  0  0
 10 11  2  0  0  0  0
 10 14  1  0  0  0  0
 11 12  1  0  0  0  0
 11 13  1  0  0  0  0
 14 17  1  0  0  0  0
 14 18  1  0  0  0  0
M  CHG  1  11   1
M  END
>  <CHROM.0>
-55.68200951,44.55637247,-64.61503972,-48.00591077,-175.98009226,-59.76547195
-64.83445318,-58.74312017,-168.30041340

>  <CHROM.1>
52.18173306,-173.63545990,-108.43243471,4.89202616,17.29781900,3.88102813
-0.57310450,-0.56829829,-2.02257206

>  <Name>
P135648622

>  <RI>
3.58524e+07

>  <Rbt.Current_Directory>
/home/fstefaniak/projects/zuza/docking/adenine/4XNR

>  <Rbt.Executable>
rbdock ($Id: //depot/dev/client3/rdock/2013.1/src/exe/rbdock.cxx#4 $)

>  <Rbt.Library>
libRbt.so (2013.1, Build901 2013/11/27)

>  <Rbt.Parameter_File>
/home/fstefaniak/progs/rDock//data/scripts/dock_solv.prm

>  <Rbt.Receptor>
4xnr.prm

>  <SCORE>
-54.5992

>  <SCORE.INTER>
-34.5343

>  <SCORE.INTER.CONST>
1

>  <SCORE.INTER.POLAR>
-5.28093

>  <SCORE.INTER.ROT>
3

>  <SCORE.INTER.SOLV>
19.5554

>  <SCORE.INTER.VDW>
-17.5382

>  <SCORE.INTER.norm>
-2.87786

>  <SCORE.INTRA>
-0.205667

>  <SCORE.INTRA.DIHEDRAL>
-0.0436123

>  <SCORE.INTRA.DIHEDRAL.0>
2.17469

>  <SCORE.INTRA.POLAR>
0.175307

>  <SCORE.INTRA.POLAR.0>
-0.183781

>  <SCORE.INTRA.REPUL>
0

>  <SCORE.INTRA.REPUL.0>
0

>  <SCORE.INTRA.SOLV>
-0.329366

>  <SCORE.INTRA.SOLV.lig_0>
-38.4222

>  <SCORE.INTRA.VDW>
-0.615223

>  <SCORE.INTRA.VDW.0>
0.370614

>  <SCORE.INTRA.norm>
-0.0171389

>  <SCORE.RESTR>
0

>  <SCORE.RESTR.CAVITY>
0

>  <SCORE.RESTR.norm>
0

>  <SCORE.SYSTEM>
-19.8593

>  <SCORE.SYSTEM.CONST>
0

>  <SCORE.SYSTEM.DIHEDRAL>
4.86719

>  <SCORE.SYSTEM.POLAR>
-3.07126

>  <SCORE.SYSTEM.SOLV>
0.255197

>  <SCORE.SYSTEM.VDW>
-4.70944

>  <SCORE.SYSTEM.norm>
-1.65494

>  <SCORE.heavy>
12

>  <SCORE.norm>
-4.54993

$$$$
P135688421
 OpenBabel12072022113D
libRbt.so/2013.1/901 2013/11/27
 14 14  0  0  0  0  0  0  0  0999 V2000
    3.2805   13.2470    5.3814 C   0  0  0  0  0  0  0  0  0  0  0  0
    3.2719   14.0146    4.0710 C   0  0  1  0  0  0  0  0  0  0  0  0
    1.8769   14.4385    3.5799 C   0  0  0  0  0  0  0  0  0  0  0  0
    2.3425   15.8888    3.7140 C   0  0  0  0  0  0  0  0  0  0  0  0
    3.6158   15.4271    4.2355 N   0  3  2  0  0  0  0  0  0  0  0  0
    3.8379   15.7413    5.2181 H   0  0  0  0  0  0  0  0  0  0  0  0
    4.7764   15.8609    3.3965 C   0  0  0  0  0  0  0  0  0  0  0  0
    5.0756   17.3565    3.5649 C   0  0  1  0  0  0  0  0  0  0  0  0
    5.3119   17.6837    5.0372 C   0  0  0  0  0  0  0  0  0  0  0  0
    6.3148   17.7382    2.6904 C   0  0  0  0  0  0  0  0  0  0  0  0
    7.0015   18.7097    3.1372 O   0  0  0  0  0  0  0  0  0  0  0  0
    6.5485   16.9591    1.7311 O   0  5  0  0  0  0  0  0  0  0  0  0
    3.9399   18.1519    3.1355 O   0  0  0  0  0  0  0  0  0  0  0  0
    3.8482   17.9243    2.1820 H   0  0  0  0  0  0  0  0  0  0  0  0
  2  1  1  1  0  0  0
  2  3  1  0  0  0  0
  2  5  1  0  0  0  0
  3  4  1  0  0  0  0
  4  5  1  0  0  0  0
  5  6  1  1  0  0  0
  5  7  1  0  0  0  0
  7  8  1  0  0  0  0
  8  9  1  1  0  0  0
  8 10  1  0  0  0  0
  8 13  1  0  0  0  0
 10 11  2  0  0  0  0
 10 12  1  0  0  0  0
 13 14  1  0  0  0  0
M  CHG  2   5   1  12  -1
M  END
>  <CHROM.0>
-56.78628428,-63.54090259,-59.11266522,-48.08773146,-52.57670557,-65.08661867
-69.62486323,-56.43347780,-168.11829382

>  <CHROM.1>
178.18908840,56.01499101,-151.12895114,-61.77853909,4.46272000,16.32685453
3.63466211,-2.28688095,0.10435946,-0.26962483

>  <Name>
P135688421

>  <RI>
4.17015e+07

>  <Rbt.Current_Directory>
/home/fstefaniak/projects/zuza/docking/adenine/4XNR

>  <Rbt.Executable>
rbdock ($Id: //depot/dev/client3/rdock/2013.1/src/exe/rbdock.cxx#4 $)

>  <Rbt.Library>
libRbt.so (2013.1, Build901 2013/11/27)

>  <Rbt.Parameter_File>
/home/fstefaniak/progs/rDock//data/scripts/dock_solv.prm

>  <Rbt.Receptor>
4xnr.prm

>  <SCORE>
-44.4857

>  <SCORE.INTER>
-24.1464

>  <SCORE.INTER.CONST>
1

>  <SCORE.INTER.POLAR>
-4.14406

>  <SCORE.INTER.ROT>
3

>  <SCORE.INTER.SOLV>
22.8542

>  <SCORE.INTER.VDW>
-15.5022

>  <SCORE.INTER.norm>
-2.0122

>  <SCORE.INTRA>
0.282661

>  <SCORE.INTRA.DIHEDRAL>
-2.0829

>  <SCORE.INTRA.DIHEDRAL.0>
3.0936

>  <SCORE.INTRA.POLAR>
0.685166

>  <SCORE.INTRA.POLAR.0>
-0.685166

>  <SCORE.INTRA.REPUL>
0

>  <SCORE.INTRA.REPUL.0>
0

>  <SCORE.INTRA.SOLV>
-6.03306

>  <SCORE.INTRA.SOLV.lig_0>
-38.1044

>  <SCORE.INTRA.VDW>
2.01108

>  <SCORE.INTRA.VDW.0>
1.06699

>  <SCORE.INTRA.norm>
0.0235551

>  <SCORE.RESTR>
0

>  <SCORE.RESTR.CAVITY>
0

>  <SCORE.RESTR.norm>
0

>  <SCORE.SYSTEM>
-20.6219

>  <SCORE.SYSTEM.CONST>
0

>  <SCORE.SYSTEM.DIHEDRAL>
4.36607

>  <SCORE.SYSTEM.POLAR>
-3.0095

>  <SCORE.SYSTEM.SOLV>
0.293152

>  <SCORE.SYSTEM.VDW>
-5.26935

>  <SCORE.SYSTEM.norm>
-1.71849

>  <SCORE.heavy>
12

>  <SCORE.norm>
-3.70714

$$$$
P135688421
 OpenBabel12072022113D
libRbt.so/2013.1/901 2013/11/27
 14 14  0  0  0  0  0  0  0  0999 V2000
    6.8355   18.2581    1.9827 C   0  0  0  0  0  0  0  0  0  0  0  0
    6.7908   17.7108    3.3986 C   0  0  1  0  0  0  0  0  0  0  0  0
    7.3965   18.6359    4.4682 C   0  0  0  0  0  0  0  0  0  0  0  0
    6.0087   18.6971    5.1072 C   0  0  0  0  0  0  0  0  0  0  0  0
    5.4825   17.8759    4.0324 N   0  3  2  0  0  0  0  0  0  0  0  0
    4.7343   18.3326    3.4449 H   0  0  0  0  0  0  0  0  0  0  0  0
    4.8897   16.5922    4.5221 C   0  0  0  0  0  0  0  0  0  0  0  0
    3.9354   15.9739    3.4917 C   0  0  1  0  0  0  0  0  0  0  0  0
    3.8160   14.4694    3.7209 C   0  0  0  0  0  0  0  0  0  0  0  0
    2.5420   16.6774    3.5891 C   0  0  0  0  0  0  0  0  0  0  0  0
    2.1786   17.2851    2.5337 O   0  0  0  0  0  0  0  0  0  0  0  0
    1.9030   16.4467    4.6475 O   0  5  0  0  0  0  0  0  0  0  0  0
    4.4550   16.1536    2.1483 O   0  0  0  0  0  0  0  0  0  0  0  0
    4.3904   17.1256    2.0058 H   0  0  0  0  0  0  0  0  0  0  0  0
  2  1  1  6  0  0  0
  2  3  1  0  0  0  0
  2  5  1  0  0  0  0
  3  4  1  0  0  0  0
  4  5  1  0  0  0  0
  5  6  1  6  0  0  0
  5  7  1  0  0  0  0
  7  8  1  0  0  0  0
  8  9  1  1  0  0  0
  8 10  1  0  0  0  0
  8 13  1  0  0  0  0
 10 11  2  0  0  0  0
 10 12  1  0  0  0  0
 13 14  1  0  0  0  0
M  CHG  2   5   1  12  -1
M  END
>  <CHROM.0>
-62.56341771,66.61186669,-66.83351062,-45.79855828,-176.33098619,-65.62621541
-71.83364821,-66.56221606,-168.27716921

>  <CHROM.1>
-94.79302708,156.22510243,118.14849546,-68.02449929,4.65060088,17.06268937
3.60270259,-0.21910576,-0.44192398,-1.95734330

>  <Name>
P135688421

>  <RI>
4.17015e+07

>  <Rbt.Current_Directory>
/home/fstefaniak/projects/zuza/docking/adenine/4XNR

>  <Rbt.Executable>
rbdock ($Id: //depot/dev/client3/rdock/2013.1/src/exe/rbdock.cxx#4 $)

>  <Rbt.Library>
libRbt.so (2013.1, Build901 2013/11/27)

>  <Rbt.Parameter_File>
/home/fstefaniak/progs/rDock//data/scripts/dock_solv.prm

>  <Rbt.Receptor>
4xnr.prm

>  <SCORE>
-40.9242

>  <SCORE.INTER>
-21.3857

>  <SCORE.INTER.CONST>
1

>  <SCORE.INTER.POLAR>
-2.69572

>  <SCORE.INTER.ROT>
3

>  <SCORE.INTER.SOLV>
20.3943

>  <SCORE.INTER.VDW>
-17.6695

>  <SCORE.INTER.norm>
-1.78214

>  <SCORE.INTRA>
0.316549

>  <SCORE.INTRA.DIHEDRAL>
0.994527

>  <SCORE.INTRA.DIHEDRAL.0>
3.0936

>  <SCORE.INTRA.POLAR>
0.685166

>  <SCORE.INTRA.POLAR.0>
-0.685166

>  <SCORE.INTRA.REPUL>
0

>  <SCORE.INTRA.REPUL.0>
0

>  <SCORE.INTRA.SOLV>
-2.1881

>  <SCORE.INTRA.SOLV.lig_0>
-38.1044

>  <SCORE.INTRA.VDW>
-1.41623

>  <SCORE.INTRA.VDW.0>
1.06699

>  <SCORE.INTRA.norm>
0.026379

>  <SCORE.RESTR>
0

>  <SCORE.RESTR.CAVITY>
0

>  <SCORE.RESTR.norm>
0

>  <SCORE.SYSTEM>
-19.855

>  <SCORE.SYSTEM.CONST>
0

>  <SCORE.SYSTEM.DIHEDRAL>
5.13544

>  <SCORE.SYSTEM.POLAR>
-2.9793

>  <SCORE.SYSTEM.SOLV>
0.121881

>  <SCORE.SYSTEM.VDW>
-5.0581

>  <SCORE.SYSTEM.norm>
-1.65458

>  <SCORE.heavy>
12

>  <SCORE.norm>
-3.41035

$$$$
P135688421
 OpenBabel12072022113D
libRbt.so/2013.1/901 2013/11/27
 14 14  0  0  0  0  0  0  0  0999 V2000
    3.2517   13.9444    4.4379 C   0  0  0  0  0  0  0  0  0  0  0  0
    2.7718   15.0607    3.5269 C   0  0  1  0  0  0  0  0  0  0  0  0
    1.2507   15.2910    3.5337 C   0  0  0  0  0  0  0  0  0  0  0  0
    1.5313   16.6920    4.0781 C   0  0  0  0  0  0  0  0  0  0  0  0
    2.9505   16.3900    4.1115 N   0  3  2  0  0  0  0  0  0  0  0  0
    3.3930   16.4225    5.0689 H   0  0  0  0  0  0  0  0  0  0  0  0
    3.7592   17.3145    3.2569 C   0  0  0  0  0  0  0  0  0  0  0  0
    5.2644   17.1565    3.5100 C   0  0  1  0  0  0  0  0  0  0  0  0
    5.6882   15.7084    3.2784 C   0  0  0  0  0  0  0  0  0  0  0  0
    6.0515   18.1363    2.5791 C   0  0  0  0  0  0  0  0  0  0  0  0
    6.6458   19.0824    3.1846 O   0  0  0  0  0  0  0  0  0  0  0  0
    6.1040   17.7937    1.3701 O   0  5  0  0  0  0  0  0  0  0  0  0
    5.5815   17.4707    4.8911 O   0  0  0  0  0  0  0  0  0  0  0  0
    5.2201   18.3789    5.0083 H   0  0  0  0  0  0  0  0  0  0  0  0
  2  1  1  1  0  0  0
  2  3  1  0  0  0  0
  2  5  1  0  0  0  0
  3  4  1  0  0  0  0
  4  5  1  0  0  0  0
  5  6  1  1  0  0  0
  5  7  1  0  0  0  0
  7  8  1  0  0  0  0
  8  9  1  6  0  0  0
  8 10  1  0  0  0  0
  8 13  1  0  0  0  0
 10 11  2  0  0  0  0
 10 12  1  0  0  0  0
 13 14  1  0  0  0  0
M  CHG  2   5   1  12  -1
M  END
>  <CHROM.0>
-56.33746921,-62.53643254,-73.47631375,-47.22941853,-56.18471140,-60.51518113
-173.46787988,-57.13444441,-167.95937088

>  <CHROM.1>
-86.19804493,56.73100264,112.08598523,-55.46710674,4.28066905,16.69316976
3.50086665,-2.50286903,0.10815713,-0.22837630

>  <Name>
P135688421

>  <RI>
4.17015e+07

>  <Rbt.Current_Directory>
/home/fstefaniak/projects/zuza/docking/adenine/4XNR

>  <Rbt.Executable>
rbdock ($Id: //depot/dev/client3/rdock/2013.1/src/exe/rbdock.cxx#4 $)

>  <Rbt.Library>
libRbt.so (2013.1, Build901 2013/11/27)

>  <Rbt.Parameter_File>
/home/fstefaniak/progs/rDock//data/scripts/dock_solv.prm

>  <Rbt.Receptor>
4xnr.prm

>  <SCORE>
-39.7165

>  <SCORE.INTER>
-18.7577

>  <SCORE.INTER.CONST>
1

>  <SCORE.INTER.POLAR>
-3.9511

>  <SCORE.INTER.ROT>
3

>  <SCORE.INTER.SOLV>
22.5683

>  <SCORE.INTER.VDW>
-12.4576

>  <SCORE.INTER.norm>
-1.56314

>  <SCORE.INTRA>
-0.675923

>  <SCORE.INTRA.DIHEDRAL>
-1.39917

>  <SCORE.INTRA.DIHEDRAL.0>
3.0936

>  <SCORE.INTRA.POLAR>
0.684804

>  <SCORE.INTRA.POLAR.0>
-0.685166

>  <SCORE.INTRA.REPUL>
0

>  <SCORE.INTRA.REPUL.0>
0

>  <SCORE.INTRA.SOLV>
-5.68476

>  <SCORE.INTRA.SOLV.lig_0>
-38.1044

>  <SCORE.INTRA.VDW>
0.537706

>  <SCORE.INTRA.VDW.0>
1.06699

>  <SCORE.INTRA.norm>
-0.0563269

>  <SCORE.RESTR>
0

>  <SCORE.RESTR.CAVITY>
0

>  <SCORE.RESTR.norm>
0

>  <SCORE.SYSTEM>
-20.2829

>  <SCORE.SYSTEM.CONST>
0

>  <SCORE.SYSTEM.DIHEDRAL>
4.71455

>  <SCORE.SYSTEM.POLAR>
-2.98966

>  <SCORE.SYSTEM.SOLV>
0.241312

>  <SCORE.SYSTEM.VDW>
-5.20834

>  <SCORE.SYSTEM.norm>
-1.69024

>  <SCORE.heavy>
12

>  <SCORE.norm>
-3.30971

$$$$
P135822850
 OpenBabel12072022113D
libRbt.so/2013.1/901 2013/11/27
 16 17  0  0  0  0  0  0  0  0999 V2000
    6.2192   18.9503    5.5908 C   0  0  0  0  0  0  0  0  0  0  0  0
    5.6893   18.7557    4.1771 C   0  0  2  0  0  0  0  0  0  0  0  0
    5.4482   17.2819    3.8428 C   0  0  2  0  0  0  0  0  0  0  0  0
    6.6156   16.9372    2.9380 C   0  0  0  0  0  0  0  0  0  0  0  0
    6.9026   18.2549    2.2582 C   0  0  0  0  0  0  0  0  0  0  0  0
    6.6851   19.2525    3.2616 O   0  0  0  0  0  0  0  0  0  0  0  0
    4.1008   17.0984    3.1566 C   0  0  0  0  0  0  0  0  0  0  0  0
    3.9097   17.3451    1.9693 O   0  0  0  0  0  0  0  0  0  0  0  0
    3.1251   16.5991    3.9931 N   0  0  0  0  0  0  0  0  0  0  0  0
    1.7681   16.4050    3.5852 C   0  0  2  0  0  0  0  0  0  0  0  0
    0.6562   16.5078    4.5911 C   0  0  0  0  0  0  0  0  0  0  0  0
    1.0369   15.1644    4.0454 C   0  0  2  0  0  0  0  0  0  0  0  0
    1.7410   14.2135    4.9193 N   0  0  0  0  0  0  0  0  0  0  0  0
    3.3147   16.4185    4.9746 H   0  0  0  0  0  0  0  0  0  0  0  0
    1.0916   13.4963    5.2457 H   0  0  0  0  0  0  0  0  0  0  0  0
    2.0616   14.6919    5.7628 H   0  0  0  0  0  0  0  0  0  0  0  0
  2  3  1  0  0  0  0
  2  6  1  0  0  0  0
  2  1  1  1  0  0  0
  3  4  1  0  0  0  0
  3  7  1  6  0  0  0
  4  5  1  0  0  0  0
  5  6  1  0  0  0  0
  7  8  2  0  0  0  0
  7  9  1  0  0  0  0
  9 14  1  0  0  0  0
 10 11  1  0  0  0  0
 10 12  1  0  0  0  0
 10  9  1  1  0  0  0
 11 12  1  0  0  0  0
 12 13  1  1  0  0  0
 13 15  1  0  0  0  0
 13 16  1  0  0  0  0
M  END
>  <CHROM.0>
-58.98282902,-78.54112195,-63.69293799,-47.58546523,-57.28195376,-62.15593669
-68.65087698,-174.41682428,-167.85941419

>  <CHROM.1>
78.78583985,-150.51327829,172.60598949,4.16464679,17.13936416,3.73234833
-0.00481207,0.54986661,1.30569151

>  <Name>
P135822850

>  <RI>
1.34432e+07

>  <Rbt.Current_Directory>
/home/fstefaniak/projects/zuza/docking/adenine/4XNR

>  <Rbt.Executable>
rbdock ($Id: //depot/dev/client3/rdock/2013.1/src/exe/rbdock.cxx#4 $)

>  <Rbt.Library>
libRbt.so (2013.1, Build901 2013/11/27)

>  <Rbt.Parameter_File>
/home/fstefaniak/progs/rDock//data/scripts/dock_solv.prm

>  <Rbt.Receptor>
4xnr.prm

>  <SCORE>
-60.3206

>  <SCORE.INTER>
-41.6967

>  <SCORE.INTER.CONST>
1

>  <SCORE.INTER.POLAR>
-4.68851

>  <SCORE.INTER.ROT>
3

>  <SCORE.INTER.SOLV>
14.0164

>  <SCORE.INTER.VDW>
-22.4415

>  <SCORE.INTER.norm>
-3.20744

>  <SCORE.INTRA>
1.58742

>  <SCORE.INTRA.DIHEDRAL>
2.64274

>  <SCORE.INTRA.DIHEDRAL.0>
2.95752

>  <SCORE.INTRA.POLAR>
0.0397795

>  <SCORE.INTRA.POLAR.0>
-0.0397795

>  <SCORE.INTRA.REPUL>
0

>  <SCORE.INTRA.REPUL.0>
0

>  <SCORE.INTRA.SOLV>
0.00836562

>  <SCORE.INTRA.SOLV.lig_0>
-14.4552

>  <SCORE.INTRA.VDW>
0.12662

>  <SCORE.INTRA.VDW.0>
-1.22633

>  <SCORE.INTRA.norm>
0.122109

>  <SCORE.RESTR>
0

>  <SCORE.RESTR.CAVITY>
0

>  <SCORE.RESTR.norm>
0

>  <SCORE.SYSTEM>
-20.2113

>  <SCORE.SYSTEM.CONST>
0

>  <SCORE.SYSTEM.DIHEDRAL>
5.63022

>  <SCORE.SYSTEM.POLAR>
-2.97708

>  <SCORE.SYSTEM.SOLV>
0.137197

>  <SCORE.SYSTEM.VDW>
-5.47308

>  <SCORE.SYSTEM.norm>
-1.55472

>  <SCORE.heavy>
13

>  <SCORE.norm>
-4.64004

$$$$
P135822850
 OpenBabel12072022113D
libRbt.so/2013.1/901 2013/11/27
 16 17  0  0  0  0  0  0  0  0999 V2000
    6.2284   18.9107    5.6523 C   0  0  0  0  0  0  0  0  0  0  0  0
    5.6933   18.7386    4.2376 C   0  0  2  0  0  0  0  0  0  0  0  0
    5.4757   17.2687    3.8717 C   0  0  2  0  0  0  0  0  0  0  0  0
    6.6433   16.9645    2.9527 C   0  0  0  0  0  0  0  0  0  0  0  0
    6.9033   18.3018    2.3010 C   0  0  0  0  0  0  0  0  0  0  0  0
    6.6748   19.2729    3.3278 O   0  0  0  0  0  0  0  0  0  0  0  0
    4.1274   17.0771    3.1893 C   0  0  0  0  0  0  0  0  0  0  0  0
    3.9158   17.3780    2.0181 O   0  0  0  0  0  0  0  0  0  0  0  0
    3.1772   16.5042    4.0078 N   0  0  0  0  0  0  0  0  0  0  0  0
    1.8228   16.2875    3.6029 C   0  0  2  0  0  0  0  0  0  0  0  0
    0.7095   16.3923    4.6070 C   0  0  0  0  0  0  0  0  0  0  0  0
    1.1065   15.0454    4.0819 C   0  0  2  0  0  0  0  0  0  0  0  0
    1.8219   14.1165    4.9703 N   0  0  0  0  0  0  0  0  0  0  0  0
    3.3830   16.2798    4.9769 H   0  0  0  0  0  0  0  0  0  0  0  0
    1.1845   13.3883    5.2961 H   0  0  0  0  0  0  0  0  0  0  0  0
    2.1240   14.6082    5.8129 H   0  0  0  0  0  0  0  0  0  0  0  0
  2  3  1  0  0  0  0
  2  6  1  0  0  0  0
  2  1  1  1  0  0  0
  3  4  1  0  0  0  0
  3  7  1  6  0  0  0
  4  5  1  0  0  0  0
  5  6  1  0  0  0  0
  7  8  2  0  0  0  0
  7  9  1  0  0  0  0
  9 14  1  0  0  0  0
 10 11  1  0  0  0  0
 10 12  1  0  0  0  0
 10  9  1  1  0  0  0
 11 12  1  0  0  0  0
 12 13  1  1  0  0  0
 13 15  1  0  0  0  0
 13 16  1  0  0  0  0
M  END
>  <CHROM.0>
-62.50381984,-84.31153556,-72.96929727,-49.80334805,-58.42584681,-64.33271543
-171.40094261,-61.04730197,-168.09867399

>  <CHROM.1>
76.90171749,-146.48089643,173.47276200,4.19531999,17.10098887,3.77078804
-0.03113559,0.57131319,1.36882001

>  <Name>
P135822850

>  <RI>
1.34432e+07

>  <Rbt.Current_Directory>
/home/fstefaniak/projects/zuza/docking/adenine/4XNR

>  <Rbt.Executable>
rbdock ($Id: //depot/dev/client3/rdock/2013.1/src/exe/rbdock.cxx#4 $)

>  <Rbt.Library>
libRbt.so (2013.1, Build901 2013/11/27)

>  <Rbt.Parameter_File>
/home/fstefaniak/progs/rDock//data/scripts/dock_solv.prm

>  <Rbt.Receptor>
4xnr.prm

>  <SCORE>
-59.9739

>  <SCORE.INTER>
-42.2513

>  <SCORE.INTER.CONST>
1

>  <SCORE.INTER.POLAR>
-4.76727

>  <SCORE.INTER.ROT>
3

>  <SCORE.INTER.SOLV>
13.8409

>  <SCORE.INTER.VDW>
-22.4903

>  <SCORE.INTER.norm>
-3.2501

>  <SCORE.INTRA>
1.64365

>  <SCORE.INTRA.DIHEDRAL>
2.78446

>  <SCORE.INTRA.DIHEDRAL.0>
2.95752

>  <SCORE.INTRA.POLAR>
0.0397795

>  <SCORE.INTRA.POLAR.0>
-0.0397795

>  <SCORE.INTRA.REPUL>
0

>  <SCORE.INTRA.REPUL.0>
0

>  <SCORE.INTRA.SOLV>
0.00129799

>  <SCORE.INTRA.SOLV.lig_0>
-14.4552

>  <SCORE.INTRA.VDW>
0.115517

>  <SCORE.INTRA.VDW.0>
-1.22633

>  <SCORE.INTRA.norm>
0.126434

>  <SCORE.RESTR>
0

>  <SCORE.RESTR.CAVITY>
0

>  <SCORE.RESTR.norm>
0

>  <SCORE.SYSTEM>
-19.3663

>  <SCORE.SYSTEM.CONST>
0

>  <SCORE.SYSTEM.DIHEDRAL>
6.93676

>  <SCORE.SYSTEM.POLAR>
-2.89963

>  <SCORE.SYSTEM.SOLV>
0.194119

>  <SCORE.SYSTEM.VDW>
-5.62238

>  <SCORE.SYSTEM.norm>
-1.48971

>  <SCORE.heavy>
13

>  <SCORE.norm>
-4.61338

$$$$
P135822850
 OpenBabel12072022113D
libRbt.so/2013.1/901 2013/11/27
 16 17  0  0  0  0  0  0  0  0999 V2000
    6.2366   19.0671    5.6025 C   0  0  0  0  0  0  0  0  0  0  0  0
    5.7175   18.8221    4.1926 C   0  0  2  0  0  0  0  0  0  0  0  0
    5.4432   17.3411    3.9218 C   0  0  2  0  0  0  0  0  0  0  0  0
    6.6114   16.9272    3.0476 C   0  0  0  0  0  0  0  0  0  0  0  0
    6.9389   18.2054    2.3129 C   0  0  0  0  0  0  0  0  0  0  0  0
    6.7355   19.2523    3.2678 O   0  0  0  0  0  0  0  0  0  0  0  0
    4.0992   17.1600    3.2283 C   0  0  0  0  0  0  0  0  0  0  0  0
    3.9073   17.4356    2.0475 O   0  0  0  0  0  0  0  0  0  0  0  0
    3.1279   16.6274    4.0494 N   0  0  0  0  0  0  0  0  0  0  0  0
    1.7740   16.4284    3.6338 C   0  0  2  0  0  0  0  0  0  0  0  0
    0.6582   16.5032    4.6377 C   0  0  0  0  0  0  0  0  0  0  0  0
    1.0528   15.1732    4.0695 C   0  0  2  0  0  0  0  0  0  0  0  0
    1.7629   14.2133    4.9286 N   0  0  0  0  0  0  0  0  0  0  0  0
    3.3179   16.4234    5.0262 H   0  0  0  0  0  0  0  0  0  0  0  0
    1.1171   13.4893    5.2471 H   0  0  0  0  0  0  0  0  0  0  0  0
    2.0841   14.6815    5.7775 H   0  0  0  0  0  0  0  0  0  0  0  0
  2  3  1  0  0  0  0
  2  6  1  0  0  0  0
  2  1  1  1  0  0  0
  3  4  1  0  0  0  0
  3  7  1  6  0  0  0
  4  5  1  0  0  0  0
  5  6  1  0  0  0  0
  7  8  2  0  0  0  0
  7  9  1  0  0  0  0
  9 14  1  0  0  0  0
 10 11  1  0  0  0  0
 10 12  1  0  0  0  0
 10  9  1  1  0  0  0
 11 12  1  0  0  0  0
 12 13  1  1  0  0  0
 13 15  1  0  0  0  0
 13 16  1  0  0  0  0
M  END
>  <CHROM.0>
-58.14300566,-80.67001689,-73.91439122,-45.58998680,-55.38927066,-174.09519230
-172.82404257,-58.68166881,-167.01950449

>  <CHROM.1>
74.15961949,-149.99962999,172.08255179,4.17805371,17.16908997,3.77852951
0.02370940,0.55112475,1.26036891

>  <Name>
P135822850

>  <RI>
1.34432e+07

>  <Rbt.Current_Directory>
/home/fstefaniak/projects/zuza/docking/adenine/4XNR

>  <Rbt.Executable>
rbdock ($Id: //depot/dev/client3/rdock/2013.1/src/exe/rbdock.cxx#4 $)

>  <Rbt.Library>
libRbt.so (2013.1, Build901 2013/11/27)

>  <Rbt.Parameter_File>
/home/fstefaniak/progs/rDock//data/scripts/dock_solv.prm

>  <Rbt.Receptor>
4xnr.prm

>  <SCORE>
-59.4301

>  <SCORE.INTER>
-41.8805

>  <SCORE.INTER.CONST>
1

>  <SCORE.INTER.POLAR>
-4.71575

>  <SCORE.INTER.ROT>
3

>  <SCORE.INTER.SOLV>
14.0435

>  <SCORE.INTER.VDW>
-22.4823

>  <SCORE.INTER.norm>
-3.22158

>  <SCORE.INTRA>
1.73204

>  <SCORE.INTRA.DIHEDRAL>
2.96551

>  <SCORE.INTRA.DIHEDRAL.0>
2.95752

>  <SCORE.INTRA.POLAR>
0.0397795

>  <SCORE.INTRA.POLAR.0>
-0.0397795

>  <SCORE.INTRA.REPUL>
0

>  <SCORE.INTRA.REPUL.0>
0

>  <SCORE.INTRA.SOLV>
0.00397378

>  <SCORE.INTRA.SOLV.lig_0>
-14.4552

>  <SCORE.INTRA.VDW>
0.112046

>  <SCORE.INTRA.VDW.0>
-1.22633

>  <SCORE.INTRA.norm>
0.133234

>  <SCORE.RESTR>
0

>  <SCORE.RESTR.CAVITY>
0

>  <SCORE.RESTR.norm>
0

>  <SCORE.SYSTEM>
-19.2816

>  <SCORE.SYSTEM.CONST>
0

>  <SCORE.SYSTEM.DIHEDRAL>
7.04838

>  <SCORE.SYSTEM.POLAR>
-2.9974

>  <SCORE.SYSTEM.SOLV>
0.109657

>  <SCORE.SYSTEM.VDW>
-5.24908

>  <SCORE.SYSTEM.norm>
-1.4832

>  <SCORE.heavy>
13

>  <SCORE.norm>
-4.57155

$$$$
P135988194
 OpenBabel12072022113D
libRbt.so/2013.1/901 2013/11/27
 18 18  0  0  0  0  0  0  0  0999 V2000
    5.6836   17.6673    5.1479 C   0  0  0  0  0  0  0  0  0  0  0  0
    5.4204   17.4985    3.6387 C   0  0  0  0  0  0  0  0  0  0  0  0
    5.5956   16.0309    3.2173 C   0  0  0  0  0  0  0  0  0  0  0  0
    4.2851   15.3402    3.5879 C   0  0  0  0  0  0  0  0  0  0  0  0
    3.2362   16.4441    3.7265 C   0  0  0  0  0  0  0  0  0  0  0  0
    3.9305   17.7507    3.3156 C   0  0  2  0  0  0  0  0  0  0  0  0
    3.6964   17.9955    1.8738 N   0  0  0  0  0  0  0  0  0  0  0  0
    2.7022   18.7447    1.3596 C   0  0  0  0  0  0  0  0  0  0  0  0
    1.8168   19.4318    2.1529 N   0  3  0  0  0  0  0  0  0  0  0  0
    1.9703   19.5817    3.1480 H   0  0  0  0  0  0  0  0  0  0  0  0
    0.7567   20.1310    1.5528 N   0  0  0  0  0  0  0  0  0  0  0  0
    2.5754   18.8317    0.0246 N   0  0  0  0  0  0  0  0  0  0  0  0
    6.3906   18.4077    2.8773 C   0  0  0  0  0  0  0  0  0  0  0  0
    4.2789   17.4998    1.2107 H   0  0  0  0  0  0  0  0  0  0  0  0
   -0.0019   20.2510    2.2357 H   0  0  0  0  0  0  0  0  0  0  0  0
    1.0683   21.0777    1.3012 H   0  0  0  0  0  0  0  0  0  0  0  0
    3.1958   18.3714   -0.6244 H   0  0  0  0  0  0  0  0  0  0  0  0
    1.9026   19.4998   -0.3334 H   0  0  0  0  0  0  0  0  0  0  0  0
  1  2  1  0  0  0  0
  2  3  1  0  0  0  0
  2  6  1  0  0  0  0
  2 13  1  0  0  0  0
  3  4  1  0  0  0  0
  4  5  1  0  0  0  0
  5  6  1  0  0  0  0
  6  7  1  6  0  0  0
  7  8  1  0  0  0  0
  7 14  1  0  0  0  0
  8  9  2  0  0  0  0
  8 12  1  0  0  0  0
  9 10  1  0  0  0  0
  9 11  1  0  0  0  0
 11 15  1  0  0  0  0
 11 16  1  0  0  0  0
 12 17  1  0  0  0  0
 12 18  1  0  0  0  0
M  CHG  1   9   1
M  END
>  <CHROM.0>
-59.51109471,-65.30335898,61.17234434,-46.92109090,-58.94274464,-174.97518817
53.78298753,-57.59741492,-167.89425241

>  <CHROM.1>
-151.32780276,156.76244698,3.79912236,17.90591947,2.66877535,-0.77474771
-0.21273759,-0.57715871

>  <Name>
P135988194

>  <RI>
3.58524e+07

>  <Rbt.Current_Directory>
/home/fstefaniak/projects/zuza/docking/adenine/4XNR

>  <Rbt.Executable>
rbdock ($Id: //depot/dev/client3/rdock/2013.1/src/exe/rbdock.cxx#4 $)

>  <Rbt.Library>
libRbt.so (2013.1, Build901 2013/11/27)

>  <Rbt.Parameter_File>
/home/fstefaniak/progs/rDock//data/scripts/dock_solv.prm

>  <Rbt.Receptor>
4xnr.prm

>  <SCORE>
-40.2009

>  <SCORE.INTER>
-21.4859

>  <SCORE.INTER.CONST>
1

>  <SCORE.INTER.POLAR>
-4.50671

>  <SCORE.INTER.ROT>
2

>  <SCORE.INTER.SOLV>
20.5089

>  <SCORE.INTER.VDW>
-11.0712

>  <SCORE.INTER.norm>
-1.79049

>  <SCORE.INTRA>
0.00896966

>  <SCORE.INTRA.DIHEDRAL>
0.499658

>  <SCORE.INTRA.DIHEDRAL.0>
2.84556

>  <SCORE.INTRA.POLAR>
-0.00737719

>  <SCORE.INTRA.POLAR.0>
-0.0382042

>  <SCORE.INTRA.REPUL>
0

>  <SCORE.INTRA.REPUL.0>
0

>  <SCORE.INTRA.SOLV>
-0.490911

>  <SCORE.INTRA.SOLV.lig_0>
-25.848

>  <SCORE.INTRA.VDW>
0.0296787

>  <SCORE.INTRA.VDW.0>
-1.38046

>  <SCORE.INTRA.norm>
0.000747472

>  <SCORE.RESTR>
0

>  <SCORE.RESTR.CAVITY>
0

>  <SCORE.RESTR.norm>
0

>  <SCORE.SYSTEM>
-18.724

>  <SCORE.SYSTEM.CONST>
0

>  <SCORE.SYSTEM.DIHEDRAL>
4.03492

>  <SCORE.SYSTEM.POLAR>
-2.9696

>  <SCORE.SYSTEM.SOLV>
0.0782926

>  <SCORE.SYSTEM.VDW>
-3.95506

>  <SCORE.SYSTEM.norm>
-1.56033

>  <SCORE.heavy>
12

>  <SCORE.norm>
-3.35007

$$$$
P135988194
 OpenBabel12072022113D
libRbt.so/2013.1/901 2013/11/27
 18 18  0  0  0  0  0  0  0  0999 V2000
    5.8445   17.6414    4.9326 C   0  0  0  0  0  0  0  0  0  0  0  0
    5.4411   17.4250    3.4609 C   0  0  0  0  0  0  0  0  0  0  0  0
    5.3966   15.9259    3.1245 C   0  0  0  0  0  0  0  0  0  0  0  0
    4.0443   15.4329    3.6341 C   0  0  0  0  0  0  0  0  0  0  0  0
    3.1565   16.6696    3.7767 C   0  0  0  0  0  0  0  0  0  0  0  0
    3.9734   17.8502    3.2318 C   0  0  2  0  0  0  0  0  0  0  0  0
    3.6560   18.0431    1.7981 N   0  0  0  0  0  0  0  0  0  0  0  0
    2.6275   18.7669    1.3158 C   0  0  0  0  0  0  0  0  0  0  0  0
    1.7821   19.4747    2.1341 N   0  3  0  0  0  0  0  0  0  0  0  0
    1.9902   19.6602    3.1131 H   0  0  0  0  0  0  0  0  0  0  0  0
    0.6835   20.1451    1.5714 N   0  0  0  0  0  0  0  0  0  0  0  0
    2.4248   18.8065   -0.0120 N   0  0  0  0  0  0  0  0  0  0  0  0
    6.4528   18.1569    2.5730 C   0  0  0  0  0  0  0  0  0  0  0  0
    4.2046   17.5288    1.1204 H   0  0  0  0  0  0  0  0  0  0  0  0
   -0.0585   20.2345    2.2769 H   0  0  0  0  0  0  0  0  0  0  0  0
    0.9575   21.1035    1.3206 H   0  0  0  0  0  0  0  0  0  0  0  0
    3.0117   18.3285   -0.6791 H   0  0  0  0  0  0  0  0  0  0  0  0
    1.7268   19.4570   -0.3540 H   0  0  0  0  0  0  0  0  0  0  0  0
  1  2  1  0  0  0  0
  2  3  1  0  0  0  0
  2  6  1  0  0  0  0
  2 13  1  0  0  0  0
  3  4  1  0  0  0  0
  4  5  1  0  0  0  0
  5  6  1  0  0  0  0
  6  7  1  6  0  0  0
  7  8  1  0  0  0  0
  7 14  1  0  0  0  0
  8  9  2  0  0  0  0
  8 12  1  0  0  0  0
  9 10  1  0  0  0  0
  9 11  1  0  0  0  0
 11 15  1  0  0  0  0
 11 16  1  0  0  0  0
 12 17  1  0  0  0  0
 12 18  1  0  0  0  0
M  CHG  1   9   1
M  END
>  <CHROM.0>
-56.98624508,-63.06594271,56.42577066,-45.99994836,-60.26696810,-63.88141021
53.84795482,-173.28175773,-168.03198927

>  <CHROM.1>
-159.35991290,153.47804943,3.74776183,17.90974311,2.59152691,-0.77106988
0.03285485,-0.79715358

>  <Name>
P135988194

>  <RI>
3.58524e+07

>  <Rbt.Current_Directory>
/home/fstefaniak/projects/zuza/docking/adenine/4XNR

>  <Rbt.Executable>
rbdock ($Id: //depot/dev/client3/rdock/2013.1/src/exe/rbdock.cxx#4 $)

>  <Rbt.Library>
libRbt.so (2013.1, Build901 2013/11/27)

>  <Rbt.Parameter_File>
/home/fstefaniak/progs/rDock//data/scripts/dock_solv.prm

>  <Rbt.Receptor>
4xnr.prm

>  <SCORE>
-40.0864

>  <SCORE.INTER>
-21.3427

>  <SCORE.INTER.CONST>
1

>  <SCORE.INTER.POLAR>
-4.76706

>  <SCORE.INTER.ROT>
2

>  <SCORE.INTER.SOLV>
20.6892

>  <SCORE.INTER.VDW>
-10.168

>  <SCORE.INTER.norm>
-1.77856

>  <SCORE.INTRA>
0.098316

>  <SCORE.INTRA.DIHEDRAL>
0.483283

>  <SCORE.INTRA.DIHEDRAL.0>
2.84556

>  <SCORE.INTRA.POLAR>
-0.00737719

>  <SCORE.INTRA.POLAR.0>
-0.0382042

>  <SCORE.INTRA.REPUL>
0

>  <SCORE.INTRA.REPUL.0>
0

>  <SCORE.INTRA.SOLV>
-0.450453

>  <SCORE.INTRA.SOLV.lig_0>
-25.848

>  <SCORE.INTRA.VDW>
0.106983

>  <SCORE.INTRA.VDW.0>
-1.38046

>  <SCORE.INTRA.norm>
0.008193

>  <SCORE.RESTR>
0

>  <SCORE.RESTR.CAVITY>
0

>  <SCORE.RESTR.norm>
0

>  <SCORE.SYSTEM>
-18.842

>  <SCORE.SYSTEM.CONST>
0

>  <SCORE.SYSTEM.DIHEDRAL>
4.2552

>  <SCORE.SYSTEM.POLAR>
-2.9991

>  <SCORE.SYSTEM.SOLV>
0.0536498

>  <SCORE.SYSTEM.VDW>
-4.00062

>  <SCORE.SYSTEM.norm>
-1.57017

>  <SCORE.heavy>
12

>  <SCORE.norm>
-3.34053

$$$$
P135988194
 OpenBabel12072022113D
libRbt.so/2013.1/901 2013/11/27
 18 18  0  0  0  0  0  0  0  0999 V2000
    1.3112   10.7851    5.0143 C   0  0  0  0  0  0  0  0  0  0  0  0
    2.3179   11.9066    4.6911 C   0  0  0  0  0  0  0  0  0  0  0  0
    3.1491   11.5492    3.4486 C   0  0  0  0  0  0  0  0  0  0  0  0
    2.2699   11.9065    2.2523 C   0  0  0  0  0  0  0  0  0  0  0  0
    1.2186   12.8915    2.7646 C   0  0  0  0  0  0  0  0  0  0  0  0
    1.5796   13.1827    4.2285 C   0  0  2  0  0  0  0  0  0  0  0  0
    2.4379   14.3881    4.2892 N   0  0  0  0  0  0  0  0  0  0  0  0
    2.0053   15.6608    4.2038 C   0  0  0  0  0  0  0  0  0  0  0  0
    0.6722   15.9772    4.1147 N   0  3  0  0  0  0  0  0  0  0  0  0
   -0.0677   15.3049    4.3064 H   0  0  0  0  0  0  0  0  0  0  0  0
    0.2947   17.3201    3.9503 N   0  0  0  0  0  0  0  0  0  0  0  0
    2.9065   16.6575    4.2150 N   0  0  0  0  0  0  0  0  0  0  0  0
    3.2185   12.1105    5.9138 C   0  0  0  0  0  0  0  0  0  0  0  0
    3.4406   14.2519    4.3182 H   0  0  0  0  0  0  0  0  0  0  0  0
   -0.0505   17.4619    2.9927 H   0  0  0  0  0  0  0  0  0  0  0  0
   -0.4939   17.5341    4.5739 H   0  0  0  0  0  0  0  0  0  0  0  0
    3.9011   16.5075    4.2954 H   0  0  0  0  0  0  0  0  0  0  0  0
    2.5488   17.6036    4.2781 H   0  0  0  0  0  0  0  0  0  0  0  0
  1  2  1  0  0  0  0
  2  3  1  0  0  0  0
  2  6  1  0  0  0  0
  2 13  1  0  0  0  0
  3  4  1  0  0  0  0
  4  5  1  0  0  0  0
  5  6  1  0  0  0  0
  6  7  1  6  0  0  0
  7  8  1  0  0  0  0
  7 14  1  0  0  0  0
  8  9  2  0  0  0  0
  8 12  1  0  0  0  0
  9 10  1  0  0  0  0
  9 11  1  0  0  0  0
 11 15  1  0  0  0  0
 11 16  1  0  0  0  0
 12 17  1  0  0  0  0
 12 18  1  0  0  0  0
M  CHG  1   9   1
M  END
>  <CHROM.0>
-55.41247918,-60.84208359,61.12433862,-45.62706334,-59.45628294,-176.72627840
53.97162086,-61.14666014,-167.33047030

>  <CHROM.1>
-166.18757111,108.15077194,1.93529708,13.76507402,4.09873943,1.25660554,0.88845033
-2.92400556

>  <Name>
P135988194

>  <RI>
3.58524e+07

>  <Rbt.Current_Directory>
/home/fstefaniak/projects/zuza/docking/adenine/4XNR

>  <Rbt.Executable>
rbdock ($Id: //depot/dev/client3/rdock/2013.1/src/exe/rbdock.cxx#4 $)

>  <Rbt.Library>
libRbt.so (2013.1, Build901 2013/11/27)

>  <Rbt.Parameter_File>
/home/fstefaniak/progs/rDock//data/scripts/dock_solv.prm

>  <Rbt.Receptor>
4xnr.prm

>  <SCORE>
-39.717

>  <SCORE.INTER>
-22.891

>  <SCORE.INTER.CONST>
1

>  <SCORE.INTER.POLAR>
-3.79612

>  <SCORE.INTER.ROT>
2

>  <SCORE.INTER.SOLV>
14.0641

>  <SCORE.INTER.VDW>
-12.2283

>  <SCORE.INTER.norm>
-1.90759

>  <SCORE.INTRA>
0.374321

>  <SCORE.INTRA.DIHEDRAL>
0.769716

>  <SCORE.INTRA.DIHEDRAL.0>
2.84556

>  <SCORE.INTRA.POLAR>
-0.00737719

>  <SCORE.INTRA.POLAR.0>
-0.0382042

>  <SCORE.INTRA.REPUL>
0

>  <SCORE.INTRA.REPUL.0>
0

>  <SCORE.INTRA.SOLV>
-0.461074

>  <SCORE.INTRA.SOLV.lig_0>
-25.848

>  <SCORE.INTRA.VDW>
0.245083

>  <SCORE.INTRA.VDW.0>
-1.38046

>  <SCORE.INTRA.norm>
0.0311934

>  <SCORE.RESTR>
1.50772

>  <SCORE.RESTR.CAVITY>
1.50772

>  <SCORE.RESTR.norm>
0.125643

>  <SCORE.SYSTEM>
-18.708

>  <SCORE.SYSTEM.CONST>
0

>  <SCORE.SYSTEM.DIHEDRAL>
4.11309

>  <SCORE.SYSTEM.POLAR>
-3.01989

>  <SCORE.SYSTEM.SOLV>
0.0841331

>  <SCORE.SYSTEM.VDW>
-3.80476

>  <SCORE.SYSTEM.norm>
-1.559

>  <SCORE.heavy>
12

>  <SCORE.norm>
-3.30975

$$$$
P136004391
 OpenBabel12072022113D
libRbt.so/2013.1/901 2013/11/27
 16 16  0  0  0  0  0  0  0  0999 V2000
    0.4466   12.7003    1.9448 C   0  0  0  0  0  0  0  0  0  0  0  0
    1.7058   12.8390    2.8034 C   0  0  2  0  0  0  0  0  0  0  0  0
    1.8680   11.6369    3.7359 C   0  0  0  0  0  0  0  0  0  0  0  0
    2.8743   11.7670    4.7976 N   0  0  0  0  0  0  0  0  0  0  0  0
    3.3308   13.0891    5.2383 C   0  0  0  0  0  0  0  0  0  0  0  0
    3.0967   14.2442    4.2749 C   0  0  0  0  0  0  0  0  0  0  0  0
    1.7429   14.1465    3.5921 C   0  0  2  0  0  0  0  0  0  0  0  0
    0.6490   14.2420    4.5819 N   0  3  0  0  0  0  0  0  0  0  0  0
    0.5501   13.3353    5.1328 H   0  0  0  0  0  0  0  0  0  0  0  0
    0.7989   14.9184    5.3334 H   0  0  0  0  0  0  0  0  0  0  0  0
   -0.2907   14.3620    4.2010 H   0  0  0  0  0  0  0  0  0  0  0  0
    2.4711   10.9045    5.9788 C   0  0  1  0  0  0  0  0  0  0  0  0
    2.2998    9.4422    5.5713 C   0  0  0  0  0  0  0  0  0  0  0  0
    3.4772   11.0257    7.2087 C   0  0  0  0  0  0  0  0  0  0  0  0
    4.6987   11.1136    6.9248 O   0  0  0  0  0  0  0  0  0  0  0  0
    2.9430   11.0295    8.3732 O   0  5  0  0  0  0  0  0  0  0  0  0
  2  3  1  0  0  0  0
  2  1  1  1  0  0  0
  2  7  1  0  0  0  0
  3  4  1  0  0  0  0
  4  5  1  0  0  0  0
  4 12  1  0  0  0  0
  5  6  1  0  0  0  0
  6  7  1  0  0  0  0
  7  8  1  1  0  0  0
  8  9  1  0  0  0  0
  8 10  1  0  0  0  0
  8 11  1  0  0  0  0
 12 13  1  6  0  0  0
 12 14  1  0  0  0  0
 14 15  2  0  0  0  0
 14 16  1  0  0  0  0
M  CHG  2   8   1  16  -1
M  END
>  <CHROM.0>
-56.80181995,-62.00727472,-70.38797298,-48.72201471,-60.27759804,-60.80937714
-66.51582255,-175.89393178,-167.63658751

>  <CHROM.1>
57.22311161,45.73924174,-38.33856071,2.41156605,12.17039293,5.03318459,2.44432212
-1.00233653,-0.19405174

>  <Name>
P136004391

>  <RI>
1.34432e+07

>  <Rbt.Current_Directory>
/home/fstefaniak/projects/zuza/docking/adenine/4XNR

>  <Rbt.Executable>
rbdock ($Id: //depot/dev/client3/rdock/2013.1/src/exe/rbdock.cxx#4 $)

>  <Rbt.Library>
libRbt.so (2013.1, Build901 2013/11/27)

>  <Rbt.Parameter_File>
/home/fstefaniak/progs/rDock//data/scripts/dock_solv.prm

>  <Rbt.Receptor>
4xnr.prm

>  <SCORE>
-40.5782

>  <SCORE.INTER>
-18.5551

>  <SCORE.INTER.CONST>
1

>  <SCORE.INTER.POLAR>
-3.23665

>  <SCORE.INTER.ROT>
2

>  <SCORE.INTER.SOLV>
18.8333

>  <SCORE.INTER.VDW>
-12.7923

>  <SCORE.INTER.norm>
-1.42731

>  <SCORE.INTRA>
-2.14756

>  <SCORE.INTRA.DIHEDRAL>
0.366215

>  <SCORE.INTRA.DIHEDRAL.0>
1.37702

>  <SCORE.INTRA.POLAR>
0.254146

>  <SCORE.INTRA.POLAR.0>
-0.254146

>  <SCORE.INTRA.REPUL>
0

>  <SCORE.INTRA.REPUL.0>
0

>  <SCORE.INTRA.SOLV>
-6.58841

>  <SCORE.INTRA.SOLV.lig_0>
-40.6066

>  <SCORE.INTRA.VDW>
0.0994441

>  <SCORE.INTRA.VDW.0>
2.25181

>  <SCORE.INTRA.norm>
-0.165197

>  <SCORE.RESTR>
0.923457

>  <SCORE.RESTR.CAVITY>
0.923457

>  <SCORE.RESTR.norm>
0.0710352

>  <SCORE.SYSTEM>
-20.799

>  <SCORE.SYSTEM.CONST>
0

>  <SCORE.SYSTEM.DIHEDRAL>
4.22003

>  <SCORE.SYSTEM.POLAR>
-2.96059

>  <SCORE.SYSTEM.SOLV>
0.14416

>  <SCORE.SYSTEM.VDW>
-5.45211

>  <SCORE.SYSTEM.norm>
-1.59992

>  <SCORE.heavy>
13

>  <SCORE.norm>
-3.1214

$$$$
P136004391
 OpenBabel12072022113D
libRbt.so/2013.1/901 2013/11/27
 16 16  0  0  0  0  0  0  0  0999 V2000
    3.1331   10.9963    8.7515 C   0  0  0  0  0  0  0  0  0  0  0  0
    3.5975   11.0137    7.2933 C   0  0  2  0  0  0  0  0  0  0  0  0
    3.3486   12.3821    6.6556 C   0  0  0  0  0  0  0  0  0  0  0  0
    3.4936   12.4568    5.1961 N   0  0  0  0  0  0  0  0  0  0  0  0
    3.3974   11.2479    4.3715 C   0  0  0  0  0  0  0  0  0  0  0  0
    3.6148    9.9206    5.0844 C   0  0  0  0  0  0  0  0  0  0  0  0
    2.9651    9.9026    6.4577 C   0  0  2  0  0  0  0  0  0  0  0  0
    1.4979   10.0441    6.3449 N   0  3  0  0  0  0  0  0  0  0  0  0
    1.1003    9.3593    5.6320 H   0  0  0  0  0  0  0  0  0  0  0  0
    0.9698    9.7910    7.1827 H   0  0  0  0  0  0  0  0  0  0  0  0
    1.1601   10.9397    5.9896 H   0  0  0  0  0  0  0  0  0  0  0  0
    2.5999   13.5590    4.6594 C   0  0  1  0  0  0  0  0  0  0  0  0
    3.3960   14.5799    3.8484 C   0  0  0  0  0  0  0  0  0  0  0  0
    1.3736   13.0042    3.8062 C   0  0  0  0  0  0  0  0  0  0  0  0
    1.2700   13.4363    2.6302 O   0  0  0  0  0  0  0  0  0  0  0  0
    0.6116   12.1622    4.3995 O   0  5  0  0  0  0  0  0  0  0  0  0
  2  3  1  0  0  0  0
  2  1  1  1  0  0  0
  2  7  1  0  0  0  0
  3  4  1  0  0  0  0
  4  5  1  0  0  0  0
  4 12  1  0  0  0  0
  5  6  1  0  0  0  0
  6  7  1  0  0  0  0
  7  8  1  6  0  0  0
  8  9  1  0  0  0  0
  8 10  1  0  0  0  0
  8 11  1  0  0  0  0
 12 13  1  6  0  0  0
 12 14  1  0  0  0  0
 14 15  2  0  0  0  0
 14 16  1  0  0  0  0
M  CHG  2   8   1  16  -1
M  END
>  <CHROM.0>
-58.08077370,-175.51643784,-70.06421963,-47.42763668,-174.11507711,-63.57826328
-173.32358332,-63.72211495,-167.59109699

>  <CHROM.1>
124.07094600,170.60074303,-123.55437726,2.59082312,11.89354987,5.33629617
-1.26387990,-0.74712316,-0.68166363

>  <Name>
P136004391

>  <RI>
1.34432e+07

>  <Rbt.Current_Directory>
/home/fstefaniak/projects/zuza/docking/adenine/4XNR

>  <Rbt.Executable>
rbdock ($Id: //depot/dev/client3/rdock/2013.1/src/exe/rbdock.cxx#4 $)

>  <Rbt.Library>
libRbt.so (2013.1, Build901 2013/11/27)

>  <Rbt.Parameter_File>
/home/fstefaniak/progs/rDock//data/scripts/dock_solv.prm

>  <Rbt.Receptor>
4xnr.prm

>  <SCORE>
-39.3409

>  <SCORE.INTER>
-14.6024

>  <SCORE.INTER.CONST>
1

>  <SCORE.INTER.POLAR>
-1.86379

>  <SCORE.INTER.ROT>
2

>  <SCORE.INTER.SOLV>
8.70734

>  <SCORE.INTER.VDW>
-11.3581

>  <SCORE.INTER.norm>
-1.12326

>  <SCORE.INTRA>
-5.07567

>  <SCORE.INTRA.DIHEDRAL>
2.00509

>  <SCORE.INTRA.DIHEDRAL.0>
1.37702

>  <SCORE.INTRA.POLAR>
-1.20419

>  <SCORE.INTRA.POLAR.0>
-0.254146

>  <SCORE.INTRA.REPUL>
0

>  <SCORE.INTRA.REPUL.0>
0

>  <SCORE.INTRA.SOLV>
-2.77564

>  <SCORE.INTRA.SOLV.lig_0>
-40.6066

>  <SCORE.INTRA.VDW>
-0.596162

>  <SCORE.INTRA.VDW.0>
2.25181

>  <SCORE.INTRA.norm>
-0.390436

>  <SCORE.RESTR>
0.428598

>  <SCORE.RESTR.CAVITY>
0.428598

>  <SCORE.RESTR.norm>
0.0329691

>  <SCORE.SYSTEM>
-20.0914

>  <SCORE.SYSTEM.CONST>
0

>  <SCORE.SYSTEM.DIHEDRAL>
4.58871

>  <SCORE.SYSTEM.POLAR>
-2.97208

>  <SCORE.SYSTEM.SOLV>
0.0286476

>  <SCORE.SYSTEM.VDW>
-5.02647

>  <SCORE.SYSTEM.norm>
-1.54549

>  <SCORE.heavy>
13

>  <SCORE.norm>
-3.02622

$$$$
P136004391
 OpenBabel12072022113D
libRbt.so/2013.1/901 2013/11/27
 16 16  0  0  0  0  0  0  0  0999 V2000
    3.2255   11.1198    8.6081 C   0  0  0  0  0  0  0  0  0  0  0  0
    3.6499   11.2030    7.1401 C   0  0  2  0  0  0  0  0  0  0  0  0
    3.2932   12.5659    6.5432 C   0  0  0  0  0  0  0  0  0  0  0  0
    3.3952   12.6846    5.0831 N   0  0  0  0  0  0  0  0  0  0  0  0
    3.3593   11.4918    4.2308 C   0  0  0  0  0  0  0  0  0  0  0  0
    3.6836   10.1658    4.9046 C   0  0  0  0  0  0  0  0  0  0  0  0
    3.0723   10.0715    6.2923 C   0  0  2  0  0  0  0  0  0  0  0  0
    1.5964   10.1157    6.2185 N   0  3  0  0  0  0  0  0  0  0  0  0
    1.2286    9.4368    5.4842 H   0  0  0  0  0  0  0  0  0  0  0  0
    1.1082    9.7904    7.0555 H   0  0  0  0  0  0  0  0  0  0  0  0
    1.1895   11.0005    5.9117 H   0  0  0  0  0  0  0  0  0  0  0  0
    2.4159   13.7360    4.5960 C   0  0  1  0  0  0  0  0  0  0  0  0
    3.1167   14.8143    3.7716 C   0  0  0  0  0  0  0  0  0  0  0  0
    1.1947   13.1170    3.7804 C   0  0  0  0  0  0  0  0  0  0  0  0
    1.0184   13.5593    2.6169 O   0  0  0  0  0  0  0  0  0  0  0  0
    0.5110   12.2195    4.3875 O   0  5  0  0  0  0  0  0  0  0  0  0
  2  3  1  0  0  0  0
  2  1  1  1  0  0  0
  2  7  1  0  0  0  0
  3  4  1  0  0  0  0
  4  5  1  0  0  0  0
  4 12  1  0  0  0  0
  5  6  1  0  0  0  0
  6  7  1  0  0  0  0
  7  8  1  6  0  0  0
  8  9  1  0  0  0  0
  8 10  1  0  0  0  0
  8 11  1  0  0  0  0
 12 13  1  6  0  0  0
 12 14  1  0  0  0  0
 14 15  2  0  0  0  0
 14 16  1  0  0  0  0
M  CHG  2   8   1  16  -1
M  END
>  <CHROM.0>
-55.97971009,-58.99170321,-72.10136718,-45.94419462,-57.26279330,59.85328428
-170.66601539,-59.28926750,-168.30319116

>  <CHROM.1>
125.06118321,169.44456776,-123.73776660,2.53196980,12.05654632,5.23546304
-1.17097618,-0.75246302,-0.59684792

>  <Name>
P136004391

>  <RI>
1.34432e+07

>  <Rbt.Current_Directory>
/home/fstefaniak/projects/zuza/docking/adenine/4XNR

>  <Rbt.Executable>
rbdock ($Id: //depot/dev/client3/rdock/2013.1/src/exe/rbdock.cxx#4 $)

>  <Rbt.Library>
libRbt.so (2013.1, Build901 2013/11/27)

>  <Rbt.Parameter_File>
/home/fstefaniak/progs/rDock//data/scripts/dock_solv.prm

>  <Rbt.Receptor>
4xnr.prm

>  <SCORE>
-37.9174

>  <SCORE.INTER>
-14.0717

>  <SCORE.INTER.CONST>
1

>  <SCORE.INTER.POLAR>
-1.68794

>  <SCORE.INTER.ROT>
2

>  <SCORE.INTER.SOLV>
9.12246

>  <SCORE.INTER.VDW>
-11.7288

>  <SCORE.INTER.norm>
-1.08244

>  <SCORE.INTRA>
-5.03996

>  <SCORE.INTRA.DIHEDRAL>
2.0267

>  <SCORE.INTRA.DIHEDRAL.0>
1.37702

>  <SCORE.INTRA.POLAR>
-1.18923

>  <SCORE.INTRA.POLAR.0>
-0.254146

>  <SCORE.INTRA.REPUL>
0

>  <SCORE.INTRA.REPUL.0>
0

>  <SCORE.INTRA.SOLV>
-2.70469

>  <SCORE.INTRA.SOLV.lig_0>
-40.6066

>  <SCORE.INTRA.VDW>
-0.657573

>  <SCORE.INTRA.VDW.0>
2.25181

>  <SCORE.INTRA.norm>
-0.387689

>  <SCORE.RESTR>
0.32361

>  <SCORE.RESTR.CAVITY>
0.32361

>  <SCORE.RESTR.norm>
0.0248931

>  <SCORE.SYSTEM>
-19.1294

>  <SCORE.SYSTEM.CONST>
0

>  <SCORE.SYSTEM.DIHEDRAL>
4.79982

>  <SCORE.SYSTEM.POLAR>
-3.01079

>  <SCORE.SYSTEM.SOLV>
0.116284

>  <SCORE.SYSTEM.VDW>
-4.35566

>  <SCORE.SYSTEM.norm>
-1.47149

>  <SCORE.heavy>
13

>  <SCORE.norm>
-2.91672

$$$$
P136023713
 OpenBabel12072022113D
libRbt.so/2013.1/901 2013/11/27
 14 14  0  0  0  0  0  0  0  0999 V2000
    7.7033   18.4468    4.4217 C   0  0  0  0  0  0  0  0  0  0  0  0
    6.6706   18.0064    3.3865 C   0  0  0  0  0  0  0  0  0  0  0  0
    5.5171   17.5401    4.1721 N   0  0  0  0  0  0  0  0  0  0  0  0
    5.7012   17.8943    5.5904 C   0  0  0  0  0  0  0  0  0  0  0  0
    6.8626   18.8983    5.6053 C   0  0  2  0  0  0  0  0  0  0  0  0
    6.3758   20.2739    5.3911 N   0  3  0  0  0  0  0  0  0  0  0  0
    7.1091   20.8231    4.8509 H   0  0  0  0  0  0  0  0  0  0  0  0
    5.6272   20.3542    4.6936 H   0  0  0  0  0  0  0  0  0  0  0  0
    6.1634   20.8498    6.2037 H   0  0  0  0  0  0  0  0  0  0  0  0
    4.2662   17.5225    3.5827 C   0  0  0  0  0  0  0  0  0  0  0  0
    3.3472   16.5565    3.4806 C   0  0  0  0  0  0  0  0  0  0  0  0
    3.3801   15.1592    4.0634 C   0  0  0  0  0  0  0  0  0  0  0  0
    2.2984   14.4950    3.9705 O   0  0  0  0  0  0  0  0  0  0  0  0
    4.4473   14.8240    4.6311 O   0  5  0  0  0  0  0  0  0  0  0  0
  1  2  1  0  0  0  0
  1  5  1  0  0  0  0
  2  3  1  0  0  0  0
  3  4  1  0  0  0  0
  3 10  1  0  0  0  0
  4  5  1  0  0  0  0
  5  6  1  6  0  0  0
  6  7  1  0  0  0  0
  6  8  1  0  0  0  0
  6  9  1  0  0  0  0
 10 11  2  0  0  0  0
 11 12  1  0  0  0  0
 12 13  2  0  0  0  0
 12 14  1  0  0  0  0
M  CHG  2   6   1  14  -1
M  END
>  <CHROM.0>
-62.29959443,-62.30661244,-64.99563047,-48.61369470,-58.95712223,-60.28768716
-70.15629754,-57.90164675,-166.88841497

>  <CHROM.1>
128.23008787,-33.74862702,170.89378756,5.14908144,17.25757102,4.41221718
-0.85097883,0.10661076,-3.00624032

>  <Name>
P136023713

>  <RI>
1.34432e+07

>  <Rbt.Current_Directory>
/home/fstefaniak/projects/zuza/docking/adenine/4XNR

>  <Rbt.Executable>
rbdock ($Id: //depot/dev/client3/rdock/2013.1/src/exe/rbdock.cxx#4 $)

>  <Rbt.Library>
libRbt.so (2013.1, Build901 2013/11/27)

>  <Rbt.Parameter_File>
/home/fstefaniak/progs/rDock//data/scripts/dock_solv.prm

>  <Rbt.Receptor>
4xnr.prm

>  <SCORE>
-45.6381

>  <SCORE.INTER>
-19.0672

>  <SCORE.INTER.CONST>
1

>  <SCORE.INTER.POLAR>
-2.43419

>  <SCORE.INTER.ROT>
2

>  <SCORE.INTER.SOLV>
27.6369

>  <SCORE.INTER.VDW>
-18.7431

>  <SCORE.INTER.norm>
-1.73338

>  <SCORE.INTRA>
-5.75357

>  <SCORE.INTRA.DIHEDRAL>
-2.4211

>  <SCORE.INTRA.DIHEDRAL.0>
4.2411

>  <SCORE.INTRA.POLAR>
0.105

>  <SCORE.INTRA.POLAR.0>
-0.105

>  <SCORE.INTRA.REPUL>
0

>  <SCORE.INTRA.REPUL.0>
0

>  <SCORE.INTRA.SOLV>
-7.9557

>  <SCORE.INTRA.SOLV.lig_0>
-44.431

>  <SCORE.INTRA.VDW>
-0.922168

>  <SCORE.INTRA.VDW.0>
0.305974

>  <SCORE.INTRA.norm>
-0.523052

>  <SCORE.RESTR>
0

>  <SCORE.RESTR.CAVITY>
0

>  <SCORE.RESTR.norm>
0

>  <SCORE.SYSTEM>
-20.8174

>  <SCORE.SYSTEM.CONST>
0

>  <SCORE.SYSTEM.DIHEDRAL>
4.14206

>  <SCORE.SYSTEM.POLAR>
-2.94315

>  <SCORE.SYSTEM.SOLV>
0.275219

>  <SCORE.SYSTEM.VDW>
-5.54018

>  <SCORE.SYSTEM.norm>
-1.89249

>  <SCORE.heavy>
11

>  <SCORE.norm>
-4.14892

$$$$
P136023713
 OpenBabel12072022113D
libRbt.so/2013.1/901 2013/11/27
 14 14  0  0  0  0  0  0  0  0999 V2000
    2.8429   14.5329    3.6739 C   0  0  0  0  0  0  0  0  0  0  0  0
    4.0521   14.8867    4.5369 C   0  0  0  0  0  0  0  0  0  0  0  0
    4.3876   16.2728    4.1745 N   0  0  0  0  0  0  0  0  0  0  0  0
    3.3200   16.8430    3.3342 C   0  0  0  0  0  0  0  0  0  0  0  0
    2.1427   15.8661    3.4642 C   0  0  2  0  0  0  0  0  0  0  0  0
    1.3088   16.1951    4.6353 N   0  3  0  0  0  0  0  0  0  0  0  0
    1.3072   17.2492    4.7771 H   0  0  0  0  0  0  0  0  0  0  0  0
    0.2997   16.0933    4.4783 H   0  0  0  0  0  0  0  0  0  0  0  0
    1.5650   15.8094    5.5423 H   0  0  0  0  0  0  0  0  0  0  0  0
    5.1002   17.0477    5.0713 C   0  0  0  0  0  0  0  0  0  0  0  0
    6.0808   17.9386    4.8902 C   0  0  0  0  0  0  0  0  0  0  0  0
    6.6783   18.4308    3.5888 C   0  0  0  0  0  0  0  0  0  0  0  0
    6.0824   18.0549    2.5288 O   0  0  0  0  0  0  0  0  0  0  0  0
    7.7319   19.1047    3.6863 O   0  5  0  0  0  0  0  0  0  0  0  0
  1  2  1  0  0  0  0
  1  5  1  0  0  0  0
  2  3  1  0  0  0  0
  3  4  1  0  0  0  0
  3 10  1  0  0  0  0
  4  5  1  0  0  0  0
  5  6  1  1  0  0  0
  6  7  1  0  0  0  0
  6  8  1  0  0  0  0
  6  9  1  0  0  0  0
 10 11  2  0  0  0  0
 11 12  1  0  0  0  0
 12 13  2  0  0  0  0
 12 14  1  0  0  0  0
M  CHG  2   6   1  14  -1
M  END
>  <CHROM.0>
-55.29060665,-69.48895830,-56.81334337,-45.26990789,-55.94593948,-64.78580903
-70.12726245,-57.49751203,-168.54058248

>  <CHROM.1>
140.67779076,146.35713937,7.96655527,4.48805492,16.84661396,3.95420350,-2.67897589
-0.36264517,-0.75775968

>  <Name>
P136023713

>  <RI>
1.34432e+07

>  <Rbt.Current_Directory>
/home/fstefaniak/projects/zuza/docking/adenine/4XNR

>  <Rbt.Executable>
rbdock ($Id: //depot/dev/client3/rdock/2013.1/src/exe/rbdock.cxx#4 $)

>  <Rbt.Library>
libRbt.so (2013.1, Build901 2013/11/27)

>  <Rbt.Parameter_File>
/home/fstefaniak/progs/rDock//data/scripts/dock_solv.prm

>  <Rbt.Receptor>
4xnr.prm

>  <SCORE>
-44.6715

>  <SCORE.INTER>
-19.1752

>  <SCORE.INTER.CONST>
1

>  <SCORE.INTER.POLAR>
-4.17446

>  <SCORE.INTER.ROT>
2

>  <SCORE.INTER.SOLV>
25.751

>  <SCORE.INTER.VDW>
-12.3855

>  <SCORE.INTER.norm>
-1.7432

>  <SCORE.INTRA>
-5.02872

>  <SCORE.INTRA.DIHEDRAL>
-0.98358

>  <SCORE.INTRA.DIHEDRAL.0>
4.2411

>  <SCORE.INTRA.POLAR>
0.105

>  <SCORE.INTRA.POLAR.0>
-0.105

>  <SCORE.INTRA.REPUL>
0

>  <SCORE.INTRA.REPUL.0>
0

>  <SCORE.INTRA.SOLV>
-7.96977

>  <SCORE.INTRA.SOLV.lig_0>
-44.431

>  <SCORE.INTRA.VDW>
-0.909047

>  <SCORE.INTRA.VDW.0>
0.305974

>  <SCORE.INTRA.norm>
-0.457157

>  <SCORE.RESTR>
0

>  <SCORE.RESTR.CAVITY>
0

>  <SCORE.RESTR.norm>
0

>  <SCORE.SYSTEM>
-20.4676

>  <SCORE.SYSTEM.CONST>
0

>  <SCORE.SYSTEM.DIHEDRAL>
4.9466

>  <SCORE.SYSTEM.POLAR>
-3.05809

>  <SCORE.SYSTEM.SOLV>
0.294994

>  <SCORE.SYSTEM.VDW>
-5.19866

>  <SCORE.SYSTEM.norm>
-1.86069

>  <SCORE.heavy>
11

>  <SCORE.norm>
-4.06105

$$$$
P136023713
 OpenBabel12072022113D
libRbt.so/2013.1/901 2013/11/27
 14 14  0  0  0  0  0  0  0  0999 V2000
    0.8947   15.6198    4.6286 C   0  0  0  0  0  0  0  0  0  0  0  0
    2.1251   16.1455    3.8925 C   0  0  0  0  0  0  0  0  0  0  0  0
    3.2110   15.2212    4.2551 N   0  0  0  0  0  0  0  0  0  0  0  0
    2.6584   14.0521    4.9615 C   0  0  0  0  0  0  0  0  0  0  0  0
    1.1425   14.1231    4.7293 C   0  0  2  0  0  0  0  0  0  0  0  0
    0.7685   13.4573    3.4676 N   0  3  0  0  0  0  0  0  0  0  0  0
   -0.1393   13.8780    3.1071 H   0  0  0  0  0  0  0  0  0  0  0  0
    1.3498   13.7181    2.6629 H   0  0  0  0  0  0  0  0  0  0  0  0
    0.6067   12.4519    3.4742 H   0  0  0  0  0  0  0  0  0  0  0  0
    4.3095   15.1158    3.4217 C   0  0  0  0  0  0  0  0  0  0  0  0
    5.3668   15.9147    3.2423 C   0  0  0  0  0  0  0  0  0  0  0  0
    5.7199   17.1900    3.9784 C   0  0  0  0  0  0  0  0  0  0  0  0
    4.9789   17.4791    4.9720 O   0  0  0  0  0  0  0  0  0  0  0  0
    6.6648   17.8603    3.4971 O   0  5  0  0  0  0  0  0  0  0  0  0
  1  2  1  0  0  0  0
  1  5  1  0  0  0  0
  2  3  1  0  0  0  0
  3  4  1  0  0  0  0
  3 10  1  0  0  0  0
  4  5  1  0  0  0  0
  5  6  1  6  0  0  0
  6  7  1  0  0  0  0
  6  8  1  0  0  0  0
  6  9  1  0  0  0  0
 10 11  2  0  0  0  0
 11 12  1  0  0  0  0
 12 13  2  0  0  0  0
 12 14  1  0  0  0  0
M  CHG  2   6   1  14  -1
M  END
>  <CHROM.0>
-56.57635989,-177.63273643,-72.83334929,-46.25553026,-59.08537613,-174.83914411
-172.31760329,-59.51538030,-169.03414789

>  <CHROM.1>
77.01243554,-41.42313217,6.65791421,3.41302687,15.65112640,4.08632766,2.65695405
-0.32465703,-2.70458323

>  <Name>
P136023713

>  <RI>
1.34432e+07

>  <Rbt.Current_Directory>
/home/fstefaniak/projects/zuza/docking/adenine/4XNR

>  <Rbt.Executable>
rbdock ($Id: //depot/dev/client3/rdock/2013.1/src/exe/rbdock.cxx#4 $)

>  <Rbt.Library>
libRbt.so (2013.1, Build901 2013/11/27)

>  <Rbt.Parameter_File>
/home/fstefaniak/progs/rDock//data/scripts/dock_solv.prm

>  <Rbt.Receptor>
4xnr.prm

>  <SCORE>
-44.483

>  <SCORE.INTER>
-18.5468

>  <SCORE.INTER.CONST>
1

>  <SCORE.INTER.POLAR>
-2.4101

>  <SCORE.INTER.ROT>
2

>  <SCORE.INTER.SOLV>
18.3637

>  <SCORE.INTER.VDW>
-15.3855

>  <SCORE.INTER.norm>
-1.68607

>  <SCORE.INTRA>
-6.05243

>  <SCORE.INTRA.DIHEDRAL>
-2.91159

>  <SCORE.INTRA.DIHEDRAL.0>
4.2411

>  <SCORE.INTRA.POLAR>
0.105

>  <SCORE.INTRA.POLAR.0>
-0.105

>  <SCORE.INTRA.REPUL>
0

>  <SCORE.INTRA.REPUL.0>
0

>  <SCORE.INTRA.SOLV>
-7.83379

>  <SCORE.INTRA.SOLV.lig_0>
-44.431

>  <SCORE.INTRA.VDW>
-1.03673

>  <SCORE.INTRA.VDW.0>
0.305974

>  <SCORE.INTRA.norm>
-0.550221

>  <SCORE.RESTR>
0

>  <SCORE.RESTR.CAVITY>
0

>  <SCORE.RESTR.norm>
0

>  <SCORE.SYSTEM>
-19.8837

>  <SCORE.SYSTEM.CONST>
0

>  <SCORE.SYSTEM.DIHEDRAL>
4.73549

>  <SCORE.SYSTEM.POLAR>
-2.9747

>  <SCORE.SYSTEM.SOLV>
0.103182

>  <SCORE.SYSTEM.VDW>
-4.95306

>  <SCORE.SYSTEM.norm>
-1.80761

>  <SCORE.heavy>
11

>  <SCORE.norm>
-4.04391

$$$$
P136172721
 OpenBabel12072022113D
libRbt.so/2013.1/901 2013/11/27
 14 14  0  0  0  0  0  0  0  0999 V2000
    6.2556   18.4185    1.7721 H   0  0  0  0  0  0  0  0  0  0  0  0
    6.9253   18.6952    2.4979 N   0  0  0  0  0  0  0  0  0  0  0  0
    6.4522   18.4562    3.6687 C   0  0  0  0  0  0  0  0  0  0  0  0
    5.1007   17.8553    4.0305 C   0  0  2  0  0  0  0  0  0  0  0  0
    5.2120   17.9374    5.4666 N   0  0  0  0  0  0  0  0  0  0  0  0
    6.4096   18.4802    5.8786 C   0  0  0  0  0  0  0  0  0  0  0  0
    6.7170   18.6939    7.0372 O   0  0  0  0  0  0  0  0  0  0  0  0
    7.1536   18.7510    4.7807 N   0  0  0  0  0  0  0  0  0  0  0  0
    4.9707   16.4216    3.5226 C   0  0  0  0  0  0  0  0  0  0  0  0
    3.8208   15.6206    4.1644 C   0  0  0  0  0  0  0  0  0  0  0  0
    2.4462   16.1783    3.7916 C   0  0  0  0  0  0  0  0  0  0  0  0
    3.9139   14.1527    3.7387 C   0  0  0  0  0  0  0  0  0  0  0  0
    4.4839   17.7303    6.1372 H   0  0  0  0  0  0  0  0  0  0  0  0
    8.0610   19.1833    4.7968 H   0  0  0  0  0  0  0  0  0  0  0  0
  1  2  1  0  0  0  0
  2  3  2  0  0  0  0
  3  4  1  0  0  0  0
  3  8  1  0  0  0  0
  4  5  1  0  0  0  0
  4  9  1  1  0  0  0
  5  6  1  0  0  0  0
  5 13  1  0  0  0  0
  6  7  2  0  0  0  0
  6  8  1  0  0  0  0
  8 14  1  0  0  0  0
  9 10  1  0  0  0  0
 10 11  1  0  0  0  0
 10 12  1  0  0  0  0
M  END
>  <CHROM.0>
-58.09029250,-54.64040676,-69.83929328,-47.55458856,-59.03835772,-60.88580394
-66.74790476,-58.12711069,-167.62009556

>  <CHROM.1>
164.05492839,66.09031267,5.36469801,17.37393843,4.43237957,-0.38537547,-0.77169716
-1.69283826

>  <Name>
P136172721

>  <RI>
3.02409e+07

>  <Rbt.Current_Directory>
/home/fstefaniak/projects/zuza/docking/adenine/4XNR

>  <Rbt.Executable>
rbdock ($Id: //depot/dev/client3/rdock/2013.1/src/exe/rbdock.cxx#4 $)

>  <Rbt.Library>
libRbt.so (2013.1, Build901 2013/11/27)

>  <Rbt.Parameter_File>
/home/fstefaniak/progs/rDock//data/scripts/dock_solv.prm

>  <Rbt.Receptor>
4xnr.prm

>  <SCORE>
-44.5301

>  <SCORE.INTER>
-24.2771

>  <SCORE.INTER.CONST>
1

>  <SCORE.INTER.POLAR>
-1.88763

>  <SCORE.INTER.ROT>
2

>  <SCORE.INTER.SOLV>
12.9776

>  <SCORE.INTER.VDW>
-19.1518

>  <SCORE.INTER.norm>
-2.20701

>  <SCORE.INTRA>
0.392025

>  <SCORE.INTRA.DIHEDRAL>
0.93925

>  <SCORE.INTRA.DIHEDRAL.0>
0.303033

>  <SCORE.INTRA.POLAR>
0

>  <SCORE.INTRA.POLAR.0>
0

>  <SCORE.INTRA.REPUL>
0

>  <SCORE.INTRA.REPUL.0>
0

>  <SCORE.INTRA.SOLV>
0.0834605

>  <SCORE.INTRA.SOLV.lig_0>
-16.8277

>  <SCORE.INTRA.VDW>
-0.11933

>  <SCORE.INTRA.VDW.0>
-0.284868

>  <SCORE.INTRA.norm>
0.0356387

>  <SCORE.RESTR>
0

>  <SCORE.RESTR.CAVITY>
0

>  <SCORE.RESTR.norm>
0

>  <SCORE.SYSTEM>
-20.645

>  <SCORE.SYSTEM.CONST>
0

>  <SCORE.SYSTEM.DIHEDRAL>
4.34456

>  <SCORE.SYSTEM.POLAR>
-2.97474

>  <SCORE.SYSTEM.SOLV>
0.291439

>  <SCORE.SYSTEM.VDW>
-5.39289

>  <SCORE.SYSTEM.norm>
-1.87682

>  <SCORE.heavy>
11

>  <SCORE.norm>
-4.04819

$$$$
P136172721
 OpenBabel12072022113D
libRbt.so/2013.1/901 2013/11/27
 14 14  0  0  0  0  0  0  0  0999 V2000
    6.1287   18.5238    1.6963 H   0  0  0  0  0  0  0  0  0  0  0  0
    6.8313   18.7827    2.3972 N   0  0  0  0  0  0  0  0  0  0  0  0
    6.4107   18.5183    3.5825 C   0  0  0  0  0  0  0  0  0  0  0  0
    5.0750   17.9121    3.9913 C   0  0  2  0  0  0  0  0  0  0  0  0
    5.2512   17.9615    5.4224 N   0  0  0  0  0  0  0  0  0  0  0  0
    6.4678   18.4925    5.7920 C   0  0  0  0  0  0  0  0  0  0  0  0
    6.8277   18.6794    6.9400 O   0  0  0  0  0  0  0  0  0  0  0  0
    7.1624   18.7866    4.6680 N   0  0  0  0  0  0  0  0  0  0  0  0
    4.9179   16.4904    3.4577 C   0  0  0  0  0  0  0  0  0  0  0  0
    3.7919   15.6795    4.1285 C   0  0  0  0  0  0  0  0  0  0  0  0
    2.4035   16.2268    3.7933 C   0  0  0  0  0  0  0  0  0  0  0  0
    3.8852   14.2130    3.6981 C   0  0  0  0  0  0  0  0  0  0  0  0
    4.5534   17.7408    6.1204 H   0  0  0  0  0  0  0  0  0  0  0  0
    8.0708   19.2166    4.6529 H   0  0  0  0  0  0  0  0  0  0  0  0
  1  2  1  0  0  0  0
  2  3  2  0  0  0  0
  3  4  1  0  0  0  0
  3  8  1  0  0  0  0
  4  5  1  0  0  0  0
  4  9  1  6  0  0  0
  5  6  1  0  0  0  0
  5 13  1  0  0  0  0
  6  7  2  0  0  0  0
  6  8  1  0  0  0  0
  8 14  1  0  0  0  0
  9 10  1  0  0  0  0
 10 11  1  0  0  0  0
 10 12  1  0  0  0  0
M  END
>  <CHROM.0>
-58.68781057,-55.44625265,-68.58918655,-47.91703907,-59.90926820,-65.04097215
-69.89601920,-60.79976749,-168.02055055

>  <CHROM.1>
164.30106786,67.68385971,5.35666251,17.41892487,4.36828391,-0.31626675,-0.77637035
-1.61634464

>  <Name>
P136172721

>  <RI>
3.02409e+07

>  <Rbt.Current_Directory>
/home/fstefaniak/projects/zuza/docking/adenine/4XNR

>  <Rbt.Executable>
rbdock ($Id: //depot/dev/client3/rdock/2013.1/src/exe/rbdock.cxx#4 $)

>  <Rbt.Library>
libRbt.so (2013.1, Build901 2013/11/27)

>  <Rbt.Parameter_File>
/home/fstefaniak/progs/rDock//data/scripts/dock_solv.prm

>  <Rbt.Receptor>
4xnr.prm

>  <SCORE>
-44.5248

>  <SCORE.INTER>
-24.144

>  <SCORE.INTER.CONST>
1

>  <SCORE.INTER.POLAR>
-1.90377

>  <SCORE.INTER.ROT>
2

>  <SCORE.INTER.SOLV>
12.8866

>  <SCORE.INTER.VDW>
-18.979

>  <SCORE.INTER.norm>
-2.19491

>  <SCORE.INTRA>
0.388316

>  <SCORE.INTRA.DIHEDRAL>
1.01332

>  <SCORE.INTRA.DIHEDRAL.0>
0.303033

>  <SCORE.INTRA.POLAR>
0

>  <SCORE.INTRA.POLAR.0>
0

>  <SCORE.INTRA.REPUL>
0

>  <SCORE.INTRA.REPUL.0>
0

>  <SCORE.INTRA.SOLV>
0.0777695

>  <SCORE.INTRA.SOLV.lig_0>
-16.8277

>  <SCORE.INTRA.VDW>
-0.157229

>  <SCORE.INTRA.VDW.0>
-0.284868

>  <SCORE.INTRA.norm>
0.0353015

>  <SCORE.RESTR>
0

>  <SCORE.RESTR.CAVITY>
0

>  <SCORE.RESTR.norm>
0

>  <SCORE.SYSTEM>
-20.7691

>  <SCORE.SYSTEM.CONST>
0

>  <SCORE.SYSTEM.DIHEDRAL>
4.44202

>  <SCORE.SYSTEM.POLAR>
-2.96289

>  <SCORE.SYSTEM.SOLV>
0.267849

>  <SCORE.SYSTEM.VDW>
-5.53972

>  <SCORE.SYSTEM.norm>
-1.8881

>  <SCORE.heavy>
11

>  <SCORE.norm>
-4.04771

$$$$
P136172721
 OpenBabel12072022113D
libRbt.so/2013.1/901 2013/11/27
 14 14  0  0  0  0  0  0  0  0999 V2000
    6.1503   18.4942    1.7088 H   0  0  0  0  0  0  0  0  0  0  0  0
    6.8569   18.7531    2.4057 N   0  0  0  0  0  0  0  0  0  0  0  0
    6.4396   18.4970    3.5939 C   0  0  0  0  0  0  0  0  0  0  0  0
    5.1025   17.8998    4.0111 C   0  0  2  0  0  0  0  0  0  0  0  0
    5.2845   17.9558    5.4412 N   0  0  0  0  0  0  0  0  0  0  0  0
    6.5052   18.4824    5.8033 C   0  0  0  0  0  0  0  0  0  0  0  0
    6.8705   18.6734    6.9490 O   0  0  0  0  0  0  0  0  0  0  0  0
    7.1969   18.7671    4.6751 N   0  0  0  0  0  0  0  0  0  0  0  0
    4.9360   16.4763    3.4855 C   0  0  0  0  0  0  0  0  0  0  0  0
    3.7914   15.6834    4.1464 C   0  0  0  0  0  0  0  0  0  0  0  0
    2.4149   16.2534    3.7999 C   0  0  0  0  0  0  0  0  0  0  0  0
    3.8643   14.2158    3.7158 C   0  0  0  0  0  0  0  0  0  0  0  0
    4.5883   17.7423    6.1430 H   0  0  0  0  0  0  0  0  0  0  0  0
    8.1075   19.1923    4.6543 H   0  0  0  0  0  0  0  0  0  0  0  0
  1  2  1  0  0  0  0
  2  3  2  0  0  0  0
  3  4  1  0  0  0  0
  3  8  1  0  0  0  0
  4  5  1  0  0  0  0
  4  9  1  6  0  0  0
  5  6  1  0  0  0  0
  5 13  1  0  0  0  0
  6  7  2  0  0  0  0
  6  8  1  0  0  0  0
  8 14  1  0  0  0  0
  9 10  1  0  0  0  0
 10 11  1  0  0  0  0
 10 12  1  0  0  0  0
M  END
>  <CHROM.0>
-57.21683827,-55.11369751,-68.64974588,-45.82153006,-60.30487305,-61.37610025
-69.50370735,-60.29105840,-167.45212470

>  <CHROM.1>
165.38817755,67.08148431,5.37822735,17.41148517,4.38233619,-0.31604728,-0.76716893
-1.61648513

>  <Name>
P136172721

>  <RI>
3.02409e+07

>  <Rbt.Current_Directory>
/home/fstefaniak/projects/zuza/docking/adenine/4XNR

>  <Rbt.Executable>
rbdock ($Id: //depot/dev/client3/rdock/2013.1/src/exe/rbdock.cxx#4 $)

>  <Rbt.Library>
libRbt.so (2013.1, Build901 2013/11/27)

>  <Rbt.Parameter_File>
/home/fstefaniak/progs/rDock//data/scripts/dock_solv.prm

>  <Rbt.Receptor>
4xnr.prm

>  <SCORE>
-44.4244

>  <SCORE.INTER>
-24.0694

>  <SCORE.INTER.CONST>
1

>  <SCORE.INTER.POLAR>
-1.88063

>  <SCORE.INTER.ROT>
2

>  <SCORE.INTER.SOLV>
12.8578

>  <SCORE.INTER.VDW>
-18.9967

>  <SCORE.INTER.norm>
-2.18812

>  <SCORE.INTRA>
0.32877

>  <SCORE.INTRA.DIHEDRAL>
0.878082

>  <SCORE.INTRA.DIHEDRAL.0>
0.303033

>  <SCORE.INTRA.POLAR>
0

>  <SCORE.INTRA.POLAR.0>
0

>  <SCORE.INTRA.REPUL>
0

>  <SCORE.INTRA.REPUL.0>
0

>  <SCORE.INTRA.SOLV>
0.0716171

>  <SCORE.INTRA.SOLV.lig_0>
-16.8277

>  <SCORE.INTRA.VDW>
-0.146079

>  <SCORE.INTRA.VDW.0>
-0.284868

>  <SCORE.INTRA.norm>
0.0298882

>  <SCORE.RESTR>
0

>  <SCORE.RESTR.CAVITY>
0

>  <SCORE.RESTR.norm>
0

>  <SCORE.SYSTEM>
-20.6839

>  <SCORE.SYSTEM.CONST>
0

>  <SCORE.SYSTEM.DIHEDRAL>
4.64999

>  <SCORE.SYSTEM.POLAR>
-3.00889

>  <SCORE.SYSTEM.SOLV>
0.283242

>  <SCORE.SYSTEM.VDW>
-5.404

>  <SCORE.SYSTEM.norm>
-1.88035

>  <SCORE.heavy>
11

>  <SCORE.norm>
-4.03859

$$$$
P136172723
 OpenBabel12072022113D
libRbt.so/2013.1/901 2013/11/27
 14 14  0  0  0  0  0  0  0  0999 V2000
    6.5279   18.1972    1.8418 H   0  0  0  0  0  0  0  0  0  0  0  0
    6.7597   18.9334    2.5170 N   0  0  0  0  0  0  0  0  0  0  0  0
    6.3344   18.6264    3.6902 C   0  0  0  0  0  0  0  0  0  0  0  0
    5.5891   17.3700    4.1208 C   0  0  1  0  0  0  0  0  0  0  0  0
    5.4754   17.6650    5.5285 N   0  0  0  0  0  0  0  0  0  0  0  0
    6.0595   18.8651    5.8707 C   0  0  0  0  0  0  0  0  0  0  0  0
    6.1430   19.3022    7.0040 O   0  0  0  0  0  0  0  0  0  0  0  0
    6.5371   19.4423    4.7434 N   0  0  0  0  0  0  0  0  0  0  0  0
    4.2379   17.2488    3.4212 C   0  0  0  0  0  0  0  0  0  0  0  0
    3.2872   16.2065    4.0424 C   0  0  0  0  0  0  0  0  0  0  0  0
    1.8493   16.4908    3.5996 C   0  0  0  0  0  0  0  0  0  0  0  0
    3.6680   14.7736    3.6677 C   0  0  0  0  0  0  0  0  0  0  0  0
    5.1277   17.0413    6.2447 H   0  0  0  0  0  0  0  0  0  0  0  0
    7.0344   20.3153    4.7139 H   0  0  0  0  0  0  0  0  0  0  0  0
  1  2  1  0  0  0  0
  2  3  2  0  0  0  0
  3  4  1  0  0  0  0
  3  8  1  0  0  0  0
  4  5  1  0  0  0  0
  4  9  1  6  0  0  0
  5  6  1  0  0  0  0
  5 13  1  0  0  0  0
  6  7  2  0  0  0  0
  6  8  1  0  0  0  0
  8 14  1  0  0  0  0
  9 10  1  0  0  0  0
 10 11  1  0  0  0  0
 10 12  1  0  0  0  0
M  END
>  <CHROM.0>
-160.40722738,-52.21170453,-66.56290519,-43.88263231,-61.72232458,60.17013249
-69.92099009,-56.16712162,-168.14074249

>  <CHROM.1>
-165.98404814,160.85738163,5.07012232,17.71400544,4.39726160,-0.45113524
-0.70111052,-1.75916698

>  <Name>
P136172723

>  <RI>
3.02409e+07

>  <Rbt.Current_Directory>
/home/fstefaniak/projects/zuza/docking/adenine/4XNR

>  <Rbt.Executable>
rbdock ($Id: //depot/dev/client3/rdock/2013.1/src/exe/rbdock.cxx#4 $)

>  <Rbt.Library>
libRbt.so (2013.1, Build901 2013/11/27)

>  <Rbt.Parameter_File>
/home/fstefaniak/progs/rDock//data/scripts/dock_solv.prm

>  <Rbt.Receptor>
4xnr.prm

>  <SCORE>
-51.2338

>  <SCORE.INTER>
-36.258

>  <SCORE.INTER.CONST>
1

>  <SCORE.INTER.POLAR>
-4.08231

>  <SCORE.INTER.ROT>
2

>  <SCORE.INTER.SOLV>
13.5475

>  <SCORE.INTER.VDW>
-20.0134

>  <SCORE.INTER.norm>
-3.29618

>  <SCORE.INTRA>
0.655107

>  <SCORE.INTRA.DIHEDRAL>
2.00467

>  <SCORE.INTRA.DIHEDRAL.0>
0.3639

>  <SCORE.INTRA.POLAR>
0

>  <SCORE.INTRA.POLAR.0>
0

>  <SCORE.INTRA.REPUL>
0

>  <SCORE.INTRA.REPUL.0>
0

>  <SCORE.INTRA.SOLV>
0.0278357

>  <SCORE.INTRA.SOLV.lig_0>
-16.8173

>  <SCORE.INTRA.VDW>
-0.361146

>  <SCORE.INTRA.VDW.0>
-0.254075

>  <SCORE.INTRA.norm>
0.0595552

>  <SCORE.RESTR>
0

>  <SCORE.RESTR.CAVITY>
0

>  <SCORE.RESTR.norm>
0

>  <SCORE.SYSTEM>
-15.6309

>  <SCORE.SYSTEM.CONST>
0

>  <SCORE.SYSTEM.DIHEDRAL>
6.54425

>  <SCORE.SYSTEM.POLAR>
-2.45129

>  <SCORE.SYSTEM.SOLV>
0.144908

>  <SCORE.SYSTEM.VDW>
-4.47937

>  <SCORE.SYSTEM.norm>
-1.42099

>  <SCORE.heavy>
11

>  <SCORE.norm>
-4.65762

$$$$
P136172723
 OpenBabel12072022113D
libRbt.so/2013.1/901 2013/11/27
 14 14  0  0  0  0  0  0  0  0999 V2000
    6.5866   18.0857    1.9106 H   0  0  0  0  0  0  0  0  0  0  0  0
    6.7826   18.8638    2.5491 N   0  0  0  0  0  0  0  0  0  0  0  0
    6.3168   18.6197    3.7217 C   0  0  0  0  0  0  0  0  0  0  0  0
    5.5722   17.3795    4.1979 C   0  0  1  0  0  0  0  0  0  0  0  0
    5.4008   17.7550    5.5803 N   0  0  0  0  0  0  0  0  0  0  0  0
    5.9555   18.9820    5.8723 C   0  0  0  0  0  0  0  0  0  0  0  0
    5.9898   19.4861    6.9801 O   0  0  0  0  0  0  0  0  0  0  0  0
    6.4683   19.4992    4.7314 N   0  0  0  0  0  0  0  0  0  0  0  0
    4.2505   17.1966    3.4566 C   0  0  0  0  0  0  0  0  0  0  0  0
    3.3157   16.1344    4.0682 C   0  0  0  0  0  0  0  0  0  0  0  0
    1.8692   16.4211    3.6562 C   0  0  0  0  0  0  0  0  0  0  0  0
    3.6978   14.7130    3.6531 C   0  0  0  0  0  0  0  0  0  0  0  0
    5.0342   17.1692    6.3187 H   0  0  0  0  0  0  0  0  0  0  0  0
    6.9548   20.3765    4.6688 H   0  0  0  0  0  0  0  0  0  0  0  0
  1  2  1  0  0  0  0
  2  3  2  0  0  0  0
  3  4  1  0  0  0  0
  3  8  1  0  0  0  0
  4  5  1  0  0  0  0
  4  9  1  6  0  0  0
  5  6  1  0  0  0  0
  5 13  1  0  0  0  0
  6  7  2  0  0  0  0
  6  8  1  0  0  0  0
  8 14  1  0  0  0  0
  9 10  1  0  0  0  0
 10 11  1  0  0  0  0
 10 12  1  0  0  0  0
M  END
>  <CHROM.0>
-58.71181985,-50.66999365,-67.00840596,-49.05936136,-176.88373823,-63.77741131
-68.97544621,-60.64266250,-168.69743020

>  <CHROM.1>
-168.47468352,156.64669165,5.04022345,17.72637731,4.42039478,-0.53497277
-0.69733031,-1.88164038

>  <Name>
P136172723

>  <RI>
3.02409e+07

>  <Rbt.Current_Directory>
/home/fstefaniak/projects/zuza/docking/adenine/4XNR

>  <Rbt.Executable>
rbdock ($Id: //depot/dev/client3/rdock/2013.1/src/exe/rbdock.cxx#4 $)

>  <Rbt.Library>
libRbt.so (2013.1, Build901 2013/11/27)

>  <Rbt.Parameter_File>
/home/fstefaniak/progs/rDock//data/scripts/dock_solv.prm

>  <Rbt.Receptor>
4xnr.prm

>  <SCORE>
-50.5298

>  <SCORE.INTER>
-30.8272

>  <SCORE.INTER.CONST>
1

>  <SCORE.INTER.POLAR>
-2.91597

>  <SCORE.INTER.ROT>
2

>  <SCORE.INTER.SOLV>
13.7913

>  <SCORE.INTER.VDW>
-20.362

>  <SCORE.INTER.norm>
-2.80248

>  <SCORE.INTRA>
0.796094

>  <SCORE.INTRA.DIHEDRAL>
2.44509

>  <SCORE.INTRA.DIHEDRAL.0>
0.3639

>  <SCORE.INTRA.POLAR>
0

>  <SCORE.INTRA.POLAR.0>
0

>  <SCORE.INTRA.REPUL>
0

>  <SCORE.INTRA.REPUL.0>
0

>  <SCORE.INTRA.SOLV>
0.00522739

>  <SCORE.INTRA.SOLV.lig_0>
-16.8173

>  <SCORE.INTRA.VDW>
-0.429064

>  <SCORE.INTRA.VDW.0>
-0.254075

>  <SCORE.INTRA.norm>
0.0723722

>  <SCORE.RESTR>
0

>  <SCORE.RESTR.CAVITY>
0

>  <SCORE.RESTR.norm>
0

>  <SCORE.SYSTEM>
-20.4987

>  <SCORE.SYSTEM.CONST>
0

>  <SCORE.SYSTEM.DIHEDRAL>
4.37484

>  <SCORE.SYSTEM.POLAR>
-2.93456

>  <SCORE.SYSTEM.SOLV>
0.125384

>  <SCORE.SYSTEM.VDW>
-5.38399

>  <SCORE.SYSTEM.norm>
-1.86351

>  <SCORE.heavy>
11

>  <SCORE.norm>
-4.59362

$$$$
P136172723
 OpenBabel12072022113D
libRbt.so/2013.1/901 2013/11/27
 14 14  0  0  0  0  0  0  0  0999 V2000
    6.5409   18.1337    1.9121 H   0  0  0  0  0  0  0  0  0  0  0  0
    6.7712   18.8832    2.5728 N   0  0  0  0  0  0  0  0  0  0  0  0
    6.3167   18.6139    3.7444 C   0  0  0  0  0  0  0  0  0  0  0  0
    5.5413   17.3817    4.1913 C   0  0  1  0  0  0  0  0  0  0  0  0
    5.4037   17.7151    5.5882 N   0  0  0  0  0  0  0  0  0  0  0  0
    6.0011   18.9139    5.9117 C   0  0  0  0  0  0  0  0  0  0  0  0
    6.0687   19.3788    7.0350 O   0  0  0  0  0  0  0  0  0  0  0  0
    6.5116   19.4535    4.7802 N   0  0  0  0  0  0  0  0  0  0  0  0
    4.2029   17.2648    3.4668 C   0  0  0  0  0  0  0  0  0  0  0  0
    3.2556   16.1934    4.0420 C   0  0  0  0  0  0  0  0  0  0  0  0
    1.8178   16.4878    3.6057 C   0  0  0  0  0  0  0  0  0  0  0  0
    3.6454   14.7787    3.6114 C   0  0  0  0  0  0  0  0  0  0  0  0
    5.0307   17.1161    6.3127 H   0  0  0  0  0  0  0  0  0  0  0  0
    7.0242   20.3171    4.7388 H   0  0  0  0  0  0  0  0  0  0  0  0
  1  2  1  0  0  0  0
  2  3  2  0  0  0  0
  3  4  1  0  0  0  0
  3  8  1  0  0  0  0
  4  5  1  0  0  0  0
  4  9  1  6  0  0  0
  5  6  1  0  0  0  0
  5 13  1  0  0  0  0
  6  7  2  0  0  0  0
  6  8  1  0  0  0  0
  8 14  1  0  0  0  0
  9 10  1  0  0  0  0
 10 11  1  0  0  0  0
 10 12  1  0  0  0  0
M  END
>  <CHROM.0>
-57.21035442,-51.26732576,-67.06737397,-46.50729943,-177.77663616,-65.81873208
-68.94757210,-63.78661004,-168.08696441

>  <CHROM.1>
-169.56050377,159.82584099,5.03315219,17.72732258,4.42778824,-0.50523804
-0.68288852,-1.81881578

>  <Name>
P136172723

>  <RI>
3.02409e+07

>  <Rbt.Current_Directory>
/home/fstefaniak/projects/zuza/docking/adenine/4XNR

>  <Rbt.Executable>
rbdock ($Id: //depot/dev/client3/rdock/2013.1/src/exe/rbdock.cxx#4 $)

>  <Rbt.Library>
libRbt.so (2013.1, Build901 2013/11/27)

>  <Rbt.Parameter_File>
/home/fstefaniak/progs/rDock//data/scripts/dock_solv.prm

>  <Rbt.Receptor>
4xnr.prm

>  <SCORE>
-50.5196

>  <SCORE.INTER>
-30.5023

>  <SCORE.INTER.CONST>
1

>  <SCORE.INTER.POLAR>
-2.92529

>  <SCORE.INTER.ROT>
2

>  <SCORE.INTER.SOLV>
13.6784

>  <SCORE.INTER.VDW>
-20.0767

>  <SCORE.INTER.norm>
-2.77294

>  <SCORE.INTRA>
0.551489

>  <SCORE.INTRA.DIHEDRAL>
1.88495

>  <SCORE.INTRA.DIHEDRAL.0>
0.3639

>  <SCORE.INTRA.POLAR>
0

>  <SCORE.INTRA.POLAR.0>
0

>  <SCORE.INTRA.REPUL>
0

>  <SCORE.INTRA.REPUL.0>
0

>  <SCORE.INTRA.SOLV>
0.00255993

>  <SCORE.INTRA.SOLV.lig_0>
-16.8173

>  <SCORE.INTRA.VDW>
-0.392264

>  <SCORE.INTRA.VDW.0>
-0.254075

>  <SCORE.INTRA.norm>
0.0501354

>  <SCORE.RESTR>
0

>  <SCORE.RESTR.CAVITY>
0

>  <SCORE.RESTR.norm>
0

>  <SCORE.SYSTEM>
-20.5688

>  <SCORE.SYSTEM.CONST>
0

>  <SCORE.SYSTEM.DIHEDRAL>
4.82336

>  <SCORE.SYSTEM.POLAR>
-3.00111

>  <SCORE.SYSTEM.SOLV>
0.119758

>  <SCORE.SYSTEM.VDW>
-5.35652

>  <SCORE.SYSTEM.norm>
-1.86989

>  <SCORE.heavy>
11

>  <SCORE.norm>
-4.59269

$$$$
P136187106
 OpenBabel12072022113D
libRbt.so/2013.1/901 2013/11/27
 15 16  0  0  0  0  0  0  0  0999 V2000
    5.6294   18.4848    1.1620 H   0  0  0  0  0  0  0  0  0  0  0  0
    5.1149   17.6906    1.5504 N   0  0  0  0  0  0  0  0  0  0  0  0
    5.2104   17.6775    2.8314 C   0  0  0  0  0  0  0  0  0  0  0  0
    4.5931   16.6618    3.7861 C   0  0  2  0  0  0  0  0  0  0  0  0
    5.0467   15.2289    3.5559 C   0  0  0  0  0  0  0  0  0  0  0  0
    3.8464   14.4188    4.0201 C   0  0  0  0  0  0  0  0  0  0  0  0
    2.7183   15.2027    3.5217 N   0  0  0  0  0  0  0  0  0  0  0  0
    3.0592   16.6210    3.7364 C   0  0  0  0  0  0  0  0  0  0  0  0
    1.4487   14.8226    4.1189 C   0  0  0  0  0  0  0  0  0  0  0  0
    5.1043   17.2079    5.0317 N   0  0  0  0  0  0  0  0  0  0  0  0
    5.8480   18.3470    4.8451 C   0  0  0  0  0  0  0  0  0  0  0  0
    6.3632   19.0029    5.7319 O   0  0  0  0  0  0  0  0  0  0  0  0
    5.9062   18.6117    3.5175 N   0  0  0  0  0  0  0  0  0  0  0  0
    4.9216   16.8456    5.9577 H   0  0  0  0  0  0  0  0  0  0  0  0
    6.4116   19.3987    3.1501 H   0  0  0  0  0  0  0  0  0  0  0  0
  1  2  1  0  0  0  0
  2  3  2  0  0  0  0
  3 13  1  0  0  0  0
  4  3  1  0  0  0  0
  4  5  1  6  0  0  0
  4  8  1  0  0  0  0
  4 10  1  0  0  0  0
  5  6  1  0  0  0  0
  6  7  1  0  0  0  0
  7  8  1  0  0  0  0
  7  9  1  0  0  0  0
 10 11  1  0  0  0  0
 10 14  1  0  0  0  0
 11 12  2  0  0  0  0
 11 13  1  0  0  0  0
 13 15  1  0  0  0  0
M  END
>  <CHROM.0>
-57.81737280,-62.61311841,-69.36147003,-48.40469986,-174.53053582,-64.59108359
-67.44738533,-61.33318868,-167.83836508

>  <CHROM.1>
4.52006292,16.80346210,3.87120359,-0.09231480,-0.82357403,-1.54576891

>  <Name>
P136187106

>  <RI>
3.02409e+07

>  <Rbt.Current_Directory>
/home/fstefaniak/projects/zuza/docking/adenine/4XNR

>  <Rbt.Executable>
rbdock ($Id: //depot/dev/client3/rdock/2013.1/src/exe/rbdock.cxx#4 $)

>  <Rbt.Library>
libRbt.so (2013.1, Build901 2013/11/27)

>  <Rbt.Parameter_File>
/home/fstefaniak/progs/rDock//data/scripts/dock_solv.prm

>  <Rbt.Receptor>
4xnr.prm

>  <SCORE>
-45.9611

>  <SCORE.INTER>
-24.9883

>  <SCORE.INTER.CONST>
1

>  <SCORE.INTER.POLAR>
-2.13932

>  <SCORE.INTER.ROT>
0

>  <SCORE.INTER.SOLV>
13.1152

>  <SCORE.INTER.VDW>
-17.4995

>  <SCORE.INTER.norm>
-2.08236

>  <SCORE.INTRA>
0

>  <SCORE.INTRA.DIHEDRAL>
0

>  <SCORE.INTRA.DIHEDRAL.0>
0

>  <SCORE.INTRA.POLAR>
0

>  <SCORE.INTRA.POLAR.0>
0

>  <SCORE.INTRA.REPUL>
0

>  <SCORE.INTRA.REPUL.0>
0

>  <SCORE.INTRA.SOLV>
0

>  <SCORE.INTRA.SOLV.lig_0>
-20.0208

>  <SCORE.INTRA.VDW>
0

>  <SCORE.INTRA.VDW.0>
0

>  <SCORE.INTRA.norm>
0

>  <SCORE.RESTR>
0

>  <SCORE.RESTR.CAVITY>
0

>  <SCORE.RESTR.norm>
0

>  <SCORE.SYSTEM>
-20.9728

>  <SCORE.SYSTEM.CONST>
0

>  <SCORE.SYSTEM.DIHEDRAL>
4.34933

>  <SCORE.SYSTEM.POLAR>
-2.96011

>  <SCORE.SYSTEM.SOLV>
0.0950233

>  <SCORE.SYSTEM.VDW>
-5.59629

>  <SCORE.SYSTEM.norm>
-1.74773

>  <SCORE.heavy>
12

>  <SCORE.norm>
-3.83009

$$$$
P136187106
 OpenBabel12072022113D
libRbt.so/2013.1/901 2013/11/27
 15 16  0  0  0  0  0  0  0  0999 V2000
    5.6631   18.4928    1.1399 H   0  0  0  0  0  0  0  0  0  0  0  0
    5.1412   17.7047    1.5310 N   0  0  0  0  0  0  0  0  0  0  0  0
    5.2368   17.6951    2.8120 C   0  0  0  0  0  0  0  0  0  0  0  0
    4.6101   16.6884    3.7703 C   0  0  2  0  0  0  0  0  0  0  0  0
    5.0500   15.2505    3.5448 C   0  0  0  0  0  0  0  0  0  0  0  0
    3.8422   14.4534    4.0119 C   0  0  0  0  0  0  0  0  0  0  0  0
    2.7215   15.2463    3.5110 N   0  0  0  0  0  0  0  0  0  0  0  0
    3.0759   16.6620    3.7209 C   0  0  0  0  0  0  0  0  0  0  0  0
    1.4485   14.8802    4.1097 C   0  0  0  0  0  0  0  0  0  0  0  0
    5.1266   17.2338    5.0139 N   0  0  0  0  0  0  0  0  0  0  0  0
    5.8810   18.3652    4.8233 C   0  0  0  0  0  0  0  0  0  0  0  0
    6.4027   19.0191    5.7079 O   0  0  0  0  0  0  0  0  0  0  0  0
    5.9416   18.6249    3.4949 N   0  0  0  0  0  0  0  0  0  0  0  0
    4.9407   16.8764    5.9412 H   0  0  0  0  0  0  0  0  0  0  0  0
    6.4543   19.4059    3.1248 H   0  0  0  0  0  0  0  0  0  0  0  0
  1  2  1  0  0  0  0
  2  3  2  0  0  0  0
  3 13  1  0  0  0  0
  4  3  1  0  0  0  0
  4  5  1  6  0  0  0
  4  8  1  0  0  0  0
  4 10  1  0  0  0  0
  5  6  1  0  0  0  0
  6  7  1  0  0  0  0
  7  8  1  0  0  0  0
  7  9  1  0  0  0  0
 10 11  1  0  0  0  0
 10 14  1  0  0  0  0
 11 12  2  0  0  0  0
 11 13  1  0  0  0  0
 13 15  1  0  0  0  0
M  END
>  <CHROM.0>
-55.67197951,-60.94803079,-66.71141865,-46.42580453,-55.43676872,-62.70050111
-67.58982751,-61.39056402,-167.70442556

>  <CHROM.1>
4.53841129,16.83106906,3.85486836,-0.09237651,-0.81410665,-1.54916377

>  <Name>
P136187106

>  <RI>
3.02409e+07

>  <Rbt.Current_Directory>
/home/fstefaniak/projects/zuza/docking/adenine/4XNR

>  <Rbt.Executable>
rbdock ($Id: //depot/dev/client3/rdock/2013.1/src/exe/rbdock.cxx#4 $)

>  <Rbt.Library>
libRbt.so (2013.1, Build901 2013/11/27)

>  <Rbt.Parameter_File>
/home/fstefaniak/progs/rDock//data/scripts/dock_solv.prm

>  <Rbt.Receptor>
4xnr.prm

>  <SCORE>
-45.9538

>  <SCORE.INTER>
-25.0739

>  <SCORE.INTER.CONST>
1

>  <SCORE.INTER.POLAR>
-2.11065

>  <SCORE.INTER.ROT>
0

>  <SCORE.INTER.SOLV>
13.0766

>  <SCORE.INTER.VDW>
-17.6393

>  <SCORE.INTER.norm>
-2.08949

>  <SCORE.INTRA>
0

>  <SCORE.INTRA.DIHEDRAL>
0

>  <SCORE.INTRA.DIHEDRAL.0>
0

>  <SCORE.INTRA.POLAR>
0

>  <SCORE.INTRA.POLAR.0>
0

>  <SCORE.INTRA.REPUL>
0

>  <SCORE.INTRA.REPUL.0>
0

>  <SCORE.INTRA.SOLV>
0

>  <SCORE.INTRA.SOLV.lig_0>
-20.0208

>  <SCORE.INTRA.VDW>
0

>  <SCORE.INTRA.VDW.0>
0

>  <SCORE.INTRA.norm>
0

>  <SCORE.RESTR>
0

>  <SCORE.RESTR.CAVITY>
0

>  <SCORE.RESTR.norm>
0

>  <SCORE.SYSTEM>
-20.8799

>  <SCORE.SYSTEM.CONST>
0

>  <SCORE.SYSTEM.DIHEDRAL>
4.33908

>  <SCORE.SYSTEM.POLAR>
-3.02548

>  <SCORE.SYSTEM.SOLV>
0.290543

>  <SCORE.SYSTEM.VDW>
-5.3782

>  <SCORE.SYSTEM.norm>
-1.73999

>  <SCORE.heavy>
12

>  <SCORE.norm>
-3.82948

$$$$
P136187106
 OpenBabel12072022113D
libRbt.so/2013.1/901 2013/11/27
 15 16  0  0  0  0  0  0  0  0999 V2000
    5.6132   18.4620    1.1726 H   0  0  0  0  0  0  0  0  0  0  0  0
    5.0915   17.6710    1.5580 N   0  0  0  0  0  0  0  0  0  0  0  0
    5.1922   17.6486    2.8385 C   0  0  0  0  0  0  0  0  0  0  0  0
    4.5676   16.6336    3.7893 C   0  0  2  0  0  0  0  0  0  0  0  0
    5.0043   15.1973    3.5479 C   0  0  0  0  0  0  0  0  0  0  0  0
    3.7970   14.3976    4.0120 C   0  0  0  0  0  0  0  0  0  0  0  0
    2.6756   15.1972    3.5234 N   0  0  0  0  0  0  0  0  0  0  0  0
    3.0332   16.6102    3.7458 C   0  0  0  0  0  0  0  0  0  0  0  0
    1.4044   14.8274    4.1236 C   0  0  0  0  0  0  0  0  0  0  0  0
    5.0901   17.1659    5.0362 N   0  0  0  0  0  0  0  0  0  0  0  0
    5.8456   18.2979    4.8537 C   0  0  0  0  0  0  0  0  0  0  0  0
    6.3718   18.9422    5.7426 O   0  0  0  0  0  0  0  0  0  0  0  0
    5.9013   18.5705    3.5276 N   0  0  0  0  0  0  0  0  0  0  0  0
    4.9072   16.7996    5.9606 H   0  0  0  0  0  0  0  0  0  0  0  0
    6.4139   19.3543    3.1632 H   0  0  0  0  0  0  0  0  0  0  0  0
  1  2  1  0  0  0  0
  2  3  2  0  0  0  0
  3 13  1  0  0  0  0
  4  3  1  0  0  0  0
  4  5  1  6  0  0  0
  4  8  1  0  0  0  0
  4 10  1  0  0  0  0
  5  6  1  0  0  0  0
  6  7  1  0  0  0  0
  7  8  1  0  0  0  0
  7  9  1  0  0  0  0
 10 11  1  0  0  0  0
 10 14  1  0  0  0  0
 11 12  2  0  0  0  0
 11 13  1  0  0  0  0
 13 15  1  0  0  0  0
M  END
>  <CHROM.0>
-59.23944451,-60.89780563,-66.73577684,-47.10784495,-177.23737067,-63.50261152
-67.31604552,-59.43783639,-167.79288513

>  <CHROM.1>
4.49655520,16.77554432,3.87559665,-0.08665305,-0.81232844,-1.53516744

>  <Name>
P136187106

>  <RI>
3.02409e+07

>  <Rbt.Current_Directory>
/home/fstefaniak/projects/zuza/docking/adenine/4XNR

>  <Rbt.Executable>
rbdock ($Id: //depot/dev/client3/rdock/2013.1/src/exe/rbdock.cxx#4 $)

>  <Rbt.Library>
libRbt.so (2013.1, Build901 2013/11/27)

>  <Rbt.Parameter_File>
/home/fstefaniak/progs/rDock//data/scripts/dock_solv.prm

>  <Rbt.Receptor>
4xnr.prm

>  <SCORE>
-45.9505

>  <SCORE.INTER>
-24.9828

>  <SCORE.INTER.CONST>
1

>  <SCORE.INTER.POLAR>
-2.11925

>  <SCORE.INTER.ROT>
0

>  <SCORE.INTER.SOLV>
13.0471

>  <SCORE.INTER.VDW>
-17.5401

>  <SCORE.INTER.norm>
-2.0819

>  <SCORE.INTRA>
0

>  <SCORE.INTRA.DIHEDRAL>
0

>  <SCORE.INTRA.DIHEDRAL.0>
0

>  <SCORE.INTRA.POLAR>
0

>  <SCORE.INTRA.POLAR.0>
0

>  <SCORE.INTRA.REPUL>
0

>  <SCORE.INTRA.REPUL.0>
0

>  <SCORE.INTRA.SOLV>
0

>  <SCORE.INTRA.SOLV.lig_0>
-20.0208

>  <SCORE.INTRA.VDW>
0

>  <SCORE.INTRA.VDW.0>
0

>  <SCORE.INTRA.norm>
0

>  <SCORE.RESTR>
0

>  <SCORE.RESTR.CAVITY>
0

>  <SCORE.RESTR.norm>
0

>  <SCORE.SYSTEM>
-20.9677

>  <SCORE.SYSTEM.CONST>
0

>  <SCORE.SYSTEM.DIHEDRAL>
4.10592

>  <SCORE.SYSTEM.POLAR>
-2.97572

>  <SCORE.SYSTEM.SOLV>
0.107572

>  <SCORE.SYSTEM.VDW>
-5.46391

>  <SCORE.SYSTEM.norm>
-1.74731

>  <SCORE.heavy>
12

>  <SCORE.norm>
-3.82921

$$$$
P136187313
 OpenBabel12072022113D
libRbt.so/2013.1/901 2013/11/27
 15 16  0  0  0  0  0  0  0  0999 V2000
    7.0764   17.8771    1.6018 H   0  0  0  0  0  0  0  0  0  0  0  0
    6.2628   17.2989    1.8313 N   0  0  0  0  0  0  0  0  0  0  0  0
    5.9675   17.4249    3.0755 C   0  0  0  0  0  0  0  0  0  0  0  0
    4.8205   16.7309    3.8009 C   0  0  1  0  0  0  0  0  0  0  0  0
    3.4575   17.1682    3.2646 C   0  0  0  0  0  0  0  0  0  0  0  0
    2.3325   16.3523    3.8990 C   0  0  0  0  0  0  0  0  0  0  0  0
    2.6304   14.8603    3.8184 C   0  0  0  0  0  0  0  0  0  0  0  0
    3.8855   14.5629    4.4315 O   0  0  0  0  0  0  0  0  0  0  0  0
    4.9782   15.2093    3.7600 C   0  0  0  0  0  0  0  0  0  0  0  0
    5.0636   17.2731    5.1275 N   0  0  0  0  0  0  0  0  0  0  0  0
    6.1511   18.1101    5.1723 C   0  0  0  0  0  0  0  0  0  0  0  0
    6.5878   18.6509    6.1716 O   0  0  0  0  0  0  0  0  0  0  0  0
    6.6630   18.2158    3.9208 N   0  0  0  0  0  0  0  0  0  0  0  0
    4.5789   16.9844    5.9676 H   0  0  0  0  0  0  0  0  0  0  0  0
    7.4751   18.7740    3.7230 H   0  0  0  0  0  0  0  0  0  0  0  0
  1  2  1  0  0  0  0
  2  3  2  0  0  0  0
  3 13  1  0  0  0  0
  4  3  1  0  0  0  0
  4  5  1  6  0  0  0
  4  9  1  0  0  0  0
  4 10  1  0  0  0  0
  5  6  1  0  0  0  0
  6  7  1  0  0  0  0
  7  8  1  0  0  0  0
  8  9  1  0  0  0  0
 10 11  1  0  0  0  0
 10 14  1  0  0  0  0
 11 12  2  0  0  0  0
 11 13  1  0  0  0  0
 13 15  1  0  0  0  0
M  END
>  <CHROM.0>
-56.69303288,-62.46863204,-66.94428287,-46.90669502,-176.63453311,-64.25230545
-68.20019065,-62.07081015,-167.92394194

>  <CHROM.1>
4.90720998,16.81362416,4.04835811,-0.31191177,-0.66794571,-1.80087182

>  <Name>
P136187313

>  <RI>
3.02409e+07

>  <Rbt.Current_Directory>
/home/fstefaniak/projects/zuza/docking/adenine/4XNR

>  <Rbt.Executable>
rbdock ($Id: //depot/dev/client3/rdock/2013.1/src/exe/rbdock.cxx#4 $)

>  <Rbt.Library>
libRbt.so (2013.1, Build901 2013/11/27)

>  <Rbt.Parameter_File>
/home/fstefaniak/progs/rDock//data/scripts/dock_solv.prm

>  <Rbt.Receptor>
4xnr.prm

>  <SCORE>
-43.5805

>  <SCORE.INTER>
-22.5758

>  <SCORE.INTER.CONST>
1

>  <SCORE.INTER.POLAR>
-2.09684

>  <SCORE.INTER.ROT>
0

>  <SCORE.INTER.SOLV>
12.0051

>  <SCORE.INTER.VDW>
-15.6628

>  <SCORE.INTER.norm>
-1.88132

>  <SCORE.INTRA>
0

>  <SCORE.INTRA.DIHEDRAL>
0

>  <SCORE.INTRA.DIHEDRAL.0>
0

>  <SCORE.INTRA.POLAR>
0

>  <SCORE.INTRA.POLAR.0>
0

>  <SCORE.INTRA.REPUL>
0

>  <SCORE.INTRA.REPUL.0>
0

>  <SCORE.INTRA.SOLV>
0

>  <SCORE.INTRA.SOLV.lig_0>
-17.9212

>  <SCORE.INTRA.VDW>
0

>  <SCORE.INTRA.VDW.0>
0

>  <SCORE.INTRA.norm>
0

>  <SCORE.RESTR>
0

>  <SCORE.RESTR.CAVITY>
0

>  <SCORE.RESTR.norm>
0

>  <SCORE.SYSTEM>
-21.0047

>  <SCORE.SYSTEM.CONST>
0

>  <SCORE.SYSTEM.DIHEDRAL>
4.3232

>  <SCORE.SYSTEM.POLAR>
-2.99932

>  <SCORE.SYSTEM.SOLV>
0.102529

>  <SCORE.SYSTEM.VDW>
-5.48064

>  <SCORE.SYSTEM.norm>
-1.75039

>  <SCORE.heavy>
12

>  <SCORE.norm>
-3.63171

$$$$
P136187313
 OpenBabel12072022113D
libRbt.so/2013.1/901 2013/11/27
 15 16  0  0  0  0  0  0  0  0999 V2000
    7.0838   17.8789    1.6195 H   0  0  0  0  0  0  0  0  0  0  0  0
    6.2708   17.2990    1.8466 N   0  0  0  0  0  0  0  0  0  0  0  0
    5.9672   17.4300    3.0883 C   0  0  0  0  0  0  0  0  0  0  0  0
    4.8180   16.7355    3.8098 C   0  0  1  0  0  0  0  0  0  0  0  0
    3.4570   17.1656    3.2627 C   0  0  0  0  0  0  0  0  0  0  0  0
    2.3308   16.3489    3.8940 C   0  0  0  0  0  0  0  0  0  0  0  0
    2.6342   14.8575    3.8224 C   0  0  0  0  0  0  0  0  0  0  0  0
    3.8865   14.5673    4.4449 O   0  0  0  0  0  0  0  0  0  0  0  0
    4.9811   15.2143    3.7772 C   0  0  0  0  0  0  0  0  0  0  0  0
    5.0508   17.2850    5.1352 N   0  0  0  0  0  0  0  0  0  0  0  0
    6.1352   18.1259    5.1828 C   0  0  0  0  0  0  0  0  0  0  0  0
    6.5637   18.6730    6.1823 O   0  0  0  0  0  0  0  0  0  0  0  0
    6.6547   18.2273    3.9341 N   0  0  0  0  0  0  0  0  0  0  0  0
    4.5618   16.9986    5.9737 H   0  0  0  0  0  0  0  0  0  0  0  0
    7.4660   18.7873    3.7387 H   0  0  0  0  0  0  0  0  0  0  0  0
  1  2  1  0  0  0  0
  2  3  2  0  0  0  0
  3 13  1  0  0  0  0
  4  3  1  0  0  0  0
  4  5  1  6  0  0  0
  4  9  1  0  0  0  0
  4 10  1  0  0  0  0
  5  6  1  0  0  0  0
  6  7  1  0  0  0  0
  7  8  1  0  0  0  0
  8  9  1  0  0  0  0
 10 11  1  0  0  0  0
 10 14  1  0  0  0  0
 11 12  2  0  0  0  0
 11 13  1  0  0  0  0
 13 15  1  0  0  0  0
M  END
>  <CHROM.0>
-57.78691405,-59.24359205,-66.99239799,-47.92531081,-60.03342183,-62.83894852
-67.09801255,-60.75315279,-168.07185595

>  <CHROM.1>
4.90288436,16.81973009,4.05735224,-0.32076585,-0.66980117,-1.81118395

>  <Name>
P136187313

>  <RI>
3.02409e+07

>  <Rbt.Current_Directory>
/home/fstefaniak/projects/zuza/docking/adenine/4XNR

>  <Rbt.Executable>
rbdock ($Id: //depot/dev/client3/rdock/2013.1/src/exe/rbdock.cxx#4 $)

>  <Rbt.Library>
libRbt.so (2013.1, Build901 2013/11/27)

>  <Rbt.Parameter_File>
/home/fstefaniak/progs/rDock//data/scripts/dock_solv.prm

>  <Rbt.Receptor>
4xnr.prm

>  <SCORE>
-43.5461

>  <SCORE.INTER>
-22.6161

>  <SCORE.INTER.CONST>
1

>  <SCORE.INTER.POLAR>
-2.09684

>  <SCORE.INTER.ROT>
0

>  <SCORE.INTER.SOLV>
12.0279

>  <SCORE.INTER.VDW>
-15.6972

>  <SCORE.INTER.norm>
-1.88467

>  <SCORE.INTRA>
0

>  <SCORE.INTRA.DIHEDRAL>
0

>  <SCORE.INTRA.DIHEDRAL.0>
0

>  <SCORE.INTRA.POLAR>
0

>  <SCORE.INTRA.POLAR.0>
0

>  <SCORE.INTRA.REPUL>
0

>  <SCORE.INTRA.REPUL.0>
0

>  <SCORE.INTRA.SOLV>
0

>  <SCORE.INTRA.SOLV.lig_0>
-17.9212

>  <SCORE.INTRA.VDW>
0

>  <SCORE.INTRA.VDW.0>
0

>  <SCORE.INTRA.norm>
0

>  <SCORE.RESTR>
0

>  <SCORE.RESTR.CAVITY>
0

>  <SCORE.RESTR.norm>
0

>  <SCORE.SYSTEM>
-20.93

>  <SCORE.SYSTEM.CONST>
0

>  <SCORE.SYSTEM.DIHEDRAL>
3.95403

>  <SCORE.SYSTEM.POLAR>
-2.97326

>  <SCORE.SYSTEM.SOLV>
0.282064

>  <SCORE.SYSTEM.VDW>
-5.45451

>  <SCORE.SYSTEM.norm>
-1.74417

>  <SCORE.heavy>
12

>  <SCORE.norm>
-3.62884

$$$$
P136187313
 OpenBabel12072022113D
libRbt.so/2013.1/901 2013/11/27
 15 16  0  0  0  0  0  0  0  0999 V2000
    7.1096   17.8630    1.5868 H   0  0  0  0  0  0  0  0  0  0  0  0
    6.2908   17.2925    1.8172 N   0  0  0  0  0  0  0  0  0  0  0  0
    5.9977   17.4218    3.0616 C   0  0  0  0  0  0  0  0  0  0  0  0
    4.8448   16.7389    3.7882 C   0  0  1  0  0  0  0  0  0  0  0  0
    3.4856   17.1887    3.2527 C   0  0  0  0  0  0  0  0  0  0  0  0
    2.3535   16.3837    3.8884 C   0  0  0  0  0  0  0  0  0  0  0  0
    2.6373   14.8888    3.8081 C   0  0  0  0  0  0  0  0  0  0  0  0
    3.8901   14.5800    4.4205 O   0  0  0  0  0  0  0  0  0  0  0  0
    4.9882   15.2159    3.7478 C   0  0  0  0  0  0  0  0  0  0  0  0
    5.0939   17.2794    5.1143 N   0  0  0  0  0  0  0  0  0  0  0  0
    6.1893   18.1062    5.1578 C   0  0  0  0  0  0  0  0  0  0  0  0
    6.6317   18.6434    6.1566 O   0  0  0  0  0  0  0  0  0  0  0  0
    6.7012   18.2066    3.9059 N   0  0  0  0  0  0  0  0  0  0  0  0
    4.6072   16.9956    5.9549 H   0  0  0  0  0  0  0  0  0  0  0  0
    7.5183   18.7571    3.7072 H   0  0  0  0  0  0  0  0  0  0  0  0
  1  2  1  0  0  0  0
  2  3  2  0  0  0  0
  3 13  1  0  0  0  0
  4  3  1  0  0  0  0
  4  5  1  6  0  0  0
  4  9  1  0  0  0  0
  4 10  1  0  0  0  0
  5  6  1  0  0  0  0
  6  7  1  0  0  0  0
  7  8  1  0  0  0  0
  8  9  1  0  0  0  0
 10 11  1  0  0  0  0
 10 14  1  0  0  0  0
 11 12  2  0  0  0  0
 11 13  1  0  0  0  0
 13 15  1  0  0  0  0
M  END
>  <CHROM.0>
-58.22187567,-60.64741272,-66.99301924,-47.64170659,-59.83170110,-62.82686927
-66.65374835,-61.51770221,-168.26349994

>  <CHROM.1>
4.93245076,16.82092588,4.03548639,-0.30825899,-0.65901392,-1.79907817

>  <Name>
P136187313

>  <RI>
3.02409e+07

>  <Rbt.Current_Directory>
/home/fstefaniak/projects/zuza/docking/adenine/4XNR

>  <Rbt.Executable>
rbdock ($Id: //depot/dev/client3/rdock/2013.1/src/exe/rbdock.cxx#4 $)

>  <Rbt.Library>
libRbt.so (2013.1, Build901 2013/11/27)

>  <Rbt.Parameter_File>
/home/fstefaniak/progs/rDock//data/scripts/dock_solv.prm

>  <Rbt.Receptor>
4xnr.prm

>  <SCORE>
-43.527

>  <SCORE.INTER>
-22.5716

>  <SCORE.INTER.CONST>
1

>  <SCORE.INTER.POLAR>
-2.09684

>  <SCORE.INTER.ROT>
0

>  <SCORE.INTER.SOLV>
12.0311

>  <SCORE.INTER.VDW>
-15.6686

>  <SCORE.INTER.norm>
-1.88096

>  <SCORE.INTRA>
0

>  <SCORE.INTRA.DIHEDRAL>
0

>  <SCORE.INTRA.DIHEDRAL.0>
0

>  <SCORE.INTRA.POLAR>
0

>  <SCORE.INTRA.POLAR.0>
0

>  <SCORE.INTRA.REPUL>
0

>  <SCORE.INTRA.REPUL.0>
0

>  <SCORE.INTRA.SOLV>
0

>  <SCORE.INTRA.SOLV.lig_0>
-17.9212

>  <SCORE.INTRA.VDW>
0

>  <SCORE.INTRA.VDW.0>
0

>  <SCORE.INTRA.norm>
0

>  <SCORE.RESTR>
0

>  <SCORE.RESTR.CAVITY>
0

>  <SCORE.RESTR.norm>
0

>  <SCORE.SYSTEM>
-20.9555

>  <SCORE.SYSTEM.CONST>
0

>  <SCORE.SYSTEM.DIHEDRAL>
3.93757

>  <SCORE.SYSTEM.POLAR>
-2.97371

>  <SCORE.SYSTEM.SOLV>
0.281435

>  <SCORE.SYSTEM.VDW>
-5.46429

>  <SCORE.SYSTEM.norm>
-1.74629

>  <SCORE.heavy>
12

>  <SCORE.norm>
-3.62725

$$$$
P136190992
 OpenBabel12072022113D
libRbt.so/2013.1/901 2013/11/27
 14 14  0  0  0  0  0  0  0  0999 V2000
    8.0847   18.5818    4.5854 H   0  0  0  0  0  0  0  0  0  0  0  0
    7.7229   18.7409    3.6391 N   0  0  0  0  0  0  0  0  0  0  0  0
    6.5609   18.2092    3.5005 C   0  0  0  0  0  0  0  0  0  0  0  0
    5.7555   17.4339    4.5273 C   0  0  2  0  0  0  0  0  0  0  0  0
    4.6268   17.0502    3.6937 N   0  0  0  0  0  0  0  0  0  0  0  0
    4.7511   17.5465    2.3982 C   0  0  0  0  0  0  0  0  0  0  0  0
    4.0069   17.3353    1.4559 O   0  0  0  0  0  0  0  0  0  0  0  0
    5.8924   18.2808    2.3345 N   0  0  0  0  0  0  0  0  0  0  0  0
    3.6556   16.0414    4.1151 C   0  0  0  0  0  0  0  0  0  0  0  0
    2.2280   16.4305    3.7357 C   0  0  0  0  0  0  0  0  0  0  0  0
    4.0107   14.6568    3.5746 C   0  0  0  0  0  0  0  0  0  0  0  0
    5.3830   18.2754    5.7485 C   0  0  0  0  0  0  0  0  0  0  0  0
    6.5684   18.7726    6.5693 C   0  0  0  0  0  0  0  0  0  0  0  0
    6.2418   18.7076    1.4943 H   0  0  0  0  0  0  0  0  0  0  0  0
  1  2  1  0  0  0  0
  2  3  2  0  0  0  0
  3  4  1  0  0  0  0
  3  8  1  0  0  0  0
  4  5  1  0  0  0  0
  4 12  1  1  0  0  0
  5  6  1  0  0  0  0
  5  9  1  0  0  0  0
  6  7  2  0  0  0  0
  6  8  1  0  0  0  0
  8 14  1  0  0  0  0
  9 10  1  0  0  0  0
  9 11  1  0  0  0  0
 12 13  1  0  0  0  0
M  END
>  <CHROM.0>
-58.18071201,-63.34828477,-64.52451016,-47.93973709,-61.19021300,-63.19301783
-69.46670827,-62.06698706,-168.01309460

>  <CHROM.1>
-63.13967976,139.99465477,5.08495339,17.39422410,3.76714937,-0.37348020,-0.65129226
-1.52270819

>  <Name>
P136190992

>  <RI>
4.17015e+07

>  <Rbt.Current_Directory>
/home/fstefaniak/projects/zuza/docking/adenine/4XNR

>  <Rbt.Executable>
rbdock ($Id: //depot/dev/client3/rdock/2013.1/src/exe/rbdock.cxx#4 $)

>  <Rbt.Library>
libRbt.so (2013.1, Build901 2013/11/27)

>  <Rbt.Parameter_File>
/home/fstefaniak/progs/rDock//data/scripts/dock_solv.prm

>  <Rbt.Receptor>
4xnr.prm

>  <SCORE>
-40.4449

>  <SCORE.INTER>
-20.6041

>  <SCORE.INTER.CONST>
1

>  <SCORE.INTER.POLAR>
-1.71546

>  <SCORE.INTER.ROT>
2

>  <SCORE.INTER.SOLV>
11.73

>  <SCORE.INTER.VDW>
-16.8612

>  <SCORE.INTER.norm>
-1.71701

>  <SCORE.INTRA>
1.10681

>  <SCORE.INTRA.DIHEDRAL>
0.444265

>  <SCORE.INTRA.DIHEDRAL.0>
2.6544

>  <SCORE.INTRA.POLAR>
0

>  <SCORE.INTRA.POLAR.0>
0

>  <SCORE.INTRA.REPUL>
0

>  <SCORE.INTRA.REPUL.0>
0

>  <SCORE.INTRA.SOLV>
-0.239704

>  <SCORE.INTRA.SOLV.lig_0>
-12.2381

>  <SCORE.INTRA.VDW>
1.00453

>  <SCORE.INTRA.VDW.0>
-0.401924

>  <SCORE.INTRA.norm>
0.0922342

>  <SCORE.RESTR>
0

>  <SCORE.RESTR.CAVITY>
0

>  <SCORE.RESTR.norm>
0

>  <SCORE.SYSTEM>
-20.9477

>  <SCORE.SYSTEM.CONST>
0

>  <SCORE.SYSTEM.DIHEDRAL>
4.08139

>  <SCORE.SYSTEM.POLAR>
-2.97271

>  <SCORE.SYSTEM.SOLV>
0.271377

>  <SCORE.SYSTEM.VDW>
-5.50698

>  <SCORE.SYSTEM.norm>
-1.74564

>  <SCORE.heavy>
12

>  <SCORE.norm>
-3.37041

$$$$
P136190992
 OpenBabel12072022113D
libRbt.so/2013.1/901 2013/11/27
 14 14  0  0  0  0  0  0  0  0999 V2000
    8.0688   18.5842    4.6333 H   0  0  0  0  0  0  0  0  0  0  0  0
    7.7109   18.7463    3.6859 N   0  0  0  0  0  0  0  0  0  0  0  0
    6.5506   18.2129    3.5401 C   0  0  0  0  0  0  0  0  0  0  0  0
    5.7422   17.4320    4.5603 C   0  0  2  0  0  0  0  0  0  0  0  0
    4.6180   17.0492    3.7203 N   0  0  0  0  0  0  0  0  0  0  0  0
    4.7471   17.5507    2.4272 C   0  0  0  0  0  0  0  0  0  0  0  0
    4.0075   17.3417    1.4808 O   0  0  0  0  0  0  0  0  0  0  0  0
    5.8872   18.2875    2.3714 N   0  0  0  0  0  0  0  0  0  0  0  0
    3.6469   16.0370    4.1334 C   0  0  0  0  0  0  0  0  0  0  0  0
    2.2206   16.4235    3.7469 C   0  0  0  0  0  0  0  0  0  0  0  0
    4.0085   14.6547    3.5913 C   0  0  0  0  0  0  0  0  0  0  0  0
    5.3626   18.2681    5.7831 C   0  0  0  0  0  0  0  0  0  0  0  0
    6.5444   18.8004    6.5868 C   0  0  0  0  0  0  0  0  0  0  0  0
    6.2395   18.7183    1.5344 H   0  0  0  0  0  0  0  0  0  0  0  0
  1  2  1  0  0  0  0
  2  3  2  0  0  0  0
  3  4  1  0  0  0  0
  3  8  1  0  0  0  0
  4  5  1  0  0  0  0
  4 12  1  1  0  0  0
  5  6  1  0  0  0  0
  5  9  1  0  0  0  0
  6  7  2  0  0  0  0
  6  8  1  0  0  0  0
  8 14  1  0  0  0  0
  9 10  1  0  0  0  0
  9 11  1  0  0  0  0
 12 13  1  0  0  0  0
M  END
>  <CHROM.0>
-58.49948523,-62.60654508,-64.22065585,-48.89316448,-61.00329819,-63.19769458
-66.95543004,-59.97155913,-168.08265046

>  <CHROM.1>
-61.34572416,140.09596405,5.07537728,17.39696629,3.79487402,-0.37769923,-0.65492179
-1.52600805

>  <Name>
P136190992

>  <RI>
4.17015e+07

>  <Rbt.Current_Directory>
/home/fstefaniak/projects/zuza/docking/adenine/4XNR

>  <Rbt.Executable>
rbdock ($Id: //depot/dev/client3/rdock/2013.1/src/exe/rbdock.cxx#4 $)

>  <Rbt.Library>
libRbt.so (2013.1, Build901 2013/11/27)

>  <Rbt.Parameter_File>
/home/fstefaniak/progs/rDock//data/scripts/dock_solv.prm

>  <Rbt.Receptor>
4xnr.prm

>  <SCORE>
-40.4037

>  <SCORE.INTER>
-20.7182

>  <SCORE.INTER.CONST>
1

>  <SCORE.INTER.POLAR>
-1.72811

>  <SCORE.INTER.ROT>
2

>  <SCORE.INTER.SOLV>
11.6866

>  <SCORE.INTER.VDW>
-16.8806

>  <SCORE.INTER.norm>
-1.72651

>  <SCORE.INTRA>
1.2394

>  <SCORE.INTRA.DIHEDRAL>
0.416534

>  <SCORE.INTRA.DIHEDRAL.0>
2.6544

>  <SCORE.INTRA.POLAR>
0

>  <SCORE.INTRA.POLAR.0>
0

>  <SCORE.INTRA.REPUL>
0

>  <SCORE.INTRA.REPUL.0>
0

>  <SCORE.INTRA.SOLV>
-0.23214

>  <SCORE.INTRA.SOLV.lig_0>
-12.2381

>  <SCORE.INTRA.VDW>
1.1472

>  <SCORE.INTRA.VDW.0>
-0.401924

>  <SCORE.INTRA.norm>
0.103283

>  <SCORE.RESTR>
0

>  <SCORE.RESTR.CAVITY>
0

>  <SCORE.RESTR.norm>
0

>  <SCORE.SYSTEM>
-20.925

>  <SCORE.SYSTEM.CONST>
0

>  <SCORE.SYSTEM.DIHEDRAL>
3.73261

>  <SCORE.SYSTEM.POLAR>
-2.95446

>  <SCORE.SYSTEM.SOLV>
0.280405

>  <SCORE.SYSTEM.VDW>
-5.43946

>  <SCORE.SYSTEM.norm>
-1.74375

>  <SCORE.heavy>
12

>  <SCORE.norm>
-3.36698

$$$$
P136190992
 OpenBabel12072022113D
libRbt.so/2013.1/901 2013/11/27
 14 14  0  0  0  0  0  0  0  0999 V2000
    8.0837   18.5882    4.6289 H   0  0  0  0  0  0  0  0  0  0  0  0
    7.7267   18.7462    3.6805 N   0  0  0  0  0  0  0  0  0  0  0  0
    6.5667   18.2119    3.5357 C   0  0  0  0  0  0  0  0  0  0  0  0
    5.7575   17.4349    4.5582 C   0  0  2  0  0  0  0  0  0  0  0  0
    4.6342   17.0484    3.7186 N   0  0  0  0  0  0  0  0  0  0  0  0
    4.7645   17.5446    2.4237 C   0  0  0  0  0  0  0  0  0  0  0  0
    4.0260   17.3316    1.4773 O   0  0  0  0  0  0  0  0  0  0  0  0
    5.9045   18.2815    2.3660 N   0  0  0  0  0  0  0  0  0  0  0  0
    3.6630   16.0376    4.1349 C   0  0  0  0  0  0  0  0  0  0  0  0
    2.2359   16.4266    3.7539 C   0  0  0  0  0  0  0  0  0  0  0  0
    4.0203   14.6549    3.5907 C   0  0  0  0  0  0  0  0  0  0  0  0
    5.3763   18.2760    5.7772 C   0  0  0  0  0  0  0  0  0  0  0  0
    6.5569   18.8020    6.5867 C   0  0  0  0  0  0  0  0  0  0  0  0
    6.2575   18.7090    1.5276 H   0  0  0  0  0  0  0  0  0  0  0  0
  1  2  1  0  0  0  0
  2  3  2  0  0  0  0
  3  4  1  0  0  0  0
  3  8  1  0  0  0  0
  4  5  1  0  0  0  0
  4 12  1  1  0  0  0
  5  6  1  0  0  0  0
  5  9  1  0  0  0  0
  6  7  2  0  0  0  0
  6  8  1  0  0  0  0
  8 14  1  0  0  0  0
  9 10  1  0  0  0  0
  9 11  1  0  0  0  0
 12 13  1  0  0  0  0
M  END
>  <CHROM.0>
-58.92608831,-60.52822258,-67.59740850,-45.91867054,-56.59458445,-64.35991983
-69.13214705,-60.56921807,-168.11683541

>  <CHROM.1>
-61.84097082,139.69862542,5.09085864,17.39626703,3.79289860,-0.38032960,-0.65404554
-1.53170340

>  <Name>
P136190992

>  <RI>
4.17015e+07

>  <Rbt.Current_Directory>
/home/fstefaniak/projects/zuza/docking/adenine/4XNR

>  <Rbt.Executable>
rbdock ($Id: //depot/dev/client3/rdock/2013.1/src/exe/rbdock.cxx#4 $)

>  <Rbt.Library>
libRbt.so (2013.1, Build901 2013/11/27)

>  <Rbt.Parameter_File>
/home/fstefaniak/progs/rDock//data/scripts/dock_solv.prm

>  <Rbt.Receptor>
4xnr.prm

>  <SCORE>
-40.3938

>  <SCORE.INTER>
-20.6648

>  <SCORE.INTER.CONST>
1

>  <SCORE.INTER.POLAR>
-1.70784

>  <SCORE.INTER.ROT>
2

>  <SCORE.INTER.SOLV>
11.713

>  <SCORE.INTER.VDW>
-16.9214

>  <SCORE.INTER.norm>
-1.72206

>  <SCORE.INTRA>
1.18177

>  <SCORE.INTRA.DIHEDRAL>
0.409997

>  <SCORE.INTRA.DIHEDRAL.0>
2.6544

>  <SCORE.INTRA.POLAR>
0

>  <SCORE.INTRA.POLAR.0>
0

>  <SCORE.INTRA.REPUL>
0

>  <SCORE.INTRA.REPUL.0>
0

>  <SCORE.INTRA.SOLV>
-0.234314

>  <SCORE.INTRA.SOLV.lig_0>
-12.2381

>  <SCORE.INTRA.VDW>
1.09393

>  <SCORE.INTRA.VDW.0>
-0.401924

>  <SCORE.INTRA.norm>
0.0984811

>  <SCORE.RESTR>
0

>  <SCORE.RESTR.CAVITY>
0

>  <SCORE.RESTR.norm>
0

>  <SCORE.SYSTEM>
-20.9108

>  <SCORE.SYSTEM.CONST>
0

>  <SCORE.SYSTEM.DIHEDRAL>
4.45067

>  <SCORE.SYSTEM.POLAR>
-3.00139

>  <SCORE.SYSTEM.SOLV>
0.277732

>  <SCORE.SYSTEM.VDW>
-5.512

>  <SCORE.SYSTEM.norm>
-1.74256

>  <SCORE.heavy>
12

>  <SCORE.norm>
-3.36615

$$$$
P136208231
 OpenBabel12072022113D
libRbt.so/2013.1/901 2013/11/27
 15 16  0  0  0  0  0  0  0  0999 V2000
    6.8319   18.7117    2.4414 H   0  0  0  0  0  0  0  0  0  0  0  0
    7.0223   19.4033    3.1735 N   0  0  0  0  0  0  0  0  0  0  0  0
    6.4939   19.0528    4.2909 C   0  0  0  0  0  0  0  0  0  0  0  0
    5.6763   17.8051    4.5987 C   0  0  1  0  0  0  0  0  0  0  0  0
    5.4333   18.0497    5.9972 N   0  0  0  0  0  0  0  0  0  0  0  0
    6.0136   19.2156    6.4459 C   0  0  0  0  0  0  0  0  0  0  0  0
    5.9625   19.6295    7.5895 O   0  0  0  0  0  0  0  0  0  0  0  0
    6.6369   19.8074    5.3990 N   0  0  0  0  0  0  0  0  0  0  0  0
    4.4294   17.6715    3.7163 C   0  0  2  0  0  0  0  0  0  0  0  0
    3.5497   16.4685    4.0129 C   0  0  0  0  0  0  0  0  0  0  0  0
    4.1235   15.3650    3.1436 C   0  0  0  0  0  0  0  0  0  0  0  0
    4.9148   15.9910    2.1228 O   0  0  0  0  0  0  0  0  0  0  0  0
    4.7988   17.4105    2.2657 C   0  0  0  0  0  0  0  0  0  0  0  0
    4.9293   17.4363    6.6275 H   0  0  0  0  0  0  0  0  0  0  0  0
    7.1473   20.6718    5.4529 H   0  0  0  0  0  0  0  0  0  0  0  0
  1  2  1  0  0  0  0
  2  3  2  0  0  0  0
  3  8  1  0  0  0  0
  4  3  1  6  0  0  0
  4  5  1  0  0  0  0
  5  6  1  0  0  0  0
  5 14  1  0  0  0  0
  6  7  2  0  0  0  0
  6  8  1  0  0  0  0
  8 15  1  0  0  0  0
  9 10  1  1  0  0  0
  9 13  1  0  0  0  0
  9  4  1  0  0  0  0
 10 11  1  0  0  0  0
 11 12  1  0  0  0  0
 12 13  1  0  0  0  0
M  END
>  <CHROM.0>
-60.90181331,-48.78443423,-67.53378566,-46.17734209,-177.87188067,-63.51006028
-69.36294388,-60.19074383,-167.74128019

>  <CHROM.1>
-177.97693552,5.42161997,17.97727020,4.39451679,-2.14240149,0.84245034,1.27777252

>  <Name>
P136208231

>  <RI>
3.02409e+07

>  <Rbt.Current_Directory>
/home/fstefaniak/projects/zuza/docking/adenine/4XNR

>  <Rbt.Executable>
rbdock ($Id: //depot/dev/client3/rdock/2013.1/src/exe/rbdock.cxx#4 $)

>  <Rbt.Library>
libRbt.so (2013.1, Build901 2013/11/27)

>  <Rbt.Parameter_File>
/home/fstefaniak/progs/rDock//data/scripts/dock_solv.prm

>  <Rbt.Receptor>
4xnr.prm

>  <SCORE>
-50.8616

>  <SCORE.INTER>
-31.0738

>  <SCORE.INTER.CONST>
1

>  <SCORE.INTER.POLAR>
-3.54172

>  <SCORE.INTER.ROT>
1

>  <SCORE.INTER.SOLV>
17.186

>  <SCORE.INTER.VDW>
-18.9055

>  <SCORE.INTER.norm>
-2.58948

>  <SCORE.INTRA>
0.606063

>  <SCORE.INTRA.DIHEDRAL>
-0.076658

>  <SCORE.INTRA.DIHEDRAL.0>
0.289369

>  <SCORE.INTRA.POLAR>
0

>  <SCORE.INTRA.POLAR.0>
0

>  <SCORE.INTRA.REPUL>
0

>  <SCORE.INTRA.REPUL.0>
0

>  <SCORE.INTRA.SOLV>
-0.988149

>  <SCORE.INTRA.SOLV.lig_0>
-18.365

>  <SCORE.INTRA.VDW>
1.13847

>  <SCORE.INTRA.VDW.0>
-1.13211

>  <SCORE.INTRA.norm>
0.0505052

>  <SCORE.RESTR>
0

>  <SCORE.RESTR.CAVITY>
0

>  <SCORE.RESTR.norm>
0

>  <SCORE.SYSTEM>
-20.3938

>  <SCORE.SYSTEM.CONST>
0

>  <SCORE.SYSTEM.DIHEDRAL>
4.99505

>  <SCORE.SYSTEM.POLAR>
-2.98175

>  <SCORE.SYSTEM.SOLV>
0.136509

>  <SCORE.SYSTEM.VDW>
-5.36723

>  <SCORE.SYSTEM.norm>
-1.69949

>  <SCORE.heavy>
12

>  <SCORE.norm>
-4.23846

$$$$
P136208231
 OpenBabel12072022113D
libRbt.so/2013.1/901 2013/11/27
 15 16  0  0  0  0  0  0  0  0999 V2000
    6.8505   18.6885    2.4551 H   0  0  0  0  0  0  0  0  0  0  0  0
    7.0434   19.3757    3.1906 N   0  0  0  0  0  0  0  0  0  0  0  0
    6.5048   19.0270    4.3037 C   0  0  0  0  0  0  0  0  0  0  0  0
    5.6729   17.7866    4.6025 C   0  0  1  0  0  0  0  0  0  0  0  0
    5.4239   18.0291    6.0003 N   0  0  0  0  0  0  0  0  0  0  0  0
    6.0131   19.1877    6.4563 C   0  0  0  0  0  0  0  0  0  0  0  0
    5.9593   19.5984    7.6009 O   0  0  0  0  0  0  0  0  0  0  0  0
    6.6487   19.7765    5.4151 N   0  0  0  0  0  0  0  0  0  0  0  0
    4.4300   17.6684    3.7122 C   0  0  2  0  0  0  0  0  0  0  0  0
    3.5323   16.4778    4.0049 C   0  0  0  0  0  0  0  0  0  0  0  0
    4.0968   15.3653    3.1410 C   0  0  0  0  0  0  0  0  0  0  0  0
    4.9031   15.9789    2.1244 O   0  0  0  0  0  0  0  0  0  0  0  0
    4.8052   17.4001    2.2644 C   0  0  0  0  0  0  0  0  0  0  0  0
    4.9100   17.4188    6.6255 H   0  0  0  0  0  0  0  0  0  0  0  0
    7.1674   20.6356    5.4749 H   0  0  0  0  0  0  0  0  0  0  0  0
  1  2  1  0  0  0  0
  2  3  2  0  0  0  0
  3  8  1  0  0  0  0
  4  3  1  6  0  0  0
  4  5  1  0  0  0  0
  5  6  1  0  0  0  0
  5 14  1  0  0  0  0
  6  7  2  0  0  0  0
  6  8  1  0  0  0  0
  8 15  1  0  0  0  0
  9 10  1  1  0  0  0
  9 13  1  0  0  0  0
  9  4  1  0  0  0  0
 10 11  1  0  0  0  0
 11 12  1  0  0  0  0
 12 13  1  0  0  0  0
M  END
>  <CHROM.0>
-59.20035029,-48.54846785,-66.94161553,-46.44383577,-64.75792078,-64.70928682
-68.15707781,-60.72194414,-168.17056593

>  <CHROM.1>
-177.63759312,5.41967524,17.96065120,4.39960891,-2.13977716,0.83064825,1.27720239

>  <Name>
P136208231

>  <RI>
3.02409e+07

>  <Rbt.Current_Directory>
/home/fstefaniak/projects/zuza/docking/adenine/4XNR

>  <Rbt.Executable>
rbdock ($Id: //depot/dev/client3/rdock/2013.1/src/exe/rbdock.cxx#4 $)

>  <Rbt.Library>
libRbt.so (2013.1, Build901 2013/11/27)

>  <Rbt.Parameter_File>
/home/fstefaniak/progs/rDock//data/scripts/dock_solv.prm

>  <Rbt.Receptor>
4xnr.prm

>  <SCORE>
-50.8614

>  <SCORE.INTER>
-31.0837

>  <SCORE.INTER.CONST>
1

>  <SCORE.INTER.POLAR>
-3.54977

>  <SCORE.INTER.ROT>
1

>  <SCORE.INTER.SOLV>
17.1151

>  <SCORE.INTER.VDW>
-18.8616

>  <SCORE.INTER.norm>
-2.59031

>  <SCORE.INTRA>
0.579253

>  <SCORE.INTRA.DIHEDRAL>
-0.0724716

>  <SCORE.INTRA.DIHEDRAL.0>
0.289369

>  <SCORE.INTRA.POLAR>
0

>  <SCORE.INTRA.POLAR.0>
0

>  <SCORE.INTRA.REPUL>
0

>  <SCORE.INTRA.REPUL.0>
0

>  <SCORE.INTRA.SOLV>
-0.990359

>  <SCORE.INTRA.SOLV.lig_0>
-18.365

>  <SCORE.INTRA.VDW>
1.11067

>  <SCORE.INTRA.VDW.0>
-1.13211

>  <SCORE.INTRA.norm>
0.048271

>  <SCORE.RESTR>
0

>  <SCORE.RESTR.CAVITY>
0

>  <SCORE.RESTR.norm>
0

>  <SCORE.SYSTEM>
-20.3569

>  <SCORE.SYSTEM.CONST>
0

>  <SCORE.SYSTEM.DIHEDRAL>
4.9395

>  <SCORE.SYSTEM.POLAR>
-2.98579

>  <SCORE.SYSTEM.SOLV>
0.306798

>  <SCORE.SYSTEM.VDW>
-5.3674

>  <SCORE.SYSTEM.norm>
-1.69641

>  <SCORE.heavy>
12

>  <SCORE.norm>
-4.23845

$$$$
P136208231
 OpenBabel12072022113D
libRbt.so/2013.1/901 2013/11/27
 15 16  0  0  0  0  0  0  0  0999 V2000
    6.8420   18.6960    2.4479 H   0  0  0  0  0  0  0  0  0  0  0  0
    7.0378   19.3808    3.1849 N   0  0  0  0  0  0  0  0  0  0  0  0
    6.5037   19.0282    4.2990 C   0  0  0  0  0  0  0  0  0  0  0  0
    5.6731   17.7866    4.5969 C   0  0  1  0  0  0  0  0  0  0  0  0
    5.4297   18.0244    5.9966 N   0  0  0  0  0  0  0  0  0  0  0  0
    6.0207   19.1815    6.4541 C   0  0  0  0  0  0  0  0  0  0  0  0
    5.9714   19.5884    7.6003 O   0  0  0  0  0  0  0  0  0  0  0  0
    6.6519   19.7740    5.4123 N   0  0  0  0  0  0  0  0  0  0  0  0
    4.4267   17.6712    3.7113 C   0  0  2  0  0  0  0  0  0  0  0  0
    3.5331   16.4767    4.0001 C   0  0  0  0  0  0  0  0  0  0  0  0
    4.0964   15.3711    3.1267 C   0  0  0  0  0  0  0  0  0  0  0  0
    4.8969   15.9932    2.1106 O   0  0  0  0  0  0  0  0  0  0  0  0
    4.7964   17.4131    2.2602 C   0  0  0  0  0  0  0  0  0  0  0  0
    4.9185   17.4119    6.6218 H   0  0  0  0  0  0  0  0  0  0  0  0
    7.1708   20.6330    5.4729 H   0  0  0  0  0  0  0  0  0  0  0  0
  1  2  1  0  0  0  0
  2  3  2  0  0  0  0
  3  8  1  0  0  0  0
  4  3  1  6  0  0  0
  4  5  1  0  0  0  0
  5  6  1  0  0  0  0
  5 14  1  0  0  0  0
  6  7  2  0  0  0  0
  6  8  1  0  0  0  0
  8 15  1  0  0  0  0
  9 10  1  1  0  0  0
  9 13  1  0  0  0  0
  9  4  1  0  0  0  0
 10 11  1  0  0  0  0
 11 12  1  0  0  0  0
 12 13  1  0  0  0  0
M  END
>  <CHROM.0>
-58.24794494,-50.68560428,-67.54489587,-46.08559070,-177.04809875,-60.68721744
-67.74519840,-60.13962245,-168.37546271

>  <CHROM.1>
-177.85372692,5.42005633,17.96220016,4.39421342,-2.14438262,0.83223194,1.28517402

>  <Name>
P136208231

>  <RI>
3.02409e+07

>  <Rbt.Current_Directory>
/home/fstefaniak/projects/zuza/docking/adenine/4XNR

>  <Rbt.Executable>
rbdock ($Id: //depot/dev/client3/rdock/2013.1/src/exe/rbdock.cxx#4 $)

>  <Rbt.Library>
libRbt.so (2013.1, Build901 2013/11/27)

>  <Rbt.Parameter_File>
/home/fstefaniak/progs/rDock//data/scripts/dock_solv.prm

>  <Rbt.Receptor>
4xnr.prm

>  <SCORE>
-50.8482

>  <SCORE.INTER>
-30.9722

>  <SCORE.INTER.CONST>
1

>  <SCORE.INTER.POLAR>
-3.52537

>  <SCORE.INTER.ROT>
1

>  <SCORE.INTER.SOLV>
17.1055

>  <SCORE.INTER.VDW>
-18.8654

>  <SCORE.INTER.norm>
-2.58102

>  <SCORE.INTRA>
0.596222

>  <SCORE.INTRA.DIHEDRAL>
-0.0752124

>  <SCORE.INTRA.DIHEDRAL.0>
0.289369

>  <SCORE.INTRA.POLAR>
0

>  <SCORE.INTRA.POLAR.0>
0

>  <SCORE.INTRA.REPUL>
0

>  <SCORE.INTRA.REPUL.0>
0

>  <SCORE.INTRA.SOLV>
-0.988953

>  <SCORE.INTRA.SOLV.lig_0>
-18.365

>  <SCORE.INTRA.VDW>
1.1283

>  <SCORE.INTRA.VDW.0>
-1.13211

>  <SCORE.INTRA.norm>
0.0496852

>  <SCORE.RESTR>
0

>  <SCORE.RESTR.CAVITY>
0

>  <SCORE.RESTR.norm>
0

>  <SCORE.SYSTEM>
-20.4722

>  <SCORE.SYSTEM.CONST>
0

>  <SCORE.SYSTEM.DIHEDRAL>
4.61646

>  <SCORE.SYSTEM.POLAR>
-2.9946

>  <SCORE.SYSTEM.SOLV>
0.141636

>  <SCORE.SYSTEM.VDW>
-5.25217

>  <SCORE.SYSTEM.norm>
-1.70602

>  <SCORE.heavy>
12

>  <SCORE.norm>
-4.23735

$$$$
P136208459
 OpenBabel12072022113D
libRbt.so/2013.1/901 2013/11/27
 16 16  0  0  0  0  0  0  0  0999 V2000
    6.4203   19.0608    2.0677 H   0  0  0  0  0  0  0  0  0  0  0  0
    6.8950   19.5280    2.8631 N   0  0  0  0  0  0  0  0  0  0  0  0
    6.3966   19.1100    3.9713 C   0  0  0  0  0  0  0  0  0  0  0  0
    5.2956   18.0779    4.1759 C   0  0  2  0  0  0  0  0  0  0  0  0
    5.1758   18.1916    5.6159 N   0  0  0  0  0  0  0  0  0  0  0  0
    6.0717   19.0886    6.1566 C   0  0  0  0  0  0  0  0  0  0  0  0
    6.1311   19.3866    7.3355 O   0  0  0  0  0  0  0  0  0  0  0  0
    6.8324   19.5855    5.1543 N   0  0  0  0  0  0  0  0  0  0  0  0
    5.7465   16.6860    3.7633 C   0  0  0  0  0  0  0  0  0  0  0  0
    4.6007   15.9059    3.1605 C   0  0  0  0  0  0  0  0  0  0  0  0
    4.4752   15.7391    1.9517 O   0  0  0  0  0  0  0  0  0  0  0  0
    3.7380   15.3940    4.1016 N   0  0  0  0  0  0  0  0  0  0  0  0
    2.5964   14.5852    3.7475 C   0  0  0  0  0  0  0  0  0  0  0  0
    4.4502   17.7841    6.1910 H   0  0  0  0  0  0  0  0  0  0  0  0
    7.5259   20.3053    5.2634 H   0  0  0  0  0  0  0  0  0  0  0  0
    3.9053   15.5746    5.0835 H   0  0  0  0  0  0  0  0  0  0  0  0
  1  2  1  0  0  0  0
  2  3  2  0  0  0  0
  3  4  1  0  0  0  0
  3  8  1  0  0  0  0
  4  5  1  0  0  0  0
  4  9  1  1  0  0  0
  5  6  1  0  0  0  0
  5 14  1  0  0  0  0
  6  7  2  0  0  0  0
  6  8  1  0  0  0  0
  8 15  1  0  0  0  0
  9 10  1  0  0  0  0
 10 11  2  0  0  0  0
 10 12  1  0  0  0  0
 12 13  1  0  0  0  0
 12 16  1  0  0  0  0
M  END
>  <CHROM.0>
-62.68190425,-52.73053062,-65.45188351,-47.48550112,-175.15067254,-66.16950318
-73.62005566,-63.36796495,-168.01549018

>  <CHROM.1>
-145.15346809,102.42753732,5.30585944,17.58296191,4.34182180,-0.69440949
-0.87582807,-1.87925202

>  <Name>
P136208459

>  <RI>
9.71178e+06

>  <Rbt.Current_Directory>
/home/fstefaniak/projects/zuza/docking/adenine/4XNR

>  <Rbt.Executable>
rbdock ($Id: //depot/dev/client3/rdock/2013.1/src/exe/rbdock.cxx#4 $)

>  <Rbt.Library>
libRbt.so (2013.1, Build901 2013/11/27)

>  <Rbt.Parameter_File>
/home/fstefaniak/progs/rDock//data/scripts/dock_solv.prm

>  <Rbt.Receptor>
4xnr.prm

>  <SCORE>
-53.0861

>  <SCORE.INTER>
-33.6121

>  <SCORE.INTER.CONST>
1

>  <SCORE.INTER.POLAR>
-4.72571

>  <SCORE.INTER.ROT>
2

>  <SCORE.INTER.SOLV>
18.7767

>  <SCORE.INTER.VDW>
-17.8479

>  <SCORE.INTER.norm>
-2.80101

>  <SCORE.INTRA>
1.13475

>  <SCORE.INTRA.DIHEDRAL>
2.21832

>  <SCORE.INTRA.DIHEDRAL.0>
2.18805

>  <SCORE.INTRA.POLAR>
0.204173

>  <SCORE.INTRA.POLAR.0>
-0.204173

>  <SCORE.INTRA.REPUL>
0

>  <SCORE.INTRA.REPUL.0>
0

>  <SCORE.INTRA.SOLV>
-0.17452

>  <SCORE.INTRA.SOLV.lig_0>
-26.9986

>  <SCORE.INTRA.VDW>
-0.581337

>  <SCORE.INTRA.VDW.0>
-0.430334

>  <SCORE.INTRA.norm>
0.0945624

>  <SCORE.RESTR>
0

>  <SCORE.RESTR.CAVITY>
0

>  <SCORE.RESTR.norm>
0

>  <SCORE.SYSTEM>
-20.6087

>  <SCORE.SYSTEM.CONST>
0

>  <SCORE.SYSTEM.DIHEDRAL>
5.05746

>  <SCORE.SYSTEM.POLAR>
-2.95441

>  <SCORE.SYSTEM.SOLV>
0.0933993

>  <SCORE.SYSTEM.VDW>
-5.60805

>  <SCORE.SYSTEM.norm>
-1.71739

>  <SCORE.heavy>
12

>  <SCORE.norm>
-4.42384

$$$$
P136208459
 OpenBabel12072022113D
libRbt.so/2013.1/901 2013/11/27
 16 16  0  0  0  0  0  0  0  0999 V2000
    6.3999   19.0700    2.0758 H   0  0  0  0  0  0  0  0  0  0  0  0
    6.8968   19.5174    2.8691 N   0  0  0  0  0  0  0  0  0  0  0  0
    6.4162   19.0861    3.9800 C   0  0  0  0  0  0  0  0  0  0  0  0
    5.3069   18.0641    4.1898 C   0  0  2  0  0  0  0  0  0  0  0  0
    5.2183   18.1540    5.6337 N   0  0  0  0  0  0  0  0  0  0  0  0
    6.1364   19.0303    6.1709 C   0  0  0  0  0  0  0  0  0  0  0  0
    6.2240   19.3069    7.3533 O   0  0  0  0  0  0  0  0  0  0  0  0
    6.8824   19.5355    5.1617 N   0  0  0  0  0  0  0  0  0  0  0  0
    5.7315   16.6743    3.7438 C   0  0  0  0  0  0  0  0  0  0  0  0
    4.5627   15.9172    3.1559 C   0  0  0  0  0  0  0  0  0  0  0  0
    4.4221   15.7472    1.9493 O   0  0  0  0  0  0  0  0  0  0  0  0
    3.6977   15.4297    4.1077 N   0  0  0  0  0  0  0  0  0  0  0  0
    2.5348   14.6452    3.7687 C   0  0  0  0  0  0  0  0  0  0  0  0
    4.4996   17.7453    6.2167 H   0  0  0  0  0  0  0  0  0  0  0  0
    7.5870   20.2447    5.2687 H   0  0  0  0  0  0  0  0  0  0  0  0
    3.8784   15.6116    5.0871 H   0  0  0  0  0  0  0  0  0  0  0  0
  1  2  1  0  0  0  0
  2  3  2  0  0  0  0
  3  4  1  0  0  0  0
  3  8  1  0  0  0  0
  4  5  1  0  0  0  0
  4  9  1  1  0  0  0
  5  6  1  0  0  0  0
  5 14  1  0  0  0  0
  6  7  2  0  0  0  0
  6  8  1  0  0  0  0
  8 15  1  0  0  0  0
  9 10  1  0  0  0  0
 10 11  2  0  0  0  0
 10 12  1  0  0  0  0
 12 13  1  0  0  0  0
 12 16  1  0  0  0  0
M  END
>  <CHROM.0>
-55.01393484,-49.76099896,-64.53975917,-45.38562168,-175.97631856,-60.94447759
-67.40828801,-60.20043175,-167.57108273

>  <CHROM.1>
-145.34120488,104.04821405,5.31186576,17.56905002,4.34922106,-0.66231099
-0.86394499,-1.84042273

>  <Name>
P136208459

>  <RI>
9.71178e+06

>  <Rbt.Current_Directory>
/home/fstefaniak/projects/zuza/docking/adenine/4XNR

>  <Rbt.Executable>
rbdock ($Id: //depot/dev/client3/rdock/2013.1/src/exe/rbdock.cxx#4 $)

>  <Rbt.Library>
libRbt.so (2013.1, Build901 2013/11/27)

>  <Rbt.Parameter_File>
/home/fstefaniak/progs/rDock//data/scripts/dock_solv.prm

>  <Rbt.Receptor>
4xnr.prm

>  <SCORE>
-52.8961

>  <SCORE.INTER>
-33.639

>  <SCORE.INTER.CONST>
1

>  <SCORE.INTER.POLAR>
-4.7219

>  <SCORE.INTER.ROT>
2

>  <SCORE.INTER.SOLV>
18.5615

>  <SCORE.INTER.VDW>
-17.8069

>  <SCORE.INTER.norm>
-2.80325

>  <SCORE.INTRA>
1.1034

>  <SCORE.INTRA.DIHEDRAL>
2.14191

>  <SCORE.INTRA.DIHEDRAL.0>
2.18805

>  <SCORE.INTRA.POLAR>
0.204173

>  <SCORE.INTRA.POLAR.0>
-0.204173

>  <SCORE.INTRA.REPUL>
0

>  <SCORE.INTRA.REPUL.0>
0

>  <SCORE.INTRA.SOLV>
-0.15788

>  <SCORE.INTRA.SOLV.lig_0>
-26.9986

>  <SCORE.INTRA.VDW>
-0.582807

>  <SCORE.INTRA.VDW.0>
-0.430334

>  <SCORE.INTRA.norm>
0.0919496

>  <SCORE.RESTR>
0

>  <SCORE.RESTR.CAVITY>
0

>  <SCORE.RESTR.norm>
0

>  <SCORE.SYSTEM>
-20.3605

>  <SCORE.SYSTEM.CONST>
0

>  <SCORE.SYSTEM.DIHEDRAL>
4.81818

>  <SCORE.SYSTEM.POLAR>
-3.04119

>  <SCORE.SYSTEM.SOLV>
0.157104

>  <SCORE.SYSTEM.VDW>
-5.09479

>  <SCORE.SYSTEM.norm>
-1.69671

>  <SCORE.heavy>
12

>  <SCORE.norm>
-4.40801

$$$$
P136208459
 OpenBabel12072022113D
libRbt.so/2013.1/901 2013/11/27
 16 16  0  0  0  0  0  0  0  0999 V2000
    6.4193   19.0319    2.0475 H   0  0  0  0  0  0  0  0  0  0  0  0
    6.9165   19.4820    2.8391 N   0  0  0  0  0  0  0  0  0  0  0  0
    6.4297   19.0617    3.9516 C   0  0  0  0  0  0  0  0  0  0  0  0
    5.3132   18.0483    4.1651 C   0  0  2  0  0  0  0  0  0  0  0  0
    5.2206   18.1492    5.6081 N   0  0  0  0  0  0  0  0  0  0  0  0
    6.1426   19.0237    6.1419 C   0  0  0  0  0  0  0  0  0  0  0  0
    6.2281   19.3083    7.3225 O   0  0  0  0  0  0  0  0  0  0  0  0
    6.8949   19.5167    5.1314 N   0  0  0  0  0  0  0  0  0  0  0  0
    5.7305   16.6526    3.7306 C   0  0  0  0  0  0  0  0  0  0  0  0
    4.5550   15.8926    3.1603 C   0  0  0  0  0  0  0  0  0  0  0  0
    4.4062   15.7068    1.9569 O   0  0  0  0  0  0  0  0  0  0  0  0
    3.6938   15.4218    4.1239 N   0  0  0  0  0  0  0  0  0  0  0  0
    2.5256   14.6377    3.8027 C   0  0  0  0  0  0  0  0  0  0  0  0
    4.4976   17.7494    6.1917 H   0  0  0  0  0  0  0  0  0  0  0  0
    7.6036   20.2223    5.2356 H   0  0  0  0  0  0  0  0  0  0  0  0
    3.8813   15.6162    5.0996 H   0  0  0  0  0  0  0  0  0  0  0  0
  1  2  1  0  0  0  0
  2  3  2  0  0  0  0
  3  4  1  0  0  0  0
  3  8  1  0  0  0  0
  4  5  1  0  0  0  0
  4  9  1  1  0  0  0
  5  6  1  0  0  0  0
  5 14  1  0  0  0  0
  6  7  2  0  0  0  0
  6  8  1  0  0  0  0
  8 15  1  0  0  0  0
  9 10  1  0  0  0  0
 10 11  2  0  0  0  0
 10 12  1  0  0  0  0
 12 13  1  0  0  0  0
 12 16  1  0  0  0  0
M  END
>  <CHROM.0>
-56.47021172,-53.87277296,-67.32974265,-48.61244804,-60.18521117,-176.08923711
-70.18093688,-174.76208863,-167.87993556

>  <CHROM.1>
-146.04614727,104.26711846,5.31392485,17.55199299,4.33717641,-0.65852960
-0.85906109,-1.84939698

>  <Name>
P136208459

>  <RI>
9.71178e+06

>  <Rbt.Current_Directory>
/home/fstefaniak/projects/zuza/docking/adenine/4XNR

>  <Rbt.Executable>
rbdock ($Id: //depot/dev/client3/rdock/2013.1/src/exe/rbdock.cxx#4 $)

>  <Rbt.Library>
libRbt.so (2013.1, Build901 2013/11/27)

>  <Rbt.Parameter_File>
/home/fstefaniak/progs/rDock//data/scripts/dock_solv.prm

>  <Rbt.Receptor>
4xnr.prm

>  <SCORE>
-52.752

>  <SCORE.INTER>
-33.4535

>  <SCORE.INTER.CONST>
1

>  <SCORE.INTER.POLAR>
-4.66377

>  <SCORE.INTER.ROT>
2

>  <SCORE.INTER.SOLV>
18.4969

>  <SCORE.INTER.VDW>
-17.8554

>  <SCORE.INTER.norm>
-2.78779

>  <SCORE.INTRA>
1.0792

>  <SCORE.INTRA.DIHEDRAL>
2.05616

>  <SCORE.INTRA.DIHEDRAL.0>
2.18805

>  <SCORE.INTRA.POLAR>
0.204173

>  <SCORE.INTRA.POLAR.0>
-0.204173

>  <SCORE.INTRA.REPUL>
0

>  <SCORE.INTRA.REPUL.0>
0

>  <SCORE.INTRA.SOLV>
-0.147769

>  <SCORE.INTRA.SOLV.lig_0>
-26.9986

>  <SCORE.INTRA.VDW>
-0.569186

>  <SCORE.INTRA.VDW.0>
-0.430334

>  <SCORE.INTRA.norm>
0.0899331

>  <SCORE.RESTR>
0

>  <SCORE.RESTR.CAVITY>
0

>  <SCORE.RESTR.norm>
0

>  <SCORE.SYSTEM>
-20.3777

>  <SCORE.SYSTEM.CONST>
0

>  <SCORE.SYSTEM.DIHEDRAL>
4.5226

>  <SCORE.SYSTEM.POLAR>
-2.97257

>  <SCORE.SYSTEM.SOLV>
0.0387141

>  <SCORE.SYSTEM.VDW>
-5.19703

>  <SCORE.SYSTEM.norm>
-1.69814

>  <SCORE.heavy>
12

>  <SCORE.norm>
-4.396

$$$$
P136208555
 OpenBabel12072022113D
libRbt.so/2013.1/901 2013/11/27
 15 16  0  0  0  0  0  0  0  0999 V2000
    7.1614   17.7562    1.5988 H   0  0  0  0  0  0  0  0  0  0  0  0
    6.3269   17.2085    1.8282 N   0  0  0  0  0  0  0  0  0  0  0  0
    6.0193   17.3683    3.0655 C   0  0  0  0  0  0  0  0  0  0  0  0
    4.8412   16.7254    3.7883 C   0  0  1  0  0  0  0  0  0  0  0  0
    3.5001   17.1927    3.2231 C   0  0  0  0  0  0  0  0  0  0  0  0
    2.3416   16.4248    3.8574 C   0  0  0  0  0  0  0  0  0  0  0  0
    2.5948   14.9230    3.8121 C   0  0  0  0  0  0  0  0  0  0  0  0
    3.8315   14.6007    4.4497 O   0  0  0  0  0  0  0  0  0  0  0  0
    4.9526   15.1993    3.7811 C   0  0  0  0  0  0  0  0  0  0  0  0
    5.0825   17.2872    5.1068 N   0  0  0  0  0  0  0  0  0  0  0  0
    6.1956   18.0899    5.1504 C   0  0  0  0  0  0  0  0  0  0  0  0
    6.6363   18.6357    6.1452 O   0  0  0  0  0  0  0  0  0  0  0  0
    6.7282   18.1535    3.9048 N   0  0  0  0  0  0  0  0  0  0  0  0
    4.5777   17.0310    5.9457 H   0  0  0  0  0  0  0  0  0  0  0  0
    7.5608   18.6809    3.7079 H   0  0  0  0  0  0  0  0  0  0  0  0
  1  2  1  0  0  0  0
  2  3  2  0  0  0  0
  3 13  1  0  0  0  0
  4  3  1  0  0  0  0
  4  5  1  6  0  0  0
  4  9  1  0  0  0  0
  4 10  1  0  0  0  0
  5  6  1  0  0  0  0
  6  7  1  0  0  0  0
  7  8  1  0  0  0  0
  8  9  1  0  0  0  0
 10 11  1  0  0  0  0
 10 14  1  0  0  0  0
 11 12  2  0  0  0  0
 11 13  1  0  0  0  0
 13 15  1  0  0  0  0
M  END
>  <CHROM.0>
-56.38647541,-59.75467561,-65.86220328,-46.44463771,-174.84336276,-63.79828686
-68.77440678,-58.72058701,-167.96200424

>  <CHROM.1>
4.92749122,16.80985134,4.03523243,-0.31858212,-0.63461714,-1.82419580

>  <Name>
P136208555

>  <RI>
3.02409e+07

>  <Rbt.Current_Directory>
/home/fstefaniak/projects/zuza/docking/adenine/4XNR

>  <Rbt.Executable>
rbdock ($Id: //depot/dev/client3/rdock/2013.1/src/exe/rbdock.cxx#4 $)

>  <Rbt.Library>
libRbt.so (2013.1, Build901 2013/11/27)

>  <Rbt.Parameter_File>
/home/fstefaniak/progs/rDock//data/scripts/dock_solv.prm

>  <Rbt.Receptor>
4xnr.prm

>  <SCORE>
-43.5573

>  <SCORE.INTER>
-22.6093

>  <SCORE.INTER.CONST>
1

>  <SCORE.INTER.POLAR>
-2.09684

>  <SCORE.INTER.ROT>
0

>  <SCORE.INTER.SOLV>
12.0669

>  <SCORE.INTER.VDW>
-15.7057

>  <SCORE.INTER.norm>
-1.88411

>  <SCORE.INTRA>
0

>  <SCORE.INTRA.DIHEDRAL>
0

>  <SCORE.INTRA.DIHEDRAL.0>
0

>  <SCORE.INTRA.POLAR>
0

>  <SCORE.INTRA.POLAR.0>
0

>  <SCORE.INTRA.REPUL>
0

>  <SCORE.INTRA.REPUL.0>
0

>  <SCORE.INTRA.SOLV>
0

>  <SCORE.INTRA.SOLV.lig_0>
-17.9194

>  <SCORE.INTRA.VDW>
0

>  <SCORE.INTRA.VDW.0>
0

>  <SCORE.INTRA.norm>
0

>  <SCORE.RESTR>
0

>  <SCORE.RESTR.CAVITY>
0

>  <SCORE.RESTR.norm>
0

>  <SCORE.SYSTEM>
-20.9479

>  <SCORE.SYSTEM.CONST>
0

>  <SCORE.SYSTEM.DIHEDRAL>
4.37557

>  <SCORE.SYSTEM.POLAR>
-3.01274

>  <SCORE.SYSTEM.SOLV>
0.111396

>  <SCORE.SYSTEM.VDW>
-5.41848

>  <SCORE.SYSTEM.norm>
-1.74566

>  <SCORE.heavy>
12

>  <SCORE.norm>
-3.62977

$$$$
P136208555
 OpenBabel12072022113D
libRbt.so/2013.1/901 2013/11/27
 15 16  0  0  0  0  0  0  0  0999 V2000
    7.0732   17.8937    1.6101 H   0  0  0  0  0  0  0  0  0  0  0  0
    6.2635   17.3102    1.8401 N   0  0  0  0  0  0  0  0  0  0  0  0
    5.9650   17.4381    3.0833 C   0  0  0  0  0  0  0  0  0  0  0  0
    4.8215   16.7382    3.8090 C   0  0  1  0  0  0  0  0  0  0  0  0
    3.4566   17.1618    3.2670 C   0  0  0  0  0  0  0  0  0  0  0  0
    2.3366   16.3392    3.9020 C   0  0  0  0  0  0  0  0  0  0  0  0
    2.6472   14.8494    3.8289 C   0  0  0  0  0  0  0  0  0  0  0  0
    3.9032   14.5655    4.4469 O   0  0  0  0  0  0  0  0  0  0  0  0
    4.9921   15.2180    3.7753 C   0  0  0  0  0  0  0  0  0  0  0  0
    5.0569   17.2878    5.1337 N   0  0  0  0  0  0  0  0  0  0  0  0
    6.1384   18.1325    5.1777 C   0  0  0  0  0  0  0  0  0  0  0  0
    6.5697   18.6791    6.1762 O   0  0  0  0  0  0  0  0  0  0  0  0
    6.6530   18.2368    3.9273 N   0  0  0  0  0  0  0  0  0  0  0  0
    4.5727   16.9987    5.9740 H   0  0  0  0  0  0  0  0  0  0  0  0
    7.4620   18.7993    3.7294 H   0  0  0  0  0  0  0  0  0  0  0  0
  1  2  1  0  0  0  0
  2  3  2  0  0  0  0
  3 13  1  0  0  0  0
  4  3  1  0  0  0  0
  4  5  1  6  0  0  0
  4  9  1  0  0  0  0
  4 10  1  0  0  0  0
  5  6  1  0  0  0  0
  6  7  1  0  0  0  0
  7  8  1  0  0  0  0
  8  9  1  0  0  0  0
 10 11  1  0  0  0  0
 10 14  1  0  0  0  0
 11 12  2  0  0  0  0
 11 13  1  0  0  0  0
 13 15  1  0  0  0  0
M  END
>  <CHROM.0>
-58.44056504,-59.67262057,-67.75773820,-47.12460749,-175.00360500,-63.13296782
-68.23839045,-59.70271135,-167.69031897

>  <CHROM.1>
4.90751414,16.82201286,4.05625840,-0.31595525,-0.67525509,-1.80633612

>  <Name>
P136208555

>  <RI>
3.02409e+07

>  <Rbt.Current_Directory>
/home/fstefaniak/projects/zuza/docking/adenine/4XNR

>  <Rbt.Executable>
rbdock ($Id: //depot/dev/client3/rdock/2013.1/src/exe/rbdock.cxx#4 $)

>  <Rbt.Library>
libRbt.so (2013.1, Build901 2013/11/27)

>  <Rbt.Parameter_File>
/home/fstefaniak/progs/rDock//data/scripts/dock_solv.prm

>  <Rbt.Receptor>
4xnr.prm

>  <SCORE>
-43.5475

>  <SCORE.INTER>
-22.5987

>  <SCORE.INTER.CONST>
1

>  <SCORE.INTER.POLAR>
-2.09684

>  <SCORE.INTER.ROT>
0

>  <SCORE.INTER.SOLV>
12.0261

>  <SCORE.INTER.VDW>
-15.685

>  <SCORE.INTER.norm>
-1.88323

>  <SCORE.INTRA>
0

>  <SCORE.INTRA.DIHEDRAL>
0

>  <SCORE.INTRA.DIHEDRAL.0>
0

>  <SCORE.INTRA.POLAR>
0

>  <SCORE.INTRA.POLAR.0>
0

>  <SCORE.INTRA.REPUL>
0

>  <SCORE.INTRA.REPUL.0>
0

>  <SCORE.INTRA.SOLV>
0

>  <SCORE.INTRA.SOLV.lig_0>
-17.9194

>  <SCORE.INTRA.VDW>
0

>  <SCORE.INTRA.VDW.0>
0

>  <SCORE.INTRA.norm>
0

>  <SCORE.RESTR>
0

>  <SCORE.RESTR.CAVITY>
0

>  <SCORE.RESTR.norm>
0

>  <SCORE.SYSTEM>
-20.9488

>  <SCORE.SYSTEM.CONST>
0

>  <SCORE.SYSTEM.DIHEDRAL>
4.31536

>  <SCORE.SYSTEM.POLAR>
-2.97983

>  <SCORE.SYSTEM.SOLV>
0.105307

>  <SCORE.SYSTEM.VDW>
-5.50667

>  <SCORE.SYSTEM.norm>
-1.74573

>  <SCORE.heavy>
12

>  <SCORE.norm>
-3.62896

$$$$
P136208555
 OpenBabel12072022113D
libRbt.so/2013.1/901 2013/11/27
 15 16  0  0  0  0  0  0  0  0999 V2000
    7.0270   17.9683    1.6010 H   0  0  0  0  0  0  0  0  0  0  0  0
    6.2268   17.3708    1.8278 N   0  0  0  0  0  0  0  0  0  0  0  0
    5.9397   17.4709    3.0763 C   0  0  0  0  0  0  0  0  0  0  0  0
    4.8124   16.7433    3.7998 C   0  0  1  0  0  0  0  0  0  0  0  0
    3.4368   17.1607    3.2801 C   0  0  0  0  0  0  0  0  0  0  0  0
    2.3335   16.3124    3.9103 C   0  0  0  0  0  0  0  0  0  0  0  0
    2.6612   14.8282    3.8052 C   0  0  0  0  0  0  0  0  0  0  0  0
    3.9268   14.5476    4.4047 O   0  0  0  0  0  0  0  0  0  0  0  0
    5.0007   15.2262    3.7349 C   0  0  0  0  0  0  0  0  0  0  0  0
    5.0550   17.2700    5.1325 N   0  0  0  0  0  0  0  0  0  0  0  0
    6.1267   18.1268    5.1818 C   0  0  0  0  0  0  0  0  0  0  0  0
    6.5618   18.6592    6.1863 O   0  0  0  0  0  0  0  0  0  0  0  0
    6.6269   18.2615    3.9285 N   0  0  0  0  0  0  0  0  0  0  0  0
    4.5830   16.9589    5.9719 H   0  0  0  0  0  0  0  0  0  0  0  0
    7.4270   18.8375    3.7334 H   0  0  0  0  0  0  0  0  0  0  0  0
  1  2  1  0  0  0  0
  2  3  2  0  0  0  0
  3 13  1  0  0  0  0
  4  3  1  0  0  0  0
  4  5  1  6  0  0  0
  4  9  1  0  0  0  0
  4 10  1  0  0  0  0
  5  6  1  0  0  0  0
  6  7  1  0  0  0  0
  7  8  1  0  0  0  0
  8  9  1  0  0  0  0
 10 11  1  0  0  0  0
 10 14  1  0  0  0  0
 11 12  2  0  0  0  0
 11 13  1  0  0  0  0
 13 15  1  0  0  0  0
M  END
>  <CHROM.0>
-56.55480410,-59.69349358,-67.02421358,-46.90069917,-57.54487369,-63.20972109
-68.06979339,-62.63010232,-168.13957965

>  <CHROM.1>
4.89992318,16.82334323,4.04776711,-0.30643622,-0.68930338,-1.78094645

>  <Name>
P136208555

>  <RI>
3.02409e+07

>  <Rbt.Current_Directory>
/home/fstefaniak/projects/zuza/docking/adenine/4XNR

>  <Rbt.Executable>
rbdock ($Id: //depot/dev/client3/rdock/2013.1/src/exe/rbdock.cxx#4 $)

>  <Rbt.Library>
libRbt.so (2013.1, Build901 2013/11/27)

>  <Rbt.Parameter_File>
/home/fstefaniak/progs/rDock//data/scripts/dock_solv.prm

>  <Rbt.Receptor>
4xnr.prm

>  <SCORE>
-43.5471

>  <SCORE.INTER>
-22.6166

>  <SCORE.INTER.CONST>
1

>  <SCORE.INTER.POLAR>
-2.09684

>  <SCORE.INTER.ROT>
0

>  <SCORE.INTER.SOLV>
11.983

>  <SCORE.INTER.VDW>
-15.6826

>  <SCORE.INTER.norm>
-1.88472

>  <SCORE.INTRA>
0

>  <SCORE.INTRA.DIHEDRAL>
0

>  <SCORE.INTRA.DIHEDRAL.0>
0

>  <SCORE.INTRA.POLAR>
0

>  <SCORE.INTRA.POLAR.0>
0

>  <SCORE.INTRA.REPUL>
0

>  <SCORE.INTRA.REPUL.0>
0

>  <SCORE.INTRA.SOLV>
0

>  <SCORE.INTRA.SOLV.lig_0>
-17.9194

>  <SCORE.INTRA.VDW>
0

>  <SCORE.INTRA.VDW.0>
0

>  <SCORE.INTRA.norm>
0

>  <SCORE.RESTR>
0

>  <SCORE.RESTR.CAVITY>
0

>  <SCORE.RESTR.norm>
0

>  <SCORE.SYSTEM>
-20.9305

>  <SCORE.SYSTEM.CONST>
0

>  <SCORE.SYSTEM.DIHEDRAL>
4.22568

>  <SCORE.SYSTEM.POLAR>
-3.00449

>  <SCORE.SYSTEM.SOLV>
0.282354

>  <SCORE.SYSTEM.VDW>
-5.44136

>  <SCORE.SYSTEM.norm>
-1.74421

>  <SCORE.heavy>
12

>  <SCORE.norm>
-3.62892

$$$$
P136260037
 OpenBabel12072022113D
libRbt.so/2013.1/901 2013/11/27
 15 15  0  0  0  0  0  0  0  0999 V2000
    4.7121   15.5773    2.9733 C   0  0  0  0  0  0  0  0  0  0  0  0
    3.9167   15.4995    4.2801 C   0  0  1  0  0  0  0  0  0  0  0  0
    2.7585   16.5209    4.2993 C   0  0  0  0  0  0  0  0  0  0  0  0
    1.5701   16.0989    3.4119 C   0  0  1  0  0  0  0  0  0  0  0  0
    1.1411   14.6604    3.7614 C   0  0  0  0  0  0  0  0  0  0  0  0
    2.2893   13.7639    3.6339 N   0  0  0  0  0  0  0  0  0  0  0  0
    3.3960   14.0730    4.5332 C   0  0  0  0  0  0  0  0  0  0  0  0
    2.4768   12.8365    2.6392 C   0  0  0  0  0  0  0  0  0  0  0  0
    3.4534   12.1002    2.5484 O   0  0  0  0  0  0  0  0  0  0  0  0
    1.5036   12.7543    1.7002 N   0  0  0  0  0  0  0  0  0  0  0  0
    0.4584   17.0427    3.5586 N   0  0  0  0  0  0  0  0  0  0  0  0
    1.7938   12.5729    0.7515 H   0  0  0  0  0  0  0  0  0  0  0  0
    0.7287   12.1783    2.0036 H   0  0  0  0  0  0  0  0  0  0  0  0
    0.0816   17.2682    2.6377 H   0  0  0  0  0  0  0  0  0  0  0  0
    0.7981   17.9250    3.9419 H   0  0  0  0  0  0  0  0  0  0  0  0
  2  1  1  6  0  0  0
  2  3  1  0  0  0  0
  2  7  1  0  0  0  0
  3  4  1  0  0  0  0
  4  5  1  0  0  0  0
  4 11  1  1  0  0  0
  5  6  1  0  0  0  0
  6  7  1  0  0  0  0
  6  8  1  0  0  0  0
  8  9  2  0  0  0  0
  8 10  1  0  0  0  0
 10 12  1  0  0  0  0
 10 13  1  0  0  0  0
 11 14  1  0  0  0  0
 11 15  1  0  0  0  0
M  END
>  <CHROM.0>
-56.07559969,-65.60049094,-73.27580922,-48.57298434,-60.63252235,-62.75636901
-173.55966884,-60.58693836,-167.96799843

>  <CHROM.1>
135.22700039,143.35080130,2.49714844,14.62129402,3.35802601,-1.77601421,0.21810872
-2.77025267

>  <Name>
P136260037

>  <RI>
9.71178e+06

>  <Rbt.Current_Directory>
/home/fstefaniak/projects/zuza/docking/adenine/4XNR

>  <Rbt.Executable>
rbdock ($Id: //depot/dev/client3/rdock/2013.1/src/exe/rbdock.cxx#4 $)

>  <Rbt.Library>
libRbt.so (2013.1, Build901 2013/11/27)

>  <Rbt.Parameter_File>
/home/fstefaniak/progs/rDock//data/scripts/dock_solv.prm

>  <Rbt.Receptor>
4xnr.prm

>  <SCORE>
-38.2685

>  <SCORE.INTER>
-19.0028

>  <SCORE.INTER.CONST>
1

>  <SCORE.INTER.POLAR>
-3.86569

>  <SCORE.INTER.ROT>
2

>  <SCORE.INTER.SOLV>
9.83581

>  <SCORE.INTER.VDW>
-7.99483

>  <SCORE.INTER.norm>
-1.72753

>  <SCORE.INTRA>
1.08084

>  <SCORE.INTRA.DIHEDRAL>
1.91137

>  <SCORE.INTRA.DIHEDRAL.0>
0.492214

>  <SCORE.INTRA.POLAR>
0

>  <SCORE.INTRA.POLAR.0>
0

>  <SCORE.INTRA.REPUL>
0

>  <SCORE.INTRA.REPUL.0>
0

>  <SCORE.INTRA.SOLV>
-0.039244

>  <SCORE.INTRA.SOLV.lig_0>
-13.7403

>  <SCORE.INTRA.VDW>
0.144773

>  <SCORE.INTRA.VDW.0>
-0.0272159

>  <SCORE.INTRA.norm>
0.098258

>  <SCORE.RESTR>
0.0201075

>  <SCORE.RESTR.CAVITY>
0.0201075

>  <SCORE.RESTR.norm>
0.00182796

>  <SCORE.SYSTEM>
-20.3667

>  <SCORE.SYSTEM.CONST>
0

>  <SCORE.SYSTEM.DIHEDRAL>
4.602

>  <SCORE.SYSTEM.POLAR>
-2.95853

>  <SCORE.SYSTEM.SOLV>
0.222863

>  <SCORE.SYSTEM.VDW>
-5.32431

>  <SCORE.SYSTEM.norm>
-1.85152

>  <SCORE.heavy>
11

>  <SCORE.norm>
-3.47896

$$$$
P136260037
 OpenBabel12072022113D
libRbt.so/2013.1/901 2013/11/27
 15 15  0  0  0  0  0  0  0  0999 V2000
   -0.2080   11.7707    4.1806 C   0  0  0  0  0  0  0  0  0  0  0  0
    0.7846   12.4397    3.2248 C   0  0  1  0  0  0  0  0  0  0  0  0
    0.7537   13.9776    3.3622 C   0  0  0  0  0  0  0  0  0  0  0  0
    1.4593   14.4814    4.6374 C   0  0  1  0  0  0  0  0  0  0  0  0
    2.8728   13.8738    4.7281 C   0  0  0  0  0  0  0  0  0  0  0  0
    2.7819   12.4155    4.6699 N   0  0  0  0  0  0  0  0  0  0  0  0
    2.2108   11.8977    3.4310 C   0  0  0  0  0  0  0  0  0  0  0  0
    2.9861   11.5561    5.7208 C   0  0  0  0  0  0  0  0  0  0  0  0
    2.8962   10.3351    5.6497 O   0  0  0  0  0  0  0  0  0  0  0  0
    3.3001   12.1227    6.9108 N   0  0  0  0  0  0  0  0  0  0  0  0
    1.5010   15.9464    4.6571 N   0  0  0  0  0  0  0  0  0  0  0  0
    4.1422   12.6763    6.9488 H   0  0  0  0  0  0  0  0  0  0  0  0
    2.5016   12.5703    7.3424 H   0  0  0  0  0  0  0  0  0  0  0  0
    2.2794   16.2554    5.2398 H   0  0  0  0  0  0  0  0  0  0  0  0
    0.6597   16.3134    5.1024 H   0  0  0  0  0  0  0  0  0  0  0  0
  2  1  1  1  0  0  0
  2  3  1  0  0  0  0
  2  7  1  0  0  0  0
  3  4  1  0  0  0  0
  4  5  1  0  0  0  0
  4 11  1  6  0  0  0
  5  6  1  0  0  0  0
  6  7  1  0  0  0  0
  6  8  1  0  0  0  0
  8  9  2  0  0  0  0
  8 10  1  0  0  0  0
 10 12  1  0  0  0  0
 10 13  1  0  0  0  0
 11 14  1  0  0  0  0
 11 15  1  0  0  0  0
M  END
>  <CHROM.0>
-54.85155315,-62.02040652,-73.17651870,-46.24302034,-58.31232290,58.48439870
-170.95325829,-173.25863373,-167.98084437

>  <CHROM.1>
-155.51348288,-60.39789763,1.94663182,12.81357715,4.69540553,2.21738199,-0.77737757
0.02591916

>  <Name>
P136260037

>  <RI>
9.71178e+06

>  <Rbt.Current_Directory>
/home/fstefaniak/projects/zuza/docking/adenine/4XNR

>  <Rbt.Executable>
rbdock ($Id: //depot/dev/client3/rdock/2013.1/src/exe/rbdock.cxx#4 $)

>  <Rbt.Library>
libRbt.so (2013.1, Build901 2013/11/27)

>  <Rbt.Parameter_File>
/home/fstefaniak/progs/rDock//data/scripts/dock_solv.prm

>  <Rbt.Receptor>
4xnr.prm

>  <SCORE>
-37.8807

>  <SCORE.INTER>
-19.6792

>  <SCORE.INTER.CONST>
1

>  <SCORE.INTER.POLAR>
-2.3688

>  <SCORE.INTER.ROT>
2

>  <SCORE.INTER.SOLV>
8.13226

>  <SCORE.INTER.VDW>
-12.8676

>  <SCORE.INTER.norm>
-1.78902

>  <SCORE.INTRA>
0.303768

>  <SCORE.INTRA.DIHEDRAL>
0.981286

>  <SCORE.INTRA.DIHEDRAL.0>
0.492214

>  <SCORE.INTRA.POLAR>
0

>  <SCORE.INTRA.POLAR.0>
0

>  <SCORE.INTRA.REPUL>
0

>  <SCORE.INTRA.REPUL.0>
0

>  <SCORE.INTRA.SOLV>
-0.00785792

>  <SCORE.INTRA.SOLV.lig_0>
-13.7403

>  <SCORE.INTRA.VDW>
-0.182946

>  <SCORE.INTRA.VDW.0>
-0.0272159

>  <SCORE.INTRA.norm>
0.0276153

>  <SCORE.RESTR>
0.680201

>  <SCORE.RESTR.CAVITY>
0.680201

>  <SCORE.RESTR.norm>
0.0618364

>  <SCORE.SYSTEM>
-19.1854

>  <SCORE.SYSTEM.CONST>
0

>  <SCORE.SYSTEM.DIHEDRAL>
5.13964

>  <SCORE.SYSTEM.POLAR>
-3.01033

>  <SCORE.SYSTEM.SOLV>
-0.0254208

>  <SCORE.SYSTEM.VDW>
-4.46059

>  <SCORE.SYSTEM.norm>
-1.74413

>  <SCORE.heavy>
11

>  <SCORE.norm>
-3.4437

$$$$
P136260037
 OpenBabel12072022113D
libRbt.so/2013.1/901 2013/11/27
 15 15  0  0  0  0  0  0  0  0999 V2000
    4.6213   15.6498    2.9237 C   0  0  0  0  0  0  0  0  0  0  0  0
    3.8447   15.5333    4.2389 C   0  0  1  0  0  0  0  0  0  0  0  0
    2.6545   16.5164    4.2824 C   0  0  0  0  0  0  0  0  0  0  0  0
    1.4696   16.0650    3.4048 C   0  0  1  0  0  0  0  0  0  0  0  0
    1.0915   14.6101    3.7443 C   0  0  0  0  0  0  0  0  0  0  0  0
    2.2664   13.7525    3.5940 N   0  0  0  0  0  0  0  0  0  0  0  0
    3.3734   14.0882    4.4834 C   0  0  0  0  0  0  0  0  0  0  0  0
    2.4716   12.8416    2.5876 C   0  0  0  0  0  0  0  0  0  0  0  0
    3.4702   12.1382    2.4777 O   0  0  0  0  0  0  0  0  0  0  0  0
    1.4902   12.7374    1.6593 N   0  0  0  0  0  0  0  0  0  0  0  0
    0.3300   16.9709    3.5744 N   0  0  0  0  0  0  0  0  0  0  0  0
    1.7724   12.5380    0.7119 H   0  0  0  0  0  0  0  0  0  0  0  0
    0.7201   12.1649    1.9812 H   0  0  0  0  0  0  0  0  0  0  0  0
   -0.5158   16.4243    3.7386 H   0  0  0  0  0  0  0  0  0  0  0  0
    0.1625   17.4865    2.7101 H   0  0  0  0  0  0  0  0  0  0  0  0
  2  1  1  6  0  0  0
  2  3  1  0  0  0  0
  2  7  1  0  0  0  0
  3  4  1  0  0  0  0
  4  5  1  0  0  0  0
  4 11  1  1  0  0  0
  5  6  1  0  0  0  0
  6  7  1  0  0  0  0
  6  8  1  0  0  0  0
  8  9  2  0  0  0  0
  8 10  1  0  0  0  0
 10 12  1  0  0  0  0
 10 13  1  0  0  0  0
 11 14  1  0  0  0  0
 11 15  1  0  0  0  0
M  END
>  <CHROM.0>
-62.31389866,-165.49985842,-68.93545454,-50.17913535,-55.91365866,-62.00044500
-68.26932471,57.76055236,-168.11680603

>  <CHROM.1>
-131.53174003,145.74320866,2.43698119,14.61148119,3.32365278,-1.81122533
0.18884852,-2.75341074

>  <Name>
P136260037

>  <RI>
9.71178e+06

>  <Rbt.Current_Directory>
/home/fstefaniak/projects/zuza/docking/adenine/4XNR

>  <Rbt.Executable>
rbdock ($Id: //depot/dev/client3/rdock/2013.1/src/exe/rbdock.cxx#4 $)

>  <Rbt.Library>
libRbt.so (2013.1, Build901 2013/11/27)

>  <Rbt.Parameter_File>
/home/fstefaniak/progs/rDock//data/scripts/dock_solv.prm

>  <Rbt.Receptor>
4xnr.prm

>  <SCORE>
-37.4256

>  <SCORE.INTER>
-19.3317

>  <SCORE.INTER.CONST>
1

>  <SCORE.INTER.POLAR>
-3.85944

>  <SCORE.INTER.ROT>
2

>  <SCORE.INTER.SOLV>
10.1619

>  <SCORE.INTER.VDW>
-8.34366

>  <SCORE.INTER.norm>
-1.75743

>  <SCORE.INTRA>
1.28741

>  <SCORE.INTRA.DIHEDRAL>
2.22861

>  <SCORE.INTRA.DIHEDRAL.0>
0.492214

>  <SCORE.INTRA.POLAR>
0

>  <SCORE.INTRA.POLAR.0>
0

>  <SCORE.INTRA.REPUL>
0

>  <SCORE.INTRA.REPUL.0>
0

>  <SCORE.INTRA.SOLV>
-0.0354058

>  <SCORE.INTRA.SOLV.lig_0>
-13.7403

>  <SCORE.INTRA.VDW>
0.190811

>  <SCORE.INTRA.VDW.0>
-0.0272159

>  <SCORE.INTRA.norm>
0.117038

>  <SCORE.RESTR>
0.0322465

>  <SCORE.RESTR.CAVITY>
0.0322465

>  <SCORE.RESTR.norm>
0.0029315

>  <SCORE.SYSTEM>
-19.4136

>  <SCORE.SYSTEM.CONST>
0

>  <SCORE.SYSTEM.DIHEDRAL>
4.98543

>  <SCORE.SYSTEM.POLAR>
-2.91327

>  <SCORE.SYSTEM.SOLV>
0.0653723

>  <SCORE.SYSTEM.VDW>
-4.91509

>  <SCORE.SYSTEM.norm>
-1.76487

>  <SCORE.heavy>
11

>  <SCORE.norm>
-3.40233

$$$$
P136260061
 OpenBabel12072022113D
libRbt.so/2013.1/901 2013/11/27
 14 14  0  0  0  0  0  0  0  0999 V2000
    3.1460   13.3274    5.5265 C   0  0  0  0  0  0  0  0  0  0  0  0
    2.3610   13.5809    4.2364 C   0  0  1  0  0  0  0  0  0  0  0  0
    1.0342   14.3156    4.5125 C   0  0  0  0  0  0  0  0  0  0  0  0
    1.2353   15.8038    4.8581 C   0  0  1  0  0  0  0  0  0  0  0  0
    2.1092   16.4887    3.7867 C   0  0  0  0  0  0  0  0  0  0  0  0
    3.3549   15.7482    3.5963 N   0  0  0  0  0  0  0  0  0  0  0  0
    3.2044   14.3530    3.2091 C   0  0  0  0  0  0  0  0  0  0  0  0
    4.6027   16.2411    3.9297 C   0  0  0  0  0  0  0  0  0  0  0  0
    5.6380   15.5886    3.8576 O   0  0  0  0  0  0  0  0  0  0  0  0
    4.5590   17.5321    4.3557 O   0  0  0  0  0  0  0  0  0  0  0  0
    5.8133   18.2113    4.3056 C   0  0  0  0  0  0  0  0  0  0  0  0
   -0.0656   16.4675    4.9967 N   0  0  0  0  0  0  0  0  0  0  0  0
   -0.6390   16.2640    4.1779 H   0  0  0  0  0  0  0  0  0  0  0  0
    0.0570   17.4796    5.0082 H   0  0  0  0  0  0  0  0  0  0  0  0
  2  1  1  1  0  0  0
  2  3  1  0  0  0  0
  2  7  1  0  0  0  0
  3  4  1  0  0  0  0
  4  5  1  0  0  0  0
  4 12  1  6  0  0  0
  5  6  1  0  0  0  0
  6  7  1  0  0  0  0
  6  8  1  0  0  0  0
  8  9  2  0  0  0  0
  8 10  1  0  0  0  0
 10 11  1  0  0  0  0
 12 13  1  0  0  0  0
 12 14  1  0  0  0  0
M  END
>  <CHROM.0>
-54.68631125,167.38307069,-68.04936388,-44.65495330,-61.71332351,-173.61148330
-68.85886908,-58.82847973,-167.69816303

>  <CHROM.1>
-50.82430441,-161.14507822,3.10332534,15.67918432,4.27270293,-2.65208967
0.13752745,-0.00320250

>  <Name>
P136260061

>  <RI>
4.17015e+07

>  <Rbt.Current_Directory>
/home/fstefaniak/projects/zuza/docking/adenine/4XNR

>  <Rbt.Executable>
rbdock ($Id: //depot/dev/client3/rdock/2013.1/src/exe/rbdock.cxx#4 $)

>  <Rbt.Library>
libRbt.so (2013.1, Build901 2013/11/27)

>  <Rbt.Parameter_File>
/home/fstefaniak/progs/rDock//data/scripts/dock_solv.prm

>  <Rbt.Receptor>
4xnr.prm

>  <SCORE>
-38.4528

>  <SCORE.INTER>
-19.8389

>  <SCORE.INTER.CONST>
1

>  <SCORE.INTER.POLAR>
-2.07922

>  <SCORE.INTER.ROT>
2

>  <SCORE.INTER.SOLV>
12.257

>  <SCORE.INTER.VDW>
-15.3142

>  <SCORE.INTER.norm>
-1.65324

>  <SCORE.INTRA>
1.18474

>  <SCORE.INTRA.DIHEDRAL>
2.6602

>  <SCORE.INTRA.DIHEDRAL.0>
0.0152541

>  <SCORE.INTRA.POLAR>
0

>  <SCORE.INTRA.POLAR.0>
0

>  <SCORE.INTRA.REPUL>
0

>  <SCORE.INTRA.REPUL.0>
0

>  <SCORE.INTRA.SOLV>
0.00456752

>  <SCORE.INTRA.SOLV.lig_0>
-8.74874

>  <SCORE.INTRA.VDW>
-0.147644

>  <SCORE.INTRA.VDW.0>
2.02935

>  <SCORE.INTRA.norm>
0.0987283

>  <SCORE.RESTR>
0

>  <SCORE.RESTR.CAVITY>
0

>  <SCORE.RESTR.norm>
0

>  <SCORE.SYSTEM>
-19.7987

>  <SCORE.SYSTEM.CONST>
0

>  <SCORE.SYSTEM.DIHEDRAL>
5.59061

>  <SCORE.SYSTEM.POLAR>
-3.05218

>  <SCORE.SYSTEM.SOLV>
0.16988

>  <SCORE.SYSTEM.VDW>
-4.94536

>  <SCORE.SYSTEM.norm>
-1.64989

>  <SCORE.heavy>
12

>  <SCORE.norm>
-3.2044

$$$$
P136260061
 OpenBabel12072022113D
libRbt.so/2013.1/901 2013/11/27
 14 14  0  0  0  0  0  0  0  0999 V2000
    3.1691   13.3691    5.5338 C   0  0  0  0  0  0  0  0  0  0  0  0
    2.3854   13.6099    4.2404 C   0  0  1  0  0  0  0  0  0  0  0  0
    1.0462   14.3239    4.5109 C   0  0  0  0  0  0  0  0  0  0  0  0
    1.2227   15.8152    4.8567 C   0  0  1  0  0  0  0  0  0  0  0  0
    2.0902   16.5132    3.7885 C   0  0  0  0  0  0  0  0  0  0  0  0
    3.3480   15.7921    3.6033 N   0  0  0  0  0  0  0  0  0  0  0  0
    3.2207   14.3946    3.2161 C   0  0  0  0  0  0  0  0  0  0  0  0
    4.5866   16.3045    3.9415 C   0  0  0  0  0  0  0  0  0  0  0  0
    5.6322   15.6682    3.8738 O   0  0  0  0  0  0  0  0  0  0  0  0
    4.5211   17.5948    4.3667 O   0  0  0  0  0  0  0  0  0  0  0  0
    5.7895   18.2348    4.5031 C   0  0  0  0  0  0  0  0  0  0  0  0
   -0.0889   16.4586    4.9898 N   0  0  0  0  0  0  0  0  0  0  0  0
   -0.6560   16.2454    4.1692 H   0  0  0  0  0  0  0  0  0  0  0  0
    0.0179   17.4725    5.0007 H   0  0  0  0  0  0  0  0  0  0  0  0
  2  1  1  1  0  0  0
  2  3  1  0  0  0  0
  2  7  1  0  0  0  0
  3  4  1  0  0  0  0
  4  5  1  0  0  0  0
  4 12  1  6  0  0  0
  5  6  1  0  0  0  0
  6  7  1  0  0  0  0
  6  8  1  0  0  0  0
  8  9  2  0  0  0  0
  8 10  1  0  0  0  0
 10 11  1  0  0  0  0
 12 13  1  0  0  0  0
 12 14  1  0  0  0  0
M  END
>  <CHROM.0>
-60.91370046,169.24768607,-73.01595107,-47.37103216,-58.42024684,-64.33800146
-172.26636250,178.86864633,-167.86870275

>  <CHROM.1>
-50.78324246,-169.64103044,3.09693913,15.71432809,4.29463240,-2.64701592
0.12428468,0.01103526

>  <Name>
P136260061

>  <RI>
4.17015e+07

>  <Rbt.Current_Directory>
/home/fstefaniak/projects/zuza/docking/adenine/4XNR

>  <Rbt.Executable>
rbdock ($Id: //depot/dev/client3/rdock/2013.1/src/exe/rbdock.cxx#4 $)

>  <Rbt.Library>
libRbt.so (2013.1, Build901 2013/11/27)

>  <Rbt.Parameter_File>
/home/fstefaniak/progs/rDock//data/scripts/dock_solv.prm

>  <Rbt.Receptor>
4xnr.prm

>  <SCORE>
-37.9523

>  <SCORE.INTER>
-18.935

>  <SCORE.INTER.CONST>
1

>  <SCORE.INTER.POLAR>
-1.86267

>  <SCORE.INTER.ROT>
2

>  <SCORE.INTER.SOLV>
12.2299

>  <SCORE.INTER.VDW>
-15.4244

>  <SCORE.INTER.norm>
-1.57792

>  <SCORE.INTRA>
0.571042

>  <SCORE.INTRA.DIHEDRAL>
0.971501

>  <SCORE.INTRA.DIHEDRAL.0>
0.0152541

>  <SCORE.INTRA.POLAR>
0

>  <SCORE.INTRA.POLAR.0>
0

>  <SCORE.INTRA.REPUL>
0

>  <SCORE.INTRA.REPUL.0>
0

>  <SCORE.INTRA.SOLV>
0.00577365

>  <SCORE.INTRA.SOLV.lig_0>
-8.74874

>  <SCORE.INTRA.VDW>
0.0824046

>  <SCORE.INTRA.VDW.0>
2.02935

>  <SCORE.INTRA.norm>
0.0475868

>  <SCORE.RESTR>
0

>  <SCORE.RESTR.CAVITY>
0

>  <SCORE.RESTR.norm>
0

>  <SCORE.SYSTEM>
-19.5883

>  <SCORE.SYSTEM.CONST>
0

>  <SCORE.SYSTEM.DIHEDRAL>
5.18639

>  <SCORE.SYSTEM.POLAR>
-2.94814

>  <SCORE.SYSTEM.SOLV>
0.0779486

>  <SCORE.SYSTEM.VDW>
-4.98653

>  <SCORE.SYSTEM.norm>
-1.63236

>  <SCORE.heavy>
12

>  <SCORE.norm>
-3.16269

$$$$
P136260061
 OpenBabel12072022113D
libRbt.so/2013.1/901 2013/11/27
 14 14  0  0  0  0  0  0  0  0999 V2000
    3.1636   13.3430    5.5332 C   0  0  0  0  0  0  0  0  0  0  0  0
    2.3783   13.5839    4.2409 C   0  0  1  0  0  0  0  0  0  0  0  0
    1.0430   14.3049    4.5123 C   0  0  0  0  0  0  0  0  0  0  0  0
    1.2271   15.7963    4.8535 C   0  0  1  0  0  0  0  0  0  0  0  0
    2.0955   16.4874    3.7816 C   0  0  0  0  0  0  0  0  0  0  0  0
    3.3496   15.7599    3.5958 N   0  0  0  0  0  0  0  0  0  0  0  0
    3.2150   14.3620    3.2126 C   0  0  0  0  0  0  0  0  0  0  0  0
    4.5912   16.2675    3.9299 C   0  0  0  0  0  0  0  0  0  0  0  0
    5.6338   15.6262    3.8617 O   0  0  0  0  0  0  0  0  0  0  0  0
    4.5326   17.5593    4.3517 O   0  0  0  0  0  0  0  0  0  0  0  0
    5.7870   18.2401    4.3394 C   0  0  0  0  0  0  0  0  0  0  0  0
   -0.0812   16.4461    4.9877 N   0  0  0  0  0  0  0  0  0  0  0  0
   -0.6480   16.2403    4.1649 H   0  0  0  0  0  0  0  0  0  0  0  0
    0.0310   17.4594    5.0041 H   0  0  0  0  0  0  0  0  0  0  0  0
  2  1  1  1  0  0  0
  2  3  1  0  0  0  0
  2  7  1  0  0  0  0
  3  4  1  0  0  0  0
  4  5  1  0  0  0  0
  4 12  1  6  0  0  0
  5  6  1  0  0  0  0
  6  7  1  0  0  0  0
  6  8  1  0  0  0  0
  8  9  2  0  0  0  0
  8 10  1  0  0  0  0
 10 11  1  0  0  0  0
 12 13  1  0  0  0  0
 12 14  1  0  0  0  0
M  END
>  <CHROM.0>
-56.26493290,167.30032381,60.27547256,-47.09258969,-63.19743047,-60.96648055
53.69662089,-61.44796406,-168.16622815

>  <CHROM.1>
-51.29608893,-162.91760751,3.09816584,15.68929483,4.27523878,-2.64337679
0.13374271,-0.00428093

>  <Name>
P136260061

>  <RI>
4.17015e+07

>  <Rbt.Current_Directory>
/home/fstefaniak/projects/zuza/docking/adenine/4XNR

>  <Rbt.Executable>
rbdock ($Id: //depot/dev/client3/rdock/2013.1/src/exe/rbdock.cxx#4 $)

>  <Rbt.Library>
libRbt.so (2013.1, Build901 2013/11/27)

>  <Rbt.Parameter_File>
/home/fstefaniak/progs/rDock//data/scripts/dock_solv.prm

>  <Rbt.Receptor>
4xnr.prm

>  <SCORE>
-36.638

>  <SCORE.INTER>
-19.5359

>  <SCORE.INTER.CONST>
1

>  <SCORE.INTER.POLAR>
-2.03019

>  <SCORE.INTER.ROT>
2

>  <SCORE.INTER.SOLV>
12.2378

>  <SCORE.INTER.VDW>
-15.2692

>  <SCORE.INTER.norm>
-1.62799

>  <SCORE.INTRA>
1.01129

>  <SCORE.INTRA.DIHEDRAL>
2.21985

>  <SCORE.INTRA.DIHEDRAL.0>
0.0152541

>  <SCORE.INTRA.POLAR>
0

>  <SCORE.INTRA.POLAR.0>
0

>  <SCORE.INTRA.REPUL>
0

>  <SCORE.INTRA.REPUL.0>
0

>  <SCORE.INTRA.SOLV>
0.0047981

>  <SCORE.INTRA.SOLV.lig_0>
-8.74874

>  <SCORE.INTRA.VDW>
-0.101029

>  <SCORE.INTRA.VDW.0>
2.02935

>  <SCORE.INTRA.norm>
0.0842745

>  <SCORE.RESTR>
0

>  <SCORE.RESTR.CAVITY>
0

>  <SCORE.RESTR.norm>
0

>  <SCORE.SYSTEM>
-18.1135

>  <SCORE.SYSTEM.CONST>
0

>  <SCORE.SYSTEM.DIHEDRAL>
4.57852

>  <SCORE.SYSTEM.POLAR>
-2.98715

>  <SCORE.SYSTEM.SOLV>
0.18194

>  <SCORE.SYSTEM.VDW>
-3.70529

>  <SCORE.SYSTEM.norm>
-1.50946

>  <SCORE.heavy>
12

>  <SCORE.norm>
-3.05317

$$$$
P136266612
 OpenBabel12072022113D
libRbt.so/2013.1/901 2013/11/27
 16 16  0  0  0  0  0  0  0  0999 V2000
    1.7297   14.8683    4.2163 C   0  0  0  0  0  0  0  0  0  0  0  0
    2.1693   13.6454    3.4058 C   0  0  2  0  0  0  0  0  0  0  0  0
    0.9923   12.9530    2.6847 C   0  0  0  0  0  0  0  0  0  0  0  0
    0.2064   11.9544    3.5504 C   0  0  1  0  0  0  0  0  0  0  0  0
    1.1966   10.9660    4.2024 C   0  0  0  0  0  0  0  0  0  0  0  0
    2.0868   11.7990    5.1044 N   0  3  2  0  0  0  0  0  0  0  0  0
    1.4542   12.3995    5.6492 H   0  0  0  0  0  0  0  0  0  0  0  0
    2.9930   12.6655    4.2577 C   0  0  0  0  0  0  0  0  0  0  0  0
    2.9377   10.9270    6.0766 C   0  0  1  0  0  0  0  0  0  0  0  0
    2.0242   10.2868    7.1182 C   0  0  0  0  0  0  0  0  0  0  0  0
    3.8575    9.8827    5.3596 C   0  0  0  0  0  0  0  0  0  0  0  0
    4.9297   10.3501    4.8892 O   0  0  0  0  0  0  0  0  0  0  0  0
    3.4700    8.6882    5.4982 O   0  5  0  0  0  0  0  0  0  0  0  0
   -0.5441   12.6797    4.5982 N   0  0  0  0  0  0  0  0  0  0  0  0
   -1.2018   12.0385    5.0498 H   0  0  0  0  0  0  0  0  0  0  0  0
   -1.1346   13.3885    4.1545 H   0  0  0  0  0  0  0  0  0  0  0  0
  2  1  1  1  0  0  0
  2  3  1  0  0  0  0
  2  8  1  0  0  0  0
  3  4  1  0  0  0  0
  4  5  1  0  0  0  0
  4 14  1  1  0  0  0
  5  6  1  0  0  0  0
  6  7  1  1  0  0  0
  6  8  1  0  0  0  0
  6  9  1  0  0  0  0
  9 10  1  1  0  0  0
  9 11  1  0  0  0  0
 11 12  2  0  0  0  0
 11 13  1  0  0  0  0
 14 15  1  0  0  0  0
 14 16  1  0  0  0  0
M  CHG  2   6   1  13  -1
M  END
>  <CHROM.0>
-57.95503605,-59.40408334,-60.97134997,-46.48031136,-60.19794790,-61.58812414
-67.23221002,-61.51548434,-167.30937867

>  <CHROM.1>
169.00939293,-69.55983689,79.64403132,2.14622246,11.65721061,4.71320124,-2.15919313
-0.06803055,2.60118752

>  <Name>
P136266612

>  <RI>
1.34432e+07

>  <Rbt.Current_Directory>
/home/fstefaniak/projects/zuza/docking/adenine/4XNR

>  <Rbt.Executable>
rbdock ($Id: //depot/dev/client3/rdock/2013.1/src/exe/rbdock.cxx#4 $)

>  <Rbt.Library>
libRbt.so (2013.1, Build901 2013/11/27)

>  <Rbt.Parameter_File>
/home/fstefaniak/progs/rDock//data/scripts/dock_solv.prm

>  <Rbt.Receptor>
4xnr.prm

>  <SCORE>
-34.9887

>  <SCORE.INTER>
-16.4434

>  <SCORE.INTER.CONST>
1

>  <SCORE.INTER.POLAR>
-3.01665

>  <SCORE.INTER.ROT>
3

>  <SCORE.INTER.SOLV>
9.76931

>  <SCORE.INTER.VDW>
-9.76324

>  <SCORE.INTER.norm>
-1.26488

>  <SCORE.INTRA>
1.02386

>  <SCORE.INTRA.DIHEDRAL>
0.271207

>  <SCORE.INTRA.DIHEDRAL.0>
1.32829

>  <SCORE.INTRA.POLAR>
-1.57683e-10

>  <SCORE.INTRA.POLAR.0>
-0.272373

>  <SCORE.INTRA.REPUL>
0

>  <SCORE.INTRA.REPUL.0>
0

>  <SCORE.INTRA.SOLV>
-0.143952

>  <SCORE.INTRA.SOLV.lig_0>
-40.0629

>  <SCORE.INTRA.VDW>
0.960232

>  <SCORE.INTRA.VDW.0>
0.546885

>  <SCORE.INTRA.norm>
0.0787584

>  <SCORE.RESTR>
1.15639

>  <SCORE.RESTR.CAVITY>
1.15639

>  <SCORE.RESTR.norm>
0.0889527

>  <SCORE.SYSTEM>
-20.7255

>  <SCORE.SYSTEM.CONST>
0

>  <SCORE.SYSTEM.DIHEDRAL>
3.96856

>  <SCORE.SYSTEM.POLAR>
-2.99962

>  <SCORE.SYSTEM.SOLV>
0.294093

>  <SCORE.SYSTEM.VDW>
-5.23915

>  <SCORE.SYSTEM.norm>
-1.59427

>  <SCORE.heavy>
13

>  <SCORE.norm>
-2.69144

$$$$
P136266612
 OpenBabel12072022113D
libRbt.so/2013.1/901 2013/11/27
 16 16  0  0  0  0  0  0  0  0999 V2000
    1.7341   14.8553    4.2284 C   0  0  0  0  0  0  0  0  0  0  0  0
    2.1900   13.6300    3.4306 C   0  0  2  0  0  0  0  0  0  0  0  0
    1.0264   12.9302    2.6952 C   0  0  0  0  0  0  0  0  0  0  0  0
    0.2307   11.9331    3.5537 C   0  0  1  0  0  0  0  0  0  0  0  0
    1.2141   10.9512    4.2255 C   0  0  0  0  0  0  0  0  0  0  0  0
    2.0877   11.7915    5.1368 N   0  3  2  0  0  0  0  0  0  0  0  0
    1.4449   12.3926    5.6690 H   0  0  0  0  0  0  0  0  0  0  0  0
    3.0038   12.6571    4.2998 C   0  0  0  0  0  0  0  0  0  0  0  0
    2.9266   10.9271    6.1261 C   0  0  1  0  0  0  0  0  0  0  0  0
    1.9993   10.2876    7.1558 C   0  0  0  0  0  0  0  0  0  0  0  0
    3.8619    9.8838    5.4282 C   0  0  0  0  0  0  0  0  0  0  0  0
    3.4163    8.7048    5.3964 O   0  0  0  0  0  0  0  0  0  0  0  0
    4.8579   10.4042    4.8508 O   0  5  0  0  0  0  0  0  0  0  0  0
   -0.5380   12.6610    4.5864 N   0  0  0  0  0  0  0  0  0  0  0  0
   -1.2123   12.0240    5.0193 H   0  0  0  0  0  0  0  0  0  0  0  0
   -1.1112   13.3772    4.1318 H   0  0  0  0  0  0  0  0  0  0  0  0
  2  1  1  1  0  0  0
  2  3  1  0  0  0  0
  2  8  1  0  0  0  0
  3  4  1  0  0  0  0
  4  5  1  0  0  0  0
  4 14  1  1  0  0  0
  5  6  1  0  0  0  0
  6  7  1  1  0  0  0
  6  8  1  0  0  0  0
  6  9  1  0  0  0  0
  9 10  1  1  0  0  0
  9 11  1  0  0  0  0
 11 12  2  0  0  0  0
 11 13  1  0  0  0  0
 14 15  1  0  0  0  0
 14 16  1  0  0  0  0
M  CHG  2   6   1  13  -1
M  END
>  <CHROM.0>
-51.55311035,-177.19283009,-65.29203740,-47.96671434,-56.24080528,-173.66566528
-67.71814036,-58.69285246,-167.80514723

>  <CHROM.1>
167.98058775,-69.48873285,-99.71180207,2.14167691,11.65418958,4.72209282
-2.15022946,-0.06855519,2.60113235

>  <Name>
P136266612

>  <RI>
1.34432e+07

>  <Rbt.Current_Directory>
/home/fstefaniak/projects/zuza/docking/adenine/4XNR

>  <Rbt.Executable>
rbdock ($Id: //depot/dev/client3/rdock/2013.1/src/exe/rbdock.cxx#4 $)

>  <Rbt.Library>
libRbt.so (2013.1, Build901 2013/11/27)

>  <Rbt.Parameter_File>
/home/fstefaniak/progs/rDock//data/scripts/dock_solv.prm

>  <Rbt.Receptor>
4xnr.prm

>  <SCORE>
-34.9029

>  <SCORE.INTER>
-16.453

>  <SCORE.INTER.CONST>
1

>  <SCORE.INTER.POLAR>
-3.0228

>  <SCORE.INTER.ROT>
3

>  <SCORE.INTER.SOLV>
9.65404

>  <SCORE.INTER.VDW>
-9.71072

>  <SCORE.INTER.norm>
-1.26562

>  <SCORE.INTRA>
0.660021

>  <SCORE.INTRA.DIHEDRAL>
0.15398

>  <SCORE.INTRA.DIHEDRAL.0>
1.32829

>  <SCORE.INTRA.POLAR>
-1.95707e-10

>  <SCORE.INTRA.POLAR.0>
-0.272373

>  <SCORE.INTRA.REPUL>
0

>  <SCORE.INTRA.REPUL.0>
0

>  <SCORE.INTRA.SOLV>
0.152892

>  <SCORE.INTRA.SOLV.lig_0>
-40.0629

>  <SCORE.INTRA.VDW>
0.506585

>  <SCORE.INTRA.VDW.0>
0.546885

>  <SCORE.INTRA.norm>
0.0507709

>  <SCORE.RESTR>
1.29283

>  <SCORE.RESTR.CAVITY>
1.29283

>  <SCORE.RESTR.norm>
0.0994485

>  <SCORE.SYSTEM>
-20.4028

>  <SCORE.SYSTEM.CONST>
0

>  <SCORE.SYSTEM.DIHEDRAL>
4.47162

>  <SCORE.SYSTEM.POLAR>
-3.03859

>  <SCORE.SYSTEM.SOLV>
0.166223

>  <SCORE.SYSTEM.VDW>
-5.01916

>  <SCORE.SYSTEM.norm>
-1.56944

>  <SCORE.heavy>
13

>  <SCORE.norm>
-2.68484

$$$$
P136266612
 OpenBabel12072022113D
libRbt.so/2013.1/901 2013/11/27
 16 16  0  0  0  0  0  0  0  0999 V2000
    0.8272   15.6430    4.8559 C   0  0  0  0  0  0  0  0  0  0  0  0
    1.6588   15.4233    3.5887 C   0  0  2  0  0  0  0  0  0  0  0  0
    2.2830   14.0124    3.5219 C   0  0  0  0  0  0  0  0  0  0  0  0
    3.6108   13.8606    4.2822 C   0  0  1  0  0  0  0  0  0  0  0  0
    4.5747   14.9821    3.8399 C   0  0  0  0  0  0  0  0  0  0  0  0
    3.9200   16.2852    4.2563 N   0  3  2  0  0  0  0  0  0  0  0  0
    3.6240   16.1534    5.2324 H   0  0  0  0  0  0  0  0  0  0  0  0
    2.7023   16.5358    3.3941 C   0  0  0  0  0  0  0  0  0  0  0  0
    4.8941   17.4989    4.1702 C   0  0  1  0  0  0  0  0  0  0  0  0
    5.6099   17.6731    5.5068 C   0  0  0  0  0  0  0  0  0  0  0  0
    5.8853   17.4383    2.9601 C   0  0  0  0  0  0  0  0  0  0  0  0
    5.4551   16.8213    1.9482 O   0  0  0  0  0  0  0  0  0  0  0  0
    6.9125   18.1581    3.1113 O   0  5  0  0  0  0  0  0  0  0  0  0
    3.3690   13.9500    5.7384 N   0  0  0  0  0  0  0  0  0  0  0  0
    4.1375   13.4949    6.2385 H   0  0  0  0  0  0  0  0  0  0  0  0
    2.5411   13.3954    5.9732 H   0  0  0  0  0  0  0  0  0  0  0  0
  2  1  1  1  0  0  0
  2  3  1  0  0  0  0
  2  8  1  0  0  0  0
  3  4  1  0  0  0  0
  4  5  1  0  0  0  0
  4 14  1  1  0  0  0
  5  6  1  0  0  0  0
  6  7  1  1  0  0  0
  6  8  1  0  0  0  0
  6  9  1  0  0  0  0
  9 10  1  1  0  0  0
  9 11  1  0  0  0  0
 11 12  2  0  0  0  0
 11 13  1  0  0  0  0
 14 15  1  0  0  0  0
 14 16  1  0  0  0  0
M  CHG  2   6   1  13  -1
M  END
>  <CHROM.0>
-56.89974356,-45.99476979,-70.47960925,-44.21949006,-54.65147375,-53.23550033
-67.25880404,66.62925124,-168.09306407

>  <CHROM.1>
157.73770696,-90.52062225,29.07801603,3.99585000,16.02432216,3.95971751,2.61314424
0.45693470,2.14907271

>  <Name>
P136266612

>  <RI>
1.34432e+07

>  <Rbt.Current_Directory>
/home/fstefaniak/projects/zuza/docking/adenine/4XNR

>  <Rbt.Executable>
rbdock ($Id: //depot/dev/client3/rdock/2013.1/src/exe/rbdock.cxx#4 $)

>  <Rbt.Library>
libRbt.so (2013.1, Build901 2013/11/27)

>  <Rbt.Parameter_File>
/home/fstefaniak/progs/rDock//data/scripts/dock_solv.prm

>  <Rbt.Receptor>
4xnr.prm

>  <SCORE>
-30.6145

>  <SCORE.INTER>
-14.5714

>  <SCORE.INTER.CONST>
1

>  <SCORE.INTER.POLAR>
-3.26564

>  <SCORE.INTER.ROT>
3

>  <SCORE.INTER.SOLV>
22.2281

>  <SCORE.INTER.VDW>
-11.8382

>  <SCORE.INTER.norm>
-1.12088

>  <SCORE.INTRA>
2.59394

>  <SCORE.INTRA.DIHEDRAL>
2.16769

>  <SCORE.INTRA.DIHEDRAL.0>
1.32829

>  <SCORE.INTRA.POLAR>
-1.79504e-10

>  <SCORE.INTRA.POLAR.0>
-0.272373

>  <SCORE.INTRA.REPUL>
0

>  <SCORE.INTRA.REPUL.0>
0

>  <SCORE.INTRA.SOLV>
0.631914

>  <SCORE.INTRA.SOLV.lig_0>
-40.0629

>  <SCORE.INTRA.VDW>
1.19414

>  <SCORE.INTRA.VDW.0>
0.546885

>  <SCORE.INTRA.norm>
0.199534

>  <SCORE.RESTR>
0

>  <SCORE.RESTR.CAVITY>
0

>  <SCORE.RESTR.norm>
0

>  <SCORE.SYSTEM>
-18.6371

>  <SCORE.SYSTEM.CONST>
0

>  <SCORE.SYSTEM.DIHEDRAL>
6.09903

>  <SCORE.SYSTEM.POLAR>
-3.06945

>  <SCORE.SYSTEM.SOLV>
0.183644

>  <SCORE.SYSTEM.VDW>
-4.28744

>  <SCORE.SYSTEM.norm>
-1.43362

>  <SCORE.heavy>
13

>  <SCORE.norm>
-2.35496

$$$$
P136450499
 OpenBabel12072022113D
libRbt.so/2013.1/901 2013/11/27
 11 11  0  0  0  0  0  0  0  0999 V2000
    3.1673   16.6086    3.5734 C   0  0  0  0  0  0  0  0  0  0  0  0
    4.4039   17.3293    3.0526 C   0  0  0  0  0  0  0  0  0  0  0  0
    5.6986   16.9717    3.8151 C   0  0  1  0  0  0  0  0  0  0  0  0
    6.8775   17.8452    3.3274 C   0  0  0  0  0  0  0  0  0  0  0  0
    6.7203   19.2217    3.7041 O   0  0  0  0  0  0  0  0  0  0  0  0
    6.6137   19.3746    5.1359 C   0  0  1  0  0  0  0  0  0  0  0  0
    5.5082   18.4719    5.7257 C   0  0  0  0  0  0  0  0  0  0  0  0
    5.5669   17.0682    5.2820 N   0  0  0  0  0  0  0  0  0  0  0  0
    7.9440   19.1620    5.8399 C   0  0  0  0  0  0  0  0  0  0  0  0
    9.0475   18.9856    6.4238 N   0  0  0  0  0  0  0  0  0  0  0  0
    4.7424   16.5633    5.6041 H   0  0  0  0  0  0  0  0  0  0  0  0
  1  2  1  0  0  0  0
  3  2  1  6  0  0  0
  3  4  1  0  0  0  0
  3  8  1  0  0  0  0
  4  5  1  0  0  0  0
  5  6  1  0  0  0  0
  6  7  1  0  0  0  0
  6  9  1  1  0  0  0
  7  8  1  0  0  0  0
  8 11  1  0  0  0  0
  9 10  3  0  0  0  0
M  END
>  <CHROM.0>
-60.33632593,-60.35375928,-65.63674847,-48.15823942,-176.38650598,-62.91643399
-67.75911714,-59.89693041,-167.67176418

>  <CHROM.1>
-174.22052382,6.10505047,18.08158189,4.55880416,2.71485684,-0.52393078,-1.51555075

>  <Name>
P136450499

>  <RI>
3.1908e+07

>  <Rbt.Current_Directory>
/home/fstefaniak/projects/zuza/docking/adenine/4XNR

>  <Rbt.Executable>
rbdock ($Id: //depot/dev/client3/rdock/2013.1/src/exe/rbdock.cxx#4 $)

>  <Rbt.Library>
libRbt.so (2013.1, Build901 2013/11/27)

>  <Rbt.Parameter_File>
/home/fstefaniak/progs/rDock//data/scripts/dock_solv.prm

>  <Rbt.Receptor>
4xnr.prm

>  <SCORE>
-44.0805

>  <SCORE.INTER>
-23.5653

>  <SCORE.INTER.CONST>
1

>  <SCORE.INTER.POLAR>
-2.51747

>  <SCORE.INTER.ROT>
1

>  <SCORE.INTER.SOLV>
10.7661

>  <SCORE.INTER.VDW>
-15.174

>  <SCORE.INTER.norm>
-2.35653

>  <SCORE.INTRA>
0.445305

>  <SCORE.INTRA.DIHEDRAL>
0.0369915

>  <SCORE.INTRA.DIHEDRAL.0>
0.136091

>  <SCORE.INTRA.POLAR>
0

>  <SCORE.INTRA.POLAR.0>
0

>  <SCORE.INTRA.REPUL>
0

>  <SCORE.INTRA.REPUL.0>
0

>  <SCORE.INTRA.SOLV>
0.0229789

>  <SCORE.INTRA.SOLV.lig_0>
-9.38448

>  <SCORE.INTRA.VDW>
0.41532

>  <SCORE.INTRA.VDW.0>
-0.0395108

>  <SCORE.INTRA.norm>
0.0445305

>  <SCORE.RESTR>
0

>  <SCORE.RESTR.CAVITY>
0

>  <SCORE.RESTR.norm>
0

>  <SCORE.SYSTEM>
-20.9605

>  <SCORE.SYSTEM.CONST>
0

>  <SCORE.SYSTEM.DIHEDRAL>
3.97152

>  <SCORE.SYSTEM.POLAR>
-2.95492

>  <SCORE.SYSTEM.SOLV>
0.104826

>  <SCORE.SYSTEM.VDW>
-5.4827

>  <SCORE.SYSTEM.norm>
-2.09605

>  <SCORE.heavy>
10

>  <SCORE.norm>
-4.40805

$$$$
P136450499
 OpenBabel12072022113D
libRbt.so/2013.1/901 2013/11/27
 11 11  0  0  0  0  0  0  0  0999 V2000
    3.1672   16.5781    3.5667 C   0  0  0  0  0  0  0  0  0  0  0  0
    4.3965   17.3151    3.0515 C   0  0  0  0  0  0  0  0  0  0  0  0
    5.6946   16.9653    3.8117 C   0  0  1  0  0  0  0  0  0  0  0  0
    6.8675   17.8455    3.3217 C   0  0  0  0  0  0  0  0  0  0  0  0
    6.7030   19.2212    3.6981 O   0  0  0  0  0  0  0  0  0  0  0  0
    6.5981   19.3740    5.1301 C   0  0  1  0  0  0  0  0  0  0  0  0
    5.4988   18.4651    5.7221 C   0  0  0  0  0  0  0  0  0  0  0  0
    5.5650   17.0617    5.2789 N   0  0  0  0  0  0  0  0  0  0  0  0
    7.9308   19.1694    5.8317 C   0  0  0  0  0  0  0  0  0  0  0  0
    9.0364   18.9997    6.4137 N   0  0  0  0  0  0  0  0  0  0  0  0
    4.7440   16.5521    5.6026 H   0  0  0  0  0  0  0  0  0  0  0  0
  1  2  1  0  0  0  0
  3  2  1  6  0  0  0
  3  4  1  0  0  0  0
  3  8  1  0  0  0  0
  4  5  1  0  0  0  0
  5  6  1  0  0  0  0
  6  7  1  0  0  0  0
  6  9  1  1  0  0  0
  7  8  1  0  0  0  0
  8 11  1  0  0  0  0
  9 10  3  0  0  0  0
M  END
>  <CHROM.0>
-56.99671012,-60.05058107,-70.12591528,-48.33753293,-176.26533806,-60.42856583
-68.64800923,-60.87548785,-167.98026199

>  <CHROM.1>
-174.73517044,6.09612598,18.07685247,4.55347332,2.71744110,-0.53120099,-1.51337948

>  <Name>
P136450499

>  <RI>
3.1908e+07

>  <Rbt.Current_Directory>
/home/fstefaniak/projects/zuza/docking/adenine/4XNR

>  <Rbt.Executable>
rbdock ($Id: //depot/dev/client3/rdock/2013.1/src/exe/rbdock.cxx#4 $)

>  <Rbt.Library>
libRbt.so (2013.1, Build901 2013/11/27)

>  <Rbt.Parameter_File>
/home/fstefaniak/progs/rDock//data/scripts/dock_solv.prm

>  <Rbt.Receptor>
4xnr.prm

>  <SCORE>
-44.0168

>  <SCORE.INTER>
-23.5118

>  <SCORE.INTER.CONST>
1

>  <SCORE.INTER.POLAR>
-2.50586

>  <SCORE.INTER.ROT>
1

>  <SCORE.INTER.SOLV>
10.7625

>  <SCORE.INTER.VDW>
-15.1758

>  <SCORE.INTER.norm>
-2.35118

>  <SCORE.INTRA>
0.408557

>  <SCORE.INTRA.DIHEDRAL>
0.0155152

>  <SCORE.INTRA.DIHEDRAL.0>
0.136091

>  <SCORE.INTRA.POLAR>
0

>  <SCORE.INTRA.POLAR.0>
0

>  <SCORE.INTRA.REPUL>
0

>  <SCORE.INTRA.REPUL.0>
0

>  <SCORE.INTRA.SOLV>
0.0218298

>  <SCORE.INTRA.SOLV.lig_0>
-9.38448

>  <SCORE.INTRA.VDW>
0.389885

>  <SCORE.INTRA.VDW.0>
-0.0395108

>  <SCORE.INTRA.norm>
0.0408557

>  <SCORE.RESTR>
0

>  <SCORE.RESTR.CAVITY>
0

>  <SCORE.RESTR.norm>
0

>  <SCORE.SYSTEM>
-20.9136

>  <SCORE.SYSTEM.CONST>
0

>  <SCORE.SYSTEM.DIHEDRAL>
4.3084

>  <SCORE.SYSTEM.POLAR>
-2.9661

>  <SCORE.SYSTEM.SOLV>
0.10317

>  <SCORE.SYSTEM.VDW>
-5.52592

>  <SCORE.SYSTEM.norm>
-2.09136

>  <SCORE.heavy>
10

>  <SCORE.norm>
-4.40168

$$$$
P136450499
 OpenBabel12072022113D
libRbt.so/2013.1/901 2013/11/27
 11 11  0  0  0  0  0  0  0  0999 V2000
    3.1617   16.5346    3.5938 C   0  0  0  0  0  0  0  0  0  0  0  0
    4.3737   17.3037    3.0844 C   0  0  0  0  0  0  0  0  0  0  0  0
    5.6853   16.9557    3.8220 C   0  0  1  0  0  0  0  0  0  0  0  0
    6.8420   17.8571    3.3321 C   0  0  0  0  0  0  0  0  0  0  0  0
    6.6673   19.2243    3.7338 O   0  0  0  0  0  0  0  0  0  0  0  0
    6.5792   19.3519    5.1694 C   0  0  1  0  0  0  0  0  0  0  0  0
    5.4977   18.4209    5.7599 C   0  0  0  0  0  0  0  0  0  0  0  0
    5.5736   17.0259    5.2921 N   0  0  0  0  0  0  0  0  0  0  0  0
    7.9231   19.1504    5.8505 C   0  0  0  0  0  0  0  0  0  0  0  0
    9.0379   18.9833    6.4154 N   0  0  0  0  0  0  0  0  0  0  0  0
    4.7625   16.5018    5.6176 H   0  0  0  0  0  0  0  0  0  0  0  0
  1  2  1  0  0  0  0
  3  2  1  6  0  0  0
  3  4  1  0  0  0  0
  3  8  1  0  0  0  0
  4  5  1  0  0  0  0
  5  6  1  0  0  0  0
  6  7  1  0  0  0  0
  6  9  1  1  0  0  0
  7  8  1  0  0  0  0
  8 11  1  0  0  0  0
  9 10  3  0  0  0  0
M  END
>  <CHROM.0>
-56.70948969,-59.23419084,-67.12571012,-45.49894847,-58.11736228,-62.69717646
-66.02860359,-59.20815169,-168.15260592

>  <CHROM.1>
-175.28402132,6.08436627,18.05799763,4.57640489,2.73340061,-0.54301419,-1.48696471

>  <Name>
P136450499

>  <RI>
3.1908e+07

>  <Rbt.Current_Directory>
/home/fstefaniak/projects/zuza/docking/adenine/4XNR

>  <Rbt.Executable>
rbdock ($Id: //depot/dev/client3/rdock/2013.1/src/exe/rbdock.cxx#4 $)

>  <Rbt.Library>
libRbt.so (2013.1, Build901 2013/11/27)

>  <Rbt.Parameter_File>
/home/fstefaniak/progs/rDock//data/scripts/dock_solv.prm

>  <Rbt.Receptor>
4xnr.prm

>  <SCORE>
-43.9958

>  <SCORE.INTER>
-23.4834

>  <SCORE.INTER.CONST>
1

>  <SCORE.INTER.POLAR>
-2.40268

>  <SCORE.INTER.ROT>
1

>  <SCORE.INTER.SOLV>
10.7614

>  <SCORE.INTER.VDW>
-15.5005

>  <SCORE.INTER.norm>
-2.34834

>  <SCORE.INTRA>
0.371008

>  <SCORE.INTRA.DIHEDRAL>
-0.0051572

>  <SCORE.INTRA.DIHEDRAL.0>
0.136091

>  <SCORE.INTRA.POLAR>
0

>  <SCORE.INTRA.POLAR.0>
0

>  <SCORE.INTRA.REPUL>
0

>  <SCORE.INTRA.REPUL.0>
0

>  <SCORE.INTRA.SOLV>
0.0206031

>  <SCORE.INTRA.SOLV.lig_0>
-9.38448

>  <SCORE.INTRA.VDW>
0.363286

>  <SCORE.INTRA.VDW.0>
-0.0395108

>  <SCORE.INTRA.norm>
0.0371008

>  <SCORE.RESTR>
0

>  <SCORE.RESTR.CAVITY>
0

>  <SCORE.RESTR.norm>
0

>  <SCORE.SYSTEM>
-20.8834

>  <SCORE.SYSTEM.CONST>
0

>  <SCORE.SYSTEM.DIHEDRAL>
4.21656

>  <SCORE.SYSTEM.POLAR>
-3.02522

>  <SCORE.SYSTEM.SOLV>
0.296051

>  <SCORE.SYSTEM.VDW>
-5.34239

>  <SCORE.SYSTEM.norm>
-2.08834

>  <SCORE.heavy>
10

>  <SCORE.norm>
-4.39958

$$$$
P136450765
 OpenBabel12072022113D
libRbt.so/2013.1/901 2013/11/27
 11 11  0  0  0  0  0  0  0  0999 V2000
    1.5184   15.3049    4.5714 C   0  0  0  0  0  0  0  0  0  0  0  0
    2.7243   14.5559    3.9854 C   0  0  0  0  0  0  0  0  0  0  0  0
    3.4591   13.7111    5.0597 C   0  0  0  0  0  0  0  0  0  0  0  0
    2.6947   12.5328    5.5011 N   0  0  0  0  0  0  0  0  0  0  0  0
    2.3636   11.7271    4.3103 C   0  0  0  0  0  0  0  0  0  0  0  0
    1.6764   12.5004    3.1631 C   0  0  2  0  0  0  0  0  0  0  0  0
    2.3327   13.7487    2.8558 O   0  0  0  0  0  0  0  0  0  0  0  0
    0.2261   12.6526    3.3932 C   0  0  0  0  0  0  0  0  0  0  0  0
   -0.9151   12.7537    3.5865 N   0  0  0  0  0  0  0  0  0  0  0  0
    3.7015   15.5981    3.4206 C   0  0  0  0  0  0  0  0  0  0  0  0
    1.8329   12.8382    5.9562 H   0  0  0  0  0  0  0  0  0  0  0  0
  1  2  1  0  0  0  0
  2  3  1  0  0  0  0
  2  7  1  0  0  0  0
  2 10  1  0  0  0  0
  3  4  1  0  0  0  0
  4  5  1  0  0  0  0
  4 11  1  0  0  0  0
  5  6  1  0  0  0  0
  6  7  1  0  0  0  0
  6  8  1  1  0  0  0
  8  9  3  0  0  0  0
M  END
>  <CHROM.0>
-55.95606045,-65.20813854,-66.94235434,-46.53748244,-61.18401215,59.42950050
-67.12510616,-60.40079976,-167.80812741

>  <CHROM.1>
2.00813988,13.53977616,3.99739136,0.56138010,-0.39461828,-0.35093979

>  <Name>
P136450765

>  <RI>
3.1908e+07

>  <Rbt.Current_Directory>
/home/fstefaniak/projects/zuza/docking/adenine/4XNR

>  <Rbt.Executable>
rbdock ($Id: //depot/dev/client3/rdock/2013.1/src/exe/rbdock.cxx#4 $)

>  <Rbt.Library>
libRbt.so (2013.1, Build901 2013/11/27)

>  <Rbt.Parameter_File>
/home/fstefaniak/progs/rDock//data/scripts/dock_solv.prm

>  <Rbt.Receptor>
4xnr.prm

>  <SCORE>
-34.1748

>  <SCORE.INTER>
-14.4783

>  <SCORE.INTER.CONST>
1

>  <SCORE.INTER.POLAR>
-1.37359

>  <SCORE.INTER.ROT>
0

>  <SCORE.INTER.SOLV>
5.99113

>  <SCORE.INTER.VDW>
-10.6706

>  <SCORE.INTER.norm>
-1.44783

>  <SCORE.INTRA>
0

>  <SCORE.INTRA.DIHEDRAL>
0

>  <SCORE.INTRA.DIHEDRAL.0>
0

>  <SCORE.INTRA.POLAR>
0

>  <SCORE.INTRA.POLAR.0>
0

>  <SCORE.INTRA.REPUL>
0

>  <SCORE.INTRA.REPUL.0>
0

>  <SCORE.INTRA.SOLV>
0

>  <SCORE.INTRA.SOLV.lig_0>
-8.48235

>  <SCORE.INTRA.VDW>
0

>  <SCORE.INTRA.VDW.0>
0

>  <SCORE.INTRA.norm>
0

>  <SCORE.RESTR>
0.126022

>  <SCORE.RESTR.CAVITY>
0.126022

>  <SCORE.RESTR.norm>
0.0126022

>  <SCORE.SYSTEM>
-19.8225

>  <SCORE.SYSTEM.CONST>
0

>  <SCORE.SYSTEM.DIHEDRAL>
4.28626

>  <SCORE.SYSTEM.POLAR>
-3.01169

>  <SCORE.SYSTEM.SOLV>
0.157214

>  <SCORE.SYSTEM.VDW>
-4.65722

>  <SCORE.SYSTEM.norm>
-1.98225

>  <SCORE.heavy>
10

>  <SCORE.norm>
-3.41748

$$$$
P136450765
 OpenBabel12072022113D
libRbt.so/2013.1/901 2013/11/27
 11 11  0  0  0  0  0  0  0  0999 V2000
    3.3439   11.9689    3.2921 C   0  0  0  0  0  0  0  0  0  0  0  0
    2.6681   12.2200    4.6481 C   0  0  0  0  0  0  0  0  0  0  0  0
    3.1022   13.5739    5.2696 C   0  0  0  0  0  0  0  0  0  0  0  0
    2.5575   14.7442    4.5617 N   0  0  0  0  0  0  0  0  0  0  0  0
    1.0886   14.6130    4.5191 C   0  0  0  0  0  0  0  0  0  0  0  0
    0.5639   13.2704    3.9638 C   0  0  2  0  0  0  0  0  0  0  0  0
    1.2330   12.1266    4.5360 O   0  0  0  0  0  0  0  0  0  0  0  0
    0.5514   13.2525    2.4875 C   0  0  0  0  0  0  0  0  0  0  0  0
    0.5393   13.2606    1.3258 N   0  0  0  0  0  0  0  0  0  0  0  0
    3.0760   11.0845    5.5991 C   0  0  0  0  0  0  0  0  0  0  0  0
    2.9253   14.7663    3.6092 H   0  0  0  0  0  0  0  0  0  0  0  0
  1  2  1  0  0  0  0
  2  3  1  0  0  0  0
  2  7  1  0  0  0  0
  2 10  1  0  0  0  0
  3  4  1  0  0  0  0
  4  5  1  0  0  0  0
  4 11  1  0  0  0  0
  5  6  1  0  0  0  0
  6  7  1  0  0  0  0
  6  8  1  6  0  0  0
  8  9  3  0  0  0  0
M  END
>  <CHROM.0>
58.03735633,-67.00476755,-68.14826111,-47.32252441,-60.57935385,-65.51200846
-66.88744451,59.00209398,-168.20343378

>  <CHROM.1>
1.90723892,12.99605887,4.04442606,0.02020138,0.89584815,-2.66643687

>  <Name>
P136450765

>  <RI>
3.1908e+07

>  <Rbt.Current_Directory>
/home/fstefaniak/projects/zuza/docking/adenine/4XNR

>  <Rbt.Executable>
rbdock ($Id: //depot/dev/client3/rdock/2013.1/src/exe/rbdock.cxx#4 $)

>  <Rbt.Library>
libRbt.so (2013.1, Build901 2013/11/27)

>  <Rbt.Parameter_File>
/home/fstefaniak/progs/rDock//data/scripts/dock_solv.prm

>  <Rbt.Receptor>
4xnr.prm

>  <SCORE>
-25.6431

>  <SCORE.INTER>
-9.25103

>  <SCORE.INTER.CONST>
1

>  <SCORE.INTER.POLAR>
-0.331261

>  <SCORE.INTER.ROT>
0

>  <SCORE.INTER.SOLV>
6.45131

>  <SCORE.INTER.VDW>
-10.8136

>  <SCORE.INTER.norm>
-0.925103

>  <SCORE.INTRA>
0

>  <SCORE.INTRA.DIHEDRAL>
0

>  <SCORE.INTRA.DIHEDRAL.0>
0

>  <SCORE.INTRA.POLAR>
0

>  <SCORE.INTRA.POLAR.0>
0

>  <SCORE.INTRA.REPUL>
0

>  <SCORE.INTRA.REPUL.0>
0

>  <SCORE.INTRA.SOLV>
0

>  <SCORE.INTRA.SOLV.lig_0>
-8.48235

>  <SCORE.INTRA.VDW>
0

>  <SCORE.INTRA.VDW.0>
0

>  <SCORE.INTRA.norm>
0

>  <SCORE.RESTR>
0

>  <SCORE.RESTR.CAVITY>
0

>  <SCORE.RESTR.norm>
0

>  <SCORE.SYSTEM>
-16.392

>  <SCORE.SYSTEM.CONST>
0

>  <SCORE.SYSTEM.DIHEDRAL>
4.40308

>  <SCORE.SYSTEM.POLAR>
-2.3867

>  <SCORE.SYSTEM.SOLV>
0.100924

>  <SCORE.SYSTEM.VDW>
-4.47369

>  <SCORE.SYSTEM.norm>
-1.6392

>  <SCORE.heavy>
10

>  <SCORE.norm>
-2.56431

$$$$
P136450765
 OpenBabel12072022113D
libRbt.so/2013.1/901 2013/11/27
 11 11  0  0  0  0  0  0  0  0999 V2000
    5.6434   17.6988    6.0484 C   0  0  0  0  0  0  0  0  0  0  0  0
    5.9595   18.6950    4.9231 C   0  0  0  0  0  0  0  0  0  0  0  0
    7.1432   18.2162    4.0414 C   0  0  0  0  0  0  0  0  0  0  0  0
    6.8097   17.0618    3.1908 N   0  0  0  0  0  0  0  0  0  0  0  0
    5.6338   17.4174    2.3737 C   0  0  0  0  0  0  0  0  0  0  0  0
    4.4219   17.9574    3.1649 C   0  0  2  0  0  0  0  0  0  0  0  0
    4.7864   18.9677    4.1292 O   0  0  0  0  0  0  0  0  0  0  0  0
    3.6155   16.8671    3.7486 C   0  0  0  0  0  0  0  0  0  0  0  0
    2.9878   15.9956    4.1916 N   0  0  0  0  0  0  0  0  0  0  0  0
    6.3339   20.0376    5.5692 C   0  0  0  0  0  0  0  0  0  0  0  0
    6.5845   16.2591    3.7807 H   0  0  0  0  0  0  0  0  0  0  0  0
  1  2  1  0  0  0  0
  2  3  1  0  0  0  0
  2  7  1  0  0  0  0
  2 10  1  0  0  0  0
  3  4  1  0  0  0  0
  4  5  1  0  0  0  0
  4 11  1  0  0  0  0
  5  6  1  0  0  0  0
  6  7  1  0  0  0  0
  6  8  1  1  0  0  0
  8  9  3  0  0  0  0
M  END
>  <CHROM.0>
-58.50187698,64.95038511,-66.71698987,-47.73422121,-177.73964711,-63.07843209
-69.41466618,-59.47050873,-168.26841779

>  <CHROM.1>
5.36662099,17.91199692,4.16085103,0.71916782,0.41081866,0.97300394

>  <Name>
P136450765

>  <RI>
3.1908e+07

>  <Rbt.Current_Directory>
/home/fstefaniak/projects/zuza/docking/adenine/4XNR

>  <Rbt.Executable>
rbdock ($Id: //depot/dev/client3/rdock/2013.1/src/exe/rbdock.cxx#4 $)

>  <Rbt.Library>
libRbt.so (2013.1, Build901 2013/11/27)

>  <Rbt.Parameter_File>
/home/fstefaniak/progs/rDock//data/scripts/dock_solv.prm

>  <Rbt.Receptor>
4xnr.prm

>  <SCORE>
-24.6312

>  <SCORE.INTER>
-4.62213

>  <SCORE.INTER.CONST>
1

>  <SCORE.INTER.POLAR>
-1.0865

>  <SCORE.INTER.ROT>
0

>  <SCORE.INTER.SOLV>
10.0115

>  <SCORE.INTER.VDW>
-6.39691

>  <SCORE.INTER.norm>
-0.462213

>  <SCORE.INTRA>
0

>  <SCORE.INTRA.DIHEDRAL>
0

>  <SCORE.INTRA.DIHEDRAL.0>
0

>  <SCORE.INTRA.POLAR>
0

>  <SCORE.INTRA.POLAR.0>
0

>  <SCORE.INTRA.REPUL>
0

>  <SCORE.INTRA.REPUL.0>
0

>  <SCORE.INTRA.SOLV>
0

>  <SCORE.INTRA.SOLV.lig_0>
-8.48235

>  <SCORE.INTRA.VDW>
0

>  <SCORE.INTRA.VDW.0>
0

>  <SCORE.INTRA.norm>
0

>  <SCORE.RESTR>
0

>  <SCORE.RESTR.CAVITY>
0

>  <SCORE.RESTR.norm>
0

>  <SCORE.SYSTEM>
-20.0091

>  <SCORE.SYSTEM.CONST>
0

>  <SCORE.SYSTEM.DIHEDRAL>
4.23887

>  <SCORE.SYSTEM.POLAR>
-2.9706

>  <SCORE.SYSTEM.SOLV>
0.157735

>  <SCORE.SYSTEM.VDW>
-4.90294

>  <SCORE.SYSTEM.norm>
-2.00091

>  <SCORE.heavy>
10

>  <SCORE.norm>
-2.46312

$$$$
P136516744
 OpenBabel12072022113D
libRbt.so/2013.1/901 2013/11/27
 14 14  0  0  0  0  0  0  0  0999 V2000
    6.4243   18.2386    1.4650 C   0  0  0  0  0  0  0  0  0  0  0  0
    6.2879   17.6453    2.8676 C   0  0  1  0  0  0  0  0  0  0  0  0
    4.9036   17.9282    3.4610 C   0  0  0  0  0  0  0  0  0  0  0  0
    4.5928   16.6573    4.2134 C   0  0  0  0  0  0  0  0  0  0  0  0
    5.2163   15.6102    3.3209 C   0  0  0  0  0  0  0  0  0  0  0  0
    6.3979   16.2026    2.7654 O   0  0  0  0  0  0  0  0  0  0  0  0
    7.4084   18.1529    3.8014 C   0  0  0  0  0  0  0  0  0  0  0  0
    6.9369   19.1761    4.7191 N   0  0  0  0  0  0  0  0  0  0  0  0
    7.0920   19.0249    6.0626 C   0  0  0  0  0  0  0  0  0  0  0  0
    6.1925   18.9969    6.8878 O   0  0  0  0  0  0  0  0  0  0  0  0
    8.3969   18.9197    6.4180 N   0  0  0  0  0  0  0  0  0  0  0  0
    7.0177   20.1254    4.3784 H   0  0  0  0  0  0  0  0  0  0  0  0
    8.7878   19.7094    6.9110 H   0  0  0  0  0  0  0  0  0  0  0  0
    8.6294   18.0154    6.8091 H   0  0  0  0  0  0  0  0  0  0  0  0
  2  1  1  6  0  0  0
  2  3  1  0  0  0  0
  2  6  1  0  0  0  0
  2  7  1  0  0  0  0
  3  4  1  0  0  0  0
  4  5  1  0  0  0  0
  5  6  1  0  0  0  0
  7  8  1  0  0  0  0
  8  9  1  0  0  0  0
  8 12  1  0  0  0  0
  9 10  2  0  0  0  0
  9 11  1  0  0  0  0
 11 13  1  0  0  0  0
 11 14  1  0  0  0  0
M  END
>  <CHROM.0>
-165.77950046,54.34668118,-75.30678619,-49.09866802,-52.26403078,-59.30297970
-172.41505438,-57.77767584,-168.72871196

>  <CHROM.1>
103.27273037,124.44648093,-120.28756303,109.19099582,6.37437485,17.87892998
4.20681808,-2.07712449,0.71753391,1.35884134

>  <Name>
P136516744

>  <RI>
3.4169e+07

>  <Rbt.Current_Directory>
/home/fstefaniak/projects/zuza/docking/adenine/4XNR

>  <Rbt.Executable>
rbdock ($Id: //depot/dev/client3/rdock/2013.1/src/exe/rbdock.cxx#4 $)

>  <Rbt.Library>
libRbt.so (2013.1, Build901 2013/11/27)

>  <Rbt.Parameter_File>
/home/fstefaniak/progs/rDock//data/scripts/dock_solv.prm

>  <Rbt.Receptor>
4xnr.prm

>  <SCORE>
-45.3104

>  <SCORE.INTER>
-32.6619

>  <SCORE.INTER.CONST>
1

>  <SCORE.INTER.POLAR>
-4.63827

>  <SCORE.INTER.ROT>
4

>  <SCORE.INTER.SOLV>
13.4187

>  <SCORE.INTER.VDW>
-17.0533

>  <SCORE.INTER.norm>
-2.96926

>  <SCORE.INTRA>
3.14892

>  <SCORE.INTRA.DIHEDRAL>
5.40053

>  <SCORE.INTRA.DIHEDRAL.0>
1.28093

>  <SCORE.INTRA.POLAR>
0

>  <SCORE.INTRA.POLAR.0>
0

>  <SCORE.INTRA.REPUL>
0

>  <SCORE.INTRA.REPUL.0>
0

>  <SCORE.INTRA.SOLV>
0.406482

>  <SCORE.INTRA.SOLV.lig_0>
-13.629

>  <SCORE.INTRA.VDW>
0.245411

>  <SCORE.INTRA.VDW.0>
-0.425397

>  <SCORE.INTRA.norm>
0.286265

>  <SCORE.RESTR>
0

>  <SCORE.RESTR.CAVITY>
0

>  <SCORE.RESTR.norm>
0

>  <SCORE.SYSTEM>
-15.7974

>  <SCORE.SYSTEM.CONST>
0

>  <SCORE.SYSTEM.DIHEDRAL>
5.85635

>  <SCORE.SYSTEM.POLAR>
-2.35506

>  <SCORE.SYSTEM.SOLV>
0.301155

>  <SCORE.SYSTEM.VDW>
-4.73392

>  <SCORE.SYSTEM.norm>
-1.43613

>  <SCORE.heavy>
11

>  <SCORE.norm>
-4.11913

$$$$
P136516744
 OpenBabel12072022113D
libRbt.so/2013.1/901 2013/11/27
 14 14  0  0  0  0  0  0  0  0999 V2000
    5.0167   15.2236    3.5977 C   0  0  0  0  0  0  0  0  0  0  0  0
    5.0083   16.7491    3.4935 C   0  0  1  0  0  0  0  0  0  0  0  0
    5.5694   17.3983    4.7632 C   0  0  0  0  0  0  0  0  0  0  0  0
    6.3397   18.5798    4.2260 C   0  0  0  0  0  0  0  0  0  0  0  0
    6.8934   18.0255    2.9345 C   0  0  0  0  0  0  0  0  0  0  0  0
    5.8954   17.1375    2.4137 O   0  0  0  0  0  0  0  0  0  0  0  0
    3.5936   17.2804    3.1749 C   0  0  0  0  0  0  0  0  0  0  0  0
    2.5872   16.7327    4.0685 N   0  0  0  0  0  0  0  0  0  0  0  0
    1.6024   15.9251    3.5890 C   0  0  0  0  0  0  0  0  0  0  0  0
    1.6852   14.7183    3.4214 O   0  0  0  0  0  0  0  0  0  0  0  0
    0.4759   16.6171    3.2857 N   0  0  0  0  0  0  0  0  0  0  0  0
    2.9185   16.5064    4.9974 H   0  0  0  0  0  0  0  0  0  0  0  0
    0.4062   16.9585    2.3379 H   0  0  0  0  0  0  0  0  0  0  0  0
   -0.3648   16.1828    3.6453 H   0  0  0  0  0  0  0  0  0  0  0  0
  2  1  1  1  0  0  0
  2  3  1  0  0  0  0
  2  6  1  0  0  0  0
  2  7  1  0  0  0  0
  3  4  1  0  0  0  0
  4  5  1  0  0  0  0
  5  6  1  0  0  0  0
  7  8  1  0  0  0  0
  8  9  1  0  0  0  0
  8 12  1  0  0  0  0
  9 10  2  0  0  0  0
  9 11  1  0  0  0  0
 11 13  1  0  0  0  0
 11 14  1  0  0  0  0
M  END
>  <CHROM.0>
-56.41435424,-62.46057344,-39.57763967,-45.67761732,61.27384891,-55.65617359
-62.54224331,-52.79032949,-168.01835079

>  <CHROM.1>
50.31010471,-115.18218196,85.34773612,90.97991588,4.02113557,16.73867392
3.52957269,-0.34865572,-0.05808681,-2.96757885

>  <Name>
P136516744

>  <RI>
3.4169e+07

>  <Rbt.Current_Directory>
/home/fstefaniak/projects/zuza/docking/adenine/4XNR

>  <Rbt.Executable>
rbdock ($Id: //depot/dev/client3/rdock/2013.1/src/exe/rbdock.cxx#4 $)

>  <Rbt.Library>
libRbt.so (2013.1, Build901 2013/11/27)

>  <Rbt.Parameter_File>
/home/fstefaniak/progs/rDock//data/scripts/dock_solv.prm

>  <Rbt.Receptor>
4xnr.prm

>  <SCORE>
-44.6801

>  <SCORE.INTER>
-26.5853

>  <SCORE.INTER.CONST>
1

>  <SCORE.INTER.POLAR>
-3.95608

>  <SCORE.INTER.ROT>
4

>  <SCORE.INTER.SOLV>
11.6329

>  <SCORE.INTER.VDW>
-14.6809

>  <SCORE.INTER.norm>
-2.41684

>  <SCORE.INTRA>
0.945966

>  <SCORE.INTRA.DIHEDRAL>
1.92977

>  <SCORE.INTRA.DIHEDRAL.0>
1.28093

>  <SCORE.INTRA.POLAR>
0

>  <SCORE.INTRA.POLAR.0>
0

>  <SCORE.INTRA.REPUL>
0

>  <SCORE.INTRA.REPUL.0>
0

>  <SCORE.INTRA.SOLV>
0.109847

>  <SCORE.INTRA.SOLV.lig_0>
-13.629

>  <SCORE.INTRA.VDW>
-0.0738433

>  <SCORE.INTRA.VDW.0>
-0.425397

>  <SCORE.INTRA.norm>
0.0859969

>  <SCORE.RESTR>
0

>  <SCORE.RESTR.CAVITY>
0

>  <SCORE.RESTR.norm>
0

>  <SCORE.SYSTEM>
-19.0408

>  <SCORE.SYSTEM.CONST>
0

>  <SCORE.SYSTEM.DIHEDRAL>
5.88103

>  <SCORE.SYSTEM.POLAR>
-3.2405

>  <SCORE.SYSTEM.SOLV>
0.145369

>  <SCORE.SYSTEM.VDW>
-3.901

>  <SCORE.SYSTEM.norm>
-1.73098

>  <SCORE.heavy>
11

>  <SCORE.norm>
-4.06183

$$$$
P136516744
 OpenBabel12072022113D
libRbt.so/2013.1/901 2013/11/27
 14 14  0  0  0  0  0  0  0  0999 V2000
    6.6824   18.3942    1.6409 C   0  0  0  0  0  0  0  0  0  0  0  0
    6.4074   17.7388    2.9947 C   0  0  1  0  0  0  0  0  0  0  0  0
    4.9811   18.0274    3.4750 C   0  0  0  0  0  0  0  0  0  0  0  0
    4.5775   16.7304    4.1330 C   0  0  0  0  0  0  0  0  0  0  0  0
    5.2580   15.7117    3.2494 C   0  0  0  0  0  0  0  0  0  0  0  0
    6.4969   16.3003    2.8318 O   0  0  0  0  0  0  0  0  0  0  0  0
    7.4487   18.1740    4.0490 C   0  0  0  0  0  0  0  0  0  0  0  0
    6.9240   19.1805    4.9561 N   0  0  0  0  0  0  0  0  0  0  0  0
    6.4080   18.8222    6.1633 C   0  0  0  0  0  0  0  0  0  0  0  0
    5.2229   18.6804    6.4210 O   0  0  0  0  0  0  0  0  0  0  0  0
    7.3732   18.6449    7.0997 N   0  0  0  0  0  0  0  0  0  0  0  0
    7.4131   20.0662    4.9404 H   0  0  0  0  0  0  0  0  0  0  0  0
    7.1436   18.9445    8.0363 H   0  0  0  0  0  0  0  0  0  0  0  0
    7.8221   17.7395    7.0397 H   0  0  0  0  0  0  0  0  0  0  0  0
  2  1  1  6  0  0  0
  2  3  1  0  0  0  0
  2  6  1  0  0  0  0
  2  7  1  0  0  0  0
  3  4  1  0  0  0  0
  4  5  1  0  0  0  0
  5  6  1  0  0  0  0
  7  8  1  0  0  0  0
  8  9  1  0  0  0  0
  8 12  1  0  0  0  0
  9 10  2  0  0  0  0
  9 11  1  0  0  0  0
 11 13  1  0  0  0  0
 11 14  1  0  0  0  0
M  END
>  <CHROM.0>
-55.59463608,54.07147205,-66.46916026,-49.72600680,-61.74154718,-61.14074929
-64.69968290,-61.88471292,-168.98934227

>  <CHROM.1>
102.30164448,96.01719973,-98.56999104,143.08465662,6.17589665,17.85850615
4.30361984,-1.78095513,0.71040154,1.25657665

>  <Name>
P136516744

>  <RI>
3.4169e+07

>  <Rbt.Current_Directory>
/home/fstefaniak/projects/zuza/docking/adenine/4XNR

>  <Rbt.Executable>
rbdock ($Id: //depot/dev/client3/rdock/2013.1/src/exe/rbdock.cxx#4 $)

>  <Rbt.Library>
libRbt.so (2013.1, Build901 2013/11/27)

>  <Rbt.Parameter_File>
/home/fstefaniak/progs/rDock//data/scripts/dock_solv.prm

>  <Rbt.Receptor>
4xnr.prm

>  <SCORE>
-44.5111

>  <SCORE.INTER>
-27.8827

>  <SCORE.INTER.CONST>
1

>  <SCORE.INTER.POLAR>
-3.79461

>  <SCORE.INTER.ROT>
4

>  <SCORE.INTER.SOLV>
13.5994

>  <SCORE.INTER.VDW>
-16.7395

>  <SCORE.INTER.norm>
-2.53479

>  <SCORE.INTRA>
3.32731

>  <SCORE.INTRA.DIHEDRAL>
5.4689

>  <SCORE.INTRA.DIHEDRAL.0>
1.28093

>  <SCORE.INTRA.POLAR>
0

>  <SCORE.INTRA.POLAR.0>
0

>  <SCORE.INTRA.REPUL>
0

>  <SCORE.INTRA.REPUL.0>
0

>  <SCORE.INTRA.SOLV>
0.914601

>  <SCORE.INTRA.SOLV.lig_0>
-13.629

>  <SCORE.INTRA.VDW>
0.135562

>  <SCORE.INTRA.VDW.0>
-0.425397

>  <SCORE.INTRA.norm>
0.302483

>  <SCORE.RESTR>
0

>  <SCORE.RESTR.CAVITY>
0

>  <SCORE.RESTR.norm>
0

>  <SCORE.SYSTEM>
-19.9557

>  <SCORE.SYSTEM.CONST>
0

>  <SCORE.SYSTEM.DIHEDRAL>
3.75108

>  <SCORE.SYSTEM.POLAR>
-2.95818

>  <SCORE.SYSTEM.SOLV>
0.385525

>  <SCORE.SYSTEM.VDW>
-4.82205

>  <SCORE.SYSTEM.norm>
-1.81415

>  <SCORE.heavy>
11

>  <SCORE.norm>
-4.04646

$$$$
P136543364
 OpenBabel12072022113D
libRbt.so/2013.1/901 2013/11/27
 15 16  0  0  0  0  0  0  0  0999 V2000
    3.1531   14.6819    3.6205 C   0  0  0  0  0  0  0  0  0  0  0  0
    4.6667   14.6598    3.7686 C   0  0  0  0  0  0  0  0  0  0  0  0
    5.2715   16.0087    3.5944 C   0  0  0  0  0  0  0  0  0  0  0  0
    5.5470   16.9816    4.5769 C   0  0  0  0  0  0  0  0  0  0  0  0
    6.1164   18.0405    3.9120 C   0  0  0  0  0  0  0  0  0  0  0  0
    6.1441   17.6751    2.5947 N   0  0  0  0  0  0  0  0  0  0  0  0
    5.6429   16.4341    2.3730 N   0  0  0  0  0  0  0  0  0  0  0  0
    6.6269   18.4456    1.4775 C   0  0  0  0  0  0  0  0  0  0  0  0
    6.5539   19.2110    4.4561 N   0  0  0  0  0  0  0  0  0  0  0  0
    6.6196   19.2012    5.9388 C   0  0  1  0  0  0  0  0  0  0  0  0
    5.4800   18.3196    6.5654 C   0  0  0  0  0  0  0  0  0  0  0  0
    5.3615   16.9950    5.9217 N   0  0  0  0  0  0  0  0  0  0  0  0
    8.0040   18.7317    6.3890 C   0  0  0  0  0  0  0  0  0  0  0  0
    7.2735   19.7577    3.9931 H   0  0  0  0  0  0  0  0  0  0  0  0
    4.6750   16.3733    6.3359 H   0  0  0  0  0  0  0  0  0  0  0  0
  1  2  1  0  0  0  0
  2  3  1  0  0  0  0
  3  4  1  0  0  0  0
  3  7  2  0  0  0  0
  4  5  2  0  0  0  0
  4 12  1  0  0  0  0
  5  6  1  0  0  0  0
  5  9  1  0  0  0  0
  6  7  1  0  0  0  0
  6  8  1  0  0  0  0
  9 10  1  0  0  0  0
  9 14  1  0  0  0  0
 10 11  1  0  0  0  0
 10 13  1  6  0  0  0
 11 12  1  0  0  0  0
 12 15  1  0  0  0  0
M  END
>  <CHROM.0>
-60.52226379,54.36233505,-66.48478163,-46.86446311,-59.33690188,-62.76697217
-67.48533517,-60.15758719,-167.75461935

>  <CHROM.1>
91.23540121,5.78813867,17.34511001,4.24658632,2.51427530,-0.92235609,-1.68635518

>  <Name>
P136543364

>  <RI>
4.17015e+07

>  <Rbt.Current_Directory>
/home/fstefaniak/projects/zuza/docking/adenine/4XNR

>  <Rbt.Executable>
rbdock ($Id: //depot/dev/client3/rdock/2013.1/src/exe/rbdock.cxx#4 $)

>  <Rbt.Library>
libRbt.so (2013.1, Build901 2013/11/27)

>  <Rbt.Parameter_File>
/home/fstefaniak/progs/rDock//data/scripts/dock_solv.prm

>  <Rbt.Receptor>
4xnr.prm

>  <SCORE>
-32.6656

>  <SCORE.INTER>
-12.5301

>  <SCORE.INTER.CONST>
1

>  <SCORE.INTER.POLAR>
-1.45742

>  <SCORE.INTER.ROT>
1

>  <SCORE.INTER.SOLV>
14.1582

>  <SCORE.INTER.VDW>
-12.4814

>  <SCORE.INTER.norm>
-0.963851

>  <SCORE.INTRA>
-0.0333382

>  <SCORE.INTRA.DIHEDRAL>
-0.0704371

>  <SCORE.INTRA.DIHEDRAL.0>
1.34761

>  <SCORE.INTRA.POLAR>
0

>  <SCORE.INTRA.POLAR.0>
0

>  <SCORE.INTRA.REPUL>
0

>  <SCORE.INTRA.REPUL.0>
0

>  <SCORE.INTRA.SOLV>
-0.00230989

>  <SCORE.INTRA.SOLV.lig_0>
-11.4937

>  <SCORE.INTRA.VDW>
0.00303534

>  <SCORE.INTRA.VDW.0>
-0.450218

>  <SCORE.INTRA.norm>
-0.00256447

>  <SCORE.RESTR>
0

>  <SCORE.RESTR.CAVITY>
0

>  <SCORE.RESTR.norm>
0

>  <SCORE.SYSTEM>
-20.1022

>  <SCORE.SYSTEM.CONST>
0

>  <SCORE.SYSTEM.DIHEDRAL>
4.22653

>  <SCORE.SYSTEM.POLAR>
-2.98871

>  <SCORE.SYSTEM.SOLV>
0.377147

>  <SCORE.SYSTEM.VDW>
-4.97368

>  <SCORE.SYSTEM.norm>
-1.54633

>  <SCORE.heavy>
13

>  <SCORE.norm>
-2.51274

$$$$
P136543364
 OpenBabel12072022113D
libRbt.so/2013.1/901 2013/11/27
 15 16  0  0  0  0  0  0  0  0999 V2000
    3.1340   14.7150    3.6041 C   0  0  0  0  0  0  0  0  0  0  0  0
    4.6419   14.6842    3.8009 C   0  0  0  0  0  0  0  0  0  0  0  0
    5.2627   16.0253    3.6229 C   0  0  0  0  0  0  0  0  0  0  0  0
    5.5503   16.9973    4.6028 C   0  0  0  0  0  0  0  0  0  0  0  0
    6.1320   18.0476    3.9350 C   0  0  0  0  0  0  0  0  0  0  0  0
    6.1547   17.6786    2.6186 N   0  0  0  0  0  0  0  0  0  0  0  0
    5.6386   16.4431    2.4004 N   0  0  0  0  0  0  0  0  0  0  0  0
    6.6462   18.4403    1.4992 C   0  0  0  0  0  0  0  0  0  0  0  0
    6.5839   19.2142    4.4758 N   0  0  0  0  0  0  0  0  0  0  0  0
    6.6502   19.2074    5.9585 C   0  0  1  0  0  0  0  0  0  0  0  0
    5.5004   18.3411    6.5879 C   0  0  0  0  0  0  0  0  0  0  0  0
    5.3657   17.0164    5.9477 N   0  0  0  0  0  0  0  0  0  0  0  0
    8.0291   18.7224    6.4093 C   0  0  0  0  0  0  0  0  0  0  0  0
    7.3097   19.7510    4.0111 H   0  0  0  0  0  0  0  0  0  0  0  0
    4.6720   16.4040    6.3638 H   0  0  0  0  0  0  0  0  0  0  0  0
  1  2  1  0  0  0  0
  2  3  1  0  0  0  0
  3  4  1  0  0  0  0
  3  7  2  0  0  0  0
  4  5  2  0  0  0  0
  4 12  1  0  0  0  0
  5  6  1  0  0  0  0
  5  9  1  0  0  0  0
  6  7  1  0  0  0  0
  6  8  1  0  0  0  0
  9 10  1  0  0  0  0
  9 14  1  0  0  0  0
 10 11  1  0  0  0  0
 10 13  1  6  0  0  0
 11 12  1  0  0  0  0
 12 15  1  0  0  0  0
M  END
>  <CHROM.0>
-59.10223179,53.34911198,-66.45196027,-47.78874612,-59.98596822,-64.25277833
-66.40887400,-59.81216042,-167.77008544

>  <CHROM.1>
93.29444858,5.79610718,17.35631232,4.26736817,2.51402216,-0.91148076,-1.68468250

>  <Name>
P136543364

>  <RI>
4.17015e+07

>  <Rbt.Current_Directory>
/home/fstefaniak/projects/zuza/docking/adenine/4XNR

>  <Rbt.Executable>
rbdock ($Id: //depot/dev/client3/rdock/2013.1/src/exe/rbdock.cxx#4 $)

>  <Rbt.Library>
libRbt.so (2013.1, Build901 2013/11/27)

>  <Rbt.Parameter_File>
/home/fstefaniak/progs/rDock//data/scripts/dock_solv.prm

>  <Rbt.Receptor>
4xnr.prm

>  <SCORE>
-32.6635

>  <SCORE.INTER>
-12.48

>  <SCORE.INTER.CONST>
1

>  <SCORE.INTER.POLAR>
-1.45405

>  <SCORE.INTER.ROT>
1

>  <SCORE.INTER.SOLV>
14.1466

>  <SCORE.INTER.VDW>
-12.4554

>  <SCORE.INTER.norm>
-0.960001

>  <SCORE.INTRA>
-0.100629

>  <SCORE.INTRA.DIHEDRAL>
-0.214668

>  <SCORE.INTRA.DIHEDRAL.0>
1.34761

>  <SCORE.INTRA.POLAR>
0

>  <SCORE.INTRA.POLAR.0>
0

>  <SCORE.INTRA.REPUL>
0

>  <SCORE.INTRA.REPUL.0>
0

>  <SCORE.INTRA.SOLV>
-0.00701437

>  <SCORE.INTRA.SOLV.lig_0>
-11.4937

>  <SCORE.INTRA.VDW>
0.0102123

>  <SCORE.INTRA.VDW.0>
-0.450218

>  <SCORE.INTRA.norm>
-0.00774069

>  <SCORE.RESTR>
0

>  <SCORE.RESTR.CAVITY>
0

>  <SCORE.RESTR.norm>
0

>  <SCORE.SYSTEM>
-20.0828

>  <SCORE.SYSTEM.CONST>
0

>  <SCORE.SYSTEM.DIHEDRAL>
4.15833

>  <SCORE.SYSTEM.POLAR>
-2.98451

>  <SCORE.SYSTEM.SOLV>
0.38064

>  <SCORE.SYSTEM.VDW>
-4.95319

>  <SCORE.SYSTEM.norm>
-1.54483

>  <SCORE.heavy>
13

>  <SCORE.norm>
-2.51258

$$$$
P136543364
 OpenBabel12072022113D
libRbt.so/2013.1/901 2013/11/27
 15 16  0  0  0  0  0  0  0  0999 V2000
    3.0685   14.7371    3.6030 C   0  0  0  0  0  0  0  0  0  0  0  0
    4.5493   14.7214    3.9500 C   0  0  0  0  0  0  0  0  0  0  0  0
    5.1933   16.0467    3.7396 C   0  0  0  0  0  0  0  0  0  0  0  0
    5.5290   17.0228    4.6999 C   0  0  0  0  0  0  0  0  0  0  0  0
    6.1140   18.0530    4.0043 C   0  0  0  0  0  0  0  0  0  0  0  0
    6.0917   17.6694    2.6920 N   0  0  0  0  0  0  0  0  0  0  0  0
    5.5435   16.4431    2.5023 N   0  0  0  0  0  0  0  0  0  0  0  0
    6.5677   18.4083    1.5507 C   0  0  0  0  0  0  0  0  0  0  0  0
    6.6056   19.2153    4.5190 N   0  0  0  0  0  0  0  0  0  0  0  0
    6.7134   19.2231    5.9992 C   0  0  1  0  0  0  0  0  0  0  0  0
    5.5635   18.3887    6.6702 C   0  0  0  0  0  0  0  0  0  0  0  0
    5.3827   17.0604    6.0491 N   0  0  0  0  0  0  0  0  0  0  0  0
    8.0937   18.7133    6.4169 C   0  0  0  0  0  0  0  0  0  0  0  0
    7.3294   19.7313    4.0282 H   0  0  0  0  0  0  0  0  0  0  0  0
    4.6880   16.4677    6.4913 H   0  0  0  0  0  0  0  0  0  0  0  0
  1  2  1  0  0  0  0
  2  3  1  0  0  0  0
  3  4  1  0  0  0  0
  3  7  2  0  0  0  0
  4  5  2  0  0  0  0
  4 12  1  0  0  0  0
  5  6  1  0  0  0  0
  5  9  1  0  0  0  0
  6  7  1  0  0  0  0
  6  8  1  0  0  0  0
  9 10  1  0  0  0  0
  9 14  1  0  0  0  0
 10 11  1  0  0  0  0
 10 13  1  6  0  0  0
 11 12  1  0  0  0  0
 12 15  1  0  0  0  0
M  END
>  <CHROM.0>
-57.12358363,56.73419878,-64.52062511,-44.32626770,-173.61227908,-61.71199713
-66.75232334,-59.31610620,-168.14544933

>  <CHROM.1>
101.42960543,5.77543770,17.36897752,4.33767708,2.54938337,-0.89843090,-1.65061642

>  <Name>
P136543364

>  <RI>
4.17015e+07

>  <Rbt.Current_Directory>
/home/fstefaniak/projects/zuza/docking/adenine/4XNR

>  <Rbt.Executable>
rbdock ($Id: //depot/dev/client3/rdock/2013.1/src/exe/rbdock.cxx#4 $)

>  <Rbt.Library>
libRbt.so (2013.1, Build901 2013/11/27)

>  <Rbt.Parameter_File>
/home/fstefaniak/progs/rDock//data/scripts/dock_solv.prm

>  <Rbt.Receptor>
4xnr.prm

>  <SCORE>
-32.4238

>  <SCORE.INTER>
-12.0578

>  <SCORE.INTER.CONST>
1

>  <SCORE.INTER.POLAR>
-1.4551

>  <SCORE.INTER.ROT>
1

>  <SCORE.INTER.SOLV>
14.0851

>  <SCORE.INTER.VDW>
-12.1499

>  <SCORE.INTER.norm>
-0.927527

>  <SCORE.INTRA>
-0.333908

>  <SCORE.INTRA.DIHEDRAL>
-0.744723

>  <SCORE.INTRA.DIHEDRAL.0>
1.34761

>  <SCORE.INTRA.POLAR>
0

>  <SCORE.INTRA.POLAR.0>
0

>  <SCORE.INTRA.REPUL>
0

>  <SCORE.INTRA.REPUL.0>
0

>  <SCORE.INTRA.SOLV>
-0.0248474

>  <SCORE.INTRA.SOLV.lig_0>
-11.4937

>  <SCORE.INTRA.VDW>
0.050877

>  <SCORE.INTRA.VDW.0>
-0.450218

>  <SCORE.INTRA.norm>
-0.0256853

>  <SCORE.RESTR>
0

>  <SCORE.RESTR.CAVITY>
0

>  <SCORE.RESTR.norm>
0

>  <SCORE.SYSTEM>
-20.0321

>  <SCORE.SYSTEM.CONST>
0

>  <SCORE.SYSTEM.DIHEDRAL>
4.45902

>  <SCORE.SYSTEM.POLAR>
-3.0436

>  <SCORE.SYSTEM.SOLV>
0.212336

>  <SCORE.SYSTEM.VDW>
-4.7665

>  <SCORE.SYSTEM.norm>
-1.54093

>  <SCORE.heavy>
13

>  <SCORE.norm>
-2.49414

$$$$
P136543504
 OpenBabel12072022113D
libRbt.so/2013.1/901 2013/11/27
 15 16  0  0  0  0  0  0  0  0999 V2000
    0.3441   17.1685    3.9768 C   0  0  0  0  0  0  0  0  0  0  0  0
    1.5593   16.3396    3.8032 C   0  0  0  0  0  0  0  0  0  0  0  0
    1.6706   14.9285    3.8284 C   0  0  0  0  0  0  0  0  0  0  0  0
    3.0092   14.6524    3.6459 C   0  0  0  0  0  0  0  0  0  0  0  0
    3.5961   15.8795    3.4414 N   0  0  0  0  0  0  0  0  0  0  0  0
    2.7432   16.9211    3.5617 N   0  0  0  0  0  0  0  0  0  0  0  0
    4.9854   16.1422    3.1578 C   0  0  0  0  0  0  0  0  0  0  0  0
    3.6962   13.4679    3.6559 N   0  0  0  0  0  0  0  0  0  0  0  0
    3.1984   12.3739    4.5033 C   0  0  2  0  0  0  0  0  0  0  0  0
    1.8372   11.7995    4.0803 C   0  0  0  0  0  0  0  0  0  0  0  0
    0.8716   12.7151    3.3368 C   0  0  0  0  0  0  0  0  0  0  0  0
    0.6850   14.0050    3.9908 N   0  0  0  0  0  0  0  0  0  0  0  0
    3.2423   12.7591    5.9865 C   0  0  0  0  0  0  0  0  0  0  0  0
    4.7123   13.5110    3.6602 H   0  0  0  0  0  0  0  0  0  0  0  0
   -0.2729   14.3395    3.9313 H   0  0  0  0  0  0  0  0  0  0  0  0
  1  2  1  0  0  0  0
  2  3  1  0  0  0  0
  2  6  2  0  0  0  0
  3  4  2  0  0  0  0
  3 12  1  0  0  0  0
  4  5  1  0  0  0  0
  4  8  1  0  0  0  0
  5  6  1  0  0  0  0
  5  7  1  0  0  0  0
  8  9  1  0  0  0  0
  8 14  1  0  0  0  0
  9 10  1  0  0  0  0
  9 13  1  1  0  0  0
 10 11  1  0  0  0  0
 11 12  1  0  0  0  0
 12 15  1  0  0  0  0
M  END
>  <CHROM.0>
-59.76799054,50.37565358,-66.35181201,-46.56003329,-176.10515030,-63.14255884
-65.97323980,-60.85940678,-168.21621728

>  <CHROM.1>
2.43037806,14.54325783,3.92915723,1.56169150,0.01674048,-0.19672856

>  <Name>
P136543504

>  <RI>
4.17015e+07

>  <Rbt.Current_Directory>
/home/fstefaniak/projects/zuza/docking/adenine/4XNR

>  <Rbt.Executable>
rbdock ($Id: //depot/dev/client3/rdock/2013.1/src/exe/rbdock.cxx#4 $)

>  <Rbt.Library>
libRbt.so (2013.1, Build901 2013/11/27)

>  <Rbt.Parameter_File>
/home/fstefaniak/progs/rDock//data/scripts/dock_solv.prm

>  <Rbt.Receptor>
4xnr.prm

>  <SCORE>
-37.9432

>  <SCORE.INTER>
-18.0188

>  <SCORE.INTER.CONST>
1

>  <SCORE.INTER.POLAR>
-0.947188

>  <SCORE.INTER.ROT>
0

>  <SCORE.INTER.SOLV>
9.10871

>  <SCORE.INTER.VDW>
-15.4915

>  <SCORE.INTER.norm>
-1.38606

>  <SCORE.INTRA>
0

>  <SCORE.INTRA.DIHEDRAL>
0

>  <SCORE.INTRA.DIHEDRAL.0>
0

>  <SCORE.INTRA.POLAR>
0

>  <SCORE.INTRA.POLAR.0>
0

>  <SCORE.INTRA.REPUL>
0

>  <SCORE.INTRA.REPUL.0>
0

>  <SCORE.INTRA.SOLV>
0

>  <SCORE.INTRA.SOLV.lig_0>
-11.0941

>  <SCORE.INTRA.VDW>
0

>  <SCORE.INTRA.VDW.0>
0

>  <SCORE.INTRA.norm>
0

>  <SCORE.RESTR>
0.205058

>  <SCORE.RESTR.CAVITY>
0.205058

>  <SCORE.RESTR.norm>
0.0157737

>  <SCORE.SYSTEM>
-20.1295

>  <SCORE.SYSTEM.CONST>
0

>  <SCORE.SYSTEM.DIHEDRAL>
4.4807

>  <SCORE.SYSTEM.POLAR>
-3.01894

>  <SCORE.SYSTEM.SOLV>
0.22011

>  <SCORE.SYSTEM.VDW>
-4.92347

>  <SCORE.SYSTEM.norm>
-1.54842

>  <SCORE.heavy>
13

>  <SCORE.norm>
-2.91871

$$$$
P136543504
 OpenBabel12072022113D
libRbt.so/2013.1/901 2013/11/27
 15 16  0  0  0  0  0  0  0  0999 V2000
    5.0274   16.0361    3.1929 C   0  0  0  0  0  0  0  0  0  0  0  0
    3.5911   15.8188    3.4822 C   0  0  0  0  0  0  0  0  0  0  0  0
    2.9332   14.6065    3.8011 C   0  0  0  0  0  0  0  0  0  0  0  0
    1.6011   14.9288    3.9529 C   0  0  0  0  0  0  0  0  0  0  0  0
    1.5514   16.2954    3.8045 N   0  0  0  0  0  0  0  0  0  0  0  0
    2.7403   16.8553    3.4885 N   0  0  0  0  0  0  0  0  0  0  0  0
    0.3880   17.1403    3.9164 C   0  0  0  0  0  0  0  0  0  0  0  0
    0.5038   14.1446    4.1901 N   0  0  0  0  0  0  0  0  0  0  0  0
    0.5014   12.7660    3.6781 C   0  0  2  0  0  0  0  0  0  0  0  0
    1.5411   11.8370    4.3244 C   0  0  0  0  0  0  0  0  0  0  0  0
    2.8144   12.4626    4.8820 C   0  0  0  0  0  0  0  0  0  0  0  0
    3.4700   13.3645    3.9425 N   0  0  0  0  0  0  0  0  0  0  0  0
    0.5605   12.7446    2.1463 C   0  0  0  0  0  0  0  0  0  0  0  0
   -0.4130   14.5765    4.1044 H   0  0  0  0  0  0  0  0  0  0  0  0
    4.4837   13.3037    3.9834 H   0  0  0  0  0  0  0  0  0  0  0  0
  1  2  1  0  0  0  0
  2  3  1  0  0  0  0
  2  6  2  0  0  0  0
  3  4  2  0  0  0  0
  3 12  1  0  0  0  0
  4  5  1  0  0  0  0
  4  8  1  0  0  0  0
  5  6  1  0  0  0  0
  5  7  1  0  0  0  0
  8  9  1  0  0  0  0
  8 14  1  0  0  0  0
  9 10  1  0  0  0  0
  9 13  1  6  0  0  0
 10 11  1  0  0  0  0
 11 12  1  0  0  0  0
 12 15  1  0  0  0  0
M  END
>  <CHROM.0>
-57.13051752,54.37210930,-68.18351029,-45.49767053,-60.55647254,-65.02586854
-66.56745785,61.75497004,-167.31266441

>  <CHROM.1>
2.08005480,14.53488243,3.74667796,-1.17651267,0.02710297,3.07009997

>  <Name>
P136543504

>  <RI>
4.17015e+07

>  <Rbt.Current_Directory>
/home/fstefaniak/projects/zuza/docking/adenine/4XNR

>  <Rbt.Executable>
rbdock ($Id: //depot/dev/client3/rdock/2013.1/src/exe/rbdock.cxx#4 $)

>  <Rbt.Library>
libRbt.so (2013.1, Build901 2013/11/27)

>  <Rbt.Parameter_File>
/home/fstefaniak/progs/rDock//data/scripts/dock_solv.prm

>  <Rbt.Receptor>
4xnr.prm

>  <SCORE>
-36.9004

>  <SCORE.INTER>
-18.0641

>  <SCORE.INTER.CONST>
1

>  <SCORE.INTER.POLAR>
-1.00215

>  <SCORE.INTER.ROT>
0

>  <SCORE.INTER.SOLV>
9.40775

>  <SCORE.INTER.VDW>
-15.4381

>  <SCORE.INTER.norm>
-1.38954

>  <SCORE.INTRA>
0

>  <SCORE.INTRA.DIHEDRAL>
0

>  <SCORE.INTRA.DIHEDRAL.0>
0

>  <SCORE.INTRA.POLAR>
0

>  <SCORE.INTRA.POLAR.0>
0

>  <SCORE.INTRA.REPUL>
0

>  <SCORE.INTRA.REPUL.0>
0

>  <SCORE.INTRA.SOLV>
0

>  <SCORE.INTRA.SOLV.lig_0>
-11.0941

>  <SCORE.INTRA.VDW>
0

>  <SCORE.INTRA.VDW.0>
0

>  <SCORE.INTRA.norm>
0

>  <SCORE.RESTR>
0.193419

>  <SCORE.RESTR.CAVITY>
0.193419

>  <SCORE.RESTR.norm>
0.0148784

>  <SCORE.SYSTEM>
-19.0298

>  <SCORE.SYSTEM.CONST>
0

>  <SCORE.SYSTEM.DIHEDRAL>
4.62089

>  <SCORE.SYSTEM.POLAR>
-3.02943

>  <SCORE.SYSTEM.SOLV>
0.204567

>  <SCORE.SYSTEM.VDW>
-4.19688

>  <SCORE.SYSTEM.norm>
-1.46383

>  <SCORE.heavy>
13

>  <SCORE.norm>
-2.83849

$$$$
P136543504
 OpenBabel12072022113D
libRbt.so/2013.1/901 2013/11/27
 15 16  0  0  0  0  0  0  0  0999 V2000
    5.0155   16.0646    3.1783 C   0  0  0  0  0  0  0  0  0  0  0  0
    3.5822   15.8404    3.4771 C   0  0  0  0  0  0  0  0  0  0  0  0
    2.9322   14.6249    3.8000 C   0  0  0  0  0  0  0  0  0  0  0  0
    1.5996   14.9408    3.9607 C   0  0  0  0  0  0  0  0  0  0  0  0
    1.5424   16.3071    3.8130 N   0  0  0  0  0  0  0  0  0  0  0  0
    2.7265   16.8728    3.4893 N   0  0  0  0  0  0  0  0  0  0  0  0
    0.3758   17.1464    3.9329 C   0  0  0  0  0  0  0  0  0  0  0  0
    0.5077   14.1513    4.2049 N   0  0  0  0  0  0  0  0  0  0  0  0
    0.5086   12.7727    3.6926 C   0  0  2  0  0  0  0  0  0  0  0  0
    1.5570   11.8486    4.3317 C   0  0  0  0  0  0  0  0  0  0  0  0
    2.8309   12.4801    4.8811 C   0  0  0  0  0  0  0  0  0  0  0  0
    3.4759   13.3854    3.9374 N   0  0  0  0  0  0  0  0  0  0  0  0
    0.5577   12.7520    2.1604 C   0  0  0  0  0  0  0  0  0  0  0  0
   -0.4117   14.5787    4.1255 H   0  0  0  0  0  0  0  0  0  0  0  0
    4.4902   13.3295    3.9716 H   0  0  0  0  0  0  0  0  0  0  0  0
  1  2  1  0  0  0  0
  2  3  1  0  0  0  0
  2  6  2  0  0  0  0
  3  4  2  0  0  0  0
  3 12  1  0  0  0  0
  4  5  1  0  0  0  0
  4  8  1  0  0  0  0
  5  6  1  0  0  0  0
  5  7  1  0  0  0  0
  8  9  1  0  0  0  0
  8 14  1  0  0  0  0
  9 10  1  0  0  0  0
  9 13  1  6  0  0  0
 10 11  1  0  0  0  0
 11 12  1  0  0  0  0
 12 15  1  0  0  0  0
M  END
>  <CHROM.0>
-57.85754054,51.55691840,-66.98913876,-47.24958197,-175.71172845,57.54039982
-69.16433997,-60.74045094,-168.25212960

>  <CHROM.1>
2.07914022,14.54917559,3.75119707,-1.18177493,0.02082812,3.07050630

>  <Name>
P136543504

>  <RI>
4.17015e+07

>  <Rbt.Current_Directory>
/home/fstefaniak/projects/zuza/docking/adenine/4XNR

>  <Rbt.Executable>
rbdock ($Id: //depot/dev/client3/rdock/2013.1/src/exe/rbdock.cxx#4 $)

>  <Rbt.Library>
libRbt.so (2013.1, Build901 2013/11/27)

>  <Rbt.Parameter_File>
/home/fstefaniak/progs/rDock//data/scripts/dock_solv.prm

>  <Rbt.Receptor>
4xnr.prm

>  <SCORE>
-36.8558

>  <SCORE.INTER>
-17.9646

>  <SCORE.INTER.CONST>
1

>  <SCORE.INTER.POLAR>
-1.00041

>  <SCORE.INTER.ROT>
0

>  <SCORE.INTER.SOLV>
9.4532

>  <SCORE.INTER.VDW>
-15.3928

>  <SCORE.INTER.norm>
-1.38189

>  <SCORE.INTRA>
0

>  <SCORE.INTRA.DIHEDRAL>
0

>  <SCORE.INTRA.DIHEDRAL.0>
0

>  <SCORE.INTRA.POLAR>
0

>  <SCORE.INTRA.POLAR.0>
0

>  <SCORE.INTRA.REPUL>
0

>  <SCORE.INTRA.REPUL.0>
0

>  <SCORE.INTRA.SOLV>
0

>  <SCORE.INTRA.SOLV.lig_0>
-11.0941

>  <SCORE.INTRA.VDW>
0

>  <SCORE.INTRA.VDW.0>
0

>  <SCORE.INTRA.norm>
0

>  <SCORE.RESTR>
0.174126

>  <SCORE.RESTR.CAVITY>
0.174126

>  <SCORE.RESTR.norm>
0.0133943

>  <SCORE.SYSTEM>
-19.0654

>  <SCORE.SYSTEM.CONST>
0

>  <SCORE.SYSTEM.DIHEDRAL>
4.56791

>  <SCORE.SYSTEM.POLAR>
-3.01243

>  <SCORE.SYSTEM.SOLV>
0.0844353

>  <SCORE.SYSTEM.VDW>
-4.21962

>  <SCORE.SYSTEM.norm>
-1.46657

>  <SCORE.heavy>
13

>  <SCORE.norm>
-2.83506

$$$$
P136606442
 OpenBabel12072022113D
libRbt.so/2013.1/901 2013/11/27
 19 19  0  0  0  0  0  0  0  0999 V2000
    7.3167   18.1284    3.6313 C   0  0  0  0  0  0  0  0  0  0  0  0
    6.2514   18.3262    4.7097 C   0  0  0  0  0  0  0  0  0  0  0  0
    4.9036   18.0688    4.0368 C   0  0  0  0  0  0  0  0  0  0  0  0
    5.2324   17.2302    2.8038 C   0  0  0  0  0  0  0  0  0  0  0  0
    6.5610   17.8194    2.3429 C   0  0  0  0  0  0  0  0  0  0  0  0
    5.3626   15.8148    3.1340 N   0  0  0  0  0  0  0  0  0  0  0  0
    4.2965   15.0835    3.5610 C   0  0  0  0  0  0  0  0  0  0  0  0
    4.2367   13.8591    3.5915 O   0  0  0  0  0  0  0  0  0  0  0  0
    3.2548   15.8756    3.9748 N   0  0  0  0  0  0  0  0  0  0  0  0
    1.8897   15.4824    3.6593 C   0  0  0  0  0  0  0  0  0  0  0  0
    0.9657   16.6274    3.9856 C   0  0  0  0  0  0  0  0  0  0  0  0
    0.2706   16.5902    5.1059 N   0  3  0  0  0  0  0  0  0  0  0  0
   -0.3616   17.3381    5.3628 H   0  0  0  0  0  0  0  0  0  0  0  0
    0.3597   15.8183    5.7583 H   0  0  0  0  0  0  0  0  0  0  0  0
    0.8639   17.6307    3.1400 N   0  0  0  0  0  0  0  0  0  0  0  0
    6.2834   15.4940    3.3996 H   0  0  0  0  0  0  0  0  0  0  0  0
    3.4015   16.2520    4.9036 H   0  0  0  0  0  0  0  0  0  0  0  0
    1.4914   17.6456    2.3223 H   0  0  0  0  0  0  0  0  0  0  0  0
    0.2789   18.4409    3.2785 H   0  0  0  0  0  0  0  0  0  0  0  0
  1  2  1  0  0  0  0
  1  5  1  0  0  0  0
  2  3  1  0  0  0  0
  3  4  1  0  0  0  0
  4  5  1  0  0  0  0
  4  6  1  0  0  0  0
  6  7  1  0  0  0  0
  6 16  1  0  0  0  0
  7  8  2  0  0  0  0
  7  9  1  0  0  0  0
  9 10  1  0  0  0  0
  9 17  1  0  0  0  0
 10 11  1  0  0  0  0
 11 12  2  0  0  0  0
 11 15  1  0  0  0  0
 12 13  1  0  0  0  0
 12 14  1  0  0  0  0
 15 18  1  0  0  0  0
 15 19  1  0  0  0  0
M  CHG  1  12   1
M  END
>  <CHROM.0>
-63.35632470,-59.36954182,-74.48893951,-46.03127699,-54.98533079,-65.96940559
-171.45515190,-62.90133328,-168.17424506

>  <CHROM.1>
66.21616053,163.77730959,140.89326609,-169.41181630,-101.21977362,3.91300674
16.64697740,3.68538297,0.20988701,0.14655958,0.08941375

>  <Name>
P136606442

>  <RI>
3.58524e+07

>  <Rbt.Current_Directory>
/home/fstefaniak/projects/zuza/docking/adenine/4XNR

>  <Rbt.Executable>
rbdock ($Id: //depot/dev/client3/rdock/2013.1/src/exe/rbdock.cxx#4 $)

>  <Rbt.Library>
libRbt.so (2013.1, Build901 2013/11/27)

>  <Rbt.Parameter_File>
/home/fstefaniak/progs/rDock//data/scripts/dock_solv.prm

>  <Rbt.Receptor>
4xnr.prm

>  <SCORE>
-56.2386

>  <SCORE.INTER>
-38.0322

>  <SCORE.INTER.CONST>
1

>  <SCORE.INTER.POLAR>
-5.5725

>  <SCORE.INTER.ROT>
5

>  <SCORE.INTER.SOLV>
25.351

>  <SCORE.INTER.VDW>
-22.1635

>  <SCORE.INTER.norm>
-2.92555

>  <SCORE.INTRA>
2.07784

>  <SCORE.INTRA.DIHEDRAL>
-0.725701

>  <SCORE.INTRA.DIHEDRAL.0>
3.68913

>  <SCORE.INTRA.POLAR>
0.747107

>  <SCORE.INTRA.POLAR.0>
-0.749906

>  <SCORE.INTRA.REPUL>
0

>  <SCORE.INTRA.REPUL.0>
0

>  <SCORE.INTRA.SOLV>
-1.56864

>  <SCORE.INTRA.SOLV.lig_0>
-34.6748

>  <SCORE.INTRA.VDW>
0.684843

>  <SCORE.INTRA.VDW.0>
-0.162773

>  <SCORE.INTRA.norm>
0.159834

>  <SCORE.RESTR>
0

>  <SCORE.RESTR.CAVITY>
0

>  <SCORE.RESTR.norm>
0

>  <SCORE.SYSTEM>
-20.2843

>  <SCORE.SYSTEM.CONST>
0

>  <SCORE.SYSTEM.DIHEDRAL>
5.25732

>  <SCORE.SYSTEM.POLAR>
-2.95765

>  <SCORE.SYSTEM.SOLV>
0.211778

>  <SCORE.SYSTEM.VDW>
-5.48702

>  <SCORE.SYSTEM.norm>
-1.56033

>  <SCORE.heavy>
13

>  <SCORE.norm>
-4.32605

$$$$
P136606442
 OpenBabel12072022113D
libRbt.so/2013.1/901 2013/11/27
 19 19  0  0  0  0  0  0  0  0999 V2000
    1.5914   13.8331    4.9117 C   0  0  0  0  0  0  0  0  0  0  0  0
    2.9105   13.0888    5.1191 C   0  0  0  0  0  0  0  0  0  0  0  0
    3.7648   13.3732    3.8842 C   0  0  0  0  0  0  0  0  0  0  0  0
    3.1805   14.6510    3.2864 C   0  0  0  0  0  0  0  0  0  0  0  0
    1.6856   14.4838    3.5354 C   0  0  0  0  0  0  0  0  0  0  0  0
    3.7013   15.8426    3.9481 N   0  0  0  0  0  0  0  0  0  0  0  0
    4.9650   16.2915    3.7127 C   0  0  0  0  0  0  0  0  0  0  0  0
    5.6050   16.1149    2.6817 O   0  0  0  0  0  0  0  0  0  0  0  0
    5.4749   16.9916    4.7774 N   0  0  0  0  0  0  0  0  0  0  0  0
    5.8068   18.3990    4.6134 C   0  0  0  0  0  0  0  0  0  0  0  0
    6.5078   18.8818    5.8571 C   0  0  0  0  0  0  0  0  0  0  0  0
    5.9863   18.6020    7.0357 N   0  3  0  0  0  0  0  0  0  0  0  0
    6.4247   18.9076    7.8957 H   0  0  0  0  0  0  0  0  0  0  0  0
    5.1364   18.0545    7.1216 H   0  0  0  0  0  0  0  0  0  0  0  0
    7.6160   19.5818    5.7382 N   0  0  0  0  0  0  0  0  0  0  0  0
    3.2739   16.0959    4.8283 H   0  0  0  0  0  0  0  0  0  0  0  0
    5.0288   16.7431    5.6520 H   0  0  0  0  0  0  0  0  0  0  0  0
    8.0207   19.6992    4.7975 H   0  0  0  0  0  0  0  0  0  0  0  0
    8.1555   19.9381    6.5127 H   0  0  0  0  0  0  0  0  0  0  0  0
  1  2  1  0  0  0  0
  1  5  1  0  0  0  0
  2  3  1  0  0  0  0
  3  4  1  0  0  0  0
  4  5  1  0  0  0  0
  4  6  1  0  0  0  0
  6  7  1  0  0  0  0
  6 16  1  0  0  0  0
  7  8  2  0  0  0  0
  7  9  1  0  0  0  0
  9 10  1  0  0  0  0
  9 17  1  0  0  0  0
 10 11  1  0  0  0  0
 11 12  2  0  0  0  0
 11 15  1  0  0  0  0
 12 13  1  0  0  0  0
 12 14  1  0  0  0  0
 15 18  1  0  0  0  0
 15 19  1  0  0  0  0
M  CHG  1  12   1
M  END
>  <CHROM.0>
-44.49415382,-64.31660780,-71.56537436,-47.98233788,179.81335745,-64.45521957
-64.61275037,-59.01174082,-168.76009801

>  <CHROM.1>
75.06199099,27.20987100,-116.84029084,-172.67969569,-48.07000888,4.56312340
16.20806951,4.57953183,2.61696331,-0.77854730,-1.94205378

>  <Name>
P136606442

>  <RI>
3.58524e+07

>  <Rbt.Current_Directory>
/home/fstefaniak/projects/zuza/docking/adenine/4XNR

>  <Rbt.Executable>
rbdock ($Id: //depot/dev/client3/rdock/2013.1/src/exe/rbdock.cxx#4 $)

>  <Rbt.Library>
libRbt.so (2013.1, Build901 2013/11/27)

>  <Rbt.Parameter_File>
/home/fstefaniak/progs/rDock//data/scripts/dock_solv.prm

>  <Rbt.Receptor>
4xnr.prm

>  <SCORE>
-55.5626

>  <SCORE.INTER>
-35.6313

>  <SCORE.INTER.CONST>
1

>  <SCORE.INTER.POLAR>
-5.69164

>  <SCORE.INTER.ROT>
5

>  <SCORE.INTER.SOLV>
23.8829

>  <SCORE.INTER.VDW>
-19.6763

>  <SCORE.INTER.norm>
-2.74087

>  <SCORE.INTRA>
0.412884

>  <SCORE.INTRA.DIHEDRAL>
-0.865444

>  <SCORE.INTRA.DIHEDRAL.0>
3.68913

>  <SCORE.INTRA.POLAR>
0.748276

>  <SCORE.INTRA.POLAR.0>
-0.749906

>  <SCORE.INTRA.REPUL>
0

>  <SCORE.INTRA.REPUL.0>
0

>  <SCORE.INTRA.SOLV>
-1.77588

>  <SCORE.INTRA.SOLV.lig_0>
-34.6748

>  <SCORE.INTRA.VDW>
-0.81059

>  <SCORE.INTRA.VDW.0>
-0.162773

>  <SCORE.INTRA.norm>
0.0317603

>  <SCORE.RESTR>
0

>  <SCORE.RESTR.CAVITY>
0

>  <SCORE.RESTR.norm>
0

>  <SCORE.SYSTEM>
-20.3442

>  <SCORE.SYSTEM.CONST>
0

>  <SCORE.SYSTEM.DIHEDRAL>
5.28154

>  <SCORE.SYSTEM.POLAR>
-3.06065

>  <SCORE.SYSTEM.SOLV>
0.120436

>  <SCORE.SYSTEM.VDW>
-5.16131

>  <SCORE.SYSTEM.norm>
-1.56494

>  <SCORE.heavy>
13

>  <SCORE.norm>
-4.27405

$$$$
P136606442
 OpenBabel12072022113D
libRbt.so/2013.1/901 2013/11/27
 19 19  0  0  0  0  0  0  0  0999 V2000
    3.2059   14.8504    3.4638 C   0  0  0  0  0  0  0  0  0  0  0  0
    1.8088   14.3179    3.7823 C   0  0  0  0  0  0  0  0  0  0  0  0
    1.0465   15.4705    4.4350 C   0  0  0  0  0  0  0  0  0  0  0  0
    1.7867   16.7317    3.9954 C   0  0  0  0  0  0  0  0  0  0  0  0
    3.2432   16.2808    3.9921 C   0  0  0  0  0  0  0  0  0  0  0  0
    1.3616   17.1717    2.6707 N   0  0  0  0  0  0  0  0  0  0  0  0
    1.4759   18.4718    2.2829 C   0  0  0  0  0  0  0  0  0  0  0  0
    0.9468   19.4306    2.8346 O   0  0  0  0  0  0  0  0  0  0  0  0
    2.2735   18.6159    1.1753 N   0  0  0  0  0  0  0  0  0  0  0  0
    2.0396   19.7284    0.2667 C   0  0  0  0  0  0  0  0  0  0  0  0
    2.6883   19.4195   -1.0580 C   0  0  0  0  0  0  0  0  0  0  0  0
    1.9401   19.3779   -2.1434 N   0  3  0  0  0  0  0  0  0  0  0  0
    2.3356   19.1736   -3.0527 H   0  0  0  0  0  0  0  0  0  0  0  0
    0.9440   19.5675   -2.1067 H   0  0  0  0  0  0  0  0  0  0  0  0
    3.9828   19.1857   -1.0995 N   0  0  0  0  0  0  0  0  0  0  0  0
    0.6614   16.6080    2.2087 H   0  0  0  0  0  0  0  0  0  0  0  0
    3.2443   18.4012    1.3682 H   0  0  0  0  0  0  0  0  0  0  0  0
    4.5298   19.3129   -0.2351 H   0  0  0  0  0  0  0  0  0  0  0  0
    4.5021   18.9793   -1.9395 H   0  0  0  0  0  0  0  0  0  0  0  0
  1  2  1  0  0  0  0
  1  5  1  0  0  0  0
  2  3  1  0  0  0  0
  3  4  1  0  0  0  0
  4  5  1  0  0  0  0
  4  6  1  0  0  0  0
  6  7  1  0  0  0  0
  6 16  1  0  0  0  0
  7  8  2  0  0  0  0
  7  9  1  0  0  0  0
  9 10  1  0  0  0  0
  9 17  1  0  0  0  0
 10 11  1  0  0  0  0
 11 12  2  0  0  0  0
 11 15  1  0  0  0  0
 12 13  1  0  0  0  0
 12 14  1  0  0  0  0
 15 18  1  0  0  0  0
 15 19  1  0  0  0  0
M  CHG  1  12   1
M  END
>  <CHROM.0>
-62.04162677,-64.76015327,-68.29578775,-45.19571265,-62.18586642,-60.21982039
-71.77420803,-62.04701541,-166.98867825

>  <CHROM.1>
155.03611823,-59.58645132,151.46138147,-160.96474686,120.83580097,2.14719217
17.64869497,1.83712599,-1.70192513,0.84567126,-0.80023419

>  <Name>
P136606442

>  <RI>
3.58524e+07

>  <Rbt.Current_Directory>
/home/fstefaniak/projects/zuza/docking/adenine/4XNR

>  <Rbt.Executable>
rbdock ($Id: //depot/dev/client3/rdock/2013.1/src/exe/rbdock.cxx#4 $)

>  <Rbt.Library>
libRbt.so (2013.1, Build901 2013/11/27)

>  <Rbt.Parameter_File>
/home/fstefaniak/progs/rDock//data/scripts/dock_solv.prm

>  <Rbt.Receptor>
4xnr.prm

>  <SCORE>
-55.5397

>  <SCORE.INTER>
-35.5575

>  <SCORE.INTER.CONST>
1

>  <SCORE.INTER.POLAR>
-5.66965

>  <SCORE.INTER.ROT>
5

>  <SCORE.INTER.SOLV>
26.0764

>  <SCORE.INTER.VDW>
-20.4316

>  <SCORE.INTER.norm>
-2.73519

>  <SCORE.INTRA>
0.855165

>  <SCORE.INTRA.DIHEDRAL>
0.376444

>  <SCORE.INTRA.DIHEDRAL.0>
3.68913

>  <SCORE.INTRA.POLAR>
0.747274

>  <SCORE.INTRA.POLAR.0>
-0.749906

>  <SCORE.INTRA.REPUL>
0

>  <SCORE.INTRA.REPUL.0>
0

>  <SCORE.INTRA.SOLV>
-2.0796

>  <SCORE.INTRA.SOLV.lig_0>
-34.6748

>  <SCORE.INTRA.VDW>
-0.833986

>  <SCORE.INTRA.VDW.0>
-0.162773

>  <SCORE.INTRA.norm>
0.0657819

>  <SCORE.RESTR>
0

>  <SCORE.RESTR.CAVITY>
0

>  <SCORE.RESTR.norm>
0

>  <SCORE.SYSTEM>
-20.8373

>  <SCORE.SYSTEM.CONST>
0

>  <SCORE.SYSTEM.DIHEDRAL>
4.97114

>  <SCORE.SYSTEM.POLAR>
-2.99007

>  <SCORE.SYSTEM.SOLV>
0.26017

>  <SCORE.SYSTEM.VDW>
-5.66844

>  <SCORE.SYSTEM.norm>
-1.60287

>  <SCORE.heavy>
13

>  <SCORE.norm>
-4.27228

$$$$
P136618838
 OpenBabel12072022113D
libRbt.so/2013.1/901 2013/11/27
 17 18  0  0  0  0  0  0  0  0999 V2000
    7.6471   18.5269    4.4752 C   0  0  0  0  0  0  0  0  0  0  0  0
    7.1600   18.6593    5.9183 C   0  0  0  0  0  0  0  0  0  0  0  0
    5.6392   18.7852    5.8468 C   0  0  0  0  0  0  0  0  0  0  0  0
    5.2585   18.1663    4.5033 C   0  0  0  0  0  0  0  0  0  0  0  0
    6.4009   18.6146    3.5981 C   0  0  0  0  0  0  0  0  0  0  0  0
    5.1833   16.7170    4.5785 N   0  0  0  0  0  0  0  0  0  0  0  0
    5.1219   15.9450    3.4536 C   0  0  0  0  0  0  0  0  0  0  0  0
    5.8152   16.1212    2.4580 O   0  0  0  0  0  0  0  0  0  0  0  0
    4.2224   14.9174    3.4991 N   0  0  0  0  0  0  0  0  0  0  0  0
    3.3884   14.5432    4.5974 C   0  0  2  0  0  0  0  0  0  0  0  0
    2.8275   13.1510    4.6897 C   0  0  0  0  0  0  0  0  0  0  0  0
    1.9079   14.3013    4.4080 C   0  0  2  0  0  0  0  0  0  0  0  0
    1.3063   14.4184    3.0770 N   0  0  0  0  0  0  0  0  0  0  0  0
    4.7939   16.3066    5.4127 H   0  0  0  0  0  0  0  0  0  0  0  0
    4.2342   14.3347    2.6704 H   0  0  0  0  0  0  0  0  0  0  0  0
    1.1525   13.5003    2.6615 H   0  0  0  0  0  0  0  0  0  0  0  0
    0.3741   14.8316    3.1465 H   0  0  0  0  0  0  0  0  0  0  0  0
  1  2  1  0  0  0  0
  1  5  1  0  0  0  0
  2  3  1  0  0  0  0
  3  4  1  0  0  0  0
  4  5  1  0  0  0  0
  4  6  1  0  0  0  0
  6  7  1  0  0  0  0
  6 14  1  0  0  0  0
  7  8  2  0  0  0  0
  7  9  1  0  0  0  0
  9 15  1  0  0  0  0
 10 11  1  0  0  0  0
 10  9  1  6  0  0  0
 10 12  1  0  0  0  0
 11 12  1  0  0  0  0
 12 13  1  6  0  0  0
 13 16  1  0  0  0  0
 13 17  1  0  0  0  0
M  END
>  <CHROM.0>
-57.53259798,-63.93220182,-72.78063857,-45.40734320,-176.48290877,60.38240339
-171.31866716,-57.92887794,-168.54442569

>  <CHROM.1>
-166.83373496,43.75397128,-158.19384659,101.56395431,4.74148432,16.35244227
4.20712489,-0.49198335,-0.67191104,-2.07786473

>  <Name>
P136618838

>  <RI>
9.71178e+06

>  <Rbt.Current_Directory>
/home/fstefaniak/projects/zuza/docking/adenine/4XNR

>  <Rbt.Executable>
rbdock ($Id: //depot/dev/client3/rdock/2013.1/src/exe/rbdock.cxx#4 $)

>  <Rbt.Library>
libRbt.so (2013.1, Build901 2013/11/27)

>  <Rbt.Parameter_File>
/home/fstefaniak/progs/rDock//data/scripts/dock_solv.prm

>  <Rbt.Receptor>
4xnr.prm

>  <SCORE>
-56.0593

>  <SCORE.INTER>
-37.8662

>  <SCORE.INTER.CONST>
1

>  <SCORE.INTER.POLAR>
-4.65255

>  <SCORE.INTER.ROT>
4

>  <SCORE.INTER.SOLV>
13.5227

>  <SCORE.INTER.VDW>
-20.5099

>  <SCORE.INTER.norm>
-2.91279

>  <SCORE.INTRA>
1.04587

>  <SCORE.INTRA.DIHEDRAL>
-0.269581

>  <SCORE.INTRA.DIHEDRAL.0>
3.47871

>  <SCORE.INTRA.POLAR>
0

>  <SCORE.INTRA.POLAR.0>
0

>  <SCORE.INTRA.REPUL>
0

>  <SCORE.INTRA.REPUL.0>
0

>  <SCORE.INTRA.SOLV>
-0.778868

>  <SCORE.INTRA.SOLV.lig_0>
-15.5703

>  <SCORE.INTRA.VDW>
1.57009

>  <SCORE.INTRA.VDW.0>
-1.71192

>  <SCORE.INTRA.norm>
0.0804516

>  <SCORE.RESTR>
0

>  <SCORE.RESTR.CAVITY>
0

>  <SCORE.RESTR.norm>
0

>  <SCORE.SYSTEM>
-19.2389

>  <SCORE.SYSTEM.CONST>
0

>  <SCORE.SYSTEM.DIHEDRAL>
4.92646

>  <SCORE.SYSTEM.POLAR>
-2.99462

>  <SCORE.SYSTEM.SOLV>
-0.0648555

>  <SCORE.SYSTEM.VDW>
-4.46442

>  <SCORE.SYSTEM.norm>
-1.47992

>  <SCORE.heavy>
13

>  <SCORE.norm>
-4.31225

$$$$
P136618838
 OpenBabel12072022113D
libRbt.so/2013.1/901 2013/11/27
 17 18  0  0  0  0  0  0  0  0999 V2000
    7.6136   18.5576    4.4445 C   0  0  0  0  0  0  0  0  0  0  0  0
    7.1277   18.7008    5.8870 C   0  0  0  0  0  0  0  0  0  0  0  0
    5.6051   18.8037    5.8175 C   0  0  0  0  0  0  0  0  0  0  0  0
    5.2305   18.1626    4.4827 C   0  0  0  0  0  0  0  0  0  0  0  0
    6.3643   18.6163    3.5693 C   0  0  0  0  0  0  0  0  0  0  0  0
    5.1766   16.7135    4.5760 N   0  0  0  0  0  0  0  0  0  0  0  0
    5.1179   15.9270    3.4611 C   0  0  0  0  0  0  0  0  0  0  0  0
    5.8208   16.0839    2.4691 O   0  0  0  0  0  0  0  0  0  0  0  0
    4.2093   14.9076    3.5129 N   0  0  0  0  0  0  0  0  0  0  0  0
    3.3631   14.5553    4.6090 C   0  0  2  0  0  0  0  0  0  0  0  0
    2.7998   13.1656    4.7219 C   0  0  0  0  0  0  0  0  0  0  0  0
    1.8845   14.3111    4.4084 C   0  0  2  0  0  0  0  0  0  0  0  0
    1.2973   14.4033    3.0690 N   0  0  0  0  0  0  0  0  0  0  0  0
    4.7993   16.3078    5.4181 H   0  0  0  0  0  0  0  0  0  0  0  0
    4.2230   14.3138    2.6921 H   0  0  0  0  0  0  0  0  0  0  0  0
    1.1332   13.4774    2.6755 H   0  0  0  0  0  0  0  0  0  0  0  0
    0.3711   14.8325    3.1189 H   0  0  0  0  0  0  0  0  0  0  0  0
  1  2  1  0  0  0  0
  1  5  1  0  0  0  0
  2  3  1  0  0  0  0
  3  4  1  0  0  0  0
  4  5  1  0  0  0  0
  4  6  1  0  0  0  0
  6  7  1  0  0  0  0
  6 14  1  0  0  0  0
  7  8  2  0  0  0  0
  7  9  1  0  0  0  0
  9 15  1  0  0  0  0
 10 11  1  0  0  0  0
 10  9  1  6  0  0  0
 10 12  1  0  0  0  0
 11 12  1  0  0  0  0
 12 13  1  6  0  0  0
 13 16  1  0  0  0  0
 13 17  1  0  0  0  0
M  END
>  <CHROM.0>
-65.90668416,-62.16875562,-69.41713587,-46.97961254,58.38753498,-63.12900576
-72.60562462,54.03760064,-168.00224872

>  <CHROM.1>
-167.13415064,45.33921650,-157.63869252,102.47356399,4.72133853,16.35508263
4.20155602,-0.50434875,-0.66673646,-2.10423030

>  <Name>
P136618838

>  <RI>
9.71178e+06

>  <Rbt.Current_Directory>
/home/fstefaniak/projects/zuza/docking/adenine/4XNR

>  <Rbt.Executable>
rbdock ($Id: //depot/dev/client3/rdock/2013.1/src/exe/rbdock.cxx#4 $)

>  <Rbt.Library>
libRbt.so (2013.1, Build901 2013/11/27)

>  <Rbt.Parameter_File>
/home/fstefaniak/progs/rDock//data/scripts/dock_solv.prm

>  <Rbt.Receptor>
4xnr.prm

>  <SCORE>
-55.7616

>  <SCORE.INTER>
-37.8577

>  <SCORE.INTER.CONST>
1

>  <SCORE.INTER.POLAR>
-4.64803

>  <SCORE.INTER.ROT>
4

>  <SCORE.INTER.SOLV>
13.5559

>  <SCORE.INTER.VDW>
-20.5303

>  <SCORE.INTER.norm>
-2.91213

>  <SCORE.INTRA>
0.951697

>  <SCORE.INTRA.DIHEDRAL>
-0.280112

>  <SCORE.INTRA.DIHEDRAL.0>
3.47871

>  <SCORE.INTRA.POLAR>
0

>  <SCORE.INTRA.POLAR.0>
0

>  <SCORE.INTRA.REPUL>
0

>  <SCORE.INTRA.REPUL.0>
0

>  <SCORE.INTRA.SOLV>
-0.78407

>  <SCORE.INTRA.SOLV.lig_0>
-15.5703

>  <SCORE.INTRA.VDW>
1.48379

>  <SCORE.INTRA.VDW.0>
-1.71192

>  <SCORE.INTRA.norm>
0.0732075

>  <SCORE.RESTR>
0

>  <SCORE.RESTR.CAVITY>
0

>  <SCORE.RESTR.norm>
0

>  <SCORE.SYSTEM>
-18.8556

>  <SCORE.SYSTEM.CONST>
0

>  <SCORE.SYSTEM.DIHEDRAL>
5.04879

>  <SCORE.SYSTEM.POLAR>
-2.93395

>  <SCORE.SYSTEM.SOLV>
-0.132553

>  <SCORE.SYSTEM.VDW>
-4.42932

>  <SCORE.SYSTEM.norm>
-1.45043

>  <SCORE.heavy>
13

>  <SCORE.norm>
-4.28935

$$$$
P136618838
 OpenBabel12072022113D
libRbt.so/2013.1/901 2013/11/27
 17 18  0  0  0  0  0  0  0  0999 V2000
    7.6772   18.7490    4.7449 C   0  0  0  0  0  0  0  0  0  0  0  0
    7.2321   18.7681    6.2074 C   0  0  0  0  0  0  0  0  0  0  0  0
    5.7085   18.8773    6.1896 C   0  0  0  0  0  0  0  0  0  0  0  0
    5.2950   18.3533    4.8158 C   0  0  0  0  0  0  0  0  0  0  0  0
    6.4042   18.8831    3.9133 C   0  0  0  0  0  0  0  0  0  0  0  0
    5.2395   16.9016    4.7860 N   0  0  0  0  0  0  0  0  0  0  0  0
    5.2370   16.2102    3.6081 C   0  0  0  0  0  0  0  0  0  0  0  0
    6.1706   16.1988    2.8137 O   0  0  0  0  0  0  0  0  0  0  0  0
    4.1019   15.4929    3.3546 N   0  0  0  0  0  0  0  0  0  0  0  0
    2.9573   15.3542    4.1986 C   0  0  2  0  0  0  0  0  0  0  0  0
    1.6782   14.7750    3.6603 C   0  0  0  0  0  0  0  0  0  0  0  0
    1.7392   16.2307    4.0144 C   0  0  2  0  0  0  0  0  0  0  0  0
    1.7020   17.2243    2.9380 N   0  0  0  0  0  0  0  0  0  0  0  0
    4.8223   16.4282    5.5720 H   0  0  0  0  0  0  0  0  0  0  0  0
    4.1492   14.9535    2.4983 H   0  0  0  0  0  0  0  0  0  0  0  0
    0.7926   17.2330    2.4775 H   0  0  0  0  0  0  0  0  0  0  0  0
    1.8075   18.1652    3.3229 H   0  0  0  0  0  0  0  0  0  0  0  0
  1  2  1  0  0  0  0
  1  5  1  0  0  0  0
  2  3  1  0  0  0  0
  3  4  1  0  0  0  0
  4  5  1  0  0  0  0
  4  6  1  0  0  0  0
  6  7  1  0  0  0  0
  6 14  1  0  0  0  0
  7  8  2  0  0  0  0
  7  9  1  0  0  0  0
  9 15  1  0  0  0  0
 10 11  1  0  0  0  0
 10  9  1  6  0  0  0
 10 12  1  0  0  0  0
 11 12  1  0  0  0  0
 12 13  1  6  0  0  0
 13 16  1  0  0  0  0
 13 17  1  0  0  0  0
M  END
>  <CHROM.0>
-171.90535665,-60.36629461,-60.76148751,-44.68038841,-175.30594421,-171.98561742
-68.37700929,-60.36934929,-169.30299894

>  <CHROM.1>
-162.72209947,64.73025671,166.96096682,137.82671983,4.69636563,17.07729692
4.22261400,-0.61642622,-0.11170167,-2.46757142

>  <Name>
P136618838

>  <RI>
9.71178e+06

>  <Rbt.Current_Directory>
/home/fstefaniak/projects/zuza/docking/adenine/4XNR

>  <Rbt.Executable>
rbdock ($Id: //depot/dev/client3/rdock/2013.1/src/exe/rbdock.cxx#4 $)

>  <Rbt.Library>
libRbt.so (2013.1, Build901 2013/11/27)

>  <Rbt.Parameter_File>
/home/fstefaniak/progs/rDock//data/scripts/dock_solv.prm

>  <Rbt.Receptor>
4xnr.prm

>  <SCORE>
-55.4566

>  <SCORE.INTER>
-38.2269

>  <SCORE.INTER.CONST>
1

>  <SCORE.INTER.POLAR>
-4.39632

>  <SCORE.INTER.ROT>
4

>  <SCORE.INTER.SOLV>
13.9352

>  <SCORE.INTER.VDW>
-21.7419

>  <SCORE.INTER.norm>
-2.94053

>  <SCORE.INTRA>
-0.00212886

>  <SCORE.INTRA.DIHEDRAL>
-0.287381

>  <SCORE.INTRA.DIHEDRAL.0>
3.47871

>  <SCORE.INTRA.POLAR>
0

>  <SCORE.INTRA.POLAR.0>
0

>  <SCORE.INTRA.REPUL>
0

>  <SCORE.INTRA.REPUL.0>
0

>  <SCORE.INTRA.SOLV>
-0.403839

>  <SCORE.INTRA.SOLV.lig_0>
-15.5703

>  <SCORE.INTRA.VDW>
0.343481

>  <SCORE.INTRA.VDW.0>
-1.71192

>  <SCORE.INTRA.norm>
-0.000163759

>  <SCORE.RESTR>
0

>  <SCORE.RESTR.CAVITY>
0

>  <SCORE.RESTR.norm>
0

>  <SCORE.SYSTEM>
-17.2276

>  <SCORE.SYSTEM.CONST>
0

>  <SCORE.SYSTEM.DIHEDRAL>
4.71668

>  <SCORE.SYSTEM.POLAR>
-2.40693

>  <SCORE.SYSTEM.SOLV>
-0.0139037

>  <SCORE.SYSTEM.VDW>
-5.02957

>  <SCORE.SYSTEM.norm>
-1.3252

>  <SCORE.heavy>
13

>  <SCORE.norm>
-4.26589

$$$$
P136897612
 OpenBabel12072022113D
libRbt.so/2013.1/901 2013/11/27
 17 17  0  0  0  0  0  0  0  0999 V2000
    4.1849   14.1080    3.9776 C   0  0  0  0  0  0  0  0  0  0  0  0
    2.6724   14.1781    3.7387 C   0  0  0  0  0  0  0  0  0  0  0  0
    2.1256   15.3844    4.2833 O   0  0  0  0  0  0  0  0  0  0  0  0
    2.7526   16.5291    3.6826 C   0  0  0  0  0  0  0  0  0  0  0  0
    4.2847   16.5227    3.9124 C   0  0  1  0  0  0  0  0  0  0  0  0
    4.8826   15.2638    3.3928 N   0  0  0  0  0  0  0  0  0  0  0  0
    4.9681   17.7080    3.2150 C   0  0  0  0  0  0  0  0  0  0  0  0
    6.4612   17.5105    3.0411 C   0  0  0  0  0  0  0  0  0  0  0  0
    6.9677   17.0920    1.9996 O   0  0  0  0  0  0  0  0  0  0  0  0
    7.2934   17.8549    4.0818 N   0  0  0  0  0  0  0  0  0  0  0  0
    7.0127   18.6029    5.1958 C   0  0  0  0  0  0  0  0  0  0  0  0
    5.9112   18.9733    5.5718 O   0  0  0  0  0  0  0  0  0  0  0  0
    8.1188   18.8696    5.9455 N   0  0  0  0  0  0  0  0  0  0  0  0
    5.8686   15.2254    3.6512 H   0  0  0  0  0  0  0  0  0  0  0  0
    8.2640   17.6749    3.8848 H   0  0  0  0  0  0  0  0  0  0  0  0
    8.2187   19.7694    6.3918 H   0  0  0  0  0  0  0  0  0  0  0  0
    8.4295   18.0817    6.5031 H   0  0  0  0  0  0  0  0  0  0  0  0
  1  2  1  0  0  0  0
  1  6  1  0  0  0  0
  2  3  1  0  0  0  0
  3  4  1  0  0  0  0
  4  5  1  0  0  0  0
  5  6  1  0  0  0  0
  5  7  1  6  0  0  0
  6 14  1  0  0  0  0
  7  8  1  0  0  0  0
  8  9  2  0  0  0  0
  8 10  1  0  0  0  0
 10 11  1  0  0  0  0
 10 15  1  0  0  0  0
 11 12  2  0  0  0  0
 11 13  1  0  0  0  0
 13 16  1  0  0  0  0
 13 17  1  0  0  0  0
M  END
>  <CHROM.0>
-58.19070262,51.58254973,-61.20226129,-44.49446227,-173.81304436,-56.06878310
-65.13588563,-55.77146898,-169.85793388

>  <CHROM.1>
-161.90592129,96.83827441,142.29131063,5.22146166,16.81921428,4.02294362
-2.58531775,0.46205170,0.90120244

>  <Name>
P136897612

>  <RI>
9.71178e+06

>  <Rbt.Current_Directory>
/home/fstefaniak/projects/zuza/docking/adenine/4XNR

>  <Rbt.Executable>
rbdock ($Id: //depot/dev/client3/rdock/2013.1/src/exe/rbdock.cxx#4 $)

>  <Rbt.Library>
libRbt.so (2013.1, Build901 2013/11/27)

>  <Rbt.Parameter_File>
/home/fstefaniak/progs/rDock//data/scripts/dock_solv.prm

>  <Rbt.Receptor>
4xnr.prm

>  <SCORE>
-59.1051

>  <SCORE.INTER>
-40.1666

>  <SCORE.INTER.CONST>
1

>  <SCORE.INTER.POLAR>
-6.19233

>  <SCORE.INTER.ROT>
3

>  <SCORE.INTER.SOLV>
16.1169

>  <SCORE.INTER.VDW>
-17.1089

>  <SCORE.INTER.norm>
-3.08974

>  <SCORE.INTRA>
0.6838

>  <SCORE.INTRA.DIHEDRAL>
1.38089

>  <SCORE.INTRA.DIHEDRAL.0>
1.89798

>  <SCORE.INTRA.POLAR>
0

>  <SCORE.INTRA.POLAR.0>
0

>  <SCORE.INTRA.REPUL>
0

>  <SCORE.INTRA.REPUL.0>
0

>  <SCORE.INTRA.SOLV>
1.2064

>  <SCORE.INTRA.SOLV.lig_0>
-24.6586

>  <SCORE.INTRA.VDW>
-0.609845

>  <SCORE.INTRA.VDW.0>
-0.379583

>  <SCORE.INTRA.norm>
0.0526

>  <SCORE.RESTR>
0

>  <SCORE.RESTR.CAVITY>
0

>  <SCORE.RESTR.norm>
0

>  <SCORE.SYSTEM>
-19.6223

>  <SCORE.SYSTEM.CONST>
0

>  <SCORE.SYSTEM.DIHEDRAL>
4.48893

>  <SCORE.SYSTEM.POLAR>
-3.03565

>  <SCORE.SYSTEM.SOLV>
0.252724

>  <SCORE.SYSTEM.VDW>
-4.54326

>  <SCORE.SYSTEM.norm>
-1.50941

>  <SCORE.heavy>
13

>  <SCORE.norm>
-4.54655

$$$$
P136897612
 OpenBabel12072022113D
libRbt.so/2013.1/901 2013/11/27
 17 17  0  0  0  0  0  0  0  0999 V2000
    1.1875   16.0169    3.8785 C   0  0  0  0  0  0  0  0  0  0  0  0
    1.0294   14.4924    3.9009 C   0  0  0  0  0  0  0  0  0  0  0  0
    1.9923   13.8673    3.0449 O   0  0  0  0  0  0  0  0  0  0  0  0
    3.3238   14.2106    3.4616 C   0  0  0  0  0  0  0  0  0  0  0  0
    3.5486   15.7432    3.4368 C   0  0  1  0  0  0  0  0  0  0  0  0
    2.5394   16.4301    4.2864 N   0  0  0  0  0  0  0  0  0  0  0  0
    4.9478   16.1197    3.9457 C   0  0  0  0  0  0  0  0  0  0  0  0
    5.6210   17.1788    3.0948 C   0  0  0  0  0  0  0  0  0  0  0  0
    5.7373   17.0858    1.8724 O   0  0  0  0  0  0  0  0  0  0  0  0
    6.0868   18.3171    3.7123 N   0  0  0  0  0  0  0  0  0  0  0  0
    5.8161   18.7835    4.9727 C   0  0  0  0  0  0  0  0  0  0  0  0
    5.2354   18.1869    5.8664 O   0  0  0  0  0  0  0  0  0  0  0  0
    6.3335   20.0235    5.1994 N   0  0  0  0  0  0  0  0  0  0  0  0
    2.6300   17.4394    4.1709 H   0  0  0  0  0  0  0  0  0  0  0  0
    6.5325   18.9557    3.0746 H   0  0  0  0  0  0  0  0  0  0  0  0
    7.3240   20.1831    5.0885 H   0  0  0  0  0  0  0  0  0  0  0  0
    5.7417   20.7763    4.8657 H   0  0  0  0  0  0  0  0  0  0  0  0
  1  2  1  0  0  0  0
  1  6  1  0  0  0  0
  2  3  1  0  0  0  0
  3  4  1  0  0  0  0
  4  5  1  0  0  0  0
  5  6  1  0  0  0  0
  5  7  1  1  0  0  0
  6 14  1  0  0  0  0
  7  8  1  0  0  0  0
  8  9  2  0  0  0  0
  8 10  1  0  0  0  0
 10 11  1  0  0  0  0
 10 15  1  0  0  0  0
 11 12  2  0  0  0  0
 11 13  1  0  0  0  0
 13 16  1  0  0  0  0
 13 17  1  0  0  0  0
M  END
>  <CHROM.0>
-54.91640129,-172.03527878,-61.38584719,-45.99750490,-60.19123231,-174.35567590
-65.56257611,-61.46084191,-168.25460919

>  <CHROM.1>
136.46823897,-52.04991244,-57.10180408,4.11362681,16.67550191,3.89636714
2.48900709,-0.50277722,-2.34400597

>  <Name>
P136897612

>  <RI>
9.71178e+06

>  <Rbt.Current_Directory>
/home/fstefaniak/projects/zuza/docking/adenine/4XNR

>  <Rbt.Executable>
rbdock ($Id: //depot/dev/client3/rdock/2013.1/src/exe/rbdock.cxx#4 $)

>  <Rbt.Library>
libRbt.so (2013.1, Build901 2013/11/27)

>  <Rbt.Parameter_File>
/home/fstefaniak/progs/rDock//data/scripts/dock_solv.prm

>  <Rbt.Receptor>
4xnr.prm

>  <SCORE>
-58.1372

>  <SCORE.INTER>
-40.0676

>  <SCORE.INTER.CONST>
1

>  <SCORE.INTER.POLAR>
-4.95756

>  <SCORE.INTER.ROT>
3

>  <SCORE.INTER.SOLV>
16.0731

>  <SCORE.INTER.VDW>
-21.1443

>  <SCORE.INTER.norm>
-3.08213

>  <SCORE.INTRA>
2.26724

>  <SCORE.INTRA.DIHEDRAL>
5.50596

>  <SCORE.INTRA.DIHEDRAL.0>
1.89798

>  <SCORE.INTRA.POLAR>
0

>  <SCORE.INTRA.POLAR.0>
0

>  <SCORE.INTRA.REPUL>
0

>  <SCORE.INTRA.REPUL.0>
0

>  <SCORE.INTRA.SOLV>
0.675247

>  <SCORE.INTRA.SOLV.lig_0>
-24.6586

>  <SCORE.INTRA.VDW>
-0.823366

>  <SCORE.INTRA.VDW.0>
-0.379583

>  <SCORE.INTRA.norm>
0.174403

>  <SCORE.RESTR>
0

>  <SCORE.RESTR.CAVITY>
0

>  <SCORE.RESTR.norm>
0

>  <SCORE.SYSTEM>
-20.3368

>  <SCORE.SYSTEM.CONST>
0

>  <SCORE.SYSTEM.DIHEDRAL>
4.36844

>  <SCORE.SYSTEM.POLAR>
-3.03315

>  <SCORE.SYSTEM.SOLV>
0.163122

>  <SCORE.SYSTEM.VDW>
-4.95788

>  <SCORE.SYSTEM.norm>
-1.56437

>  <SCORE.heavy>
13

>  <SCORE.norm>
-4.47209

$$$$
P136897612
 OpenBabel12072022113D
libRbt.so/2013.1/901 2013/11/27
 17 17  0  0  0  0  0  0  0  0999 V2000
    1.0897   15.8869    3.7569 C   0  0  0  0  0  0  0  0  0  0  0  0
    0.9880   14.3578    3.7938 C   0  0  0  0  0  0  0  0  0  0  0  0
    2.0294   13.7586    3.0145 O   0  0  0  0  0  0  0  0  0  0  0  0
    3.3158   14.1591    3.5137 C   0  0  0  0  0  0  0  0  0  0  0  0
    3.4839   15.6987    3.4786 C   0  0  1  0  0  0  0  0  0  0  0  0
    2.3945   16.3578    4.2474 N   0  0  0  0  0  0  0  0  0  0  0  0
    4.8304   16.1363    4.0737 C   0  0  0  0  0  0  0  0  0  0  0  0
    5.5636   17.1380    3.2033 C   0  0  0  0  0  0  0  0  0  0  0  0
    5.7047   16.9971    1.9881 O   0  0  0  0  0  0  0  0  0  0  0  0
    6.0584   18.2793    3.7922 N   0  0  0  0  0  0  0  0  0  0  0  0
    5.7767   18.8004    5.0284 C   0  0  0  0  0  0  0  0  0  0  0  0
    5.1527   18.2584    5.9277 O   0  0  0  0  0  0  0  0  0  0  0  0
    6.3361   20.0273    5.2246 N   0  0  0  0  0  0  0  0  0  0  0  0
    2.4545   17.3682    4.1215 H   0  0  0  0  0  0  0  0  0  0  0  0
    6.5433   18.8774    3.1438 H   0  0  0  0  0  0  0  0  0  0  0  0
    7.3270   20.1567    5.0825 H   0  0  0  0  0  0  0  0  0  0  0  0
    5.7565   20.7931    4.8993 H   0  0  0  0  0  0  0  0  0  0  0  0
  1  2  1  0  0  0  0
  1  6  1  0  0  0  0
  2  3  1  0  0  0  0
  3  4  1  0  0  0  0
  4  5  1  0  0  0  0
  5  6  1  0  0  0  0
  5  7  1  1  0  0  0
  6 14  1  0  0  0  0
  7  8  1  0  0  0  0
  8  9  2  0  0  0  0
  8 10  1  0  0  0  0
 10 11  1  0  0  0  0
 10 15  1  0  0  0  0
 11 12  2  0  0  0  0
 11 13  1  0  0  0  0
 13 16  1  0  0  0  0
 13 17  1  0  0  0  0
M  END
>  <CHROM.0>
-58.37910998,71.83233321,-72.30410993,-47.70976206,-58.27551762,-61.76470805
-172.12653361,-60.12259782,-168.65251722

>  <CHROM.1>
132.49567479,-46.85900617,-53.69972735,4.06284496,16.62887303,3.92390211
2.45300326,-0.47725739,-2.37281166

>  <Name>
P136897612

>  <RI>
9.71178e+06

>  <Rbt.Current_Directory>
/home/fstefaniak/projects/zuza/docking/adenine/4XNR

>  <Rbt.Executable>
rbdock ($Id: //depot/dev/client3/rdock/2013.1/src/exe/rbdock.cxx#4 $)

>  <Rbt.Library>
libRbt.so (2013.1, Build901 2013/11/27)

>  <Rbt.Parameter_File>
/home/fstefaniak/progs/rDock//data/scripts/dock_solv.prm

>  <Rbt.Receptor>
4xnr.prm

>  <SCORE>
-56.4264

>  <SCORE.INTER>
-39.9266

>  <SCORE.INTER.CONST>
1

>  <SCORE.INTER.POLAR>
-4.97525

>  <SCORE.INTER.ROT>
3

>  <SCORE.INTER.SOLV>
15.9483

>  <SCORE.INTER.VDW>
-20.9496

>  <SCORE.INTER.norm>
-3.07128

>  <SCORE.INTRA>
2.40328

>  <SCORE.INTRA.DIHEDRAL>
5.76523

>  <SCORE.INTRA.DIHEDRAL.0>
1.89798

>  <SCORE.INTRA.POLAR>
0

>  <SCORE.INTRA.POLAR.0>
0

>  <SCORE.INTRA.REPUL>
0

>  <SCORE.INTRA.REPUL.0>
0

>  <SCORE.INTRA.SOLV>
0.482087

>  <SCORE.INTRA.SOLV.lig_0>
-24.6586

>  <SCORE.INTRA.VDW>
-0.720378

>  <SCORE.INTRA.VDW.0>
-0.379583

>  <SCORE.INTRA.norm>
0.184868

>  <SCORE.RESTR>
0

>  <SCORE.RESTR.CAVITY>
0

>  <SCORE.RESTR.norm>
0

>  <SCORE.SYSTEM>
-18.9031

>  <SCORE.SYSTEM.CONST>
0

>  <SCORE.SYSTEM.DIHEDRAL>
5.04829

>  <SCORE.SYSTEM.POLAR>
-2.94893

>  <SCORE.SYSTEM.SOLV>
0.255724

>  <SCORE.SYSTEM.VDW>
-4.54029

>  <SCORE.SYSTEM.norm>
-1.45408

>  <SCORE.heavy>
13

>  <SCORE.norm>
-4.34049

$$$$
P137017646
 OpenBabel12072022113D
libRbt.so/2013.1/901 2013/11/27
 15 16  0  0  0  0  0  0  0  0999 V2000
    0.8682   17.0691    3.9368 C   0  0  0  0  0  0  0  0  0  0  0  0
    2.0366   16.3522    4.2909 C   0  0  0  0  0  0  0  0  0  0  0  0
    3.0060   16.7009    3.3694 C   0  0  0  0  0  0  0  0  0  0  0  0
    2.4782   17.5754    2.4573 O   0  0  0  0  0  0  0  0  0  0  0  0
    1.1878   17.7982    2.8167 C   0  0  0  0  0  0  0  0  0  0  0  0
    4.4254   16.3104    3.1337 C   0  0  1  0  0  0  0  0  0  0  0  0
    5.3991   17.4230    3.1165 C   0  0  0  0  0  0  0  0  0  0  0  0
    5.7122   18.4034    4.0174 C   0  0  0  0  0  0  0  0  0  0  0  0
    6.6528   19.1884    3.4801 N   0  0  0  0  0  0  0  0  0  0  0  0
    6.8790   18.6817    2.2420 N   0  5  0  0  0  0  0  0  0  0  0  0
    6.1144   17.6050    1.9809 N   0  0  0  0  0  0  0  0  0  0  0  0
    4.8667   15.3495    4.1977 N   0  3  0  0  0  0  0  0  0  0  0  0
    5.8600   15.1538    4.0462 H   0  0  0  0  0  0  0  0  0  0  0  0
    4.6587   15.6429    5.1467 H   0  0  0  0  0  0  0  0  0  0  0  0
    4.4158   14.4542    3.9282 H   0  0  0  0  0  0  0  0  0  0  0  0
  1  2  1  0  0  0  0
  1  5  2  0  0  0  0
  2  3  2  0  0  0  0
  3  4  1  0  0  0  0
  3  6  1  0  0  0  0
  4  5  1  0  0  0  0
  6  7  1  0  0  0  0
  6 12  1  1  0  0  0
  7  8  1  0  0  0  0
  7 11  2  0  0  0  0
  8  9  2  0  0  0  0
  9 10  1  0  0  0  0
 10 11  1  0  0  0  0
 12 13  1  0  0  0  0
 12 14  1  0  0  0  0
 12 15  1  0  0  0  0
M  CHG  2  10  -1  12   1
M  END
>  <CHROM.0>
-56.96401713,-61.68440926,58.75031574,-46.12569890,-175.28798144,-60.47570270
53.41152997,-56.81018764,-166.72894554

>  <CHROM.1>
-123.72593374,56.01346620,-176.05926355,4.16810439,17.34484550,3.25290319
2.84497472,0.00910609,2.69091181

>  <Name>
P137017646

>  <RI>
3.02409e+07

>  <Rbt.Current_Directory>
/home/fstefaniak/projects/zuza/docking/adenine/4XNR

>  <Rbt.Executable>
rbdock ($Id: //depot/dev/client3/rdock/2013.1/src/exe/rbdock.cxx#4 $)

>  <Rbt.Library>
libRbt.so (2013.1, Build901 2013/11/27)

>  <Rbt.Parameter_File>
/home/fstefaniak/progs/rDock//data/scripts/dock_solv.prm

>  <Rbt.Receptor>
4xnr.prm

>  <SCORE>
-55.6865

>  <SCORE.INTER>
-35.8188

>  <SCORE.INTER.CONST>
1

>  <SCORE.INTER.POLAR>
-5.89225

>  <SCORE.INTER.ROT>
2

>  <SCORE.INTER.SOLV>
19.0113

>  <SCORE.INTER.VDW>
-15.5088

>  <SCORE.INTER.norm>
-2.9849

>  <SCORE.INTRA>
-1.00401

>  <SCORE.INTRA.DIHEDRAL>
-0.288613

>  <SCORE.INTRA.DIHEDRAL.0>
2.72891

>  <SCORE.INTRA.POLAR>
0.203492

>  <SCORE.INTRA.POLAR.0>
-0.203492

>  <SCORE.INTRA.REPUL>
0

>  <SCORE.INTRA.REPUL.0>
0

>  <SCORE.INTRA.SOLV>
-1.19312

>  <SCORE.INTRA.SOLV.lig_0>
-31.824

>  <SCORE.INTRA.VDW>
-0.95502

>  <SCORE.INTRA.VDW.0>
-0.725981

>  <SCORE.INTRA.norm>
-0.0836678

>  <SCORE.RESTR>
0

>  <SCORE.RESTR.CAVITY>
0

>  <SCORE.RESTR.norm>
0

>  <SCORE.SYSTEM>
-18.8636

>  <SCORE.SYSTEM.CONST>
0

>  <SCORE.SYSTEM.DIHEDRAL>
4.19723

>  <SCORE.SYSTEM.POLAR>
-3.00126

>  <SCORE.SYSTEM.SOLV>
0.0266713

>  <SCORE.SYSTEM.VDW>
-3.97952

>  <SCORE.SYSTEM.norm>
-1.57197

>  <SCORE.heavy>
12

>  <SCORE.norm>
-4.64054

$$$$
P137017646
 OpenBabel12072022113D
libRbt.so/2013.1/901 2013/11/27
 15 16  0  0  0  0  0  0  0  0999 V2000
    1.1751   16.5373    4.2490 C   0  0  0  0  0  0  0  0  0  0  0  0
    2.4427   15.9110    4.3212 C   0  0  0  0  0  0  0  0  0  0  0  0
    3.1925   16.4195    3.2772 C   0  0  0  0  0  0  0  0  0  0  0  0
    2.4356   17.3058    2.5584 O   0  0  0  0  0  0  0  0  0  0  0  0
    1.2209   17.3762    3.1616 C   0  0  0  0  0  0  0  0  0  0  0  0
    4.5699   16.1858    2.7568 C   0  0  1  0  0  0  0  0  0  0  0  0
    5.5030   17.3254    2.8861 C   0  0  0  0  0  0  0  0  0  0  0  0
    5.7699   18.2028    3.9008 C   0  0  0  0  0  0  0  0  0  0  0  0
    6.6879   19.0776    3.4746 N   0  0  0  0  0  0  0  0  0  0  0  0
    6.9468   18.7285    2.1894 N   0  5  0  0  0  0  0  0  0  0  0  0
    6.2247   17.6646    1.7913 N   0  0  0  0  0  0  0  0  0  0  0  0
    5.1879   15.0214    3.4727 N   0  3  0  0  0  0  0  0  0  0  0  0
    5.0319   14.1872    2.9004 H   0  0  0  0  0  0  0  0  0  0  0  0
    6.1606   15.1508    3.7316 H   0  0  0  0  0  0  0  0  0  0  0  0
    4.5572   14.8623    4.2817 H   0  0  0  0  0  0  0  0  0  0  0  0
  1  2  1  0  0  0  0
  1  5  2  0  0  0  0
  2  3  2  0  0  0  0
  3  4  1  0  0  0  0
  3  6  1  0  0  0  0
  4  5  1  0  0  0  0
  6  7  1  0  0  0  0
  6 12  1  1  0  0  0
  7  8  1  0  0  0  0
  7 11  2  0  0  0  0
  8  9  2  0  0  0  0
  9 10  1  0  0  0  0
 10 11  1  0  0  0  0
 12 13  1  0  0  0  0
 12 14  1  0  0  0  0
 12 15  1  0  0  0  0
M  CHG  2  10  -1  12   1
M  END
>  <CHROM.0>
-58.32690369,-62.16621101,-65.92782774,-45.20670159,-174.01475432,-175.27586643
-66.21972760,-60.41918950,-167.39649415

>  <CHROM.1>
-113.52569988,44.04720241,95.13971660,4.31100403,17.11961527,3.15798647,2.77332702
-0.12281736,2.96522623

>  <Name>
P137017646

>  <RI>
3.02409e+07

>  <Rbt.Current_Directory>
/home/fstefaniak/projects/zuza/docking/adenine/4XNR

>  <Rbt.Executable>
rbdock ($Id: //depot/dev/client3/rdock/2013.1/src/exe/rbdock.cxx#4 $)

>  <Rbt.Library>
libRbt.so (2013.1, Build901 2013/11/27)

>  <Rbt.Parameter_File>
/home/fstefaniak/progs/rDock//data/scripts/dock_solv.prm

>  <Rbt.Receptor>
4xnr.prm

>  <SCORE>
-55.5609

>  <SCORE.INTER>
-36.5814

>  <SCORE.INTER.CONST>
1

>  <SCORE.INTER.POLAR>
-6.24664

>  <SCORE.INTER.ROT>
2

>  <SCORE.INTER.SOLV>
20.1555

>  <SCORE.INTER.VDW>
-15.2172

>  <SCORE.INTER.norm>
-3.04845

>  <SCORE.INTRA>
1.69222

>  <SCORE.INTRA.DIHEDRAL>
1.96357

>  <SCORE.INTRA.DIHEDRAL.0>
2.72891

>  <SCORE.INTRA.POLAR>
0.203492

>  <SCORE.INTRA.POLAR.0>
-0.203492

>  <SCORE.INTRA.REPUL>
0

>  <SCORE.INTRA.REPUL.0>
0

>  <SCORE.INTRA.SOLV>
-0.824939

>  <SCORE.INTRA.SOLV.lig_0>
-31.824

>  <SCORE.INTRA.VDW>
0.431028

>  <SCORE.INTRA.VDW.0>
-0.725981

>  <SCORE.INTRA.norm>
0.141018

>  <SCORE.RESTR>
0

>  <SCORE.RESTR.CAVITY>
0

>  <SCORE.RESTR.norm>
0

>  <SCORE.SYSTEM>
-20.6718

>  <SCORE.SYSTEM.CONST>
0

>  <SCORE.SYSTEM.DIHEDRAL>
4.46647

>  <SCORE.SYSTEM.POLAR>
-3.014

>  <SCORE.SYSTEM.SOLV>
0.00553954

>  <SCORE.SYSTEM.VDW>
-5.22518

>  <SCORE.SYSTEM.norm>
-1.72265

>  <SCORE.heavy>
12

>  <SCORE.norm>
-4.63008

$$$$
P137017646
 OpenBabel12072022113D
libRbt.so/2013.1/901 2013/11/27
 15 16  0  0  0  0  0  0  0  0999 V2000
    0.8723   17.0614    3.9078 C   0  0  0  0  0  0  0  0  0  0  0  0
    2.0324   16.3357    4.2713 C   0  0  0  0  0  0  0  0  0  0  0  0
    3.0145   16.6841    3.3633 C   0  0  0  0  0  0  0  0  0  0  0  0
    2.5025   17.5670    2.4504 O   0  0  0  0  0  0  0  0  0  0  0  0
    1.2092   17.7952    2.7960 C   0  0  0  0  0  0  0  0  0  0  0  0
    4.4344   16.2868    3.1419 C   0  0  1  0  0  0  0  0  0  0  0  0
    5.4139   17.3944    3.1380 C   0  0  0  0  0  0  0  0  0  0  0  0
    5.7398   18.3555    4.0549 C   0  0  0  0  0  0  0  0  0  0  0  0
    6.6802   19.1458    3.5249 N   0  0  0  0  0  0  0  0  0  0  0  0
    6.8933   18.6619    2.2755 N   0  5  0  0  0  0  0  0  0  0  0  0
    6.1207   17.5945    2.0001 N   0  0  0  0  0  0  0  0  0  0  0  0
    4.8592   15.3210    4.2082 N   0  3  0  0  0  0  0  0  0  0  0  0
    4.6586   15.7520    5.1147 H   0  0  0  0  0  0  0  0  0  0  0  0
    4.4694   14.3886    4.1153 H   0  0  0  0  0  0  0  0  0  0  0  0
    5.8962   15.3468    4.1696 H   0  0  0  0  0  0  0  0  0  0  0  0
  1  2  1  0  0  0  0
  1  5  2  0  0  0  0
  2  3  2  0  0  0  0
  3  4  1  0  0  0  0
  3  6  1  0  0  0  0
  4  5  1  0  0  0  0
  6  7  1  0  0  0  0
  6 12  1  1  0  0  0
  7  8  1  0  0  0  0
  7 11  2  0  0  0  0
  8  9  2  0  0  0  0
  9 10  1  0  0  0  0
 10 11  1  0  0  0  0
 12 13  1  0  0  0  0
 12 14  1  0  0  0  0
 12 15  1  0  0  0  0
M  CHG  2  10  -1  12   1
M  END
>  <CHROM.0>
-58.32603333,-59.72564923,-71.94794990,-46.71027228,-56.17291055,59.67426864
-170.76400199,-58.41112530,-169.11519003

>  <CHROM.1>
-123.93471603,57.47247365,-53.65100242,4.18077771,17.32568398,3.26240686
2.85382117,0.02162919,2.67948208

>  <Name>
P137017646

>  <RI>
3.02409e+07

>  <Rbt.Current_Directory>
/home/fstefaniak/projects/zuza/docking/adenine/4XNR

>  <Rbt.Executable>
rbdock ($Id: //depot/dev/client3/rdock/2013.1/src/exe/rbdock.cxx#4 $)

>  <Rbt.Library>
libRbt.so (2013.1, Build901 2013/11/27)

>  <Rbt.Parameter_File>
/home/fstefaniak/progs/rDock//data/scripts/dock_solv.prm

>  <Rbt.Receptor>
4xnr.prm

>  <SCORE>
-54.8308

>  <SCORE.INTER>
-35.2902

>  <SCORE.INTER.CONST>
1

>  <SCORE.INTER.POLAR>
-5.71833

>  <SCORE.INTER.ROT>
2

>  <SCORE.INTER.SOLV>
18.8665

>  <SCORE.INTER.VDW>
-15.6878

>  <SCORE.INTER.norm>
-2.94085

>  <SCORE.INTRA>
-0.439841

>  <SCORE.INTRA.DIHEDRAL>
-0.16786

>  <SCORE.INTRA.DIHEDRAL.0>
2.72891

>  <SCORE.INTRA.POLAR>
0.203492

>  <SCORE.INTRA.POLAR.0>
-0.203492

>  <SCORE.INTRA.REPUL>
0

>  <SCORE.INTRA.REPUL.0>
0

>  <SCORE.INTRA.SOLV>
-0.870161

>  <SCORE.INTRA.SOLV.lig_0>
-31.824

>  <SCORE.INTRA.VDW>
-0.612704

>  <SCORE.INTRA.VDW.0>
-0.725981

>  <SCORE.INTRA.norm>
-0.0366534

>  <SCORE.RESTR>
0

>  <SCORE.RESTR.CAVITY>
0

>  <SCORE.RESTR.norm>
0

>  <SCORE.SYSTEM>
-19.1008

>  <SCORE.SYSTEM.CONST>
0

>  <SCORE.SYSTEM.DIHEDRAL>
4.58195

>  <SCORE.SYSTEM.POLAR>
-2.96172

>  <SCORE.SYSTEM.SOLV>
0.113973

>  <SCORE.SYSTEM.VDW>
-4.42676

>  <SCORE.SYSTEM.norm>
-1.59173

>  <SCORE.heavy>
12

>  <SCORE.norm>
-4.56923

$$$$
P137017648
 OpenBabel12072022113D
libRbt.so/2013.1/901 2013/11/27
 15 16  0  0  0  0  0  0  0  0999 V2000
    0.8144   16.7745    3.8006 C   0  0  0  0  0  0  0  0  0  0  0  0
    1.9014   16.1219    4.4313 C   0  0  0  0  0  0  0  0  0  0  0  0
    3.0472   16.5885    3.8165 C   0  0  0  0  0  0  0  0  0  0  0  0
    2.7117   17.4735    2.8261 O   0  0  0  0  0  0  0  0  0  0  0  0
    1.3587   17.5879    2.8356 C   0  0  0  0  0  0  0  0  0  0  0  0
    4.5003   16.3078    3.9984 C   0  0  2  0  0  0  0  0  0  0  0  0
    5.4118   17.2071    3.2571 C   0  0  0  0  0  0  0  0  0  0  0  0
    6.2795   18.1971    3.6256 C   0  0  0  0  0  0  0  0  0  0  0  0
    6.8626   18.6834    2.5235 N   0  0  0  0  0  0  0  0  0  0  0  0
    6.3319   17.9767    1.4942 N   0  5  0  0  0  0  0  0  0  0  0  0
    5.4441   17.0545    1.9097 N   0  0  0  0  0  0  0  0  0  0  0  0
    4.8355   14.9073    3.5722 N   0  3  0  0  0  0  0  0  0  0  0  0
    5.8734   14.8734    3.6868 H   0  0  0  0  0  0  0  0  0  0  0  0
    4.3731   14.1754    4.0997 H   0  0  0  0  0  0  0  0  0  0  0  0
    4.6780   14.8382    2.5635 H   0  0  0  0  0  0  0  0  0  0  0  0
  1  2  1  0  0  0  0
  1  5  2  0  0  0  0
  2  3  2  0  0  0  0
  3  4  1  0  0  0  0
  4  5  1  0  0  0  0
  6  7  1  0  0  0  0
  6 12  1  6  0  0  0
  6  3  1  0  0  0  0
  7  8  1  0  0  0  0
  7 11  2  0  0  0  0
  8  9  2  0  0  0  0
  9 10  1  0  0  0  0
 10 11  1  0  0  0  0
 12 13  1  0  0  0  0
 12 14  1  0  0  0  0
 12 15  1  0  0  0  0
M  CHG  2  10  -1  12   1
M  END
>  <CHROM.0>
-59.52896627,-65.49125608,-74.59059053,-43.98688342,-177.12021804,-60.27049621
-171.85178151,-61.40017951,-168.16963161

>  <CHROM.1>
109.73564313,176.14957055,-170.49009379,4.15562056,17.03972689,3.14929235
2.81522640,-0.10191577,2.63949605

>  <Name>
P137017648

>  <RI>
3.02409e+07

>  <Rbt.Current_Directory>
/home/fstefaniak/projects/zuza/docking/adenine/4XNR

>  <Rbt.Executable>
rbdock ($Id: //depot/dev/client3/rdock/2013.1/src/exe/rbdock.cxx#4 $)

>  <Rbt.Library>
libRbt.so (2013.1, Build901 2013/11/27)

>  <Rbt.Parameter_File>
/home/fstefaniak/progs/rDock//data/scripts/dock_solv.prm

>  <Rbt.Receptor>
4xnr.prm

>  <SCORE>
-53.4852

>  <SCORE.INTER>
-32.6837

>  <SCORE.INTER.CONST>
1

>  <SCORE.INTER.POLAR>
-4.51348

>  <SCORE.INTER.ROT>
2

>  <SCORE.INTER.SOLV>
18.8624

>  <SCORE.INTER.VDW>
-17.965

>  <SCORE.INTER.norm>
-2.72364

>  <SCORE.INTRA>
-0.474717

>  <SCORE.INTRA.DIHEDRAL>
-1.89751

>  <SCORE.INTRA.DIHEDRAL.0>
4.14095

>  <SCORE.INTRA.POLAR>
0.571428

>  <SCORE.INTRA.POLAR.0>
-0.571428

>  <SCORE.INTRA.REPUL>
0

>  <SCORE.INTRA.REPUL.0>
0

>  <SCORE.INTRA.SOLV>
-0.792064

>  <SCORE.INTRA.SOLV.lig_0>
-31.3548

>  <SCORE.INTRA.VDW>
-1.07279

>  <SCORE.INTRA.VDW.0>
-0.286063

>  <SCORE.INTRA.norm>
-0.0395598

>  <SCORE.RESTR>
0

>  <SCORE.RESTR.CAVITY>
0

>  <SCORE.RESTR.norm>
0

>  <SCORE.SYSTEM>
-20.3268

>  <SCORE.SYSTEM.CONST>
0

>  <SCORE.SYSTEM.DIHEDRAL>
5.33237

>  <SCORE.SYSTEM.POLAR>
-2.99758

>  <SCORE.SYSTEM.SOLV>
0.0534203

>  <SCORE.SYSTEM.VDW>
-5.35452

>  <SCORE.SYSTEM.norm>
-1.6939

>  <SCORE.heavy>
12

>  <SCORE.norm>
-4.4571

$$$$
P137017648
 OpenBabel12072022113D
libRbt.so/2013.1/901 2013/11/27
 15 16  0  0  0  0  0  0  0  0999 V2000
    3.0021   11.8332    4.6875 C   0  0  0  0  0  0  0  0  0  0  0  0
    2.8148   12.7512    3.6258 C   0  0  0  0  0  0  0  0  0  0  0  0
    2.9576   14.0128    4.1703 C   0  0  0  0  0  0  0  0  0  0  0  0
    3.1975   13.9105    5.5152 O   0  0  0  0  0  0  0  0  0  0  0  0
    3.2357   12.5863    5.8134 C   0  0  0  0  0  0  0  0  0  0  0  0
    2.8789   15.3916    3.6082 C   0  0  2  0  0  0  0  0  0  0  0  0
    4.1583   16.1345    3.5841 C   0  0  0  0  0  0  0  0  0  0  0  0
    4.8268   16.9079    4.4916 C   0  0  0  0  0  0  0  0  0  0  0  0
    5.9648   17.3340    3.9307 N   0  0  0  0  0  0  0  0  0  0  0  0
    5.9668   16.8104    2.6792 N   0  5  0  0  0  0  0  0  0  0  0  0
    4.8764   16.0600    2.4359 N   0  0  0  0  0  0  0  0  0  0  0  0
    1.9059   16.2338    4.3823 N   0  3  0  0  0  0  0  0  0  0  0  0
    2.1536   16.0197    5.3743 H   0  0  0  0  0  0  0  0  0  0  0  0
    1.9490   17.2280    4.1883 H   0  0  0  0  0  0  0  0  0  0  0  0
    0.9716   15.8377    4.2510 H   0  0  0  0  0  0  0  0  0  0  0  0
  1  2  1  0  0  0  0
  1  5  2  0  0  0  0
  2  3  2  0  0  0  0
  3  4  1  0  0  0  0
  4  5  1  0  0  0  0
  6  7  1  0  0  0  0
  6 12  1  1  0  0  0
  6  3  1  0  0  0  0
  7  8  1  0  0  0  0
  7 11  2  0  0  0  0
  8  9  2  0  0  0  0
  9 10  1  0  0  0  0
 10 11  1  0  0  0  0
 12 13  1  0  0  0  0
 12 14  1  0  0  0  0
 12 15  1  0  0  0  0
M  CHG  2  10  -1  12   1
M  END
>  <CHROM.0>
-53.95707467,-50.08206322,-69.63855436,-46.87695854,-172.89927265,-58.83835175
-68.47091563,-171.49338987,-168.08192649

>  <CHROM.1>
-85.70679750,45.40964147,-112.26800411,3.78904964,15.04047357,4.09795634
-2.11647541,0.35790421,-0.14452230

>  <Name>
P137017648

>  <RI>
3.02409e+07

>  <Rbt.Current_Directory>
/home/fstefaniak/projects/zuza/docking/adenine/4XNR

>  <Rbt.Executable>
rbdock ($Id: //depot/dev/client3/rdock/2013.1/src/exe/rbdock.cxx#4 $)

>  <Rbt.Library>
libRbt.so (2013.1, Build901 2013/11/27)

>  <Rbt.Parameter_File>
/home/fstefaniak/progs/rDock//data/scripts/dock_solv.prm

>  <Rbt.Receptor>
4xnr.prm

>  <SCORE>
-53.2303

>  <SCORE.INTER>
-31.7394

>  <SCORE.INTER.CONST>
1

>  <SCORE.INTER.POLAR>
-4.85093

>  <SCORE.INTER.ROT>
2

>  <SCORE.INTER.SOLV>
15.7393

>  <SCORE.INTER.VDW>
-15.1696

>  <SCORE.INTER.norm>
-2.64495

>  <SCORE.INTRA>
-1.25724

>  <SCORE.INTRA.DIHEDRAL>
-2.32785

>  <SCORE.INTRA.DIHEDRAL.0>
4.14095

>  <SCORE.INTRA.POLAR>
0.47476

>  <SCORE.INTRA.POLAR.0>
-0.571428

>  <SCORE.INTRA.REPUL>
0

>  <SCORE.INTRA.REPUL.0>
0

>  <SCORE.INTRA.SOLV>
-0.904855

>  <SCORE.INTRA.SOLV.lig_0>
-31.3548

>  <SCORE.INTRA.VDW>
-1.25506

>  <SCORE.INTRA.VDW.0>
-0.286063

>  <SCORE.INTRA.norm>
-0.10477

>  <SCORE.RESTR>
0.00379815

>  <SCORE.RESTR.CAVITY>
0.00379815

>  <SCORE.RESTR.norm>
0.000316513

>  <SCORE.SYSTEM>
-20.2375

>  <SCORE.SYSTEM.CONST>
0

>  <SCORE.SYSTEM.DIHEDRAL>
5.47958

>  <SCORE.SYSTEM.POLAR>
-3.0201

>  <SCORE.SYSTEM.SOLV>
0.00990371

>  <SCORE.SYSTEM.VDW>
-5.25449

>  <SCORE.SYSTEM.norm>
-1.68646

>  <SCORE.heavy>
12

>  <SCORE.norm>
-4.43586

$$$$
P137017648
 OpenBabel12072022113D
libRbt.so/2013.1/901 2013/11/27
 15 16  0  0  0  0  0  0  0  0999 V2000
    2.6578   14.5392    3.9136 C   0  0  0  0  0  0  0  0  0  0  0  0
    2.6870   15.9549    3.9309 C   0  0  0  0  0  0  0  0  0  0  0  0
    3.9989   16.3156    4.1702 C   0  0  0  0  0  0  0  0  0  0  0  0
    4.7659   15.1911    4.3246 O   0  0  0  0  0  0  0  0  0  0  0  0
    3.9455   14.1228    4.1535 C   0  0  0  0  0  0  0  0  0  0  0  0
    4.6971   17.6257    4.3106 C   0  0  2  0  0  0  0  0  0  0  0  0
    5.7873   17.8642    3.3391 C   0  0  0  0  0  0  0  0  0  0  0  0
    7.0003   18.4911    3.4050 C   0  0  0  0  0  0  0  0  0  0  0  0
    7.5912   18.4006    2.2076 N   0  0  0  0  0  0  0  0  0  0  0  0
    6.7178   17.7171    1.4262 N   0  5  0  0  0  0  0  0  0  0  0  0
    5.6030   17.3636    2.0921 N   0  0  0  0  0  0  0  0  0  0  0  0
    5.2993   17.7708    5.6786 N   0  3  0  0  0  0  0  0  0  0  0  0
    4.5776   17.3355    6.2958 H   0  0  0  0  0  0  0  0  0  0  0  0
    6.2081   17.3371    5.7962 H   0  0  0  0  0  0  0  0  0  0  0  0
    5.2923   18.7645    5.9227 H   0  0  0  0  0  0  0  0  0  0  0  0
  1  2  1  0  0  0  0
  1  5  2  0  0  0  0
  2  3  2  0  0  0  0
  3  4  1  0  0  0  0
  4  5  1  0  0  0  0
  6  7  1  0  0  0  0
  6 12  1  1  0  0  0
  6  3  1  0  0  0  0
  7  8  1  0  0  0  0
  7 11  2  0  0  0  0
  8  9  2  0  0  0  0
  9 10  1  0  0  0  0
 10 11  1  0  0  0  0
 12 13  1  0  0  0  0
 12 14  1  0  0  0  0
 12 15  1  0  0  0  0
M  CHG  2  10  -1  12   1
M  END
>  <CHROM.0>
-60.58639875,-51.83429332,-66.00587160,-48.10865410,-64.93297176,178.75390334
-68.04825553,-61.27419156,-167.11626325

>  <CHROM.1>
-144.20237653,-38.44369114,-120.74562078,5.09461487,16.79097238,3.61785458
3.12088747,0.80163041,1.10280024

>  <Name>
P137017648

>  <RI>
3.02409e+07

>  <Rbt.Current_Directory>
/home/fstefaniak/projects/zuza/docking/adenine/4XNR

>  <Rbt.Executable>
rbdock ($Id: //depot/dev/client3/rdock/2013.1/src/exe/rbdock.cxx#4 $)

>  <Rbt.Library>
libRbt.so (2013.1, Build901 2013/11/27)

>  <Rbt.Parameter_File>
/home/fstefaniak/progs/rDock//data/scripts/dock_solv.prm

>  <Rbt.Receptor>
4xnr.prm

>  <SCORE>
-52.8824

>  <SCORE.INTER>
-32.1314

>  <SCORE.INTER.CONST>
1

>  <SCORE.INTER.POLAR>
-4.72024

>  <SCORE.INTER.ROT>
2

>  <SCORE.INTER.SOLV>
19.9708

>  <SCORE.INTER.VDW>
-17.277

>  <SCORE.INTER.norm>
-2.67761

>  <SCORE.INTRA>
-0.497127

>  <SCORE.INTRA.DIHEDRAL>
-1.60018

>  <SCORE.INTRA.DIHEDRAL.0>
4.14095

>  <SCORE.INTRA.POLAR>
0.571428

>  <SCORE.INTRA.POLAR.0>
-0.571428

>  <SCORE.INTRA.REPUL>
0

>  <SCORE.INTRA.REPUL.0>
0

>  <SCORE.INTRA.SOLV>
-1.12298

>  <SCORE.INTRA.SOLV.lig_0>
-31.3548

>  <SCORE.INTRA.VDW>
-1.0784

>  <SCORE.INTRA.VDW.0>
-0.286063

>  <SCORE.INTRA.norm>
-0.0414273

>  <SCORE.RESTR>
0

>  <SCORE.RESTR.CAVITY>
0

>  <SCORE.RESTR.norm>
0

>  <SCORE.SYSTEM>
-20.2539

>  <SCORE.SYSTEM.CONST>
0

>  <SCORE.SYSTEM.DIHEDRAL>
4.41889

>  <SCORE.SYSTEM.POLAR>
-2.95417

>  <SCORE.SYSTEM.SOLV>
0.177926

>  <SCORE.SYSTEM.VDW>
-5.18763

>  <SCORE.SYSTEM.norm>
-1.68782

>  <SCORE.heavy>
12

>  <SCORE.norm>
-4.40686

$$$$
P137104234
 OpenBabel12072022113D
libRbt.so/2013.1/901 2013/11/27
 17 17  0  0  0  0  0  0  0  0999 V2000
    6.3083   17.6360    3.2491 C   0  0  0  0  0  0  0  0  0  0  0  0
    5.1868   17.8180    4.2724 C   0  0  2  0  0  0  0  0  0  0  0  0
    5.6725   18.5215    5.5534 C   0  0  0  0  0  0  0  0  0  0  0  0
    5.8730   17.9108    6.6017 O   0  0  0  0  0  0  0  0  0  0  0  0
    6.0071   19.8408    5.4610 N   0  0  0  0  0  0  0  0  0  0  0  0
    4.5758   16.4896    4.5880 N   0  0  0  0  0  0  0  0  0  0  0  0
    3.7150   16.0651    3.4698 C   0  0  1  0  0  0  0  0  0  0  0  0
    3.4438   14.5455    3.6263 C   0  0  0  0  0  0  0  0  0  0  0  0
    2.2421   14.9059    4.5263 C   0  0  1  0  0  0  0  0  0  0  0  0
    2.2265   16.2873    3.8445 C   0  0  0  0  0  0  0  0  0  0  0  0
    1.0366   14.1107    4.2588 N   0  3  0  0  0  0  0  0  0  0  0  0
    0.8183   13.4541    5.0195 H   0  0  0  0  0  0  0  0  0  0  0  0
    0.2099   14.7066    4.1232 H   0  0  0  0  0  0  0  0  0  0  0  0
    1.1447   13.5490    3.4034 H   0  0  0  0  0  0  0  0  0  0  0  0
    5.7972   20.4113    4.6544 H   0  0  0  0  0  0  0  0  0  0  0  0
    6.2821   20.3096    6.3152 H   0  0  0  0  0  0  0  0  0  0  0  0
    5.3676   15.8565    4.7377 H   0  0  0  0  0  0  0  0  0  0  0  0
  2  3  1  0  0  0  0
  2  6  1  0  0  0  0
  2  1  1  6  0  0  0
  3  4  2  0  0  0  0
  3  5  1  0  0  0  0
  5 15  1  0  0  0  0
  5 16  1  0  0  0  0
  6 17  1  0  0  0  0
  7  6  1  1  0  0  0
  7  8  1  0  0  0  0
  7 10  1  0  0  0  0
  8  9  1  0  0  0  0
  9 10  1  0  0  0  0
  9 11  1  6  0  0  0
 11 12  1  0  0  0  0
 11 13  1  0  0  0  0
 11 14  1  0  0  0  0
M  CHG  1  11   1
M  END
>  <CHROM.0>
-57.40680884,175.66364512,-68.57688469,-46.25616489,-174.26382793,58.23836817
-67.99168372,-59.59199497,-166.97209477

>  <CHROM.1>
-103.99068183,-75.28019743,163.45672772,110.17981593,4.19715483,16.73220389
4.51622422,-0.52538763,-0.64876668,-2.03492944

>  <Name>
P137104234

>  <RI>
3.58524e+07

>  <Rbt.Current_Directory>
/home/fstefaniak/projects/zuza/docking/adenine/4XNR

>  <Rbt.Executable>
rbdock ($Id: //depot/dev/client3/rdock/2013.1/src/exe/rbdock.cxx#4 $)

>  <Rbt.Library>
libRbt.so (2013.1, Build901 2013/11/27)

>  <Rbt.Parameter_File>
/home/fstefaniak/progs/rDock//data/scripts/dock_solv.prm

>  <Rbt.Receptor>
4xnr.prm

>  <SCORE>
-48.1741

>  <SCORE.INTER>
-29.9876

>  <SCORE.INTER.CONST>
1

>  <SCORE.INTER.POLAR>
-3.04847

>  <SCORE.INTER.ROT>
3

>  <SCORE.INTER.SOLV>
17.9337

>  <SCORE.INTER.VDW>
-21.408

>  <SCORE.INTER.norm>
-2.72614

>  <SCORE.INTRA>
1.27762

>  <SCORE.INTRA.DIHEDRAL>
1.79821

>  <SCORE.INTRA.DIHEDRAL.0>
3.16425

>  <SCORE.INTRA.POLAR>
0

>  <SCORE.INTRA.POLAR.0>
0

>  <SCORE.INTRA.REPUL>
0

>  <SCORE.INTRA.REPUL.0>
0

>  <SCORE.INTRA.SOLV>
-0.760429

>  <SCORE.INTRA.SOLV.lig_0>
-34.9228

>  <SCORE.INTRA.VDW>
0.758731

>  <SCORE.INTRA.VDW.0>
-0.0859856

>  <SCORE.INTRA.norm>
0.116147

>  <SCORE.RESTR>
0

>  <SCORE.RESTR.CAVITY>
0

>  <SCORE.RESTR.norm>
0

>  <SCORE.SYSTEM>
-19.4641

>  <SCORE.SYSTEM.CONST>
0

>  <SCORE.SYSTEM.DIHEDRAL>
4.65029

>  <SCORE.SYSTEM.POLAR>
-3.00094

>  <SCORE.SYSTEM.SOLV>
-0.0315693

>  <SCORE.SYSTEM.VDW>
-4.51252

>  <SCORE.SYSTEM.norm>
-1.76947

>  <SCORE.heavy>
11

>  <SCORE.norm>
-4.37946

$$$$
P137104234
 OpenBabel12072022113D
libRbt.so/2013.1/901 2013/11/27
 17 17  0  0  0  0  0  0  0  0999 V2000
    3.8001   14.7468    3.8574 C   0  0  0  0  0  0  0  0  0  0  0  0
    3.3127   16.1657    4.1525 C   0  0  2  0  0  0  0  0  0  0  0  0
    1.8470   16.3800    3.7309 C   0  0  0  0  0  0  0  0  0  0  0  0
    1.5406   17.0016    2.7151 O   0  0  0  0  0  0  0  0  0  0  0  0
    0.8824   15.7405    4.4531 N   0  0  0  0  0  0  0  0  0  0  0  0
    4.2140   17.1545    3.4836 N   0  0  0  0  0  0  0  0  0  0  0  0
    5.5602   17.0745    4.0777 C   0  0  1  0  0  0  0  0  0  0  0  0
    6.3714   18.3036    3.5891 C   0  0  0  0  0  0  0  0  0  0  0  0
    5.7973   19.0925    4.7858 C   0  0  1  0  0  0  0  0  0  0  0  0
    5.5516   17.7388    5.4792 C   0  0  0  0  0  0  0  0  0  0  0  0
    6.7855   19.9303    5.4775 N   0  3  0  0  0  0  0  0  0  0  0  0
    7.2309   20.6152    4.8530 H   0  0  0  0  0  0  0  0  0  0  0  0
    6.3629   20.4549    6.2541 H   0  0  0  0  0  0  0  0  0  0  0  0
    7.5414   19.3585    5.8784 H   0  0  0  0  0  0  0  0  0  0  0  0
    1.0625   15.2797    5.3336 H   0  0  0  0  0  0  0  0  0  0  0  0
   -0.0813   15.9209    4.2001 H   0  0  0  0  0  0  0  0  0  0  0  0
    4.2058   16.8997    2.4911 H   0  0  0  0  0  0  0  0  0  0  0  0
  2  3  1  0  0  0  0
  2  6  1  0  0  0  0
  2  1  1  6  0  0  0
  3  4  2  0  0  0  0
  3  5  1  0  0  0  0
  5 15  1  0  0  0  0
  5 16  1  0  0  0  0
  6 17  1  0  0  0  0
  7  6  1  6  0  0  0
  7  8  1  0  0  0  0
  7 10  1  0  0  0  0
  8  9  1  0  0  0  0
  9 10  1  0  0  0  0
  9 11  1  1  0  0  0
 11 12  1  0  0  0  0
 11 13  1  0  0  0  0
 11 14  1  0  0  0  0
M  CHG  1  11   1
M  END
>  <CHROM.0>
-58.16561342,-59.88870172,61.23799019,-51.03986191,-60.65396010,-61.93149832
54.41669266,-57.52542562,-165.88393159

>  <CHROM.1>
-103.78880484,-64.96523226,-167.83892996,57.90476513,4.14070394,17.23288794
4.17150953,-2.54278452,-0.14834766,0.15165782

>  <Name>
P137104234

>  <RI>
3.58524e+07

>  <Rbt.Current_Directory>
/home/fstefaniak/projects/zuza/docking/adenine/4XNR

>  <Rbt.Executable>
rbdock ($Id: //depot/dev/client3/rdock/2013.1/src/exe/rbdock.cxx#4 $)

>  <Rbt.Library>
libRbt.so (2013.1, Build901 2013/11/27)

>  <Rbt.Parameter_File>
/home/fstefaniak/progs/rDock//data/scripts/dock_solv.prm

>  <Rbt.Receptor>
4xnr.prm

>  <SCORE>
-48.0783

>  <SCORE.INTER>
-29.7512

>  <SCORE.INTER.CONST>
1

>  <SCORE.INTER.POLAR>
-3.21997

>  <SCORE.INTER.ROT>
3

>  <SCORE.INTER.SOLV>
21.3424

>  <SCORE.INTER.VDW>
-21.815

>  <SCORE.INTER.norm>
-2.70466

>  <SCORE.INTRA>
0.399195

>  <SCORE.INTRA.DIHEDRAL>
-0.584171

>  <SCORE.INTRA.DIHEDRAL.0>
3.16425

>  <SCORE.INTRA.POLAR>
0

>  <SCORE.INTRA.POLAR.0>
0

>  <SCORE.INTRA.REPUL>
0

>  <SCORE.INTRA.REPUL.0>
0

>  <SCORE.INTRA.SOLV>
-0.742421

>  <SCORE.INTRA.SOLV.lig_0>
-34.9228

>  <SCORE.INTRA.VDW>
1.06249

>  <SCORE.INTRA.VDW.0>
-0.0859856

>  <SCORE.INTRA.norm>
0.0362905

>  <SCORE.RESTR>
0

>  <SCORE.RESTR.CAVITY>
0

>  <SCORE.RESTR.norm>
0

>  <SCORE.SYSTEM>
-18.7263

>  <SCORE.SYSTEM.CONST>
0

>  <SCORE.SYSTEM.DIHEDRAL>
3.59067

>  <SCORE.SYSTEM.POLAR>
-2.91154

>  <SCORE.SYSTEM.SOLV>
0.182505

>  <SCORE.SYSTEM.VDW>
-4.03678

>  <SCORE.SYSTEM.norm>
-1.70239

>  <SCORE.heavy>
11

>  <SCORE.norm>
-4.37076

$$$$
P137104234
 OpenBabel12072022113D
libRbt.so/2013.1/901 2013/11/27
 17 17  0  0  0  0  0  0  0  0999 V2000
    6.3543   17.5698    3.2429 C   0  0  0  0  0  0  0  0  0  0  0  0
    5.2060   17.7880    4.2287 C   0  0  2  0  0  0  0  0  0  0  0  0
    5.6611   18.5235    5.5030 C   0  0  0  0  0  0  0  0  0  0  0  0
    5.8514   17.9368    6.5668 O   0  0  0  0  0  0  0  0  0  0  0  0
    5.9807   19.8448    5.3891 N   0  0  0  0  0  0  0  0  0  0  0  0
    4.5763   16.4731    4.5635 N   0  0  0  0  0  0  0  0  0  0  0  0
    3.7157   16.0408    3.4482 C   0  0  1  0  0  0  0  0  0  0  0  0
    3.4289   14.5264    3.6257 C   0  0  0  0  0  0  0  0  0  0  0  0
    2.2273   14.9116    4.5155 C   0  0  1  0  0  0  0  0  0  0  0  0
    2.2280   16.2831    3.8136 C   0  0  0  0  0  0  0  0  0  0  0  0
    1.0151   14.1246    4.2548 N   0  3  0  0  0  0  0  0  0  0  0  0
    1.0637   13.6037    3.3694 H   0  0  0  0  0  0  0  0  0  0  0  0
    0.8372   13.4409    5.0018 H   0  0  0  0  0  0  0  0  0  0  0  0
    0.1846   14.7296    4.1983 H   0  0  0  0  0  0  0  0  0  0  0  0
    5.7774   20.3961    4.5676 H   0  0  0  0  0  0  0  0  0  0  0  0
    6.2353   20.3344    6.2381 H   0  0  0  0  0  0  0  0  0  0  0  0
    5.3590   15.8324    4.7281 H   0  0  0  0  0  0  0  0  0  0  0  0
  2  3  1  0  0  0  0
  2  6  1  0  0  0  0
  2  1  1  6  0  0  0
  3  4  2  0  0  0  0
  3  5  1  0  0  0  0
  5 15  1  0  0  0  0
  5 16  1  0  0  0  0
  6 17  1  0  0  0  0
  7  6  1  1  0  0  0
  7  8  1  0  0  0  0
  7 10  1  0  0  0  0
  8  9  1  0  0  0  0
  9 10  1  0  0  0  0
  9 11  1  6  0  0  0
 11 12  1  0  0  0  0
 11 13  1  0  0  0  0
 11 14  1  0  0  0  0
M  CHG  1  11   1
M  END
>  <CHROM.0>
-55.89555349,175.07507699,59.85559871,-47.97683584,-62.45197455,-64.31204639
53.07020680,-61.41042245,-168.50298466

>  <CHROM.1>
-102.61147799,-76.76868720,163.22274866,-14.63270361,4.19248518,16.72307209
4.48939584,-0.54984464,-0.62381368,-2.08849743

>  <Name>
P137104234

>  <RI>
3.58524e+07

>  <Rbt.Current_Directory>
/home/fstefaniak/projects/zuza/docking/adenine/4XNR

>  <Rbt.Executable>
rbdock ($Id: //depot/dev/client3/rdock/2013.1/src/exe/rbdock.cxx#4 $)

>  <Rbt.Library>
libRbt.so (2013.1, Build901 2013/11/27)

>  <Rbt.Parameter_File>
/home/fstefaniak/progs/rDock//data/scripts/dock_solv.prm

>  <Rbt.Receptor>
4xnr.prm

>  <SCORE>
-47.2546

>  <SCORE.INTER>
-29.74

>  <SCORE.INTER.CONST>
1

>  <SCORE.INTER.POLAR>
-2.999

>  <SCORE.INTER.ROT>
3

>  <SCORE.INTER.SOLV>
18.0549

>  <SCORE.INTER.VDW>
-21.4483

>  <SCORE.INTER.norm>
-2.70364

>  <SCORE.INTRA>
1.09168

>  <SCORE.INTRA.DIHEDRAL>
1.74721

>  <SCORE.INTRA.DIHEDRAL.0>
3.16425

>  <SCORE.INTRA.POLAR>
0

>  <SCORE.INTRA.POLAR.0>
0

>  <SCORE.INTRA.REPUL>
0

>  <SCORE.INTRA.REPUL.0>
0

>  <SCORE.INTRA.SOLV>
-0.779514

>  <SCORE.INTRA.SOLV.lig_0>
-34.9228

>  <SCORE.INTRA.VDW>
0.607834

>  <SCORE.INTRA.VDW.0>
-0.0859856

>  <SCORE.INTRA.norm>
0.0992439

>  <SCORE.RESTR>
0

>  <SCORE.RESTR.CAVITY>
0

>  <SCORE.RESTR.norm>
0

>  <SCORE.SYSTEM>
-18.6063

>  <SCORE.SYSTEM.CONST>
0

>  <SCORE.SYSTEM.DIHEDRAL>
3.9238

>  <SCORE.SYSTEM.POLAR>
-2.96606

>  <SCORE.SYSTEM.SOLV>
0.168327

>  <SCORE.SYSTEM.VDW>
-3.88136

>  <SCORE.SYSTEM.norm>
-1.69148

>  <SCORE.heavy>
11

>  <SCORE.norm>
-4.29588

$$$$
P137159987
 OpenBabel12072022113D
libRbt.so/2013.1/901 2013/11/27
 14 15  0  0  0  0  0  0  0  0999 V2000
    6.4502   18.4877    6.9936 C   0  0  0  0  0  0  0  0  0  0  0  0
    7.8637   18.7326    6.4647 C   0  0  0  0  0  0  0  0  0  0  0  0
    7.5903   19.4096    5.1230 C   0  0  1  0  0  0  0  0  0  0  0  0
    7.0387   18.3981    4.1045 C   0  0  1  0  0  0  0  0  0  0  0  0
    5.6204   18.1531    4.6448 C   0  0  0  0  0  0  0  0  0  0  0  0
    5.5869   19.0629    5.8728 C   0  0  2  0  0  0  0  0  0  0  0  0
    6.3985   20.1786    5.4339 O   0  0  0  0  0  0  0  0  0  0  0  0
    7.0053   18.9638    2.7621 N   0  0  0  0  0  0  0  0  0  0  0  0
    6.8880   18.1502    1.6758 C   0  0  0  0  0  0  0  0  0  0  0  0
    6.5278   16.9838    1.6930 O   0  0  0  0  0  0  0  0  0  0  0  0
    7.2224   18.7835    0.5245 N   0  0  0  0  0  0  0  0  0  0  0  0
    6.5382   19.8569    2.6728 H   0  0  0  0  0  0  0  0  0  0  0  0
    8.1736   19.1137    0.4559 H   0  0  0  0  0  0  0  0  0  0  0  0
    6.8768   18.3127   -0.3024 H   0  0  0  0  0  0  0  0  0  0  0  0
  1  2  1  0  0  0  0
  3  2  1  1  0  0  0
  3  4  1  0  0  0  0
  3  7  1  0  0  0  0
  4  5  1  0  0  0  0
  4  8  1  6  0  0  0
  5  6  1  0  0  0  0
  6  1  1  1  0  0  0
  6  7  1  0  0  0  0
  8  9  1  0  0  0  0
  8 12  1  0  0  0  0
  9 10  2  0  0  0  0
  9 11  1  0  0  0  0
 11 13  1  0  0  0  0
 11 14  1  0  0  0  0
M  END
>  <CHROM.0>
-58.21662526,-63.96056262,-66.18709995,-49.76688128,58.78294310,-61.27381736
-68.75747340,-55.60451721,-168.93507452

>  <CHROM.1>
162.85552276,16.26275770,62.04833033,6.74455765,18.67115518,4.05646173,1.66345578
0.95021216,1.31773885

>  <Name>
P137159987

>  <RI>
3.02409e+07

>  <Rbt.Current_Directory>
/home/fstefaniak/projects/zuza/docking/adenine/4XNR

>  <Rbt.Executable>
rbdock ($Id: //depot/dev/client3/rdock/2013.1/src/exe/rbdock.cxx#4 $)

>  <Rbt.Library>
libRbt.so (2013.1, Build901 2013/11/27)

>  <Rbt.Parameter_File>
/home/fstefaniak/progs/rDock//data/scripts/dock_solv.prm

>  <Rbt.Receptor>
4xnr.prm

>  <SCORE>
-47.1253

>  <SCORE.INTER>
-27.1946

>  <SCORE.INTER.CONST>
1

>  <SCORE.INTER.POLAR>
-4.34892

>  <SCORE.INTER.ROT>
3

>  <SCORE.INTER.SOLV>
15.656

>  <SCORE.INTER.VDW>
-14.452

>  <SCORE.INTER.norm>
-2.47223

>  <SCORE.INTRA>
-0.0877777

>  <SCORE.INTRA.DIHEDRAL>
0.0184878

>  <SCORE.INTRA.DIHEDRAL.0>
1.26077

>  <SCORE.INTRA.POLAR>
0

>  <SCORE.INTRA.POLAR.0>
0

>  <SCORE.INTRA.REPUL>
0

>  <SCORE.INTRA.REPUL.0>
0

>  <SCORE.INTRA.SOLV>
-0.0740927

>  <SCORE.INTRA.SOLV.lig_0>
-14.2998

>  <SCORE.INTRA.VDW>
-0.0599752

>  <SCORE.INTRA.VDW.0>
-0.518619

>  <SCORE.INTRA.norm>
-0.00797979

>  <SCORE.RESTR>
0

>  <SCORE.RESTR.CAVITY>
0

>  <SCORE.RESTR.norm>
0

>  <SCORE.SYSTEM>
-19.8429

>  <SCORE.SYSTEM.CONST>
0

>  <SCORE.SYSTEM.DIHEDRAL>
3.87934

>  <SCORE.SYSTEM.POLAR>
-2.93077

>  <SCORE.SYSTEM.SOLV>
0.0739715

>  <SCORE.SYSTEM.VDW>
-4.77718

>  <SCORE.SYSTEM.norm>
-1.8039

>  <SCORE.heavy>
11

>  <SCORE.norm>
-4.28412

$$$$
P137159987
 OpenBabel12072022113D
libRbt.so/2013.1/901 2013/11/27
 14 15  0  0  0  0  0  0  0  0999 V2000
    6.4195   18.4733    6.9848 C   0  0  0  0  0  0  0  0  0  0  0  0
    7.8327   18.7602    6.4769 C   0  0  0  0  0  0  0  0  0  0  0  0
    7.5594   19.4206    5.1269 C   0  0  1  0  0  0  0  0  0  0  0  0
    7.0567   18.3864    4.1059 C   0  0  1  0  0  0  0  0  0  0  0  0
    5.6385   18.0992    4.6253 C   0  0  0  0  0  0  0  0  0  0  0  0
    5.5563   19.0143    5.8470 C   0  0  2  0  0  0  0  0  0  0  0  0
    6.3389   20.1529    5.4142 O   0  0  0  0  0  0  0  0  0  0  0  0
    7.0267   18.9433    2.7599 N   0  0  0  0  0  0  0  0  0  0  0  0
    6.9059   18.1230    1.6789 C   0  0  0  0  0  0  0  0  0  0  0  0
    6.5514   16.9550    1.7052 O   0  0  0  0  0  0  0  0  0  0  0  0
    7.2294   18.7513    0.5218 N   0  0  0  0  0  0  0  0  0  0  0  0
    6.5641   19.8380    2.6643 H   0  0  0  0  0  0  0  0  0  0  0  0
    8.1772   19.0897    0.4467 H   0  0  0  0  0  0  0  0  0  0  0  0
    6.8845   18.2717   -0.3003 H   0  0  0  0  0  0  0  0  0  0  0  0
  1  2  1  0  0  0  0
  3  2  1  1  0  0  0
  3  4  1  0  0  0  0
  3  7  1  0  0  0  0
  4  5  1  0  0  0  0
  4  8  1  6  0  0  0
  5  6  1  0  0  0  0
  6  1  1  1  0  0  0
  6  7  1  0  0  0  0
  8  9  1  0  0  0  0
  8 12  1  0  0  0  0
  9 10  2  0  0  0  0
  9 11  1  0  0  0  0
 11 13  1  0  0  0  0
 11 14  1  0  0  0  0
M  END
>  <CHROM.0>
-58.45474393,56.81236588,-63.22996781,-46.46540421,-178.17683886,-56.56452171
-66.34830129,-59.53683417,-169.10967981

>  <CHROM.1>
165.14836005,15.56055987,61.75130780,6.73747064,18.65042633,4.05224553,1.68069717
0.95861188,1.29972956

>  <Name>
P137159987

>  <RI>
3.02409e+07

>  <Rbt.Current_Directory>
/home/fstefaniak/projects/zuza/docking/adenine/4XNR

>  <Rbt.Executable>
rbdock ($Id: //depot/dev/client3/rdock/2013.1/src/exe/rbdock.cxx#4 $)

>  <Rbt.Library>
libRbt.so (2013.1, Build901 2013/11/27)

>  <Rbt.Parameter_File>
/home/fstefaniak/progs/rDock//data/scripts/dock_solv.prm

>  <Rbt.Receptor>
4xnr.prm

>  <SCORE>
-47.0963

>  <SCORE.INTER>
-27.1528

>  <SCORE.INTER.CONST>
1

>  <SCORE.INTER.POLAR>
-4.32998

>  <SCORE.INTER.ROT>
3

>  <SCORE.INTER.SOLV>
15.6491

>  <SCORE.INTER.VDW>
-14.4849

>  <SCORE.INTER.norm>
-2.46843

>  <SCORE.INTRA>
-0.0714338

>  <SCORE.INTRA.DIHEDRAL>
-0.00151707

>  <SCORE.INTRA.DIHEDRAL.0>
1.26077

>  <SCORE.INTRA.POLAR>
0

>  <SCORE.INTRA.POLAR.0>
0

>  <SCORE.INTRA.REPUL>
0

>  <SCORE.INTRA.REPUL.0>
0

>  <SCORE.INTRA.SOLV>
-0.0612336

>  <SCORE.INTRA.SOLV.lig_0>
-14.2998

>  <SCORE.INTRA.VDW>
-0.0400585

>  <SCORE.INTRA.VDW.0>
-0.518619

>  <SCORE.INTRA.norm>
-0.00649398

>  <SCORE.RESTR>
0

>  <SCORE.RESTR.CAVITY>
0

>  <SCORE.RESTR.norm>
0

>  <SCORE.SYSTEM>
-19.8721

>  <SCORE.SYSTEM.CONST>
0

>  <SCORE.SYSTEM.DIHEDRAL>
3.8665

>  <SCORE.SYSTEM.POLAR>
-2.98605

>  <SCORE.SYSTEM.SOLV>
0.220055

>  <SCORE.SYSTEM.VDW>
-4.65675

>  <SCORE.SYSTEM.norm>
-1.80655

>  <SCORE.heavy>
11

>  <SCORE.norm>
-4.28148

$$$$
P137159987
 OpenBabel12072022113D
libRbt.so/2013.1/901 2013/11/27
 14 15  0  0  0  0  0  0  0  0999 V2000
    6.4514   18.4917    6.9896 C   0  0  0  0  0  0  0  0  0  0  0  0
    7.8679   18.7226    6.4625 C   0  0  0  0  0  0  0  0  0  0  0  0
    7.6027   19.3904    5.1145 C   0  0  1  0  0  0  0  0  0  0  0  0
    7.0468   18.3744    4.1028 C   0  0  1  0  0  0  0  0  0  0  0  0
    5.6255   18.1435    4.6414 C   0  0  0  0  0  0  0  0  0  0  0  0
    5.5950   19.0636    5.8618 C   0  0  2  0  0  0  0  0  0  0  0  0
    6.4155   20.1701    5.4159 O   0  0  0  0  0  0  0  0  0  0  0  0
    7.0207   18.9294    2.7558 N   0  0  0  0  0  0  0  0  0  0  0  0
    6.9056   18.1073    1.6756 C   0  0  0  0  0  0  0  0  0  0  0  0
    6.5724   16.9332    1.7044 O   0  0  0  0  0  0  0  0  0  0  0  0
    7.2078   18.7418    0.5161 N   0  0  0  0  0  0  0  0  0  0  0  0
    6.5567   19.8231    2.6573 H   0  0  0  0  0  0  0  0  0  0  0  0
    8.1567   19.0720    0.4214 H   0  0  0  0  0  0  0  0  0  0  0  0
    6.8394   18.2717   -0.3014 H   0  0  0  0  0  0  0  0  0  0  0  0
  1  2  1  0  0  0  0
  3  2  1  1  0  0  0
  3  4  1  0  0  0  0
  3  7  1  0  0  0  0
  4  5  1  0  0  0  0
  4  8  1  6  0  0  0
  5  6  1  0  0  0  0
  6  1  1  1  0  0  0
  6  7  1  0  0  0  0
  8  9  1  0  0  0  0
  8 12  1  0  0  0  0
  9 10  2  0  0  0  0
  9 11  1  0  0  0  0
 11 13  1  0  0  0  0
 11 14  1  0  0  0  0
M  END
>  <CHROM.0>
-55.47564768,59.78168413,-71.92249731,-48.94386427,-58.60185528,-62.11009461
-172.40707762,-57.77965062,-168.21043523

>  <CHROM.1>
162.61829872,14.39996126,63.57894848,6.75537677,18.64927876,4.05150475,1.66869060
0.97621964,1.30394480

>  <Name>
P137159987

>  <RI>
3.02409e+07

>  <Rbt.Current_Directory>
/home/fstefaniak/projects/zuza/docking/adenine/4XNR

>  <Rbt.Executable>
rbdock ($Id: //depot/dev/client3/rdock/2013.1/src/exe/rbdock.cxx#4 $)

>  <Rbt.Library>
libRbt.so (2013.1, Build901 2013/11/27)

>  <Rbt.Parameter_File>
/home/fstefaniak/progs/rDock//data/scripts/dock_solv.prm

>  <Rbt.Receptor>
4xnr.prm

>  <SCORE>
-46.6613

>  <SCORE.INTER>
-27.1258

>  <SCORE.INTER.CONST>
1

>  <SCORE.INTER.POLAR>
-4.28178

>  <SCORE.INTER.ROT>
3

>  <SCORE.INTER.SOLV>
15.6483

>  <SCORE.INTER.VDW>
-14.6274

>  <SCORE.INTER.norm>
-2.46598

>  <SCORE.INTRA>
-0.0816238

>  <SCORE.INTRA.DIHEDRAL>
0.0212435

>  <SCORE.INTRA.DIHEDRAL.0>
1.26077

>  <SCORE.INTRA.POLAR>
0

>  <SCORE.INTRA.POLAR.0>
0

>  <SCORE.INTRA.REPUL>
0

>  <SCORE.INTRA.REPUL.0>
0

>  <SCORE.INTRA.SOLV>
-0.0742849

>  <SCORE.INTRA.SOLV.lig_0>
-14.2998

>  <SCORE.INTRA.VDW>
-0.0551031

>  <SCORE.INTRA.VDW.0>
-0.518619

>  <SCORE.INTRA.norm>
-0.00742034

>  <SCORE.RESTR>
0

>  <SCORE.RESTR.CAVITY>
0

>  <SCORE.RESTR.norm>
0

>  <SCORE.SYSTEM>
-19.4539

>  <SCORE.SYSTEM.CONST>
0

>  <SCORE.SYSTEM.DIHEDRAL>
4.35397

>  <SCORE.SYSTEM.POLAR>
-2.96881

>  <SCORE.SYSTEM.SOLV>
0.312832

>  <SCORE.SYSTEM.VDW>
-4.62881

>  <SCORE.SYSTEM.norm>
-1.76853

>  <SCORE.heavy>
11

>  <SCORE.norm>
-4.24194

$$$$
P137315312
 OpenBabel12072022113D
libRbt.so/2013.1/901 2013/11/27
 17 18  0  0  0  0  0  0  0  0999 V2000
    2.5857   12.4891    2.2099 C   0  0  0  0  0  0  0  0  0  0  0  0
    1.6446   13.3475    3.0589 C   0  0  0  0  0  0  0  0  0  0  0  0
    0.7483   12.4719    3.9378 C   0  0  0  0  0  0  0  0  0  0  0  0
    2.4617   14.3456    3.9352 C   0  0  0  0  0  0  0  0  0  0  0  0
    2.2440   14.4924    5.1386 O   0  0  0  0  0  0  0  0  0  0  0  0
    3.4415   15.0579    3.2752 N   0  0  0  0  0  0  0  0  0  0  0  0
    3.8602   16.3669    3.7602 C   0  0  2  0  0  0  0  0  0  0  0  0
    4.3044   17.2739    2.6040 C   0  0  0  0  0  0  0  0  0  0  0  0
    5.7529   17.5831    2.9814 C   0  0  1  0  0  0  0  0  0  0  0  0
    5.8119   18.5207    4.1861 C   0  0  0  0  0  0  0  0  0  0  0  0
    5.4002   17.5969    5.3325 C   0  0  0  0  0  0  0  0  0  0  0  0
    5.1468   16.2786    4.6043 C   0  0  2  0  0  0  0  0  0  0  0  0
    6.1679   16.3292    3.5707 O   0  0  0  0  0  0  0  0  0  0  0  0
    0.7737   14.1216    2.1414 N   0  0  0  0  0  0  0  0  0  0  0  0
    4.1164   14.5389    2.7267 H   0  0  0  0  0  0  0  0  0  0  0  0
    0.1508   14.6957    2.7158 H   0  0  0  0  0  0  0  0  0  0  0  0
    0.1314   13.4612    1.6949 H   0  0  0  0  0  0  0  0  0  0  0  0
  1  2  1  0  0  0  0
  2  3  1  0  0  0  0
  2  4  1  0  0  0  0
  2 14  1  0  0  0  0
  4  5  2  0  0  0  0
  4  6  1  0  0  0  0
  6 15  1  0  0  0  0
  7  6  1  6  0  0  0
  7  8  1  0  0  0  0
  7 12  1  0  0  0  0
  9  8  1  1  0  0  0
  9 10  1  0  0  0  0
  9 13  1  0  0  0  0
 10 11  1  0  0  0  0
 12 11  1  1  0  0  0
 12 13  1  0  0  0  0
 14 16  1  0  0  0  0
 14 17  1  0  0  0  0
M  END
>  <CHROM.0>
-60.03979176,51.16394914,-66.20936137,-46.83969652,63.19867007,-60.93976340
-72.45571042,57.02937053,-167.46595227

>  <CHROM.1>
-132.09429377,-179.75188923,153.08998210,-148.80117224,3.56751468,15.41176647
3.61433511,-2.93563171,0.78658630,1.47084131

>  <Name>
P137315312

>  <RI>
1.34432e+07

>  <Rbt.Current_Directory>
/home/fstefaniak/projects/zuza/docking/adenine/4XNR

>  <Rbt.Executable>
rbdock ($Id: //depot/dev/client3/rdock/2013.1/src/exe/rbdock.cxx#4 $)

>  <Rbt.Library>
libRbt.so (2013.1, Build901 2013/11/27)

>  <Rbt.Parameter_File>
/home/fstefaniak/progs/rDock//data/scripts/dock_solv.prm

>  <Rbt.Receptor>
4xnr.prm

>  <SCORE>
-45.2211

>  <SCORE.INTER>
-29.1078

>  <SCORE.INTER.CONST>
1

>  <SCORE.INTER.POLAR>
-3.82373

>  <SCORE.INTER.ROT>
4

>  <SCORE.INTER.SOLV>
11.2788

>  <SCORE.INTER.VDW>
-16.6857

>  <SCORE.INTER.norm>
-2.07913

>  <SCORE.INTRA>
1.80785

>  <SCORE.INTRA.DIHEDRAL>
0.430595

>  <SCORE.INTRA.DIHEDRAL.0>
1.28683

>  <SCORE.INTRA.POLAR>
0

>  <SCORE.INTRA.POLAR.0>
0

>  <SCORE.INTRA.REPUL>
0

>  <SCORE.INTRA.REPUL.0>
0

>  <SCORE.INTRA.SOLV>
-0.0540619

>  <SCORE.INTRA.SOLV.lig_0>
-11.654

>  <SCORE.INTRA.VDW>
1.61958

>  <SCORE.INTRA.VDW.0>
-0.365778

>  <SCORE.INTRA.norm>
0.129132

>  <SCORE.RESTR>
0.0826067

>  <SCORE.RESTR.CAVITY>
0.0826067

>  <SCORE.RESTR.norm>
0.00590048

>  <SCORE.SYSTEM>
-18.0038

>  <SCORE.SYSTEM.CONST>
0

>  <SCORE.SYSTEM.DIHEDRAL>
4.94566

>  <SCORE.SYSTEM.POLAR>
-3.00854

>  <SCORE.SYSTEM.SOLV>
-0.00352854

>  <SCORE.SYSTEM.VDW>
-3.62148

>  <SCORE.SYSTEM.norm>
-1.28599

>  <SCORE.heavy>
14

>  <SCORE.norm>
-3.23008

$$$$
P137315312
 OpenBabel12072022113D
libRbt.so/2013.1/901 2013/11/27
 17 18  0  0  0  0  0  0  0  0999 V2000
    2.5886   12.4908    2.2124 C   0  0  0  0  0  0  0  0  0  0  0  0
    1.6540   13.3414    3.0764 C   0  0  0  0  0  0  0  0  0  0  0  0
    0.7565   12.4574    3.9458 C   0  0  0  0  0  0  0  0  0  0  0  0
    2.4784   14.3234    3.9640 C   0  0  0  0  0  0  0  0  0  0  0  0
    2.2958   14.4210    5.1782 O   0  0  0  0  0  0  0  0  0  0  0  0
    3.4225   15.0800    3.3015 N   0  0  0  0  0  0  0  0  0  0  0  0
    3.8209   16.3843    3.8153 C   0  0  2  0  0  0  0  0  0  0  0  0
    4.2127   17.3363    2.6765 C   0  0  0  0  0  0  0  0  0  0  0  0
    5.6623   17.6711    3.0269 C   0  0  1  0  0  0  0  0  0  0  0  0
    5.7289   18.5737    4.2576 C   0  0  0  0  0  0  0  0  0  0  0  0
    5.3697   17.6061    5.3853 C   0  0  0  0  0  0  0  0  0  0  0  0
    5.1306   16.3039    4.6241 C   0  0  2  0  0  0  0  0  0  0  0  0
    6.1233   16.4113    3.5674 O   0  0  0  0  0  0  0  0  0  0  0  0
    0.7838   14.1322    2.1726 N   0  0  0  0  0  0  0  0  0  0  0  0
    4.0956   14.5950    2.7205 H   0  0  0  0  0  0  0  0  0  0  0  0
    0.1552   14.6899    2.7570 H   0  0  0  0  0  0  0  0  0  0  0  0
    0.1469   13.4792    1.7080 H   0  0  0  0  0  0  0  0  0  0  0  0
  1  2  1  0  0  0  0
  2  3  1  0  0  0  0
  2  4  1  0  0  0  0
  2 14  1  0  0  0  0
  4  5  2  0  0  0  0
  4  6  1  0  0  0  0
  6 15  1  0  0  0  0
  7  6  1  6  0  0  0
  7  8  1  0  0  0  0
  7 12  1  0  0  0  0
  9  8  1  1  0  0  0
  9 10  1  0  0  0  0
  9 13  1  0  0  0  0
 10 11  1  0  0  0  0
 12 11  1  1  0  0  0
 12 13  1  0  0  0  0
 14 16  1  0  0  0  0
 14 17  1  0  0  0  0
M  END
>  <CHROM.0>
-54.11071196,47.04616985,61.79039977,-46.38845769,-59.50502175,57.77452619
52.95664803,-57.57216176,-168.82026665

>  <CHROM.1>
-129.57066551,179.37527840,152.50186694,-148.82671982,3.54576082,15.43000089
3.64698612,-2.97729814,0.81275668,1.53681435

>  <Name>
P137315312

>  <RI>
1.34432e+07

>  <Rbt.Current_Directory>
/home/fstefaniak/projects/zuza/docking/adenine/4XNR

>  <Rbt.Executable>
rbdock ($Id: //depot/dev/client3/rdock/2013.1/src/exe/rbdock.cxx#4 $)

>  <Rbt.Library>
libRbt.so (2013.1, Build901 2013/11/27)

>  <Rbt.Parameter_File>
/home/fstefaniak/progs/rDock//data/scripts/dock_solv.prm

>  <Rbt.Receptor>
4xnr.prm

>  <SCORE>
-44.1068

>  <SCORE.INTER>
-28.9688

>  <SCORE.INTER.CONST>
1

>  <SCORE.INTER.POLAR>
-3.80724

>  <SCORE.INTER.ROT>
4

>  <SCORE.INTER.SOLV>
11.1444

>  <SCORE.INTER.VDW>
-16.6032

>  <SCORE.INTER.norm>
-2.0692

>  <SCORE.INTRA>
1.64797

>  <SCORE.INTRA.DIHEDRAL>
0.31619

>  <SCORE.INTRA.DIHEDRAL.0>
1.28683

>  <SCORE.INTRA.POLAR>
0

>  <SCORE.INTRA.POLAR.0>
0

>  <SCORE.INTRA.REPUL>
0

>  <SCORE.INTRA.REPUL.0>
0

>  <SCORE.INTRA.SOLV>
-0.0472788

>  <SCORE.INTRA.SOLV.lig_0>
-11.654

>  <SCORE.INTRA.VDW>
1.51352

>  <SCORE.INTRA.VDW.0>
-0.365778

>  <SCORE.INTRA.norm>
0.117712

>  <SCORE.RESTR>
0.0820465

>  <SCORE.RESTR.CAVITY>
0.0820465

>  <SCORE.RESTR.norm>
0.00586047

>  <SCORE.SYSTEM>
-16.868

>  <SCORE.SYSTEM.CONST>
0

>  <SCORE.SYSTEM.DIHEDRAL>
4.76911

>  <SCORE.SYSTEM.POLAR>
-3.06303

>  <SCORE.SYSTEM.SOLV>
0.193335

>  <SCORE.SYSTEM.VDW>
-2.68942

>  <SCORE.SYSTEM.norm>
-1.20486

>  <SCORE.heavy>
14

>  <SCORE.norm>
-3.15049

$$$$
P137315312
 OpenBabel12072022113D
libRbt.so/2013.1/901 2013/11/27
 17 18  0  0  0  0  0  0  0  0999 V2000
    6.2522   18.0874    1.8412 C   0  0  0  0  0  0  0  0  0  0  0  0
    5.6611   17.2449    2.9744 C   0  0  0  0  0  0  0  0  0  0  0  0
    6.1216   17.7625    4.3391 C   0  0  0  0  0  0  0  0  0  0  0  0
    4.1039   17.2369    2.8901 C   0  0  0  0  0  0  0  0  0  0  0  0
    3.4886   17.9034    2.0568 O   0  0  0  0  0  0  0  0  0  0  0  0
    3.4588   16.4391    3.8121 N   0  0  0  0  0  0  0  0  0  0  0  0
    2.8405   15.1844    3.4029 C   0  0  2  0  0  0  0  0  0  0  0  0
    1.3227   15.2100    3.6316 C   0  0  0  0  0  0  0  0  0  0  0  0
    1.1270   14.0402    4.5957 C   0  0  1  0  0  0  0  0  0  0  0  0
    1.3370   12.7065    3.8809 C   0  0  0  0  0  0  0  0  0  0  0  0
    2.8535   12.6796    3.6899 C   0  0  0  0  0  0  0  0  0  0  0  0
    3.2759   14.0124    4.3044 C   0  0  2  0  0  0  0  0  0  0  0  0
    2.3263   14.1291    5.3991 O   0  0  0  0  0  0  0  0  0  0  0  0
    6.1537   15.8546    2.8198 N   0  0  0  0  0  0  0  0  0  0  0  0
    3.7419   16.5117    4.7818 H   0  0  0  0  0  0  0  0  0  0  0  0
    5.3429   15.2566    2.6392 H   0  0  0  0  0  0  0  0  0  0  0  0
    6.4737   15.5366    3.7388 H   0  0  0  0  0  0  0  0  0  0  0  0
  1  2  1  0  0  0  0
  2  3  1  0  0  0  0
  2  4  1  0  0  0  0
  2 14  1  0  0  0  0
  4  5  2  0  0  0  0
  4  6  1  0  0  0  0
  6 15  1  0  0  0  0
  7  6  1  1  0  0  0
  7  8  1  0  0  0  0
  7 12  1  0  0  0  0
  9  8  1  6  0  0  0
  9 10  1  0  0  0  0
  9 13  1  0  0  0  0
 10 11  1  0  0  0  0
 12 11  1  6  0  0  0
 12 13  1  0  0  0  0
 14 16  1  0  0  0  0
 14 17  1  0  0  0  0
M  END
>  <CHROM.0>
-64.40487294,35.66474779,-66.24417225,-47.88423678,-55.74348538,-64.68203840
-66.50796897,-178.74654978,-168.17068138

>  <CHROM.1>
-4.15824875,-116.39384929,-106.66590692,-117.27629647,3.62300580,15.62556944
3.55127233,0.84629842,-0.04846292,-0.40338179

>  <Name>
P137315312

>  <RI>
1.34432e+07

>  <Rbt.Current_Directory>
/home/fstefaniak/projects/zuza/docking/adenine/4XNR

>  <Rbt.Executable>
rbdock ($Id: //depot/dev/client3/rdock/2013.1/src/exe/rbdock.cxx#4 $)

>  <Rbt.Library>
libRbt.so (2013.1, Build901 2013/11/27)

>  <Rbt.Parameter_File>
/home/fstefaniak/progs/rDock//data/scripts/dock_solv.prm

>  <Rbt.Receptor>
4xnr.prm

>  <SCORE>
-43.3903

>  <SCORE.INTER>
-27.8403

>  <SCORE.INTER.CONST>
1

>  <SCORE.INTER.POLAR>
-3.92842

>  <SCORE.INTER.ROT>
4

>  <SCORE.INTER.SOLV>
12.1495

>  <SCORE.INTER.VDW>
-15.782

>  <SCORE.INTER.norm>
-1.98859

>  <SCORE.INTRA>
3.84764

>  <SCORE.INTRA.DIHEDRAL>
3.41011

>  <SCORE.INTRA.DIHEDRAL.0>
1.28683

>  <SCORE.INTRA.POLAR>
0

>  <SCORE.INTRA.POLAR.0>
0

>  <SCORE.INTRA.REPUL>
0

>  <SCORE.INTRA.REPUL.0>
0

>  <SCORE.INTRA.SOLV>
0.37705

>  <SCORE.INTRA.SOLV.lig_0>
-11.654

>  <SCORE.INTRA.VDW>
1.95406

>  <SCORE.INTRA.VDW.0>
-0.365778

>  <SCORE.INTRA.norm>
0.274831

>  <SCORE.RESTR>
0

>  <SCORE.RESTR.CAVITY>
0

>  <SCORE.RESTR.norm>
0

>  <SCORE.SYSTEM>
-19.3977

>  <SCORE.SYSTEM.CONST>
0

>  <SCORE.SYSTEM.DIHEDRAL>
6.57146

>  <SCORE.SYSTEM.POLAR>
-3.08912

>  <SCORE.SYSTEM.SOLV>
0.282471

>  <SCORE.SYSTEM.VDW>
-4.91935

>  <SCORE.SYSTEM.norm>
-1.38555

>  <SCORE.heavy>
14

>  <SCORE.norm>
-3.09931

$$$$
P137317917
 OpenBabel12072022113D
libRbt.so/2013.1/901 2013/11/27
 18 19  0  0  0  0  0  0  0  0999 V2000
    6.6190   18.5863    3.4962 C   0  0  0  0  0  0  0  0  0  0  0  0
    5.9932   18.1790    4.8295 C   0  0  0  0  0  0  0  0  0  0  0  0
    5.3048   16.8643    4.4743 C   0  0  1  0  0  0  0  0  0  0  0  0
    4.0687   17.1135    3.5903 C   0  0  1  0  0  0  0  0  0  0  0  0
    4.7091   17.5094    2.2521 C   0  0  0  0  0  0  0  0  0  0  0  0
    6.2019   17.4399    2.5793 C   0  0  2  0  0  0  0  0  0  0  0  0
    6.2267   16.3110    3.4944 O   0  0  0  0  0  0  0  0  0  0  0  0
    3.1761   15.9303    3.4532 N   0  0  0  0  0  0  0  0  0  0  0  0
    1.8954   15.8008    3.8603 C   0  0  0  0  0  0  0  0  0  0  0  0
    1.2095   16.7871    4.5101 N   0  3  0  0  0  0  0  0  0  0  0  0
    1.5670   17.7515    4.5717 H   0  0  0  0  0  0  0  0  0  0  0  0
   -0.1011   16.5478    4.9552 N   0  0  0  0  0  0  0  0  0  0  0  0
    1.2591   14.6402    3.6165 N   0  0  0  0  0  0  0  0  0  0  0  0
    3.5724   15.1226    2.9910 H   0  0  0  0  0  0  0  0  0  0  0  0
   -0.0784   16.3715    5.9673 H   0  0  0  0  0  0  0  0  0  0  0  0
   -0.6468   17.4118    4.8389 H   0  0  0  0  0  0  0  0  0  0  0  0
    1.6755   13.8578    3.1363 H   0  0  0  0  0  0  0  0  0  0  0  0
    0.2686   14.6139    3.8332 H   0  0  0  0  0  0  0  0  0  0  0  0
  1  2  1  0  0  0  0
  3  2  1  6  0  0  0
  3  4  1  0  0  0  0
  3  7  1  0  0  0  0
  4  5  1  0  0  0  0
  4  8  1  6  0  0  0
  5  6  1  0  0  0  0
  6  1  1  1  0  0  0
  6  7  1  0  0  0  0
  8  9  1  0  0  0  0
  8 14  1  0  0  0  0
  9 10  2  0  0  0  0
  9 13  1  0  0  0  0
 10 11  1  0  0  0  0
 10 12  1  0  0  0  0
 12 15  1  0  0  0  0
 12 16  1  0  0  0  0
 13 17  1  0  0  0  0
 13 18  1  0  0  0  0
M  CHG  1  10   1
M  END
>  <CHROM.0>
-55.43281368,-62.01780488,-72.72592681,-47.28565144,-177.34995939,-64.59720968
-172.05765993,-60.05810599,-168.03509872

>  <CHROM.1>
116.63910286,102.24362004,3.80898678,16.77610850,3.77498058,0.16147384,0.30265611
0.63600641

>  <Name>
P137317917

>  <RI>
2.22087e+07

>  <Rbt.Current_Directory>
/home/fstefaniak/projects/zuza/docking/adenine/4XNR

>  <Rbt.Executable>
rbdock ($Id: //depot/dev/client3/rdock/2013.1/src/exe/rbdock.cxx#4 $)

>  <Rbt.Library>
libRbt.so (2013.1, Build901 2013/11/27)

>  <Rbt.Parameter_File>
/home/fstefaniak/progs/rDock//data/scripts/dock_solv.prm

>  <Rbt.Receptor>
4xnr.prm

>  <SCORE>
-50.9457

>  <SCORE.INTER>
-32.7957

>  <SCORE.INTER.CONST>
1

>  <SCORE.INTER.POLAR>
-4.37876

>  <SCORE.INTER.ROT>
2

>  <SCORE.INTER.SOLV>
17.735

>  <SCORE.INTER.VDW>
-18.1129

>  <SCORE.INTER.norm>
-2.73297

>  <SCORE.INTRA>
2.26443

>  <SCORE.INTRA.DIHEDRAL>
0.164404

>  <SCORE.INTRA.DIHEDRAL.0>
3.19751

>  <SCORE.INTRA.POLAR>
0.99435

>  <SCORE.INTRA.POLAR.0>
-1.06683

>  <SCORE.INTRA.REPUL>
0

>  <SCORE.INTRA.REPUL.0>
0

>  <SCORE.INTRA.SOLV>
-2.09442

>  <SCORE.INTRA.SOLV.lig_0>
-28.1807

>  <SCORE.INTRA.VDW>
-0.151356

>  <SCORE.INTRA.VDW.0>
-0.821501

>  <SCORE.INTRA.norm>
0.188702

>  <SCORE.RESTR>
0

>  <SCORE.RESTR.CAVITY>
0

>  <SCORE.RESTR.norm>
0

>  <SCORE.SYSTEM>
-20.4144

>  <SCORE.SYSTEM.CONST>
0

>  <SCORE.SYSTEM.DIHEDRAL>
4.75487

>  <SCORE.SYSTEM.POLAR>
-2.98779

>  <SCORE.SYSTEM.SOLV>
0.0540315

>  <SCORE.SYSTEM.VDW>
-5.25327

>  <SCORE.SYSTEM.norm>
-1.7012

>  <SCORE.heavy>
12

>  <SCORE.norm>
-4.24547

$$$$
P137317917
 OpenBabel12072022113D
libRbt.so/2013.1/901 2013/11/27
 18 19  0  0  0  0  0  0  0  0999 V2000
    6.5313   18.5822    3.1927 C   0  0  0  0  0  0  0  0  0  0  0  0
    6.2718   17.8707    4.5200 C   0  0  0  0  0  0  0  0  0  0  0  0
    5.5017   16.6304    4.0757 C   0  0  1  0  0  0  0  0  0  0  0  0
    4.0800   17.0028    3.6156 C   0  0  1  0  0  0  0  0  0  0  0  0
    4.3524   17.7049    2.2775 C   0  0  0  0  0  0  0  0  0  0  0  0
    5.8780   17.6388    2.1866 C   0  0  2  0  0  0  0  0  0  0  0  0
    6.1301   16.3433    2.7955 O   0  0  0  0  0  0  0  0  0  0  0  0
    3.1711   15.8348    3.4578 N   0  0  0  0  0  0  0  0  0  0  0  0
    1.8883   15.7163    3.8617 C   0  0  0  0  0  0  0  0  0  0  0  0
    1.2156   16.7010    4.5276 N   0  3  0  0  0  0  0  0  0  0  0  0
    1.5865   17.6591    4.6057 H   0  0  0  0  0  0  0  0  0  0  0  0
   -0.0986   16.4725    4.9677 N   0  0  0  0  0  0  0  0  0  0  0  0
    1.2361   14.5690    3.5979 N   0  0  0  0  0  0  0  0  0  0  0  0
    3.5565   15.0295    2.9824 H   0  0  0  0  0  0  0  0  0  0  0  0
   -0.4669   17.3427    5.3715 H   0  0  0  0  0  0  0  0  0  0  0  0
   -0.6874   16.2797    4.1467 H   0  0  0  0  0  0  0  0  0  0  0  0
    1.6420   13.7891    3.1049 H   0  0  0  0  0  0  0  0  0  0  0  0
    0.2451   14.5529    3.8134 H   0  0  0  0  0  0  0  0  0  0  0  0
  1  2  1  0  0  0  0
  3  2  1  6  0  0  0
  3  4  1  0  0  0  0
  3  7  1  0  0  0  0
  4  5  1  0  0  0  0
  4  8  1  6  0  0  0
  5  6  1  0  0  0  0
  6  1  1  1  0  0  0
  6  7  1  0  0  0  0
  8  9  1  0  0  0  0
  8 14  1  0  0  0  0
  9 10  2  0  0  0  0
  9 13  1  0  0  0  0
 10 11  1  0  0  0  0
 10 12  1  0  0  0  0
 12 15  1  0  0  0  0
 12 16  1  0  0  0  0
 13 17  1  0  0  0  0
 13 18  1  0  0  0  0
M  CHG  1  10   1
M  END
>  <CHROM.0>
-56.60176774,43.00846161,-58.64322194,-46.60517336,-175.09880443,-63.53952869
-65.67543201,60.14610955,-168.04136078

>  <CHROM.1>
135.87337039,-175.22825988,3.77264173,16.72290953,3.59697600,0.17297142,0.33414766
0.51891148

>  <Name>
P137317917

>  <RI>
2.22087e+07

>  <Rbt.Current_Directory>
/home/fstefaniak/projects/zuza/docking/adenine/4XNR

>  <Rbt.Executable>
rbdock ($Id: //depot/dev/client3/rdock/2013.1/src/exe/rbdock.cxx#4 $)

>  <Rbt.Library>
libRbt.so (2013.1, Build901 2013/11/27)

>  <Rbt.Parameter_File>
/home/fstefaniak/progs/rDock//data/scripts/dock_solv.prm

>  <Rbt.Receptor>
4xnr.prm

>  <SCORE>
-49.9808

>  <SCORE.INTER>
-33.8467

>  <SCORE.INTER.CONST>
1

>  <SCORE.INTER.POLAR>
-5.22742

>  <SCORE.INTER.ROT>
2

>  <SCORE.INTER.SOLV>
17.4407

>  <SCORE.INTER.VDW>
-15.8866

>  <SCORE.INTER.norm>
-2.82056

>  <SCORE.INTRA>
2.58864

>  <SCORE.INTRA.DIHEDRAL>
0.00512594

>  <SCORE.INTRA.DIHEDRAL.0>
3.19751

>  <SCORE.INTRA.POLAR>
1.02642

>  <SCORE.INTRA.POLAR.0>
-1.06683

>  <SCORE.INTRA.REPUL>
0

>  <SCORE.INTRA.REPUL.0>
0

>  <SCORE.INTRA.SOLV>
-1.8883

>  <SCORE.INTRA.SOLV.lig_0>
-28.1807

>  <SCORE.INTRA.VDW>
0.040417

>  <SCORE.INTRA.VDW.0>
-0.821501

>  <SCORE.INTRA.norm>
0.21572

>  <SCORE.RESTR>
0

>  <SCORE.RESTR.CAVITY>
0

>  <SCORE.RESTR.norm>
0

>  <SCORE.SYSTEM>
-18.7227

>  <SCORE.SYSTEM.CONST>
0

>  <SCORE.SYSTEM.DIHEDRAL>
5.27013

>  <SCORE.SYSTEM.POLAR>
-3.10225

>  <SCORE.SYSTEM.SOLV>
0.0842667

>  <SCORE.SYSTEM.VDW>
-3.9258

>  <SCORE.SYSTEM.norm>
-1.56023

>  <SCORE.heavy>
12

>  <SCORE.norm>
-4.16507

$$$$
P137317917
 OpenBabel12072022113D
libRbt.so/2013.1/901 2013/11/27
 18 19  0  0  0  0  0  0  0  0999 V2000
    6.3432   18.5892    3.2069 C   0  0  0  0  0  0  0  0  0  0  0  0
    6.2742   17.8409    4.5375 C   0  0  0  0  0  0  0  0  0  0  0  0
    5.4740   16.5958    4.1660 C   0  0  1  0  0  0  0  0  0  0  0  0
    3.9976   16.9492    3.9074 C   0  0  1  0  0  0  0  0  0  0  0  0
    4.0780   17.6887    2.5641 C   0  0  0  0  0  0  0  0  0  0  0  0
    5.5792   17.6567    2.2711 C   0  0  2  0  0  0  0  0  0  0  0  0
    5.9323   16.3526    2.8069 O   0  0  0  0  0  0  0  0  0  0  0  0
    3.0965   15.7665    3.8400 N   0  0  0  0  0  0  0  0  0  0  0  0
    1.7862   15.6978    4.1581 C   0  0  0  0  0  0  0  0  0  0  0  0
    1.0709   16.7600    4.6327 N   0  3  0  0  0  0  0  0  0  0  0  0
    1.4403   17.7216    4.6091 H   0  0  0  0  0  0  0  0  0  0  0  0
   -0.2741   16.5870    4.9990 N   0  0  0  0  0  0  0  0  0  0  0  0
    1.1492   14.5225    4.0025 N   0  0  0  0  0  0  0  0  0  0  0  0
    3.5120   14.9063    3.5076 H   0  0  0  0  0  0  0  0  0  0  0  0
   -0.6271   17.4717    5.3844 H   0  0  0  0  0  0  0  0  0  0  0  0
   -0.8243   16.4198    4.1462 H   0  0  0  0  0  0  0  0  0  0  0  0
    1.5866   13.6852    3.6509 H   0  0  0  0  0  0  0  0  0  0  0  0
    0.1447   14.5311    4.1427 H   0  0  0  0  0  0  0  0  0  0  0  0
  1  2  1  0  0  0  0
  3  2  1  6  0  0  0
  3  4  1  0  0  0  0
  3  7  1  0  0  0  0
  4  5  1  0  0  0  0
  4  8  1  6  0  0  0
  5  6  1  0  0  0  0
  6  1  1  1  0  0  0
  6  7  1  0  0  0  0
  8  9  1  0  0  0  0
  8 14  1  0  0  0  0
  9 10  2  0  0  0  0
  9 13  1  0  0  0  0
 10 11  1  0  0  0  0
 10 12  1  0  0  0  0
 12 15  1  0  0  0  0
 12 16  1  0  0  0  0
 13 17  1  0  0  0  0
 13 18  1  0  0  0  0
M  CHG  1  10   1
M  END
>  <CHROM.0>
-56.50932460,-65.22573549,59.81492602,-48.18821031,60.79136203,-62.80277315
53.12742242,-58.78192053,-168.21753244

>  <CHROM.1>
150.97766020,176.49073714,3.63501101,16.71923993,3.76422287,0.24838190,0.28979982
0.22658747

>  <Name>
P137317917

>  <RI>
2.22087e+07

>  <Rbt.Current_Directory>
/home/fstefaniak/projects/zuza/docking/adenine/4XNR

>  <Rbt.Executable>
rbdock ($Id: //depot/dev/client3/rdock/2013.1/src/exe/rbdock.cxx#4 $)

>  <Rbt.Library>
libRbt.so (2013.1, Build901 2013/11/27)

>  <Rbt.Parameter_File>
/home/fstefaniak/progs/rDock//data/scripts/dock_solv.prm

>  <Rbt.Receptor>
4xnr.prm

>  <SCORE>
-49.7106

>  <SCORE.INTER>
-34.0505

>  <SCORE.INTER.CONST>
1

>  <SCORE.INTER.POLAR>
-5.69811

>  <SCORE.INTER.ROT>
2

>  <SCORE.INTER.SOLV>
17.574

>  <SCORE.INTER.VDW>
-14.498

>  <SCORE.INTER.norm>
-2.83754

>  <SCORE.INTRA>
2.37947

>  <SCORE.INTRA.DIHEDRAL>
-0.0566269

>  <SCORE.INTRA.DIHEDRAL.0>
3.19751

>  <SCORE.INTRA.POLAR>
1.01522

>  <SCORE.INTRA.POLAR.0>
-1.06683

>  <SCORE.INTRA.REPUL>
0

>  <SCORE.INTRA.REPUL.0>
0

>  <SCORE.INTRA.SOLV>
-1.87605

>  <SCORE.INTRA.SOLV.lig_0>
-28.1807

>  <SCORE.INTRA.VDW>
-0.105949

>  <SCORE.INTRA.VDW.0>
-0.821501

>  <SCORE.INTRA.norm>
0.198289

>  <SCORE.RESTR>
0

>  <SCORE.RESTR.CAVITY>
0

>  <SCORE.RESTR.norm>
0

>  <SCORE.SYSTEM>
-18.0396

>  <SCORE.SYSTEM.CONST>
0

>  <SCORE.SYSTEM.DIHEDRAL>
3.84393

>  <SCORE.SYSTEM.POLAR>
-2.96618

>  <SCORE.SYSTEM.SOLV>
-0.0197542

>  <SCORE.SYSTEM.VDW>
-3.41386

>  <SCORE.SYSTEM.norm>
-1.5033

>  <SCORE.heavy>
12

>  <SCORE.norm>
-4.14255

$$$$
P137721766
 OpenBabel12072022113D
libRbt.so/2013.1/901 2013/11/27
 17 18  0  0  0  0  0  0  0  0999 V2000
    2.5425   11.9257    3.9367 C   0  0  0  0  0  0  0  0  0  0  0  0
    2.5460   12.7253    5.2389 C   0  0  0  0  0  0  0  0  0  0  0  0
    2.3406   14.2235    4.9786 C   0  0  2  0  0  0  0  0  0  0  0  0
    1.1214   14.4267    4.0683 C   0  0  0  0  0  0  0  0  0  0  0  0
    1.2774   13.6919    2.8453 O   0  0  0  0  0  0  0  0  0  0  0  0
    1.3354   12.2833    3.0790 C   0  0  0  0  0  0  0  0  0  0  0  0
    3.5243   14.8086    4.3548 N   0  0  0  0  0  0  0  0  0  0  0  0
    3.5439   16.0882    3.8317 C   0  0  0  0  0  0  0  0  0  0  0  0
    2.5174   16.7693    3.7849 O   0  0  0  0  0  0  0  0  0  0  0  0
    4.9738   16.5596    3.3356 C   0  0  0  0  0  0  0  0  0  0  0  0
    5.0313   17.6696    2.2513 C   0  0  0  0  0  0  0  0  0  0  0  0
    6.2025   18.3173    3.0158 C   0  0  0  0  0  0  0  0  0  0  0  0
    5.7761   17.5135    4.2598 C   0  0  0  0  0  0  0  0  0  0  0  0
    5.8953   15.4777    2.9049 N   0  0  0  0  0  0  0  0  0  0  0  0
    4.4076   14.3354    4.4951 H   0  0  0  0  0  0  0  0  0  0  0  0
    5.4189   14.6519    2.5443 H   0  0  0  0  0  0  0  0  0  0  0  0
    6.5596   15.1727    3.6124 H   0  0  0  0  0  0  0  0  0  0  0  0
  1  2  1  0  0  0  0
  1  6  1  0  0  0  0
  2  3  1  0  0  0  0
  3  4  1  0  0  0  0
  3  7  1  6  0  0  0
  4  5  1  0  0  0  0
  5  6  1  0  0  0  0
  7  8  1  0  0  0  0
  7 15  1  0  0  0  0
  8  9  2  0  0  0  0
  8 10  1  0  0  0  0
 10 11  1  0  0  0  0
 10 13  1  0  0  0  0
 10 14  1  0  0  0  0
 11 12  1  0  0  0  0
 12 13  1  0  0  0  0
 14 16  1  0  0  0  0
 14 17  1  0  0  0  0
M  END
>  <CHROM.0>
-56.83929371,-61.70901800,-53.93699280,51.71046953,-58.68258983,-63.19087863
-65.57699250,-59.03360349,-168.58584951

>  <CHROM.1>
170.11881200,155.72448471,28.23218505,3.46191991,15.15278216,3.69199923,-2.26492590
-0.02397807,-0.18051889

>  <Name>
P137721766

>  <RI>
1.34432e+07

>  <Rbt.Current_Directory>
/home/fstefaniak/projects/zuza/docking/adenine/4XNR

>  <Rbt.Executable>
rbdock ($Id: //depot/dev/client3/rdock/2013.1/src/exe/rbdock.cxx#4 $)

>  <Rbt.Library>
libRbt.so (2013.1, Build901 2013/11/27)

>  <Rbt.Parameter_File>
/home/fstefaniak/progs/rDock//data/scripts/dock_solv.prm

>  <Rbt.Receptor>
4xnr.prm

>  <SCORE>
-41.6549

>  <SCORE.INTER>
-26.1284

>  <SCORE.INTER.CONST>
1

>  <SCORE.INTER.POLAR>
-3.3843

>  <SCORE.INTER.ROT>
3

>  <SCORE.INTER.SOLV>
11.5765

>  <SCORE.INTER.VDW>
-15.5968

>  <SCORE.INTER.norm>
-1.86631

>  <SCORE.INTRA>
1.59379

>  <SCORE.INTRA.DIHEDRAL>
0.189717

>  <SCORE.INTRA.DIHEDRAL.0>
4.27198

>  <SCORE.INTRA.POLAR>
0

>  <SCORE.INTRA.POLAR.0>
0

>  <SCORE.INTRA.REPUL>
0

>  <SCORE.INTRA.REPUL.0>
0

>  <SCORE.INTRA.SOLV>
0.200996

>  <SCORE.INTRA.SOLV.lig_0>
-12.4287

>  <SCORE.INTRA.VDW>
1.39843

>  <SCORE.INTRA.VDW.0>
-1.93606

>  <SCORE.INTRA.norm>
0.113842

>  <SCORE.RESTR>
0.247311

>  <SCORE.RESTR.CAVITY>
0.247311

>  <SCORE.RESTR.norm>
0.0176651

>  <SCORE.SYSTEM>
-17.3676

>  <SCORE.SYSTEM.CONST>
0

>  <SCORE.SYSTEM.DIHEDRAL>
3.46321

>  <SCORE.SYSTEM.POLAR>
-2.46438

>  <SCORE.SYSTEM.SOLV>
0.255767

>  <SCORE.SYSTEM.VDW>
-4.60344

>  <SCORE.SYSTEM.norm>
-1.24054

>  <SCORE.heavy>
14

>  <SCORE.norm>
-2.97535

$$$$
P137721766
 OpenBabel12072022113D
libRbt.so/2013.1/901 2013/11/27
 17 18  0  0  0  0  0  0  0  0999 V2000
    5.8193   18.8503    4.1453 C   0  0  0  0  0  0  0  0  0  0  0  0
    5.7845   17.6928    5.1423 C   0  0  0  0  0  0  0  0  0  0  0  0
    5.2672   16.4042    4.4893 C   0  0  2  0  0  0  0  0  0  0  0  0
    6.0318   16.1443    3.1839 C   0  0  0  0  0  0  0  0  0  0  0  0
    5.9184   17.2698    2.3005 O   0  0  0  0  0  0  0  0  0  0  0  0
    6.5204   18.4406    2.8565 C   0  0  0  0  0  0  0  0  0  0  0  0
    3.8368   16.5019    4.2113 N   0  0  0  0  0  0  0  0  0  0  0  0
    3.1098   15.4738    3.6405 C   0  0  0  0  0  0  0  0  0  0  0  0
    3.6662   14.4458    3.2488 O   0  0  0  0  0  0  0  0  0  0  0  0
    1.5510   15.7518    3.5643 C   0  0  0  0  0  0  0  0  0  0  0  0
    0.7946   15.9896    4.8994 C   0  0  0  0  0  0  0  0  0  0  0  0
    0.0032   17.1228    4.2173 C   0  0  0  0  0  0  0  0  0  0  0  0
    1.0948   17.1701    3.1304 C   0  0  0  0  0  0  0  0  0  0  0  0
    0.7591   14.7703    2.7804 N   0  0  0  0  0  0  0  0  0  0  0  0
    3.3301   17.2674    4.6368 H   0  0  0  0  0  0  0  0  0  0  0  0
   -0.2297   15.0061    2.7062 H   0  0  0  0  0  0  0  0  0  0  0  0
    0.8287   13.8077    3.1022 H   0  0  0  0  0  0  0  0  0  0  0  0
  1  2  1  0  0  0  0
  1  6  1  0  0  0  0
  2  3  1  0  0  0  0
  3  4  1  0  0  0  0
  3  7  1  6  0  0  0
  4  5  1  0  0  0  0
  5  6  1  0  0  0  0
  7  8  1  0  0  0  0
  7 15  1  0  0  0  0
  8  9  2  0  0  0  0
  8 10  1  0  0  0  0
 10 11  1  0  0  0  0
 10 13  1  0  0  0  0
 10 14  1  0  0  0  0
 11 12  1  0  0  0  0
 12 13  1  0  0  0  0
 14 16  1  0  0  0  0
 14 17  1  0  0  0  0
M  END
>  <CHROM.0>
-63.08866139,-61.00246765,-72.19782399,-49.75223216,-66.68350883,-54.03165749
-171.74585740,-52.96264836,-167.96576419

>  <CHROM.1>
-179.09787344,-60.24035989,-176.68501225,3.58922203,16.56127203,3.67698297
0.29433806,0.14144726,0.36328950

>  <Name>
P137721766

>  <RI>
1.34432e+07

>  <Rbt.Current_Directory>
/home/fstefaniak/projects/zuza/docking/adenine/4XNR

>  <Rbt.Executable>
rbdock ($Id: //depot/dev/client3/rdock/2013.1/src/exe/rbdock.cxx#4 $)

>  <Rbt.Library>
libRbt.so (2013.1, Build901 2013/11/27)

>  <Rbt.Parameter_File>
/home/fstefaniak/progs/rDock//data/scripts/dock_solv.prm

>  <Rbt.Receptor>
4xnr.prm

>  <SCORE>
-40.9813

>  <SCORE.INTER>
-20.9934

>  <SCORE.INTER.CONST>
1

>  <SCORE.INTER.POLAR>
-2.57665

>  <SCORE.INTER.ROT>
3

>  <SCORE.INTER.SOLV>
12.8871

>  <SCORE.INTER.VDW>
-15.3025

>  <SCORE.INTER.norm>
-1.49953

>  <SCORE.INTRA>
0.051452

>  <SCORE.INTRA.DIHEDRAL>
-2.4127

>  <SCORE.INTRA.DIHEDRAL.0>
4.27198

>  <SCORE.INTRA.POLAR>
0

>  <SCORE.INTRA.POLAR.0>
0

>  <SCORE.INTRA.REPUL>
0

>  <SCORE.INTRA.REPUL.0>
0

>  <SCORE.INTRA.SOLV>
-0.241748

>  <SCORE.INTRA.SOLV.lig_0>
-12.4287

>  <SCORE.INTRA.VDW>
1.37867

>  <SCORE.INTRA.VDW.0>
-1.93606

>  <SCORE.INTRA.norm>
0.00367514

>  <SCORE.RESTR>
0

>  <SCORE.RESTR.CAVITY>
0

>  <SCORE.RESTR.norm>
0

>  <SCORE.SYSTEM>
-20.0393

>  <SCORE.SYSTEM.CONST>
0

>  <SCORE.SYSTEM.DIHEDRAL>
4.86124

>  <SCORE.SYSTEM.POLAR>
-2.93819

>  <SCORE.SYSTEM.SOLV>
0.227638

>  <SCORE.SYSTEM.VDW>
-5.26188

>  <SCORE.SYSTEM.norm>
-1.43138

>  <SCORE.heavy>
14

>  <SCORE.norm>
-2.92723

$$$$
P137721766
 OpenBabel12072022113D
libRbt.so/2013.1/901 2013/11/27
 17 18  0  0  0  0  0  0  0  0999 V2000
    1.9443   12.0085    2.4035 C   0  0  0  0  0  0  0  0  0  0  0  0
    2.1869   12.0608    3.9114 C   0  0  0  0  0  0  0  0  0  0  0  0
    2.0731   13.4934    4.4493 C   0  0  2  0  0  0  0  0  0  0  0  0
    0.7649   14.1273    3.9564 C   0  0  0  0  0  0  0  0  0  0  0  0
    0.6958   14.0912    2.5233 O   0  0  0  0  0  0  0  0  0  0  0  0
    0.6678   12.7506    2.0293 C   0  0  0  0  0  0  0  0  0  0  0  0
    3.2078   14.3027    4.0130 N   0  0  0  0  0  0  0  0  0  0  0  0
    3.2035   15.6848    4.0488 C   0  0  0  0  0  0  0  0  0  0  0  0
    2.1887   16.3072    4.3690 O   0  0  0  0  0  0  0  0  0  0  0  0
    4.5925   16.3436    3.6618 C   0  0  0  0  0  0  0  0  0  0  0  0
    4.5620   17.6977    2.9025 C   0  0  0  0  0  0  0  0  0  0  0  0
    5.7280   18.1868    3.7839 C   0  0  0  0  0  0  0  0  0  0  0  0
    5.3817   17.0672    4.7849 C   0  0  0  0  0  0  0  0  0  0  0  0
    5.5470   15.4603    2.9451 N   0  0  0  0  0  0  0  0  0  0  0  0
    4.0917   13.8304    3.8740 H   0  0  0  0  0  0  0  0  0  0  0  0
    5.1092   14.6480    2.5122 H   0  0  0  0  0  0  0  0  0  0  0  0
    6.3317   15.1332    3.5039 H   0  0  0  0  0  0  0  0  0  0  0  0
  1  2  1  0  0  0  0
  1  6  1  0  0  0  0
  2  3  1  0  0  0  0
  3  4  1  0  0  0  0
  3  7  1  6  0  0  0
  4  5  1  0  0  0  0
  5  6  1  0  0  0  0
  7  8  1  0  0  0  0
  7 15  1  0  0  0  0
  8  9  2  0  0  0  0
  8 10  1  0  0  0  0
 10 11  1  0  0  0  0
 10 13  1  0  0  0  0
 10 14  1  0  0  0  0
 11 12  1  0  0  0  0
 12 13  1  0  0  0  0
 14 16  1  0  0  0  0
 14 17  1  0  0  0  0
M  END
>  <CHROM.0>
-58.20211718,-64.22952495,-63.69619189,55.45543649,-62.64363859,58.98623128
-72.50749386,-56.34045730,-168.15632546

>  <CHROM.1>
162.81850698,145.94539094,19.21182782,3.04100727,14.95440419,3.53912603,-2.29594742
0.04073399,0.20560557

>  <Name>
P137721766

>  <RI>
1.34432e+07

>  <Rbt.Current_Directory>
/home/fstefaniak/projects/zuza/docking/adenine/4XNR

>  <Rbt.Executable>
rbdock ($Id: //depot/dev/client3/rdock/2013.1/src/exe/rbdock.cxx#4 $)

>  <Rbt.Library>
libRbt.so (2013.1, Build901 2013/11/27)

>  <Rbt.Parameter_File>
/home/fstefaniak/progs/rDock//data/scripts/dock_solv.prm

>  <Rbt.Receptor>
4xnr.prm

>  <SCORE>
-40.7993

>  <SCORE.INTER>
-28.5651

>  <SCORE.INTER.CONST>
1

>  <SCORE.INTER.POLAR>
-3.39489

>  <SCORE.INTER.ROT>
3

>  <SCORE.INTER.SOLV>
11.0143

>  <SCORE.INTER.VDW>
-16.9985

>  <SCORE.INTER.norm>
-2.04036

>  <SCORE.INTRA>
3.6063

>  <SCORE.INTRA.DIHEDRAL>
1.21185

>  <SCORE.INTRA.DIHEDRAL.0>
4.27198

>  <SCORE.INTRA.POLAR>
0

>  <SCORE.INTRA.POLAR.0>
0

>  <SCORE.INTRA.REPUL>
0

>  <SCORE.INTRA.REPUL.0>
0

>  <SCORE.INTRA.SOLV>
0.299863

>  <SCORE.INTRA.SOLV.lig_0>
-12.4287

>  <SCORE.INTRA.VDW>
2.85044

>  <SCORE.INTRA.VDW.0>
-1.93606

>  <SCORE.INTRA.norm>
0.257593

>  <SCORE.RESTR>
0.715617

>  <SCORE.RESTR.CAVITY>
0.715617

>  <SCORE.RESTR.norm>
0.0511155

>  <SCORE.SYSTEM>
-16.5561

>  <SCORE.SYSTEM.CONST>
0

>  <SCORE.SYSTEM.DIHEDRAL>
3.8038

>  <SCORE.SYSTEM.POLAR>
-2.42951

>  <SCORE.SYSTEM.SOLV>
0.0811548

>  <SCORE.SYSTEM.VDW>
-4.23402

>  <SCORE.SYSTEM.norm>
-1.18258

>  <SCORE.heavy>
14

>  <SCORE.norm>
-2.91423

$$$$
P137722453
 OpenBabel12072022113D
libRbt.so/2013.1/901 2013/11/27
 15 16  0  0  0  0  0  0  0  0999 V2000
    2.9323   12.6203    4.4513 C   0  0  0  0  0  0  0  0  0  0  0  0
    3.6281   13.8186    5.1262 C   0  0  0  0  0  0  0  0  0  0  0  0
    3.0241   14.7481    4.0423 C   0  0  0  0  0  0  0  0  0  0  0  0
    2.7655   13.4819    3.1848 C   0  0  0  0  0  0  0  0  0  0  0  0
    3.9582   15.8784    3.4410 C   0  0  0  0  0  0  0  0  0  0  0  0
    4.4582   15.8813    2.3156 O   0  0  0  0  0  0  0  0  0  0  0  0
    4.1859   16.9108    4.3325 N   0  0  0  0  0  0  0  0  0  0  0  0
    5.0745   18.0458    4.0241 C   0  0  0  0  0  0  0  0  0  0  0  0
    5.8052   18.6494    5.2275 C   0  0  0  0  0  0  0  0  0  0  0  0
    7.0923   18.2136    4.7350 O   0  0  0  0  0  0  0  0  0  0  0  0
    6.4793   17.6635    3.5438 C   0  0  0  0  0  0  0  0  0  0  0  0
    1.7089   15.2481    4.5347 N   0  0  0  0  0  0  0  0  0  0  0  0
    3.7990   16.7552    5.2609 H   0  0  0  0  0  0  0  0  0  0  0  0
    1.3934   16.1074    4.0818 H   0  0  0  0  0  0  0  0  0  0  0  0
    1.7244   15.4674    5.5328 H   0  0  0  0  0  0  0  0  0  0  0  0
  1  2  1  0  0  0  0
  1  4  1  0  0  0  0
  2  3  1  0  0  0  0
  3  4  1  0  0  0  0
  3  5  1  0  0  0  0
  3 12  1  0  0  0  0
  5  6  2  0  0  0  0
  5  7  1  0  0  0  0
  7  8  1  0  0  0  0
  7 13  1  0  0  0  0
  8  9  1  0  0  0  0
  8 11  1  0  0  0  0
  9 10  1  0  0  0  0
 10 11  1  0  0  0  0
 12 14  1  0  0  0  0
 12 15  1  0  0  0  0
M  END
>  <CHROM.0>
-55.96359734,-71.53819303,-65.31101863,-45.27641741,-56.92830889,-58.84518553
-66.83536002,-57.09088533,-167.50643802

>  <CHROM.1>
107.02543785,158.54467240,-148.44784462,4.27349418,15.96112782,4.09092457
2.58804135,-0.75793315,-2.24282470

>  <Name>
P137722453

>  <RI>
1.34432e+07

>  <Rbt.Current_Directory>
/home/fstefaniak/projects/zuza/docking/adenine/4XNR

>  <Rbt.Executable>
rbdock ($Id: //depot/dev/client3/rdock/2013.1/src/exe/rbdock.cxx#4 $)

>  <Rbt.Library>
libRbt.so (2013.1, Build901 2013/11/27)

>  <Rbt.Parameter_File>
/home/fstefaniak/progs/rDock//data/scripts/dock_solv.prm

>  <Rbt.Receptor>
4xnr.prm

>  <SCORE>
-47.3927

>  <SCORE.INTER>
-26.924

>  <SCORE.INTER.CONST>
1

>  <SCORE.INTER.POLAR>
-3.18331

>  <SCORE.INTER.ROT>
3

>  <SCORE.INTER.SOLV>
11.262

>  <SCORE.INTER.VDW>
-16.6923

>  <SCORE.INTER.norm>
-2.24367

>  <SCORE.INTRA>
0.0826056

>  <SCORE.INTRA.DIHEDRAL>
-1.57597

>  <SCORE.INTRA.DIHEDRAL.0>
4.78512

>  <SCORE.INTRA.POLAR>
0.261758

>  <SCORE.INTRA.POLAR.0>
-0.261758

>  <SCORE.INTRA.REPUL>
0

>  <SCORE.INTRA.REPUL.0>
0

>  <SCORE.INTRA.SOLV>
0.175653

>  <SCORE.INTRA.SOLV.lig_0>
-14.0225

>  <SCORE.INTRA.VDW>
-0.107212

>  <SCORE.INTRA.VDW.0>
-1.15575

>  <SCORE.INTRA.norm>
0.0068838

>  <SCORE.RESTR>
0

>  <SCORE.RESTR.CAVITY>
0

>  <SCORE.RESTR.norm>
0

>  <SCORE.SYSTEM>
-20.5513

>  <SCORE.SYSTEM.CONST>
0

>  <SCORE.SYSTEM.DIHEDRAL>
4.93663

>  <SCORE.SYSTEM.POLAR>
-3.04624

>  <SCORE.SYSTEM.SOLV>
0.30061

>  <SCORE.SYSTEM.VDW>
-5.29247

>  <SCORE.SYSTEM.norm>
-1.71261

>  <SCORE.heavy>
12

>  <SCORE.norm>
-3.9494

$$$$
P137722453
 OpenBabel12072022113D
libRbt.so/2013.1/901 2013/11/27
 15 16  0  0  0  0  0  0  0  0999 V2000
    3.0138   12.6254    4.4769 C   0  0  0  0  0  0  0  0  0  0  0  0
    3.6839   13.8455    5.1384 C   0  0  0  0  0  0  0  0  0  0  0  0
    3.0652   14.7493    4.0411 C   0  0  0  0  0  0  0  0  0  0  0  0
    2.8341   13.4675    3.1990 C   0  0  0  0  0  0  0  0  0  0  0  0
    3.9789   15.8899    3.4282 C   0  0  0  0  0  0  0  0  0  0  0  0
    4.4322   15.9173    2.2835 O   0  0  0  0  0  0  0  0  0  0  0  0
    4.2477   16.9004    4.3333 N   0  0  0  0  0  0  0  0  0  0  0  0
    5.1281   18.0392    4.0149 C   0  0  0  0  0  0  0  0  0  0  0  0
    5.8845   18.6335    5.2068 C   0  0  0  0  0  0  0  0  0  0  0  0
    7.1609   18.2035    4.6824 O   0  0  0  0  0  0  0  0  0  0  0  0
    6.5223   17.6627    3.5004 C   0  0  0  0  0  0  0  0  0  0  0  0
    1.7390   15.2296    4.5234 N   0  0  0  0  0  0  0  0  0  0  0  0
    3.8987   16.7246    5.2729 H   0  0  0  0  0  0  0  0  0  0  0  0
    1.7124   15.4491    5.5205 H   0  0  0  0  0  0  0  0  0  0  0  0
    1.0005   14.5363    4.3871 H   0  0  0  0  0  0  0  0  0  0  0  0
  1  2  1  0  0  0  0
  1  4  1  0  0  0  0
  2  3  1  0  0  0  0
  3  4  1  0  0  0  0
  3  5  1  0  0  0  0
  3 12  1  0  0  0  0
  5  6  2  0  0  0  0
  5  7  1  0  0  0  0
  7  8  1  0  0  0  0
  7 13  1  0  0  0  0
  8  9  1  0  0  0  0
  8 11  1  0  0  0  0
  9 10  1  0  0  0  0
 10 11  1  0  0  0  0
 12 14  1  0  0  0  0
 12 15  1  0  0  0  0
M  END
>  <CHROM.0>
-57.91251215,-71.11719519,-63.79548766,-46.85590120,-60.95312358,-64.17860721
-68.32596343,-62.28702413,-167.30188278

>  <CHROM.1>
110.55800478,37.95222338,-149.86589289,4.31875620,15.95204734,4.08120643
2.70658365,-0.81462907,-2.09045154

>  <Name>
P137722453

>  <RI>
1.34432e+07

>  <Rbt.Current_Directory>
/home/fstefaniak/projects/zuza/docking/adenine/4XNR

>  <Rbt.Executable>
rbdock ($Id: //depot/dev/client3/rdock/2013.1/src/exe/rbdock.cxx#4 $)

>  <Rbt.Library>
libRbt.so (2013.1, Build901 2013/11/27)

>  <Rbt.Parameter_File>
/home/fstefaniak/progs/rDock//data/scripts/dock_solv.prm

>  <Rbt.Receptor>
4xnr.prm

>  <SCORE>
-46.589

>  <SCORE.INTER>
-26.6334

>  <SCORE.INTER.CONST>
1

>  <SCORE.INTER.POLAR>
-3.16405

>  <SCORE.INTER.ROT>
3

>  <SCORE.INTER.SOLV>
11.3647

>  <SCORE.INTER.VDW>
-16.597

>  <SCORE.INTER.norm>
-2.21945

>  <SCORE.INTRA>
0.760204

>  <SCORE.INTRA.DIHEDRAL>
-1.58826

>  <SCORE.INTRA.DIHEDRAL.0>
4.78512

>  <SCORE.INTRA.POLAR>
0.261758

>  <SCORE.INTRA.POLAR.0>
-0.261758

>  <SCORE.INTRA.REPUL>
0

>  <SCORE.INTRA.REPUL.0>
0

>  <SCORE.INTRA.SOLV>
-0.0468707

>  <SCORE.INTRA.SOLV.lig_0>
-14.0225

>  <SCORE.INTRA.VDW>
0.68779

>  <SCORE.INTRA.VDW.0>
-1.15575

>  <SCORE.INTRA.norm>
0.0633503

>  <SCORE.RESTR>
0

>  <SCORE.RESTR.CAVITY>
0

>  <SCORE.RESTR.norm>
0

>  <SCORE.SYSTEM>
-20.7159

>  <SCORE.SYSTEM.CONST>
0

>  <SCORE.SYSTEM.DIHEDRAL>
4.72567

>  <SCORE.SYSTEM.POLAR>
-2.99318

>  <SCORE.SYSTEM.SOLV>
0.27013

>  <SCORE.SYSTEM.VDW>
-5.49858

>  <SCORE.SYSTEM.norm>
-1.72632

>  <SCORE.heavy>
12

>  <SCORE.norm>
-3.88242

$$$$
P137722453
 OpenBabel12072022113D
libRbt.so/2013.1/901 2013/11/27
 15 16  0  0  0  0  0  0  0  0999 V2000
    2.9419   12.6042    4.4337 C   0  0  0  0  0  0  0  0  0  0  0  0
    3.6312   13.7998    5.1200 C   0  0  0  0  0  0  0  0  0  0  0  0
    3.0337   14.7343    4.0367 C   0  0  0  0  0  0  0  0  0  0  0  0
    2.7831   13.4723    3.1706 C   0  0  0  0  0  0  0  0  0  0  0  0
    3.9707   15.8690    3.4483 C   0  0  0  0  0  0  0  0  0  0  0  0
    4.5050   15.8633    2.3388 O   0  0  0  0  0  0  0  0  0  0  0  0
    4.1568   16.9167    4.3315 N   0  0  0  0  0  0  0  0  0  0  0  0
    5.0391   18.0596    4.0343 C   0  0  0  0  0  0  0  0  0  0  0  0
    5.8123   18.6173    5.2332 C   0  0  0  0  0  0  0  0  0  0  0  0
    7.0803   18.1959    4.6823 O   0  0  0  0  0  0  0  0  0  0  0  0
    6.4254   17.6909    3.4934 C   0  0  0  0  0  0  0  0  0  0  0  0
    1.7143   15.2298    4.5222 N   0  0  0  0  0  0  0  0  0  0  0  0
    3.7436   16.7686    5.2497 H   0  0  0  0  0  0  0  0  0  0  0  0
    1.7003   15.4753    5.5135 H   0  0  0  0  0  0  0  0  0  0  0  0
    0.9730   14.5349    4.4130 H   0  0  0  0  0  0  0  0  0  0  0  0
  1  2  1  0  0  0  0
  1  4  1  0  0  0  0
  2  3  1  0  0  0  0
  3  4  1  0  0  0  0
  3  5  1  0  0  0  0
  3 12  1  0  0  0  0
  5  6  2  0  0  0  0
  5  7  1  0  0  0  0
  7  8  1  0  0  0  0
  7 13  1  0  0  0  0
  8  9  1  0  0  0  0
  8 11  1  0  0  0  0
  9 10  1  0  0  0  0
 10 11  1  0  0  0  0
 12 14  1  0  0  0  0
 12 15  1  0  0  0  0
M  END
>  <CHROM.0>
-58.66534591,-71.80877964,61.71515922,-46.76290024,-58.98292574,61.68491178
53.31474840,-173.14573920,-167.61521201

>  <CHROM.1>
105.13908073,40.80044176,-143.66743360,4.26934758,15.94292223,4.08289029
-2.56234629,0.74596648,0.85678865

>  <Name>
P137722453

>  <RI>
1.34432e+07

>  <Rbt.Current_Directory>
/home/fstefaniak/projects/zuza/docking/adenine/4XNR

>  <Rbt.Executable>
rbdock ($Id: //depot/dev/client3/rdock/2013.1/src/exe/rbdock.cxx#4 $)

>  <Rbt.Library>
libRbt.so (2013.1, Build901 2013/11/27)

>  <Rbt.Parameter_File>
/home/fstefaniak/progs/rDock//data/scripts/dock_solv.prm

>  <Rbt.Receptor>
4xnr.prm

>  <SCORE>
-43.8305

>  <SCORE.INTER>
-27.1524

>  <SCORE.INTER.CONST>
1

>  <SCORE.INTER.POLAR>
-3.17779

>  <SCORE.INTER.ROT>
3

>  <SCORE.INTER.SOLV>
11.3081

>  <SCORE.INTER.VDW>
-16.8783

>  <SCORE.INTER.norm>
-2.2627

>  <SCORE.INTRA>
0.884066

>  <SCORE.INTRA.DIHEDRAL>
-1.65125

>  <SCORE.INTRA.DIHEDRAL.0>
4.78512

>  <SCORE.INTRA.POLAR>
0.261758

>  <SCORE.INTRA.POLAR.0>
-0.261758

>  <SCORE.INTRA.REPUL>
0

>  <SCORE.INTRA.REPUL.0>
0

>  <SCORE.INTRA.SOLV>
0.00786692

>  <SCORE.INTRA.SOLV.lig_0>
-14.0225

>  <SCORE.INTRA.VDW>
0.815782

>  <SCORE.INTRA.VDW.0>
-1.15575

>  <SCORE.INTRA.norm>
0.0736722

>  <SCORE.RESTR>
0

>  <SCORE.RESTR.CAVITY>
0

>  <SCORE.RESTR.norm>
0

>  <SCORE.SYSTEM>
-17.5622

>  <SCORE.SYSTEM.CONST>
0

>  <SCORE.SYSTEM.DIHEDRAL>
4.72248

>  <SCORE.SYSTEM.POLAR>
-2.97184

>  <SCORE.SYSTEM.SOLV>
-0.0796491

>  <SCORE.SYSTEM.VDW>
-3.34958

>  <SCORE.SYSTEM.norm>
-1.46351

>  <SCORE.heavy>
12

>  <SCORE.norm>
-3.65254

$$$$
P137755480
 OpenBabel12072022113D
libRbt.so/2013.1/901 2013/11/27
 18 19  0  0  0  0  0  0  0  0999 V2000
    6.2534   20.1080    6.1430 C   0  0  0  0  0  0  0  0  0  0  0  0
    6.1528   19.1502    7.1463 C   0  0  0  0  0  0  0  0  0  0  0  0
    5.7869   17.8419    6.8262 C   0  0  0  0  0  0  0  0  0  0  0  0
    5.4947   17.4798    5.5057 C   0  0  0  0  0  0  0  0  0  0  0  0
    5.6748   18.4266    4.4837 C   0  0  0  0  0  0  0  0  0  0  0  0
    6.0184   19.7494    4.8172 C   0  0  0  0  0  0  0  0  0  0  0  0
    5.4690   18.0402    3.0269 C   0  0  2  0  0  0  0  0  0  0  0  0
    5.1951   16.5425    2.8248 C   0  0  0  0  0  0  0  0  0  0  0  0
    4.3969   15.9811    3.9847 C   0  0  0  0  0  0  0  0  0  0  0  0
    5.1586   16.1460    5.2160 N   0  0  0  0  0  0  0  0  0  0  0  0
    6.6545   18.4365    2.1490 C   0  0  0  0  0  0  0  0  0  0  0  0
    7.7452   18.7592    2.6217 O   0  0  0  0  0  0  0  0  0  0  0  0
    6.3941   18.4500    0.7830 N   0  0  0  0  0  0  0  0  0  0  0  0
    7.4006   18.8472   -0.1209 N   0  0  0  0  0  0  0  0  0  0  0  0
    4.7194   15.6916    6.0143 H   0  0  0  0  0  0  0  0  0  0  0  0
    5.4816   18.1606    0.4277 H   0  0  0  0  0  0  0  0  0  0  0  0
    7.7452   18.0020   -0.5857 H   0  0  0  0  0  0  0  0  0  0  0  0
    8.2045   19.1508    0.4443 H   0  0  0  0  0  0  0  0  0  0  0  0
  1  2  2  0  0  0  0
  1  6  1  0  0  0  0
  2  3  1  0  0  0  0
  3  4  2  0  0  0  0
  4  5  1  0  0  0  0
  4 10  1  0  0  0  0
  5  6  2  0  0  0  0
  5  7  1  0  0  0  0
  7  8  1  0  0  0  0
  7 11  1  6  0  0  0
  8  9  1  0  0  0  0
  9 10  1  0  0  0  0
 10 15  1  0  0  0  0
 11 12  2  0  0  0  0
 11 13  1  0  0  0  0
 13 14  1  0  0  0  0
 13 16  1  0  0  0  0
 14 17  1  0  0  0  0
 14 18  1  0  0  0  0
M  END
>  <CHROM.0>
-60.05923453,52.03929053,-65.36228413,-48.99361238,-62.14467771,-176.64887142
-69.38296840,-176.36848725,-168.26262258

>  <CHROM.1>
14.54679389,105.84000418,6.01775545,18.11692486,3.84841357,-2.00325962,-1.01349494
-1.89690473

>  <Name>
P137755480

>  <RI>
9.71178e+06

>  <Rbt.Current_Directory>
/home/fstefaniak/projects/zuza/docking/adenine/4XNR

>  <Rbt.Executable>
rbdock ($Id: //depot/dev/client3/rdock/2013.1/src/exe/rbdock.cxx#4 $)

>  <Rbt.Library>
libRbt.so (2013.1, Build901 2013/11/27)

>  <Rbt.Parameter_File>
/home/fstefaniak/progs/rDock//data/scripts/dock_solv.prm

>  <Rbt.Receptor>
4xnr.prm

>  <SCORE>
-40.243

>  <SCORE.INTER>
-20.7487

>  <SCORE.INTER.CONST>
1

>  <SCORE.INTER.POLAR>
-2.23839

>  <SCORE.INTER.ROT>
2

>  <SCORE.INTER.SOLV>
19.5609

>  <SCORE.INTER.VDW>
-17.8248

>  <SCORE.INTER.norm>
-1.48205

>  <SCORE.INTRA>
0.336899

>  <SCORE.INTRA.DIHEDRAL>
-0.0811564

>  <SCORE.INTRA.DIHEDRAL.0>
1.45772

>  <SCORE.INTRA.POLAR>
0

>  <SCORE.INTRA.POLAR.0>
0

>  <SCORE.INTRA.REPUL>
0

>  <SCORE.INTRA.REPUL.0>
0

>  <SCORE.INTRA.SOLV>
-0.535444

>  <SCORE.INTRA.SOLV.lig_0>
-18.135

>  <SCORE.INTRA.VDW>
0.645199

>  <SCORE.INTRA.VDW.0>
-1.14155

>  <SCORE.INTRA.norm>
0.0240642

>  <SCORE.RESTR>
0

>  <SCORE.RESTR.CAVITY>
0

>  <SCORE.RESTR.norm>
0

>  <SCORE.SYSTEM>
-19.8311

>  <SCORE.SYSTEM.CONST>
0

>  <SCORE.SYSTEM.DIHEDRAL>
4.2684

>  <SCORE.SYSTEM.POLAR>
-2.96797

>  <SCORE.SYSTEM.SOLV>
0.12926

>  <SCORE.SYSTEM.VDW>
-4.7934

>  <SCORE.SYSTEM.norm>
-1.41651

>  <SCORE.heavy>
14

>  <SCORE.norm>
-2.8745

$$$$
P137755480
 OpenBabel12072022113D
libRbt.so/2013.1/901 2013/11/27
 18 19  0  0  0  0  0  0  0  0999 V2000
    6.2590   20.1052    6.1439 C   0  0  0  0  0  0  0  0  0  0  0  0
    6.1546   19.1479    7.1472 C   0  0  0  0  0  0  0  0  0  0  0  0
    5.7854   17.8406    6.8268 C   0  0  0  0  0  0  0  0  0  0  0  0
    5.4935   17.4791    5.5060 C   0  0  0  0  0  0  0  0  0  0  0  0
    5.6774   18.4253    4.4841 C   0  0  0  0  0  0  0  0  0  0  0  0
    6.0244   19.7472    4.8178 C   0  0  0  0  0  0  0  0  0  0  0  0
    5.4721   18.0393    3.0271 C   0  0  2  0  0  0  0  0  0  0  0  0
    5.1942   16.5424    2.8249 C   0  0  0  0  0  0  0  0  0  0  0  0
    4.3932   15.9833    3.9839 C   0  0  0  0  0  0  0  0  0  0  0  0
    5.1541   16.1462    5.2161 N   0  0  0  0  0  0  0  0  0  0  0  0
    6.6597   18.4322    2.1504 C   0  0  0  0  0  0  0  0  0  0  0  0
    7.7507   18.7521    2.6243 O   0  0  0  0  0  0  0  0  0  0  0  0
    6.4009   18.4461    0.7841 N   0  0  0  0  0  0  0  0  0  0  0  0
    7.4094   18.8403   -0.1187 N   0  0  0  0  0  0  0  0  0  0  0  0
    4.7127   15.6931    6.0139 H   0  0  0  0  0  0  0  0  0  0  0  0
    5.4879   18.1590    0.4279 H   0  0  0  0  0  0  0  0  0  0  0  0
    7.7579   17.9931   -0.5770 H   0  0  0  0  0  0  0  0  0  0  0  0
    8.2105   19.1497    0.4474 H   0  0  0  0  0  0  0  0  0  0  0  0
  1  2  2  0  0  0  0
  1  6  1  0  0  0  0
  2  3  1  0  0  0  0
  3  4  2  0  0  0  0
  4  5  1  0  0  0  0
  4 10  1  0  0  0  0
  5  6  2  0  0  0  0
  5  7  1  0  0  0  0
  7  8  1  0  0  0  0
  7 11  1  6  0  0  0
  8  9  1  0  0  0  0
  9 10  1  0  0  0  0
 10 15  1  0  0  0  0
 11 12  2  0  0  0  0
 11 13  1  0  0  0  0
 13 14  1  0  0  0  0
 13 16  1  0  0  0  0
 14 17  1  0  0  0  0
 14 18  1  0  0  0  0
M  END
>  <CHROM.0>
-53.58515352,52.29252422,-62.46597969,-46.96143807,-57.60620668,-58.65199010
-66.34564504,-171.19340784,-168.18173561

>  <CHROM.1>
14.53450181,105.35725583,6.02020656,18.11461457,3.84923065,-2.00352788,-1.01048135
-1.89722035

>  <Name>
P137755480

>  <RI>
9.71178e+06

>  <Rbt.Current_Directory>
/home/fstefaniak/projects/zuza/docking/adenine/4XNR

>  <Rbt.Executable>
rbdock ($Id: //depot/dev/client3/rdock/2013.1/src/exe/rbdock.cxx#4 $)

>  <Rbt.Library>
libRbt.so (2013.1, Build901 2013/11/27)

>  <Rbt.Parameter_File>
/home/fstefaniak/progs/rDock//data/scripts/dock_solv.prm

>  <Rbt.Receptor>
4xnr.prm

>  <SCORE>
-40.1953

>  <SCORE.INTER>
-20.7513

>  <SCORE.INTER.CONST>
1

>  <SCORE.INTER.POLAR>
-2.2275

>  <SCORE.INTER.ROT>
2

>  <SCORE.INTER.SOLV>
19.5616

>  <SCORE.INTER.VDW>
-17.8631

>  <SCORE.INTER.norm>
-1.48224

>  <SCORE.INTRA>
0.336762

>  <SCORE.INTRA.DIHEDRAL>
-0.0811477

>  <SCORE.INTRA.DIHEDRAL.0>
1.45772

>  <SCORE.INTRA.POLAR>
0

>  <SCORE.INTRA.POLAR.0>
0

>  <SCORE.INTRA.REPUL>
0

>  <SCORE.INTRA.REPUL.0>
0

>  <SCORE.INTRA.SOLV>
-0.534831

>  <SCORE.INTRA.SOLV.lig_0>
-18.135

>  <SCORE.INTRA.VDW>
0.644751

>  <SCORE.INTRA.VDW.0>
-1.14155

>  <SCORE.INTRA.norm>
0.0240544

>  <SCORE.RESTR>
0

>  <SCORE.RESTR.CAVITY>
0

>  <SCORE.RESTR.norm>
0

>  <SCORE.SYSTEM>
-19.7808

>  <SCORE.SYSTEM.CONST>
0

>  <SCORE.SYSTEM.DIHEDRAL>
4.59628

>  <SCORE.SYSTEM.POLAR>
-3.06106

>  <SCORE.SYSTEM.SOLV>
0.27797

>  <SCORE.SYSTEM.VDW>
-4.6084

>  <SCORE.SYSTEM.norm>
-1.41291

>  <SCORE.heavy>
14

>  <SCORE.norm>
-2.87109

$$$$
P137755480
 OpenBabel12072022113D
libRbt.so/2013.1/901 2013/11/27
 18 19  0  0  0  0  0  0  0  0999 V2000
    6.2434   20.1181    6.1287 C   0  0  0  0  0  0  0  0  0  0  0  0
    6.1399   19.1641    7.1352 C   0  0  0  0  0  0  0  0  0  0  0  0
    5.7755   17.8545    6.8188 C   0  0  0  0  0  0  0  0  0  0  0  0
    5.4877   17.4873    5.4987 C   0  0  0  0  0  0  0  0  0  0  0  0
    5.6709   18.4304    4.4738 C   0  0  0  0  0  0  0  0  0  0  0  0
    6.0129   19.7545    4.8034 C   0  0  0  0  0  0  0  0  0  0  0  0
    5.4699   18.0384    3.0177 C   0  0  2  0  0  0  0  0  0  0  0  0
    5.1972   16.5399    2.8204 C   0  0  0  0  0  0  0  0  0  0  0  0
    4.3955   15.9825    3.9797 C   0  0  0  0  0  0  0  0  0  0  0  0
    5.1531   16.1523    5.2129 N   0  0  0  0  0  0  0  0  0  0  0  0
    6.6582   18.4318    2.1422 C   0  0  0  0  0  0  0  0  0  0  0  0
    7.7512   18.7436    2.6169 O   0  0  0  0  0  0  0  0  0  0  0  0
    6.3978   18.4560    0.7764 N   0  0  0  0  0  0  0  0  0  0  0  0
    7.4070   18.8518   -0.1250 N   0  0  0  0  0  0  0  0  0  0  0  0
    4.7114   15.7007    6.0115 H   0  0  0  0  0  0  0  0  0  0  0  0
    5.4831   18.1755    0.4194 H   0  0  0  0  0  0  0  0  0  0  0  0
    7.7483   18.0067   -0.5924 H   0  0  0  0  0  0  0  0  0  0  0  0
    8.2116   19.1499    0.4420 H   0  0  0  0  0  0  0  0  0  0  0  0
  1  2  2  0  0  0  0
  1  6  1  0  0  0  0
  2  3  1  0  0  0  0
  3  4  2  0  0  0  0
  4  5  1  0  0  0  0
  4 10  1  0  0  0  0
  5  6  2  0  0  0  0
  5  7  1  0  0  0  0
  7  8  1  0  0  0  0
  7 11  1  6  0  0  0
  8  9  1  0  0  0  0
  9 10  1  0  0  0  0
 10 15  1  0  0  0  0
 11 12  2  0  0  0  0
 11 13  1  0  0  0  0
 13 14  1  0  0  0  0
 13 16  1  0  0  0  0
 14 17  1  0  0  0  0
 14 18  1  0  0  0  0
M  END
>  <CHROM.0>
-59.10314328,53.93138914,-61.17287390,-46.63491010,-58.31920729,-174.65788351
-66.83304365,-59.59829653,-169.00030962

>  <CHROM.1>
15.30048221,105.59858847,6.01554526,18.12004218,3.84090300,-2.00981215,-1.01363296
-1.90387739

>  <Name>
P137755480

>  <RI>
9.71178e+06

>  <Rbt.Current_Directory>
/home/fstefaniak/projects/zuza/docking/adenine/4XNR

>  <Rbt.Executable>
rbdock ($Id: //depot/dev/client3/rdock/2013.1/src/exe/rbdock.cxx#4 $)

>  <Rbt.Library>
libRbt.so (2013.1, Build901 2013/11/27)

>  <Rbt.Parameter_File>
/home/fstefaniak/progs/rDock//data/scripts/dock_solv.prm

>  <Rbt.Receptor>
4xnr.prm

>  <SCORE>
-40.0796

>  <SCORE.INTER>
-20.7419

>  <SCORE.INTER.CONST>
1

>  <SCORE.INTER.POLAR>
-2.21451

>  <SCORE.INTER.ROT>
2

>  <SCORE.INTER.SOLV>
19.5688

>  <SCORE.INTER.VDW>
-17.9025

>  <SCORE.INTER.norm>
-1.48157

>  <SCORE.INTRA>
0.325282

>  <SCORE.INTRA.DIHEDRAL>
-0.0659452

>  <SCORE.INTRA.DIHEDRAL.0>
1.45772

>  <SCORE.INTRA.POLAR>
0

>  <SCORE.INTRA.POLAR.0>
0

>  <SCORE.INTRA.REPUL>
0

>  <SCORE.INTRA.REPUL.0>
0

>  <SCORE.INTRA.SOLV>
-0.538435

>  <SCORE.INTRA.SOLV.lig_0>
-18.135

>  <SCORE.INTRA.VDW>
0.627473

>  <SCORE.INTRA.VDW.0>
-1.14155

>  <SCORE.INTRA.norm>
0.0232344

>  <SCORE.RESTR>
0

>  <SCORE.RESTR.CAVITY>
0

>  <SCORE.RESTR.norm>
0

>  <SCORE.SYSTEM>
-19.6629

>  <SCORE.SYSTEM.CONST>
0

>  <SCORE.SYSTEM.DIHEDRAL>
4.03713

>  <SCORE.SYSTEM.POLAR>
-2.98634

>  <SCORE.SYSTEM.SOLV>
0.284857

>  <SCORE.SYSTEM.VDW>
-4.59482

>  <SCORE.SYSTEM.norm>
-1.40449

>  <SCORE.heavy>
14

>  <SCORE.norm>
-2.86283

$$$$
P137848586
 OpenBabel12072022113D
libRbt.so/2013.1/901 2013/11/27
 15 15  0  0  0  0  0  0  0  0999 V2000
    2.6220   12.8354    3.3011 C   0  0  0  0  0  0  0  0  0  0  0  0
    2.7534   13.7387    4.5202 C   0  0  2  0  0  0  0  0  0  0  0  0
    1.6572   14.7871    4.6053 C   0  0  0  0  0  0  0  0  0  0  0  0
    2.2360   15.9403    3.8247 C   0  0  0  0  0  0  0  0  0  0  0  0
    3.7142   15.8426    4.1549 C   0  0  1  0  0  0  0  0  0  0  0  0
    3.9971   14.4568    4.4246 O   0  0  0  0  0  0  0  0  0  0  0  0
    4.6100   16.3860    3.0377 C   0  0  0  0  0  0  0  0  0  0  0  0
    4.5382   16.0049    1.8712 O   0  0  0  0  0  0  0  0  0  0  0  0
    5.4258   17.4144    3.4838 N   0  0  0  0  0  0  0  0  0  0  0  0
    6.4167   18.0538    2.7994 C   0  0  0  0  0  0  0  0  0  0  0  0
    7.2898   18.6926    3.3757 O   0  0  0  0  0  0  0  0  0  0  0  0
    6.3862   17.9542    1.4526 N   0  0  0  0  0  0  0  0  0  0  0  0
    5.4979   17.5079    4.4911 H   0  0  0  0  0  0  0  0  0  0  0  0
    7.1760   17.5210    0.9816 H   0  0  0  0  0  0  0  0  0  0  0  0
    5.8651   18.6589    0.9507 H   0  0  0  0  0  0  0  0  0  0  0  0
  2  3  1  0  0  0  0
  2  6  1  0  0  0  0
  2  1  1  6  0  0  0
  3  4  1  0  0  0  0
  4  5  1  0  0  0  0
  5  6  1  0  0  0  0
  5  7  1  6  0  0  0
  7  8  2  0  0  0  0
  7  9  1  0  0  0  0
  9 10  1  0  0  0  0
  9 13  1  0  0  0  0
 10 11  2  0  0  0  0
 10 12  1  0  0  0  0
 12 14  1  0  0  0  0
 12 15  1  0  0  0  0
M  END
>  <CHROM.0>
-57.66901754,-61.92297358,-66.98002023,-47.84361879,-58.62484588,-173.91003566
-68.85246061,-61.23333815,-167.60429081

>  <CHROM.1>
-53.73222766,-119.22023262,4.34419988,16.02191071,3.37593259,-2.97507514
0.80683389,0.98155181

>  <Name>
P137848586

>  <RI>
1.34432e+07

>  <Rbt.Current_Directory>
/home/fstefaniak/projects/zuza/docking/adenine/4XNR

>  <Rbt.Executable>
rbdock ($Id: //depot/dev/client3/rdock/2013.1/src/exe/rbdock.cxx#4 $)

>  <Rbt.Library>
libRbt.so (2013.1, Build901 2013/11/27)

>  <Rbt.Parameter_File>
/home/fstefaniak/progs/rDock//data/scripts/dock_solv.prm

>  <Rbt.Receptor>
4xnr.prm

>  <SCORE>
-46.5187

>  <SCORE.INTER>
-26.2044

>  <SCORE.INTER.CONST>
1

>  <SCORE.INTER.POLAR>
-3.16577

>  <SCORE.INTER.ROT>
2

>  <SCORE.INTER.SOLV>
12.6171

>  <SCORE.INTER.VDW>
-16.0561

>  <SCORE.INTER.norm>
-2.1837

>  <SCORE.INTRA>
0.398303

>  <SCORE.INTRA.DIHEDRAL>
0.783945

>  <SCORE.INTRA.DIHEDRAL.0>
2.10533

>  <SCORE.INTRA.POLAR>
0.177843

>  <SCORE.INTRA.POLAR.0>
-0.177843

>  <SCORE.INTRA.REPUL>
0

>  <SCORE.INTRA.REPUL.0>
0

>  <SCORE.INTRA.SOLV>
-0.401179

>  <SCORE.INTRA.SOLV.lig_0>
-18.9997

>  <SCORE.INTRA.VDW>
-0.397746

>  <SCORE.INTRA.VDW.0>
-0.42601

>  <SCORE.INTRA.norm>
0.0331919

>  <SCORE.RESTR>
0

>  <SCORE.RESTR.CAVITY>
0

>  <SCORE.RESTR.norm>
0

>  <SCORE.SYSTEM>
-20.7126

>  <SCORE.SYSTEM.CONST>
0

>  <SCORE.SYSTEM.DIHEDRAL>
4.29582

>  <SCORE.SYSTEM.POLAR>
-2.97759

>  <SCORE.SYSTEM.SOLV>
0.16722

>  <SCORE.SYSTEM.VDW>
-5.37076

>  <SCORE.SYSTEM.norm>
-1.72605

>  <SCORE.heavy>
12

>  <SCORE.norm>
-3.87656

$$$$
P137848586
 OpenBabel12072022113D
libRbt.so/2013.1/901 2013/11/27
 15 15  0  0  0  0  0  0  0  0999 V2000
    6.0842   19.6661    5.2337 C   0  0  0  0  0  0  0  0  0  0  0  0
    6.5514   18.2301    5.0366 C   0  0  2  0  0  0  0  0  0  0  0  0
    7.2884   18.0184    3.7251 C   0  0  0  0  0  0  0  0  0  0  0  0
    6.1754   17.6720    2.7682 C   0  0  0  0  0  0  0  0  0  0  0  0
    5.2237   16.8870    3.6524 C   0  0  1  0  0  0  0  0  0  0  0  0
    5.3943   17.3750    4.9962 O   0  0  0  0  0  0  0  0  0  0  0  0
    3.7643   16.9989    3.2011 C   0  0  0  0  0  0  0  0  0  0  0  0
    3.4153   17.6140    2.1956 O   0  0  0  0  0  0  0  0  0  0  0  0
    2.9172   16.2474    4.0010 N   0  0  0  0  0  0  0  0  0  0  0  0
    1.5553   16.1960    3.9614 C   0  0  0  0  0  0  0  0  0  0  0  0
    0.8977   15.7824    4.9096 O   0  0  0  0  0  0  0  0  0  0  0  0
    0.9646   16.6183    2.8223 N   0  0  0  0  0  0  0  0  0  0  0  0
    3.3134   15.9319    4.8797 H   0  0  0  0  0  0  0  0  0  0  0  0
    1.2574   17.5077    2.4265 H   0  0  0  0  0  0  0  0  0  0  0  0
    0.0146   16.3177    2.6578 H   0  0  0  0  0  0  0  0  0  0  0  0
  2  3  1  0  0  0  0
  2  6  1  0  0  0  0
  2  1  1  6  0  0  0
  3  4  1  0  0  0  0
  4  5  1  0  0  0  0
  5  6  1  0  0  0  0
  5  7  1  6  0  0  0
  7  8  2  0  0  0  0
  7  9  1  0  0  0  0
  9 10  1  0  0  0  0
  9 13  1  0  0  0  0
 10 11  2  0  0  0  0
 10 12  1  0  0  0  0
 12 14  1  0  0  0  0
 12 15  1  0  0  0  0
M  END
>  <CHROM.0>
58.35670047,-168.21523179,-64.25290103,-47.21803028,-58.01246398,-65.91111422
-66.42338143,-57.41382520,-168.46346979

>  <CHROM.1>
2.91498483,-48.24586486,4.13408940,17.27802751,3.88042566,0.11686205,0.37768812
1.54501368

>  <Name>
P137848586

>  <RI>
1.34432e+07

>  <Rbt.Current_Directory>
/home/fstefaniak/projects/zuza/docking/adenine/4XNR

>  <Rbt.Executable>
rbdock ($Id: //depot/dev/client3/rdock/2013.1/src/exe/rbdock.cxx#4 $)

>  <Rbt.Library>
libRbt.so (2013.1, Build901 2013/11/27)

>  <Rbt.Parameter_File>
/home/fstefaniak/progs/rDock//data/scripts/dock_solv.prm

>  <Rbt.Receptor>
4xnr.prm

>  <SCORE>
-45.9698

>  <SCORE.INTER>
-29.1192

>  <SCORE.INTER.CONST>
1

>  <SCORE.INTER.POLAR>
-3.24569

>  <SCORE.INTER.ROT>
2

>  <SCORE.INTER.SOLV>
13.9967

>  <SCORE.INTER.VDW>
-18.1927

>  <SCORE.INTER.norm>
-2.4266

>  <SCORE.INTRA>
0.0952208

>  <SCORE.INTRA.DIHEDRAL>
-0.828438

>  <SCORE.INTRA.DIHEDRAL.0>
2.10533

>  <SCORE.INTRA.POLAR>
0.177843

>  <SCORE.INTRA.POLAR.0>
-0.177843

>  <SCORE.INTRA.REPUL>
0

>  <SCORE.INTRA.REPUL.0>
0

>  <SCORE.INTRA.SOLV>
-0.230558

>  <SCORE.INTRA.SOLV.lig_0>
-18.9997

>  <SCORE.INTRA.VDW>
0.0200524

>  <SCORE.INTRA.VDW.0>
-0.42601

>  <SCORE.INTRA.norm>
0.00793507

>  <SCORE.RESTR>
0

>  <SCORE.RESTR.CAVITY>
0

>  <SCORE.RESTR.norm>
0

>  <SCORE.SYSTEM>
-16.9458

>  <SCORE.SYSTEM.CONST>
0

>  <SCORE.SYSTEM.DIHEDRAL>
4.61742

>  <SCORE.SYSTEM.POLAR>
-2.39523

>  <SCORE.SYSTEM.SOLV>
0.26147

>  <SCORE.SYSTEM.VDW>
-4.93942

>  <SCORE.SYSTEM.norm>
-1.41215

>  <SCORE.heavy>
12

>  <SCORE.norm>
-3.83081

$$$$
P137848586
 OpenBabel12072022113D
libRbt.so/2013.1/901 2013/11/27
 15 15  0  0  0  0  0  0  0  0999 V2000
    6.1656   19.6140    5.2545 C   0  0  0  0  0  0  0  0  0  0  0  0
    6.5320   18.1745    4.9183 C   0  0  2  0  0  0  0  0  0  0  0  0
    7.1445   18.0231    3.5363 C   0  0  0  0  0  0  0  0  0  0  0  0
    5.9382   17.8059    2.6578 C   0  0  0  0  0  0  0  0  0  0  0  0
    5.0196   17.0072    3.5644 C   0  0  1  0  0  0  0  0  0  0  0  0
    5.3285   17.3849    4.9190 O   0  0  0  0  0  0  0  0  0  0  0  0
    3.5367   17.2266    3.2502 C   0  0  0  0  0  0  0  0  0  0  0  0
    3.1403   17.9764    2.3603 O   0  0  0  0  0  0  0  0  0  0  0  0
    2.7198   16.4097    4.0168 N   0  0  0  0  0  0  0  0  0  0  0  0
    1.3579   16.4117    4.0816 C   0  0  0  0  0  0  0  0  0  0  0  0
    0.7563   15.9042    5.0213 O   0  0  0  0  0  0  0  0  0  0  0  0
    0.7020   16.9958    3.0552 N   0  0  0  0  0  0  0  0  0  0  0  0
    3.1670   15.9715    4.8146 H   0  0  0  0  0  0  0  0  0  0  0  0
   -0.1609   16.5699    2.7276 H   0  0  0  0  0  0  0  0  0  0  0  0
    1.2578   17.5111    2.3878 H   0  0  0  0  0  0  0  0  0  0  0  0
  2  3  1  0  0  0  0
  2  6  1  0  0  0  0
  2  1  1  6  0  0  0
  3  4  1  0  0  0  0
  4  5  1  0  0  0  0
  5  6  1  0  0  0  0
  5  7  1  6  0  0  0
  7  8  2  0  0  0  0
  7  9  1  0  0  0  0
  9 10  1  0  0  0  0
  9 13  1  0  0  0  0
 10 11  2  0  0  0  0
 10 12  1  0  0  0  0
 12 14  1  0  0  0  0
 12 15  1  0  0  0  0
M  END
>  <CHROM.0>
-57.22095131,-171.82925972,-174.37651815,-47.91102246,-57.36726811,-62.50388362
-56.40686842,-58.51091852,-168.07885535

>  <CHROM.1>
-0.30376605,141.88400441,3.97951006,17.41212505,3.89263108,0.02633902,0.33877676
1.68468300

>  <Name>
P137848586

>  <RI>
1.34432e+07

>  <Rbt.Current_Directory>
/home/fstefaniak/projects/zuza/docking/adenine/4XNR

>  <Rbt.Executable>
rbdock ($Id: //depot/dev/client3/rdock/2013.1/src/exe/rbdock.cxx#4 $)

>  <Rbt.Library>
libRbt.so (2013.1, Build901 2013/11/27)

>  <Rbt.Parameter_File>
/home/fstefaniak/progs/rDock//data/scripts/dock_solv.prm

>  <Rbt.Receptor>
4xnr.prm

>  <SCORE>
-45.6265

>  <SCORE.INTER>
-27.3825

>  <SCORE.INTER.CONST>
1

>  <SCORE.INTER.POLAR>
-2.83194

>  <SCORE.INTER.ROT>
2

>  <SCORE.INTER.SOLV>
14.4581

>  <SCORE.INTER.VDW>
-18.5679

>  <SCORE.INTER.norm>
-2.28188

>  <SCORE.INTRA>
0.343322

>  <SCORE.INTRA.DIHEDRAL>
-0.827337

>  <SCORE.INTRA.DIHEDRAL.0>
2.10533

>  <SCORE.INTRA.POLAR>
0.177843

>  <SCORE.INTRA.POLAR.0>
-0.177843

>  <SCORE.INTRA.REPUL>
0

>  <SCORE.INTRA.REPUL.0>
0

>  <SCORE.INTRA.SOLV>
-0.185837

>  <SCORE.INTRA.SOLV.lig_0>
-18.9997

>  <SCORE.INTRA.VDW>
0.245242

>  <SCORE.INTRA.VDW.0>
-0.42601

>  <SCORE.INTRA.norm>
0.0286101

>  <SCORE.RESTR>
0

>  <SCORE.RESTR.CAVITY>
0

>  <SCORE.RESTR.norm>
0

>  <SCORE.SYSTEM>
-18.5873

>  <SCORE.SYSTEM.CONST>
0

>  <SCORE.SYSTEM.DIHEDRAL>
4.06646

>  <SCORE.SYSTEM.POLAR>
-2.53454

>  <SCORE.SYSTEM.SOLV>
0.23121

>  <SCORE.SYSTEM.VDW>
-5.37565

>  <SCORE.SYSTEM.norm>
-1.54894

>  <SCORE.heavy>
12

>  <SCORE.norm>
-3.80221

$$$$
P137853014
 OpenBabel12072022113D
libRbt.so/2013.1/901 2013/11/27
 12 12  0  0  0  0  0  0  0  0999 V2000
    6.1340   18.6391    6.5869 C   0  0  0  0  0  0  0  0  0  0  0  0
    5.8199   18.7883    5.1114 C   0  0  1  0  0  0  0  0  0  0  0  0
    6.9857   18.4427    4.2045 C   0  0  0  0  0  0  0  0  0  0  0  0
    6.2767   18.1046    2.9144 C   0  0  0  0  0  0  0  0  0  0  0  0
    5.0140   17.4148    3.4055 C   0  0  2  0  0  0  0  0  0  0  0  0
    4.7577   17.8890    4.7451 O   0  0  0  0  0  0  0  0  0  0  0  0
    5.1282   15.8834    3.4154 C   0  0  0  0  0  0  0  0  0  0  0  0
    6.0116   15.2677    2.8289 O   0  0  0  0  0  0  0  0  0  0  0  0
    4.0926   15.2899    4.0964 N   0  0  0  0  0  0  0  0  0  0  0  0
    3.8447   13.9948    4.3230 C   0  0  0  0  0  0  0  0  0  0  0  0
    3.5792   12.8916    4.5543 N   0  0  0  0  0  0  0  0  0  0  0  0
    3.4989   15.9237    4.6207 H   0  0  0  0  0  0  0  0  0  0  0  0
  2  1  1  1  0  0  0
  2  3  1  0  0  0  0
  2  6  1  0  0  0  0
  3  4  1  0  0  0  0
  4  5  1  0  0  0  0
  5  6  1  0  0  0  0
  5  7  1  1  0  0  0
  7  8  2  0  0  0  0
  7  9  1  0  0  0  0
  9 10  1  0  0  0  0
  9 12  1  0  0  0  0
 10 11  3  0  0  0  0
M  END
>  <CHROM.0>
-55.88608621,-178.06996175,-68.59626601,-46.83503424,-59.60972590,-63.73383960
-68.88921525,-59.35583714,-168.06613540

>  <CHROM.1>
-14.88231266,5.25632777,16.63335341,4.21435125,0.75965318,0.97845575,0.88378900

>  <Name>
P137853014

>  <RI>
3.1908e+07

>  <Rbt.Current_Directory>
/home/fstefaniak/projects/zuza/docking/adenine/4XNR

>  <Rbt.Executable>
rbdock ($Id: //depot/dev/client3/rdock/2013.1/src/exe/rbdock.cxx#4 $)

>  <Rbt.Library>
libRbt.so (2013.1, Build901 2013/11/27)

>  <Rbt.Parameter_File>
/home/fstefaniak/progs/rDock//data/scripts/dock_solv.prm

>  <Rbt.Receptor>
4xnr.prm

>  <SCORE>
-45.3817

>  <SCORE.INTER>
-24.7913

>  <SCORE.INTER.CONST>
1

>  <SCORE.INTER.POLAR>
-1.79038

>  <SCORE.INTER.ROT>
1

>  <SCORE.INTER.SOLV>
11.5181

>  <SCORE.INTER.VDW>
-18.6656

>  <SCORE.INTER.norm>
-2.25375

>  <SCORE.INTRA>
0.179306

>  <SCORE.INTRA.DIHEDRAL>
-0.835788

>  <SCORE.INTRA.DIHEDRAL.0>
1.83225

>  <SCORE.INTRA.POLAR>
0.169211

>  <SCORE.INTRA.POLAR.0>
-0.204101

>  <SCORE.INTRA.REPUL>
0

>  <SCORE.INTRA.REPUL.0>
0

>  <SCORE.INTRA.SOLV>
-0.191277

>  <SCORE.INTRA.SOLV.lig_0>
-14.5823

>  <SCORE.INTRA.VDW>
0.117522

>  <SCORE.INTRA.VDW.0>
-0.489206

>  <SCORE.INTRA.norm>
0.0163005

>  <SCORE.RESTR>
0

>  <SCORE.RESTR.CAVITY>
0

>  <SCORE.RESTR.norm>
0

>  <SCORE.SYSTEM>
-20.7698

>  <SCORE.SYSTEM.CONST>
0

>  <SCORE.SYSTEM.DIHEDRAL>
4.41229

>  <SCORE.SYSTEM.POLAR>
-3.00554

>  <SCORE.SYSTEM.SOLV>
0.257993

>  <SCORE.SYSTEM.VDW>
-5.38479

>  <SCORE.SYSTEM.norm>
-1.88816

>  <SCORE.heavy>
11

>  <SCORE.norm>
-4.12561

$$$$
P137853014
 OpenBabel12072022113D
libRbt.so/2013.1/901 2013/11/27
 12 12  0  0  0  0  0  0  0  0999 V2000
    6.1663   18.6172    6.6153 C   0  0  0  0  0  0  0  0  0  0  0  0
    5.8433   18.7978    5.1452 C   0  0  1  0  0  0  0  0  0  0  0  0
    7.0005   18.4618    4.2237 C   0  0  0  0  0  0  0  0  0  0  0  0
    6.2805   18.1543    2.9321 C   0  0  0  0  0  0  0  0  0  0  0  0
    5.0162   17.4639    3.4181 C   0  0  2  0  0  0  0  0  0  0  0  0
    4.7723   17.9134    4.7685 O   0  0  0  0  0  0  0  0  0  0  0  0
    5.1194   15.9319    3.3971 C   0  0  0  0  0  0  0  0  0  0  0  0
    5.9937   15.3216    2.7916 O   0  0  0  0  0  0  0  0  0  0  0  0
    4.0850   15.3324    4.0746 N   0  0  0  0  0  0  0  0  0  0  0  0
    3.8295   14.0349    4.2778 C   0  0  0  0  0  0  0  0  0  0  0  0
    3.5578   12.9292    4.4895 N   0  0  0  0  0  0  0  0  0  0  0  0
    3.5000   15.9600    4.6160 H   0  0  0  0  0  0  0  0  0  0  0  0
  2  1  1  1  0  0  0
  2  3  1  0  0  0  0
  2  6  1  0  0  0  0
  3  4  1  0  0  0  0
  4  5  1  0  0  0  0
  5  6  1  0  0  0  0
  5  7  1  1  0  0  0
  7  8  2  0  0  0  0
  7  9  1  0  0  0  0
  9 10  1  0  0  0  0
  9 12  1  0  0  0  0
 10 11  3  0  0  0  0
M  END
>  <CHROM.0>
-57.94487873,-177.15452254,-68.23776602,-46.33802211,-60.82392061,-63.00109516
-67.16967631,-60.45916501,-168.20924104

>  <CHROM.1>
-14.95119741,5.25848568,16.66495611,4.21011423,0.74183940,0.97751844,0.91818333

>  <Name>
P137853014

>  <RI>
3.1908e+07

>  <Rbt.Current_Directory>
/home/fstefaniak/projects/zuza/docking/adenine/4XNR

>  <Rbt.Executable>
rbdock ($Id: //depot/dev/client3/rdock/2013.1/src/exe/rbdock.cxx#4 $)

>  <Rbt.Library>
libRbt.so (2013.1, Build901 2013/11/27)

>  <Rbt.Parameter_File>
/home/fstefaniak/progs/rDock//data/scripts/dock_solv.prm

>  <Rbt.Receptor>
4xnr.prm

>  <SCORE>
-45.3428

>  <SCORE.INTER>
-24.7264

>  <SCORE.INTER.CONST>
1

>  <SCORE.INTER.POLAR>
-1.77857

>  <SCORE.INTER.ROT>
1

>  <SCORE.INTER.SOLV>
11.4378

>  <SCORE.INTER.VDW>
-18.6349

>  <SCORE.INTER.norm>
-2.24785

>  <SCORE.INTRA>
0.178929

>  <SCORE.INTRA.DIHEDRAL>
-0.833813

>  <SCORE.INTRA.DIHEDRAL.0>
1.83225

>  <SCORE.INTRA.POLAR>
0.168773

>  <SCORE.INTRA.POLAR.0>
-0.204101

>  <SCORE.INTRA.REPUL>
0

>  <SCORE.INTRA.REPUL.0>
0

>  <SCORE.INTRA.SOLV>
-0.190648

>  <SCORE.INTRA.SOLV.lig_0>
-14.5823

>  <SCORE.INTRA.VDW>
0.117333

>  <SCORE.INTRA.VDW.0>
-0.489206

>  <SCORE.INTRA.norm>
0.0162663

>  <SCORE.RESTR>
0

>  <SCORE.RESTR.CAVITY>
0

>  <SCORE.RESTR.norm>
0

>  <SCORE.SYSTEM>
-20.7953

>  <SCORE.SYSTEM.CONST>
0

>  <SCORE.SYSTEM.DIHEDRAL>
4.24981

>  <SCORE.SYSTEM.POLAR>
-2.9954

>  <SCORE.SYSTEM.SOLV>
0.258514

>  <SCORE.SYSTEM.VDW>
-5.38165

>  <SCORE.SYSTEM.norm>
-1.89049

>  <SCORE.heavy>
11

>  <SCORE.norm>
-4.12207

$$$$
P137853014
 OpenBabel12072022113D
libRbt.so/2013.1/901 2013/11/27
 12 12  0  0  0  0  0  0  0  0999 V2000
    6.1792   18.6402    6.5936 C   0  0  0  0  0  0  0  0  0  0  0  0
    5.8345   18.8044    5.1266 C   0  0  1  0  0  0  0  0  0  0  0  0
    6.9834   18.4752    4.1924 C   0  0  0  0  0  0  0  0  0  0  0  0
    6.2502   18.1480    2.9132 C   0  0  0  0  0  0  0  0  0  0  0  0
    5.0013   17.4459    3.4218 C   0  0  2  0  0  0  0  0  0  0  0  0
    4.7698   17.9037    4.7716 O   0  0  0  0  0  0  0  0  0  0  0  0
    5.1234   15.9152    3.4119 C   0  0  0  0  0  0  0  0  0  0  0  0
    6.0122   15.3119    2.8207 O   0  0  0  0  0  0  0  0  0  0  0  0
    4.0884   15.3074    4.0811 N   0  0  0  0  0  0  0  0  0  0  0  0
    3.8464   14.0081    4.2897 C   0  0  0  0  0  0  0  0  0  0  0  0
    3.5858   12.9006    4.5054 N   0  0  0  0  0  0  0  0  0  0  0  0
    3.4895   15.9311    4.6114 H   0  0  0  0  0  0  0  0  0  0  0  0
  2  1  1  1  0  0  0
  2  3  1  0  0  0  0
  2  6  1  0  0  0  0
  3  4  1  0  0  0  0
  4  5  1  0  0  0  0
  5  6  1  0  0  0  0
  5  7  1  1  0  0  0
  7  8  2  0  0  0  0
  7  9  1  0  0  0  0
  9 10  1  0  0  0  0
  9 12  1  0  0  0  0
 10 11  3  0  0  0  0
M  END
>  <CHROM.0>
-57.11452651,-177.43928093,-64.60538843,-46.71307419,-58.63734767,-65.30026870
-67.67394833,-57.85721508,-167.10635364

>  <CHROM.1>
-13.50452004,5.25951364,16.65642201,4.20959376,0.74491598,0.98547793,0.90916279

>  <Name>
P137853014

>  <RI>
3.1908e+07

>  <Rbt.Current_Directory>
/home/fstefaniak/projects/zuza/docking/adenine/4XNR

>  <Rbt.Executable>
rbdock ($Id: //depot/dev/client3/rdock/2013.1/src/exe/rbdock.cxx#4 $)

>  <Rbt.Library>
libRbt.so (2013.1, Build901 2013/11/27)

>  <Rbt.Parameter_File>
/home/fstefaniak/progs/rDock//data/scripts/dock_solv.prm

>  <Rbt.Receptor>
4xnr.prm

>  <SCORE>
-45.3394

>  <SCORE.INTER>
-24.8674

>  <SCORE.INTER.CONST>
1

>  <SCORE.INTER.POLAR>
-1.7823

>  <SCORE.INTER.ROT>
1

>  <SCORE.INTER.SOLV>
11.4821

>  <SCORE.INTER.VDW>
-18.7313

>  <SCORE.INTER.norm>
-2.26067

>  <SCORE.INTRA>
0.203557

>  <SCORE.INTRA.DIHEDRAL>
-0.873561

>  <SCORE.INTRA.DIHEDRAL.0>
1.83225

>  <SCORE.INTRA.POLAR>
0.17745

>  <SCORE.INTRA.POLAR.0>
-0.204101

>  <SCORE.INTRA.REPUL>
0

>  <SCORE.INTRA.REPUL.0>
0

>  <SCORE.INTRA.SOLV>
-0.203839

>  <SCORE.INTRA.SOLV.lig_0>
-14.5823

>  <SCORE.INTRA.VDW>
0.138928

>  <SCORE.INTRA.VDW.0>
-0.489206

>  <SCORE.INTRA.norm>
0.0185052

>  <SCORE.RESTR>
0

>  <SCORE.RESTR.CAVITY>
0

>  <SCORE.RESTR.norm>
0

>  <SCORE.SYSTEM>
-20.6756

>  <SCORE.SYSTEM.CONST>
0

>  <SCORE.SYSTEM.DIHEDRAL>
4.26724

>  <SCORE.SYSTEM.POLAR>
-3.00704

>  <SCORE.SYSTEM.SOLV>
0.26452

>  <SCORE.SYSTEM.VDW>
-5.27083

>  <SCORE.SYSTEM.norm>
-1.8796

>  <SCORE.heavy>
11

>  <SCORE.norm>
-4.12176

$$$$
P142916272
 OpenBabel12072022113D
libRbt.so/2013.1/901 2013/11/27
 10  9  0  0  0  0  0  0  0  0999 V2000
    7.0315   18.2430    1.5407 C   0  0  0  0  0  0  0  0  0  0  0  0
    6.2192   17.1129    1.8550 O   0  0  0  0  0  0  0  0  0  0  0  0
    5.9017   17.0180    3.1714 C   0  0  0  0  0  0  0  0  0  0  0  0
    6.2370   17.7852    4.0603 O   0  0  0  0  0  0  0  0  0  0  0  0
    5.0782   15.8657    3.4426 C   0  0  0  0  0  0  0  0  0  0  0  0
    4.3292   14.8212    3.6617 C   0  0  0  0  0  0  0  0  0  0  0  0
    3.4560   13.6035    3.9172 C   0  0  0  0  0  0  0  0  0  0  0  0
    2.4897   13.8563    5.0702 C   0  0  0  0  0  0  0  0  0  0  0  0
    1.6205   14.9486    4.7829 O   0  0  0  0  0  0  0  0  0  0  0  0
    1.0891   15.1144    5.5818 H   0  0  0  0  0  0  0  0  0  0  0  0
  1  2  1  0  0  0  0
  2  3  1  0  0  0  0
  3  4  2  0  0  0  0
  3  5  1  0  0  0  0
  5  6  3  0  0  0  0
  6  7  1  0  0  0  0
  7  8  1  0  0  0  0
  8  9  1  0  0  0  0
  9 10  1  0  0  0  0
M  END
>  <CHROM.0>
-56.72884672,-61.98355035,60.58862992,-48.03247377,-59.57587060,58.60068686
52.77933859,58.10623495,-167.64897922

>  <CHROM.1>
0.14827301,-13.83591008,-99.64283738,60.64698622,-174.75778155,4.67745044
15.96212731,3.50774827,-0.28892375,-0.75050440,-2.56303661

>  <Name>
P142916272

>  <RI>
3.1908e+07

>  <Rbt.Current_Directory>
/home/fstefaniak/projects/zuza/docking/adenine/4XNR

>  <Rbt.Executable>
rbdock ($Id: //depot/dev/client3/rdock/2013.1/src/exe/rbdock.cxx#4 $)

>  <Rbt.Library>
libRbt.so (2013.1, Build901 2013/11/27)

>  <Rbt.Parameter_File>
/home/fstefaniak/progs/rDock//data/scripts/dock_solv.prm

>  <Rbt.Receptor>
4xnr.prm

>  <SCORE>
nan

>  <SCORE.INTER>
-17.6549

>  <SCORE.INTER.CONST>
1

>  <SCORE.INTER.POLAR>
-1.89158

>  <SCORE.INTER.ROT>
4

>  <SCORE.INTER.SOLV>
8.57261

>  <SCORE.INTER.VDW>
-14.5889

>  <SCORE.INTER.norm>
-1.96166

>  <SCORE.INTRA>
nan

>  <SCORE.INTRA.DIHEDRAL>
nan

>  <SCORE.INTRA.DIHEDRAL.0>
nan

>  <SCORE.INTRA.POLAR>
0

>  <SCORE.INTRA.POLAR.0>
0

>  <SCORE.INTRA.REPUL>
0

>  <SCORE.INTRA.REPUL.0>
0

>  <SCORE.INTRA.SOLV>
0.151405

>  <SCORE.INTRA.SOLV.lig_0>
-9.51006

>  <SCORE.INTRA.VDW>
-0.128379

>  <SCORE.INTRA.VDW.0>
1.1994

>  <SCORE.INTRA.norm>
nan

>  <SCORE.RESTR>
0

>  <SCORE.RESTR.CAVITY>
0

>  <SCORE.RESTR.norm>
0

>  <SCORE.SYSTEM>
-16.9045

>  <SCORE.SYSTEM.CONST>
0

>  <SCORE.SYSTEM.DIHEDRAL>
3.80389

>  <SCORE.SYSTEM.POLAR>
-2.96395

>  <SCORE.SYSTEM.SOLV>
-0.110309

>  <SCORE.SYSTEM.VDW>
-2.62103

>  <SCORE.SYSTEM.norm>
-1.87828

>  <SCORE.heavy>
9

>  <SCORE.norm>
nan

$$$$
P142916272
 OpenBabel12072022113D
libRbt.so/2013.1/901 2013/11/27
 10  9  0  0  0  0  0  0  0  0999 V2000
    1.1920   15.1594    3.9051 C   0  0  0  0  0  0  0  0  0  0  0  0
    2.2601   16.0592    4.1968 O   0  0  0  0  0  0  0  0  0  0  0  0
    3.4335   15.7249    3.6015 C   0  0  0  0  0  0  0  0  0  0  0  0
    3.6441   14.7469    2.9014 O   0  0  0  0  0  0  0  0  0  0  0  0
    4.4696   16.6883    3.8803 C   0  0  0  0  0  0  0  0  0  0  0  0
    5.4148   17.5573    4.1072 C   0  0  0  0  0  0  0  0  0  0  0  0
    6.5167   18.5704    4.3718 C   0  0  0  0  0  0  0  0  0  0  0  0
    6.2449   19.3509    5.6540 C   0  0  0  0  0  0  0  0  0  0  0  0
    5.9825   18.4726    6.7452 O   0  0  0  0  0  0  0  0  0  0  0  0
    6.7754   17.9217    6.8715 H   0  0  0  0  0  0  0  0  0  0  0  0
  1  2  1  0  0  0  0
  2  3  1  0  0  0  0
  3  4  2  0  0  0  0
  3  5  1  0  0  0  0
  5  6  3  0  0  0  0
  6  7  1  0  0  0  0
  7  8  1  0  0  0  0
  8  9  1  0  0  0  0
  9 10  1  0  0  0  0
M  END
>  <CHROM.0>
-54.92853638,66.79035101,59.48194116,54.32223314,-60.14699115,-63.04314039
51.95962500,-57.48039613,-166.89586490

>  <CHROM.1>
-1.96601453,-140.02776929,145.83810296,51.64768583,60.88375578,4.32301299
16.90910042,4.42489863,2.43634595,-0.41636625,-2.17402028

>  <Name>
P142916272

>  <RI>
3.1908e+07

>  <Rbt.Current_Directory>
/home/fstefaniak/projects/zuza/docking/adenine/4XNR

>  <Rbt.Executable>
rbdock ($Id: //depot/dev/client3/rdock/2013.1/src/exe/rbdock.cxx#4 $)

>  <Rbt.Library>
libRbt.so (2013.1, Build901 2013/11/27)

>  <Rbt.Parameter_File>
/home/fstefaniak/progs/rDock//data/scripts/dock_solv.prm

>  <Rbt.Receptor>
4xnr.prm

>  <SCORE>
nan

>  <SCORE.INTER>
-18.845

>  <SCORE.INTER.CONST>
1

>  <SCORE.INTER.POLAR>
-2.17248

>  <SCORE.INTER.ROT>
4

>  <SCORE.INTER.SOLV>
9.13994

>  <SCORE.INTER.VDW>
-14.6351

>  <SCORE.INTER.norm>
-2.09389

>  <SCORE.INTRA>
nan

>  <SCORE.INTRA.DIHEDRAL>
nan

>  <SCORE.INTRA.DIHEDRAL.0>
nan

>  <SCORE.INTRA.POLAR>
0

>  <SCORE.INTRA.POLAR.0>
0

>  <SCORE.INTRA.REPUL>
0

>  <SCORE.INTRA.REPUL.0>
0

>  <SCORE.INTRA.SOLV>
0.161337

>  <SCORE.INTRA.SOLV.lig_0>
-9.51006

>  <SCORE.INTRA.VDW>
0.112492

>  <SCORE.INTRA.VDW.0>
1.1994

>  <SCORE.INTRA.norm>
nan

>  <SCORE.RESTR>
0

>  <SCORE.RESTR.CAVITY>
0

>  <SCORE.RESTR.norm>
0

>  <SCORE.SYSTEM>
-14.6268

>  <SCORE.SYSTEM.CONST>
0

>  <SCORE.SYSTEM.DIHEDRAL>
3.74147

>  <SCORE.SYSTEM.POLAR>
-2.43103

>  <SCORE.SYSTEM.SOLV>
0.18029

>  <SCORE.SYSTEM.VDW>
-2.95502

>  <SCORE.SYSTEM.norm>
-1.6252

>  <SCORE.heavy>
9

>  <SCORE.norm>
nan

$$$$
P142916272
 OpenBabel12072022113D
libRbt.so/2013.1/901 2013/11/27
 10  9  0  0  0  0  0  0  0  0999 V2000
    2.6202   12.3615    5.0863 C   0  0  0  0  0  0  0  0  0  0  0  0
    3.0271   13.7282    5.1336 O   0  0  0  0  0  0  0  0  0  0  0  0
    3.1073   14.3165    3.9128 C   0  0  0  0  0  0  0  0  0  0  0  0
    2.5537   13.9498    2.8881 O   0  0  0  0  0  0  0  0  0  0  0  0
    3.9492   15.4870    3.9361 C   0  0  0  0  0  0  0  0  0  0  0  0
    4.7274   16.5326    3.9731 C   0  0  0  0  0  0  0  0  0  0  0  0
    5.6345   17.7515    4.0162 C   0  0  0  0  0  0  0  0  0  0  0  0
    6.4219   17.8928    2.7173 C   0  0  0  0  0  0  0  0  0  0  0  0
    7.5989   18.6726    2.9114 O   0  0  0  0  0  0  0  0  0  0  0  0
    8.2382   18.1181    3.3930 H   0  0  0  0  0  0  0  0  0  0  0  0
  1  2  1  0  0  0  0
  2  3  1  0  0  0  0
  3  4  2  0  0  0  0
  3  5  1  0  0  0  0
  5  6  3  0  0  0  0
  6  7  1  0  0  0  0
  7  8  1  0  0  0  0
  8  9  1  0  0  0  0
  9 10  1  0  0  0  0
M  END
>  <CHROM.0>
-54.82020935,32.96945682,62.50939665,54.35157922,-57.05235386,-174.00837524
53.89530197,-174.03277286,-166.60397382

>  <CHROM.1>
21.01903248,40.30682642,92.42567278,-157.80855033,74.18403555,4.44257051
15.62673025,3.83411534,-2.67242914,-0.79267120,-1.21350179

>  <Name>
P142916272

>  <RI>
3.1908e+07

>  <Rbt.Current_Directory>
/home/fstefaniak/projects/zuza/docking/adenine/4XNR

>  <Rbt.Executable>
rbdock ($Id: //depot/dev/client3/rdock/2013.1/src/exe/rbdock.cxx#4 $)

>  <Rbt.Library>
libRbt.so (2013.1, Build901 2013/11/27)

>  <Rbt.Parameter_File>
/home/fstefaniak/progs/rDock//data/scripts/dock_solv.prm

>  <Rbt.Receptor>
4xnr.prm

>  <SCORE>
nan

>  <SCORE.INTER>
-19.0585

>  <SCORE.INTER.CONST>
1

>  <SCORE.INTER.POLAR>
-2.58138

>  <SCORE.INTER.ROT>
4

>  <SCORE.INTER.SOLV>
8.2059

>  <SCORE.INTER.VDW>
-13.103

>  <SCORE.INTER.norm>
-2.11761

>  <SCORE.INTRA>
nan

>  <SCORE.INTRA.DIHEDRAL>
nan

>  <SCORE.INTRA.DIHEDRAL.0>
nan

>  <SCORE.INTRA.POLAR>
0

>  <SCORE.INTRA.POLAR.0>
0

>  <SCORE.INTRA.REPUL>
0

>  <SCORE.INTRA.REPUL.0>
0

>  <SCORE.INTRA.SOLV>
-0.276286

>  <SCORE.INTRA.SOLV.lig_0>
-9.51006

>  <SCORE.INTRA.VDW>
-0.282111

>  <SCORE.INTRA.VDW.0>
1.1994

>  <SCORE.INTRA.norm>
nan

>  <SCORE.RESTR>
0

>  <SCORE.RESTR.CAVITY>
0

>  <SCORE.RESTR.norm>
0

>  <SCORE.SYSTEM>
-13.6871

>  <SCORE.SYSTEM.CONST>
0

>  <SCORE.SYSTEM.DIHEDRAL>
6.72696

>  <SCORE.SYSTEM.POLAR>
-2.60439

>  <SCORE.SYSTEM.SOLV>
0.0355823

>  <SCORE.SYSTEM.VDW>
-2.69761

>  <SCORE.SYSTEM.norm>
-1.52079

>  <SCORE.heavy>
9

>  <SCORE.norm>
nan

$$$$
P150368952
 OpenBabel12072022113D
libRbt.so/2013.1/901 2013/11/27
 11 11  0  0  0  0  0  0  0  0999 V2000
    6.6229   16.9860    3.2084 C   0  0  0  0  0  0  0  0  0  0  0  0
    6.1939   18.3361    3.8360 C   0  0  0  0  0  0  0  0  0  0  0  0
    4.7866   17.8765    3.3792 C   0  0  0  0  0  0  0  0  0  0  0  0
    5.3806   16.9241    2.4521 O   0  0  0  0  0  0  0  0  0  0  0  0
    6.3887   18.4369    5.4048 C   0  0  0  0  0  0  0  0  0  0  0  0
    5.8401   17.7516    6.2664 O   0  0  0  0  0  0  0  0  0  0  0  0
    7.2758   19.4102    5.7880 N   0  0  0  0  0  0  0  0  0  0  0  0
    6.7050   19.5243    3.1362 O   0  0  0  0  0  0  0  0  0  0  0  0
    7.7319   19.9790    5.0821 H   0  0  0  0  0  0  0  0  0  0  0  0
    7.4687   19.5535    6.7689 H   0  0  0  0  0  0  0  0  0  0  0  0
    6.5766   19.3109    2.1924 H   0  0  0  0  0  0  0  0  0  0  0  0
  1  2  1  0  0  0  0
  1  4  1  0  0  0  0
  2  3  1  0  0  0  0
  2  5  1  0  0  0  0
  2  8  1  0  0  0  0
  3  4  1  0  0  0  0
  5  6  2  0  0  0  0
  5  7  1  0  0  0  0
  7  9  1  0  0  0  0
  7 10  1  0  0  0  0
  8 11  1  0  0  0  0
M  END
>  <CHROM.0>
-60.08959163,-175.72885976,-64.30919535,-48.06364637,-59.93376273,-66.41975077
-67.32683510,-57.28691926,-167.54778763

>  <CHROM.1>
-62.54221909,43.18017637,6.16398336,18.18071471,4.16965991,2.14429597,-0.98493616
-1.49895944

>  <Name>
P150368952

>  <RI>
1.34432e+07

>  <Rbt.Current_Directory>
/home/fstefaniak/projects/zuza/docking/adenine/4XNR

>  <Rbt.Executable>
rbdock ($Id: //depot/dev/client3/rdock/2013.1/src/exe/rbdock.cxx#4 $)

>  <Rbt.Library>
libRbt.so (2013.1, Build901 2013/11/27)

>  <Rbt.Parameter_File>
/home/fstefaniak/progs/rDock//data/scripts/dock_solv.prm

>  <Rbt.Receptor>
4xnr.prm

>  <SCORE>
-48.9273

>  <SCORE.INTER>
-28.1925

>  <SCORE.INTER.CONST>
1

>  <SCORE.INTER.POLAR>
-4.58149

>  <SCORE.INTER.ROT>
1

>  <SCORE.INTER.SOLV>
10.892

>  <SCORE.INTER.VDW>
-11.4207

>  <SCORE.INTER.norm>
-3.52406

>  <SCORE.INTRA>
-0.0544542

>  <SCORE.INTRA.DIHEDRAL>
-0.359663

>  <SCORE.INTRA.DIHEDRAL.0>
3.73381

>  <SCORE.INTRA.POLAR>
0.0430355

>  <SCORE.INTRA.POLAR.0>
-0.136714

>  <SCORE.INTRA.REPUL>
0

>  <SCORE.INTRA.REPUL.0>
0

>  <SCORE.INTRA.SOLV>
-0.0151742

>  <SCORE.INTRA.SOLV.lig_0>
-15.3538

>  <SCORE.INTRA.VDW>
-0.0133564

>  <SCORE.INTRA.VDW.0>
-0.0638601

>  <SCORE.INTRA.norm>
-0.00680677

>  <SCORE.RESTR>
0

>  <SCORE.RESTR.CAVITY>
0

>  <SCORE.RESTR.norm>
0

>  <SCORE.SYSTEM>
-20.6804

>  <SCORE.SYSTEM.CONST>
0

>  <SCORE.SYSTEM.DIHEDRAL>
4.11405

>  <SCORE.SYSTEM.POLAR>
-2.9635

>  <SCORE.SYSTEM.SOLV>
0.252987

>  <SCORE.SYSTEM.VDW>
-5.36425

>  <SCORE.SYSTEM.norm>
-2.58504

>  <SCORE.heavy>
8

>  <SCORE.norm>
-6.11591

$$$$
P150368952
 OpenBabel12072022113D
libRbt.so/2013.1/901 2013/11/27
 11 11  0  0  0  0  0  0  0  0999 V2000
    6.6398   16.9915    3.2095 C   0  0  0  0  0  0  0  0  0  0  0  0
    6.2186   18.3357    3.8547 C   0  0  0  0  0  0  0  0  0  0  0  0
    4.8050   17.8775    3.4161 C   0  0  0  0  0  0  0  0  0  0  0  0
    5.3859   16.9336    2.4721 O   0  0  0  0  0  0  0  0  0  0  0  0
    6.4376   18.4241    5.4210 C   0  0  0  0  0  0  0  0  0  0  0  0
    5.9006   17.7335    6.2857 O   0  0  0  0  0  0  0  0  0  0  0  0
    7.3328   19.3924    5.7980 N   0  0  0  0  0  0  0  0  0  0  0  0
    6.7169   19.5304    3.1568 O   0  0  0  0  0  0  0  0  0  0  0  0
    7.7794   19.9655    5.0896 H   0  0  0  0  0  0  0  0  0  0  0  0
    7.5411   19.5278    6.7769 H   0  0  0  0  0  0  0  0  0  0  0  0
    6.3438   20.2718    3.6707 H   0  0  0  0  0  0  0  0  0  0  0  0
  1  2  1  0  0  0  0
  1  4  1  0  0  0  0
  2  3  1  0  0  0  0
  2  5  1  0  0  0  0
  2  8  1  0  0  0  0
  3  4  1  0  0  0  0
  5  6  2  0  0  0  0
  5  7  1  0  0  0  0
  7  9  1  0  0  0  0
  7 10  1  0  0  0  0
  8 11  1  0  0  0  0
M  END
>  <CHROM.0>
-56.57381583,-171.66693515,-67.48444766,-46.26768188,-59.64704351,-65.10003606
-64.71078954,-57.33468284,-166.78885426

>  <CHROM.1>
-62.77024364,178.39110864,6.19221357,18.18561796,4.20005756,2.20546998,-1.00115465
-1.45154778

>  <Name>
P150368952

>  <RI>
1.34432e+07

>  <Rbt.Current_Directory>
/home/fstefaniak/projects/zuza/docking/adenine/4XNR

>  <Rbt.Executable>
rbdock ($Id: //depot/dev/client3/rdock/2013.1/src/exe/rbdock.cxx#4 $)

>  <Rbt.Library>
libRbt.so (2013.1, Build901 2013/11/27)

>  <Rbt.Parameter_File>
/home/fstefaniak/progs/rDock//data/scripts/dock_solv.prm

>  <Rbt.Receptor>
4xnr.prm

>  <SCORE>
-48.7752

>  <SCORE.INTER>
-28.3253

>  <SCORE.INTER.CONST>
1

>  <SCORE.INTER.POLAR>
-4.67599

>  <SCORE.INTER.ROT>
1

>  <SCORE.INTER.SOLV>
10.8416

>  <SCORE.INTER.VDW>
-11.1774

>  <SCORE.INTER.norm>
-3.54066

>  <SCORE.INTRA>
0.112377

>  <SCORE.INTRA.DIHEDRAL>
0.141828

>  <SCORE.INTRA.DIHEDRAL.0>
3.73381

>  <SCORE.INTRA.POLAR>
0.136714

>  <SCORE.INTRA.POLAR.0>
-0.136714

>  <SCORE.INTRA.REPUL>
0

>  <SCORE.INTRA.REPUL.0>
0

>  <SCORE.INTRA.SOLV>
0.0879786

>  <SCORE.INTRA.SOLV.lig_0>
-15.3538

>  <SCORE.INTRA.VDW>
-0.467354

>  <SCORE.INTRA.VDW.0>
-0.0638601

>  <SCORE.INTRA.norm>
0.0140472

>  <SCORE.RESTR>
0

>  <SCORE.RESTR.CAVITY>
0

>  <SCORE.RESTR.norm>
0

>  <SCORE.SYSTEM>
-20.5622

>  <SCORE.SYSTEM.CONST>
0

>  <SCORE.SYSTEM.DIHEDRAL>
4.65403

>  <SCORE.SYSTEM.POLAR>
-3.0147

>  <SCORE.SYSTEM.SOLV>
0.262632

>  <SCORE.SYSTEM.VDW>
-5.29804

>  <SCORE.SYSTEM.norm>
-2.57028

>  <SCORE.heavy>
8

>  <SCORE.norm>
-6.09689

$$$$
P150368952
 OpenBabel12072022113D
libRbt.so/2013.1/901 2013/11/27
 11 11  0  0  0  0  0  0  0  0999 V2000
    5.7854   16.0639    3.1182 C   0  0  0  0  0  0  0  0  0  0  0  0
    5.5377   17.4708    2.5184 C   0  0  0  0  0  0  0  0  0  0  0  0
    4.7789   17.6898    3.8513 C   0  0  0  0  0  0  0  0  0  0  0  0
    4.6859   16.2511    4.0538 O   0  0  0  0  0  0  0  0  0  0  0  0
    6.8368   18.3582    2.3341 C   0  0  0  0  0  0  0  0  0  0  0  0
    7.3722   19.0748    3.1784 O   0  0  0  0  0  0  0  0  0  0  0  0
    7.3824   18.2815    1.0781 N   0  0  0  0  0  0  0  0  0  0  0  0
    4.6839   17.4823    1.3211 O   0  0  0  0  0  0  0  0  0  0  0  0
    6.9457   17.6920    0.3769 H   0  0  0  0  0  0  0  0  0  0  0  0
    8.2141   18.8114    0.8603 H   0  0  0  0  0  0  0  0  0  0  0  0
    4.6171   18.4290    1.0927 H   0  0  0  0  0  0  0  0  0  0  0  0
  1  2  1  0  0  0  0
  1  4  1  0  0  0  0
  2  3  1  0  0  0  0
  2  5  1  0  0  0  0
  2  8  1  0  0  0  0
  3  4  1  0  0  0  0
  5  6  2  0  0  0  0
  5  7  1  0  0  0  0
  7  9  1  0  0  0  0
  7 10  1  0  0  0  0
  8 11  1  0  0  0  0
M  END
>  <CHROM.0>
-52.93515944,58.97068439,-65.88547642,-46.46992687,-56.56040154,-56.24022205
-67.01363489,-58.33681707,-167.98319070

>  <CHROM.1>
-85.13405214,178.76414645,5.87520410,17.59228026,2.65009256,2.60087140,0.65734257
1.65027925

>  <Name>
P150368952

>  <RI>
1.34432e+07

>  <Rbt.Current_Directory>
/home/fstefaniak/projects/zuza/docking/adenine/4XNR

>  <Rbt.Executable>
rbdock ($Id: //depot/dev/client3/rdock/2013.1/src/exe/rbdock.cxx#4 $)

>  <Rbt.Library>
libRbt.so (2013.1, Build901 2013/11/27)

>  <Rbt.Parameter_File>
/home/fstefaniak/progs/rDock//data/scripts/dock_solv.prm

>  <Rbt.Receptor>
4xnr.prm

>  <SCORE>
-48.1593

>  <SCORE.INTER>
-27.5056

>  <SCORE.INTER.CONST>
1

>  <SCORE.INTER.POLAR>
-4.56881

>  <SCORE.INTER.ROT>
1

>  <SCORE.INTER.SOLV>
11.9332

>  <SCORE.INTER.VDW>
-11.3521

>  <SCORE.INTER.norm>
-3.4382

>  <SCORE.INTRA>
-0.785179

>  <SCORE.INTRA.DIHEDRAL>
-1.21558

>  <SCORE.INTRA.DIHEDRAL.0>
3.73381

>  <SCORE.INTRA.POLAR>
0.136714

>  <SCORE.INTRA.POLAR.0>
-0.136714

>  <SCORE.INTRA.REPUL>
0

>  <SCORE.INTRA.REPUL.0>
0

>  <SCORE.INTRA.SOLV>
0.0188343

>  <SCORE.INTRA.SOLV.lig_0>
-15.3538

>  <SCORE.INTRA.VDW>
-0.651634

>  <SCORE.INTRA.VDW.0>
-0.0638601

>  <SCORE.INTRA.norm>
-0.0981473

>  <SCORE.RESTR>
0

>  <SCORE.RESTR.CAVITY>
0

>  <SCORE.RESTR.norm>
0

>  <SCORE.SYSTEM>
-19.8685

>  <SCORE.SYSTEM.CONST>
0

>  <SCORE.SYSTEM.DIHEDRAL>
4.35658

>  <SCORE.SYSTEM.POLAR>
-3.06126

>  <SCORE.SYSTEM.SOLV>
0.391995

>  <SCORE.SYSTEM.VDW>
-4.62435

>  <SCORE.SYSTEM.norm>
-2.48357

>  <SCORE.heavy>
8

>  <SCORE.norm>
-6.01991

$$$$
P150397825
 OpenBabel12072022113D
libRbt.so/2013.1/901 2013/11/27
 15 15  0  0  0  0  0  0  0  0999 V2000
    5.8896   18.9085    5.1434 C   0  0  0  0  0  0  0  0  0  0  0  0
    5.5166   17.6422    4.9025 C   0  0  0  0  0  0  0  0  0  0  0  0
    5.0686   17.0438    3.5894 C   0  0  2  0  0  0  0  0  0  0  0  0
    3.9673   16.0067    3.7767 C   0  0  0  0  0  0  0  0  0  0  0  0
    2.6076   16.3701    3.7476 C   0  0  0  0  0  0  0  0  0  0  0  0
    1.6059   15.4140    3.9355 C   0  0  0  0  0  0  0  0  0  0  0  0
    1.9613   14.0789    4.1599 C   0  0  0  0  0  0  0  0  0  0  0  0
    3.3079   13.6982    4.1997 C   0  0  0  0  0  0  0  0  0  0  0  0
    4.3029   14.6619    4.0116 C   0  0  0  0  0  0  0  0  0  0  0  0
    0.9133   13.0699    4.3566 N   0  3  0  0  0  0  0  0  0  0  0  0
   -0.2658   13.4515    4.3398 O   0  0  0  0  0  0  0  0  0  0  0  0
    1.2689   11.8952    4.5292 O   0  5  0  0  0  0  0  0  0  0  0  0
    6.1649   16.4767    2.8080 N   0  0  0  0  0  0  0  0  0  0  0  0
    6.5561   15.6904    3.3226 H   0  0  0  0  0  0  0  0  0  0  0  0
    6.9105   17.1664    2.7472 H   0  0  0  0  0  0  0  0  0  0  0  0
  1  2  2  0  0  0  0
  3  4  1  0  0  0  0
  3 13  1  0  0  0  0
  3  2  1  1  0  0  0
  4  5  2  0  0  0  0
  4  9  1  0  0  0  0
  5  6  1  0  0  0  0
  6  7  2  0  0  0  0
  7  8  1  0  0  0  0
  7 10  1  0  0  0  0
  8  9  2  0  0  0  0
 10 11  2  0  0  0  0
 10 12  1  0  0  0  0
 13 14  1  0  0  0  0
 13 15  1  0  0  0  0
M  CHG  2  10   1  12  -1
M  END
>  <CHROM.0>
-55.94053010,-61.62366687,-65.39584109,-46.94493419,-60.07728158,-61.11186662
-67.69838775,-175.69096817,-168.30321803

>  <CHROM.1>
90.45327740,64.61399413,-143.67614776,3.22312899,15.22903603,4.11539680,0.73549668
0.19980835,0.17378152

>  <Name>
P150397825

>  <RI>
4.17015e+07

>  <Rbt.Current_Directory>
/home/fstefaniak/projects/zuza/docking/adenine/4XNR

>  <Rbt.Executable>
rbdock ($Id: //depot/dev/client3/rdock/2013.1/src/exe/rbdock.cxx#4 $)

>  <Rbt.Library>
libRbt.so (2013.1, Build901 2013/11/27)

>  <Rbt.Parameter_File>
/home/fstefaniak/progs/rDock//data/scripts/dock_solv.prm

>  <Rbt.Receptor>
4xnr.prm

>  <SCORE>
-47.4451

>  <SCORE.INTER>
-27.0911

>  <SCORE.INTER.CONST>
1

>  <SCORE.INTER.POLAR>
-2.07504

>  <SCORE.INTER.ROT>
3

>  <SCORE.INTER.SOLV>
8.8714

>  <SCORE.INTER.VDW>
-19.7011

>  <SCORE.INTER.norm>
-2.08393

>  <SCORE.INTRA>
0.466161

>  <SCORE.INTRA.DIHEDRAL>
0.817497

>  <SCORE.INTRA.DIHEDRAL.0>
0.94999

>  <SCORE.INTRA.POLAR>
0

>  <SCORE.INTRA.POLAR.0>
0

>  <SCORE.INTRA.REPUL>
0

>  <SCORE.INTRA.REPUL.0>
0

>  <SCORE.INTRA.SOLV>
-0.0464435

>  <SCORE.INTRA.SOLV.lig_0>
-7.7991

>  <SCORE.INTRA.VDW>
0.0806346

>  <SCORE.INTRA.VDW.0>
-0.814318

>  <SCORE.INTRA.norm>
0.0358586

>  <SCORE.RESTR>
0.00151849

>  <SCORE.RESTR.CAVITY>
0.00151849

>  <SCORE.RESTR.norm>
0.000116807

>  <SCORE.SYSTEM>
-20.8217

>  <SCORE.SYSTEM.CONST>
0

>  <SCORE.SYSTEM.DIHEDRAL>
4.10459

>  <SCORE.SYSTEM.POLAR>
-3.00554

>  <SCORE.SYSTEM.SOLV>
0.15552

>  <SCORE.SYSTEM.VDW>
-5.28267

>  <SCORE.SYSTEM.norm>
-1.60167

>  <SCORE.heavy>
13

>  <SCORE.norm>
-3.64962

$$$$
P150397825
 OpenBabel12072022113D
libRbt.so/2013.1/901 2013/11/27
 15 15  0  0  0  0  0  0  0  0999 V2000
    5.8071   18.7608    5.2648 C   0  0  0  0  0  0  0  0  0  0  0  0
    5.4982   17.4863    4.9804 C   0  0  0  0  0  0  0  0  0  0  0  0
    4.9981   16.9262    3.6693 C   0  0  2  0  0  0  0  0  0  0  0  0
    3.9130   15.8747    3.8703 C   0  0  0  0  0  0  0  0  0  0  0  0
    4.2369   14.5260    4.1107 C   0  0  0  0  0  0  0  0  0  0  0  0
    3.2344   13.5670    4.2786 C   0  0  0  0  0  0  0  0  0  0  0  0
    1.8914   13.9537    4.2019 C   0  0  0  0  0  0  0  0  0  0  0  0
    1.5482   15.2886    3.9565 C   0  0  0  0  0  0  0  0  0  0  0  0
    2.5581   16.2407    3.7889 C   0  0  0  0  0  0  0  0  0  0  0  0
    0.8339   12.9509    4.3788 N   0  3  0  0  0  0  0  0  0  0  0  0
    1.1788   11.7757    4.5686 O   0  0  0  0  0  0  0  0  0  0  0  0
   -0.3424   13.3380    4.3268 O   0  5  0  0  0  0  0  0  0  0  0  0
    6.0634   16.3933    2.8237 N   0  0  0  0  0  0  0  0  0  0  0  0
    6.4953   15.6068    3.3045 H   0  0  0  0  0  0  0  0  0  0  0  0
    6.7918   17.0984    2.7365 H   0  0  0  0  0  0  0  0  0  0  0  0
  1  2  2  0  0  0  0
  3  4  1  0  0  0  0
  3 13  1  0  0  0  0
  3  2  1  1  0  0  0
  4  5  2  0  0  0  0
  4  9  1  0  0  0  0
  5  6  1  0  0  0  0
  6  7  2  0  0  0  0
  7  8  1  0  0  0  0
  7 10  1  0  0  0  0
  8  9  2  0  0  0  0
 10 11  2  0  0  0  0
 10 12  1  0  0  0  0
 13 14  1  0  0  0  0
 13 15  1  0  0  0  0
M  CHG  2  10   1  12  -1
M  END
>  <CHROM.0>
-57.14905918,-64.89056097,-74.87717677,-47.74298167,-176.34802666,-63.02301198
-173.36119038,-176.44996879,-167.90151901

>  <CHROM.1>
-85.28103721,63.39404915,-139.91578512,3.15353806,15.10427564,4.16835871
0.73576747,0.18869381,0.17446341

>  <Name>
P150397825

>  <RI>
4.17015e+07

>  <Rbt.Current_Directory>
/home/fstefaniak/projects/zuza/docking/adenine/4XNR

>  <Rbt.Executable>
rbdock ($Id: //depot/dev/client3/rdock/2013.1/src/exe/rbdock.cxx#4 $)

>  <Rbt.Library>
libRbt.so (2013.1, Build901 2013/11/27)

>  <Rbt.Parameter_File>
/home/fstefaniak/progs/rDock//data/scripts/dock_solv.prm

>  <Rbt.Receptor>
4xnr.prm

>  <SCORE>
-47.1932

>  <SCORE.INTER>
-27.104

>  <SCORE.INTER.CONST>
1

>  <SCORE.INTER.POLAR>
-2.07615

>  <SCORE.INTER.ROT>
3

>  <SCORE.INTER.SOLV>
8.82267

>  <SCORE.INTER.VDW>
-19.6897

>  <SCORE.INTER.norm>
-2.08492

>  <SCORE.INTRA>
0.168916

>  <SCORE.INTRA.DIHEDRAL>
0.514613

>  <SCORE.INTRA.DIHEDRAL.0>
0.94999

>  <SCORE.INTRA.POLAR>
0

>  <SCORE.INTRA.POLAR.0>
0

>  <SCORE.INTRA.REPUL>
0

>  <SCORE.INTRA.REPUL.0>
0

>  <SCORE.INTRA.SOLV>
-0.061791

>  <SCORE.INTRA.SOLV.lig_0>
-7.7991

>  <SCORE.INTRA.VDW>
-0.0574952

>  <SCORE.INTRA.VDW.0>
-0.814318

>  <SCORE.INTRA.norm>
0.0129935

>  <SCORE.RESTR>
0.113301

>  <SCORE.RESTR.CAVITY>
0.113301

>  <SCORE.RESTR.norm>
0.00871548

>  <SCORE.SYSTEM>
-20.3714

>  <SCORE.SYSTEM.CONST>
0

>  <SCORE.SYSTEM.DIHEDRAL>
4.94868

>  <SCORE.SYSTEM.POLAR>
-2.95505

>  <SCORE.SYSTEM.SOLV>
-0.088188

>  <SCORE.SYSTEM.VDW>
-5.35092

>  <SCORE.SYSTEM.norm>
-1.56703

>  <SCORE.heavy>
13

>  <SCORE.norm>
-3.63025

$$$$
P150397825
 OpenBabel12072022113D
libRbt.so/2013.1/901 2013/11/27
 15 15  0  0  0  0  0  0  0  0999 V2000
    5.8650   18.9227    5.1333 C   0  0  0  0  0  0  0  0  0  0  0  0
    5.5268   17.6470    4.8911 C   0  0  0  0  0  0  0  0  0  0  0  0
    5.0770   17.0419    3.5817 C   0  0  2  0  0  0  0  0  0  0  0  0
    3.9772   16.0045    3.7760 C   0  0  0  0  0  0  0  0  0  0  0  0
    2.6170   16.3659    3.7457 C   0  0  0  0  0  0  0  0  0  0  0  0
    1.6167   15.4096    3.9400 C   0  0  0  0  0  0  0  0  0  0  0  0
    1.9741   14.0763    4.1720 C   0  0  0  0  0  0  0  0  0  0  0  0
    3.3212   13.6976    4.2131 C   0  0  0  0  0  0  0  0  0  0  0  0
    4.3148   14.6615    4.0186 C   0  0  0  0  0  0  0  0  0  0  0  0
    0.9276   13.0671    4.3755 N   0  3  0  0  0  0  0  0  0  0  0  0
   -0.2521   13.4470    4.3573 O   0  0  0  0  0  0  0  0  0  0  0  0
    1.2849   11.8939    4.5549 O   0  5  0  0  0  0  0  0  0  0  0  0
    6.1724   16.4724    2.8009 N   0  0  0  0  0  0  0  0  0  0  0  0
    6.5768   15.7000    3.3263 H   0  0  0  0  0  0  0  0  0  0  0  0
    6.9098   17.1689    2.7206 H   0  0  0  0  0  0  0  0  0  0  0  0
  1  2  2  0  0  0  0
  3  4  1  0  0  0  0
  3 13  1  0  0  0  0
  3  2  1  1  0  0  0
  4  5  2  0  0  0  0
  4  9  1  0  0  0  0
  5  6  1  0  0  0  0
  6  7  2  0  0  0  0
  7  8  1  0  0  0  0
  7 10  1  0  0  0  0
  8  9  2  0  0  0  0
 10 11  2  0  0  0  0
 10 12  1  0  0  0  0
 13 14  1  0  0  0  0
 13 15  1  0  0  0  0
M  CHG  2  10   1  12  -1
M  END
>  <CHROM.0>
-57.57766684,-62.67363283,-64.42616228,-47.02423849,-58.43109130,-60.86741782
-64.01486603,59.12795269,-168.45488293

>  <CHROM.1>
90.55378762,63.56043750,-141.75048886,3.23190113,15.22832897,4.12033448,0.73728023
0.20356059,0.17045841

>  <Name>
P150397825

>  <RI>
4.17015e+07

>  <Rbt.Current_Directory>
/home/fstefaniak/projects/zuza/docking/adenine/4XNR

>  <Rbt.Executable>
rbdock ($Id: //depot/dev/client3/rdock/2013.1/src/exe/rbdock.cxx#4 $)

>  <Rbt.Library>
libRbt.so (2013.1, Build901 2013/11/27)

>  <Rbt.Parameter_File>
/home/fstefaniak/progs/rDock//data/scripts/dock_solv.prm

>  <Rbt.Receptor>
4xnr.prm

>  <SCORE>
-46.3893

>  <SCORE.INTER>
-26.9644

>  <SCORE.INTER.CONST>
1

>  <SCORE.INTER.POLAR>
-2.0781

>  <SCORE.INTER.ROT>
3

>  <SCORE.INTER.SOLV>
8.91566

>  <SCORE.INTER.VDW>
-19.6212

>  <SCORE.INTER.norm>
-2.07419

>  <SCORE.INTRA>
0.370504

>  <SCORE.INTRA.DIHEDRAL>
0.674621

>  <SCORE.INTRA.DIHEDRAL.0>
0.94999

>  <SCORE.INTRA.POLAR>
0

>  <SCORE.INTRA.POLAR.0>
0

>  <SCORE.INTRA.REPUL>
0

>  <SCORE.INTRA.REPUL.0>
0

>  <SCORE.INTRA.SOLV>
-0.0498303

>  <SCORE.INTRA.SOLV.lig_0>
-7.7991

>  <SCORE.INTRA.VDW>
0.058108

>  <SCORE.INTRA.VDW.0>
-0.814318

>  <SCORE.INTRA.norm>
0.0285003

>  <SCORE.RESTR>
0

>  <SCORE.RESTR.CAVITY>
0

>  <SCORE.RESTR.norm>
0

>  <SCORE.SYSTEM>
-19.7954

>  <SCORE.SYSTEM.CONST>
0

>  <SCORE.SYSTEM.DIHEDRAL>
3.74554

>  <SCORE.SYSTEM.POLAR>
-2.98938

>  <SCORE.SYSTEM.SOLV>
0.127656

>  <SCORE.SYSTEM.VDW>
-4.52337

>  <SCORE.SYSTEM.norm>
-1.52272

>  <SCORE.heavy>
13

>  <SCORE.norm>
-3.56841

$$$$
P150510098
 OpenBabel12072022113D
libRbt.so/2013.1/901 2013/11/27
 11 11  0  0  0  0  0  0  0  0999 V2000
    3.3639   13.1409    4.0425 C   0  0  0  0  0  0  0  0  0  0  0  0
    2.5228   12.6870    2.8464 C   0  0  0  0  0  0  0  0  0  0  0  0
    1.0721   13.1752    2.9595 C   0  0  1  0  0  0  0  0  0  0  0  0
    1.0389   14.6415    3.1021 N   0  0  0  0  0  0  0  0  0  0  0  0
    1.7863   15.1011    4.2768 C   0  0  0  0  0  0  0  0  0  0  0  0
    3.2560   14.6511    4.2900 C   0  0  2  0  0  0  0  0  0  0  0  0
    4.0572   15.4141    3.3139 C   0  0  0  0  0  0  0  0  0  0  0  0
    4.7164   16.0113    2.5686 N   0  0  0  0  0  0  0  0  0  0  0  0
    0.2841   12.7157    1.7437 C   0  0  0  0  0  0  0  0  0  0  0  0
   -0.3697   12.3346    0.7350 N   0  0  0  0  0  0  0  0  0  0  0  0
    0.0693   14.9590    3.1589 H   0  0  0  0  0  0  0  0  0  0  0  0
  1  2  1  0  0  0  0
  1  6  1  0  0  0  0
  2  3  1  0  0  0  0
  3  4  1  0  0  0  0
  3  9  1  6  0  0  0
  4  5  1  0  0  0  0
  4 11  1  0  0  0  0
  5  6  1  0  0  0  0
  6  7  1  6  0  0  0
  7  8  3  0  0  0  0
  9 10  3  0  0  0  0
M  END
>  <CHROM.0>
-56.58507095,-61.43483282,-66.17827139,-48.14014737,-59.29064909,-62.93315227
-69.80754117,-173.02817707,-168.23565278

>  <CHROM.1>
2.15747985,13.99313227,2.99369742,-0.60017158,0.39957229,-3.02807476

>  <Name>
P150510098

>  <RI>
3.1908e+07

>  <Rbt.Current_Directory>
/home/fstefaniak/projects/zuza/docking/adenine/4XNR

>  <Rbt.Executable>
rbdock ($Id: //depot/dev/client3/rdock/2013.1/src/exe/rbdock.cxx#4 $)

>  <Rbt.Library>
libRbt.so (2013.1, Build901 2013/11/27)

>  <Rbt.Parameter_File>
/home/fstefaniak/progs/rDock//data/scripts/dock_solv.prm

>  <Rbt.Receptor>
4xnr.prm

>  <SCORE>
-44.006

>  <SCORE.INTER>
-23.1098

>  <SCORE.INTER.CONST>
1

>  <SCORE.INTER.POLAR>
-2.34863

>  <SCORE.INTER.ROT>
0

>  <SCORE.INTER.SOLV>
7.02629

>  <SCORE.INTER.VDW>
-13.5199

>  <SCORE.INTER.norm>
-2.31098

>  <SCORE.INTRA>
0

>  <SCORE.INTRA.DIHEDRAL>
0

>  <SCORE.INTRA.DIHEDRAL.0>
0

>  <SCORE.INTRA.POLAR>
0

>  <SCORE.INTRA.POLAR.0>
0

>  <SCORE.INTRA.REPUL>
0

>  <SCORE.INTRA.REPUL.0>
0

>  <SCORE.INTRA.SOLV>
0

>  <SCORE.INTRA.SOLV.lig_0>
-10.9823

>  <SCORE.INTRA.VDW>
0

>  <SCORE.INTRA.VDW.0>
0

>  <SCORE.INTRA.norm>
0

>  <SCORE.RESTR>
0.000604391

>  <SCORE.RESTR.CAVITY>
0.000604391

>  <SCORE.RESTR.norm>
6.04391e-05

>  <SCORE.SYSTEM>
-20.8969

>  <SCORE.SYSTEM.CONST>
0

>  <SCORE.SYSTEM.DIHEDRAL>
4.32663

>  <SCORE.SYSTEM.POLAR>
-2.98209

>  <SCORE.SYSTEM.SOLV>
0.142118

>  <SCORE.SYSTEM.VDW>
-5.48053

>  <SCORE.SYSTEM.norm>
-2.08969

>  <SCORE.heavy>
10

>  <SCORE.norm>
-4.4006

$$$$
P150510098
 OpenBabel12072022113D
libRbt.so/2013.1/901 2013/11/27
 11 11  0  0  0  0  0  0  0  0999 V2000
    3.3831   13.2089    4.0159 C   0  0  0  0  0  0  0  0  0  0  0  0
    2.5120   12.7529    2.8423 C   0  0  0  0  0  0  0  0  0  0  0  0
    1.0638   13.2384    2.9930 C   0  0  1  0  0  0  0  0  0  0  0  0
    1.0315   14.7047    3.1360 N   0  0  0  0  0  0  0  0  0  0  0  0
    1.8083   15.1661    4.2906 C   0  0  0  0  0  0  0  0  0  0  0  0
    3.2788   14.7190    4.2657 C   0  0  2  0  0  0  0  0  0  0  0  0
    4.0528   15.4831    3.2688 C   0  0  0  0  0  0  0  0  0  0  0  0
    4.6912   16.0813    2.5064 N   0  0  0  0  0  0  0  0  0  0  0  0
    0.2452   12.7769    1.7983 C   0  0  0  0  0  0  0  0  0  0  0  0
   -0.4339   12.3942    0.8071 N   0  0  0  0  0  0  0  0  0  0  0  0
    0.0631   15.0204    3.2180 H   0  0  0  0  0  0  0  0  0  0  0  0
  1  2  1  0  0  0  0
  1  6  1  0  0  0  0
  2  3  1  0  0  0  0
  3  4  1  0  0  0  0
  3  9  1  6  0  0  0
  4  5  1  0  0  0  0
  4 11  1  0  0  0  0
  5  6  1  0  0  0  0
  6  7  1  6  0  0  0
  7  8  3  0  0  0  0
  9 10  3  0  0  0  0
M  END
>  <CHROM.0>
-57.62782925,-60.84219708,-65.35775599,-48.16192663,-59.16373752,-61.02565394
-69.61178236,-62.05388529,-168.26792682

>  <CHROM.1>
2.14809650,14.05840709,2.99865776,-0.59905092,0.37346066,-3.02884574

>  <Name>
P150510098

>  <RI>
3.1908e+07

>  <Rbt.Current_Directory>
/home/fstefaniak/projects/zuza/docking/adenine/4XNR

>  <Rbt.Executable>
rbdock ($Id: //depot/dev/client3/rdock/2013.1/src/exe/rbdock.cxx#4 $)

>  <Rbt.Library>
libRbt.so (2013.1, Build901 2013/11/27)

>  <Rbt.Parameter_File>
/home/fstefaniak/progs/rDock//data/scripts/dock_solv.prm

>  <Rbt.Receptor>
4xnr.prm

>  <SCORE>
-43.876

>  <SCORE.INTER>
-22.9639

>  <SCORE.INTER.CONST>
1

>  <SCORE.INTER.POLAR>
-2.33461

>  <SCORE.INTER.ROT>
0

>  <SCORE.INTER.SOLV>
7.0804

>  <SCORE.INTER.VDW>
-13.4874

>  <SCORE.INTER.norm>
-2.29639

>  <SCORE.INTRA>
0

>  <SCORE.INTRA.DIHEDRAL>
0

>  <SCORE.INTRA.DIHEDRAL.0>
0

>  <SCORE.INTRA.POLAR>
0

>  <SCORE.INTRA.POLAR.0>
0

>  <SCORE.INTRA.REPUL>
0

>  <SCORE.INTRA.REPUL.0>
0

>  <SCORE.INTRA.SOLV>
0

>  <SCORE.INTRA.SOLV.lig_0>
-10.9823

>  <SCORE.INTRA.VDW>
0

>  <SCORE.INTRA.VDW.0>
0

>  <SCORE.INTRA.norm>
0

>  <SCORE.RESTR>
0

>  <SCORE.RESTR.CAVITY>
0

>  <SCORE.RESTR.norm>
0

>  <SCORE.SYSTEM>
-20.912

>  <SCORE.SYSTEM.CONST>
0

>  <SCORE.SYSTEM.DIHEDRAL>
3.99621

>  <SCORE.SYSTEM.POLAR>
-2.97313

>  <SCORE.SYSTEM.SOLV>
0.279187

>  <SCORE.SYSTEM.VDW>
-5.45605

>  <SCORE.SYSTEM.norm>
-2.0912

>  <SCORE.heavy>
10

>  <SCORE.norm>
-4.3876

$$$$
P150510098
 OpenBabel12072022113D
libRbt.so/2013.1/901 2013/11/27
 11 11  0  0  0  0  0  0  0  0999 V2000
    5.6286   18.0046    6.2751 C   0  0  0  0  0  0  0  0  0  0  0  0
    5.7057   17.4335    4.8566 C   0  0  0  0  0  0  0  0  0  0  0  0
    5.5779   18.5365    3.7970 C   0  0  1  0  0  0  0  0  0  0  0  0
    6.6104   19.5665    4.0084 N   0  0  0  0  0  0  0  0  0  0  0  0
    6.5215   20.1754    5.3391 C   0  0  0  0  0  0  0  0  0  0  0  0
    6.6126   19.1616    6.4909 C   0  0  2  0  0  0  0  0  0  0  0  0
    7.9927   18.6684    6.6606 C   0  0  0  0  0  0  0  0  0  0  0  0
    9.0721   18.2773    6.8303 N   0  0  0  0  0  0  0  0  0  0  0  0
    5.6780   17.9237    2.4096 C   0  0  0  0  0  0  0  0  0  0  0  0
    5.7610   17.4154    1.2587 N   0  0  0  0  0  0  0  0  0  0  0  0
    6.5289   20.2871    3.2884 H   0  0  0  0  0  0  0  0  0  0  0  0
  1  2  1  0  0  0  0
  1  6  1  0  0  0  0
  2  3  1  0  0  0  0
  3  4  1  0  0  0  0
  3  9  1  6  0  0  0
  4  5  1  0  0  0  0
  4 11  1  0  0  0  0
  5  6  1  0  0  0  0
  6  7  1  6  0  0  0
  7  8  3  0  0  0  0
  9 10  3  0  0  0  0
M  END
>  <CHROM.0>
-58.99827580,-60.96082693,-68.79507829,-46.34922616,-60.66830800,-62.79235281
-69.10383547,-60.70365984,-168.20210727

>  <CHROM.1>
6.51260679,18.53114121,4.78418103,0.93498464,0.79901175,1.86130329

>  <Name>
P150510098

>  <RI>
3.1908e+07

>  <Rbt.Current_Directory>
/home/fstefaniak/projects/zuza/docking/adenine/4XNR

>  <Rbt.Executable>
rbdock ($Id: //depot/dev/client3/rdock/2013.1/src/exe/rbdock.cxx#4 $)

>  <Rbt.Library>
libRbt.so (2013.1, Build901 2013/11/27)

>  <Rbt.Parameter_File>
/home/fstefaniak/progs/rDock//data/scripts/dock_solv.prm

>  <Rbt.Receptor>
4xnr.prm

>  <SCORE>
-40.0307

>  <SCORE.INTER>
-19.0823

>  <SCORE.INTER.CONST>
1

>  <SCORE.INTER.POLAR>
-2.18603

>  <SCORE.INTER.ROT>
0

>  <SCORE.INTER.SOLV>
12.1555

>  <SCORE.INTER.VDW>
-13.0866

>  <SCORE.INTER.norm>
-1.90823

>  <SCORE.INTRA>
0

>  <SCORE.INTRA.DIHEDRAL>
0

>  <SCORE.INTRA.DIHEDRAL.0>
0

>  <SCORE.INTRA.POLAR>
0

>  <SCORE.INTRA.POLAR.0>
0

>  <SCORE.INTRA.REPUL>
0

>  <SCORE.INTRA.REPUL.0>
0

>  <SCORE.INTRA.SOLV>
0

>  <SCORE.INTRA.SOLV.lig_0>
-10.9823

>  <SCORE.INTRA.VDW>
0

>  <SCORE.INTRA.VDW.0>
0

>  <SCORE.INTRA.norm>
0

>  <SCORE.RESTR>
0

>  <SCORE.RESTR.CAVITY>
0

>  <SCORE.RESTR.norm>
0

>  <SCORE.SYSTEM>
-20.9484

>  <SCORE.SYSTEM.CONST>
0

>  <SCORE.SYSTEM.DIHEDRAL>
4.37626

>  <SCORE.SYSTEM.POLAR>
-2.98529

>  <SCORE.SYSTEM.SOLV>
0.272898

>  <SCORE.SYSTEM.VDW>
-5.56432

>  <SCORE.SYSTEM.norm>
-2.09484

>  <SCORE.heavy>
10

>  <SCORE.norm>
-4.00307

$$$$
P150927401
 OpenBabel12072022113D
libRbt.so/2013.1/901 2013/11/27
  8  7  0  0  0  0  0  0  0  0999 V2000
    4.4567   16.7781    3.5404 C   0  0  0  0  0  0  0  0  0  0  0  0
    5.7573   17.4284    3.1784 C   0  0  0  0  0  0  0  0  0  0  0  0
    6.2804   17.3606    2.0740 O   0  0  0  0  0  0  0  0  0  0  0  0
    6.4504   18.1595    4.2955 C   0  0  0  0  0  0  0  0  0  0  0  0
    7.5928   18.7331    4.0625 N   0  0  0  0  0  0  0  0  0  0  0  0
    8.0903   19.3890    5.1984 O   0  0  0  0  0  0  0  0  0  0  0  0
    5.5927   18.1819    5.7725 Cl  0  0  0  0  0  0  0  0  0  0  0  0
    7.8955   20.3272    5.0118 H   0  0  0  0  0  0  0  0  0  0  0  0
  1  2  1  0  0  0  0
  2  3  2  0  0  0  0
  2  4  1  0  0  0  0
  4  5  2  0  0  0  0
  4  7  1  0  0  0  0
  5  6  1  0  0  0  0
  6  8  1  0  0  0  0
M  END
>  <CHROM.0>
-63.21249021,-63.98397259,-69.89615207,-47.74339214,-60.19785676,-63.44981113
-65.49850767,-60.75939706,-168.09026304

>  <CHROM.1>
179.04760722,-102.75426661,6.22219685,18.06366860,4.32805370,2.19766482,-0.50276740
-1.89168188

>  <Name>
P150927401

>  <RI>
3.1908e+07

>  <Rbt.Current_Directory>
/home/fstefaniak/projects/zuza/docking/adenine/4XNR

>  <Rbt.Executable>
rbdock ($Id: //depot/dev/client3/rdock/2013.1/src/exe/rbdock.cxx#4 $)

>  <Rbt.Library>
libRbt.so (2013.1, Build901 2013/11/27)

>  <Rbt.Parameter_File>
/home/fstefaniak/progs/rDock//data/scripts/dock_solv.prm

>  <Rbt.Receptor>
4xnr.prm

>  <SCORE>
-52.1559

>  <SCORE.INTER>
-27.7921

>  <SCORE.INTER.CONST>
1

>  <SCORE.INTER.POLAR>
-3.6925

>  <SCORE.INTER.ROT>
1

>  <SCORE.INTER.SOLV>
7.35739

>  <SCORE.INTER.VDW>
-12.9388

>  <SCORE.INTER.norm>
-3.9703

>  <SCORE.INTRA>
-3.43476

>  <SCORE.INTRA.DIHEDRAL>
-12.683

>  <SCORE.INTRA.DIHEDRAL.0>
12.7892

>  <SCORE.INTRA.POLAR>
0

>  <SCORE.INTRA.POLAR.0>
0

>  <SCORE.INTRA.REPUL>
0

>  <SCORE.INTRA.REPUL.0>
0

>  <SCORE.INTRA.SOLV>
-0.0344726

>  <SCORE.INTRA.SOLV.lig_0>
-9.36654

>  <SCORE.INTRA.VDW>
2.92398

>  <SCORE.INTRA.VDW.0>
-0.675258

>  <SCORE.INTRA.norm>
-0.49068

>  <SCORE.RESTR>
0

>  <SCORE.RESTR.CAVITY>
0

>  <SCORE.RESTR.norm>
0

>  <SCORE.SYSTEM>
-20.9291

>  <SCORE.SYSTEM.CONST>
0

>  <SCORE.SYSTEM.DIHEDRAL>
4.21385

>  <SCORE.SYSTEM.POLAR>
-2.93856

>  <SCORE.SYSTEM.SOLV>
0.267123

>  <SCORE.SYSTEM.VDW>
-5.65122

>  <SCORE.SYSTEM.norm>
-2.98987

>  <SCORE.heavy>
7

>  <SCORE.norm>
-7.45085

$$$$
P150927401
 OpenBabel12072022113D
libRbt.so/2013.1/901 2013/11/27
  8  7  0  0  0  0  0  0  0  0999 V2000
    4.5101   16.7991    3.4818 C   0  0  0  0  0  0  0  0  0  0  0  0
    5.8152   17.4555    3.1481 C   0  0  0  0  0  0  0  0  0  0  0  0
    6.3581   17.3976    2.0528 O   0  0  0  0  0  0  0  0  0  0  0  0
    6.4862   18.1798    4.2830 C   0  0  0  0  0  0  0  0  0  0  0  0
    7.6389   18.7439    4.0793 N   0  0  0  0  0  0  0  0  0  0  0  0
    8.1133   19.3946    5.2280 O   0  0  0  0  0  0  0  0  0  0  0  0
    5.5919   18.2082    5.7381 Cl  0  0  0  0  0  0  0  0  0  0  0  0
    7.9160   20.3330    5.0447 H   0  0  0  0  0  0  0  0  0  0  0  0
  1  2  1  0  0  0  0
  2  3  2  0  0  0  0
  2  4  1  0  0  0  0
  4  5  2  0  0  0  0
  4  7  1  0  0  0  0
  5  6  1  0  0  0  0
  6  8  1  0  0  0  0
M  END
>  <CHROM.0>
-57.14256226,-63.25067834,-64.56900034,-47.81818842,-59.04835864,-62.48041752
-67.26221809,-61.28477583,-167.12448497

>  <CHROM.1>
178.19425762,-101.73663462,6.25658319,18.08551989,4.30985045,2.17419002,-0.49045057
-1.90009622

>  <Name>
P150927401

>  <RI>
3.1908e+07

>  <Rbt.Current_Directory>
/home/fstefaniak/projects/zuza/docking/adenine/4XNR

>  <Rbt.Executable>
rbdock ($Id: //depot/dev/client3/rdock/2013.1/src/exe/rbdock.cxx#4 $)

>  <Rbt.Library>
libRbt.so (2013.1, Build901 2013/11/27)

>  <Rbt.Parameter_File>
/home/fstefaniak/progs/rDock//data/scripts/dock_solv.prm

>  <Rbt.Receptor>
4xnr.prm

>  <SCORE>
-52.0885

>  <SCORE.INTER>
-27.7597

>  <SCORE.INTER.CONST>
1

>  <SCORE.INTER.POLAR>
-3.65978

>  <SCORE.INTER.ROT>
1

>  <SCORE.INTER.SOLV>
7.42205

>  <SCORE.INTER.VDW>
-13.0479

>  <SCORE.INTER.norm>
-3.96568

>  <SCORE.INTRA>
-3.44734

>  <SCORE.INTRA.DIHEDRAL>
-12.6908

>  <SCORE.INTRA.DIHEDRAL.0>
12.7892

>  <SCORE.INTRA.POLAR>
0

>  <SCORE.INTRA.POLAR.0>
0

>  <SCORE.INTRA.REPUL>
0

>  <SCORE.INTRA.REPUL.0>
0

>  <SCORE.INTRA.SOLV>
-0.0345768

>  <SCORE.INTRA.SOLV.lig_0>
-9.36654

>  <SCORE.INTRA.VDW>
2.91533

>  <SCORE.INTRA.VDW.0>
-0.675258

>  <SCORE.INTRA.norm>
-0.492478

>  <SCORE.RESTR>
0

>  <SCORE.RESTR.CAVITY>
0

>  <SCORE.RESTR.norm>
0

>  <SCORE.SYSTEM>
-20.8814

>  <SCORE.SYSTEM.CONST>
0

>  <SCORE.SYSTEM.DIHEDRAL>
4.01261

>  <SCORE.SYSTEM.POLAR>
-2.98473

>  <SCORE.SYSTEM.SOLV>
0.284529

>  <SCORE.SYSTEM.VDW>
-5.40422

>  <SCORE.SYSTEM.norm>
-2.98306

>  <SCORE.heavy>
7

>  <SCORE.norm>
-7.44121

$$$$
P150927401
 OpenBabel12072022113D
libRbt.so/2013.1/901 2013/11/27
  8  7  0  0  0  0  0  0  0  0999 V2000
    4.5173   16.7348    3.5303 C   0  0  0  0  0  0  0  0  0  0  0  0
    5.7979   17.4270    3.1749 C   0  0  0  0  0  0  0  0  0  0  0  0
    6.3239   17.3836    2.0707 O   0  0  0  0  0  0  0  0  0  0  0  0
    6.4674   18.1702    4.2984 C   0  0  0  0  0  0  0  0  0  0  0  0
    7.6019   18.7635    4.0762 N   0  0  0  0  0  0  0  0  0  0  0  0
    8.0769   19.4282    5.2167 O   0  0  0  0  0  0  0  0  0  0  0  0
    5.5951   18.1781    5.7671 Cl  0  0  0  0  0  0  0  0  0  0  0  0
    7.9063   20.3668    5.0095 H   0  0  0  0  0  0  0  0  0  0  0  0
  1  2  1  0  0  0  0
  2  3  2  0  0  0  0
  2  4  1  0  0  0  0
  4  5  2  0  0  0  0
  4  7  1  0  0  0  0
  5  6  1  0  0  0  0
  6  8  1  0  0  0  0
M  END
>  <CHROM.0>
-61.50467264,-63.90798714,-74.71298748,-47.60076896,-173.54511769,-64.75270943
-173.93010078,-60.22230004,-168.33284934

>  <CHROM.1>
178.04463147,-105.33785952,6.24118970,18.07013367,4.32868015,2.18314839,-0.52059396
-1.89750350

>  <Name>
P150927401

>  <RI>
3.1908e+07

>  <Rbt.Current_Directory>
/home/fstefaniak/projects/zuza/docking/adenine/4XNR

>  <Rbt.Executable>
rbdock ($Id: //depot/dev/client3/rdock/2013.1/src/exe/rbdock.cxx#4 $)

>  <Rbt.Library>
libRbt.so (2013.1, Build901 2013/11/27)

>  <Rbt.Parameter_File>
/home/fstefaniak/progs/rDock//data/scripts/dock_solv.prm

>  <Rbt.Receptor>
4xnr.prm

>  <SCORE>
-51.63

>  <SCORE.INTER>
-27.8245

>  <SCORE.INTER.CONST>
1

>  <SCORE.INTER.POLAR>
-3.69569

>  <SCORE.INTER.ROT>
1

>  <SCORE.INTER.SOLV>
7.38377

>  <SCORE.INTER.VDW>
-12.9586

>  <SCORE.INTER.norm>
-3.97493

>  <SCORE.INTRA>
-3.41992

>  <SCORE.INTRA.DIHEDRAL>
-12.6319

>  <SCORE.INTRA.DIHEDRAL.0>
12.7892

>  <SCORE.INTRA.POLAR>
0

>  <SCORE.INTRA.POLAR.0>
0

>  <SCORE.INTRA.REPUL>
0

>  <SCORE.INTRA.REPUL.0>
0

>  <SCORE.INTRA.SOLV>
-0.0340075

>  <SCORE.INTRA.SOLV.lig_0>
-9.36654

>  <SCORE.INTRA.VDW>
2.91302

>  <SCORE.INTRA.VDW.0>
-0.675258

>  <SCORE.INTRA.norm>
-0.48856

>  <SCORE.RESTR>
0

>  <SCORE.RESTR.CAVITY>
0

>  <SCORE.RESTR.norm>
0

>  <SCORE.SYSTEM>
-20.3856

>  <SCORE.SYSTEM.CONST>
0

>  <SCORE.SYSTEM.DIHEDRAL>
4.9314

>  <SCORE.SYSTEM.POLAR>
-2.92844

>  <SCORE.SYSTEM.SOLV>
0.0371944

>  <SCORE.SYSTEM.VDW>
-5.4851

>  <SCORE.SYSTEM.norm>
-2.91222

>  <SCORE.heavy>
7

>  <SCORE.norm>
-7.37571

$$$$
P151016908
 OpenBabel12072022113D
libRbt.so/2013.1/901 2013/11/27
 14 14  0  0  0  0  0  0  0  0999 V2000
    7.4326   18.0198    1.2822 C   0  0  0  0  0  0  0  0  0  0  0  0
    6.3049   18.6674    2.0862 C   0  0  1  0  0  0  0  0  0  0  0  0
    5.0425   17.8019    2.2713 C   0  0  2  0  0  0  0  0  0  0  0  0
    5.2264   16.7101    3.3335 C   0  0  2  0  0  0  0  0  0  0  0  0
    5.8294   17.2827    4.6054 C   0  0  1  0  0  0  0  0  0  0  0  0
    7.0538   18.1542    4.3043 C   0  0  1  0  0  0  0  0  0  0  0  0
    6.7777   19.1672    3.3395 O   0  0  0  0  0  0  0  0  0  0  0  0
    7.4924   18.8019    5.4936 O   0  0  0  0  0  0  0  0  0  0  0  0
    4.8836   18.0659    5.2149 F   0  0  0  0  0  0  0  0  0  0  0  0
    6.0350   15.6462    2.8175 O   0  0  0  0  0  0  0  0  0  0  0  0
    4.6349   17.1811    1.0468 O   0  0  0  0  0  0  0  0  0  0  0  0
    7.7292   18.0765    6.0989 H   0  0  0  0  0  0  0  0  0  0  0  0
    6.2489   15.0925    3.5978 H   0  0  0  0  0  0  0  0  0  0  0  0
    4.4942   17.8919    0.3949 H   0  0  0  0  0  0  0  0  0  0  0  0
  2  1  1  1  0  0  0
  2  3  1  0  0  0  0
  2  7  1  0  0  0  0
  3 11  1  6  0  0  0
  3  4  1  0  0  0  0
  4 10  1  6  0  0  0
  4  5  1  0  0  0  0
  5  9  1  6  0  0  0
  5  6  1  0  0  0  0
  6  7  1  0  0  0  0
  6  8  1  1  0  0  0
  8 12  1  0  0  0  0
 10 13  1  0  0  0  0
 11 14  1  0  0  0  0
M  END
>  <CHROM.0>
-57.55943686,-62.22558293,-66.29441699,-47.90387846,-59.20491894,-62.54994990
-68.93491662,-59.76932945,-167.96602966

>  <CHROM.1>
-57.00045761,169.07701911,61.17221167,6.05282712,17.76718700,3.29701526,-1.94128515
0.74754568,1.51118217

>  <Name>
P151016908

>  <RI>
3.4169e+07

>  <Rbt.Current_Directory>
/home/fstefaniak/projects/zuza/docking/adenine/4XNR

>  <Rbt.Executable>
rbdock ($Id: //depot/dev/client3/rdock/2013.1/src/exe/rbdock.cxx#4 $)

>  <Rbt.Library>
libRbt.so (2013.1, Build901 2013/11/27)

>  <Rbt.Parameter_File>
/home/fstefaniak/progs/rDock//data/scripts/dock_solv.prm

>  <Rbt.Receptor>
4xnr.prm

>  <SCORE>
-44.1181

>  <SCORE.INTER>
-23.1657

>  <SCORE.INTER.CONST>
1

>  <SCORE.INTER.POLAR>
-4.63884

>  <SCORE.INTER.ROT>
0

>  <SCORE.INTER.SOLV>
14.3441

>  <SCORE.INTER.VDW>
-8.36234

>  <SCORE.INTER.norm>
-2.10597

>  <SCORE.INTRA>
-0.00224039

>  <SCORE.INTRA.DIHEDRAL>
-0.840027

>  <SCORE.INTRA.DIHEDRAL.0>
1.59894

>  <SCORE.INTRA.POLAR>
0.229841

>  <SCORE.INTRA.POLAR.0>
-0.229841

>  <SCORE.INTRA.REPUL>
0

>  <SCORE.INTRA.REPUL.0>
0

>  <SCORE.INTRA.SOLV>
-0.138361

>  <SCORE.INTRA.SOLV.lig_0>
-15.5471

>  <SCORE.INTRA.VDW>
-0.294506

>  <SCORE.INTRA.VDW.0>
0.383992

>  <SCORE.INTRA.norm>
-0.000203672

>  <SCORE.RESTR>
0

>  <SCORE.RESTR.CAVITY>
0

>  <SCORE.RESTR.norm>
0

>  <SCORE.SYSTEM>
-20.9502

>  <SCORE.SYSTEM.CONST>
0

>  <SCORE.SYSTEM.DIHEDRAL>
4.07584

>  <SCORE.SYSTEM.POLAR>
-2.97782

>  <SCORE.SYSTEM.SOLV>
0.279546

>  <SCORE.SYSTEM.VDW>
-5.49252

>  <SCORE.SYSTEM.norm>
-1.90456

>  <SCORE.heavy>
11

>  <SCORE.norm>
-4.01073

$$$$
P151016908
 OpenBabel12072022113D
libRbt.so/2013.1/901 2013/11/27
 14 14  0  0  0  0  0  0  0  0999 V2000
    7.3980   17.9564    1.2314 C   0  0  0  0  0  0  0  0  0  0  0  0
    6.2941   18.6252    2.0511 C   0  0  1  0  0  0  0  0  0  0  0  0
    5.0265   17.7758    2.2716 C   0  0  2  0  0  0  0  0  0  0  0  0
    5.2204   16.6936    3.3418 C   0  0  2  0  0  0  0  0  0  0  0  0
    5.8557   17.2732    4.5947 C   0  0  1  0  0  0  0  0  0  0  0  0
    7.0830   18.1278    4.2590 C   0  0  1  0  0  0  0  0  0  0  0  0
    6.7981   19.1333    3.2889 O   0  0  0  0  0  0  0  0  0  0  0  0
    7.5530   18.7835    5.4318 O   0  0  0  0  0  0  0  0  0  0  0  0
    4.9311   18.0735    5.2147 F   0  0  0  0  0  0  0  0  0  0  0  0
    6.0066   15.6153    2.8212 O   0  0  0  0  0  0  0  0  0  0  0  0
    4.5871   17.1463    1.0627 O   0  0  0  0  0  0  0  0  0  0  0  0
    7.7565   18.0629    6.0548 H   0  0  0  0  0  0  0  0  0  0  0  0
    6.2413   15.0748    3.6048 H   0  0  0  0  0  0  0  0  0  0  0  0
    4.4387   17.8517    0.4065 H   0  0  0  0  0  0  0  0  0  0  0  0
  2  1  1  1  0  0  0
  2  3  1  0  0  0  0
  2  7  1  0  0  0  0
  3 11  1  6  0  0  0
  3  4  1  0  0  0  0
  4 10  1  6  0  0  0
  4  5  1  0  0  0  0
  5  9  1  6  0  0  0
  5  6  1  0  0  0  0
  6  7  1  0  0  0  0
  6  8  1  1  0  0  0
  8 12  1  0  0  0  0
 10 13  1  0  0  0  0
 11 14  1  0  0  0  0
M  END
>  <CHROM.0>
-58.43328249,-63.22786749,-67.43111483,-47.03468585,-61.22224595,-61.79034914
-68.55656519,-60.94169898,-167.96151738

>  <CHROM.1>
-57.12689920,168.29021727,58.70675755,6.05714994,17.74105127,3.27683835,-1.96929077
0.73792191,1.51943862

>  <Name>
P151016908

>  <RI>
3.4169e+07

>  <Rbt.Current_Directory>
/home/fstefaniak/projects/zuza/docking/adenine/4XNR

>  <Rbt.Executable>
rbdock ($Id: //depot/dev/client3/rdock/2013.1/src/exe/rbdock.cxx#4 $)

>  <Rbt.Library>
libRbt.so (2013.1, Build901 2013/11/27)

>  <Rbt.Parameter_File>
/home/fstefaniak/progs/rDock//data/scripts/dock_solv.prm

>  <Rbt.Receptor>
4xnr.prm

>  <SCORE>
-44.0807

>  <SCORE.INTER>
-23.2247

>  <SCORE.INTER.CONST>
1

>  <SCORE.INTER.POLAR>
-4.67446

>  <SCORE.INTER.ROT>
0

>  <SCORE.INTER.SOLV>
14.4506

>  <SCORE.INTER.VDW>
-8.31848

>  <SCORE.INTER.norm>
-2.11134

>  <SCORE.INTRA>
0.0763496

>  <SCORE.INTRA.DIHEDRAL>
-0.760213

>  <SCORE.INTRA.DIHEDRAL.0>
1.59894

>  <SCORE.INTRA.POLAR>
0.229841

>  <SCORE.INTRA.POLAR.0>
-0.229841

>  <SCORE.INTRA.REPUL>
0

>  <SCORE.INTRA.REPUL.0>
0

>  <SCORE.INTRA.SOLV>
-0.1416

>  <SCORE.INTRA.SOLV.lig_0>
-15.5471

>  <SCORE.INTRA.VDW>
-0.254203

>  <SCORE.INTRA.VDW.0>
0.383992

>  <SCORE.INTRA.norm>
0.00694087

>  <SCORE.RESTR>
0

>  <SCORE.RESTR.CAVITY>
0

>  <SCORE.RESTR.norm>
0

>  <SCORE.SYSTEM>
-20.9324

>  <SCORE.SYSTEM.CONST>
0

>  <SCORE.SYSTEM.DIHEDRAL>
4.21706

>  <SCORE.SYSTEM.POLAR>
-2.98168

>  <SCORE.SYSTEM.SOLV>
0.275582

>  <SCORE.SYSTEM.VDW>
-5.51352

>  <SCORE.SYSTEM.norm>
-1.90294

>  <SCORE.heavy>
11

>  <SCORE.norm>
-4.00734

$$$$
P151016908
 OpenBabel12072022113D
libRbt.so/2013.1/901 2013/11/27
 14 14  0  0  0  0  0  0  0  0999 V2000
    7.4305   18.0058    1.2811 C   0  0  0  0  0  0  0  0  0  0  0  0
    6.2807   18.6490    2.0569 C   0  0  1  0  0  0  0  0  0  0  0  0
    5.0191   17.7770    2.2145 C   0  0  2  0  0  0  0  0  0  0  0  0
    5.1839   16.6886    3.2833 C   0  0  2  0  0  0  0  0  0  0  0  0
    5.7538   17.2673    4.5676 C   0  0  1  0  0  0  0  0  0  0  0  0
    6.9802   18.1449    4.2932 C   0  0  1  0  0  0  0  0  0  0  0  0
    6.7213   19.1542    3.3198 O   0  0  0  0  0  0  0  0  0  0  0  0
    7.3873   18.7977    5.4909 O   0  0  0  0  0  0  0  0  0  0  0  0
    4.7897   18.0467    5.1528 F   0  0  0  0  0  0  0  0  0  0  0  0
    6.0102   15.6280    2.7889 O   0  0  0  0  0  0  0  0  0  0  0  0
    4.6437   17.1513    0.9822 O   0  0  0  0  0  0  0  0  0  0  0  0
    7.6365   18.0756    6.0952 H   0  0  0  0  0  0  0  0  0  0  0  0
    6.2396   15.0985    3.5814 H   0  0  0  0  0  0  0  0  0  0  0  0
    4.5782   17.8534    0.3093 H   0  0  0  0  0  0  0  0  0  0  0  0
  2  1  1  1  0  0  0
  2  3  1  0  0  0  0
  2  7  1  0  0  0  0
  3 11  1  6  0  0  0
  3  4  1  0  0  0  0
  4 10  1  6  0  0  0
  4  5  1  0  0  0  0
  5  9  1  6  0  0  0
  5  6  1  0  0  0  0
  6  7  1  0  0  0  0
  6  8  1  1  0  0  0
  8 12  1  0  0  0  0
 10 13  1  0  0  0  0
 11 14  1  0  0  0  0
M  END
>  <CHROM.0>
-58.70699892,-61.49288728,-65.51049685,-46.02348013,-177.17946645,-64.00311036
-66.32494397,-56.18044294,-167.91263044

>  <CHROM.1>
-52.92963094,166.77891513,62.64156697,6.00595565,17.75021455,3.26352972,-1.90790157
0.75108699,1.48636618

>  <Name>
P151016908

>  <RI>
3.4169e+07

>  <Rbt.Current_Directory>
/home/fstefaniak/projects/zuza/docking/adenine/4XNR

>  <Rbt.Executable>
rbdock ($Id: //depot/dev/client3/rdock/2013.1/src/exe/rbdock.cxx#4 $)

>  <Rbt.Library>
libRbt.so (2013.1, Build901 2013/11/27)

>  <Rbt.Parameter_File>
/home/fstefaniak/progs/rDock//data/scripts/dock_solv.prm

>  <Rbt.Receptor>
4xnr.prm

>  <SCORE>
-43.9812

>  <SCORE.INTER>
-23.3622

>  <SCORE.INTER.CONST>
1

>  <SCORE.INTER.POLAR>
-4.60218

>  <SCORE.INTER.ROT>
0

>  <SCORE.INTER.SOLV>
14.2919

>  <SCORE.INTER.VDW>
-8.59815

>  <SCORE.INTER.norm>
-2.12384

>  <SCORE.INTRA>
0.299578

>  <SCORE.INTRA.DIHEDRAL>
-0.364362

>  <SCORE.INTRA.DIHEDRAL.0>
1.59894

>  <SCORE.INTRA.POLAR>
0.229841

>  <SCORE.INTRA.POLAR.0>
-0.229841

>  <SCORE.INTRA.REPUL>
0

>  <SCORE.INTRA.REPUL.0>
0

>  <SCORE.INTRA.SOLV>
-0.141118

>  <SCORE.INTRA.SOLV.lig_0>
-15.5471

>  <SCORE.INTRA.VDW>
-0.229142

>  <SCORE.INTRA.VDW.0>
0.383992

>  <SCORE.INTRA.norm>
0.0272343

>  <SCORE.RESTR>
0

>  <SCORE.RESTR.CAVITY>
0

>  <SCORE.RESTR.norm>
0

>  <SCORE.SYSTEM>
-20.9186

>  <SCORE.SYSTEM.CONST>
0

>  <SCORE.SYSTEM.DIHEDRAL>
4.18915

>  <SCORE.SYSTEM.POLAR>
-3.00595

>  <SCORE.SYSTEM.SOLV>
0.117811

>  <SCORE.SYSTEM.VDW>
-5.36157

>  <SCORE.SYSTEM.norm>
-1.90169

>  <SCORE.heavy>
11

>  <SCORE.norm>
-3.99829

$$$$
P151020785
 OpenBabel12072022113D
libRbt.so/2013.1/901 2013/11/27
 16 16  0  0  0  0  0  0  0  0999 V2000
    2.9282   15.8854    3.8229 C   0  0  0  0  0  0  0  0  0  0  0  0
    3.7432   14.8618    4.1278 C   0  0  0  0  0  0  0  0  0  0  0  0
    3.2727   13.4541    4.3288 C   0  0  1  0  0  0  0  0  0  0  0  0
    1.7452   13.3627    4.5210 C   0  0  1  0  0  0  0  0  0  0  0  0
    0.9498   14.2741    3.5669 C   0  0  1  0  0  0  0  0  0  0  0  0
    1.4499   15.7435    3.5916 C   0  0  1  0  0  0  0  0  0  0  0  0
    0.7046   16.5184    4.6216 N   0  3  0  0  0  0  0  0  0  0  0  0
    0.8941   16.1865    5.5746 H   0  0  0  0  0  0  0  0  0  0  0  0
    0.9639   17.5118    4.5807 H   0  0  0  0  0  0  0  0  0  0  0  0
   -0.3094   16.4675    4.4555 H   0  0  0  0  0  0  0  0  0  0  0  0
    0.9855   13.7965    2.2186 O   0  0  0  0  0  0  0  0  0  0  0  0
    1.2960   12.0158    4.3329 O   0  0  0  0  0  0  0  0  0  0  0  0
    3.6232   12.6861    3.1829 O   0  0  0  0  0  0  0  0  0  0  0  0
    0.5062   12.9426    2.2070 H   0  0  0  0  0  0  0  0  0  0  0  0
    1.7439   11.6879    3.5221 H   0  0  0  0  0  0  0  0  0  0  0  0
    4.5930   12.7070    3.0861 H   0  0  0  0  0  0  0  0  0  0  0  0
  1  2  2  0  0  0  0
  1  6  1  0  0  0  0
  2  3  1  0  0  0  0
  3  4  1  0  0  0  0
  3 13  1  6  0  0  0
  4  5  1  0  0  0  0
  4 12  1  6  0  0  0
  5 11  1  6  0  0  0
  5  6  1  0  0  0  0
  6  7  1  1  0  0  0
  7  8  1  0  0  0  0
  7  9  1  0  0  0  0
  7 10  1  0  0  0  0
 11 14  1  0  0  0  0
 12 15  1  0  0  0  0
 13 16  1  0  0  0  0
M  CHG  1   7   1
M  END
>  <CHROM.0>
-59.24260852,-61.99675294,-64.68663855,-46.96206462,-177.13645414,-61.38405159
-68.68673782,-56.54778594,-168.00468584

>  <CHROM.1>
60.20928823,-45.34283693,65.79676967,-60.97854566,2.02660373,14.20121919
3.80396009,-1.91468867,0.08897841,-2.99427150

>  <Name>
P151020785

>  <RI>
3.58524e+07

>  <Rbt.Current_Directory>
/home/fstefaniak/projects/zuza/docking/adenine/4XNR

>  <Rbt.Executable>
rbdock ($Id: //depot/dev/client3/rdock/2013.1/src/exe/rbdock.cxx#4 $)

>  <Rbt.Library>
libRbt.so (2013.1, Build901 2013/11/27)

>  <Rbt.Parameter_File>
/home/fstefaniak/progs/rDock//data/scripts/dock_solv.prm

>  <Rbt.Receptor>
4xnr.prm

>  <SCORE>
-52.063

>  <SCORE.INTER>
-27.8816

>  <SCORE.INTER.CONST>
1

>  <SCORE.INTER.POLAR>
-3.91108

>  <SCORE.INTER.ROT>
0

>  <SCORE.INTER.SOLV>
17.5328

>  <SCORE.INTER.VDW>
-14.9951

>  <SCORE.INTER.norm>
-2.78816

>  <SCORE.INTRA>
-3.27432

>  <SCORE.INTRA.DIHEDRAL>
-5.79886

>  <SCORE.INTRA.DIHEDRAL.0>
7.20105

>  <SCORE.INTRA.POLAR>
0.0873399

>  <SCORE.INTRA.POLAR.0>
-0.321805

>  <SCORE.INTRA.REPUL>
0

>  <SCORE.INTRA.REPUL.0>
0

>  <SCORE.INTRA.SOLV>
-0.0192722

>  <SCORE.INTRA.SOLV.lig_0>
-36.0555

>  <SCORE.INTRA.VDW>
-0.662208

>  <SCORE.INTRA.VDW.0>
0.304019

>  <SCORE.INTRA.norm>
-0.327432

>  <SCORE.RESTR>
0

>  <SCORE.RESTR.CAVITY>
0

>  <SCORE.RESTR.norm>
0

>  <SCORE.SYSTEM>
-20.907

>  <SCORE.SYSTEM.CONST>
0

>  <SCORE.SYSTEM.DIHEDRAL>
4.11646

>  <SCORE.SYSTEM.POLAR>
-2.98636

>  <SCORE.SYSTEM.SOLV>
0.114757

>  <SCORE.SYSTEM.VDW>
-5.3939

>  <SCORE.SYSTEM.norm>
-2.0907

>  <SCORE.heavy>
10

>  <SCORE.norm>
-5.2063

$$$$
P151020785
 OpenBabel12072022113D
libRbt.so/2013.1/901 2013/11/27
 16 16  0  0  0  0  0  0  0  0999 V2000
    5.9662   17.6275    5.4198 C   0  0  0  0  0  0  0  0  0  0  0  0
    5.1367   16.6910    4.9301 C   0  0  0  0  0  0  0  0  0  0  0  0
    4.7319   16.6078    3.4904 C   0  0  1  0  0  0  0  0  0  0  0  0
    5.0515   17.8994    2.7104 C   0  0  1  0  0  0  0  0  0  0  0  0
    6.4284   18.4997    3.0531 C   0  0  1  0  0  0  0  0  0  0  0  0
    6.6368   18.6790    4.5809 C   0  0  1  0  0  0  0  0  0  0  0  0
    6.1726   20.0291    5.0037 N   0  3  0  0  0  0  0  0  0  0  0  0
    6.8971   20.7470    4.8860 H   0  0  0  0  0  0  0  0  0  0  0  0
    5.3560   20.3173    4.4508 H   0  0  0  0  0  0  0  0  0  0  0  0
    5.8785   20.0229    5.9896 H   0  0  0  0  0  0  0  0  0  0  0  0
    7.5005   17.7095    2.5302 O   0  0  0  0  0  0  0  0  0  0  0  0
    5.0064   17.6571    1.2996 O   0  0  0  0  0  0  0  0  0  0  0  0
    5.4360   15.5331    2.8781 O   0  0  0  0  0  0  0  0  0  0  0  0
    7.4122   17.7207    1.5549 H   0  0  0  0  0  0  0  0  0  0  0  0
    5.0603   18.5382    0.8681 H   0  0  0  0  0  0  0  0  0  0  0  0
    6.2954   15.4353    3.3279 H   0  0  0  0  0  0  0  0  0  0  0  0
  1  2  2  0  0  0  0
  1  6  1  0  0  0  0
  2  3  1  0  0  0  0
  3  4  1  0  0  0  0
  3 13  1  6  0  0  0
  4  5  1  0  0  0  0
  4 12  1  6  0  0  0
  5 11  1  1  0  0  0
  5  6  1  0  0  0  0
  6  7  1  1  0  0  0
  7  8  1  0  0  0  0
  7  9  1  0  0  0  0
  7 10  1  0  0  0  0
 11 14  1  0  0  0  0
 12 15  1  0  0  0  0
 13 16  1  0  0  0  0
M  CHG  1   7   1
M  END
>  <CHROM.0>
-57.70595740,-61.76853470,-59.70311998,-47.12497296,-178.37977943,-60.92532317
-68.35041604,-60.07182935,-168.26098039

>  <CHROM.1>
-30.21493713,170.31874737,62.79722826,148.17823750,5.83404894,17.71031329
3.51318770,0.89457685,1.13184301,1.42831972

>  <Name>
P151020785

>  <RI>
3.58524e+07

>  <Rbt.Current_Directory>
/home/fstefaniak/projects/zuza/docking/adenine/4XNR

>  <Rbt.Executable>
rbdock ($Id: //depot/dev/client3/rdock/2013.1/src/exe/rbdock.cxx#4 $)

>  <Rbt.Library>
libRbt.so (2013.1, Build901 2013/11/27)

>  <Rbt.Parameter_File>
/home/fstefaniak/progs/rDock//data/scripts/dock_solv.prm

>  <Rbt.Receptor>
4xnr.prm

>  <SCORE>
-51.4718

>  <SCORE.INTER>
-31.1825

>  <SCORE.INTER.CONST>
1

>  <SCORE.INTER.POLAR>
-6.00646

>  <SCORE.INTER.ROT>
0

>  <SCORE.INTER.SOLV>
24.9302

>  <SCORE.INTER.VDW>
-12.6769

>  <SCORE.INTER.norm>
-3.11825

>  <SCORE.INTRA>
0.504809

>  <SCORE.INTRA.DIHEDRAL>
-0.995906

>  <SCORE.INTRA.DIHEDRAL.0>
7.20105

>  <SCORE.INTRA.POLAR>
0.321654

>  <SCORE.INTRA.POLAR.0>
-0.321805

>  <SCORE.INTRA.REPUL>
0

>  <SCORE.INTRA.REPUL.0>
0

>  <SCORE.INTRA.SOLV>
-0.100373

>  <SCORE.INTRA.SOLV.lig_0>
-36.0555

>  <SCORE.INTRA.VDW>
-0.0406734

>  <SCORE.INTRA.VDW.0>
0.304019

>  <SCORE.INTRA.norm>
0.0504809

>  <SCORE.RESTR>
0

>  <SCORE.RESTR.CAVITY>
0

>  <SCORE.RESTR.norm>
0

>  <SCORE.SYSTEM>
-20.7941

>  <SCORE.SYSTEM.CONST>
0

>  <SCORE.SYSTEM.DIHEDRAL>
3.88078

>  <SCORE.SYSTEM.POLAR>
-2.99042

>  <SCORE.SYSTEM.SOLV>
0.121972

>  <SCORE.SYSTEM.VDW>
-5.22889

>  <SCORE.SYSTEM.norm>
-2.07941

>  <SCORE.heavy>
10

>  <SCORE.norm>
-5.14718

$$$$
P151020785
 OpenBabel12072022113D
libRbt.so/2013.1/901 2013/11/27
 16 16  0  0  0  0  0  0  0  0999 V2000
    6.7738   18.8706    4.3841 C   0  0  0  0  0  0  0  0  0  0  0  0
    7.3833   18.1627    3.4186 C   0  0  0  0  0  0  0  0  0  0  0  0
    6.7984   16.9351    2.7906 C   0  0  1  0  0  0  0  0  0  0  0  0
    5.6242   16.3559    3.6057 C   0  0  1  0  0  0  0  0  0  0  0  0
    4.6646   17.4309    4.1506 C   0  0  1  0  0  0  0  0  0  0  0  0
    5.4060   18.5557    4.9218 C   0  0  1  0  0  0  0  0  0  0  0  0
    5.5034   18.2051    6.3657 N   0  3  0  0  0  0  0  0  0  0  0  0
    6.3851   17.7318    6.5952 H   0  0  0  0  0  0  0  0  0  0  0  0
    5.4443   19.0514    6.9453 H   0  0  0  0  0  0  0  0  0  0  0  0
    4.7243   17.5952    6.6477 H   0  0  0  0  0  0  0  0  0  0  0  0
    3.8805   18.0233    3.1106 O   0  0  0  0  0  0  0  0  0  0  0  0
    4.8651   15.4392    2.8091 O   0  0  0  0  0  0  0  0  0  0  0  0
    6.3170   17.2693    1.4936 O   0  0  0  0  0  0  0  0  0  0  0  0
    3.2604   18.6464    3.5423 H   0  0  0  0  0  0  0  0  0  0  0  0
    5.4355   14.6495    2.6809 H   0  0  0  0  0  0  0  0  0  0  0  0
    7.0502   17.6663    0.9885 H   0  0  0  0  0  0  0  0  0  0  0  0
  1  2  2  0  0  0  0
  1  6  1  0  0  0  0
  2  3  1  0  0  0  0
  3  4  1  0  0  0  0
  3 13  1  6  0  0  0
  4  5  1  0  0  0  0
  4 12  1  6  0  0  0
  5 11  1  6  0  0  0
  5  6  1  0  0  0  0
  6  7  1  1  0  0  0
  7  8  1  0  0  0  0
  7  9  1  0  0  0  0
  7 10  1  0  0  0  0
 11 14  1  0  0  0  0
 12 15  1  0  0  0  0
 13 16  1  0  0  0  0
M  CHG  1   7   1
M  END
>  <CHROM.0>
-58.48220931,56.59140250,-69.62168111,-46.26321538,-58.19722541,-60.45750374
-63.94514327,-57.19498807,-167.62426314

>  <CHROM.1>
55.36253545,70.05802603,176.29720630,-32.57823574,5.66326330,17.49311225
3.68317601,-1.61710744,-0.43715512,-2.11321753

>  <Name>
P151020785

>  <RI>
3.58524e+07

>  <Rbt.Current_Directory>
/home/fstefaniak/projects/zuza/docking/adenine/4XNR

>  <Rbt.Executable>
rbdock ($Id: //depot/dev/client3/rdock/2013.1/src/exe/rbdock.cxx#4 $)

>  <Rbt.Library>
libRbt.so (2013.1, Build901 2013/11/27)

>  <Rbt.Parameter_File>
/home/fstefaniak/progs/rDock//data/scripts/dock_solv.prm

>  <Rbt.Receptor>
4xnr.prm

>  <SCORE>
-50.9607

>  <SCORE.INTER>
-29.0267

>  <SCORE.INTER.CONST>
1

>  <SCORE.INTER.POLAR>
-4.1601

>  <SCORE.INTER.ROT>
0

>  <SCORE.INTER.SOLV>
23.2077

>  <SCORE.INTER.VDW>
-16.82

>  <SCORE.INTER.norm>
-2.90267

>  <SCORE.INTRA>
-2.00435

>  <SCORE.INTRA.DIHEDRAL>
-4.84166

>  <SCORE.INTRA.DIHEDRAL.0>
7.20105

>  <SCORE.INTRA.POLAR>
0.321805

>  <SCORE.INTRA.POLAR.0>
-0.321805

>  <SCORE.INTRA.REPUL>
0

>  <SCORE.INTRA.REPUL.0>
0

>  <SCORE.INTRA.SOLV>
-0.407937

>  <SCORE.INTRA.SOLV.lig_0>
-36.0555

>  <SCORE.INTRA.VDW>
-0.473694

>  <SCORE.INTRA.VDW.0>
0.304019

>  <SCORE.INTRA.norm>
-0.200435

>  <SCORE.RESTR>
0

>  <SCORE.RESTR.CAVITY>
0

>  <SCORE.RESTR.norm>
0

>  <SCORE.SYSTEM>
-19.9297

>  <SCORE.SYSTEM.CONST>
0

>  <SCORE.SYSTEM.DIHEDRAL>
4.28007

>  <SCORE.SYSTEM.POLAR>
-3.00049

>  <SCORE.SYSTEM.SOLV>
0.386871

>  <SCORE.SYSTEM.VDW>
-4.84045

>  <SCORE.SYSTEM.norm>
-1.99297

>  <SCORE.heavy>
10

>  <SCORE.norm>
-5.09607

$$$$
P151024286
 OpenBabel12072022113D
libRbt.so/2013.1/901 2013/11/27
 13 13  0  0  0  0  0  0  0  0999 V2000
    1.4408   15.9619    4.4046 H   0  0  0  0  0  0  0  0  0  0  0  0
    2.4082   16.3257    4.3650 N   0  0  0  0  0  0  0  0  0  0  0  0
    3.1075   15.4903    3.6574 C   0  0  0  0  0  0  0  0  0  0  0  0
    4.4205   15.6445    3.3938 N   0  0  0  0  0  0  0  0  0  0  0  0
    5.1971   16.7154    3.8426 C   0  0  0  0  0  0  0  0  0  0  0  0
    6.2956   17.1516    3.0840 C   0  0  0  0  0  0  0  0  0  0  0  0
    7.0005   18.2359    3.6365 C   0  0  0  0  0  0  0  0  0  0  0  0
    6.6353   18.8305    4.8442 C   0  0  0  0  0  0  0  0  0  0  0  0
    5.5380   18.3274    5.5148 C   0  0  0  0  0  0  0  0  0  0  0  0
    4.8685   17.3022    4.9960 N   0  3  0  0  0  0  0  0  0  0  0  0
    4.0450   16.8845    5.4475 H   0  0  0  0  0  0  0  0  0  0  0  0
    6.6256   16.6042    1.9795 O   0  5  0  0  0  0  0  0  0  0  0  0
    4.9984   15.0072    2.8412 H   0  0  0  0  0  0  0  0  0  0  0  0
  1  2  1  0  0  0  0
  2  3  2  0  0  0  0
  3  4  1  0  0  0  0
  4  5  1  0  0  0  0
  4 13  1  0  0  0  0
  5  6  2  0  0  0  0
  5 10  1  0  0  0  0
  6  7  1  0  0  0  0
  6 12  1  0  0  0  0
  7  8  2  0  0  0  0
  8  9  1  0  0  0  0
  9 10  2  0  0  0  0
 10 11  1  0  0  0  0
M  CHG  2  10   1  12  -1
M  END
>  <CHROM.0>
-59.93142848,-60.09968008,-72.22684928,-47.10705976,-60.93262447,-62.25602576
-171.61423799,-61.84064220,-168.12739370

>  <CHROM.1>
-150.28929672,5.16641497,17.01641546,3.90935975,2.83361487,-0.45540610,-2.23829163

>  <Name>
P151024286

>  <RI>
3.02409e+07

>  <Rbt.Current_Directory>
/home/fstefaniak/projects/zuza/docking/adenine/4XNR

>  <Rbt.Executable>
rbdock ($Id: //depot/dev/client3/rdock/2013.1/src/exe/rbdock.cxx#4 $)

>  <Rbt.Library>
libRbt.so (2013.1, Build901 2013/11/27)

>  <Rbt.Parameter_File>
/home/fstefaniak/progs/rDock//data/scripts/dock_solv.prm

>  <Rbt.Receptor>
4xnr.prm

>  <SCORE>
-48.6846

>  <SCORE.INTER>
-30.2712

>  <SCORE.INTER.CONST>
1

>  <SCORE.INTER.POLAR>
-3.34351

>  <SCORE.INTER.ROT>
1

>  <SCORE.INTER.SOLV>
11.7386

>  <SCORE.INTER.VDW>
-17.2153

>  <SCORE.INTER.norm>
-3.02712

>  <SCORE.INTRA>
1.92565

>  <SCORE.INTRA.DIHEDRAL>
3.13803

>  <SCORE.INTRA.DIHEDRAL.0>
3.34733e-06

>  <SCORE.INTRA.POLAR>
0.41713

>  <SCORE.INTRA.POLAR.0>
-0.916372

>  <SCORE.INTRA.REPUL>
0

>  <SCORE.INTRA.REPUL.0>
0

>  <SCORE.INTRA.SOLV>
-0.347355

>  <SCORE.INTRA.SOLV.lig_0>
-15.2423

>  <SCORE.INTRA.VDW>
-0.887924

>  <SCORE.INTRA.VDW.0>
0.939686

>  <SCORE.INTRA.norm>
0.192565

>  <SCORE.RESTR>
0

>  <SCORE.RESTR.CAVITY>
0

>  <SCORE.RESTR.norm>
0

>  <SCORE.SYSTEM>
-20.339

>  <SCORE.SYSTEM.CONST>
0

>  <SCORE.SYSTEM.DIHEDRAL>
4.54539

>  <SCORE.SYSTEM.POLAR>
-2.95767

>  <SCORE.SYSTEM.SOLV>
0.224052

>  <SCORE.SYSTEM.VDW>
-5.29028

>  <SCORE.SYSTEM.norm>
-2.0339

>  <SCORE.heavy>
10

>  <SCORE.norm>
-4.86846

$$$$
P151024286
 OpenBabel12072022113D
libRbt.so/2013.1/901 2013/11/27
 13 13  0  0  0  0  0  0  0  0999 V2000
    4.0156   14.3356    4.4673 H   0  0  0  0  0  0  0  0  0  0  0  0
    4.4508   15.2604    4.6259 N   0  0  0  0  0  0  0  0  0  0  0  0
    4.7991   15.7287    3.4652 C   0  0  0  0  0  0  0  0  0  0  0  0
    5.4002   16.9220    3.2861 N   0  0  0  0  0  0  0  0  0  0  0  0
    5.7252   17.8067    4.3171 C   0  0  0  0  0  0  0  0  0  0  0  0
    6.5242   18.9306    4.0510 C   0  0  0  0  0  0  0  0  0  0  0  0
    6.7840   19.7469    5.1663 C   0  0  0  0  0  0  0  0  0  0  0  0
    6.2858   19.4607    6.4372 C   0  0  0  0  0  0  0  0  0  0  0  0
    5.5088   18.3301    6.5953 C   0  0  0  0  0  0  0  0  0  0  0  0
    5.2606   17.5554    5.5433 N   0  3  0  0  0  0  0  0  0  0  0  0
    4.6902   16.7021    5.5978 H   0  0  0  0  0  0  0  0  0  0  0  0
    6.9776   19.1880    2.8862 O   0  5  0  0  0  0  0  0  0  0  0  0
    5.6859   17.3189    2.3882 H   0  0  0  0  0  0  0  0  0  0  0  0
  1  2  1  0  0  0  0
  2  3  2  0  0  0  0
  3  4  1  0  0  0  0
  4  5  1  0  0  0  0
  4 13  1  0  0  0  0
  5  6  2  0  0  0  0
  5 10  1  0  0  0  0
  6  7  1  0  0  0  0
  6 12  1  0  0  0  0
  7  8  2  0  0  0  0
  8  9  1  0  0  0  0
  9 10  2  0  0  0  0
 10 11  1  0  0  0  0
M  CHG  2  10   1  12  -1
M  END
>  <CHROM.0>
-58.80370579,-61.79533425,-68.76361884,-48.05151003,-59.92349697,-64.16735074
-69.41711658,-59.87445244,-168.07455836

>  <CHROM.1>
170.57346444,5.75529570,17.84659458,4.59194113,2.53401243,-1.01828094,-1.95873759

>  <Name>
P151024286

>  <RI>
3.02409e+07

>  <Rbt.Current_Directory>
/home/fstefaniak/projects/zuza/docking/adenine/4XNR

>  <Rbt.Executable>
rbdock ($Id: //depot/dev/client3/rdock/2013.1/src/exe/rbdock.cxx#4 $)

>  <Rbt.Library>
libRbt.so (2013.1, Build901 2013/11/27)

>  <Rbt.Parameter_File>
/home/fstefaniak/progs/rDock//data/scripts/dock_solv.prm

>  <Rbt.Receptor>
4xnr.prm

>  <SCORE>
-48.1356

>  <SCORE.INTER>
-27.4215

>  <SCORE.INTER.CONST>
1

>  <SCORE.INTER.POLAR>
-1.87803

>  <SCORE.INTER.ROT>
1

>  <SCORE.INTER.SOLV>
11.0769

>  <SCORE.INTER.VDW>
-19.9799

>  <SCORE.INTER.norm>
-2.74215

>  <SCORE.INTRA>
0.22941

>  <SCORE.INTRA.DIHEDRAL>
0.345676

>  <SCORE.INTRA.DIHEDRAL.0>
3.34733e-06

>  <SCORE.INTRA.POLAR>
0.0591227

>  <SCORE.INTRA.POLAR.0>
-0.916372

>  <SCORE.INTRA.REPUL>
0

>  <SCORE.INTRA.REPUL.0>
0

>  <SCORE.INTRA.SOLV>
-0.0383331

>  <SCORE.INTRA.SOLV.lig_0>
-15.2423

>  <SCORE.INTRA.VDW>
-0.125279

>  <SCORE.INTRA.VDW.0>
0.939686

>  <SCORE.INTRA.norm>
0.022941

>  <SCORE.RESTR>
0

>  <SCORE.RESTR.CAVITY>
0

>  <SCORE.RESTR.norm>
0

>  <SCORE.SYSTEM>
-20.9435

>  <SCORE.SYSTEM.CONST>
0

>  <SCORE.SYSTEM.DIHEDRAL>
4.27032

>  <SCORE.SYSTEM.POLAR>
-2.95936

>  <SCORE.SYSTEM.SOLV>
0.267554

>  <SCORE.SYSTEM.VDW>
-5.61043

>  <SCORE.SYSTEM.norm>
-2.09435

>  <SCORE.heavy>
10

>  <SCORE.norm>
-4.81356

$$$$
P151024286
 OpenBabel12072022113D
libRbt.so/2013.1/901 2013/11/27
 13 13  0  0  0  0  0  0  0  0999 V2000
    4.0261   14.3080    4.4563 H   0  0  0  0  0  0  0  0  0  0  0  0
    4.4646   15.2307    4.6173 N   0  0  0  0  0  0  0  0  0  0  0  0
    4.7995   15.7082    3.4565 C   0  0  0  0  0  0  0  0  0  0  0  0
    5.4003   16.9021    3.2801 N   0  0  0  0  0  0  0  0  0  0  0  0
    5.7392   17.7776    4.3144 C   0  0  0  0  0  0  0  0  0  0  0  0
    6.5411   18.8997    4.0491 C   0  0  0  0  0  0  0  0  0  0  0  0
    6.8152   19.7065    5.1679 C   0  0  0  0  0  0  0  0  0  0  0  0
    6.3275   19.4134    6.4413 C   0  0  0  0  0  0  0  0  0  0  0  0
    5.5466   18.2853    6.5983 C   0  0  0  0  0  0  0  0  0  0  0  0
    5.2849   17.5195    5.5431 N   0  3  0  0  0  0  0  0  0  0  0  0
    4.7109   16.6686    5.5967 H   0  0  0  0  0  0  0  0  0  0  0  0
    6.9848   19.1636    2.8820 O   0  5  0  0  0  0  0  0  0  0  0  0
    5.6758   17.3061    2.3821 H   0  0  0  0  0  0  0  0  0  0  0  0
  1  2  1  0  0  0  0
  2  3  2  0  0  0  0
  3  4  1  0  0  0  0
  4  5  1  0  0  0  0
  4 13  1  0  0  0  0
  5  6  2  0  0  0  0
  5 10  1  0  0  0  0
  6  7  1  0  0  0  0
  6 12  1  0  0  0  0
  7  8  2  0  0  0  0
  8  9  1  0  0  0  0
  9 10  2  0  0  0  0
 10 11  1  0  0  0  0
M  CHG  2  10   1  12  -1
M  END
>  <CHROM.0>
-59.08305632,-62.76124195,-65.69020282,-49.53569421,-177.57763054,-176.67351485
-68.87217287,-61.79356954,-167.90440097

>  <CHROM.1>
170.32282128,5.77346125,17.81470012,4.58940332,2.55283427,-1.01876257,-1.93527044

>  <Name>
P151024286

>  <RI>
3.02409e+07

>  <Rbt.Current_Directory>
/home/fstefaniak/projects/zuza/docking/adenine/4XNR

>  <Rbt.Executable>
rbdock ($Id: //depot/dev/client3/rdock/2013.1/src/exe/rbdock.cxx#4 $)

>  <Rbt.Library>
libRbt.so (2013.1, Build901 2013/11/27)

>  <Rbt.Parameter_File>
/home/fstefaniak/progs/rDock//data/scripts/dock_solv.prm

>  <Rbt.Receptor>
4xnr.prm

>  <SCORE>
-47.949

>  <SCORE.INTER>
-27.4338

>  <SCORE.INTER.CONST>
1

>  <SCORE.INTER.POLAR>
-1.85742

>  <SCORE.INTER.ROT>
1

>  <SCORE.INTER.SOLV>
11.092

>  <SCORE.INTER.VDW>
-20.0618

>  <SCORE.INTER.norm>
-2.74338

>  <SCORE.INTRA>
0.24137

>  <SCORE.INTRA.DIHEDRAL>
0.364061

>  <SCORE.INTRA.DIHEDRAL.0>
3.34733e-06

>  <SCORE.INTRA.POLAR>
0.0621331

>  <SCORE.INTRA.POLAR.0>
-0.916372

>  <SCORE.INTRA.REPUL>
0

>  <SCORE.INTRA.REPUL.0>
0

>  <SCORE.INTRA.SOLV>
-0.0403712

>  <SCORE.INTRA.SOLV.lig_0>
-15.2423

>  <SCORE.INTRA.VDW>
-0.131727

>  <SCORE.INTRA.VDW.0>
0.939686

>  <SCORE.INTRA.norm>
0.024137

>  <SCORE.RESTR>
0

>  <SCORE.RESTR.CAVITY>
0

>  <SCORE.RESTR.norm>
0

>  <SCORE.SYSTEM>
-20.7565

>  <SCORE.SYSTEM.CONST>
0

>  <SCORE.SYSTEM.DIHEDRAL>
3.92602

>  <SCORE.SYSTEM.POLAR>
-2.93748

>  <SCORE.SYSTEM.SOLV>
-0.0125242

>  <SCORE.SYSTEM.VDW>
-5.35059

>  <SCORE.SYSTEM.norm>
-2.07565

>  <SCORE.heavy>
10

>  <SCORE.norm>
-4.7949

$$$$
P151024354
 OpenBabel12072022113D
libRbt.so/2013.1/901 2013/11/27
 14 15  0  0  0  0  0  0  0  0999 V2000
    4.5639   16.7150    4.5386 C   0  0  0  0  0  0  0  0  0  0  0  0
    4.5697   16.7178    3.1333 C   0  0  0  0  0  0  0  0  0  0  0  0
    5.3656   17.6291    2.3946 C   0  0  0  0  0  0  0  0  0  0  0  0
    6.2086   18.5981    3.0039 C   0  0  0  0  0  0  0  0  0  0  0  0
    6.1592   18.5452    4.3951 C   0  0  0  0  0  0  0  0  0  0  0  0
    5.3864   17.6605    5.1360 C   0  0  0  0  0  0  0  0  0  0  0  0
    5.6448   17.9607    6.4665 N   0  3  0  0  0  0  0  0  0  0  0  0
    5.2296   17.4865    7.2575 H   0  0  0  0  0  0  0  0  0  0  0  0
    6.5235   18.9693    6.5469 C   0  0  0  0  0  0  0  0  0  0  0  0
    6.8328   19.3209    5.3143 N   0  0  0  0  0  0  0  0  0  0  0  0
    7.4568   20.0359    4.9454 H   0  0  0  0  0  0  0  0  0  0  0  0
    6.9826   19.4850    2.5208 O   0  5  0  0  0  0  0  0  0  0  0  0
    5.3234   17.5768    1.0224 O   0  0  0  0  0  0  0  0  0  0  0  0
    5.2800   18.4692    0.6569 H   0  0  0  0  0  0  0  0  0  0  0  0
  1  2  2  0  0  0  0
  1  6  1  0  0  0  0
  2  3  1  0  0  0  0
  3  4  2  0  0  0  0
  3 13  1  0  0  0  0
  4  5  1  0  0  0  0
  4 12  1  0  0  0  0
  5  6  2  0  0  0  0
  5 10  1  0  0  0  0
  6  7  1  0  0  0  0
  7  8  1  0  0  0  0
  7  9  2  0  0  0  0
  9 10  1  0  0  0  0
 10 11  1  0  0  0  0
 13 14  1  0  0  0  0
M  CHG  2   7   1  12  -1
M  END
>  <CHROM.0>
-54.46487646,-61.06978421,-66.47679015,-45.73871875,-177.07333483,-59.87078184
-70.02177013,-57.79912193,-168.49962448

>  <CHROM.1>
136.86229674,5.80335569,18.14215960,3.99031585,1.34365944,0.85487711,1.57498762

>  <Name>
P151024354

>  <RI>
3.02409e+07

>  <Rbt.Current_Directory>
/home/fstefaniak/projects/zuza/docking/adenine/4XNR

>  <Rbt.Executable>
rbdock ($Id: //depot/dev/client3/rdock/2013.1/src/exe/rbdock.cxx#4 $)

>  <Rbt.Library>
libRbt.so (2013.1, Build901 2013/11/27)

>  <Rbt.Parameter_File>
/home/fstefaniak/progs/rDock//data/scripts/dock_solv.prm

>  <Rbt.Receptor>
4xnr.prm

>  <SCORE>
-50.6533

>  <SCORE.INTER>
-30.8138

>  <SCORE.INTER.CONST>
1

>  <SCORE.INTER.POLAR>
-4.62467

>  <SCORE.INTER.ROT>
0

>  <SCORE.INTER.SOLV>
29.5849

>  <SCORE.INTER.VDW>
-18.5886

>  <SCORE.INTER.norm>
-2.80126

>  <SCORE.INTRA>
1.00524

>  <SCORE.INTRA.DIHEDRAL>
2.24425

>  <SCORE.INTRA.DIHEDRAL.0>
7.02657e-07

>  <SCORE.INTRA.POLAR>
0

>  <SCORE.INTRA.POLAR.0>
0

>  <SCORE.INTRA.REPUL>
0

>  <SCORE.INTRA.REPUL.0>
0

>  <SCORE.INTRA.SOLV>
0.561056

>  <SCORE.INTRA.SOLV.lig_0>
-48.4593

>  <SCORE.INTRA.VDW>
-0.397416

>  <SCORE.INTRA.VDW.0>
0.339633

>  <SCORE.INTRA.norm>
0.0913853

>  <SCORE.RESTR>
0

>  <SCORE.RESTR.CAVITY>
0

>  <SCORE.RESTR.norm>
0

>  <SCORE.SYSTEM>
-20.8447

>  <SCORE.SYSTEM.CONST>
0

>  <SCORE.SYSTEM.DIHEDRAL>
4.49811

>  <SCORE.SYSTEM.POLAR>
-3.03495

>  <SCORE.SYSTEM.SOLV>
0.119999

>  <SCORE.SYSTEM.VDW>
-5.31933

>  <SCORE.SYSTEM.norm>
-1.89497

>  <SCORE.heavy>
11

>  <SCORE.norm>
-4.60484

$$$$
P151024354
 OpenBabel12072022113D
libRbt.so/2013.1/901 2013/11/27
 14 15  0  0  0  0  0  0  0  0999 V2000
    4.5592   16.7253    4.5456 C   0  0  0  0  0  0  0  0  0  0  0  0
    4.5700   16.7212    3.1403 C   0  0  0  0  0  0  0  0  0  0  0  0
    5.3666   17.6308    2.4001 C   0  0  0  0  0  0  0  0  0  0  0  0
    6.2051   18.6046    3.0076 C   0  0  0  0  0  0  0  0  0  0  0  0
    6.1507   18.5584    4.3990 C   0  0  0  0  0  0  0  0  0  0  0  0
    5.3772   17.6756    5.1414 C   0  0  0  0  0  0  0  0  0  0  0  0
    5.6301   17.9830    6.4713 N   0  3  0  0  0  0  0  0  0  0  0  0
    5.2131   17.5117    7.2631 H   0  0  0  0  0  0  0  0  0  0  0  0
    6.5062   18.9939    6.5499 C   0  0  0  0  0  0  0  0  0  0  0  0
    6.8192   19.3402    5.3168 N   0  0  0  0  0  0  0  0  0  0  0  0
    7.4429   20.0548    4.9466 H   0  0  0  0  0  0  0  0  0  0  0  0
    6.9788   19.4910    2.5230 O   0  5  0  0  0  0  0  0  0  0  0  0
    5.3295   17.5716    1.0279 O   0  0  0  0  0  0  0  0  0  0  0  0
    5.3048   18.4626    0.6574 H   0  0  0  0  0  0  0  0  0  0  0  0
  1  2  2  0  0  0  0
  1  6  1  0  0  0  0
  2  3  1  0  0  0  0
  3  4  2  0  0  0  0
  3 13  1  0  0  0  0
  4  5  1  0  0  0  0
  4 12  1  0  0  0  0
  5  6  2  0  0  0  0
  5 10  1  0  0  0  0
  6  7  1  0  0  0  0
  7  8  1  0  0  0  0
  7  9  2  0  0  0  0
  9 10  1  0  0  0  0
 10 11  1  0  0  0  0
 13 14  1  0  0  0  0
M  CHG  2   7   1  12  -1
M  END
>  <CHROM.0>
-56.02911387,-62.48867336,-64.24797397,-46.86670151,-173.21767527,-61.90137474
-66.37400846,-55.80250934,-167.54532853

>  <CHROM.1>
138.08786545,5.79743475,18.15261453,3.99481475,1.34952354,0.85719226,1.56570549

>  <Name>
P151024354

>  <RI>
3.02409e+07

>  <Rbt.Current_Directory>
/home/fstefaniak/projects/zuza/docking/adenine/4XNR

>  <Rbt.Executable>
rbdock ($Id: //depot/dev/client3/rdock/2013.1/src/exe/rbdock.cxx#4 $)

>  <Rbt.Library>
libRbt.so (2013.1, Build901 2013/11/27)

>  <Rbt.Parameter_File>
/home/fstefaniak/progs/rDock//data/scripts/dock_solv.prm

>  <Rbt.Receptor>
4xnr.prm

>  <SCORE>
-50.5585

>  <SCORE.INTER>
-30.7008

>  <SCORE.INTER.CONST>
1

>  <SCORE.INTER.POLAR>
-4.60396

>  <SCORE.INTER.ROT>
0

>  <SCORE.INTER.SOLV>
29.6516

>  <SCORE.INTER.VDW>
-18.6045

>  <SCORE.INTER.norm>
-2.79098

>  <SCORE.INTRA>
0.962728

>  <SCORE.INTRA.DIHEDRAL>
2.14197

>  <SCORE.INTRA.DIHEDRAL.0>
7.02657e-07

>  <SCORE.INTRA.POLAR>
0

>  <SCORE.INTRA.POLAR.0>
0

>  <SCORE.INTRA.REPUL>
0

>  <SCORE.INTRA.REPUL.0>
0

>  <SCORE.INTRA.SOLV>
0.565566

>  <SCORE.INTRA.SOLV.lig_0>
-48.4593

>  <SCORE.INTRA.VDW>
-0.39104

>  <SCORE.INTRA.VDW.0>
0.339633

>  <SCORE.INTRA.norm>
0.0875207

>  <SCORE.RESTR>
0

>  <SCORE.RESTR.CAVITY>
0

>  <SCORE.RESTR.norm>
0

>  <SCORE.SYSTEM>
-20.8204

>  <SCORE.SYSTEM.CONST>
0

>  <SCORE.SYSTEM.DIHEDRAL>
4.28435

>  <SCORE.SYSTEM.POLAR>
-3.0174

>  <SCORE.SYSTEM.SOLV>
0.125094

>  <SCORE.SYSTEM.VDW>
-5.29208

>  <SCORE.SYSTEM.norm>
-1.89276

>  <SCORE.heavy>
11

>  <SCORE.norm>
-4.59622

$$$$
P151024354
 OpenBabel12072022113D
libRbt.so/2013.1/901 2013/11/27
 14 15  0  0  0  0  0  0  0  0999 V2000
    4.5229   16.7320    4.4564 C   0  0  0  0  0  0  0  0  0  0  0  0
    4.5616   16.7326    3.0515 C   0  0  0  0  0  0  0  0  0  0  0  0
    5.3774   17.6405    2.3305 C   0  0  0  0  0  0  0  0  0  0  0  0
    6.2088   18.6078    2.9579 C   0  0  0  0  0  0  0  0  0  0  0  0
    6.1267   18.5571    4.3477 C   0  0  0  0  0  0  0  0  0  0  0  0
    5.3341   17.6759    5.0715 C   0  0  0  0  0  0  0  0  0  0  0  0
    5.5622   17.9773    6.4073 N   0  3  0  0  0  0  0  0  0  0  0  0
    5.1271   17.5056    7.1890 H   0  0  0  0  0  0  0  0  0  0  0  0
    6.4418   18.9833    6.5068 C   0  0  0  0  0  0  0  0  0  0  0  0
    6.7810   19.3321    5.2813 N   0  0  0  0  0  0  0  0  0  0  0  0
    7.4157   20.0447    4.9260 H   0  0  0  0  0  0  0  0  0  0  0  0
    6.9967   19.4916    2.4918 O   0  5  0  0  0  0  0  0  0  0  0  0
    5.3672   17.5862    0.9576 O   0  0  0  0  0  0  0  0  0  0  0  0
    5.2867   18.4753    0.5904 H   0  0  0  0  0  0  0  0  0  0  0  0
  1  2  2  0  0  0  0
  1  6  1  0  0  0  0
  2  3  1  0  0  0  0
  3  4  2  0  0  0  0
  3 13  1  0  0  0  0
  4  5  1  0  0  0  0
  4 12  1  0  0  0  0
  5  6  2  0  0  0  0
  5 10  1  0  0  0  0
  6  7  1  0  0  0  0
  7  8  1  0  0  0  0
  7  9  2  0  0  0  0
  9 10  1  0  0  0  0
 10 11  1  0  0  0  0
 13 14  1  0  0  0  0
M  CHG  2   7   1  12  -1
M  END
>  <CHROM.0>
-57.18064628,47.96663450,-67.68363225,-47.86417104,-61.92144561,-63.47116080
-68.41706129,-55.03912306,-168.09311158

>  <CHROM.1>
133.79587844,5.77892191,18.15453687,3.93521686,1.37857098,0.85154259,1.54707239

>  <Name>
P151024354

>  <RI>
3.02409e+07

>  <Rbt.Current_Directory>
/home/fstefaniak/projects/zuza/docking/adenine/4XNR

>  <Rbt.Executable>
rbdock ($Id: //depot/dev/client3/rdock/2013.1/src/exe/rbdock.cxx#4 $)

>  <Rbt.Library>
libRbt.so (2013.1, Build901 2013/11/27)

>  <Rbt.Parameter_File>
/home/fstefaniak/progs/rDock//data/scripts/dock_solv.prm

>  <Rbt.Receptor>
4xnr.prm

>  <SCORE>
-50.2435

>  <SCORE.INTER>
-31.3245

>  <SCORE.INTER.CONST>
1

>  <SCORE.INTER.POLAR>
-4.6743

>  <SCORE.INTER.ROT>
0

>  <SCORE.INTER.SOLV>
29.5492

>  <SCORE.INTER.VDW>
-18.7518

>  <SCORE.INTER.norm>
-2.84768

>  <SCORE.INTRA>
1.11249

>  <SCORE.INTRA.DIHEDRAL>
2.50101

>  <SCORE.INTRA.DIHEDRAL.0>
7.02657e-07

>  <SCORE.INTRA.POLAR>
0

>  <SCORE.INTRA.POLAR.0>
0

>  <SCORE.INTRA.REPUL>
0

>  <SCORE.INTRA.REPUL.0>
0

>  <SCORE.INTRA.SOLV>
0.549284

>  <SCORE.INTRA.SOLV.lig_0>
-48.4593

>  <SCORE.INTRA.VDW>
-0.412656

>  <SCORE.INTRA.VDW.0>
0.339633

>  <SCORE.INTRA.norm>
0.101135

>  <SCORE.RESTR>
0

>  <SCORE.RESTR.CAVITY>
0

>  <SCORE.RESTR.norm>
0

>  <SCORE.SYSTEM>
-20.0314

>  <SCORE.SYSTEM.CONST>
0

>  <SCORE.SYSTEM.DIHEDRAL>
4.92462

>  <SCORE.SYSTEM.POLAR>
-3.04199

>  <SCORE.SYSTEM.SOLV>
0.396435

>  <SCORE.SYSTEM.VDW>
-4.988

>  <SCORE.SYSTEM.norm>
-1.82104

>  <SCORE.heavy>
11

>  <SCORE.norm>
-4.56759

$$$$
P151025485
 OpenBabel12072022113D
libRbt.so/2013.1/901 2013/11/27
 16 16  0  0  0  0  0  0  0  0999 V2000
    6.0375   19.6080    5.0831 C   0  0  0  0  0  0  0  0  0  0  0  0
    5.1004   18.4366    5.3831 C   0  0  1  0  0  0  0  0  0  0  0  0
    4.9798   17.4987    4.1851 C   0  0  0  0  0  0  0  0  0  0  0  0
    6.3496   16.9743    3.7473 C   0  0  2  0  0  0  0  0  0  0  0  0
    7.3602   18.1116    3.5139 C   0  0  2  0  0  0  0  0  0  0  0  0
    7.4335   19.1184    4.6779 C   0  0  2  0  0  0  0  0  0  0  0  0
    8.0905   18.5166    5.8782 N   0  3  0  0  0  0  0  0  0  0  0  0
    7.3797   17.9955    6.4330 H   0  0  0  0  0  0  0  0  0  0  0  0
    8.8689   17.8866    5.6525 H   0  0  0  0  0  0  0  0  0  0  0  0
    8.4475   19.2480    6.5056 H   0  0  0  0  0  0  0  0  0  0  0  0
    6.9810   18.8261    2.3319 O   0  0  0  0  0  0  0  0  0  0  0  0
    6.2226   16.2563    2.5200 O   0  0  0  0  0  0  0  0  0  0  0  0
    5.6677   17.7064    6.4834 O   0  0  0  0  0  0  0  0  0  0  0  0
    6.8025   18.1386    1.6522 H   0  0  0  0  0  0  0  0  0  0  0  0
    5.7098   15.4421    2.6836 H   0  0  0  0  0  0  0  0  0  0  0  0
    5.0341   16.9812    6.6811 H   0  0  0  0  0  0  0  0  0  0  0  0
  1  2  1  0  0  0  0
  1  6  1  0  0  0  0
  2  3  1  0  0  0  0
  2 13  1  1  0  0  0
  3  4  1  0  0  0  0
  4 12  1  6  0  0  0
  4  5  1  0  0  0  0
  5 11  1  6  0  0  0
  5  6  1  0  0  0  0
  6  7  1  1  0  0  0
  7  8  1  0  0  0  0
  7  9  1  0  0  0  0
  7 10  1  0  0  0  0
 11 14  1  0  0  0  0
 12 15  1  0  0  0  0
 13 16  1  0  0  0  0
M  CHG  1   7   1
M  END
>  <CHROM.0>
-56.40477674,59.74236291,-63.77960174,-48.03450758,-60.90034543,-66.22840759
-69.08245982,-175.32413466,-168.54201967

>  <CHROM.1>
177.88676974,-67.46673263,-47.41735333,37.94131530,6.43824050,18.06341352
4.38013989,-1.58708447,-0.65898662,-1.94608779

>  <Name>
P151025485

>  <RI>
3.58524e+07

>  <Rbt.Current_Directory>
/home/fstefaniak/projects/zuza/docking/adenine/4XNR

>  <Rbt.Executable>
rbdock ($Id: //depot/dev/client3/rdock/2013.1/src/exe/rbdock.cxx#4 $)

>  <Rbt.Library>
libRbt.so (2013.1, Build901 2013/11/27)

>  <Rbt.Parameter_File>
/home/fstefaniak/progs/rDock//data/scripts/dock_solv.prm

>  <Rbt.Receptor>
4xnr.prm

>  <SCORE>
-46.8541

>  <SCORE.INTER>
-25.9961

>  <SCORE.INTER.CONST>
1

>  <SCORE.INTER.POLAR>
-4.89443

>  <SCORE.INTER.ROT>
0

>  <SCORE.INTER.SOLV>
20.7251

>  <SCORE.INTER.VDW>
-11.5243

>  <SCORE.INTER.norm>
-2.59961

>  <SCORE.INTRA>
-0.906638

>  <SCORE.INTRA.DIHEDRAL>
-1.92387

>  <SCORE.INTRA.DIHEDRAL.0>
3.92792

>  <SCORE.INTRA.POLAR>
-0.0409802

>  <SCORE.INTRA.POLAR.0>
-1.15089

>  <SCORE.INTRA.REPUL>
0

>  <SCORE.INTRA.REPUL.0>
0

>  <SCORE.INTRA.SOLV>
0.0144756

>  <SCORE.INTRA.SOLV.lig_0>
-33.1626

>  <SCORE.INTRA.VDW>
0.187393

>  <SCORE.INTRA.VDW.0>
0.0824476

>  <SCORE.INTRA.norm>
-0.0906638

>  <SCORE.RESTR>
0

>  <SCORE.RESTR.CAVITY>
0

>  <SCORE.RESTR.norm>
0

>  <SCORE.SYSTEM>
-19.9514

>  <SCORE.SYSTEM.CONST>
0

>  <SCORE.SYSTEM.DIHEDRAL>
4.15456

>  <SCORE.SYSTEM.POLAR>
-2.97877

>  <SCORE.SYSTEM.SOLV>
0.215982

>  <SCORE.SYSTEM.VDW>
-4.82851

>  <SCORE.SYSTEM.norm>
-1.99514

>  <SCORE.heavy>
10

>  <SCORE.norm>
-4.68541

$$$$
P151025485
 OpenBabel12072022113D
libRbt.so/2013.1/901 2013/11/27
 16 16  0  0  0  0  0  0  0  0999 V2000
    3.6006   13.7924    3.3453 C   0  0  0  0  0  0  0  0  0  0  0  0
    4.1201   15.1935    3.6729 C   0  0  1  0  0  0  0  0  0  0  0  0
    3.0266   16.2456    3.5088 C   0  0  0  0  0  0  0  0  0  0  0  0
    1.8077   15.9231    4.3767 C   0  0  2  0  0  0  0  0  0  0  0  0
    1.2944   14.4900    4.1488 C   0  0  2  0  0  0  0  0  0  0  0  0
    2.4007   13.4203    4.2254 C   0  0  2  0  0  0  0  0  0  0  0  0
    2.8826   13.2344    5.6281 N   0  3  0  0  0  0  0  0  0  0  0  0
    3.2741   14.1337    5.9782 H   0  0  0  0  0  0  0  0  0  0  0  0
    2.1563   12.9088    6.2762 H   0  0  0  0  0  0  0  0  0  0  0  0
    3.6605   12.5636    5.6623 H   0  0  0  0  0  0  0  0  0  0  0  0
    0.6969   14.4186    2.8491 O   0  0  0  0  0  0  0  0  0  0  0  0
    0.7394   16.8155    4.0604 O   0  0  0  0  0  0  0  0  0  0  0  0
    4.5445   15.1818    5.0461 O   0  0  0  0  0  0  0  0  0  0  0  0
   -0.0970   14.9972    2.8900 H   0  0  0  0  0  0  0  0  0  0  0  0
    1.0366   17.7312    4.2209 H   0  0  0  0  0  0  0  0  0  0  0  0
    4.9304   16.0697    5.2167 H   0  0  0  0  0  0  0  0  0  0  0  0
  1  2  1  0  0  0  0
  1  6  1  0  0  0  0
  2  3  1  0  0  0  0
  2 13  1  1  0  0  0
  3  4  1  0  0  0  0
  4 12  1  6  0  0  0
  4  5  1  0  0  0  0
  5 11  1  6  0  0  0
  5  6  1  0  0  0  0
  6  7  1  1  0  0  0
  7  8  1  0  0  0  0
  7  9  1  0  0  0  0
  7 10  1  0  0  0  0
 11 14  1  0  0  0  0
 12 15  1  0  0  0  0
 13 16  1  0  0  0  0
M  CHG  1   7   1
M  END
>  <CHROM.0>
-53.88482302,-87.73235402,-73.14811037,-46.56368657,-176.72186483,-59.46057604
-175.35360394,-53.24724972,-167.79604466

>  <CHROM.1>
176.19930376,-59.20291618,-65.99791364,62.41106734,2.49276462,14.89322248
4.12033846,0.52313405,0.25812172,2.99592439

>  <Name>
P151025485

>  <RI>
3.58524e+07

>  <Rbt.Current_Directory>
/home/fstefaniak/projects/zuza/docking/adenine/4XNR

>  <Rbt.Executable>
rbdock ($Id: //depot/dev/client3/rdock/2013.1/src/exe/rbdock.cxx#4 $)

>  <Rbt.Library>
libRbt.so (2013.1, Build901 2013/11/27)

>  <Rbt.Parameter_File>
/home/fstefaniak/progs/rDock//data/scripts/dock_solv.prm

>  <Rbt.Receptor>
4xnr.prm

>  <SCORE>
-46.6692

>  <SCORE.INTER>
-27.6229

>  <SCORE.INTER.CONST>
1

>  <SCORE.INTER.POLAR>
-4.53966

>  <SCORE.INTER.ROT>
0

>  <SCORE.INTER.SOLV>
17.2931

>  <SCORE.INTER.VDW>
-12.6474

>  <SCORE.INTER.norm>
-2.76229

>  <SCORE.INTRA>
-0.1471

>  <SCORE.INTRA.DIHEDRAL>
-3.54833

>  <SCORE.INTRA.DIHEDRAL.0>
3.92792

>  <SCORE.INTRA.POLAR>
0.570789

>  <SCORE.INTRA.POLAR.0>
-1.15089

>  <SCORE.INTRA.REPUL>
0

>  <SCORE.INTRA.REPUL.0>
0

>  <SCORE.INTRA.SOLV>
-0.0111594

>  <SCORE.INTRA.SOLV.lig_0>
-33.1626

>  <SCORE.INTRA.VDW>
-0.30804

>  <SCORE.INTRA.VDW.0>
0.0824476

>  <SCORE.INTRA.norm>
-0.01471

>  <SCORE.RESTR>
0

>  <SCORE.RESTR.CAVITY>
0

>  <SCORE.RESTR.norm>
0

>  <SCORE.SYSTEM>
-18.8992

>  <SCORE.SYSTEM.CONST>
0

>  <SCORE.SYSTEM.DIHEDRAL>
8.00693

>  <SCORE.SYSTEM.POLAR>
-3.0287

>  <SCORE.SYSTEM.SOLV>
0.0619271

>  <SCORE.SYSTEM.VDW>
-5.19341

>  <SCORE.SYSTEM.norm>
-1.88992

>  <SCORE.heavy>
10

>  <SCORE.norm>
-4.66692

$$$$
P151025485
 OpenBabel12072022113D
libRbt.so/2013.1/901 2013/11/27
 16 16  0  0  0  0  0  0  0  0999 V2000
    5.9871   19.5753    5.1059 C   0  0  0  0  0  0  0  0  0  0  0  0
    5.0661   18.3842    5.3766 C   0  0  1  0  0  0  0  0  0  0  0  0
    4.9751   17.4630    4.1630 C   0  0  0  0  0  0  0  0  0  0  0  0
    6.3585   16.9680    3.7337 C   0  0  2  0  0  0  0  0  0  0  0  0
    7.3527   18.1253    3.5299 C   0  0  2  0  0  0  0  0  0  0  0  0
    7.3957   19.1150    4.7100 C   0  0  2  0  0  0  0  0  0  0  0  0
    8.0485   18.5055    5.9087 N   0  3  0  0  0  0  0  0  0  0  0  0
    8.4310   19.2626    6.5129 H   0  0  0  0  0  0  0  0  0  0  0  0
    7.4214   17.9145    6.4665 H   0  0  0  0  0  0  0  0  0  0  0  0
    8.8588   17.9360    5.6346 H   0  0  0  0  0  0  0  0  0  0  0  0
    6.9756   18.8518    2.3545 O   0  0  0  0  0  0  0  0  0  0  0  0
    6.2579   16.2672    2.4942 O   0  0  0  0  0  0  0  0  0  0  0  0
    5.6325   17.6464    6.4724 O   0  0  0  0  0  0  0  0  0  0  0  0
    6.8000   18.1711    1.6671 H   0  0  0  0  0  0  0  0  0  0  0  0
    5.7710   15.4344    2.6424 H   0  0  0  0  0  0  0  0  0  0  0  0
    5.0156   16.9002    6.6427 H   0  0  0  0  0  0  0  0  0  0  0  0
  1  2  1  0  0  0  0
  1  6  1  0  0  0  0
  2  3  1  0  0  0  0
  2 13  1  1  0  0  0
  3  4  1  0  0  0  0
  4 12  1  6  0  0  0
  4  5  1  0  0  0  0
  5 11  1  6  0  0  0
  5  6  1  0  0  0  0
  6  7  1  1  0  0  0
  7  8  1  0  0  0  0
  7  9  1  0  0  0  0
  7 10  1  0  0  0  0
 11 14  1  0  0  0  0
 12 15  1  0  0  0  0
 13 16  1  0  0  0  0
M  CHG  1   7   1
M  END
>  <CHROM.0>
-57.45100836,58.95452477,-66.87401022,-45.00015008,-60.02487502,-60.54068266
-66.30189778,-179.13653616,-167.48847197

>  <CHROM.1>
178.69915806,-68.48986867,-46.37140239,-81.35284449,6.42266481,18.04861581
4.38371345,-1.60699985,-0.66877634,-1.94387177

>  <Name>
P151025485

>  <RI>
3.58524e+07

>  <Rbt.Current_Directory>
/home/fstefaniak/projects/zuza/docking/adenine/4XNR

>  <Rbt.Executable>
rbdock ($Id: //depot/dev/client3/rdock/2013.1/src/exe/rbdock.cxx#4 $)

>  <Rbt.Library>
libRbt.so (2013.1, Build901 2013/11/27)

>  <Rbt.Parameter_File>
/home/fstefaniak/progs/rDock//data/scripts/dock_solv.prm

>  <Rbt.Receptor>
4xnr.prm

>  <SCORE>
-46.5004

>  <SCORE.INTER>
-25.8817

>  <SCORE.INTER.CONST>
1

>  <SCORE.INTER.POLAR>
-5.04851

>  <SCORE.INTER.ROT>
0

>  <SCORE.INTER.SOLV>
20.9224

>  <SCORE.INTER.VDW>
-11.0002

>  <SCORE.INTER.norm>
-2.58817

>  <SCORE.INTRA>
-0.696689

>  <SCORE.INTRA.DIHEDRAL>
-1.79249

>  <SCORE.INTRA.DIHEDRAL.0>
3.92792

>  <SCORE.INTRA.POLAR>
0.104899

>  <SCORE.INTRA.POLAR.0>
-1.15089

>  <SCORE.INTRA.REPUL>
0

>  <SCORE.INTRA.REPUL.0>
0

>  <SCORE.INTRA.SOLV>
-0.18172

>  <SCORE.INTRA.SOLV.lig_0>
-33.1626

>  <SCORE.INTRA.VDW>
-0.0662407

>  <SCORE.INTRA.VDW.0>
0.0824476

>  <SCORE.INTRA.norm>
-0.0696689

>  <SCORE.RESTR>
0

>  <SCORE.RESTR.CAVITY>
0

>  <SCORE.RESTR.norm>
0

>  <SCORE.SYSTEM>
-19.922

>  <SCORE.SYSTEM.CONST>
0

>  <SCORE.SYSTEM.DIHEDRAL>
4.2836

>  <SCORE.SYSTEM.POLAR>
-3.02323

>  <SCORE.SYSTEM.SOLV>
0.238924

>  <SCORE.SYSTEM.VDW>
-4.71142

>  <SCORE.SYSTEM.norm>
-1.9922

>  <SCORE.heavy>
10

>  <SCORE.norm>
-4.65004

$$$$
P151028160
 OpenBabel12072022113D
libRbt.so/2013.1/901 2013/11/27
 13 13  0  0  0  0  0  0  0  0999 V2000
    3.7051   16.8477    4.1854 H   0  0  0  0  0  0  0  0  0  0  0  0
    4.4178   17.3118    4.7550 N   0  0  0  0  0  0  0  0  0  0  0  0
    5.3859   17.7493    4.0311 C   0  0  0  0  0  0  0  0  0  0  0  0
    5.4935   17.6163    2.5490 C   0  0  0  0  0  0  0  0  0  0  0  0
    6.7958   18.3055    2.2988 C   0  0  0  0  0  0  0  0  0  0  0  0
    7.3788   18.7590    3.3654 N   0  0  0  0  0  0  0  0  0  0  0  0
    6.5368   18.4367    4.4437 N   0  0  0  0  0  0  0  0  0  0  0  0
    6.9052   18.8089    5.7462 C   0  0  0  0  0  0  0  0  0  0  0  0
    6.3155   18.5572    6.7905 O   0  0  0  0  0  0  0  0  0  0  0  0
    8.0717   19.5319    5.7893 N   0  0  0  0  0  0  0  0  0  0  0  0
    7.3539   18.4475    0.9255 C   0  0  0  0  0  0  0  0  0  0  0  0
    8.5059   19.6221    6.6982 H   0  0  0  0  0  0  0  0  0  0  0  0
    8.1844   20.2584    5.0987 H   0  0  0  0  0  0  0  0  0  0  0  0
  1  2  1  0  0  0  0
  2  3  2  0  0  0  0
  3  4  1  0  0  0  0
  3  7  1  0  0  0  0
  4  5  1  0  0  0  0
  5  6  2  0  0  0  0
  5 11  1  0  0  0  0
  6  7  1  0  0  0  0
  7  8  1  0  0  0  0
  8  9  2  0  0  0  0
  8 10  1  0  0  0  0
 10 12  1  0  0  0  0
 10 13  1  0  0  0  0
M  END
>  <CHROM.0>
-55.48478458,173.46495755,-68.12728652,-49.52552732,-56.70204153,-63.57766416
-67.07843280,-58.96902239,-168.17229166

>  <CHROM.1>
-164.92897375,6.48133762,18.37069175,4.11389063,1.58827495,-0.51550590,-1.69710543

>  <Name>
P151028160

>  <RI>
3.02409e+07

>  <Rbt.Current_Directory>
/home/fstefaniak/projects/zuza/docking/adenine/4XNR

>  <Rbt.Executable>
rbdock ($Id: //depot/dev/client3/rdock/2013.1/src/exe/rbdock.cxx#4 $)

>  <Rbt.Library>
libRbt.so (2013.1, Build901 2013/11/27)

>  <Rbt.Parameter_File>
/home/fstefaniak/progs/rDock//data/scripts/dock_solv.prm

>  <Rbt.Receptor>
4xnr.prm

>  <SCORE>
-52.446

>  <SCORE.INTER>
-32.3211

>  <SCORE.INTER.CONST>
1

>  <SCORE.INTER.POLAR>
-4.34501

>  <SCORE.INTER.ROT>
1

>  <SCORE.INTER.SOLV>
12.3106

>  <SCORE.INTER.VDW>
-15.4342

>  <SCORE.INTER.norm>
-3.23211

>  <SCORE.INTRA>
0.342219

>  <SCORE.INTRA.DIHEDRAL>
0.00205014

>  <SCORE.INTRA.DIHEDRAL.0>
0.478022

>  <SCORE.INTRA.POLAR>
0.116207

>  <SCORE.INTRA.POLAR.0>
-0.116207

>  <SCORE.INTRA.REPUL>
0

>  <SCORE.INTRA.REPUL.0>
0

>  <SCORE.INTRA.SOLV>
-0.0298949

>  <SCORE.INTRA.SOLV.lig_0>
-14.5875

>  <SCORE.INTRA.VDW>
-0.0389622

>  <SCORE.INTRA.VDW.0>
-0.11601

>  <SCORE.INTRA.norm>
0.0342219

>  <SCORE.RESTR>
0

>  <SCORE.RESTR.CAVITY>
0

>  <SCORE.RESTR.norm>
0

>  <SCORE.SYSTEM>
-20.4671

>  <SCORE.SYSTEM.CONST>
0

>  <SCORE.SYSTEM.DIHEDRAL>
4.20012

>  <SCORE.SYSTEM.POLAR>
-2.97157

>  <SCORE.SYSTEM.SOLV>
0.273075

>  <SCORE.SYSTEM.VDW>
-5.2306

>  <SCORE.SYSTEM.norm>
-2.04671

>  <SCORE.heavy>
10

>  <SCORE.norm>
-5.2446

$$$$
P151028160
 OpenBabel12072022113D
libRbt.so/2013.1/901 2013/11/27
 13 13  0  0  0  0  0  0  0  0999 V2000
    3.7144   16.8102    4.2022 H   0  0  0  0  0  0  0  0  0  0  0  0
    4.4276   17.2773    4.7687 N   0  0  0  0  0  0  0  0  0  0  0  0
    5.3880   17.7236    4.0400 C   0  0  0  0  0  0  0  0  0  0  0  0
    5.4869   17.5960    2.5568 C   0  0  0  0  0  0  0  0  0  0  0  0
    6.7829   18.2948    2.3004 C   0  0  0  0  0  0  0  0  0  0  0  0
    7.3698   18.7488    3.3647 N   0  0  0  0  0  0  0  0  0  0  0  0
    6.5370   18.4173    4.4474 N   0  0  0  0  0  0  0  0  0  0  0  0
    6.9113   18.7877    5.7487 C   0  0  0  0  0  0  0  0  0  0  0  0
    6.3301   18.5288    6.7959 O   0  0  0  0  0  0  0  0  0  0  0  0
    8.0732   19.5184    5.7867 N   0  0  0  0  0  0  0  0  0  0  0  0
    7.3312   18.4450    0.9240 C   0  0  0  0  0  0  0  0  0  0  0  0
    8.5197   19.5976    6.6906 H   0  0  0  0  0  0  0  0  0  0  0  0
    8.1710   20.2564    5.1060 H   0  0  0  0  0  0  0  0  0  0  0  0
  1  2  1  0  0  0  0
  2  3  2  0  0  0  0
  3  4  1  0  0  0  0
  3  7  1  0  0  0  0
  4  5  1  0  0  0  0
  5  6  2  0  0  0  0
  5 11  1  0  0  0  0
  6  7  1  0  0  0  0
  7  8  1  0  0  0  0
  8  9  2  0  0  0  0
  8 10  1  0  0  0  0
 10 12  1  0  0  0  0
 10 13  1  0  0  0  0
M  END
>  <CHROM.0>
-58.07794258,175.04019556,-66.65200055,-47.86353603,-57.61969260,-64.79617482
-68.30716181,-174.47905291,-167.99323448

>  <CHROM.1>
-164.09213192,6.47981688,18.35198954,4.11777713,1.59482289,-0.52290212,-1.69059250

>  <Name>
P151028160

>  <RI>
3.02409e+07

>  <Rbt.Current_Directory>
/home/fstefaniak/projects/zuza/docking/adenine/4XNR

>  <Rbt.Executable>
rbdock ($Id: //depot/dev/client3/rdock/2013.1/src/exe/rbdock.cxx#4 $)

>  <Rbt.Library>
libRbt.so (2013.1, Build901 2013/11/27)

>  <Rbt.Parameter_File>
/home/fstefaniak/progs/rDock//data/scripts/dock_solv.prm

>  <Rbt.Receptor>
4xnr.prm

>  <SCORE>
-52.3668

>  <SCORE.INTER>
-32.2063

>  <SCORE.INTER.CONST>
1

>  <SCORE.INTER.POLAR>
-4.30554

>  <SCORE.INTER.ROT>
1

>  <SCORE.INTER.SOLV>
12.2839

>  <SCORE.INTER.VDW>
-15.4804

>  <SCORE.INTER.norm>
-3.22063

>  <SCORE.INTRA>
0.340937

>  <SCORE.INTRA.DIHEDRAL>
0.00196186

>  <SCORE.INTRA.DIHEDRAL.0>
0.478022

>  <SCORE.INTRA.POLAR>
0.116207

>  <SCORE.INTRA.POLAR.0>
-0.116207

>  <SCORE.INTRA.REPUL>
0

>  <SCORE.INTRA.REPUL.0>
0

>  <SCORE.INTRA.SOLV>
-0.0310116

>  <SCORE.INTRA.SOLV.lig_0>
-14.5875

>  <SCORE.INTRA.VDW>
-0.0396407

>  <SCORE.INTRA.VDW.0>
-0.11601

>  <SCORE.INTRA.norm>
0.0340937

>  <SCORE.RESTR>
0

>  <SCORE.RESTR.CAVITY>
0

>  <SCORE.RESTR.norm>
0

>  <SCORE.SYSTEM>
-20.5014

>  <SCORE.SYSTEM.CONST>
0

>  <SCORE.SYSTEM.DIHEDRAL>
4.36816

>  <SCORE.SYSTEM.POLAR>
-2.97623

>  <SCORE.SYSTEM.SOLV>
0.129087

>  <SCORE.SYSTEM.VDW>
-5.24595

>  <SCORE.SYSTEM.norm>
-2.05014

>  <SCORE.heavy>
10

>  <SCORE.norm>
-5.23668

$$$$
P151028160
 OpenBabel12072022113D
libRbt.so/2013.1/901 2013/11/27
 13 13  0  0  0  0  0  0  0  0999 V2000
    3.7742   16.7434    4.2100 H   0  0  0  0  0  0  0  0  0  0  0  0
    4.4763   17.2258    4.7773 N   0  0  0  0  0  0  0  0  0  0  0  0
    5.4314   17.6868    4.0508 C   0  0  0  0  0  0  0  0  0  0  0  0
    5.5387   17.5550    2.5685 C   0  0  0  0  0  0  0  0  0  0  0  0
    6.8227   18.2765    2.3144 C   0  0  0  0  0  0  0  0  0  0  0  0
    7.3967   18.7456    3.3792 N   0  0  0  0  0  0  0  0  0  0  0  0
    6.5657   18.4033    4.4598 N   0  0  0  0  0  0  0  0  0  0  0  0
    6.9277   18.7859    5.7611 C   0  0  0  0  0  0  0  0  0  0  0  0
    6.3470   18.5206    6.8071 O   0  0  0  0  0  0  0  0  0  0  0  0
    8.0758   19.5381    5.8007 N   0  0  0  0  0  0  0  0  0  0  0  0
    7.3737   18.4311    0.9396 C   0  0  0  0  0  0  0  0  0  0  0  0
    8.5007   19.6537    6.7110 H   0  0  0  0  0  0  0  0  0  0  0  0
    8.1759   20.2558    5.0990 H   0  0  0  0  0  0  0  0  0  0  0  0
  1  2  1  0  0  0  0
  2  3  2  0  0  0  0
  3  4  1  0  0  0  0
  3  7  1  0  0  0  0
  4  5  1  0  0  0  0
  5  6  2  0  0  0  0
  5 11  1  0  0  0  0
  6  7  1  0  0  0  0
  7  8  1  0  0  0  0
  8  9  2  0  0  0  0
  8 10  1  0  0  0  0
 10 12  1  0  0  0  0
 10 13  1  0  0  0  0
M  END
>  <CHROM.0>
-59.59199308,175.88722807,-66.98601113,-47.53351454,-61.11176569,-64.55186598
-67.26322617,-62.28452775,-168.38583662

>  <CHROM.1>
-165.97355495,6.51103978,18.33561301,4.13018614,1.58728176,-0.54078064,-1.69856575

>  <Name>
P151028160

>  <RI>
3.02409e+07

>  <Rbt.Current_Directory>
/home/fstefaniak/projects/zuza/docking/adenine/4XNR

>  <Rbt.Executable>
rbdock ($Id: //depot/dev/client3/rdock/2013.1/src/exe/rbdock.cxx#4 $)

>  <Rbt.Library>
libRbt.so (2013.1, Build901 2013/11/27)

>  <Rbt.Parameter_File>
/home/fstefaniak/progs/rDock//data/scripts/dock_solv.prm

>  <Rbt.Receptor>
4xnr.prm

>  <SCORE>
-52.3203

>  <SCORE.INTER>
-32.0679

>  <SCORE.INTER.CONST>
1

>  <SCORE.INTER.POLAR>
-4.33918

>  <SCORE.INTER.ROT>
1

>  <SCORE.INTER.SOLV>
12.301

>  <SCORE.INTER.VDW>
-15.2816

>  <SCORE.INTER.norm>
-3.20679

>  <SCORE.INTRA>
0.343858

>  <SCORE.INTRA.DIHEDRAL>
0.00216012

>  <SCORE.INTRA.DIHEDRAL.0>
0.478022

>  <SCORE.INTRA.POLAR>
0.116207

>  <SCORE.INTRA.POLAR.0>
-0.116207

>  <SCORE.INTRA.REPUL>
0

>  <SCORE.INTRA.REPUL.0>
0

>  <SCORE.INTRA.SOLV>
-0.0285182

>  <SCORE.INTRA.SOLV.lig_0>
-14.5875

>  <SCORE.INTRA.VDW>
-0.0380663

>  <SCORE.INTRA.VDW.0>
-0.11601

>  <SCORE.INTRA.norm>
0.0343858

>  <SCORE.RESTR>
0

>  <SCORE.RESTR.CAVITY>
0

>  <SCORE.RESTR.norm>
0

>  <SCORE.SYSTEM>
-20.5963

>  <SCORE.SYSTEM.CONST>
0

>  <SCORE.SYSTEM.DIHEDRAL>
4.11682

>  <SCORE.SYSTEM.POLAR>
-2.96238

>  <SCORE.SYSTEM.SOLV>
0.256849

>  <SCORE.SYSTEM.VDW>
-5.31418

>  <SCORE.SYSTEM.norm>
-2.05963

>  <SCORE.heavy>
10

>  <SCORE.norm>
-5.23203

$$$$
P151032104
 OpenBabel12072022113D
libRbt.so/2013.1/901 2013/11/27
 13 13  0  0  0  0  0  0  0  0999 V2000
    3.5170   13.8972    3.9351 C   0  0  0  0  0  0  0  0  0  0  0  0
    3.6868   15.2169    3.4350 O   0  0  0  0  0  0  0  0  0  0  0  0
    4.7323   15.9106    4.1226 C   0  0  0  0  0  0  0  0  0  0  0  0
    4.7564   17.4223    3.7823 C   0  0  2  0  0  0  0  0  0  0  0  0
    5.2956   17.6752    2.3717 C   0  0  0  0  0  0  0  0  0  0  0  0
    6.7853   17.9710    2.5551 C   0  0  2  0  0  0  0  0  0  0  0  0
    6.9992   18.1201    4.0648 C   0  0  0  0  0  0  0  0  0  0  0  0
    5.6345   18.3065    4.5815 N   0  0  0  0  0  0  0  0  0  0  0  0
    5.5395   18.0579    5.9927 N   0  0  0  0  0  0  0  0  0  0  0  0
    7.1220   19.1744    1.8633 O   0  0  0  0  0  0  0  0  0  0  0  0
    5.3426   18.9256    6.4980 H   0  0  0  0  0  0  0  0  0  0  0  0
    6.4164   17.7009    6.3822 H   0  0  0  0  0  0  0  0  0  0  0  0
    6.9517   19.0083    0.9181 H   0  0  0  0  0  0  0  0  0  0  0  0
  1  2  1  0  0  0  0
  2  3  1  0  0  0  0
  4  5  1  0  0  0  0
  4  8  1  0  0  0  0
  4  3  1  1  0  0  0
  5  6  1  0  0  0  0
  6  7  1  0  0  0  0
  6 10  1  6  0  0  0
  7  8  1  0  0  0  0
  8  9  1  0  0  0  0
  9 11  1  0  0  0  0
  9 12  1  0  0  0  0
 10 13  1  0  0  0  0
M  END
>  <CHROM.0>
-58.70919194,-168.93442839,-66.68487680,-47.51545949,-58.91117499,-175.15173732
-68.43167051,-58.58013805,-167.51048921

>  <CHROM.1>
-169.21740690,-73.44783129,-62.68243337,-127.27543402,5.40587207,17.17403697
3.67036655,3.12652479,0.92963237,1.35434105

>  <Name>
P151032104

>  <RI>
3.4169e+07

>  <Rbt.Current_Directory>
/home/fstefaniak/projects/zuza/docking/adenine/4XNR

>  <Rbt.Executable>
rbdock ($Id: //depot/dev/client3/rdock/2013.1/src/exe/rbdock.cxx#4 $)

>  <Rbt.Library>
libRbt.so (2013.1, Build901 2013/11/27)

>  <Rbt.Parameter_File>
/home/fstefaniak/progs/rDock//data/scripts/dock_solv.prm

>  <Rbt.Receptor>
4xnr.prm

>  <SCORE>
-44.2398

>  <SCORE.INTER>
-24.6616

>  <SCORE.INTER.CONST>
1

>  <SCORE.INTER.POLAR>
-2.76046

>  <SCORE.INTER.ROT>
3

>  <SCORE.INTER.SOLV>
13.1938

>  <SCORE.INTER.VDW>
-17.2375

>  <SCORE.INTER.norm>
-2.46616

>  <SCORE.INTRA>
0.770475

>  <SCORE.INTRA.DIHEDRAL>
2.19811

>  <SCORE.INTRA.DIHEDRAL.0>
0.650667

>  <SCORE.INTRA.POLAR>
0

>  <SCORE.INTRA.POLAR.0>
0

>  <SCORE.INTRA.REPUL>
0

>  <SCORE.INTRA.REPUL.0>
0

>  <SCORE.INTRA.SOLV>
-0.77714

>  <SCORE.INTRA.SOLV.lig_0>
-14.7545

>  <SCORE.INTRA.VDW>
0.0599901

>  <SCORE.INTRA.VDW.0>
-0.103612

>  <SCORE.INTRA.norm>
0.0770475

>  <SCORE.RESTR>
0

>  <SCORE.RESTR.CAVITY>
0

>  <SCORE.RESTR.norm>
0

>  <SCORE.SYSTEM>
-20.3487

>  <SCORE.SYSTEM.CONST>
0

>  <SCORE.SYSTEM.DIHEDRAL>
4.76906

>  <SCORE.SYSTEM.POLAR>
-2.97634

>  <SCORE.SYSTEM.SOLV>
0.141788

>  <SCORE.SYSTEM.VDW>
-5.28162

>  <SCORE.SYSTEM.norm>
-2.03487

>  <SCORE.heavy>
10

>  <SCORE.norm>
-4.42398

$$$$
P151032104
 OpenBabel12072022113D
libRbt.so/2013.1/901 2013/11/27
 13 13  0  0  0  0  0  0  0  0999 V2000
    7.0609   19.0918    5.3558 C   0  0  0  0  0  0  0  0  0  0  0  0
    7.2868   19.0410    3.9532 O   0  0  0  0  0  0  0  0  0  0  0  0
    6.7092   17.8699    3.3684 C   0  0  0  0  0  0  0  0  0  0  0  0
    5.1605   17.9228    3.3559 C   0  0  2  0  0  0  0  0  0  0  0  0
    4.5618   17.2307    4.5836 C   0  0  0  0  0  0  0  0  0  0  0  0
    4.2452   15.8045    4.1296 C   0  0  2  0  0  0  0  0  0  0  0  0
    4.4400   15.7965    2.6100 C   0  0  0  0  0  0  0  0  0  0  0  0
    4.4444   17.2262    2.2635 N   0  0  0  0  0  0  0  0  0  0  0  0
    5.0176   17.4795    0.9714 N   0  0  0  0  0  0  0  0  0  0  0  0
    2.8994   15.4793    4.4807 O   0  0  0  0  0  0  0  0  0  0  0  0
    5.2970   18.4603    0.8881 H   0  0  0  0  0  0  0  0  0  0  0  0
    4.3499   17.3141    0.2132 H   0  0  0  0  0  0  0  0  0  0  0  0
    2.3257   16.0664    3.9552 H   0  0  0  0  0  0  0  0  0  0  0  0
  1  2  1  0  0  0  0
  2  3  1  0  0  0  0
  4  5  1  0  0  0  0
  4  8  1  0  0  0  0
  4  3  1  6  0  0  0
  5  6  1  0  0  0  0
  6  7  1  0  0  0  0
  6 10  1  6  0  0  0
  7  8  1  0  0  0  0
  8  9  1  0  0  0  0
  9 11  1  0  0  0  0
  9 12  1  0  0  0  0
 10 13  1  0  0  0  0
M  END
>  <CHROM.0>
-54.35231031,55.89992981,-64.90418885,-48.67970501,-175.93887579,-63.01253670
-67.87780179,-58.26797621,-167.57143545

>  <CHROM.1>
70.18732677,-94.02379639,65.47461597,-40.17500999,5.17520014,17.31131261
3.49871622,0.16569371,0.72456655,1.60806356

>  <Name>
P151032104

>  <RI>
3.4169e+07

>  <Rbt.Current_Directory>
/home/fstefaniak/projects/zuza/docking/adenine/4XNR

>  <Rbt.Executable>
rbdock ($Id: //depot/dev/client3/rdock/2013.1/src/exe/rbdock.cxx#4 $)

>  <Rbt.Library>
libRbt.so (2013.1, Build901 2013/11/27)

>  <Rbt.Parameter_File>
/home/fstefaniak/progs/rDock//data/scripts/dock_solv.prm

>  <Rbt.Receptor>
4xnr.prm

>  <SCORE>
-44.0243

>  <SCORE.INTER>
-26.807

>  <SCORE.INTER.CONST>
1

>  <SCORE.INTER.POLAR>
-4.9412

>  <SCORE.INTER.ROT>
3

>  <SCORE.INTER.SOLV>
12.7277

>  <SCORE.INTER.VDW>
-11.2432

>  <SCORE.INTER.norm>
-2.6807

>  <SCORE.INTRA>
2.86521

>  <SCORE.INTRA.DIHEDRAL>
3.65961

>  <SCORE.INTRA.DIHEDRAL.0>
0.650667

>  <SCORE.INTRA.POLAR>
0

>  <SCORE.INTRA.POLAR.0>
0

>  <SCORE.INTRA.REPUL>
0

>  <SCORE.INTRA.REPUL.0>
0

>  <SCORE.INTRA.SOLV>
-0.629341

>  <SCORE.INTRA.SOLV.lig_0>
-14.7545

>  <SCORE.INTRA.VDW>
1.35008

>  <SCORE.INTRA.VDW.0>
-0.103612

>  <SCORE.INTRA.norm>
0.286521

>  <SCORE.RESTR>
0

>  <SCORE.RESTR.CAVITY>
0

>  <SCORE.RESTR.norm>
0

>  <SCORE.SYSTEM>
-20.0825

>  <SCORE.SYSTEM.CONST>
0

>  <SCORE.SYSTEM.DIHEDRAL>
4.15701

>  <SCORE.SYSTEM.POLAR>
-3.00272

>  <SCORE.SYSTEM.SOLV>
0.206665

>  <SCORE.SYSTEM.VDW>
-4.8338

>  <SCORE.SYSTEM.norm>
-2.00825

>  <SCORE.heavy>
10

>  <SCORE.norm>
-4.40243

$$$$
P151032104
 OpenBabel12072022113D
libRbt.so/2013.1/901 2013/11/27
 13 13  0  0  0  0  0  0  0  0999 V2000
    3.6028   13.8415    3.9186 C   0  0  0  0  0  0  0  0  0  0  0  0
    3.7300   15.1774    3.4497 O   0  0  0  0  0  0  0  0  0  0  0  0
    4.7582   15.8856    4.1484 C   0  0  0  0  0  0  0  0  0  0  0  0
    4.7648   17.3975    3.8084 C   0  0  2  0  0  0  0  0  0  0  0  0
    5.3082   17.6575    2.4007 C   0  0  0  0  0  0  0  0  0  0  0  0
    6.7930   17.9722    2.5921 C   0  0  2  0  0  0  0  0  0  0  0  0
    6.9969   18.1239    4.1029 C   0  0  0  0  0  0  0  0  0  0  0  0
    5.6272   18.2927    4.6123 N   0  0  0  0  0  0  0  0  0  0  0  0
    5.5279   18.0428    6.0230 N   0  0  0  0  0  0  0  0  0  0  0  0
    7.1179   19.1800    1.9021 O   0  0  0  0  0  0  0  0  0  0  0  0
    5.3415   18.9120    6.5297 H   0  0  0  0  0  0  0  0  0  0  0  0
    6.3998   17.6741    6.4126 H   0  0  0  0  0  0  0  0  0  0  0  0
    6.9384   19.0173    0.9580 H   0  0  0  0  0  0  0  0  0  0  0  0
  1  2  1  0  0  0  0
  2  3  1  0  0  0  0
  4  5  1  0  0  0  0
  4  8  1  0  0  0  0
  4  3  1  1  0  0  0
  5  6  1  0  0  0  0
  6  7  1  0  0  0  0
  6 10  1  6  0  0  0
  7  8  1  0  0  0  0
  8  9  1  0  0  0  0
  9 11  1  0  0  0  0
  9 12  1  0  0  0  0
 10 13  1  0  0  0  0
M  END
>  <CHROM.0>
-59.05786713,-166.42950417,-73.66926275,-45.90602843,-176.70641397,-64.64222814
-172.67834670,-61.21880132,-167.84205768

>  <CHROM.1>
-171.12206227,-73.12894713,-61.61327084,-128.75616289,5.42185776,17.15577976
3.69561073,-3.13381960,0.94432205,1.33946556

>  <Name>
P151032104

>  <RI>
3.4169e+07

>  <Rbt.Current_Directory>
/home/fstefaniak/projects/zuza/docking/adenine/4XNR

>  <Rbt.Executable>
rbdock ($Id: //depot/dev/client3/rdock/2013.1/src/exe/rbdock.cxx#4 $)

>  <Rbt.Library>
libRbt.so (2013.1, Build901 2013/11/27)

>  <Rbt.Parameter_File>
/home/fstefaniak/progs/rDock//data/scripts/dock_solv.prm

>  <Rbt.Receptor>
4xnr.prm

>  <SCORE>
-43.9409

>  <SCORE.INTER>
-24.6218

>  <SCORE.INTER.CONST>
1

>  <SCORE.INTER.POLAR>
-2.77762

>  <SCORE.INTER.ROT>
3

>  <SCORE.INTER.SOLV>
13.2678

>  <SCORE.INTER.VDW>
-17.1784

>  <SCORE.INTER.norm>
-2.46218

>  <SCORE.INTRA>
0.654557

>  <SCORE.INTRA.DIHEDRAL>
1.94779

>  <SCORE.INTRA.DIHEDRAL.0>
0.650667

>  <SCORE.INTRA.POLAR>
0

>  <SCORE.INTRA.POLAR.0>
0

>  <SCORE.INTRA.REPUL>
0

>  <SCORE.INTRA.REPUL.0>
0

>  <SCORE.INTRA.SOLV>
-0.77716

>  <SCORE.INTRA.SOLV.lig_0>
-14.7545

>  <SCORE.INTRA.VDW>
0.0692443

>  <SCORE.INTRA.VDW.0>
-0.103612

>  <SCORE.INTRA.norm>
0.0654557

>  <SCORE.RESTR>
0

>  <SCORE.RESTR.CAVITY>
0

>  <SCORE.RESTR.norm>
0

>  <SCORE.SYSTEM>
-19.9736

>  <SCORE.SYSTEM.CONST>
0

>  <SCORE.SYSTEM.DIHEDRAL>
5.76766

>  <SCORE.SYSTEM.POLAR>
-2.97493

>  <SCORE.SYSTEM.SOLV>
0.0172472

>  <SCORE.SYSTEM.VDW>
-5.32763

>  <SCORE.SYSTEM.norm>
-1.99736

>  <SCORE.heavy>
10

>  <SCORE.norm>
-4.39409

$$$$
P151032491
 OpenBabel12072022113D
libRbt.so/2013.1/901 2013/11/27
 14 14  0  0  0  0  0  0  0  0999 V2000
    1.4982   19.4450   -0.8177 H   0  0  0  0  0  0  0  0  0  0  0  0
    2.4882   19.1879   -0.8038 N   0  0  0  0  0  0  0  0  0  0  0  0
    2.7592   18.6986    0.3581 C   0  0  0  0  0  0  0  0  0  0  0  0
    1.8210   18.5530    1.3180 N   0  0  0  0  0  0  0  0  0  0  0  0
    4.0190   18.3187    0.6805 N   0  0  0  0  0  0  0  0  0  0  0  0
    4.5600   17.6395    1.7259 C   0  0  0  0  0  0  0  0  0  0  0  0
    3.8718   17.1446    2.7284 N   0  0  0  0  0  0  0  0  0  0  0  0
    4.8896   16.4686    3.5755 C   0  0  0  0  0  0  0  0  0  0  0  0
    6.2535   16.9457    3.0783 C   0  0  0  0  0  0  0  0  0  0  0  0
    5.9214   17.4576    1.7589 N   0  0  0  0  0  0  0  0  0  0  0  0
    6.8873   18.3436    1.1409 C   0  0  0  0  0  0  0  0  0  0  0  0
    2.1581   18.3386    2.2451 H   0  0  0  0  0  0  0  0  0  0  0  0
    1.1528   19.3298    1.3186 H   0  0  0  0  0  0  0  0  0  0  0  0
    4.6374   18.4610   -0.1018 H   0  0  0  0  0  0  0  0  0  0  0  0
  1  2  1  0  0  0  0
  2  3  2  0  0  0  0
  3  4  1  0  0  0  0
  3  5  1  0  0  0  0
  4 12  1  0  0  0  0
  4 13  1  0  0  0  0
  5  6  1  0  0  0  0
  5 14  1  0  0  0  0
  6  7  2  0  0  0  0
  6 10  1  0  0  0  0
  7  8  1  0  0  0  0
  8  9  1  0  0  0  0
  9 10  1  0  0  0  0
 10 11  1  0  0  0  0
M  END
>  <CHROM.0>
-56.08483567,-175.96202298,-73.21753062,-47.38264279,-57.86469088,-64.19139578
-172.62962713,-175.67787012,-167.36563737

>  <CHROM.1>
-168.10787199,1.45980358,4.32867355,17.89962191,1.54251085,-2.44485432,-0.05327341
2.11741853

>  <Name>
P151032491

>  <RI>
9.71178e+06

>  <Rbt.Current_Directory>
/home/fstefaniak/projects/zuza/docking/adenine/4XNR

>  <Rbt.Executable>
rbdock ($Id: //depot/dev/client3/rdock/2013.1/src/exe/rbdock.cxx#4 $)

>  <Rbt.Library>
libRbt.so (2013.1, Build901 2013/11/27)

>  <Rbt.Parameter_File>
/home/fstefaniak/progs/rDock//data/scripts/dock_solv.prm

>  <Rbt.Receptor>
4xnr.prm

>  <SCORE>
-45.097

>  <SCORE.INTER>
-24.8371

>  <SCORE.INTER.CONST>
1

>  <SCORE.INTER.POLAR>
-3.69524

>  <SCORE.INTER.ROT>
2

>  <SCORE.INTER.SOLV>
14.7094

>  <SCORE.INTER.VDW>
-14.077

>  <SCORE.INTER.norm>
-2.48371

>  <SCORE.INTRA>
-0.153259

>  <SCORE.INTRA.DIHEDRAL>
-1.67339

>  <SCORE.INTRA.DIHEDRAL.0>
4.60484

>  <SCORE.INTRA.POLAR>
0.217152

>  <SCORE.INTRA.POLAR.0>
-0.743558

>  <SCORE.INTRA.REPUL>
0

>  <SCORE.INTRA.REPUL.0>
0

>  <SCORE.INTRA.SOLV>
-0.0222505

>  <SCORE.INTRA.SOLV.lig_0>
-16.7253

>  <SCORE.INTRA.VDW>
-0.0437584

>  <SCORE.INTRA.VDW.0>
-0.267814

>  <SCORE.INTRA.norm>
-0.0153259

>  <SCORE.RESTR>
0

>  <SCORE.RESTR.CAVITY>
0

>  <SCORE.RESTR.norm>
0

>  <SCORE.SYSTEM>
-20.1066

>  <SCORE.SYSTEM.CONST>
0

>  <SCORE.SYSTEM.DIHEDRAL>
4.91858

>  <SCORE.SYSTEM.POLAR>
-2.98171

>  <SCORE.SYSTEM.SOLV>
0.0696288

>  <SCORE.SYSTEM.VDW>
-5.12812

>  <SCORE.SYSTEM.norm>
-2.01066

>  <SCORE.heavy>
10

>  <SCORE.norm>
-4.5097

$$$$
P151032491
 OpenBabel12072022113D
libRbt.so/2013.1/901 2013/11/27
 14 14  0  0  0  0  0  0  0  0999 V2000
    8.7731   19.7169    6.8873 H   0  0  0  0  0  0  0  0  0  0  0  0
    8.6510   19.5618    5.8836 N   0  0  0  0  0  0  0  0  0  0  0  0
    7.5440   18.9239    5.7082 C   0  0  0  0  0  0  0  0  0  0  0  0
    6.7300   18.5931    6.7333 N   0  0  0  0  0  0  0  0  0  0  0  0
    7.1492   18.5350    4.4720 N   0  0  0  0  0  0  0  0  0  0  0  0
    5.9979   18.0157    3.9704 C   0  0  0  0  0  0  0  0  0  0  0  0
    5.0465   17.4756    4.6961 N   0  0  0  0  0  0  0  0  0  0  0  0
    3.9980   17.1029    3.7100 C   0  0  0  0  0  0  0  0  0  0  0  0
    4.6447   17.2067    2.3294 C   0  0  0  0  0  0  0  0  0  0  0  0
    5.8029   18.0390    2.6105 N   0  0  0  0  0  0  0  0  0  0  0  0
    6.8649   18.0333    1.6247 C   0  0  0  0  0  0  0  0  0  0  0  0
    5.7387   18.6159    6.5434 H   0  0  0  0  0  0  0  0  0  0  0  0
    7.0187   17.7184    7.1820 H   0  0  0  0  0  0  0  0  0  0  0  0
    7.8187   18.8346    3.7815 H   0  0  0  0  0  0  0  0  0  0  0  0
  1  2  1  0  0  0  0
  2  3  2  0  0  0  0
  3  4  1  0  0  0  0
  3  5  1  0  0  0  0
  4 12  1  0  0  0  0
  4 13  1  0  0  0  0
  5  6  1  0  0  0  0
  5 14  1  0  0  0  0
  6  7  2  0  0  0  0
  6 10  1  0  0  0  0
  7  8  1  0  0  0  0
  8  9  1  0  0  0  0
  9 10  1  0  0  0  0
 10 11  1  0  0  0  0
M  END
>  <CHROM.0>
-59.25724690,-178.77314442,-67.08991953,-47.32061363,-59.57784866,-63.83037474
-64.44575983,-56.04046064,-168.61707103

>  <CHROM.1>
144.95816956,-16.73083517,6.26322379,18.15487208,4.19106872,-0.88084332,-0.44545898
-1.66244612

>  <Name>
P151032491

>  <RI>
9.71178e+06

>  <Rbt.Current_Directory>
/home/fstefaniak/projects/zuza/docking/adenine/4XNR

>  <Rbt.Executable>
rbdock ($Id: //depot/dev/client3/rdock/2013.1/src/exe/rbdock.cxx#4 $)

>  <Rbt.Library>
libRbt.so (2013.1, Build901 2013/11/27)

>  <Rbt.Parameter_File>
/home/fstefaniak/progs/rDock//data/scripts/dock_solv.prm

>  <Rbt.Receptor>
4xnr.prm

>  <SCORE>
-45.0399

>  <SCORE.INTER>
-26.2912

>  <SCORE.INTER.CONST>
1

>  <SCORE.INTER.POLAR>
-3.85819

>  <SCORE.INTER.ROT>
2

>  <SCORE.INTER.SOLV>
12.7246

>  <SCORE.INTER.VDW>
-13.8417

>  <SCORE.INTER.norm>
-2.62912

>  <SCORE.INTRA>
1.88829

>  <SCORE.INTRA.DIHEDRAL>
0.138541

>  <SCORE.INTRA.DIHEDRAL.0>
4.60484

>  <SCORE.INTRA.POLAR>
0.494428

>  <SCORE.INTRA.POLAR.0>
-0.743558

>  <SCORE.INTRA.REPUL>
0

>  <SCORE.INTRA.REPUL.0>
0

>  <SCORE.INTRA.SOLV>
0.023455

>  <SCORE.INTRA.SOLV.lig_0>
-16.7253

>  <SCORE.INTRA.VDW>
0.126242

>  <SCORE.INTRA.VDW.0>
-0.267814

>  <SCORE.INTRA.norm>
0.188829

>  <SCORE.RESTR>
0

>  <SCORE.RESTR.CAVITY>
0

>  <SCORE.RESTR.norm>
0

>  <SCORE.SYSTEM>
-20.637

>  <SCORE.SYSTEM.CONST>
0

>  <SCORE.SYSTEM.DIHEDRAL>
3.91878

>  <SCORE.SYSTEM.POLAR>
-2.96927

>  <SCORE.SYSTEM.SOLV>
0.27124

>  <SCORE.SYSTEM.VDW>
-5.25708

>  <SCORE.SYSTEM.norm>
-2.0637

>  <SCORE.heavy>
10

>  <SCORE.norm>
-4.50399

$$$$
P151032491
 OpenBabel12072022113D
libRbt.so/2013.1/901 2013/11/27
 14 14  0  0  0  0  0  0  0  0999 V2000
    1.4993   19.4469   -0.8268 H   0  0  0  0  0  0  0  0  0  0  0  0
    2.4904   19.1941   -0.8073 N   0  0  0  0  0  0  0  0  0  0  0  0
    2.7566   18.7043    0.3555 C   0  0  0  0  0  0  0  0  0  0  0  0
    1.8133   18.5533    1.3096 N   0  0  0  0  0  0  0  0  0  0  0  0
    4.0160   18.3294    0.6848 N   0  0  0  0  0  0  0  0  0  0  0  0
    4.5538   17.6511    1.7325 C   0  0  0  0  0  0  0  0  0  0  0  0
    3.8632   17.1629    2.7366 N   0  0  0  0  0  0  0  0  0  0  0  0
    4.8778   16.4847    3.5860 C   0  0  0  0  0  0  0  0  0  0  0  0
    6.2440   16.9535    3.0871 C   0  0  0  0  0  0  0  0  0  0  0  0
    5.9143   17.4626    1.7660 N   0  0  0  0  0  0  0  0  0  0  0  0
    6.8844   18.3419    1.1450 C   0  0  0  0  0  0  0  0  0  0  0  0
    2.1458   18.3381    2.2382 H   0  0  0  0  0  0  0  0  0  0  0  0
    1.1423   19.3277    1.3079 H   0  0  0  0  0  0  0  0  0  0  0  0
    4.6385   18.4756   -0.0935 H   0  0  0  0  0  0  0  0  0  0  0  0
  1  2  1  0  0  0  0
  2  3  2  0  0  0  0
  3  4  1  0  0  0  0
  3  5  1  0  0  0  0
  4 12  1  0  0  0  0
  4 13  1  0  0  0  0
  5  6  1  0  0  0  0
  5 14  1  0  0  0  0
  6  7  2  0  0  0  0
  6 10  1  0  0  0  0
  7  8  1  0  0  0  0
  8  9  1  0  0  0  0
  9 10  1  0  0  0  0
 10 11  1  0  0  0  0
M  END
>  <CHROM.0>
-57.65181905,-63.93952695,-67.88419429,-48.04792353,58.06402392,-60.74043360
-67.22470766,-61.32522170,-168.12058120

>  <CHROM.1>
-168.16655352,0.77410439,4.32294659,17.90741753,1.54586337,-2.44293664,-0.05347153
2.11394168

>  <Name>
P151032491

>  <RI>
9.71178e+06

>  <Rbt.Current_Directory>
/home/fstefaniak/projects/zuza/docking/adenine/4XNR

>  <Rbt.Executable>
rbdock ($Id: //depot/dev/client3/rdock/2013.1/src/exe/rbdock.cxx#4 $)

>  <Rbt.Library>
libRbt.so (2013.1, Build901 2013/11/27)

>  <Rbt.Parameter_File>
/home/fstefaniak/progs/rDock//data/scripts/dock_solv.prm

>  <Rbt.Receptor>
4xnr.prm

>  <SCORE>
-44.822

>  <SCORE.INTER>
-24.5544

>  <SCORE.INTER.CONST>
1

>  <SCORE.INTER.POLAR>
-3.69474

>  <SCORE.INTER.ROT>
2

>  <SCORE.INTER.SOLV>
14.7279

>  <SCORE.INTER.VDW>
-13.8964

>  <SCORE.INTER.norm>
-2.45544

>  <SCORE.INTRA>
-0.290769

>  <SCORE.INTRA.DIHEDRAL>
-1.9461

>  <SCORE.INTRA.DIHEDRAL.0>
4.60484

>  <SCORE.INTRA.POLAR>
0.212325

>  <SCORE.INTRA.POLAR.0>
-0.743558

>  <SCORE.INTRA.REPUL>
0

>  <SCORE.INTRA.REPUL.0>
0

>  <SCORE.INTRA.SOLV>
-0.022274

>  <SCORE.INTRA.SOLV.lig_0>
-16.7253

>  <SCORE.INTRA.VDW>
-0.0284838

>  <SCORE.INTRA.VDW.0>
-0.267814

>  <SCORE.INTRA.norm>
-0.0290769

>  <SCORE.RESTR>
0

>  <SCORE.RESTR.CAVITY>
0

>  <SCORE.RESTR.norm>
0

>  <SCORE.SYSTEM>
-19.9769

>  <SCORE.SYSTEM.CONST>
0

>  <SCORE.SYSTEM.DIHEDRAL>
4.06586

>  <SCORE.SYSTEM.POLAR>
-2.97077

>  <SCORE.SYSTEM.SOLV>
0.0730178

>  <SCORE.SYSTEM.VDW>
-4.79497

>  <SCORE.SYSTEM.norm>
-1.99769

>  <SCORE.heavy>
10

>  <SCORE.norm>
-4.4822

$$$$
P151032568
 OpenBabel12072022113D
libRbt.so/2013.1/901 2013/11/27
 13 13  0  0  0  0  0  0  0  0999 V2000
    7.3782   18.2327    0.9998 C   0  0  0  0  0  0  0  0  0  0  0  0
    6.2848   18.4801    1.8708 O   0  0  0  0  0  0  0  0  0  0  0  0
    6.5104   17.9827    3.1869 C   0  0  2  0  0  0  0  0  0  0  0  0
    5.4169   18.5317    4.1794 C   0  0  2  0  0  0  0  0  0  0  0  0
    6.2097   19.1698    5.2204 N   0  0  0  0  0  0  0  0  0  0  0  0
    7.5384   18.9875    5.0091 C   0  0  0  0  0  0  0  0  0  0  0  0
    8.4732   19.1269    5.8682 N   0  0  0  0  0  0  0  0  0  0  0  0
    7.7297   18.5231    3.7501 N   0  0  0  0  0  0  0  0  0  0  0  0
    4.6488   17.5095    4.8066 O   0  0  0  0  0  0  0  0  0  0  0  0
    4.0304   16.6545    3.8547 C   0  0  0  0  0  0  0  0  0  0  0  0
    5.8703   18.9943    6.1545 H   0  0  0  0  0  0  0  0  0  0  0  0
    8.0664   19.4846    6.7354 H   0  0  0  0  0  0  0  0  0  0  0  0
    8.5985   18.0289    3.6139 H   0  0  0  0  0  0  0  0  0  0  0  0
  1  2  1  0  0  0  0
  3  8  1  0  0  0  0
  3  2  1  6  0  0  0
  3  4  1  0  0  0  0
  4  5  1  0  0  0  0
  4  9  1  1  0  0  0
  5  6  1  0  0  0  0
  5 11  1  0  0  0  0
  6  7  2  0  0  0  0
  6  8  1  0  0  0  0
  7 12  1  0  0  0  0
  8 13  1  0  0  0  0
  9 10  1  0  0  0  0
M  END
>  <CHROM.0>
-56.02240478,-179.31015676,-68.34115315,-45.26668131,-58.48840065,-63.75599437
-69.15308899,-60.06547723,-168.64366587

>  <CHROM.1>
168.43830164,-55.72475337,6.39923356,18.30094196,3.86027886,-2.26150963,0.42445404
1.42832535

>  <Name>
P151032568

>  <RI>
3.4169e+07

>  <Rbt.Current_Directory>
/home/fstefaniak/projects/zuza/docking/adenine/4XNR

>  <Rbt.Executable>
rbdock ($Id: //depot/dev/client3/rdock/2013.1/src/exe/rbdock.cxx#4 $)

>  <Rbt.Library>
libRbt.so (2013.1, Build901 2013/11/27)

>  <Rbt.Parameter_File>
/home/fstefaniak/progs/rDock//data/scripts/dock_solv.prm

>  <Rbt.Receptor>
4xnr.prm

>  <SCORE>
-51.058

>  <SCORE.INTER>
-31.8679

>  <SCORE.INTER.CONST>
1

>  <SCORE.INTER.POLAR>
-4.77796

>  <SCORE.INTER.ROT>
2

>  <SCORE.INTER.SOLV>
12.2167

>  <SCORE.INTER.VDW>
-14.3243

>  <SCORE.INTER.norm>
-3.18679

>  <SCORE.INTRA>
1.50046

>  <SCORE.INTRA.DIHEDRAL>
-0.94297

>  <SCORE.INTRA.DIHEDRAL.0>
1.96904

>  <SCORE.INTRA.POLAR>
0

>  <SCORE.INTRA.POLAR.0>
0

>  <SCORE.INTRA.REPUL>
0

>  <SCORE.INTRA.REPUL.0>
0

>  <SCORE.INTRA.SOLV>
0.117032

>  <SCORE.INTRA.SOLV.lig_0>
-13.5212

>  <SCORE.INTRA.VDW>
1.91343

>  <SCORE.INTRA.VDW.0>
0.024909

>  <SCORE.INTRA.norm>
0.150046

>  <SCORE.RESTR>
0

>  <SCORE.RESTR.CAVITY>
0

>  <SCORE.RESTR.norm>
0

>  <SCORE.SYSTEM>
-20.6905

>  <SCORE.SYSTEM.CONST>
0

>  <SCORE.SYSTEM.DIHEDRAL>
4.53705

>  <SCORE.SYSTEM.POLAR>
-3.02015

>  <SCORE.SYSTEM.SOLV>
0.262441

>  <SCORE.SYSTEM.VDW>
-5.32634

>  <SCORE.SYSTEM.norm>
-2.06905

>  <SCORE.heavy>
10

>  <SCORE.norm>
-5.1058

$$$$
P151032568
 OpenBabel12072022113D
libRbt.so/2013.1/901 2013/11/27
 13 13  0  0  0  0  0  0  0  0999 V2000
    7.4111   18.2237    0.9969 C   0  0  0  0  0  0  0  0  0  0  0  0
    6.2888   18.4322    1.8408 O   0  0  0  0  0  0  0  0  0  0  0  0
    6.5008   17.9454    3.1633 C   0  0  2  0  0  0  0  0  0  0  0  0
    5.4020   18.5092    4.1416 C   0  0  2  0  0  0  0  0  0  0  0  0
    6.1897   19.1523    5.1834 N   0  0  0  0  0  0  0  0  0  0  0  0
    7.5190   18.9611    4.9848 C   0  0  0  0  0  0  0  0  0  0  0  0
    8.4474   19.1033    5.8503 N   0  0  0  0  0  0  0  0  0  0  0  0
    7.7183   18.4844    3.7317 N   0  0  0  0  0  0  0  0  0  0  0  0
    4.6233   17.4968    4.7715 O   0  0  0  0  0  0  0  0  0  0  0  0
    3.9431   16.6867    3.8224 C   0  0  0  0  0  0  0  0  0  0  0  0
    5.8416   18.9870    6.1162 H   0  0  0  0  0  0  0  0  0  0  0  0
    8.0354   19.4709    6.7110 H   0  0  0  0  0  0  0  0  0  0  0  0
    8.5855   17.9844    3.6071 H   0  0  0  0  0  0  0  0  0  0  0  0
  1  2  1  0  0  0  0
  3  8  1  0  0  0  0
  3  2  1  6  0  0  0
  3  4  1  0  0  0  0
  4  5  1  0  0  0  0
  4  9  1  1  0  0  0
  5  6  1  0  0  0  0
  5 11  1  0  0  0  0
  6  7  2  0  0  0  0
  6  8  1  0  0  0  0
  7 12  1  0  0  0  0
  8 13  1  0  0  0  0
  9 10  1  0  0  0  0
M  END
>  <CHROM.0>
-54.67510064,-179.82924929,-65.23476025,-46.49025542,-56.34216593,-60.50729246
-67.47841438,-178.81499209,-167.69848427

>  <CHROM.1>
165.83954953,-59.29804218,6.38140367,18.28095981,3.83440633,-2.34123915,0.41075740
1.42239287

>  <Name>
P151032568

>  <RI>
3.4169e+07

>  <Rbt.Current_Directory>
/home/fstefaniak/projects/zuza/docking/adenine/4XNR

>  <Rbt.Executable>
rbdock ($Id: //depot/dev/client3/rdock/2013.1/src/exe/rbdock.cxx#4 $)

>  <Rbt.Library>
libRbt.so (2013.1, Build901 2013/11/27)

>  <Rbt.Parameter_File>
/home/fstefaniak/progs/rDock//data/scripts/dock_solv.prm

>  <Rbt.Receptor>
4xnr.prm

>  <SCORE>
-51.0282

>  <SCORE.INTER>
-31.9406

>  <SCORE.INTER.CONST>
1

>  <SCORE.INTER.POLAR>
-4.7734

>  <SCORE.INTER.ROT>
2

>  <SCORE.INTER.SOLV>
12.1673

>  <SCORE.INTER.VDW>
-14.3715

>  <SCORE.INTER.norm>
-3.19406

>  <SCORE.INTRA>
1.48013

>  <SCORE.INTRA.DIHEDRAL>
-0.736141

>  <SCORE.INTRA.DIHEDRAL.0>
1.96904

>  <SCORE.INTRA.POLAR>
0

>  <SCORE.INTRA.POLAR.0>
0

>  <SCORE.INTRA.REPUL>
0

>  <SCORE.INTRA.REPUL.0>
0

>  <SCORE.INTRA.SOLV>
0.11704

>  <SCORE.INTRA.SOLV.lig_0>
-13.5212

>  <SCORE.INTRA.VDW>
1.78968

>  <SCORE.INTRA.VDW.0>
0.024909

>  <SCORE.INTRA.norm>
0.148013

>  <SCORE.RESTR>
0

>  <SCORE.RESTR.CAVITY>
0

>  <SCORE.RESTR.norm>
0

>  <SCORE.SYSTEM>
-20.5677

>  <SCORE.SYSTEM.CONST>
0

>  <SCORE.SYSTEM.DIHEDRAL>
4.21681

>  <SCORE.SYSTEM.POLAR>
-3.03276

>  <SCORE.SYSTEM.SOLV>
0.145647

>  <SCORE.SYSTEM.VDW>
-5.05679

>  <SCORE.SYSTEM.norm>
-2.05677

>  <SCORE.heavy>
10

>  <SCORE.norm>
-5.10282

$$$$
P151032568
 OpenBabel12072022113D
libRbt.so/2013.1/901 2013/11/27
 13 13  0  0  0  0  0  0  0  0999 V2000
    7.4033   18.2152    0.9969 C   0  0  0  0  0  0  0  0  0  0  0  0
    6.3048   18.4867    1.8541 O   0  0  0  0  0  0  0  0  0  0  0  0
    6.5084   17.9961    3.1764 C   0  0  2  0  0  0  0  0  0  0  0  0
    5.4061   18.5606    4.1504 C   0  0  2  0  0  0  0  0  0  0  0  0
    6.1901   19.1990    5.1979 N   0  0  0  0  0  0  0  0  0  0  0  0
    7.5199   19.0045    5.0058 C   0  0  0  0  0  0  0  0  0  0  0  0
    8.4441   19.1420    5.8765 N   0  0  0  0  0  0  0  0  0  0  0  0
    7.7244   18.5303    3.7526 N   0  0  0  0  0  0  0  0  0  0  0  0
    4.6212   17.5489    4.7737 O   0  0  0  0  0  0  0  0  0  0  0  0
    3.9777   16.7164    3.8185 C   0  0  0  0  0  0  0  0  0  0  0  0
    5.8366   19.0325    6.1284 H   0  0  0  0  0  0  0  0  0  0  0  0
    8.0287   19.5086    6.7359 H   0  0  0  0  0  0  0  0  0  0  0  0
    8.5909   18.0281    3.6314 H   0  0  0  0  0  0  0  0  0  0  0  0
  1  2  1  0  0  0  0
  3  8  1  0  0  0  0
  3  2  1  6  0  0  0
  3  4  1  0  0  0  0
  4  5  1  0  0  0  0
  4  9  1  1  0  0  0
  5  6  1  0  0  0  0
  5 11  1  0  0  0  0
  6  7  2  0  0  0  0
  6  8  1  0  0  0  0
  7 12  1  0  0  0  0
  8 13  1  0  0  0  0
  9 10  1  0  0  0  0
M  END
>  <CHROM.0>
-57.57258861,179.65951198,-66.40758820,-47.19866041,58.36240655,-59.12331396
-63.88480676,-58.49981162,-168.51249467

>  <CHROM.1>
168.90887068,-57.42444023,6.38711237,18.32121720,3.84575886,-2.26195032,0.40956672
1.41562480

>  <Name>
P151032568

>  <RI>
3.4169e+07

>  <Rbt.Current_Directory>
/home/fstefaniak/projects/zuza/docking/adenine/4XNR

>  <Rbt.Executable>
rbdock ($Id: //depot/dev/client3/rdock/2013.1/src/exe/rbdock.cxx#4 $)

>  <Rbt.Library>
libRbt.so (2013.1, Build901 2013/11/27)

>  <Rbt.Parameter_File>
/home/fstefaniak/progs/rDock//data/scripts/dock_solv.prm

>  <Rbt.Receptor>
4xnr.prm

>  <SCORE>
-50.0295

>  <SCORE.INTER>
-31.7049

>  <SCORE.INTER.CONST>
1

>  <SCORE.INTER.POLAR>
-4.78618

>  <SCORE.INTER.ROT>
2

>  <SCORE.INTER.SOLV>
12.2545

>  <SCORE.INTER.VDW>
-14.2008

>  <SCORE.INTER.norm>
-3.17049

>  <SCORE.INTRA>
1.27407

>  <SCORE.INTRA.DIHEDRAL>
-1.04478

>  <SCORE.INTRA.DIHEDRAL.0>
1.96904

>  <SCORE.INTRA.POLAR>
0

>  <SCORE.INTRA.POLAR.0>
0

>  <SCORE.INTRA.REPUL>
0

>  <SCORE.INTRA.REPUL.0>
0

>  <SCORE.INTRA.SOLV>
0.110007

>  <SCORE.INTRA.SOLV.lig_0>
-13.5212

>  <SCORE.INTRA.VDW>
1.74146

>  <SCORE.INTRA.VDW.0>
0.024909

>  <SCORE.INTRA.norm>
0.127407

>  <SCORE.RESTR>
0

>  <SCORE.RESTR.CAVITY>
0

>  <SCORE.RESTR.norm>
0

>  <SCORE.SYSTEM>
-19.5987

>  <SCORE.SYSTEM.CONST>
0

>  <SCORE.SYSTEM.DIHEDRAL>
3.7859

>  <SCORE.SYSTEM.POLAR>
-2.9839

>  <SCORE.SYSTEM.SOLV>
0.0769817

>  <SCORE.SYSTEM.VDW>
-4.40709

>  <SCORE.SYSTEM.norm>
-1.95987

>  <SCORE.heavy>
10

>  <SCORE.norm>
-5.00295

$$$$
P151032918
 OpenBabel12072022113D
libRbt.so/2013.1/901 2013/11/27
 16 16  0  0  0  0  0  0  0  0999 V2000
    3.7140   13.9068    4.1637 C   0  0  0  0  0  0  0  0  0  0  0  0
    2.4042   13.1304    4.1410 C   0  0  1  0  0  0  0  0  0  0  0  0
    1.1764   13.8543    4.7395 C   0  0  2  0  0  0  0  0  0  0  0  0
   -0.0212   13.1547    4.0590 C   0  0  1  0  0  0  0  0  0  0  0  0
    0.4738   13.0589    2.6167 C   0  0  2  0  0  0  0  0  0  0  0  0
    1.9459   12.6235    2.7524 C   0  0  1  0  0  0  0  0  0  0  0  0
    2.6880   13.1875    1.6779 O   0  0  0  0  0  0  0  0  0  0  0  0
    0.4410   14.3802    2.0384 O   0  0  0  0  0  0  0  0  0  0  0  0
   -0.2271   11.8735    4.6329 O   0  0  0  0  0  0  0  0  0  0  0  0
    1.1628   15.3084    4.3970 N   0  3  0  0  0  0  0  0  0  0  0  0
    0.1749   15.6406    4.3709 H   0  0  0  0  0  0  0  0  0  0  0  0
    1.6315   15.8740    5.1151 H   0  0  0  0  0  0  0  0  0  0  0  0
    1.5957   15.5243    3.4924 H   0  0  0  0  0  0  0  0  0  0  0  0
    2.3517   12.8005    0.8453 H   0  0  0  0  0  0  0  0  0  0  0  0
   -0.4781   14.6925    2.2188 H   0  0  0  0  0  0  0  0  0  0  0  0
    0.5880   11.3458    4.5197 H   0  0  0  0  0  0  0  0  0  0  0  0
  2  1  1  6  0  0  0
  2  3  1  0  0  0  0
  3 10  1  6  0  0  0
  3  4  1  0  0  0  0
  4  9  1  1  0  0  0
  4  5  1  0  0  0  0
  5  8  1  1  0  0  0
  5  6  1  0  0  0  0
  6  2  1  0  0  0  0
  6  7  1  6  0  0  0
  7 14  1  0  0  0  0
  8 15  1  0  0  0  0
  9 16  1  0  0  0  0
 10 11  1  0  0  0  0
 10 12  1  0  0  0  0
 10 13  1  0  0  0  0
M  CHG  1  10   1
M  END
>  <CHROM.0>
-56.21757322,-62.03507701,-64.74614468,-46.36722307,-64.51248044,-61.09802468
-68.34740224,-57.26949200,-167.76214903

>  <CHROM.1>
151.47357939,-58.83906382,-51.96078789,178.63710697,1.36524713,13.48362884
3.48797033,-0.32914298,0.33417548,1.33449470

>  <Name>
P151032918

>  <RI>
2.22087e+07

>  <Rbt.Current_Directory>
/home/fstefaniak/projects/zuza/docking/adenine/4XNR

>  <Rbt.Executable>
rbdock ($Id: //depot/dev/client3/rdock/2013.1/src/exe/rbdock.cxx#4 $)

>  <Rbt.Library>
libRbt.so (2013.1, Build901 2013/11/27)

>  <Rbt.Parameter_File>
/home/fstefaniak/progs/rDock//data/scripts/dock_solv.prm

>  <Rbt.Receptor>
4xnr.prm

>  <SCORE>
-45.6133

>  <SCORE.INTER>
-27.646

>  <SCORE.INTER.CONST>
1

>  <SCORE.INTER.POLAR>
-4.50448

>  <SCORE.INTER.ROT>
0

>  <SCORE.INTER.SOLV>
14.6816

>  <SCORE.INTER.VDW>
-11.9096

>  <SCORE.INTER.norm>
-2.7646

>  <SCORE.INTRA>
2.63665

>  <SCORE.INTRA.DIHEDRAL>
-1.37511

>  <SCORE.INTRA.DIHEDRAL.0>
3.92058

>  <SCORE.INTRA.POLAR>
0.895246

>  <SCORE.INTRA.POLAR.0>
-0.96714

>  <SCORE.INTRA.REPUL>
0

>  <SCORE.INTRA.REPUL.0>
0

>  <SCORE.INTRA.SOLV>
-0.0109572

>  <SCORE.INTRA.SOLV.lig_0>
-31.5703

>  <SCORE.INTRA.VDW>
0.285849

>  <SCORE.INTRA.VDW.0>
-0.300275

>  <SCORE.INTRA.norm>
0.263665

>  <SCORE.RESTR>
0.255964

>  <SCORE.RESTR.CAVITY>
0.255964

>  <SCORE.RESTR.norm>
0.0255964

>  <SCORE.SYSTEM>
-20.8599

>  <SCORE.SYSTEM.CONST>
0

>  <SCORE.SYSTEM.DIHEDRAL>
4.28328

>  <SCORE.SYSTEM.POLAR>
-3.01958

>  <SCORE.SYSTEM.SOLV>
0.287069

>  <SCORE.SYSTEM.VDW>
-5.3648

>  <SCORE.SYSTEM.norm>
-2.08599

>  <SCORE.heavy>
10

>  <SCORE.norm>
-4.56133

$$$$
P151032918
 OpenBabel12072022113D
libRbt.so/2013.1/901 2013/11/27
 16 16  0  0  0  0  0  0  0  0999 V2000
    1.3435   15.9630    4.1980 C   0  0  0  0  0  0  0  0  0  0  0  0
    1.9384   14.6143    4.5801 C   0  0  1  0  0  0  0  0  0  0  0  0
    1.0343   13.3829    4.3435 C   0  0  2  0  0  0  0  0  0  0  0  0
    2.0394   12.2156    4.2256 C   0  0  1  0  0  0  0  0  0  0  0  0
    3.1186   12.8434    3.3448 C   0  0  2  0  0  0  0  0  0  0  0  0
    3.2924   14.2635    3.9176 C   0  0  1  0  0  0  0  0  0  0  0  0
    3.6400   15.1431    2.8551 O   0  0  0  0  0  0  0  0  0  0  0  0
    2.6000   12.9535    2.0031 O   0  0  0  0  0  0  0  0  0  0  0  0
    2.5387   11.8714    5.5084 O   0  0  0  0  0  0  0  0  0  0  0  0
    0.2544   13.4975    3.0744 N   0  3  0  0  0  0  0  0  0  0  0  0
   -0.4112   12.6973    3.0130 H   0  0  0  0  0  0  0  0  0  0  0  0
   -0.3233   14.3467    3.0569 H   0  0  0  0  0  0  0  0  0  0  0  0
    0.8362   13.4935    2.2296 H   0  0  0  0  0  0  0  0  0  0  0  0
    4.4250   14.7736    2.4043 H   0  0  0  0  0  0  0  0  0  0  0  0
    2.5689   12.0189    1.6862 H   0  0  0  0  0  0  0  0  0  0  0  0
    1.7904   11.8399    6.1368 H   0  0  0  0  0  0  0  0  0  0  0  0
  2  1  1  6  0  0  0
  2  3  1  0  0  0  0
  3 10  1  6  0  0  0
  3  4  1  0  0  0  0
  4  9  1  1  0  0  0
  4  5  1  0  0  0  0
  5  8  1  6  0  0  0
  5  6  1  0  0  0  0
  6  2  1  0  0  0  0
  6  7  1  6  0  0  0
  7 14  1  0  0  0  0
  8 15  1  0  0  0  0
  9 16  1  0  0  0  0
 10 11  1  0  0  0  0
 10 12  1  0  0  0  0
 10 13  1  0  0  0  0
M  CHG  1  10   1
M  END
>  <CHROM.0>
-58.34810814,-176.78840600,-67.15786181,-47.96710665,-63.11520139,-63.44007969
-70.27514760,-60.45869020,-168.38351245

>  <CHROM.1>
-173.95053462,44.72647746,-70.97371222,-171.20187335,2.17224760,13.66392888
3.75515914,1.43550296,0.54637983,-0.28474686

>  <Name>
P151032918

>  <RI>
2.22087e+07

>  <Rbt.Current_Directory>
/home/fstefaniak/projects/zuza/docking/adenine/4XNR

>  <Rbt.Executable>
rbdock ($Id: //depot/dev/client3/rdock/2013.1/src/exe/rbdock.cxx#4 $)

>  <Rbt.Library>
libRbt.so (2013.1, Build901 2013/11/27)

>  <Rbt.Parameter_File>
/home/fstefaniak/progs/rDock//data/scripts/dock_solv.prm

>  <Rbt.Receptor>
4xnr.prm

>  <SCORE>
-44.6549

>  <SCORE.INTER>
-24.4324

>  <SCORE.INTER.CONST>
1

>  <SCORE.INTER.POLAR>
-3.37989

>  <SCORE.INTER.ROT>
0

>  <SCORE.INTER.SOLV>
11.0659

>  <SCORE.INTER.VDW>
-12.3106

>  <SCORE.INTER.norm>
-2.44324

>  <SCORE.INTRA>
0.531022

>  <SCORE.INTRA.DIHEDRAL>
-1.41767

>  <SCORE.INTRA.DIHEDRAL.0>
3.92058

>  <SCORE.INTRA.POLAR>
0.366781

>  <SCORE.INTRA.POLAR.0>
-0.96714

>  <SCORE.INTRA.REPUL>
0

>  <SCORE.INTRA.REPUL.0>
0

>  <SCORE.INTRA.SOLV>
-0.224607

>  <SCORE.INTRA.SOLV.lig_0>
-31.5703

>  <SCORE.INTRA.VDW>
0.105102

>  <SCORE.INTRA.VDW.0>
-0.300275

>  <SCORE.INTRA.norm>
0.0531022

>  <SCORE.RESTR>
0

>  <SCORE.RESTR.CAVITY>
0

>  <SCORE.RESTR.norm>
0

>  <SCORE.SYSTEM>
-20.7535

>  <SCORE.SYSTEM.CONST>
0

>  <SCORE.SYSTEM.DIHEDRAL>
4.26894

>  <SCORE.SYSTEM.POLAR>
-2.96372

>  <SCORE.SYSTEM.SOLV>
0.242846

>  <SCORE.SYSTEM.VDW>
-5.46051

>  <SCORE.SYSTEM.norm>
-2.07535

>  <SCORE.heavy>
10

>  <SCORE.norm>
-4.46549

$$$$
P151032918
 OpenBabel12072022113D
libRbt.so/2013.1/901 2013/11/27
 16 16  0  0  0  0  0  0  0  0999 V2000
    1.3288   16.0349    4.1756 C   0  0  0  0  0  0  0  0  0  0  0  0
    1.9429   14.7033    4.5863 C   0  0  1  0  0  0  0  0  0  0  0  0
    1.0562   13.4544    4.3774 C   0  0  2  0  0  0  0  0  0  0  0  0
    2.0776   12.2991    4.2841 C   0  0  1  0  0  0  0  0  0  0  0  0
    3.1472   12.9227    3.3888 C   0  0  2  0  0  0  0  0  0  0  0  0
    3.3013   14.3573    3.9303 C   0  0  1  0  0  0  0  0  0  0  0  0
    3.6358   15.2183    2.8486 O   0  0  0  0  0  0  0  0  0  0  0  0
    2.6263   12.9962    2.0455 O   0  0  0  0  0  0  0  0  0  0  0  0
    2.5825   11.9900    5.5735 O   0  0  0  0  0  0  0  0  0  0  0  0
    0.2739   13.5303    3.1069 N   0  3  0  0  0  0  0  0  0  0  0  0
   -0.2708   14.4193    3.0977 H   0  0  0  0  0  0  0  0  0  0  0  0
    0.8865   13.5665    2.2831 H   0  0  0  0  0  0  0  0  0  0  0  0
   -0.3829   12.7528    2.9785 H   0  0  0  0  0  0  0  0  0  0  0  0
    4.4298   14.8540    2.4095 H   0  0  0  0  0  0  0  0  0  0  0  0
    2.5679   12.0516    1.7644 H   0  0  0  0  0  0  0  0  0  0  0  0
    1.8338   11.9496    6.2008 H   0  0  0  0  0  0  0  0  0  0  0  0
  2  1  1  6  0  0  0
  2  3  1  0  0  0  0
  3 10  1  6  0  0  0
  3  4  1  0  0  0  0
  4  9  1  1  0  0  0
  4  5  1  0  0  0  0
  5  8  1  6  0  0  0
  5  6  1  0  0  0  0
  6  2  1  0  0  0  0
  6  7  1  6  0  0  0
  7 14  1  0  0  0  0
  8 15  1  0  0  0  0
  9 16  1  0  0  0  0
 10 11  1  0  0  0  0
 10 12  1  0  0  0  0
 10 13  1  0  0  0  0
M  CHG  1  10   1
M  END
>  <CHROM.0>
-57.48936544,-59.80433687,57.64891930,-49.69361849,-54.05029297,-64.16208074
51.16847161,-177.92941108,-167.80916833

>  <CHROM.1>
-54.49842397,45.48777546,-68.39220469,-171.63089430,2.18992632,13.73939710
3.78191134,1.45499090,0.54391009,-0.31609540

>  <Name>
P151032918

>  <RI>
2.22087e+07

>  <Rbt.Current_Directory>
/home/fstefaniak/projects/zuza/docking/adenine/4XNR

>  <Rbt.Executable>
rbdock ($Id: //depot/dev/client3/rdock/2013.1/src/exe/rbdock.cxx#4 $)

>  <Rbt.Library>
libRbt.so (2013.1, Build901 2013/11/27)

>  <Rbt.Parameter_File>
/home/fstefaniak/progs/rDock//data/scripts/dock_solv.prm

>  <Rbt.Receptor>
4xnr.prm

>  <SCORE>
-42.4483

>  <SCORE.INTER>
-24.4098

>  <SCORE.INTER.CONST>
1

>  <SCORE.INTER.POLAR>
-3.37142

>  <SCORE.INTER.ROT>
0

>  <SCORE.INTER.SOLV>
11.2894

>  <SCORE.INTER.VDW>
-12.3983

>  <SCORE.INTER.norm>
-2.44098

>  <SCORE.INTRA>
0.742664

>  <SCORE.INTRA.DIHEDRAL>
-1.78229

>  <SCORE.INTRA.DIHEDRAL.0>
3.92058

>  <SCORE.INTRA.POLAR>
0.364973

>  <SCORE.INTRA.POLAR.0>
-0.96714

>  <SCORE.INTRA.REPUL>
0

>  <SCORE.INTRA.REPUL.0>
0

>  <SCORE.INTRA.SOLV>
-0.0458271

>  <SCORE.INTRA.SOLV.lig_0>
-31.5703

>  <SCORE.INTRA.VDW>
0.415815

>  <SCORE.INTRA.VDW.0>
-0.300275

>  <SCORE.INTRA.norm>
0.0742664

>  <SCORE.RESTR>
0

>  <SCORE.RESTR.CAVITY>
0

>  <SCORE.RESTR.norm>
0

>  <SCORE.SYSTEM>
-18.7811

>  <SCORE.SYSTEM.CONST>
0

>  <SCORE.SYSTEM.DIHEDRAL>
3.95023

>  <SCORE.SYSTEM.POLAR>
-2.93259

>  <SCORE.SYSTEM.SOLV>
0.0540396

>  <SCORE.SYSTEM.VDW>
-4.08019

>  <SCORE.SYSTEM.norm>
-1.87811

>  <SCORE.heavy>
10

>  <SCORE.norm>
-4.24483

$$$$
P151033173
 OpenBabel12072022113D
libRbt.so/2013.1/901 2013/11/27
 12 12  0  0  0  0  0  0  0  0999 V2000
    2.3235   15.4088    3.7962 C   0  0  0  0  0  0  0  0  0  0  0  0
    2.0447   13.9379    4.1215 C   0  0  1  0  0  0  0  0  0  0  0  0
    0.5559   13.5924    4.1307 C   0  0  0  0  0  0  0  0  0  0  0  0
    0.1281   13.0623    2.7675 C   0  0  0  0  0  0  0  0  0  0  0  0
    1.0765   13.4713    1.7869 O   0  0  0  0  0  0  0  0  0  0  0  0
    2.2949   12.7804    1.9765 N   0  0  0  0  0  0  0  0  0  0  0  0
    2.8194   12.9960    3.1477 C   0  0  0  0  0  0  0  0  0  0  0  0
    3.8820   12.5186    3.6115 O   0  5  0  0  0  0  0  0  0  0  0  0
    2.6286   13.6660    5.4813 N   0  3  0  0  0  0  0  0  0  0  0  0
    2.0100   12.8728    5.7779 H   0  0  0  0  0  0  0  0  0  0  0  0
    3.6021   13.3807    5.5231 H   0  0  0  0  0  0  0  0  0  0  0  0
    2.3618   14.3885    6.1509 H   0  0  0  0  0  0  0  0  0  0  0  0
  2  3  1  0  0  0  0
  2  7  1  0  0  0  0
  2  9  1  0  0  0  0
  2  1  1  6  0  0  0
  3  4  1  0  0  0  0
  4  5  1  0  0  0  0
  5  6  1  0  0  0  0
  6  7  2  0  0  0  0
  7  8  1  0  0  0  0
  9 10  1  0  0  0  0
  9 11  1  0  0  0  0
  9 12  1  0  0  0  0
M  CHG  2   8  -1   9   1
M  END
>  <CHROM.0>
-57.32628672,-176.23964353,-64.23678925,-48.30762526,-175.98982349,-63.96046110
-67.37049514,-176.56316520,-168.17020938

>  <CHROM.1>
153.73679913,1.99224497,13.49453864,3.45430180,0.81567599,-0.33263056,1.08944101

>  <Name>
P151033173

>  <RI>
3.02409e+07

>  <Rbt.Current_Directory>
/home/fstefaniak/projects/zuza/docking/adenine/4XNR

>  <Rbt.Executable>
rbdock ($Id: //depot/dev/client3/rdock/2013.1/src/exe/rbdock.cxx#4 $)

>  <Rbt.Library>
libRbt.so (2013.1, Build901 2013/11/27)

>  <Rbt.Parameter_File>
/home/fstefaniak/progs/rDock//data/scripts/dock_solv.prm

>  <Rbt.Receptor>
4xnr.prm

>  <SCORE>
-40.1664

>  <SCORE.INTER>
-19.3773

>  <SCORE.INTER.CONST>
1

>  <SCORE.INTER.POLAR>
-3.18822

>  <SCORE.INTER.ROT>
0

>  <SCORE.INTER.SOLV>
15.3027

>  <SCORE.INTER.VDW>
-10.9917

>  <SCORE.INTER.norm>
-2.15303

>  <SCORE.INTRA>
-0.0319467

>  <SCORE.INTRA.DIHEDRAL>
-0.214719

>  <SCORE.INTRA.DIHEDRAL.0>
1.49454

>  <SCORE.INTRA.POLAR>
0

>  <SCORE.INTRA.POLAR.0>
0

>  <SCORE.INTRA.REPUL>
0

>  <SCORE.INTRA.REPUL.0>
0

>  <SCORE.INTRA.SOLV>
-0.40373

>  <SCORE.INTRA.SOLV.lig_0>
-40.4381

>  <SCORE.INTRA.VDW>
0.277278

>  <SCORE.INTRA.VDW.0>
1.31266

>  <SCORE.INTRA.norm>
-0.00354963

>  <SCORE.RESTR>
0

>  <SCORE.RESTR.CAVITY>
0

>  <SCORE.RESTR.norm>
0

>  <SCORE.SYSTEM>
-20.7572

>  <SCORE.SYSTEM.CONST>
0

>  <SCORE.SYSTEM.DIHEDRAL>
4.01508

>  <SCORE.SYSTEM.POLAR>
-2.97405

>  <SCORE.SYSTEM.SOLV>
-0.0486022

>  <SCORE.SYSTEM.VDW>
-5.24675

>  <SCORE.SYSTEM.norm>
-2.30635

>  <SCORE.heavy>
9

>  <SCORE.norm>
-4.46293

$$$$
P151033173
 OpenBabel12072022113D
libRbt.so/2013.1/901 2013/11/27
 12 12  0  0  0  0  0  0  0  0999 V2000
    5.0692   15.3668    3.5658 C   0  0  0  0  0  0  0  0  0  0  0  0
    4.5703   16.8123    3.6589 C   0  0  1  0  0  0  0  0  0  0  0  0
    5.1986   17.5959    4.8109 C   0  0  0  0  0  0  0  0  0  0  0  0
    6.4206   18.3644    4.3226 C   0  0  0  0  0  0  0  0  0  0  0  0
    6.8854   17.7832    3.1083 O   0  0  0  0  0  0  0  0  0  0  0  0
    5.9667   18.0438    2.0662 N   0  0  0  0  0  0  0  0  0  0  0  0
    4.7820   17.5623    2.3067 C   0  0  0  0  0  0  0  0  0  0  0  0
    3.7609   17.6416    1.5834 O   0  5  0  0  0  0  0  0  0  0  0  0
    3.0788   16.7552    3.8490 N   0  3  0  0  0  0  0  0  0  0  0  0
    2.8552   17.7757    3.7573 H   0  0  0  0  0  0  0  0  0  0  0  0
    2.5418   16.2206    3.1731 H   0  0  0  0  0  0  0  0  0  0  0  0
    2.8355   16.5844    4.8253 H   0  0  0  0  0  0  0  0  0  0  0  0
  2  3  1  0  0  0  0
  2  7  1  0  0  0  0
  2  9  1  0  0  0  0
  2  1  1  6  0  0  0
  3  4  1  0  0  0  0
  4  5  1  0  0  0  0
  5  6  1  0  0  0  0
  6  7  2  0  0  0  0
  7  8  1  0  0  0  0
  9 10  1  0  0  0  0
  9 11  1  0  0  0  0
  9 12  1  0  0  0  0
M  CHG  2   8  -1   9   1
M  END
>  <CHROM.0>
-62.04586249,-63.85586070,-64.91275545,-46.79208926,-61.21221239,-65.14758948
-68.95102713,-61.78373504,-167.76578615

>  <CHROM.1>
-172.24153072,5.04704106,17.31507240,3.25128142,-3.09664826,-0.42775431,-1.20529573

>  <Name>
P151033173

>  <RI>
3.02409e+07

>  <Rbt.Current_Directory>
/home/fstefaniak/projects/zuza/docking/adenine/4XNR

>  <Rbt.Executable>
rbdock ($Id: //depot/dev/client3/rdock/2013.1/src/exe/rbdock.cxx#4 $)

>  <Rbt.Library>
libRbt.so (2013.1, Build901 2013/11/27)

>  <Rbt.Parameter_File>
/home/fstefaniak/progs/rDock//data/scripts/dock_solv.prm

>  <Rbt.Receptor>
4xnr.prm

>  <SCORE>
-38.28

>  <SCORE.INTER>
-15.825

>  <SCORE.INTER.CONST>
1

>  <SCORE.INTER.POLAR>
-2.22624

>  <SCORE.INTER.ROT>
0

>  <SCORE.INTER.SOLV>
19.1787

>  <SCORE.INTER.VDW>
-13.1221

>  <SCORE.INTER.norm>
-1.75833

>  <SCORE.INTRA>
-1.50448

>  <SCORE.INTRA.DIHEDRAL>
-1.1466

>  <SCORE.INTRA.DIHEDRAL.0>
1.49454

>  <SCORE.INTRA.POLAR>
0

>  <SCORE.INTRA.POLAR.0>
0

>  <SCORE.INTRA.REPUL>
0

>  <SCORE.INTRA.REPUL.0>
0

>  <SCORE.INTRA.SOLV>
-0.190913

>  <SCORE.INTRA.SOLV.lig_0>
-40.4381

>  <SCORE.INTRA.VDW>
-0.835724

>  <SCORE.INTRA.VDW.0>
1.31266

>  <SCORE.INTRA.norm>
-0.167164

>  <SCORE.RESTR>
0

>  <SCORE.RESTR.CAVITY>
0

>  <SCORE.RESTR.norm>
0

>  <SCORE.SYSTEM>
-20.9505

>  <SCORE.SYSTEM.CONST>
0

>  <SCORE.SYSTEM.DIHEDRAL>
4.30141

>  <SCORE.SYSTEM.POLAR>
-2.96975

>  <SCORE.SYSTEM.SOLV>
0.263673

>  <SCORE.SYSTEM.VDW>
-5.58956

>  <SCORE.SYSTEM.norm>
-2.32784

>  <SCORE.heavy>
9

>  <SCORE.norm>
-4.25334

$$$$
P151033173
 OpenBabel12072022113D
libRbt.so/2013.1/901 2013/11/27
 12 12  0  0  0  0  0  0  0  0999 V2000
    4.9720   15.3117    3.6129 C   0  0  0  0  0  0  0  0  0  0  0  0
    4.5450   16.7828    3.6339 C   0  0  1  0  0  0  0  0  0  0  0  0
    5.2190   17.5923    4.7414 C   0  0  0  0  0  0  0  0  0  0  0  0
    6.4737   18.2738    4.2088 C   0  0  0  0  0  0  0  0  0  0  0  0
    6.9009   17.6092    3.0239 O   0  0  0  0  0  0  0  0  0  0  0  0
    5.9889   17.8613    1.9738 N   0  0  0  0  0  0  0  0  0  0  0  0
    4.7837   17.4515    2.2441 C   0  0  0  0  0  0  0  0  0  0  0  0
    3.7627   17.5439    1.5222 O   0  5  0  0  0  0  0  0  0  0  0  0
    3.0539   16.8090    3.8334 N   0  3  0  0  0  0  0  0  0  0  0  0
    2.8771   17.8297    3.6697 H   0  0  0  0  0  0  0  0  0  0  0  0
    2.4880   16.2531    3.1996 H   0  0  0  0  0  0  0  0  0  0  0  0
    2.8100   16.7199    4.8204 H   0  0  0  0  0  0  0  0  0  0  0  0
  2  3  1  0  0  0  0
  2  7  1  0  0  0  0
  2  9  1  0  0  0  0
  2  1  1  6  0  0  0
  3  4  1  0  0  0  0
  4  5  1  0  0  0  0
  5  6  1  0  0  0  0
  6  7  2  0  0  0  0
  7  8  1  0  0  0  0
  9 10  1  0  0  0  0
  9 11  1  0  0  0  0
  9 12  1  0  0  0  0
M  CHG  2   8  -1   9   1
M  END
>  <CHROM.0>
-55.75212445,-61.13205014,-69.08879635,-47.30822841,-58.00754992,-63.86209615
-67.51448001,-175.14303039,-168.32208769

>  <CHROM.1>
-171.06242760,5.04295677,17.24010046,3.19886365,-3.10854487,-0.37953102,-1.26110350

>  <Name>
P151033173

>  <RI>
3.02409e+07

>  <Rbt.Current_Directory>
/home/fstefaniak/projects/zuza/docking/adenine/4XNR

>  <Rbt.Executable>
rbdock ($Id: //depot/dev/client3/rdock/2013.1/src/exe/rbdock.cxx#4 $)

>  <Rbt.Library>
libRbt.so (2013.1, Build901 2013/11/27)

>  <Rbt.Parameter_File>
/home/fstefaniak/progs/rDock//data/scripts/dock_solv.prm

>  <Rbt.Receptor>
4xnr.prm

>  <SCORE>
-38.2311

>  <SCORE.INTER>
-15.9361

>  <SCORE.INTER.CONST>
1

>  <SCORE.INTER.POLAR>
-2.30717

>  <SCORE.INTER.ROT>
0

>  <SCORE.INTER.SOLV>
19.4702

>  <SCORE.INTER.VDW>
-13.0235

>  <SCORE.INTER.norm>
-1.77067

>  <SCORE.INTRA>
-1.45199

>  <SCORE.INTRA.DIHEDRAL>
-1.09186

>  <SCORE.INTRA.DIHEDRAL.0>
1.49454

>  <SCORE.INTRA.POLAR>
0

>  <SCORE.INTRA.POLAR.0>
0

>  <SCORE.INTRA.REPUL>
0

>  <SCORE.INTRA.REPUL.0>
0

>  <SCORE.INTRA.SOLV>
-0.182135

>  <SCORE.INTRA.SOLV.lig_0>
-40.4381

>  <SCORE.INTRA.VDW>
-0.814996

>  <SCORE.INTRA.VDW.0>
1.31266

>  <SCORE.INTRA.norm>
-0.161333

>  <SCORE.RESTR>
0

>  <SCORE.RESTR.CAVITY>
0

>  <SCORE.RESTR.norm>
0

>  <SCORE.SYSTEM>
-20.8431

>  <SCORE.SYSTEM.CONST>
0

>  <SCORE.SYSTEM.DIHEDRAL>
4.38972

>  <SCORE.SYSTEM.POLAR>
-2.99744

>  <SCORE.SYSTEM.SOLV>
0.146477

>  <SCORE.SYSTEM.VDW>
-5.41595

>  <SCORE.SYSTEM.norm>
-2.3159

>  <SCORE.heavy>
9

>  <SCORE.norm>
-4.2479

$$$$
P151076806
 OpenBabel12072022113D
libRbt.so/2013.1/901 2013/11/27
 17 18  0  0  0  0  0  0  0  0999 V2000
   -0.6468   12.1112    4.3175 C   0  0  0  0  0  0  0  0  0  0  0  0
    0.4958   12.7173    3.4834 C   0  0  0  0  0  0  0  0  0  0  0  0
    0.9774   14.0701    4.1079 C   0  0  1  0  0  0  0  0  0  0  0  0
    2.1898   13.3349    4.7324 C   0  0  1  0  0  0  0  0  0  0  0  0
    1.9536   12.1602    3.7433 C   0  0  2  0  0  0  0  0  0  0  0  0
    2.8337   11.9224    2.5054 C   0  0  0  0  0  0  0  0  0  0  0  0
    2.7634   12.9196    1.7066 O   0  0  0  0  0  0  0  0  0  0  0  0
    3.3934   10.8198    2.2941 O   0  5  0  0  0  0  0  0  0  0  0  0
    1.9622   10.8150    4.4506 N   0  3  0  0  0  0  0  0  0  0  0  0
    1.4308   10.7214    5.3092 H   0  0  0  0  0  0  0  0  0  0  0  0
    1.5809   10.1778    3.7023 H   0  0  0  0  0  0  0  0  0  0  0  0
    2.9269   10.4777    4.5376 H   0  0  0  0  0  0  0  0  0  0  0  0
    3.4576   14.1729    4.8909 C   0  0  0  0  0  0  0  0  0  0  0  0
    3.5932   15.3162    3.8843 C   0  0  0  0  0  0  0  0  0  0  0  0
    2.2822   16.0459    3.6360 C   0  0  0  0  0  0  0  0  0  0  0  0
    1.2921   15.1275    3.1846 O   0  0  0  0  0  0  0  0  0  0  0  0
    0.0561   12.8058    2.0187 C   0  0  0  0  0  0  0  0  0  0  0  0
  1  2  1  0  0  0  0
  2  3  1  0  0  0  0
  2  5  1  0  0  0  0
  2 17  1  0  0  0  0
  3 16  1  6  0  0  0
  3  4  1  0  0  0  0
  4 13  1  6  0  0  0
  4  5  1  0  0  0  0
  5  6  1  6  0  0  0
  5  9  1  0  0  0  0
  6  7  2  0  0  0  0
  6  8  1  0  0  0  0
  9 10  1  0  0  0  0
  9 11  1  0  0  0  0
  9 12  1  0  0  0  0
 13 14  1  0  0  0  0
 14 15  1  0  0  0  0
 15 16  1  0  0  0  0
M  CHG  2   8  -1   9   1
M  END
>  <CHROM.0>
-57.47760318,-175.90390267,-66.59679873,-46.62232459,58.79895898,-60.81681093
-67.88038360,-58.51546632,-168.20087042

>  <CHROM.1>
45.59978945,-52.14498361,1.90397968,13.13465288,3.47449437,1.75980640,-0.14885288
-2.94656607

>  <Name>
P151076806

>  <RI>
1.00763e+07

>  <Rbt.Current_Directory>
/home/fstefaniak/projects/zuza/docking/adenine/4XNR

>  <Rbt.Executable>
rbdock ($Id: //depot/dev/client3/rdock/2013.1/src/exe/rbdock.cxx#4 $)

>  <Rbt.Library>
libRbt.so (2013.1, Build901 2013/11/27)

>  <Rbt.Parameter_File>
/home/fstefaniak/progs/rDock//data/scripts/dock_solv.prm

>  <Rbt.Receptor>
4xnr.prm

>  <SCORE>
-31.059

>  <SCORE.INTER>
-13.5438

>  <SCORE.INTER.CONST>
1

>  <SCORE.INTER.POLAR>
-1.01817

>  <SCORE.INTER.ROT>
1

>  <SCORE.INTER.SOLV>
9.09358

>  <SCORE.INTER.VDW>
-12.9332

>  <SCORE.INTER.norm>
-0.967416

>  <SCORE.INTRA>
-0.234151

>  <SCORE.INTRA.DIHEDRAL>
-0.481291

>  <SCORE.INTRA.DIHEDRAL.0>
1.54845

>  <SCORE.INTRA.POLAR>
0

>  <SCORE.INTRA.POLAR.0>
0

>  <SCORE.INTRA.REPUL>
0

>  <SCORE.INTRA.REPUL.0>
0

>  <SCORE.INTRA.SOLV>
-0.110208

>  <SCORE.INTRA.SOLV.lig_0>
-39.0855

>  <SCORE.INTRA.VDW>
0.061598

>  <SCORE.INTRA.VDW.0>
0.00164971

>  <SCORE.INTRA.norm>
-0.0167251

>  <SCORE.RESTR>
2.51403

>  <SCORE.RESTR.CAVITY>
2.51403

>  <SCORE.RESTR.norm>
0.179573

>  <SCORE.SYSTEM>
-19.795

>  <SCORE.SYSTEM.CONST>
0

>  <SCORE.SYSTEM.DIHEDRAL>
4.18204

>  <SCORE.SYSTEM.POLAR>
-2.99987

>  <SCORE.SYSTEM.SOLV>
0.0589195

>  <SCORE.SYSTEM.VDW>
-4.61077

>  <SCORE.SYSTEM.norm>
-1.41393

>  <SCORE.heavy>
14

>  <SCORE.norm>
-2.2185

$$$$
P151076806
 OpenBabel12072022113D
libRbt.so/2013.1/901 2013/11/27
 17 18  0  0  0  0  0  0  0  0999 V2000
   -0.5636   12.0378    4.3393 C   0  0  0  0  0  0  0  0  0  0  0  0
    0.5372   12.6852    3.4803 C   0  0  0  0  0  0  0  0  0  0  0  0
    0.9856   14.0528    4.0970 C   0  0  1  0  0  0  0  0  0  0  0  0
    2.2373   13.3595    4.6910 C   0  0  1  0  0  0  0  0  0  0  0  0
    2.0193   12.1791    3.7046 C   0  0  2  0  0  0  0  0  0  0  0  0
    2.8779   11.9746    2.4458 C   0  0  0  0  0  0  0  0  0  0  0  0
    2.7358   12.9592    1.6409 O   0  0  0  0  0  0  0  0  0  0  0  0
    3.4876   10.9001    2.2288 O   0  5  0  0  0  0  0  0  0  0  0  0
    2.0916   10.8337    4.4078 N   0  3  0  0  0  0  0  0  0  0  0  0
    1.6097   10.7294    5.2939 H   0  0  0  0  0  0  0  0  0  0  0  0
    1.6821   10.1901    3.6802 H   0  0  0  0  0  0  0  0  0  0  0  0
    3.0658   10.5145    4.4416 H   0  0  0  0  0  0  0  0  0  0  0  0
    3.4784   14.2411    4.8220 C   0  0  0  0  0  0  0  0  0  0  0  0
    3.5502   15.3904    3.8156 C   0  0  0  0  0  0  0  0  0  0  0  0
    2.2090   16.0741    3.6000 C   0  0  0  0  0  0  0  0  0  0  0  0
    1.2414   15.1224    3.1694 O   0  0  0  0  0  0  0  0  0  0  0  0
    0.0604   12.7609    2.0266 C   0  0  0  0  0  0  0  0  0  0  0  0
  1  2  1  0  0  0  0
  2  3  1  0  0  0  0
  2  5  1  0  0  0  0
  2 17  1  0  0  0  0
  3 16  1  6  0  0  0
  3  4  1  0  0  0  0
  4 13  1  6  0  0  0
  4  5  1  0  0  0  0
  5  6  1  6  0  0  0
  5  9  1  0  0  0  0
  6  7  2  0  0  0  0
  6  8  1  0  0  0  0
  9 10  1  0  0  0  0
  9 11  1  0  0  0  0
  9 12  1  0  0  0  0
 13 14  1  0  0  0  0
 14 15  1  0  0  0  0
 15 16  1  0  0  0  0
M  CHG  2   8  -1   9   1
M  END
>  <CHROM.0>
-57.38734518,-66.13925913,-65.46724257,-47.10291936,-177.29951327,-62.54360565
-67.18795169,-59.38339549,-167.68638056

>  <CHROM.1>
44.46424854,-54.15634218,1.92912566,13.15138719,3.43954720,1.72799130,-0.17565801
-2.94984157

>  <Name>
P151076806

>  <RI>
1.00763e+07

>  <Rbt.Current_Directory>
/home/fstefaniak/projects/zuza/docking/adenine/4XNR

>  <Rbt.Executable>
rbdock ($Id: //depot/dev/client3/rdock/2013.1/src/exe/rbdock.cxx#4 $)

>  <Rbt.Library>
libRbt.so (2013.1, Build901 2013/11/27)

>  <Rbt.Parameter_File>
/home/fstefaniak/progs/rDock//data/scripts/dock_solv.prm

>  <Rbt.Receptor>
4xnr.prm

>  <SCORE>
-31.0588

>  <SCORE.INTER>
-12.4124

>  <SCORE.INTER.CONST>
1

>  <SCORE.INTER.POLAR>
-0.992408

>  <SCORE.INTER.ROT>
1

>  <SCORE.INTER.SOLV>
9.37481

>  <SCORE.INTER.VDW>
-12.3585

>  <SCORE.INTER.norm>
-0.886603

>  <SCORE.INTRA>
-0.0887994

>  <SCORE.INTRA.DIHEDRAL>
-0.429535

>  <SCORE.INTRA.DIHEDRAL.0>
1.54845

>  <SCORE.INTRA.POLAR>
0

>  <SCORE.INTRA.POLAR.0>
0

>  <SCORE.INTRA.REPUL>
0

>  <SCORE.INTRA.REPUL.0>
0

>  <SCORE.INTRA.SOLV>
-0.117494

>  <SCORE.INTRA.SOLV.lig_0>
-39.0855

>  <SCORE.INTRA.VDW>
0.184715

>  <SCORE.INTRA.VDW.0>
0.00164971

>  <SCORE.INTRA.norm>
-0.00634281

>  <SCORE.RESTR>
2.38102

>  <SCORE.RESTR.CAVITY>
2.38102

>  <SCORE.RESTR.norm>
0.170073

>  <SCORE.SYSTEM>
-20.9386

>  <SCORE.SYSTEM.CONST>
0

>  <SCORE.SYSTEM.DIHEDRAL>
4.21712

>  <SCORE.SYSTEM.POLAR>
-2.99291

>  <SCORE.SYSTEM.SOLV>
0.111356

>  <SCORE.SYSTEM.VDW>
-5.42552

>  <SCORE.SYSTEM.norm>
-1.49561

>  <SCORE.heavy>
14

>  <SCORE.norm>
-2.21849

$$$$
P151076806
 OpenBabel12072022113D
libRbt.so/2013.1/901 2013/11/27
 17 18  0  0  0  0  0  0  0  0999 V2000
   -0.6971   12.1102    4.3956 C   0  0  0  0  0  0  0  0  0  0  0  0
    0.3711   12.7928    3.5229 C   0  0  0  0  0  0  0  0  0  0  0  0
    0.8307   14.1433    4.1686 C   0  0  1  0  0  0  0  0  0  0  0  0
    2.1054   13.4404    4.6992 C   0  0  1  0  0  0  0  0  0  0  0  0
    1.8629   12.2907    3.6828 C   0  0  2  0  0  0  0  0  0  0  0  0
    2.6814   12.1330    2.3910 C   0  0  0  0  0  0  0  0  0  0  0  0
    3.5286   11.1816    2.5099 O   0  0  0  0  0  0  0  0  0  0  0  0
    2.5908   12.9537    1.4466 O   0  5  0  0  0  0  0  0  0  0  0  0
    1.9665   10.9240    4.3396 N   0  3  0  0  0  0  0  0  0  0  0  0
    1.4954   10.7813    5.2261 H   0  0  0  0  0  0  0  0  0  0  0  0
    1.5615   10.2978    3.5945 H   0  0  0  0  0  0  0  0  0  0  0  0
    2.9466   10.6219    4.3534 H   0  0  0  0  0  0  0  0  0  0  0  0
    3.3445   14.3266    4.8185 C   0  0  0  0  0  0  0  0  0  0  0  0
    3.3763   15.5080    3.8479 C   0  0  0  0  0  0  0  0  0  0  0  0
    2.0245   16.1884    3.6979 C   0  0  0  0  0  0  0  0  0  0  0  0
    1.0494   15.2438    3.2682 O   0  0  0  0  0  0  0  0  0  0  0  0
   -0.1532   12.9115    2.0885 C   0  0  0  0  0  0  0  0  0  0  0  0
  1  2  1  0  0  0  0
  2  3  1  0  0  0  0
  2  5  1  0  0  0  0
  2 17  1  0  0  0  0
  3 16  1  6  0  0  0
  3  4  1  0  0  0  0
  4 13  1  6  0  0  0
  4  5  1  0  0  0  0
  5  6  1  6  0  0  0
  5  9  1  0  0  0  0
  6  7  2  0  0  0  0
  6  8  1  0  0  0  0
  9 10  1  0  0  0  0
  9 11  1  0  0  0  0
  9 12  1  0  0  0  0
 13 14  1  0  0  0  0
 14 15  1  0  0  0  0
 15 16  1  0  0  0  0
M  CHG  2   8  -1   9   1
M  END
>  <CHROM.0>
-56.94070094,-177.67481832,-67.97831846,-48.24084400,-62.09979047,-176.68077477
-62.92236582,-172.90222811,-168.18927533

>  <CHROM.1>
-148.34424803,-52.69761801,1.78389407,13.26413359,3.46944633,-1.70971750
0.16752175,0.19243018

>  <Name>
P151076806

>  <RI>
1.00763e+07

>  <Rbt.Current_Directory>
/home/fstefaniak/projects/zuza/docking/adenine/4XNR

>  <Rbt.Executable>
rbdock ($Id: //depot/dev/client3/rdock/2013.1/src/exe/rbdock.cxx#4 $)

>  <Rbt.Library>
libRbt.so (2013.1, Build901 2013/11/27)

>  <Rbt.Parameter_File>
/home/fstefaniak/progs/rDock//data/scripts/dock_solv.prm

>  <Rbt.Receptor>
4xnr.prm

>  <SCORE>
-30.7095

>  <SCORE.INTER>
-12.1165

>  <SCORE.INTER.CONST>
1

>  <SCORE.INTER.POLAR>
-0.891502

>  <SCORE.INTER.ROT>
1

>  <SCORE.INTER.SOLV>
10.3015

>  <SCORE.INTER.VDW>
-12.8065

>  <SCORE.INTER.norm>
-0.865465

>  <SCORE.INTRA>
-0.199776

>  <SCORE.INTRA.DIHEDRAL>
-0.512279

>  <SCORE.INTRA.DIHEDRAL.0>
1.54845

>  <SCORE.INTRA.POLAR>
0

>  <SCORE.INTRA.POLAR.0>
0

>  <SCORE.INTRA.REPUL>
0

>  <SCORE.INTRA.REPUL.0>
0

>  <SCORE.INTRA.SOLV>
-0.117302

>  <SCORE.INTRA.SOLV.lig_0>
-39.0855

>  <SCORE.INTRA.VDW>
0.115015

>  <SCORE.INTRA.VDW.0>
0.00164971

>  <SCORE.INTRA.norm>
-0.0142697

>  <SCORE.RESTR>
2.01982

>  <SCORE.RESTR.CAVITY>
2.01982

>  <SCORE.RESTR.norm>
0.144273

>  <SCORE.SYSTEM>
-20.4131

>  <SCORE.SYSTEM.CONST>
0

>  <SCORE.SYSTEM.DIHEDRAL>
4.08461

>  <SCORE.SYSTEM.POLAR>
-2.97346

>  <SCORE.SYSTEM.SOLV>
0.0224759

>  <SCORE.SYSTEM.VDW>
-5.06622

>  <SCORE.SYSTEM.norm>
-1.45808

>  <SCORE.heavy>
14

>  <SCORE.norm>
-2.19354

$$$$
P151246905
 OpenBabel12072022113D
libRbt.so/2013.1/901 2013/11/27
 11 11  0  0  0  0  0  0  0  0999 V2000
    5.4273   17.7838    6.4756 C   0  0  0  0  0  0  0  0  0  0  0  0
    5.2650   18.6636    5.2283 C   0  0  1  0  0  0  0  0  0  0  0  0
    6.3948   19.7103    5.1613 C   0  0  0  0  0  0  0  0  0  0  0  0
    7.7398   19.1026    4.7482 C   0  0  0  0  0  0  0  0  0  0  0  0
    7.6396   18.3846    3.4753 N   0  0  0  0  0  0  0  0  0  0  0  0
    6.6225   17.3211    3.5282 C   0  0  0  0  0  0  0  0  0  0  0  0
    5.2528   17.8948    3.8943 C   0  0  1  0  0  0  0  0  0  0  0  0
    4.2165   16.8021    3.9173 N   0  3  0  0  0  0  0  0  0  0  0  0
    3.1255   17.0152    3.3717 O   0  0  0  0  0  0  0  0  0  0  0  0
    4.5397   15.7441    4.4733 O   0  5  0  0  0  0  0  0  0  0  0  0
    8.5470   17.9742    3.2478 H   0  0  0  0  0  0  0  0  0  0  0  0
  2  1  1  1  0  0  0
  2  3  1  0  0  0  0
  2  7  1  0  0  0  0
  3  4  1  0  0  0  0
  4  5  1  0  0  0  0
  5  6  1  0  0  0  0
  5 11  1  0  0  0  0
  6  7  1  0  0  0  0
  7  8  1  1  0  0  0
  8  9  2  0  0  0  0
  8 10  1  0  0  0  0
M  CHG  2   8   1  10  -1
M  END
>  <CHROM.0>
-58.12177227,-61.19286285,-66.94891204,-46.68649977,-56.15222465,-64.99065424
-67.33528494,-58.96391155,-168.22784918

>  <CHROM.1>
99.40996461,5.59744891,17.79667767,4.41793444,0.43720189,0.47436824,1.04014415

>  <Name>
P151246905

>  <RI>
3.1908e+07

>  <Rbt.Current_Directory>
/home/fstefaniak/projects/zuza/docking/adenine/4XNR

>  <Rbt.Executable>
rbdock ($Id: //depot/dev/client3/rdock/2013.1/src/exe/rbdock.cxx#4 $)

>  <Rbt.Library>
libRbt.so (2013.1, Build901 2013/11/27)

>  <Rbt.Parameter_File>
/home/fstefaniak/progs/rDock//data/scripts/dock_solv.prm

>  <Rbt.Receptor>
4xnr.prm

>  <SCORE>
-31.7877

>  <SCORE.INTER>
-10.8885

>  <SCORE.INTER.CONST>
1

>  <SCORE.INTER.POLAR>
-1.37385

>  <SCORE.INTER.ROT>
1

>  <SCORE.INTER.SOLV>
9.32278

>  <SCORE.INTER.VDW>
-10.0537

>  <SCORE.INTER.norm>
-1.08885

>  <SCORE.INTRA>
0.0148695

>  <SCORE.INTRA.DIHEDRAL>
-0.108744

>  <SCORE.INTRA.DIHEDRAL.0>
2.45713

>  <SCORE.INTRA.POLAR>
0

>  <SCORE.INTRA.POLAR.0>
0

>  <SCORE.INTRA.REPUL>
0

>  <SCORE.INTRA.REPUL.0>
0

>  <SCORE.INTRA.SOLV>
-0.00196129

>  <SCORE.INTRA.SOLV.lig_0>
-7.17545

>  <SCORE.INTRA.VDW>
0.0702219

>  <SCORE.INTRA.VDW.0>
0.168428

>  <SCORE.INTRA.norm>
0.00148695

>  <SCORE.RESTR>
0

>  <SCORE.RESTR.CAVITY>
0

>  <SCORE.RESTR.norm>
0

>  <SCORE.SYSTEM>
-20.9141

>  <SCORE.SYSTEM.CONST>
0

>  <SCORE.SYSTEM.DIHEDRAL>
4.23444

>  <SCORE.SYSTEM.POLAR>
-2.99932

>  <SCORE.SYSTEM.SOLV>
0.284663

>  <SCORE.SYSTEM.VDW>
-5.45132

>  <SCORE.SYSTEM.norm>
-2.09141

>  <SCORE.heavy>
10

>  <SCORE.norm>
-3.17877

$$$$
P151246905
 OpenBabel12072022113D
libRbt.so/2013.1/901 2013/11/27
 11 11  0  0  0  0  0  0  0  0999 V2000
    5.4029   17.7663    6.4564 C   0  0  0  0  0  0  0  0  0  0  0  0
    5.2562   18.6616    5.2182 C   0  0  1  0  0  0  0  0  0  0  0  0
    6.3962   19.6982    5.1695 C   0  0  0  0  0  0  0  0  0  0  0  0
    7.7377   19.0824    4.7570 C   0  0  0  0  0  0  0  0  0  0  0  0
    7.6380   18.3797    3.4756 N   0  0  0  0  0  0  0  0  0  0  0  0
    6.6105   17.3254    3.5107 C   0  0  0  0  0  0  0  0  0  0  0  0
    5.2443   17.9080    3.8756 C   0  0  1  0  0  0  0  0  0  0  0  0
    4.1975   16.8250    3.8804 N   0  3  0  0  0  0  0  0  0  0  0  0
    4.4647   15.7519    4.4376 O   0  0  0  0  0  0  0  0  0  0  0  0
    3.1198   17.0943    3.3338 O   0  5  0  0  0  0  0  0  0  0  0  0
    8.5427   17.9632    3.2486 H   0  0  0  0  0  0  0  0  0  0  0  0
  2  1  1  1  0  0  0
  2  3  1  0  0  0  0
  2  7  1  0  0  0  0
  3  4  1  0  0  0  0
  4  5  1  0  0  0  0
  5  6  1  0  0  0  0
  5 11  1  0  0  0  0
  6  7  1  0  0  0  0
  7  8  1  1  0  0  0
  8  9  2  0  0  0  0
  8 10  1  0  0  0  0
M  CHG  2   8   1  10  -1
M  END
>  <CHROM.0>
-56.44893678,-61.85660577,-67.84093081,-47.71806595,-58.09786319,-66.30773494
-68.12946535,-58.98070907,-168.12266475

>  <CHROM.1>
-80.33481087,5.58112257,17.80444813,4.40156845,0.43030503,0.46472114,1.05682804

>  <Name>
P151246905

>  <RI>
3.1908e+07

>  <Rbt.Current_Directory>
/home/fstefaniak/projects/zuza/docking/adenine/4XNR

>  <Rbt.Executable>
rbdock ($Id: //depot/dev/client3/rdock/2013.1/src/exe/rbdock.cxx#4 $)

>  <Rbt.Library>
libRbt.so (2013.1, Build901 2013/11/27)

>  <Rbt.Parameter_File>
/home/fstefaniak/progs/rDock//data/scripts/dock_solv.prm

>  <Rbt.Receptor>
4xnr.prm

>  <SCORE>
-31.7702

>  <SCORE.INTER>
-10.7405

>  <SCORE.INTER.CONST>
1

>  <SCORE.INTER.POLAR>
-1.38376

>  <SCORE.INTER.ROT>
1

>  <SCORE.INTER.SOLV>
9.28589

>  <SCORE.INTER.VDW>
-9.90975

>  <SCORE.INTER.norm>
-1.07405

>  <SCORE.INTRA>
-0.104281

>  <SCORE.INTRA.DIHEDRAL>
-0.0058607

>  <SCORE.INTRA.DIHEDRAL.0>
2.45713

>  <SCORE.INTRA.POLAR>
0

>  <SCORE.INTRA.POLAR.0>
0

>  <SCORE.INTRA.REPUL>
0

>  <SCORE.INTRA.REPUL.0>
0

>  <SCORE.INTRA.SOLV>
-0.00831578

>  <SCORE.INTRA.SOLV.lig_0>
-7.17545

>  <SCORE.INTRA.VDW>
-0.0971932

>  <SCORE.INTRA.VDW.0>
0.168428

>  <SCORE.INTRA.norm>
-0.0104281

>  <SCORE.RESTR>
0

>  <SCORE.RESTR.CAVITY>
0

>  <SCORE.RESTR.norm>
0

>  <SCORE.SYSTEM>
-20.9254

>  <SCORE.SYSTEM.CONST>
0

>  <SCORE.SYSTEM.DIHEDRAL>
4.30812

>  <SCORE.SYSTEM.POLAR>
-2.99086

>  <SCORE.SYSTEM.SOLV>
0.275776

>  <SCORE.SYSTEM.VDW>
-5.50871

>  <SCORE.SYSTEM.norm>
-2.09254

>  <SCORE.heavy>
10

>  <SCORE.norm>
-3.17702

$$$$
P151246905
 OpenBabel12072022113D
libRbt.so/2013.1/901 2013/11/27
 11 11  0  0  0  0  0  0  0  0999 V2000
    5.4063   17.7531    6.4655 C   0  0  0  0  0  0  0  0  0  0  0  0
    5.2525   18.6449    5.2258 C   0  0  1  0  0  0  0  0  0  0  0  0
    6.3888   19.6853    5.1709 C   0  0  0  0  0  0  0  0  0  0  0  0
    7.7311   19.0731    4.7557 C   0  0  0  0  0  0  0  0  0  0  0  0
    7.6298   18.3672    3.4762 N   0  0  0  0  0  0  0  0  0  0  0  0
    6.6061   17.3094    3.5171 C   0  0  0  0  0  0  0  0  0  0  0  0
    5.2390   17.8882    3.8850 C   0  0  1  0  0  0  0  0  0  0  0  0
    4.1960   16.8016    3.8956 N   0  3  0  0  0  0  0  0  0  0  0  0
    3.1201   17.0140    3.3205 O   0  0  0  0  0  0  0  0  0  0  0  0
    4.4992   15.7489    4.4724 O   0  5  0  0  0  0  0  0  0  0  0  0
    8.5352   17.9532    3.2474 H   0  0  0  0  0  0  0  0  0  0  0  0
  2  1  1  1  0  0  0
  2  3  1  0  0  0  0
  2  7  1  0  0  0  0
  3  4  1  0  0  0  0
  4  5  1  0  0  0  0
  5  6  1  0  0  0  0
  5 11  1  0  0  0  0
  6  7  1  0  0  0  0
  7  8  1  1  0  0  0
  8  9  2  0  0  0  0
  8 10  1  0  0  0  0
M  CHG  2   8   1  10  -1
M  END
>  <CHROM.0>
-56.01823042,-61.46764233,-66.16989218,-48.30631791,-174.15792169,-64.06843301
-67.98774090,-61.38493729,-168.21363605

>  <CHROM.1>
101.17450562,5.58175193,17.78325273,4.40860292,0.43033986,0.47412824,1.06485050

>  <Name>
P151246905

>  <RI>
3.1908e+07

>  <Rbt.Current_Directory>
/home/fstefaniak/projects/zuza/docking/adenine/4XNR

>  <Rbt.Executable>
rbdock ($Id: //depot/dev/client3/rdock/2013.1/src/exe/rbdock.cxx#4 $)

>  <Rbt.Library>
libRbt.so (2013.1, Build901 2013/11/27)

>  <Rbt.Parameter_File>
/home/fstefaniak/progs/rDock//data/scripts/dock_solv.prm

>  <Rbt.Receptor>
4xnr.prm

>  <SCORE>
-31.7664

>  <SCORE.INTER>
-10.7937

>  <SCORE.INTER.CONST>
1

>  <SCORE.INTER.POLAR>
-1.39323

>  <SCORE.INTER.ROT>
1

>  <SCORE.INTER.SOLV>
9.2861

>  <SCORE.INTER.VDW>
-9.91372

>  <SCORE.INTER.norm>
-1.07937

>  <SCORE.INTRA>
0.0224737

>  <SCORE.INTRA.DIHEDRAL>
-0.106117

>  <SCORE.INTRA.DIHEDRAL.0>
2.45713

>  <SCORE.INTRA.POLAR>
0

>  <SCORE.INTRA.POLAR.0>
0

>  <SCORE.INTRA.REPUL>
0

>  <SCORE.INTRA.REPUL.0>
0

>  <SCORE.INTRA.SOLV>
-0.00329548

>  <SCORE.INTRA.SOLV.lig_0>
-7.17545

>  <SCORE.INTRA.VDW>
0.0771799

>  <SCORE.INTRA.VDW.0>
0.168428

>  <SCORE.INTRA.norm>
0.00224737

>  <SCORE.RESTR>
0

>  <SCORE.RESTR.CAVITY>
0

>  <SCORE.RESTR.norm>
0

>  <SCORE.SYSTEM>
-20.9952

>  <SCORE.SYSTEM.CONST>
0

>  <SCORE.SYSTEM.DIHEDRAL>
4.16598

>  <SCORE.SYSTEM.POLAR>
-2.98339

>  <SCORE.SYSTEM.SOLV>
0.104122

>  <SCORE.SYSTEM.VDW>
-5.47551

>  <SCORE.SYSTEM.norm>
-2.09952

>  <SCORE.heavy>
10

>  <SCORE.norm>
-3.17664

$$$$
P151250459
 OpenBabel12072022113D
libRbt.so/2013.1/901 2013/11/27
 15 16  0  0  0  0  0  0  0  0999 V2000
    7.1728   18.4023    0.7071 C   0  0  0  0  0  0  0  0  0  0  0  0
    6.1552   18.1297    1.7439 C   0  0  0  0  0  0  0  0  0  0  0  0
    6.1802   18.1957    3.1209 C   0  0  0  0  0  0  0  0  0  0  0  0
    4.8860   17.8015    3.5278 C   0  0  0  0  0  0  0  0  0  0  0  0
    4.1016   17.5033    2.5019 N   0  0  0  0  0  0  0  0  0  0  0  0
    4.8847   17.7184    1.4312 N   0  0  0  0  0  0  0  0  0  0  0  0
    4.4881   17.5587    0.5115 H   0  0  0  0  0  0  0  0  0  0  0  0
    4.5463   17.7609    4.8288 N   0  0  0  0  0  0  0  0  0  0  0  0
    5.6151   17.7523    5.8304 C   0  0  0  0  0  0  0  0  0  0  0  0
    6.6930   18.8248    5.4923 C   0  0  1  0  0  0  0  0  0  0  0  0
    7.2654   18.5509    4.0760 C   0  0  0  0  0  0  0  0  0  0  0  0
    6.1075   20.1817    5.5950 N   0  0  0  0  0  0  0  0  0  0  0  0
    3.7068   17.2421    5.0617 H   0  0  0  0  0  0  0  0  0  0  0  0
    5.5222   20.3127    4.7616 H   0  0  0  0  0  0  0  0  0  0  0  0
    6.8425   20.8824    5.5196 H   0  0  0  0  0  0  0  0  0  0  0  0
  1  2  1  0  0  0  0
  2  3  2  0  0  0  0
  2  6  1  0  0  0  0
  3  4  1  0  0  0  0
  3 11  1  0  0  0  0
  4  5  2  0  0  0  0
  4  8  1  0  0  0  0
  5  6  1  0  0  0  0
  6  7  1  0  0  0  0
  8  9  1  0  0  0  0
  8 13  1  0  0  0  0
  9 10  1  0  0  0  0
 10 11  1  0  0  0  0
 10 12  1  6  0  0  0
 12 14  1  0  0  0  0
 12 15  1  0  0  0  0
M  END
>  <CHROM.0>
-57.44684427,-62.35530791,-67.16617378,-48.66520906,-59.93584165,-61.24528981
-68.19807937,-59.45178259,-168.15597976

>  <CHROM.1>
-75.32098847,5.77081307,18.28185960,3.54119343,-1.62237823,0.49226670,1.38760520

>  <Name>
P151250459

>  <RI>
9.71178e+06

>  <Rbt.Current_Directory>
/home/fstefaniak/projects/zuza/docking/adenine/4XNR

>  <Rbt.Executable>
rbdock ($Id: //depot/dev/client3/rdock/2013.1/src/exe/rbdock.cxx#4 $)

>  <Rbt.Library>
libRbt.so (2013.1, Build901 2013/11/27)

>  <Rbt.Parameter_File>
/home/fstefaniak/progs/rDock//data/scripts/dock_solv.prm

>  <Rbt.Receptor>
4xnr.prm

>  <SCORE>
-49.3591

>  <SCORE.INTER>
-28.0782

>  <SCORE.INTER.CONST>
1

>  <SCORE.INTER.POLAR>
-3.62486

>  <SCORE.INTER.ROT>
1

>  <SCORE.INTER.SOLV>
15.4342

>  <SCORE.INTER.VDW>
-16.0473

>  <SCORE.INTER.norm>
-2.55256

>  <SCORE.INTRA>
-0.354504

>  <SCORE.INTRA.DIHEDRAL>
-0.258183

>  <SCORE.INTRA.DIHEDRAL.0>
0.507822

>  <SCORE.INTRA.POLAR>
0.0267913

>  <SCORE.INTRA.POLAR.0>
-0.0267913

>  <SCORE.INTRA.REPUL>
0

>  <SCORE.INTRA.REPUL.0>
0

>  <SCORE.INTRA.SOLV>
-0.0548045

>  <SCORE.INTRA.SOLV.lig_0>
-15.484

>  <SCORE.INTRA.VDW>
-0.2891

>  <SCORE.INTRA.VDW.0>
0.225154

>  <SCORE.INTRA.norm>
-0.0322276

>  <SCORE.RESTR>
0

>  <SCORE.RESTR.CAVITY>
0

>  <SCORE.RESTR.norm>
0

>  <SCORE.SYSTEM>
-20.9265

>  <SCORE.SYSTEM.CONST>
0

>  <SCORE.SYSTEM.DIHEDRAL>
3.95394

>  <SCORE.SYSTEM.POLAR>
-2.96425

>  <SCORE.SYSTEM.SOLV>
0.280988

>  <SCORE.SYSTEM.VDW>
-5.48181

>  <SCORE.SYSTEM.norm>
-1.90241

>  <SCORE.heavy>
11

>  <SCORE.norm>
-4.48719

$$$$
P151250459
 OpenBabel12072022113D
libRbt.so/2013.1/901 2013/11/27
 15 16  0  0  0  0  0  0  0  0999 V2000
    7.2119   18.3920    0.7264 C   0  0  0  0  0  0  0  0  0  0  0  0
    6.1834   18.1250    1.7541 C   0  0  0  0  0  0  0  0  0  0  0  0
    6.1979   18.1860    3.1314 C   0  0  0  0  0  0  0  0  0  0  0  0
    4.8970   17.8021    3.5265 C   0  0  0  0  0  0  0  0  0  0  0  0
    4.1183   17.5147    2.4933 N   0  0  0  0  0  0  0  0  0  0  0  0
    4.9119   17.7264    1.4297 N   0  0  0  0  0  0  0  0  0  0  0  0
    4.5213   17.5735    0.5063 H   0  0  0  0  0  0  0  0  0  0  0  0
    4.5465   17.7601    4.8246 N   0  0  0  0  0  0  0  0  0  0  0  0
    5.6070   17.7382    5.8347 C   0  0  0  0  0  0  0  0  0  0  0  0
    6.6973   18.8021    5.5091 C   0  0  1  0  0  0  0  0  0  0  0  0
    7.2786   18.5279    4.0965 C   0  0  0  0  0  0  0  0  0  0  0  0
    6.1233   20.1639    5.6119 N   0  0  0  0  0  0  0  0  0  0  0  0
    3.7004   17.2482    5.0489 H   0  0  0  0  0  0  0  0  0  0  0  0
    5.5322   20.2967    4.7829 H   0  0  0  0  0  0  0  0  0  0  0  0
    6.8631   20.8585    5.5280 H   0  0  0  0  0  0  0  0  0  0  0  0
  1  2  1  0  0  0  0
  2  3  2  0  0  0  0
  2  6  1  0  0  0  0
  3  4  1  0  0  0  0
  3 11  1  0  0  0  0
  4  5  2  0  0  0  0
  4  8  1  0  0  0  0
  5  6  1  0  0  0  0
  6  7  1  0  0  0  0
  8  9  1  0  0  0  0
  8 13  1  0  0  0  0
  9 10  1  0  0  0  0
 10 11  1  0  0  0  0
 10 12  1  6  0  0  0
 12 14  1  0  0  0  0
 12 15  1  0  0  0  0
M  END
>  <CHROM.0>
-59.95563261,-62.88087397,-73.76176158,-47.80665496,-58.15343197,-174.38444196
-171.66324142,-57.17300667,-167.26182029

>  <CHROM.1>
-74.29933769,5.78588580,18.27434925,3.54866858,-1.61509322,0.48174103,1.38781985

>  <Name>
P151250459

>  <RI>
9.71178e+06

>  <Rbt.Current_Directory>
/home/fstefaniak/projects/zuza/docking/adenine/4XNR

>  <Rbt.Executable>
rbdock ($Id: //depot/dev/client3/rdock/2013.1/src/exe/rbdock.cxx#4 $)

>  <Rbt.Library>
libRbt.so (2013.1, Build901 2013/11/27)

>  <Rbt.Parameter_File>
/home/fstefaniak/progs/rDock//data/scripts/dock_solv.prm

>  <Rbt.Receptor>
4xnr.prm

>  <SCORE>
-48.5656

>  <SCORE.INTER>
-28.1212

>  <SCORE.INTER.CONST>
1

>  <SCORE.INTER.POLAR>
-3.51586

>  <SCORE.INTER.ROT>
1

>  <SCORE.INTER.SOLV>
15.4027

>  <SCORE.INTER.VDW>
-16.4288

>  <SCORE.INTER.norm>
-2.55648

>  <SCORE.INTRA>
-0.377159

>  <SCORE.INTRA.DIHEDRAL>
-0.294224

>  <SCORE.INTRA.DIHEDRAL.0>
0.507822

>  <SCORE.INTRA.POLAR>
0.0267913

>  <SCORE.INTRA.POLAR.0>
-0.0267913

>  <SCORE.INTRA.REPUL>
0

>  <SCORE.INTRA.REPUL.0>
0

>  <SCORE.INTRA.SOLV>
-0.0533303

>  <SCORE.INTRA.SOLV.lig_0>
-15.484

>  <SCORE.INTRA.VDW>
-0.294472

>  <SCORE.INTRA.VDW.0>
0.225154

>  <SCORE.INTRA.norm>
-0.0342872

>  <SCORE.RESTR>
0

>  <SCORE.RESTR.CAVITY>
0

>  <SCORE.RESTR.norm>
0

>  <SCORE.SYSTEM>
-20.0672

>  <SCORE.SYSTEM.CONST>
0

>  <SCORE.SYSTEM.DIHEDRAL>
4.91308

>  <SCORE.SYSTEM.POLAR>
-2.9472

>  <SCORE.SYSTEM.SOLV>
0.115906

>  <SCORE.SYSTEM.VDW>
-5.23049

>  <SCORE.SYSTEM.norm>
-1.8243

>  <SCORE.heavy>
11

>  <SCORE.norm>
-4.41506

$$$$
P151250459
 OpenBabel12072022113D
libRbt.so/2013.1/901 2013/11/27
 15 16  0  0  0  0  0  0  0  0999 V2000
    7.1627   18.3955    0.7388 C   0  0  0  0  0  0  0  0  0  0  0  0
    6.1494   18.1315    1.7822 C   0  0  0  0  0  0  0  0  0  0  0  0
    6.1840   18.1967    3.1589 C   0  0  0  0  0  0  0  0  0  0  0  0
    4.8889   17.8140    3.5741 C   0  0  0  0  0  0  0  0  0  0  0  0
    4.0953   17.5234    2.5533 N   0  0  0  0  0  0  0  0  0  0  0  0
    4.8733   17.7319    1.4776 N   0  0  0  0  0  0  0  0  0  0  0  0
    4.4692   17.5762    0.5604 H   0  0  0  0  0  0  0  0  0  0  0  0
    4.5574   17.7759    4.8774 N   0  0  0  0  0  0  0  0  0  0  0  0
    5.6326   17.7571    5.8719 C   0  0  0  0  0  0  0  0  0  0  0  0
    6.7179   18.8200    5.5272 C   0  0  1  0  0  0  0  0  0  0  0  0
    7.2786   18.5416    4.1071 C   0  0  0  0  0  0  0  0  0  0  0  0
    6.1454   20.1821    5.6343 N   0  0  0  0  0  0  0  0  0  0  0  0
    3.7147   17.2646    5.1155 H   0  0  0  0  0  0  0  0  0  0  0  0
    5.5768   20.3286    4.7919 H   0  0  0  0  0  0  0  0  0  0  0  0
    6.8892   20.8754    5.5799 H   0  0  0  0  0  0  0  0  0  0  0  0
  1  2  1  0  0  0  0
  2  3  2  0  0  0  0
  2  6  1  0  0  0  0
  3  4  1  0  0  0  0
  3 11  1  0  0  0  0
  4  5  2  0  0  0  0
  4  8  1  0  0  0  0
  5  6  1  0  0  0  0
  6  7  1  0  0  0  0
  8  9  1  0  0  0  0
  8 13  1  0  0  0  0
  9 10  1  0  0  0  0
 10 11  1  0  0  0  0
 10 12  1  6  0  0  0
 12 14  1  0  0  0  0
 12 15  1  0  0  0  0
M  END
>  <CHROM.0>
-58.69772223,-63.74925966,-74.55762499,-46.00779887,-57.33310638,-175.53073931
-171.10131498,-176.67855167,-168.39792079

>  <CHROM.1>
-76.85857445,5.77831554,18.28640971,3.58204888,-1.63176059,0.48472930,1.39231247

>  <Name>
P151250459

>  <RI>
9.71178e+06

>  <Rbt.Current_Directory>
/home/fstefaniak/projects/zuza/docking/adenine/4XNR

>  <Rbt.Executable>
rbdock ($Id: //depot/dev/client3/rdock/2013.1/src/exe/rbdock.cxx#4 $)

>  <Rbt.Library>
libRbt.so (2013.1, Build901 2013/11/27)

>  <Rbt.Parameter_File>
/home/fstefaniak/progs/rDock//data/scripts/dock_solv.prm

>  <Rbt.Receptor>
4xnr.prm

>  <SCORE>
-48.5529

>  <SCORE.INTER>
-28.2122

>  <SCORE.INTER.CONST>
1

>  <SCORE.INTER.POLAR>
-3.46222

>  <SCORE.INTER.ROT>
1

>  <SCORE.INTER.SOLV>
15.3872

>  <SCORE.INTER.VDW>
-16.6632

>  <SCORE.INTER.norm>
-2.56475

>  <SCORE.INTRA>
-0.309143

>  <SCORE.INTRA.DIHEDRAL>
-0.198851

>  <SCORE.INTRA.DIHEDRAL.0>
0.507822

>  <SCORE.INTRA.POLAR>
0.0267913

>  <SCORE.INTRA.POLAR.0>
-0.0267913

>  <SCORE.INTRA.REPUL>
0

>  <SCORE.INTRA.REPUL.0>
0

>  <SCORE.INTRA.SOLV>
-0.0571235

>  <SCORE.INTRA.SOLV.lig_0>
-15.484

>  <SCORE.INTRA.VDW>
-0.272246

>  <SCORE.INTRA.VDW.0>
0.225154

>  <SCORE.INTRA.norm>
-0.0281039

>  <SCORE.RESTR>
0

>  <SCORE.RESTR.CAVITY>
0

>  <SCORE.RESTR.norm>
0

>  <SCORE.SYSTEM>
-20.0315

>  <SCORE.SYSTEM.CONST>
0

>  <SCORE.SYSTEM.DIHEDRAL>
5.15571

>  <SCORE.SYSTEM.POLAR>
-2.97203

>  <SCORE.SYSTEM.SOLV>
-0.018299

>  <SCORE.SYSTEM.VDW>
-5.16006

>  <SCORE.SYSTEM.norm>
-1.82105

>  <SCORE.heavy>
11

>  <SCORE.norm>
-4.4139

$$$$
P151391838
 OpenBabel12072022113D
libRbt.so/2013.1/901 2013/11/27
 17 17  0  0  0  0  0  0  0  0999 V2000
    6.6095   16.7628    2.9857 C   0  0  0  0  0  0  0  0  0  0  0  0
    7.3318   18.0056    3.5109 C   0  0  2  0  0  0  0  0  0  0  0  0
    6.5041   18.5006    4.7238 C   0  0  2  0  0  0  0  0  0  0  0  0
    5.3319   17.5271    4.8547 C   0  0  0  0  0  0  0  0  0  0  0  0
    5.1491   16.9092    3.4502 C   0  0  1  0  0  0  0  0  0  0  0  0
    4.2723   17.7816    2.5111 C   0  0  0  0  0  0  0  0  0  0  0  0
    4.7342   17.8194    1.1136 N   0  3  0  0  0  0  0  0  0  0  0  0
    4.5604   18.7475    0.6808 H   0  0  0  0  0  0  0  0  0  0  0  0
    5.7689   17.7459    1.0445 H   0  0  0  0  0  0  0  0  0  0  0  0
    4.3180   17.1026    0.5138 H   0  0  0  0  0  0  0  0  0  0  0  0
    4.4814   15.5247    3.5522 C   0  0  0  0  0  0  0  0  0  0  0  0
    3.1801   15.6796    4.0957 O   0  0  0  0  0  0  0  0  0  0  0  0
    5.9622   19.8084    4.4817 O   0  0  0  0  0  0  0  0  0  0  0  0
    7.3514   18.9801    2.4583 O   0  0  0  0  0  0  0  0  0  0  0  0
    3.2795   16.0286    5.0031 H   0  0  0  0  0  0  0  0  0  0  0  0
    6.7204   20.4294    4.5320 H   0  0  0  0  0  0  0  0  0  0  0  0
    7.7770   18.5323    1.6964 H   0  0  0  0  0  0  0  0  0  0  0  0
  1  2  1  0  0  0  0
  1  5  1  0  0  0  0
  2 14  1  6  0  0  0
  2  3  1  0  0  0  0
  3  4  1  0  0  0  0
  3 13  1  6  0  0  0
  4  5  1  0  0  0  0
  5  6  1  6  0  0  0
  5 11  1  0  0  0  0
  6  7  1  0  0  0  0
  7  8  1  0  0  0  0
  7  9  1  0  0  0  0
  7 10  1  0  0  0  0
 11 12  1  0  0  0  0
 12 15  1  0  0  0  0
 13 16  1  0  0  0  0
 14 17  1  0  0  0  0
M  CHG  1   7   1
M  END
>  <CHROM.0>
-61.01859780,-65.37207517,60.59501300,-47.72283729,-58.30386529,-62.58337852
52.59782162,-53.29418530,-167.66102343

>  <CHROM.1>
-55.94431267,-72.47375349,25.95446964,174.80070433,-145.35203241,-63.56859482
5.51845423,17.61326234,3.38707198,0.01821341,-0.77389874,-1.54641837

>  <Name>
P151391838

>  <RI>
2.22087e+07

>  <Rbt.Current_Directory>
/home/fstefaniak/projects/zuza/docking/adenine/4XNR

>  <Rbt.Executable>
rbdock ($Id: //depot/dev/client3/rdock/2013.1/src/exe/rbdock.cxx#4 $)

>  <Rbt.Library>
libRbt.so (2013.1, Build901 2013/11/27)

>  <Rbt.Parameter_File>
/home/fstefaniak/progs/rDock//data/scripts/dock_solv.prm

>  <Rbt.Receptor>
4xnr.prm

>  <SCORE>
-41.3142

>  <SCORE.INTER>
-28.1268

>  <SCORE.INTER.CONST>
1

>  <SCORE.INTER.POLAR>
-5.11489

>  <SCORE.INTER.ROT>
2

>  <SCORE.INTER.SOLV>
22.3154

>  <SCORE.INTER.VDW>
-14.0733

>  <SCORE.INTER.norm>
-2.55698

>  <SCORE.INTRA>
5.68932

>  <SCORE.INTRA.DIHEDRAL>
1.44602

>  <SCORE.INTRA.DIHEDRAL.0>
4.85615

>  <SCORE.INTRA.POLAR>
1.90521

>  <SCORE.INTRA.POLAR.0>
-1.90521

>  <SCORE.INTRA.REPUL>
0

>  <SCORE.INTRA.REPUL.0>
0

>  <SCORE.INTRA.SOLV>
-5.35864

>  <SCORE.INTRA.SOLV.lig_0>
-29.279

>  <SCORE.INTRA.VDW>
1.16792

>  <SCORE.INTRA.VDW.0>
0.000141062

>  <SCORE.INTRA.norm>
0.517211

>  <SCORE.RESTR>
0

>  <SCORE.RESTR.CAVITY>
0

>  <SCORE.RESTR.norm>
0

>  <SCORE.SYSTEM>
-18.8767

>  <SCORE.SYSTEM.CONST>
0

>  <SCORE.SYSTEM.DIHEDRAL>
4.1421

>  <SCORE.SYSTEM.POLAR>
-2.95851

>  <SCORE.SYSTEM.SOLV>
0.189197

>  <SCORE.SYSTEM.VDW>
-4.16656

>  <SCORE.SYSTEM.norm>
-1.71607

>  <SCORE.heavy>
11

>  <SCORE.norm>
-3.75583

$$$$
P151391838
 OpenBabel12072022113D
libRbt.so/2013.1/901 2013/11/27
 17 17  0  0  0  0  0  0  0  0999 V2000
    6.5738   16.7112    2.9852 C   0  0  0  0  0  0  0  0  0  0  0  0
    7.2613   17.9503    3.5634 C   0  0  2  0  0  0  0  0  0  0  0  0
    6.4114   18.3795    4.7860 C   0  0  2  0  0  0  0  0  0  0  0  0
    5.2619   17.3742    4.8691 C   0  0  0  0  0  0  0  0  0  0  0  0
    5.1063   16.8054    3.4408 C   0  0  1  0  0  0  0  0  0  0  0  0
    4.2169   17.6914    2.5266 C   0  0  0  0  0  0  0  0  0  0  0  0
    4.6940   17.7987    1.1379 N   0  3  0  0  0  0  0  0  0  0  0  0
    4.4819   18.7320    0.7341 H   0  0  0  0  0  0  0  0  0  0  0  0
    5.7318   17.7762    1.0809 H   0  0  0  0  0  0  0  0  0  0  0  0
    4.3198   17.0841    0.5085 H   0  0  0  0  0  0  0  0  0  0  0  0
    4.4712   15.4026    3.4846 C   0  0  0  0  0  0  0  0  0  0  0  0
    3.1396   15.5143    3.9613 O   0  0  0  0  0  0  0  0  0  0  0  0
    5.8403   19.6823    4.5877 O   0  0  0  0  0  0  0  0  0  0  0  0
    7.2666   18.9638    2.5481 O   0  0  0  0  0  0  0  0  0  0  0  0
    3.1806   15.8797    4.8668 H   0  0  0  0  0  0  0  0  0  0  0  0
    5.6336   20.0266    5.4831 H   0  0  0  0  0  0  0  0  0  0  0  0
    7.6644   18.5395    1.7583 H   0  0  0  0  0  0  0  0  0  0  0  0
  1  2  1  0  0  0  0
  1  5  1  0  0  0  0
  2 14  1  6  0  0  0
  2  3  1  0  0  0  0
  3  4  1  0  0  0  0
  3 13  1  6  0  0  0
  4  5  1  0  0  0  0
  5  6  1  6  0  0  0
  5 11  1  0  0  0  0
  6  7  1  0  0  0  0
  7  8  1  0  0  0  0
  7  9  1  0  0  0  0
  7 10  1  0  0  0  0
 11 12  1  0  0  0  0
 12 15  1  0  0  0  0
 13 16  1  0  0  0  0
 14 17  1  0  0  0  0
M  CHG  1   7   1
M  END
>  <CHROM.0>
-55.86433872,-64.03264926,-66.43595261,-45.27299035,-57.83459619,-59.25133226
-69.90348382,-58.15946399,-167.32623383

>  <CHROM.1>
-52.89490028,-158.31273131,25.63477137,177.54414156,-146.55530486,-61.57442537
5.45075573,17.51985117,3.40639779,-0.02680811,-0.79479484,-1.54360539

>  <Name>
P151391838

>  <RI>
2.22087e+07

>  <Rbt.Current_Directory>
/home/fstefaniak/projects/zuza/docking/adenine/4XNR

>  <Rbt.Executable>
rbdock ($Id: //depot/dev/client3/rdock/2013.1/src/exe/rbdock.cxx#4 $)

>  <Rbt.Library>
libRbt.so (2013.1, Build901 2013/11/27)

>  <Rbt.Parameter_File>
/home/fstefaniak/progs/rDock//data/scripts/dock_solv.prm

>  <Rbt.Receptor>
4xnr.prm

>  <SCORE>
-39.9219

>  <SCORE.INTER>
-25.6075

>  <SCORE.INTER.CONST>
1

>  <SCORE.INTER.POLAR>
-4.49656

>  <SCORE.INTER.ROT>
2

>  <SCORE.INTER.SOLV>
22.0189

>  <SCORE.INTER.VDW>
-14.3561

>  <SCORE.INTER.norm>
-2.32795

>  <SCORE.INTRA>
6.44847

>  <SCORE.INTRA.DIHEDRAL>
2.81419

>  <SCORE.INTRA.DIHEDRAL.0>
4.85615

>  <SCORE.INTRA.POLAR>
1.90521

>  <SCORE.INTRA.POLAR.0>
-1.90521

>  <SCORE.INTRA.REPUL>
0

>  <SCORE.INTRA.REPUL.0>
0

>  <SCORE.INTRA.SOLV>
-5.42889

>  <SCORE.INTRA.SOLV.lig_0>
-29.279

>  <SCORE.INTRA.VDW>
1.27812

>  <SCORE.INTRA.VDW.0>
0.000141062

>  <SCORE.INTRA.norm>
0.586225

>  <SCORE.RESTR>
0

>  <SCORE.RESTR.CAVITY>
0

>  <SCORE.RESTR.norm>
0

>  <SCORE.SYSTEM>
-20.7629

>  <SCORE.SYSTEM.CONST>
0

>  <SCORE.SYSTEM.DIHEDRAL>
4.65387

>  <SCORE.SYSTEM.POLAR>
-3.04035

>  <SCORE.SYSTEM.SOLV>
0.292734

>  <SCORE.SYSTEM.VDW>
-5.35629

>  <SCORE.SYSTEM.norm>
-1.88753

>  <SCORE.heavy>
11

>  <SCORE.norm>
-3.62926

$$$$
P151391838
 OpenBabel12072022113D
libRbt.so/2013.1/901 2013/11/27
 17 17  0  0  0  0  0  0  0  0999 V2000
    6.6199   16.7739    2.9795 C   0  0  0  0  0  0  0  0  0  0  0  0
    7.3361   18.0102    3.5278 C   0  0  2  0  0  0  0  0  0  0  0  0
    6.5018   18.4831    4.7450 C   0  0  2  0  0  0  0  0  0  0  0  0
    5.3320   17.5042    4.8551 C   0  0  0  0  0  0  0  0  0  0  0  0
    5.1571   16.9085    3.4401 C   0  0  1  0  0  0  0  0  0  0  0  0
    4.2816   17.7933    2.5115 C   0  0  0  0  0  0  0  0  0  0  0  0
    4.7562   17.8649    1.1196 N   0  3  0  0  0  0  0  0  0  0  0  0
    4.3010   17.1450    0.5251 H   0  0  0  0  0  0  0  0  0  0  0  0
    4.4565   18.7436    0.6518 H   0  0  0  0  0  0  0  0  0  0  0  0
    5.7699   17.7726    1.0158 H   0  0  0  0  0  0  0  0  0  0  0  0
    4.4932   15.5205    3.5169 C   0  0  0  0  0  0  0  0  0  0  0  0
    3.1750   15.6675    4.0204 O   0  0  0  0  0  0  0  0  0  0  0  0
    5.9569   19.7931    4.5216 O   0  0  0  0  0  0  0  0  0  0  0  0
    7.3572   19.0016    2.4911 O   0  0  0  0  0  0  0  0  0  0  0  0
    3.2439   16.0325    4.9244 H   0  0  0  0  0  0  0  0  0  0  0  0
    6.7148   20.4143    4.5743 H   0  0  0  0  0  0  0  0  0  0  0  0
    7.7917   18.5690    1.7255 H   0  0  0  0  0  0  0  0  0  0  0  0
  1  2  1  0  0  0  0
  1  5  1  0  0  0  0
  2 14  1  6  0  0  0
  2  3  1  0  0  0  0
  3  4  1  0  0  0  0
  3 13  1  6  0  0  0
  4  5  1  0  0  0  0
  5  6  1  6  0  0  0
  5 11  1  0  0  0  0
  6  7  1  0  0  0  0
  7  8  1  0  0  0  0
  7  9  1  0  0  0  0
  7 10  1  0  0  0  0
 11 12  1  0  0  0  0
 12 15  1  0  0  0  0
 13 16  1  0  0  0  0
 14 17  1  0  0  0  0
M  CHG  1   7   1
M  END
>  <CHROM.0>
-55.06649217,-59.43148946,59.87373016,-46.91703372,-58.81977324,56.36016960
51.90472107,-58.94028658,-168.75447267

>  <CHROM.1>
-56.23666137,-71.80112327,25.42485628,176.49589824,92.96532847,-62.33915209
5.52247259,17.61571809,3.38578278,0.00738649,-0.77441023,-1.53067698

>  <Name>
P151391838

>  <RI>
2.22087e+07

>  <Rbt.Current_Directory>
/home/fstefaniak/projects/zuza/docking/adenine/4XNR

>  <Rbt.Executable>
rbdock ($Id: //depot/dev/client3/rdock/2013.1/src/exe/rbdock.cxx#4 $)

>  <Rbt.Library>
libRbt.so (2013.1, Build901 2013/11/27)

>  <Rbt.Parameter_File>
/home/fstefaniak/progs/rDock//data/scripts/dock_solv.prm

>  <Rbt.Receptor>
4xnr.prm

>  <SCORE>
-39.449

>  <SCORE.INTER>
-26.9196

>  <SCORE.INTER.CONST>
1

>  <SCORE.INTER.POLAR>
-4.84355

>  <SCORE.INTER.ROT>
2

>  <SCORE.INTER.SOLV>
22.3062

>  <SCORE.INTER.VDW>
-14.17

>  <SCORE.INTER.norm>
-2.44724

>  <SCORE.INTRA>
5.25005

>  <SCORE.INTRA.DIHEDRAL>
1.23498

>  <SCORE.INTRA.DIHEDRAL.0>
4.85615

>  <SCORE.INTRA.POLAR>
1.90521

>  <SCORE.INTRA.POLAR.0>
-1.90521

>  <SCORE.INTRA.REPUL>
0

>  <SCORE.INTRA.REPUL.0>
0

>  <SCORE.INTRA.SOLV>
-5.60603

>  <SCORE.INTRA.SOLV.lig_0>
-29.279

>  <SCORE.INTRA.VDW>
0.957868

>  <SCORE.INTRA.VDW.0>
0.000141062

>  <SCORE.INTRA.norm>
0.477278

>  <SCORE.RESTR>
0

>  <SCORE.RESTR.CAVITY>
0

>  <SCORE.RESTR.norm>
0

>  <SCORE.SYSTEM>
-17.7794

>  <SCORE.SYSTEM.CONST>
0

>  <SCORE.SYSTEM.DIHEDRAL>
3.96657

>  <SCORE.SYSTEM.POLAR>
-2.98069

>  <SCORE.SYSTEM.SOLV>
0.0738138

>  <SCORE.SYSTEM.VDW>
-3.26409

>  <SCORE.SYSTEM.norm>
-1.61631

>  <SCORE.heavy>
11

>  <SCORE.norm>
-3.58627

$$$$
P151705215
 OpenBabel12072022113D
libRbt.so/2013.1/901 2013/11/27
 12 13  0  0  0  0  0  0  0  0999 V2000
    1.3942   13.9688    4.0607 C   0  0  0  0  0  0  0  0  0  0  0  0
    2.2845   15.1170    4.0505 N   0  0  0  0  0  0  0  0  0  0  0  0
    1.6465   16.4223    4.0362 C   0  0  0  0  0  0  0  0  0  0  0  0
    3.6263   14.9139    3.6882 C   0  0  0  0  0  0  0  0  0  0  0  0
    4.0631   13.7628    3.5310 O   0  0  0  0  0  0  0  0  0  0  0  0
    4.5455   16.1477    3.4825 C   0  0  2  0  0  0  0  0  0  0  0  0
    4.9236   17.0365    4.7301 C   0  0  0  0  0  0  0  0  0  0  0  0
    5.3007   18.0285    3.6018 C   0  0  2  0  0  0  0  0  0  0  0  0
    4.0189   17.5024    2.8983 C   0  0  0  0  0  0  0  0  0  0  0  0
    6.4202   17.3054    2.8811 C   0  0  0  0  0  0  0  0  0  0  0  0
    5.8688   15.9468    2.8093 N   0  0  0  0  0  0  0  0  0  0  0  0
    6.4738   15.3049    3.3236 H   0  0  0  0  0  0  0  0  0  0  0  0
  1  2  1  0  0  0  0
  2  3  1  0  0  0  0
  2  4  1  0  0  0  0
  4  5  2  0  0  0  0
  6  4  1  1  0  0  0
  6  7  1  0  0  0  0
  6  9  1  0  0  0  0
  6 11  1  0  0  0  0
  8  7  1  1  0  0  0
  8  9  1  0  0  0  0
  8 10  1  0  0  0  0
 10 11  1  0  0  0  0
 11 12  1  0  0  0  0
M  END
>  <CHROM.0>
-56.95542840,-61.88621552,-73.50589842,-45.98751511,-59.95725430,-60.13603257
-174.14552648,-58.72269708,-168.24726723

>  <CHROM.1>
67.58943548,3.98219305,15.96926890,3.61902626,-2.53489225,0.23279465,0.06150562

>  <Name>
P151705215

>  <RI>
3.1908e+07

>  <Rbt.Current_Directory>
/home/fstefaniak/projects/zuza/docking/adenine/4XNR

>  <Rbt.Executable>
rbdock ($Id: //depot/dev/client3/rdock/2013.1/src/exe/rbdock.cxx#4 $)

>  <Rbt.Library>
libRbt.so (2013.1, Build901 2013/11/27)

>  <Rbt.Parameter_File>
/home/fstefaniak/progs/rDock//data/scripts/dock_solv.prm

>  <Rbt.Receptor>
4xnr.prm

>  <SCORE>
-39.8402

>  <SCORE.INTER>
-22.888

>  <SCORE.INTER.CONST>
1

>  <SCORE.INTER.POLAR>
-1.96738

>  <SCORE.INTER.ROT>
1

>  <SCORE.INTER.SOLV>
9.67416

>  <SCORE.INTER.VDW>
-16.1921

>  <SCORE.INTER.norm>
-2.08073

>  <SCORE.INTRA>
3.36965

>  <SCORE.INTRA.DIHEDRAL>
0.485474

>  <SCORE.INTRA.DIHEDRAL.0>
0.454189

>  <SCORE.INTRA.POLAR>
0

>  <SCORE.INTRA.POLAR.0>
0

>  <SCORE.INTRA.REPUL>
0

>  <SCORE.INTRA.REPUL.0>
0

>  <SCORE.INTRA.SOLV>
-0.259287

>  <SCORE.INTRA.SOLV.lig_0>
-8.63405

>  <SCORE.INTRA.VDW>
3.25656

>  <SCORE.INTRA.VDW.0>
-0.877416

>  <SCORE.INTRA.norm>
0.306332

>  <SCORE.RESTR>
0

>  <SCORE.RESTR.CAVITY>
0

>  <SCORE.RESTR.norm>
0

>  <SCORE.SYSTEM>
-20.3218

>  <SCORE.SYSTEM.CONST>
0

>  <SCORE.SYSTEM.DIHEDRAL>
4.669

>  <SCORE.SYSTEM.POLAR>
-2.99345

>  <SCORE.SYSTEM.SOLV>
0.238361

>  <SCORE.SYSTEM.VDW>
-5.2055

>  <SCORE.SYSTEM.norm>
-1.84744

>  <SCORE.heavy>
11

>  <SCORE.norm>
-3.62184

$$$$
P151705215
 OpenBabel12072022113D
libRbt.so/2013.1/901 2013/11/27
 12 13  0  0  0  0  0  0  0  0999 V2000
    1.2770   14.0933    3.8330 C   0  0  0  0  0  0  0  0  0  0  0  0
    2.2009   15.2145    3.8595 N   0  0  0  0  0  0  0  0  0  0  0  0
    1.6063   16.5369    3.7676 C   0  0  0  0  0  0  0  0  0  0  0  0
    3.5582   14.9629    3.6002 C   0  0  0  0  0  0  0  0  0  0  0  0
    3.9694   13.7958    3.5028 O   0  0  0  0  0  0  0  0  0  0  0  0
    4.5275   16.1636    3.4318 C   0  0  2  0  0  0  0  0  0  0  0  0
    4.8542   17.0647    4.6851 C   0  0  0  0  0  0  0  0  0  0  0  0
    5.3334   18.0222    3.5660 C   0  0  2  0  0  0  0  0  0  0  0  0
    4.0825   17.5221    2.7914 C   0  0  0  0  0  0  0  0  0  0  0  0
    6.4725   17.2511    2.9310 C   0  0  0  0  0  0  0  0  0  0  0  0
    5.8837   15.9090    2.8482 N   0  0  0  0  0  0  0  0  0  0  0  0
    6.4341   15.2590    3.4113 H   0  0  0  0  0  0  0  0  0  0  0  0
  1  2  1  0  0  0  0
  2  3  1  0  0  0  0
  2  4  1  0  0  0  0
  4  5  2  0  0  0  0
  6  4  1  1  0  0  0
  6  7  1  0  0  0  0
  6  9  1  0  0  0  0
  6 11  1  0  0  0  0
  8  7  1  1  0  0  0
  8  9  1  0  0  0  0
  8 10  1  0  0  0  0
 10 11  1  0  0  0  0
 11 12  1  0  0  0  0
M  END
>  <CHROM.0>
-56.08061638,43.69057682,-67.70554112,-47.20334492,-175.17001247,-63.23831850
-68.33507221,-59.69284880,-167.41787775

>  <CHROM.1>
68.20527421,3.95092486,16.00508537,3.53136316,-2.56205390,0.16076696,0.04320775

>  <Name>
P151705215

>  <RI>
3.1908e+07

>  <Rbt.Current_Directory>
/home/fstefaniak/projects/zuza/docking/adenine/4XNR

>  <Rbt.Executable>
rbdock ($Id: //depot/dev/client3/rdock/2013.1/src/exe/rbdock.cxx#4 $)

>  <Rbt.Library>
libRbt.so (2013.1, Build901 2013/11/27)

>  <Rbt.Parameter_File>
/home/fstefaniak/progs/rDock//data/scripts/dock_solv.prm

>  <Rbt.Receptor>
4xnr.prm

>  <SCORE>
-38.917

>  <SCORE.INTER>
-22.4559

>  <SCORE.INTER.CONST>
1

>  <SCORE.INTER.POLAR>
-1.94399

>  <SCORE.INTER.ROT>
1

>  <SCORE.INTER.SOLV>
9.55112

>  <SCORE.INTER.VDW>
-15.941

>  <SCORE.INTER.norm>
-2.04145

>  <SCORE.INTRA>
3.4819

>  <SCORE.INTRA.DIHEDRAL>
0.521857

>  <SCORE.INTRA.DIHEDRAL.0>
0.454189

>  <SCORE.INTRA.POLAR>
0

>  <SCORE.INTRA.POLAR.0>
0

>  <SCORE.INTRA.REPUL>
0

>  <SCORE.INTRA.REPUL.0>
0

>  <SCORE.INTRA.SOLV>
-0.258725

>  <SCORE.INTRA.SOLV.lig_0>
-8.63405

>  <SCORE.INTRA.VDW>
3.35034

>  <SCORE.INTRA.VDW.0>
-0.877416

>  <SCORE.INTRA.norm>
0.316537

>  <SCORE.RESTR>
0

>  <SCORE.RESTR.CAVITY>
0

>  <SCORE.RESTR.norm>
0

>  <SCORE.SYSTEM>
-19.943

>  <SCORE.SYSTEM.CONST>
0

>  <SCORE.SYSTEM.DIHEDRAL>
5.59978

>  <SCORE.SYSTEM.POLAR>
-3.08366

>  <SCORE.SYSTEM.SOLV>
0.235516

>  <SCORE.SYSTEM.VDW>
-4.96159

>  <SCORE.SYSTEM.norm>
-1.813

>  <SCORE.heavy>
11

>  <SCORE.norm>
-3.53791

$$$$
P151705215
 OpenBabel12072022113D
libRbt.so/2013.1/901 2013/11/27
 12 13  0  0  0  0  0  0  0  0999 V2000
    1.3922   13.9877    4.1396 C   0  0  0  0  0  0  0  0  0  0  0  0
    2.2935   15.1270    4.1101 N   0  0  0  0  0  0  0  0  0  0  0  0
    1.6681   16.4379    4.0750 C   0  0  0  0  0  0  0  0  0  0  0  0
    3.6329   14.9051    3.7501 C   0  0  0  0  0  0  0  0  0  0  0  0
    4.0585   13.7474    3.6113 O   0  0  0  0  0  0  0  0  0  0  0  0
    4.5637   16.1265    3.5236 C   0  0  2  0  0  0  0  0  0  0  0  0
    4.9716   17.0172    4.7604 C   0  0  0  0  0  0  0  0  0  0  0  0
    5.3434   17.9985    3.6211 C   0  0  2  0  0  0  0  0  0  0  0  0
    4.0448   17.4843    2.9400 C   0  0  0  0  0  0  0  0  0  0  0  0
    6.4429   17.2580    2.8875 C   0  0  0  0  0  0  0  0  0  0  0  0
    5.8741   15.9059    2.8316 N   0  0  0  0  0  0  0  0  0  0  0  0
    6.4790   15.2594    3.3402 H   0  0  0  0  0  0  0  0  0  0  0  0
  1  2  1  0  0  0  0
  2  3  1  0  0  0  0
  2  4  1  0  0  0  0
  4  5  2  0  0  0  0
  6  4  1  1  0  0  0
  6  7  1  0  0  0  0
  6  9  1  0  0  0  0
  6 11  1  0  0  0  0
  8  7  1  1  0  0  0
  8  9  1  0  0  0  0
  8 10  1  0  0  0  0
 10 11  1  0  0  0  0
 11 12  1  0  0  0  0
M  END
>  <CHROM.0>
-55.81314306,-65.70152923,-73.51422664,-46.17338943,60.75302707,-61.30609373
-171.24858310,-59.32236117,-168.34098088

>  <CHROM.1>
68.63066406,3.99927816,15.95536410,3.66316501,-2.54558839,0.23563290,0.05039001

>  <Name>
P151705215

>  <RI>
3.1908e+07

>  <Rbt.Current_Directory>
/home/fstefaniak/projects/zuza/docking/adenine/4XNR

>  <Rbt.Executable>
rbdock ($Id: //depot/dev/client3/rdock/2013.1/src/exe/rbdock.cxx#4 $)

>  <Rbt.Library>
libRbt.so (2013.1, Build901 2013/11/27)

>  <Rbt.Parameter_File>
/home/fstefaniak/progs/rDock//data/scripts/dock_solv.prm

>  <Rbt.Receptor>
4xnr.prm

>  <SCORE>
-38.8576

>  <SCORE.INTER>
-23.0939

>  <SCORE.INTER.CONST>
1

>  <SCORE.INTER.POLAR>
-1.94358

>  <SCORE.INTER.ROT>
1

>  <SCORE.INTER.SOLV>
9.76776

>  <SCORE.INTER.VDW>
-16.4399

>  <SCORE.INTER.norm>
-2.09945

>  <SCORE.INTRA>
3.56082

>  <SCORE.INTRA.DIHEDRAL>
0.547547

>  <SCORE.INTRA.DIHEDRAL.0>
0.454189

>  <SCORE.INTRA.POLAR>
0

>  <SCORE.INTRA.POLAR.0>
0

>  <SCORE.INTRA.REPUL>
0

>  <SCORE.INTRA.REPUL.0>
0

>  <SCORE.INTRA.SOLV>
-0.258334

>  <SCORE.INTRA.SOLV.lig_0>
-8.63405

>  <SCORE.INTRA.VDW>
3.41621

>  <SCORE.INTRA.VDW.0>
-0.877416

>  <SCORE.INTRA.norm>
0.323711

>  <SCORE.RESTR>
0

>  <SCORE.RESTR.CAVITY>
0

>  <SCORE.RESTR.norm>
0

>  <SCORE.SYSTEM>
-19.3245

>  <SCORE.SYSTEM.CONST>
0

>  <SCORE.SYSTEM.DIHEDRAL>
5.00776

>  <SCORE.SYSTEM.POLAR>
-2.99694

>  <SCORE.SYSTEM.SOLV>
0.0252681

>  <SCORE.SYSTEM.VDW>
-4.57086

>  <SCORE.SYSTEM.norm>
-1.75677

>  <SCORE.heavy>
11

>  <SCORE.norm>
-3.53251

$$$$
P152008234
 OpenBabel12072022113D
libRbt.so/2013.1/901 2013/11/27
 11 12  0  0  0  0  0  0  0  0999 V2000
    6.4654   20.0238    4.7316 C   0  0  0  0  0  0  0  0  0  0  0  0
    6.9249   19.4662    6.0578 C   0  0  1  0  0  0  0  0  0  0  0  0
    5.8608   18.5088    6.6009 C   0  0  0  0  0  0  0  0  0  0  0  0
    5.2841   17.6272    5.6016 O   0  0  0  0  0  0  0  0  0  0  0  0
    5.5726   17.7464    4.2824 C   0  0  0  0  0  0  0  0  0  0  0  0
    5.0350   17.0402    3.4325 O   0  0  0  0  0  0  0  0  0  0  0  0
    6.6355   18.7767    3.9008 C   0  0  2  0  0  0  0  0  0  0  0  0
    7.9850   18.2584    4.3800 C   0  0  0  0  0  0  0  0  0  0  0  0
    8.1115   18.7018    5.7478 O   0  0  0  0  0  0  0  0  0  0  0  0
    6.6373   19.0839    2.5168 O   0  0  0  0  0  0  0  0  0  0  0  0
    6.5595   18.2310    2.0421 H   0  0  0  0  0  0  0  0  0  0  0  0
  1  7  1  0  0  0  0
  2  1  1  6  0  0  0
  2  3  1  0  0  0  0
  2  9  1  0  0  0  0
  3  4  1  0  0  0  0
  4  5  1  0  0  0  0
  5  7  1  0  0  0  0
  5  6  2  0  0  0  0
  7  8  1  0  0  0  0
  7 10  1  6  0  0  0
  8  9  1  0  0  0  0
 10 11  1  0  0  0  0
M  END
>  <CHROM.0>
-59.19783313,-178.40788742,-66.17269880,-48.05377835,-176.65860061,-63.31561924
-69.82856884,-172.82827456,-167.99684198

>  <CHROM.1>
-168.31448413,6.44827426,18.49956420,4.69293845,-1.03211365,-0.62081293,-1.60455911

>  <Name>
P152008234

>  <RI>
3.1908e+07

>  <Rbt.Current_Directory>
/home/fstefaniak/projects/zuza/docking/adenine/4XNR

>  <Rbt.Executable>
rbdock ($Id: //depot/dev/client3/rdock/2013.1/src/exe/rbdock.cxx#4 $)

>  <Rbt.Library>
libRbt.so (2013.1, Build901 2013/11/27)

>  <Rbt.Parameter_File>
/home/fstefaniak/progs/rDock//data/scripts/dock_solv.prm

>  <Rbt.Receptor>
4xnr.prm

>  <SCORE>
-41.342

>  <SCORE.INTER>
-19.0704

>  <SCORE.INTER.CONST>
1

>  <SCORE.INTER.POLAR>
-2.79407

>  <SCORE.INTER.ROT>
0

>  <SCORE.INTER.SOLV>
9.84565

>  <SCORE.INTER.VDW>
-10.2819

>  <SCORE.INTER.norm>
-1.90704

>  <SCORE.INTRA>
-1.52055

>  <SCORE.INTRA.DIHEDRAL>
-2.8613

>  <SCORE.INTRA.DIHEDRAL.0>
3.96966

>  <SCORE.INTRA.POLAR>
0

>  <SCORE.INTRA.POLAR.0>
0

>  <SCORE.INTRA.REPUL>
0

>  <SCORE.INTRA.REPUL.0>
0

>  <SCORE.INTRA.SOLV>
-0.00807395

>  <SCORE.INTRA.SOLV.lig_0>
-9.78642

>  <SCORE.INTRA.VDW>
-0.0858669

>  <SCORE.INTRA.VDW.0>
0.0854728

>  <SCORE.INTRA.norm>
-0.152055

>  <SCORE.RESTR>
0

>  <SCORE.RESTR.CAVITY>
0

>  <SCORE.RESTR.norm>
0

>  <SCORE.SYSTEM>
-20.751

>  <SCORE.SYSTEM.CONST>
0

>  <SCORE.SYSTEM.DIHEDRAL>
4.38494

>  <SCORE.SYSTEM.POLAR>
-2.96073

>  <SCORE.SYSTEM.SOLV>
-0.057236

>  <SCORE.SYSTEM.VDW>
-5.40749

>  <SCORE.SYSTEM.norm>
-2.0751

>  <SCORE.heavy>
10

>  <SCORE.norm>
-4.1342

$$$$
P152008234
 OpenBabel12072022113D
libRbt.so/2013.1/901 2013/11/27
 11 12  0  0  0  0  0  0  0  0999 V2000
    6.4906   20.0368    4.7474 C   0  0  0  0  0  0  0  0  0  0  0  0
    6.9590   19.4458    6.0558 C   0  0  1  0  0  0  0  0  0  0  0  0
    5.8823   18.5034    6.6003 C   0  0  0  0  0  0  0  0  0  0  0  0
    5.2691   17.6527    5.5959 O   0  0  0  0  0  0  0  0  0  0  0  0
    5.5385   17.7886    4.2743 C   0  0  0  0  0  0  0  0  0  0  0  0
    4.9708   17.1097    3.4215 O   0  0  0  0  0  0  0  0  0  0  0  0
    6.6183   18.8011    3.8924 C   0  0  2  0  0  0  0  0  0  0  0  0
    7.9633   18.2439    4.3399 C   0  0  0  0  0  0  0  0  0  0  0  0
    8.1225   18.6603    5.7128 O   0  0  0  0  0  0  0  0  0  0  0  0
    6.6044   19.1324    2.5142 O   0  0  0  0  0  0  0  0  0  0  0  0
    6.4736   18.2929    2.0273 H   0  0  0  0  0  0  0  0  0  0  0  0
  1  7  1  0  0  0  0
  2  1  1  6  0  0  0
  2  3  1  0  0  0  0
  2  9  1  0  0  0  0
  3  4  1  0  0  0  0
  4  5  1  0  0  0  0
  5  7  1  0  0  0  0
  5  6  2  0  0  0  0
  7  8  1  0  0  0  0
  7 10  1  6  0  0  0
  8  9  1  0  0  0  0
 10 11  1  0  0  0  0
M  END
>  <CHROM.0>
-59.91657404,-178.80088766,-69.11078641,-49.18601243,-62.16194944,-64.53974368
-66.87625783,-62.75273309,-167.94741193

>  <CHROM.1>
-166.73998356,6.43769223,18.51436612,4.68281062,-1.01063122,-0.59840043,-1.57487888

>  <Name>
P152008234

>  <RI>
3.1908e+07

>  <Rbt.Current_Directory>
/home/fstefaniak/projects/zuza/docking/adenine/4XNR

>  <Rbt.Executable>
rbdock ($Id: //depot/dev/client3/rdock/2013.1/src/exe/rbdock.cxx#4 $)

>  <Rbt.Library>
libRbt.so (2013.1, Build901 2013/11/27)

>  <Rbt.Parameter_File>
/home/fstefaniak/progs/rDock//data/scripts/dock_solv.prm

>  <Rbt.Receptor>
4xnr.prm

>  <SCORE>
-41.3001

>  <SCORE.INTER>
-19.1342

>  <SCORE.INTER.CONST>
1

>  <SCORE.INTER.POLAR>
-2.8038

>  <SCORE.INTER.ROT>
0

>  <SCORE.INTER.SOLV>
9.90555

>  <SCORE.INTER.VDW>
-10.312

>  <SCORE.INTER.norm>
-1.91342

>  <SCORE.INTRA>
-1.40749

>  <SCORE.INTRA.DIHEDRAL>
-2.64292

>  <SCORE.INTRA.DIHEDRAL.0>
3.96966

>  <SCORE.INTRA.POLAR>
0

>  <SCORE.INTRA.POLAR.0>
0

>  <SCORE.INTRA.REPUL>
0

>  <SCORE.INTRA.REPUL.0>
0

>  <SCORE.INTRA.SOLV>
-0.00710598

>  <SCORE.INTRA.SOLV.lig_0>
-9.78642

>  <SCORE.INTRA.VDW>
-0.0824713

>  <SCORE.INTRA.VDW.0>
0.0854728

>  <SCORE.INTRA.norm>
-0.140749

>  <SCORE.RESTR>
0

>  <SCORE.RESTR.CAVITY>
0

>  <SCORE.RESTR.norm>
0

>  <SCORE.SYSTEM>
-20.7584

>  <SCORE.SYSTEM.CONST>
0

>  <SCORE.SYSTEM.DIHEDRAL>
4.06472

>  <SCORE.SYSTEM.POLAR>
-2.93327

>  <SCORE.SYSTEM.SOLV>
0.241193

>  <SCORE.SYSTEM.VDW>
-5.49668

>  <SCORE.SYSTEM.norm>
-2.07584

>  <SCORE.heavy>
10

>  <SCORE.norm>
-4.13001

$$$$
P152008234
 OpenBabel12072022113D
libRbt.so/2013.1/901 2013/11/27
 11 12  0  0  0  0  0  0  0  0999 V2000
    6.4700   20.0328    4.7376 C   0  0  0  0  0  0  0  0  0  0  0  0
    6.9383   19.4531    6.0511 C   0  0  1  0  0  0  0  0  0  0  0  0
    5.8777   18.4868    6.5852 C   0  0  0  0  0  0  0  0  0  0  0  0
    5.2942   17.6220    5.5752 O   0  0  0  0  0  0  0  0  0  0  0  0
    5.5740   17.7634    4.2563 C   0  0  0  0  0  0  0  0  0  0  0  0
    5.0306   17.0714    3.3983 O   0  0  0  0  0  0  0  0  0  0  0  0
    6.6344   18.7999    3.8848 C   0  0  2  0  0  0  0  0  0  0  0  0
    7.9870   18.2736    4.3463 C   0  0  0  0  0  0  0  0  0  0  0  0
    8.1227   18.6941    5.7205 O   0  0  0  0  0  0  0  0  0  0  0  0
    6.6271   19.1302    2.5063 O   0  0  0  0  0  0  0  0  0  0  0  0
    6.4793   18.2931    2.0201 H   0  0  0  0  0  0  0  0  0  0  0  0
  1  7  1  0  0  0  0
  2  1  1  6  0  0  0
  2  3  1  0  0  0  0
  2  9  1  0  0  0  0
  3  4  1  0  0  0  0
  4  5  1  0  0  0  0
  5  7  1  0  0  0  0
  5  6  2  0  0  0  0
  7  8  1  0  0  0  0
  7 10  1  6  0  0  0
  8  9  1  0  0  0  0
 10 11  1  0  0  0  0
M  END
>  <CHROM.0>
-56.02684837,179.35647831,-68.68357539,-47.99283760,-59.29180931,-63.24681956
-68.31363376,-176.04426032,-168.19080540

>  <CHROM.1>
-164.21251467,6.45199503,18.50957226,4.67352542,-1.02233003,-0.62112719,-1.58212367

>  <Name>
P152008234

>  <RI>
3.1908e+07

>  <Rbt.Current_Directory>
/home/fstefaniak/projects/zuza/docking/adenine/4XNR

>  <Rbt.Executable>
rbdock ($Id: //depot/dev/client3/rdock/2013.1/src/exe/rbdock.cxx#4 $)

>  <Rbt.Library>
libRbt.so (2013.1, Build901 2013/11/27)

>  <Rbt.Parameter_File>
/home/fstefaniak/progs/rDock//data/scripts/dock_solv.prm

>  <Rbt.Receptor>
4xnr.prm

>  <SCORE>
-41.2997

>  <SCORE.INTER>
-19.3951

>  <SCORE.INTER.CONST>
1

>  <SCORE.INTER.POLAR>
-2.85566

>  <SCORE.INTER.ROT>
0

>  <SCORE.INTER.SOLV>
9.89905

>  <SCORE.INTER.VDW>
-10.3109

>  <SCORE.INTER.norm>
-1.93951

>  <SCORE.INTRA>
-1.20772

>  <SCORE.INTRA.DIHEDRAL>
-2.26076

>  <SCORE.INTRA.DIHEDRAL.0>
3.96966

>  <SCORE.INTRA.POLAR>
0

>  <SCORE.INTRA.POLAR.0>
0

>  <SCORE.INTRA.REPUL>
0

>  <SCORE.INTRA.REPUL.0>
0

>  <SCORE.INTRA.SOLV>
-0.00564303

>  <SCORE.INTRA.SOLV.lig_0>
-9.78642

>  <SCORE.INTRA.VDW>
-0.0745158

>  <SCORE.INTRA.VDW.0>
0.0854728

>  <SCORE.INTRA.norm>
-0.120772

>  <SCORE.RESTR>
0

>  <SCORE.RESTR.CAVITY>
0

>  <SCORE.RESTR.norm>
0

>  <SCORE.SYSTEM>
-20.6969

>  <SCORE.SYSTEM.CONST>
0

>  <SCORE.SYSTEM.DIHEDRAL>
4.26608

>  <SCORE.SYSTEM.POLAR>
-2.98488

>  <SCORE.SYSTEM.SOLV>
0.125078

>  <SCORE.SYSTEM.VDW>
-5.31203

>  <SCORE.SYSTEM.norm>
-2.06969

>  <SCORE.heavy>
10

>  <SCORE.norm>
-4.12997

$$$$
P152069116
 OpenBabel12072022113D
libRbt.so/2013.1/901 2013/11/27
 12 12  0  0  0  0  0  0  0  0999 V2000
    5.8630   18.2938    6.6274 C   0  0  0  0  0  0  0  0  0  0  0  0
    6.1894   19.7235    6.2611 C   0  0  0  0  0  0  0  0  0  0  0  0
    6.8644   19.7847    4.9904 N   0  0  0  0  0  0  0  0  0  0  0  0
    6.6349   18.9402    3.9502 C   0  0  0  0  0  0  0  0  0  0  0  0
    7.0782   19.2051    2.8352 O   0  0  0  0  0  0  0  0  0  0  0  0
    5.8956   17.8080    4.2176 N   0  0  0  0  0  0  0  0  0  0  0  0
    5.1334   17.6723    5.4517 C   0  0  0  0  0  0  0  0  0  0  0  0
    5.5608   16.9142    3.1047 C   0  0  0  0  0  0  0  0  0  0  0  0
    4.6679   17.5761    2.0469 C   0  0  0  0  0  0  0  0  0  0  0  0
    3.3225   17.7536    2.4817 O   0  0  0  0  0  0  0  0  0  0  0  0
    7.3483   20.6331    4.7242 H   0  0  0  0  0  0  0  0  0  0  0  0
    3.3149   18.4266    3.1959 H   0  0  0  0  0  0  0  0  0  0  0  0
  1  2  1  0  0  0  0
  1  7  1  0  0  0  0
  2  3  1  0  0  0  0
  3  4  1  0  0  0  0
  3 11  1  0  0  0  0
  4  5  2  0  0  0  0
  4  6  1  0  0  0  0
  6  7  1  0  0  0  0
  6  8  1  0  0  0  0
  8  9  1  0  0  0  0
  9 10  1  0  0  0  0
 10 12  1  0  0  0  0
M  END
>  <CHROM.0>
-60.11939946,-64.72449963,-65.53864862,-46.94906404,-58.03987790,-60.98361490
-68.57220864,-61.12803736,-168.41110306

>  <CHROM.1>
-63.31581933,-73.05920563,68.13424021,5.68836987,18.37835608,4.15461178,0.96375392
0.62911120,1.50915554

>  <Name>
P152069116

>  <RI>
4.17015e+07

>  <Rbt.Current_Directory>
/home/fstefaniak/projects/zuza/docking/adenine/4XNR

>  <Rbt.Executable>
rbdock ($Id: //depot/dev/client3/rdock/2013.1/src/exe/rbdock.cxx#4 $)

>  <Rbt.Library>
libRbt.so (2013.1, Build901 2013/11/27)

>  <Rbt.Parameter_File>
/home/fstefaniak/progs/rDock//data/scripts/dock_solv.prm

>  <Rbt.Receptor>
4xnr.prm

>  <SCORE>
-51.9326

>  <SCORE.INTER>
-26.77

>  <SCORE.INTER.CONST>
1

>  <SCORE.INTER.POLAR>
-3.64771

>  <SCORE.INTER.ROT>
2

>  <SCORE.INTER.SOLV>
13.2597

>  <SCORE.INTER.VDW>
-15.0409

>  <SCORE.INTER.norm>
-2.677

>  <SCORE.INTRA>
-4.29251

>  <SCORE.INTRA.DIHEDRAL>
-6.60546

>  <SCORE.INTRA.DIHEDRAL.0>
10.5491

>  <SCORE.INTRA.POLAR>
0.0274738

>  <SCORE.INTRA.POLAR.0>
-0.0274738

>  <SCORE.INTRA.REPUL>
0

>  <SCORE.INTRA.REPUL.0>
0

>  <SCORE.INTRA.SOLV>
-0.498855

>  <SCORE.INTRA.SOLV.lig_0>
-16.041

>  <SCORE.INTRA.VDW>
-0.833767

>  <SCORE.INTRA.VDW.0>
0.38247

>  <SCORE.INTRA.norm>
-0.429251

>  <SCORE.RESTR>
0

>  <SCORE.RESTR.CAVITY>
0

>  <SCORE.RESTR.norm>
0

>  <SCORE.SYSTEM>
-20.8701

>  <SCORE.SYSTEM.CONST>
0

>  <SCORE.SYSTEM.DIHEDRAL>
4.12128

>  <SCORE.SYSTEM.POLAR>
-2.97414

>  <SCORE.SYSTEM.SOLV>
0.280618

>  <SCORE.SYSTEM.VDW>
-5.46686

>  <SCORE.SYSTEM.norm>
-2.08701

>  <SCORE.heavy>
10

>  <SCORE.norm>
-5.19326

$$$$
P152069116
 OpenBabel12072022113D
libRbt.so/2013.1/901 2013/11/27
 12 12  0  0  0  0  0  0  0  0999 V2000
    5.9322   18.2807    6.6671 C   0  0  0  0  0  0  0  0  0  0  0  0
    6.1929   19.7094    6.2479 C   0  0  0  0  0  0  0  0  0  0  0  0
    6.9028   19.7536    4.9957 N   0  0  0  0  0  0  0  0  0  0  0  0
    6.7513   18.8546    3.9874 C   0  0  0  0  0  0  0  0  0  0  0  0
    7.2142   19.0960    2.8750 O   0  0  0  0  0  0  0  0  0  0  0  0
    6.0657   17.6959    4.2830 N   0  0  0  0  0  0  0  0  0  0  0  0
    5.2739   17.5710    5.4994 C   0  0  0  0  0  0  0  0  0  0  0  0
    5.8139   16.7388    3.2012 C   0  0  0  0  0  0  0  0  0  0  0  0
    4.3225   16.4480    2.9879 C   0  0  0  0  0  0  0  0  0  0  0  0
    3.6061   17.5589    2.4557 O   0  0  0  0  0  0  0  0  0  0  0  0
    7.3487   20.6152    4.7064 H   0  0  0  0  0  0  0  0  0  0  0  0
    3.5296   18.2415    3.1565 H   0  0  0  0  0  0  0  0  0  0  0  0
  1  2  1  0  0  0  0
  1  7  1  0  0  0  0
  2  3  1  0  0  0  0
  3  4  1  0  0  0  0
  3 11  1  0  0  0  0
  4  5  2  0  0  0  0
  4  6  1  0  0  0  0
  6  7  1  0  0  0  0
  6  8  1  0  0  0  0
  8  9  1  0  0  0  0
  9 10  1  0  0  0  0
 10 12  1  0  0  0  0
M  END
>  <CHROM.0>
-59.42161900,54.69263959,60.36533503,-48.02956198,-57.97409464,-61.71800046
53.25623461,-60.89037833,-167.90469378

>  <CHROM.1>
-121.77625917,69.11146236,-71.36259928,5.77812520,18.18283963,4.27387570
0.85066978,0.72143496,1.43287903

>  <Name>
P152069116

>  <RI>
4.17015e+07

>  <Rbt.Current_Directory>
/home/fstefaniak/projects/zuza/docking/adenine/4XNR

>  <Rbt.Executable>
rbdock ($Id: //depot/dev/client3/rdock/2013.1/src/exe/rbdock.cxx#4 $)

>  <Rbt.Library>
libRbt.so (2013.1, Build901 2013/11/27)

>  <Rbt.Parameter_File>
/home/fstefaniak/progs/rDock//data/scripts/dock_solv.prm

>  <Rbt.Receptor>
4xnr.prm

>  <SCORE>
-50.2974

>  <SCORE.INTER>
-28.3538

>  <SCORE.INTER.CONST>
1

>  <SCORE.INTER.POLAR>
-3.5244

>  <SCORE.INTER.ROT>
2

>  <SCORE.INTER.SOLV>
13.0498

>  <SCORE.INTER.VDW>
-16.4378

>  <SCORE.INTER.norm>
-2.83538

>  <SCORE.INTRA>
-3.8145

>  <SCORE.INTRA.DIHEDRAL>
-7.75418

>  <SCORE.INTRA.DIHEDRAL.0>
10.5491

>  <SCORE.INTRA.POLAR>
0.0274738

>  <SCORE.INTRA.POLAR.0>
-0.0274738

>  <SCORE.INTRA.REPUL>
0

>  <SCORE.INTRA.REPUL.0>
0

>  <SCORE.INTRA.SOLV>
-0.649351

>  <SCORE.INTRA.SOLV.lig_0>
-16.041

>  <SCORE.INTRA.VDW>
0.293854

>  <SCORE.INTRA.VDW.0>
0.38247

>  <SCORE.INTRA.norm>
-0.38145

>  <SCORE.RESTR>
0

>  <SCORE.RESTR.CAVITY>
0

>  <SCORE.RESTR.norm>
0

>  <SCORE.SYSTEM>
-18.1291

>  <SCORE.SYSTEM.CONST>
0

>  <SCORE.SYSTEM.DIHEDRAL>
3.82547

>  <SCORE.SYSTEM.POLAR>
-2.95935

>  <SCORE.SYSTEM.SOLV>
0.283365

>  <SCORE.SYSTEM.VDW>
-3.59117

>  <SCORE.SYSTEM.norm>
-1.81291

>  <SCORE.heavy>
10

>  <SCORE.norm>
-5.02974

$$$$
P152069116
 OpenBabel12072022113D
libRbt.so/2013.1/901 2013/11/27
 12 12  0  0  0  0  0  0  0  0999 V2000
    5.8585   18.3216    6.6330 C   0  0  0  0  0  0  0  0  0  0  0  0
    6.2100   19.7411    6.2506 C   0  0  0  0  0  0  0  0  0  0  0  0
    6.9110   19.7735    4.9930 N   0  0  0  0  0  0  0  0  0  0  0  0
    6.6919   18.9150    3.9620 C   0  0  0  0  0  0  0  0  0  0  0  0
    7.1607   19.1564    2.8521 O   0  0  0  0  0  0  0  0  0  0  0  0
    5.9334   17.7964    4.2325 N   0  0  0  0  0  0  0  0  0  0  0  0
    5.1450   17.6900    5.4529 C   0  0  0  0  0  0  0  0  0  0  0  0
    5.6099   16.8887    3.1275 C   0  0  0  0  0  0  0  0  0  0  0  0
    4.7604   17.5488    2.0334 C   0  0  0  0  0  0  0  0  0  0  0  0
    3.3972   17.7218    2.4112 O   0  0  0  0  0  0  0  0  0  0  0  0
    7.4107   20.6115    4.7231 H   0  0  0  0  0  0  0  0  0  0  0  0
    3.3618   18.3589    3.1568 H   0  0  0  0  0  0  0  0  0  0  0  0
  1  2  1  0  0  0  0
  1  7  1  0  0  0  0
  2  3  1  0  0  0  0
  3  4  1  0  0  0  0
  3 11  1  0  0  0  0
  4  5  2  0  0  0  0
  4  6  1  0  0  0  0
  6  7  1  0  0  0  0
  6  8  1  0  0  0  0
  8  9  1  0  0  0  0
  9 10  1  0  0  0  0
 10 12  1  0  0  0  0
M  END
>  <CHROM.0>
-58.92831615,61.62012122,-72.77886007,-47.48696988,-173.34613314,-60.38313427
-171.45559623,58.96848271,-168.03322631

>  <CHROM.1>
-62.64336013,-75.03888430,65.20719405,5.73599792,18.36546458,4.15161411,0.98832639
0.61866536,1.48059783

>  <Name>
P152069116

>  <RI>
4.17015e+07

>  <Rbt.Current_Directory>
/home/fstefaniak/projects/zuza/docking/adenine/4XNR

>  <Rbt.Executable>
rbdock ($Id: //depot/dev/client3/rdock/2013.1/src/exe/rbdock.cxx#4 $)

>  <Rbt.Library>
libRbt.so (2013.1, Build901 2013/11/27)

>  <Rbt.Parameter_File>
/home/fstefaniak/progs/rDock//data/scripts/dock_solv.prm

>  <Rbt.Receptor>
4xnr.prm

>  <SCORE>
-49.4934

>  <SCORE.INTER>
-26.7446

>  <SCORE.INTER.CONST>
1

>  <SCORE.INTER.POLAR>
-3.65482

>  <SCORE.INTER.ROT>
2

>  <SCORE.INTER.SOLV>
13.2846

>  <SCORE.INTER.VDW>
-15.0085

>  <SCORE.INTER.norm>
-2.67446

>  <SCORE.INTRA>
-4.26866

>  <SCORE.INTRA.DIHEDRAL>
-6.63225

>  <SCORE.INTRA.DIHEDRAL.0>
10.5491

>  <SCORE.INTRA.POLAR>
0.0274738

>  <SCORE.INTRA.POLAR.0>
-0.0274738

>  <SCORE.INTRA.REPUL>
0

>  <SCORE.INTRA.REPUL.0>
0

>  <SCORE.INTRA.SOLV>
-0.521193

>  <SCORE.INTRA.SOLV.lig_0>
-16.041

>  <SCORE.INTRA.VDW>
-0.785347

>  <SCORE.INTRA.VDW.0>
0.38247

>  <SCORE.INTRA.norm>
-0.426866

>  <SCORE.RESTR>
0

>  <SCORE.RESTR.CAVITY>
0

>  <SCORE.RESTR.norm>
0

>  <SCORE.SYSTEM>
-18.4802

>  <SCORE.SYSTEM.CONST>
0

>  <SCORE.SYSTEM.DIHEDRAL>
4.76184

>  <SCORE.SYSTEM.POLAR>
-2.95448

>  <SCORE.SYSTEM.SOLV>
-0.0480021

>  <SCORE.SYSTEM.VDW>
-4.04313

>  <SCORE.SYSTEM.norm>
-1.84802

>  <SCORE.heavy>
10

>  <SCORE.norm>
-4.94934

$$$$
P152264608
 OpenBabel12072022113D
libRbt.so/2013.1/901 2013/11/27
 15 15  0  0  0  0  0  0  0  0999 V2000
    7.4232   19.1962    5.0430 C   0  0  0  0  0  0  0  0  0  0  0  0
    6.3937   18.2603    4.5126 C   0  0  0  0  0  0  0  0  0  0  0  0
    5.1529   18.1148    4.9889 C   0  0  0  0  0  0  0  0  0  0  0  0
    4.5106   17.0899    4.1527 C   0  0  0  0  0  0  0  0  0  0  0  0
    3.2829   16.7197    4.3414 N   0  0  0  0  0  0  0  0  0  0  0  0
    2.8734   15.7321    3.4350 N   0  0  0  0  0  0  0  0  0  0  0  0
    1.6893   15.2780    3.7048 C   0  0  0  0  0  0  0  0  0  0  0  0
    0.9343   15.6649    4.7627 N   0  0  0  0  0  0  0  0  0  0  0  0
    1.0881   14.3300    2.9558 N   0  0  0  0  0  0  0  0  0  0  0  0
    5.4485   16.5661    3.1006 C   0  0  0  0  0  0  0  0  0  0  0  0
    6.7150   17.3784    3.3423 C   0  0  0  0  0  0  0  0  0  0  0  0
   -0.0271   15.7210    4.4264 H   0  0  0  0  0  0  0  0  0  0  0  0
    0.9905   15.0461    5.5571 H   0  0  0  0  0  0  0  0  0  0  0  0
    0.1156   14.5305    2.7582 H   0  0  0  0  0  0  0  0  0  0  0  0
    1.2841   13.3682    3.1837 H   0  0  0  0  0  0  0  0  0  0  0  0
  1  2  1  0  0  0  0
  2  3  2  0  0  0  0
  2 11  1  0  0  0  0
  3  4  1  0  0  0  0
  4  5  2  0  0  0  0
  4 10  1  0  0  0  0
  5  6  1  0  0  0  0
  6  7  2  0  0  0  0
  7  8  1  0  0  0  0
  7  9  1  0  0  0  0
  8 12  1  0  0  0  0
  8 13  1  0  0  0  0
  9 14  1  0  0  0  0
  9 15  1  0  0  0  0
 10 11  1  0  0  0  0
M  END
>  <CHROM.0>
-57.77045376,74.09578695,-67.04808087,-48.75332335,-63.03836752,-63.43317753
-66.94368897,-57.10686304,-168.44074586

>  <CHROM.1>
174.04905470,140.91053925,-135.69002702,4.05721623,16.70495788,4.02635076
0.42987689,0.36095044,0.86738645

>  <Name>
P152264608

>  <RI>
9.71178e+06

>  <Rbt.Current_Directory>
/home/fstefaniak/projects/zuza/docking/adenine/4XNR

>  <Rbt.Executable>
rbdock ($Id: //depot/dev/client3/rdock/2013.1/src/exe/rbdock.cxx#4 $)

>  <Rbt.Library>
libRbt.so (2013.1, Build901 2013/11/27)

>  <Rbt.Parameter_File>
/home/fstefaniak/progs/rDock//data/scripts/dock_solv.prm

>  <Rbt.Receptor>
4xnr.prm

>  <SCORE>
-53.5009

>  <SCORE.INTER>
-35.0783

>  <SCORE.INTER.CONST>
1

>  <SCORE.INTER.POLAR>
-4.82965

>  <SCORE.INTER.ROT>
3

>  <SCORE.INTER.SOLV>
10.7657

>  <SCORE.INTER.VDW>
-16.4752

>  <SCORE.INTER.norm>
-3.18893

>  <SCORE.INTRA>
0.909262

>  <SCORE.INTRA.DIHEDRAL>
0.0112893

>  <SCORE.INTRA.DIHEDRAL.0>
1.01263

>  <SCORE.INTRA.POLAR>
0.225068

>  <SCORE.INTRA.POLAR.0>
-0.225068

>  <SCORE.INTRA.REPUL>
0

>  <SCORE.INTRA.REPUL.0>
0

>  <SCORE.INTRA.SOLV>
0.0376964

>  <SCORE.INTRA.SOLV.lig_0>
-11.1852

>  <SCORE.INTRA.VDW>
0.119537

>  <SCORE.INTRA.VDW.0>
-0.506888

>  <SCORE.INTRA.norm>
0.0826602

>  <SCORE.RESTR>
0

>  <SCORE.RESTR.CAVITY>
0

>  <SCORE.RESTR.norm>
0

>  <SCORE.SYSTEM>
-19.3319

>  <SCORE.SYSTEM.CONST>
0

>  <SCORE.SYSTEM.DIHEDRAL>
4.8312

>  <SCORE.SYSTEM.POLAR>
-2.95929

>  <SCORE.SYSTEM.SOLV>
0.292224

>  <SCORE.SYSTEM.VDW>
-4.73142

>  <SCORE.SYSTEM.norm>
-1.75744

>  <SCORE.heavy>
11

>  <SCORE.norm>
-4.86371

$$$$
P152264608
 OpenBabel12072022113D
libRbt.so/2013.1/901 2013/11/27
 15 15  0  0  0  0  0  0  0  0999 V2000
    7.5640   19.0730    5.1961 C   0  0  0  0  0  0  0  0  0  0  0  0
    6.4164   18.3740    4.5543 C   0  0  0  0  0  0  0  0  0  0  0  0
    5.3526   17.8744    5.1916 C   0  0  0  0  0  0  0  0  0  0  0  0
    4.4922   17.2866    4.1541 C   0  0  0  0  0  0  0  0  0  0  0  0
    3.3590   16.7253    4.4382 N   0  0  0  0  0  0  0  0  0  0  0  0
    2.7036   16.2311    3.3021 N   0  0  0  0  0  0  0  0  0  0  0  0
    1.4575   15.9577    3.5335 C   0  0  0  0  0  0  0  0  0  0  0  0
    0.8484   16.0832    4.7385 N   0  0  0  0  0  0  0  0  0  0  0  0
    0.6301   15.4817    2.5795 N   0  0  0  0  0  0  0  0  0  0  0  0
    5.0980   17.4304    2.7855 C   0  0  0  0  0  0  0  0  0  0  0  0
    6.3925   18.1840    3.0664 C   0  0  0  0  0  0  0  0  0  0  0  0
   -0.1528   16.1409    4.5515 H   0  0  0  0  0  0  0  0  0  0  0  0
    1.0409   15.3274    5.3780 H   0  0  0  0  0  0  0  0  0  0  0  0
    0.4494   16.1451    1.8364 H   0  0  0  0  0  0  0  0  0  0  0  0
   -0.1752   14.9592    2.8854 H   0  0  0  0  0  0  0  0  0  0  0  0
  1  2  1  0  0  0  0
  2  3  2  0  0  0  0
  2 11  1  0  0  0  0
  3  4  1  0  0  0  0
  4  5  2  0  0  0  0
  4 10  1  0  0  0  0
  5  6  1  0  0  0  0
  6  7  2  0  0  0  0
  7  8  1  0  0  0  0
  7  9  1  0  0  0  0
  8 12  1  0  0  0  0
  8 13  1  0  0  0  0
  9 14  1  0  0  0  0
  9 15  1  0  0  0  0
 10 11  1  0  0  0  0
M  END
>  <CHROM.0>
-57.49605150,78.58634901,-66.59540419,-46.91510737,-174.17096942,-60.81443445
-66.01834637,-59.23733797,-168.93027761

>  <CHROM.1>
-164.96221109,159.35874598,-66.29827122,3.94160787,17.12104563,3.94558617
0.21281721,0.41649224,1.40985415

>  <Name>
P152264608

>  <RI>
9.71178e+06

>  <Rbt.Current_Directory>
/home/fstefaniak/projects/zuza/docking/adenine/4XNR

>  <Rbt.Executable>
rbdock ($Id: //depot/dev/client3/rdock/2013.1/src/exe/rbdock.cxx#4 $)

>  <Rbt.Library>
libRbt.so (2013.1, Build901 2013/11/27)

>  <Rbt.Parameter_File>
/home/fstefaniak/progs/rDock//data/scripts/dock_solv.prm

>  <Rbt.Receptor>
4xnr.prm

>  <SCORE>
-52.7316

>  <SCORE.INTER>
-34.8677

>  <SCORE.INTER.CONST>
1

>  <SCORE.INTER.POLAR>
-4.82253

>  <SCORE.INTER.ROT>
3

>  <SCORE.INTER.SOLV>
12.4427

>  <SCORE.INTER.VDW>
-16.9176

>  <SCORE.INTER.norm>
-3.16979

>  <SCORE.INTRA>
0.998421

>  <SCORE.INTRA.DIHEDRAL>
0.167554

>  <SCORE.INTRA.DIHEDRAL.0>
1.01263

>  <SCORE.INTRA.POLAR>
0.225068

>  <SCORE.INTRA.POLAR.0>
-0.225068

>  <SCORE.INTRA.REPUL>
0

>  <SCORE.INTRA.REPUL.0>
0

>  <SCORE.INTRA.SOLV>
0.0365142

>  <SCORE.INTRA.SOLV.lig_0>
-11.1852

>  <SCORE.INTRA.VDW>
0.131154

>  <SCORE.INTRA.VDW.0>
-0.506888

>  <SCORE.INTRA.norm>
0.0907655

>  <SCORE.RESTR>
0

>  <SCORE.RESTR.CAVITY>
0

>  <SCORE.RESTR.norm>
0

>  <SCORE.SYSTEM>
-18.8624

>  <SCORE.SYSTEM.CONST>
0

>  <SCORE.SYSTEM.DIHEDRAL>
5.55787

>  <SCORE.SYSTEM.POLAR>
-2.97551

>  <SCORE.SYSTEM.SOLV>
0.131239

>  <SCORE.SYSTEM.VDW>
-4.5529

>  <SCORE.SYSTEM.norm>
-1.71476

>  <SCORE.heavy>
11

>  <SCORE.norm>
-4.79378

$$$$
P152264608
 OpenBabel12072022113D
libRbt.so/2013.1/901 2013/11/27
 15 15  0  0  0  0  0  0  0  0999 V2000
    7.4486   19.2149    5.0326 C   0  0  0  0  0  0  0  0  0  0  0  0
    6.4138   18.2883    4.4961 C   0  0  0  0  0  0  0  0  0  0  0  0
    5.1814   18.1264    4.9887 C   0  0  0  0  0  0  0  0  0  0  0  0
    4.5291   17.1198    4.1381 C   0  0  0  0  0  0  0  0  0  0  0  0
    3.3059   16.7404    4.3375 N   0  0  0  0  0  0  0  0  0  0  0  0
    2.8851   15.7737    3.4139 N   0  0  0  0  0  0  0  0  0  0  0  0
    1.6983   15.3242    3.6793 C   0  0  0  0  0  0  0  0  0  0  0  0
    0.9502   15.6970    4.7471 N   0  0  0  0  0  0  0  0  0  0  0  0
    1.0867   14.3956    2.9145 N   0  0  0  0  0  0  0  0  0  0  0  0
    5.4516   16.6255    3.0585 C   0  0  0  0  0  0  0  0  0  0  0  0
    6.7191   17.4365    3.2996 C   0  0  0  0  0  0  0  0  0  0  0  0
   -0.0101   15.7783    4.4128 H   0  0  0  0  0  0  0  0  0  0  0  0
    0.9958   15.0572    5.5255 H   0  0  0  0  0  0  0  0  0  0  0  0
    0.1097   14.5971    2.7417 H   0  0  0  0  0  0  0  0  0  0  0  0
    1.2913   13.4286    3.1101 H   0  0  0  0  0  0  0  0  0  0  0  0
  1  2  1  0  0  0  0
  2  3  2  0  0  0  0
  2 11  1  0  0  0  0
  3  4  1  0  0  0  0
  4  5  2  0  0  0  0
  4 10  1  0  0  0  0
  5  6  1  0  0  0  0
  6  7  2  0  0  0  0
  7  8  1  0  0  0  0
  7  9  1  0  0  0  0
  8 12  1  0  0  0  0
  8 13  1  0  0  0  0
  9 14  1  0  0  0  0
  9 15  1  0  0  0  0
 10 11  1  0  0  0  0
M  END
>  <CHROM.0>
-52.92175329,74.81992515,-73.99440365,-47.40066587,-177.97944862,-63.69324433
-173.01817085,61.26599776,-166.75247249

>  <CHROM.1>
175.08861403,140.24654548,-136.99964545,4.07126006,16.74287906,4.00459566
0.41994059,0.36793913,0.89251703

>  <Name>
P152264608

>  <RI>
9.71178e+06

>  <Rbt.Current_Directory>
/home/fstefaniak/projects/zuza/docking/adenine/4XNR

>  <Rbt.Executable>
rbdock ($Id: //depot/dev/client3/rdock/2013.1/src/exe/rbdock.cxx#4 $)

>  <Rbt.Library>
libRbt.so (2013.1, Build901 2013/11/27)

>  <Rbt.Parameter_File>
/home/fstefaniak/progs/rDock//data/scripts/dock_solv.prm

>  <Rbt.Receptor>
4xnr.prm

>  <SCORE>
-51.9567

>  <SCORE.INTER>
-35.1949

>  <SCORE.INTER.CONST>
1

>  <SCORE.INTER.POLAR>
-4.81222

>  <SCORE.INTER.ROT>
3

>  <SCORE.INTER.SOLV>
10.8148

>  <SCORE.INTER.VDW>
-16.6275

>  <SCORE.INTER.norm>
-3.19953

>  <SCORE.INTRA>
0.908586

>  <SCORE.INTRA.DIHEDRAL>
0.000366072

>  <SCORE.INTRA.DIHEDRAL.0>
1.01263

>  <SCORE.INTRA.POLAR>
0.225068

>  <SCORE.INTRA.POLAR.0>
-0.225068

>  <SCORE.INTRA.REPUL>
0

>  <SCORE.INTRA.REPUL.0>
0

>  <SCORE.INTRA.SOLV>
0.0368697

>  <SCORE.INTRA.SOLV.lig_0>
-11.1852

>  <SCORE.INTRA.VDW>
0.124736

>  <SCORE.INTRA.VDW.0>
-0.506888

>  <SCORE.INTRA.norm>
0.0825987

>  <SCORE.RESTR>
0

>  <SCORE.RESTR.CAVITY>
0

>  <SCORE.RESTR.norm>
0

>  <SCORE.SYSTEM>
-17.6705

>  <SCORE.SYSTEM.CONST>
0

>  <SCORE.SYSTEM.DIHEDRAL>
6.0357

>  <SCORE.SYSTEM.POLAR>
-3.0025

>  <SCORE.SYSTEM.SOLV>
-0.106605

>  <SCORE.SYSTEM.VDW>
-3.74834

>  <SCORE.SYSTEM.norm>
-1.60641

>  <SCORE.heavy>
11

>  <SCORE.norm>
-4.72334

$$$$
P152612369
 OpenBabel12072022113D
libRbt.so/2013.1/901 2013/11/27
 14 14  0  0  0  0  0  0  0  0999 V2000
    3.7199   18.9912   -6.2517 C   0  0  0  0  0  0  0  0  0  0  0  0
    2.6889   20.0632   -6.2194 C   0  0  0  0  0  0  0  0  0  0  0  0
    2.4922   18.8154   -5.3901 C   0  0  0  0  0  0  0  0  0  0  0  0
    2.6314   18.9134   -3.9736 N   0  0  0  0  0  0  0  0  0  0  0  0
    1.7403   19.4141   -3.0930 C   0  0  0  0  0  0  0  0  0  0  0  0
    2.1001   19.5307   -1.7704 N   0  3  0  0  0  0  0  0  0  0  0  0
    1.4274   19.7111   -1.0275 H   0  0  0  0  0  0  0  0  0  0  0  0
    3.4146   19.2184   -1.3885 N   0  0  0  0  0  0  0  0  0  0  0  0
    0.5070   19.7923   -3.4571 N   0  0  0  0  0  0  0  0  0  0  0  0
    3.4671   18.5229   -3.5478 H   0  0  0  0  0  0  0  0  0  0  0  0
    3.6954   19.8202   -0.6040 H   0  0  0  0  0  0  0  0  0  0  0  0
    3.4529   18.2523   -1.0402 H   0  0  0  0  0  0  0  0  0  0  0  0
    0.1760   19.6723   -4.4024 H   0  0  0  0  0  0  0  0  0  0  0  0
   -0.1385   20.1856   -2.7863 H   0  0  0  0  0  0  0  0  0  0  0  0
  1  2  1  0  0  0  0
  1  3  1  0  0  0  0
  2  3  1  0  0  0  0
  3  4  1  0  0  0  0
  4  5  1  0  0  0  0
  4 10  1  0  0  0  0
  5  6  2  0  0  0  0
  5  9  1  0  0  0  0
  6  7  1  0  0  0  0
  6  8  1  0  0  0  0
  8 11  1  0  0  0  0
  8 12  1  0  0  0  0
  9 13  1  0  0  0  0
  9 14  1  0  0  0  0
M  CHG  1   6   1
M  END
>  <CHROM.0>
-55.42854192,-62.37414235,-26.14897838,-47.69786409,-175.54506055,178.31558730
-63.94202508,-56.99354547,-168.22785961

>  <CHROM.1>
145.58417366,147.26526561,2.40209213,19.34663567,-3.85636327,-1.40249814
-0.26018724,1.59307335

>  <Name>
P152612369

>  <RI>
2.22087e+07

>  <Rbt.Current_Directory>
/home/fstefaniak/projects/zuza/docking/adenine/4XNR

>  <Rbt.Executable>
rbdock ($Id: //depot/dev/client3/rdock/2013.1/src/exe/rbdock.cxx#4 $)

>  <Rbt.Library>
libRbt.so (2013.1, Build901 2013/11/27)

>  <Rbt.Parameter_File>
/home/fstefaniak/progs/rDock//data/scripts/dock_solv.prm

>  <Rbt.Receptor>
4xnr.prm

>  <SCORE>
-48.1168

>  <SCORE.INTER>
-30.8013

>  <SCORE.INTER.CONST>
1

>  <SCORE.INTER.POLAR>
-6.07981

>  <SCORE.INTER.ROT>
2

>  <SCORE.INTER.SOLV>
20.3819

>  <SCORE.INTER.VDW>
-11.9955

>  <SCORE.INTER.norm>
-3.85016

>  <SCORE.INTRA>
-0.263582

>  <SCORE.INTRA.DIHEDRAL>
-0.230371

>  <SCORE.INTRA.DIHEDRAL.0>
3.2197

>  <SCORE.INTRA.POLAR>
-0.015678

>  <SCORE.INTRA.POLAR.0>
-0.0758958

>  <SCORE.INTRA.REPUL>
0

>  <SCORE.INTRA.REPUL.0>
0

>  <SCORE.INTRA.SOLV>
0.220152

>  <SCORE.INTRA.SOLV.lig_0>
-28.7305

>  <SCORE.INTRA.VDW>
-0.205167

>  <SCORE.INTRA.VDW.0>
-0.726309

>  <SCORE.INTRA.norm>
-0.0329477

>  <SCORE.RESTR>
2.31984

>  <SCORE.RESTR.CAVITY>
2.31984

>  <SCORE.RESTR.norm>
0.289979

>  <SCORE.SYSTEM>
-19.3718

>  <SCORE.SYSTEM.CONST>
0

>  <SCORE.SYSTEM.DIHEDRAL>
7.7837

>  <SCORE.SYSTEM.POLAR>
-3.31509

>  <SCORE.SYSTEM.SOLV>
0.0528326

>  <SCORE.SYSTEM.VDW>
-4.4764

>  <SCORE.SYSTEM.norm>
-2.42147

>  <SCORE.heavy>
8

>  <SCORE.norm>
-6.0146

$$$$
P152612369
 OpenBabel12072022113D
libRbt.so/2013.1/901 2013/11/27
 14 14  0  0  0  0  0  0  0  0999 V2000
    5.2483   17.3384    4.5895 C   0  0  0  0  0  0  0  0  0  0  0  0
    5.1481   17.2912    3.1059 C   0  0  0  0  0  0  0  0  0  0  0  0
    4.3164   16.3438    3.9391 C   0  0  0  0  0  0  0  0  0  0  0  0
    2.9101   16.5693    4.0220 N   0  0  0  0  0  0  0  0  0  0  0  0
    1.9245   15.6516    3.9406 C   0  0  0  0  0  0  0  0  0  0  0  0
    0.6157   16.0751    3.9278 N   0  3  0  0  0  0  0  0  0  0  0  0
   -0.1717   15.4441    4.0650 H   0  0  0  0  0  0  0  0  0  0  0  0
    0.3420   17.4519    3.9010 N   0  0  0  0  0  0  0  0  0  0  0  0
    2.1725   14.3357    3.8844 N   0  0  0  0  0  0  0  0  0  0  0  0
    2.5885   17.5137    4.2141 H   0  0  0  0  0  0  0  0  0  0  0  0
    0.1221   17.7386    2.9387 H   0  0  0  0  0  0  0  0  0  0  0  0
   -0.4975   17.6483    4.4603 H   0  0  0  0  0  0  0  0  0  0  0  0
    3.1114   13.9726    3.9496 H   0  0  0  0  0  0  0  0  0  0  0  0
    1.4209   13.6651    3.8015 H   0  0  0  0  0  0  0  0  0  0  0  0
  1  2  1  0  0  0  0
  1  3  1  0  0  0  0
  2  3  1  0  0  0  0
  3  4  1  0  0  0  0
  4  5  1  0  0  0  0
  4 10  1  0  0  0  0
  5  6  2  0  0  0  0
  5  9  1  0  0  0  0
  6  7  1  0  0  0  0
  6  8  1  0  0  0  0
  8 11  1  0  0  0  0
  8 12  1  0  0  0  0
  9 13  1  0  0  0  0
  9 14  1  0  0  0  0
M  CHG  1   6   1
M  END
>  <CHROM.0>
-59.13460061,-61.41957069,-65.98583292,-47.70898084,57.54148593,-179.29126235
-67.41455864,-59.40290823,-167.96729444

>  <CHROM.1>
-155.39375127,99.48781024,2.74725631,16.37519188,3.91261535,0.21038780,0.00546090
-0.00467673

>  <Name>
P152612369

>  <RI>
2.22087e+07

>  <Rbt.Current_Directory>
/home/fstefaniak/projects/zuza/docking/adenine/4XNR

>  <Rbt.Executable>
rbdock ($Id: //depot/dev/client3/rdock/2013.1/src/exe/rbdock.cxx#4 $)

>  <Rbt.Library>
libRbt.so (2013.1, Build901 2013/11/27)

>  <Rbt.Parameter_File>
/home/fstefaniak/progs/rDock//data/scripts/dock_solv.prm

>  <Rbt.Receptor>
4xnr.prm

>  <SCORE>
-46.4398

>  <SCORE.INTER>
-26.7116

>  <SCORE.INTER.CONST>
1

>  <SCORE.INTER.POLAR>
-4.13052

>  <SCORE.INTER.ROT>
2

>  <SCORE.INTER.SOLV>
12.329

>  <SCORE.INTER.VDW>
-13.0824

>  <SCORE.INTER.norm>
-3.33895

>  <SCORE.INTRA>
0.0158287

>  <SCORE.INTRA.DIHEDRAL>
0.203975

>  <SCORE.INTRA.DIHEDRAL.0>
3.2197

>  <SCORE.INTRA.POLAR>
-0.015678

>  <SCORE.INTRA.POLAR.0>
-0.0758958

>  <SCORE.INTRA.REPUL>
0

>  <SCORE.INTRA.REPUL.0>
0

>  <SCORE.INTRA.SOLV>
-0.07603

>  <SCORE.INTRA.SOLV.lig_0>
-28.7305

>  <SCORE.INTRA.VDW>
0.0051613

>  <SCORE.INTRA.VDW.0>
-0.726309

>  <SCORE.INTRA.norm>
0.00197859

>  <SCORE.RESTR>
0

>  <SCORE.RESTR.CAVITY>
0

>  <SCORE.RESTR.norm>
0

>  <SCORE.SYSTEM>
-19.744

>  <SCORE.SYSTEM.CONST>
0

>  <SCORE.SYSTEM.DIHEDRAL>
3.93034

>  <SCORE.SYSTEM.POLAR>
-2.96785

>  <SCORE.SYSTEM.SOLV>
-0.035106

>  <SCORE.SYSTEM.VDW>
-4.56825

>  <SCORE.SYSTEM.norm>
-2.468

>  <SCORE.heavy>
8

>  <SCORE.norm>
-5.80498

$$$$
P152612369
 OpenBabel12072022113D
libRbt.so/2013.1/901 2013/11/27
 14 14  0  0  0  0  0  0  0  0999 V2000
    3.8789   19.0048   -6.1244 C   0  0  0  0  0  0  0  0  0  0  0  0
    2.8039   20.0328   -6.1538 C   0  0  0  0  0  0  0  0  0  0  0  0
    2.6451   18.8140   -5.2747 C   0  0  0  0  0  0  0  0  0  0  0  0
    2.7560   18.9776   -3.8618 N   0  0  0  0  0  0  0  0  0  0  0  0
    1.8144   19.4358   -3.0111 C   0  0  0  0  0  0  0  0  0  0  0  0
    2.1450   19.6326   -1.6904 N   0  3  0  0  0  0  0  0  0  0  0  0
    1.4495   19.7847   -0.9623 H   0  0  0  0  0  0  0  0  0  0  0  0
    3.4755   19.4459   -1.2827 N   0  0  0  0  0  0  0  0  0  0  0  0
    0.5592   19.6955   -3.4028 N   0  0  0  0  0  0  0  0  0  0  0  0
    3.6153   18.6748   -3.4122 H   0  0  0  0  0  0  0  0  0  0  0  0
    3.6520   19.9917   -0.4297 H   0  0  0  0  0  0  0  0  0  0  0  0
    3.6249   18.4606   -1.0317 H   0  0  0  0  0  0  0  0  0  0  0  0
    0.2524   19.5121   -4.3461 H   0  0  0  0  0  0  0  0  0  0  0  0
   -0.1259   20.0592   -2.7549 H   0  0  0  0  0  0  0  0  0  0  0  0
  1  2  1  0  0  0  0
  1  3  1  0  0  0  0
  2  3  1  0  0  0  0
  3  4  1  0  0  0  0
  4  5  1  0  0  0  0
  4 10  1  0  0  0  0
  5  6  2  0  0  0  0
  5  9  1  0  0  0  0
  6  7  1  0  0  0  0
  6  8  1  0  0  0  0
  8 11  1  0  0  0  0
  8 12  1  0  0  0  0
  9 13  1  0  0  0  0
  9 14  1  0  0  0  0
M  CHG  1   6   1
M  END
>  <CHROM.0>
-58.70176989,-177.40032106,-22.69477857,-46.35806153,-176.49604307,-44.53274307
-63.92320686,56.46311369,-167.95221613

>  <CHROM.1>
147.97843944,155.90600793,2.49826018,19.38558928,-3.76435825,-1.38101811
-0.18176777,1.55372326

>  <Name>
P152612369

>  <RI>
2.22087e+07

>  <Rbt.Current_Directory>
/home/fstefaniak/projects/zuza/docking/adenine/4XNR

>  <Rbt.Executable>
rbdock ($Id: //depot/dev/client3/rdock/2013.1/src/exe/rbdock.cxx#4 $)

>  <Rbt.Library>
libRbt.so (2013.1, Build901 2013/11/27)

>  <Rbt.Parameter_File>
/home/fstefaniak/progs/rDock//data/scripts/dock_solv.prm

>  <Rbt.Receptor>
4xnr.prm

>  <SCORE>
-46.3697

>  <SCORE.INTER>
-30.4373

>  <SCORE.INTER.CONST>
1

>  <SCORE.INTER.POLAR>
-5.36757

>  <SCORE.INTER.ROT>
2

>  <SCORE.INTER.SOLV>
20.2553

>  <SCORE.INTER.VDW>
-14.0847

>  <SCORE.INTER.norm>
-3.80466

>  <SCORE.INTRA>
-0.270021

>  <SCORE.INTRA.DIHEDRAL>
-0.249443

>  <SCORE.INTRA.DIHEDRAL.0>
3.2197

>  <SCORE.INTRA.POLAR>
-0.015678

>  <SCORE.INTRA.POLAR.0>
-0.0758958

>  <SCORE.INTRA.REPUL>
0

>  <SCORE.INTRA.REPUL.0>
0

>  <SCORE.INTRA.SOLV>
0.220328

>  <SCORE.INTRA.SOLV.lig_0>
-28.7305

>  <SCORE.INTRA.VDW>
-0.202159

>  <SCORE.INTRA.VDW.0>
-0.726309

>  <SCORE.INTRA.norm>
-0.0337527

>  <SCORE.RESTR>
2.0428

>  <SCORE.RESTR.CAVITY>
2.0428

>  <SCORE.RESTR.norm>
0.255349

>  <SCORE.SYSTEM>
-17.7052

>  <SCORE.SYSTEM.CONST>
0

>  <SCORE.SYSTEM.DIHEDRAL>
9.45986

>  <SCORE.SYSTEM.POLAR>
-3.39979

>  <SCORE.SYSTEM.SOLV>
-0.0153406

>  <SCORE.SYSTEM.VDW>
-3.619

>  <SCORE.SYSTEM.norm>
-2.21315

>  <SCORE.heavy>
8

>  <SCORE.norm>
-5.79621

$$$$
P152621411
 OpenBabel12072022113D
libRbt.so/2013.1/901 2013/11/27
 16 16  0  0  0  0  0  0  0  0999 V2000
    3.7127   12.0051    3.4406 C   0  0  0  0  0  0  0  0  0  0  0  0
    3.4265   13.4689    3.6650 C   0  0  0  0  0  0  0  0  0  0  0  0
    4.4980   14.3721    3.6601 C   0  0  0  0  0  0  0  0  0  0  0  0
    4.2788   15.7304    3.8446 C   0  0  0  0  0  0  0  0  0  0  0  0
    2.9815   16.2038    4.0298 C   0  0  0  0  0  0  0  0  0  0  0  0
    1.8739   15.3316    4.0567 C   0  0  0  0  0  0  0  0  0  0  0  0
    2.1022   13.9441    3.8554 C   0  0  0  0  0  0  0  0  0  0  0  0
    0.9624   12.9676    3.8484 C   0  0  0  0  0  0  0  0  0  0  0  0
    1.1463   11.8911    4.5177 O   0  0  0  0  0  0  0  0  0  0  0  0
   -0.1524   13.3498    3.3963 O   0  5  0  0  0  0  0  0  0  0  0  0
    0.5914   15.9543    4.1521 N   0  0  0  0  0  0  0  0  0  0  0  0
    0.3945   17.3895    3.9388 N   0  3  0  0  0  0  0  0  0  0  0  0
    0.0759   17.5747    2.9725 H   0  0  0  0  0  0  0  0  0  0  0  0
   -0.5126   17.6837    4.4104 H   0  0  0  0  0  0  0  0  0  0  0  0
    1.1421   18.0140    4.2345 H   0  0  0  0  0  0  0  0  0  0  0  0
   -0.1567   15.3199    3.8628 H   0  0  0  0  0  0  0  0  0  0  0  0
  1  2  1  0  0  0  0
  2  3  2  0  0  0  0
  2  7  1  0  0  0  0
  3  4  1  0  0  0  0
  4  5  2  0  0  0  0
  5  6  1  0  0  0  0
  6  7  2  0  0  0  0
  6 11  1  0  0  0  0
  7  8  1  0  0  0  0
  8  9  2  0  0  0  0
  8 10  1  0  0  0  0
 11 12  1  0  0  0  0
 11 16  1  0  0  0  0
 12 13  1  0  0  0  0
 12 14  1  0  0  0  0
 12 15  1  0  0  0  0
M  CHG  2  10  -1  12   1
M  END
>  <CHROM.0>
-55.29301843,-60.56761155,-65.00766553,-41.80425258,-54.58342095,-62.16608911
-71.31975980,-64.56973018,-168.18642535

>  <CHROM.1>
13.11300077,44.63799167,97.44188861,2.04377667,14.39723231,3.86762079,-1.19853203
0.04712697,0.02555604

>  <Name>
P152621411

>  <RI>
9.71178e+06

>  <Rbt.Current_Directory>
/home/fstefaniak/projects/zuza/docking/adenine/4XNR

>  <Rbt.Executable>
rbdock ($Id: //depot/dev/client3/rdock/2013.1/src/exe/rbdock.cxx#4 $)

>  <Rbt.Library>
libRbt.so (2013.1, Build901 2013/11/27)

>  <Rbt.Parameter_File>
/home/fstefaniak/progs/rDock//data/scripts/dock_solv.prm

>  <Rbt.Receptor>
4xnr.prm

>  <SCORE>
-50.8199

>  <SCORE.INTER>
-23.2671

>  <SCORE.INTER.CONST>
1

>  <SCORE.INTER.POLAR>
-4.43179

>  <SCORE.INTER.ROT>
2

>  <SCORE.INTER.SOLV>
21.2814

>  <SCORE.INTER.VDW>
-12.7659

>  <SCORE.INTER.norm>
-1.93892

>  <SCORE.INTRA>
-6.90522

>  <SCORE.INTRA.DIHEDRAL>
-3.84881

>  <SCORE.INTRA.DIHEDRAL.0>
9.93661

>  <SCORE.INTRA.POLAR>
0.063604

>  <SCORE.INTRA.POLAR.0>
-0.063604

>  <SCORE.INTRA.REPUL>
0

>  <SCORE.INTRA.REPUL.0>
0

>  <SCORE.INTRA.SOLV>
-7.07562

>  <SCORE.INTRA.SOLV.lig_0>
-45.1123

>  <SCORE.INTRA.VDW>
-1.65926

>  <SCORE.INTRA.VDW.0>
1.61851

>  <SCORE.INTRA.norm>
-0.575435

>  <SCORE.RESTR>
0.00778351

>  <SCORE.RESTR.CAVITY>
0.00778351

>  <SCORE.RESTR.norm>
0.000648626

>  <SCORE.SYSTEM>
-20.6554

>  <SCORE.SYSTEM.CONST>
0

>  <SCORE.SYSTEM.DIHEDRAL>
5.25956

>  <SCORE.SYSTEM.POLAR>
-3.104

>  <SCORE.SYSTEM.SOLV>
0.287633

>  <SCORE.SYSTEM.VDW>
-5.27264

>  <SCORE.SYSTEM.norm>
-1.72128

>  <SCORE.heavy>
12

>  <SCORE.norm>
-4.23499

$$$$
P152621411
 OpenBabel12072022113D
libRbt.so/2013.1/901 2013/11/27
 16 16  0  0  0  0  0  0  0  0999 V2000
    3.6706   12.0382    3.4915 C   0  0  0  0  0  0  0  0  0  0  0  0
    3.3775   13.5035    3.6968 C   0  0  0  0  0  0  0  0  0  0  0  0
    4.4407   14.4152    3.6498 C   0  0  0  0  0  0  0  0  0  0  0  0
    4.2143   15.7747    3.8155 C   0  0  0  0  0  0  0  0  0  0  0  0
    2.9179   16.2408    4.0238 C   0  0  0  0  0  0  0  0  0  0  0  0
    1.8187   15.3601    4.0932 C   0  0  0  0  0  0  0  0  0  0  0  0
    2.0541   13.9711    3.9109 C   0  0  0  0  0  0  0  0  0  0  0  0
    0.9229   12.9854    3.9490 C   0  0  0  0  0  0  0  0  0  0  0  0
   -0.0589   13.2329    3.1644 O   0  0  0  0  0  0  0  0  0  0  0  0
    1.0999   11.8919    4.5540 O   0  5  0  0  0  0  0  0  0  0  0  0
    0.5337   15.9739    4.2087 N   0  0  0  0  0  0  0  0  0  0  0  0
    0.2933   17.3728    3.8489 N   0  3  0  0  0  0  0  0  0  0  0  0
   -0.5465   17.7349    4.3317 H   0  0  0  0  0  0  0  0  0  0  0  0
    0.9904   17.9843    4.3703 H   0  0  0  0  0  0  0  0  0  0  0  0
    0.3139   17.6122    2.8597 H   0  0  0  0  0  0  0  0  0  0  0  0
   -0.2197   15.3015    4.0472 H   0  0  0  0  0  0  0  0  0  0  0  0
  1  2  1  0  0  0  0
  2  3  2  0  0  0  0
  2  7  1  0  0  0  0
  3  4  1  0  0  0  0
  4  5  2  0  0  0  0
  5  6  1  0  0  0  0
  6  7  2  0  0  0  0
  6 11  1  0  0  0  0
  7  8  1  0  0  0  0
  8  9  2  0  0  0  0
  8 10  1  0  0  0  0
 11 12  1  0  0  0  0
 11 16  1  0  0  0  0
 12 13  1  0  0  0  0
 12 14  1  0  0  0  0
 12 15  1  0  0  0  0
M  CHG  2  10  -1  12   1
M  END
>  <CHROM.0>
-55.02349104,-174.24000882,-65.78552912,-47.99748472,-176.01851429,-65.80676014
-66.86425127,-57.80217881,-167.76859921

>  <CHROM.1>
19.25379661,-127.00248972,-157.50010431,2.00266294,14.40706881,3.86402299
-1.24353008,0.03479678,0.02026898

>  <Name>
P152621411

>  <RI>
9.71178e+06

>  <Rbt.Current_Directory>
/home/fstefaniak/projects/zuza/docking/adenine/4XNR

>  <Rbt.Executable>
rbdock ($Id: //depot/dev/client3/rdock/2013.1/src/exe/rbdock.cxx#4 $)

>  <Rbt.Library>
libRbt.so (2013.1, Build901 2013/11/27)

>  <Rbt.Parameter_File>
/home/fstefaniak/progs/rDock//data/scripts/dock_solv.prm

>  <Rbt.Receptor>
4xnr.prm

>  <SCORE>
-50.783

>  <SCORE.INTER>
-23.7138

>  <SCORE.INTER.CONST>
1

>  <SCORE.INTER.POLAR>
-4.35015

>  <SCORE.INTER.ROT>
2

>  <SCORE.INTER.SOLV>
21.1678

>  <SCORE.INTER.VDW>
-13.2979

>  <SCORE.INTER.norm>
-1.97615

>  <SCORE.INTRA>
-6.33302

>  <SCORE.INTRA.DIHEDRAL>
-2.28529

>  <SCORE.INTRA.DIHEDRAL.0>
9.93661

>  <SCORE.INTRA.POLAR>
0.063604

>  <SCORE.INTRA.POLAR.0>
-0.063604

>  <SCORE.INTRA.REPUL>
0

>  <SCORE.INTRA.REPUL.0>
0

>  <SCORE.INTRA.SOLV>
-7.12557

>  <SCORE.INTRA.SOLV.lig_0>
-45.1123

>  <SCORE.INTRA.VDW>
-1.84384

>  <SCORE.INTRA.VDW.0>
1.61851

>  <SCORE.INTRA.norm>
-0.527752

>  <SCORE.RESTR>
0.00578018

>  <SCORE.RESTR.CAVITY>
0.00578018

>  <SCORE.RESTR.norm>
0.000481681

>  <SCORE.SYSTEM>
-20.742

>  <SCORE.SYSTEM.CONST>
0

>  <SCORE.SYSTEM.DIHEDRAL>
4.34653

>  <SCORE.SYSTEM.POLAR>
-3.00129

>  <SCORE.SYSTEM.SOLV>
0.0860293

>  <SCORE.SYSTEM.VDW>
-5.30121

>  <SCORE.SYSTEM.norm>
-1.7285

>  <SCORE.heavy>
12

>  <SCORE.norm>
-4.23192

$$$$
P152621411
 OpenBabel12072022113D
libRbt.so/2013.1/901 2013/11/27
 16 16  0  0  0  0  0  0  0  0999 V2000
    3.6707   12.0423    3.4384 C   0  0  0  0  0  0  0  0  0  0  0  0
    3.3814   13.5037    3.6747 C   0  0  0  0  0  0  0  0  0  0  0  0
    4.4486   14.4118    3.6582 C   0  0  0  0  0  0  0  0  0  0  0  0
    4.2261   15.7681    3.8531 C   0  0  0  0  0  0  0  0  0  0  0  0
    2.9297   16.2347    4.0604 C   0  0  0  0  0  0  0  0  0  0  0  0
    1.8265   15.3572    4.0996 C   0  0  0  0  0  0  0  0  0  0  0  0
    2.0580   13.9718    3.8876 C   0  0  0  0  0  0  0  0  0  0  0  0
    0.9226   12.9902    3.8929 C   0  0  0  0  0  0  0  0  0  0  0  0
   -0.1732   13.4080    4.4080 O   0  0  0  0  0  0  0  0  0  0  0  0
    1.0376   11.9360    3.2084 O   0  5  0  0  0  0  0  0  0  0  0  0
    0.5429   15.9736    4.2177 N   0  0  0  0  0  0  0  0  0  0  0  0
    0.3031   17.3711    3.8521 N   0  3  0  0  0  0  0  0  0  0  0  0
   -0.5244   17.7418    4.3494 H   0  0  0  0  0  0  0  0  0  0  0  0
    1.0144   17.9824    4.3541 H   0  0  0  0  0  0  0  0  0  0  0  0
    0.3045   17.6027    2.8608 H   0  0  0  0  0  0  0  0  0  0  0  0
   -0.2122   15.3015    4.0627 H   0  0  0  0  0  0  0  0  0  0  0  0
  1  2  1  0  0  0  0
  2  3  2  0  0  0  0
  2  7  1  0  0  0  0
  3  4  1  0  0  0  0
  4  5  2  0  0  0  0
  5  6  1  0  0  0  0
  6  7  2  0  0  0  0
  6 11  1  0  0  0  0
  7  8  1  0  0  0  0
  8  9  2  0  0  0  0
  8 10  1  0  0  0  0
 11 12  1  0  0  0  0
 11 16  1  0  0  0  0
 12 13  1  0  0  0  0
 12 14  1  0  0  0  0
 12 15  1  0  0  0  0
M  CHG  2  10  -1  12   1
M  END
>  <CHROM.0>
-53.12085536,-169.29425060,-68.10417690,-45.23982187,-177.03465307,-56.52978037
-66.33094906,-57.78819968,-166.72754817

>  <CHROM.1>
21.03014605,163.36885640,-156.51032473,1.99112411,14.42729696,3.85014413
-1.18001221,0.07833580,0.09114495

>  <Name>
P152621411

>  <RI>
9.71178e+06

>  <Rbt.Current_Directory>
/home/fstefaniak/projects/zuza/docking/adenine/4XNR

>  <Rbt.Executable>
rbdock ($Id: //depot/dev/client3/rdock/2013.1/src/exe/rbdock.cxx#4 $)

>  <Rbt.Library>
libRbt.so (2013.1, Build901 2013/11/27)

>  <Rbt.Parameter_File>
/home/fstefaniak/progs/rDock//data/scripts/dock_solv.prm

>  <Rbt.Receptor>
4xnr.prm

>  <SCORE>
-50.5591

>  <SCORE.INTER>
-23.4043

>  <SCORE.INTER.CONST>
1

>  <SCORE.INTER.POLAR>
-4.38015

>  <SCORE.INTER.ROT>
2

>  <SCORE.INTER.SOLV>
21.8244

>  <SCORE.INTER.VDW>
-13.2105

>  <SCORE.INTER.norm>
-1.95036

>  <SCORE.INTRA>
-7.32453

>  <SCORE.INTRA.DIHEDRAL>
-7.23576

>  <SCORE.INTRA.DIHEDRAL.0>
9.93661

>  <SCORE.INTRA.POLAR>
-0.0335883

>  <SCORE.INTRA.POLAR.0>
-0.063604

>  <SCORE.INTRA.REPUL>
0

>  <SCORE.INTRA.REPUL.0>
0

>  <SCORE.INTRA.SOLV>
-6.81946

>  <SCORE.INTRA.SOLV.lig_0>
-45.1123

>  <SCORE.INTRA.VDW>
-0.182716

>  <SCORE.INTRA.VDW.0>
1.61851

>  <SCORE.INTRA.norm>
-0.610377

>  <SCORE.RESTR>
0.554562

>  <SCORE.RESTR.CAVITY>
0.554562

>  <SCORE.RESTR.norm>
0.0462135

>  <SCORE.SYSTEM>
-20.3848

>  <SCORE.SYSTEM.CONST>
0

>  <SCORE.SYSTEM.DIHEDRAL>
5.24817

>  <SCORE.SYSTEM.POLAR>
-3.06913

>  <SCORE.SYSTEM.SOLV>
0.10497

>  <SCORE.SYSTEM.VDW>
-5.14382

>  <SCORE.SYSTEM.norm>
-1.69873

>  <SCORE.heavy>
12

>  <SCORE.norm>
-4.21326

$$$$
P152625938
 OpenBabel12072022113D
libRbt.so/2013.1/901 2013/11/27
 14 13  0  0  0  0  0  0  0  0999 V2000
    2.1118   14.2516    3.8627 C   0  0  0  0  0  0  0  0  0  0  0  0
    2.1378   15.7636    3.6993 C   0  0  2  0  0  0  0  0  0  0  0  0
    3.4726   16.3660    4.1455 C   0  0  0  0  0  0  0  0  0  0  0  0
    4.4083   16.4565    2.9568 C   0  0  0  0  0  0  0  0  0  0  0  0
    4.1427   17.3780    2.0742 N   0  0  0  0  0  0  0  0  0  0  0  0
    5.0873   17.3272    1.0367 O   0  0  0  0  0  0  0  0  0  0  0  0
    5.4383   15.5656    2.8623 N   0  0  0  0  0  0  0  0  0  0  0  0
    1.0256   16.3338    4.5190 N   0  3  0  0  0  0  0  0  0  0  0  0
    1.1447   17.3657    4.5677 H   0  0  0  0  0  0  0  0  0  0  0  0
    0.1011   16.1517    4.1115 H   0  0  0  0  0  0  0  0  0  0  0  0
    1.0319   15.9995    5.4900 H   0  0  0  0  0  0  0  0  0  0  0  0
    4.5496   17.3711    0.2221 H   0  0  0  0  0  0  0  0  0  0  0  0
    5.2403   14.6258    2.5327 H   0  0  0  0  0  0  0  0  0  0  0  0
    6.0322   15.5678    3.6917 H   0  0  0  0  0  0  0  0  0  0  0  0
  2  3  1  0  0  0  0
  2  8  1  0  0  0  0
  2  1  1  1  0  0  0
  3  4  1  0  0  0  0
  4  5  2  0  0  0  0
  4  7  1  0  0  0  0
  5  6  1  0  0  0  0
  6 12  1  0  0  0  0
  7 13  1  0  0  0  0
  7 14  1  0  0  0  0
  8  9  1  0  0  0  0
  8 10  1  0  0  0  0
  8 11  1  0  0  0  0
M  CHG  1   8   1
M  END
>  <CHROM.0>
-55.49765561,-54.38572936,-37.00280204,50.08460963,179.09461860,-65.07136377
-64.80307023,-176.34445587,-166.81898788

>  <CHROM.1>
91.91968373,169.00171314,73.04172497,78.62900747,133.30076929,3.46518749
16.18169899,3.12887067,-2.58717333,0.42240907,-0.50258843

>  <Name>
P152625938

>  <RI>
2.22087e+07

>  <Rbt.Current_Directory>
/home/fstefaniak/projects/zuza/docking/adenine/4XNR

>  <Rbt.Executable>
rbdock ($Id: //depot/dev/client3/rdock/2013.1/src/exe/rbdock.cxx#4 $)

>  <Rbt.Library>
libRbt.so (2013.1, Build901 2013/11/27)

>  <Rbt.Parameter_File>
/home/fstefaniak/progs/rDock//data/scripts/dock_solv.prm

>  <Rbt.Receptor>
4xnr.prm

>  <SCORE>
-56.3588

>  <SCORE.INTER>
-41.9388

>  <SCORE.INTER.CONST>
1

>  <SCORE.INTER.POLAR>
-7.86608

>  <SCORE.INTER.ROT>
3

>  <SCORE.INTER.SOLV>
18.7558

>  <SCORE.INTER.VDW>
-13.5909

>  <SCORE.INTER.norm>
-5.24235

>  <SCORE.INTRA>
2.23788

>  <SCORE.INTRA.DIHEDRAL>
1.83595

>  <SCORE.INTRA.DIHEDRAL.0>
4.01598

>  <SCORE.INTRA.POLAR>
0.859103

>  <SCORE.INTRA.POLAR.0>
-0.859103

>  <SCORE.INTRA.REPUL>
0

>  <SCORE.INTRA.REPUL.0>
0

>  <SCORE.INTRA.SOLV>
-2.84045

>  <SCORE.INTRA.SOLV.lig_0>
-27.776

>  <SCORE.INTRA.VDW>
-0.180817

>  <SCORE.INTRA.VDW.0>
-0.179238

>  <SCORE.INTRA.norm>
0.279735

>  <SCORE.RESTR>
0

>  <SCORE.RESTR.CAVITY>
0

>  <SCORE.RESTR.norm>
0

>  <SCORE.SYSTEM>
-16.6579

>  <SCORE.SYSTEM.CONST>
0

>  <SCORE.SYSTEM.DIHEDRAL>
6.02245

>  <SCORE.SYSTEM.POLAR>
-2.66488

>  <SCORE.SYSTEM.SOLV>
-0.0274457

>  <SCORE.SYSTEM.VDW>
-4.22065

>  <SCORE.SYSTEM.norm>
-2.08223

>  <SCORE.heavy>
8

>  <SCORE.norm>
-7.04485

$$$$
P152625938
 OpenBabel12072022113D
libRbt.so/2013.1/901 2013/11/27
 14 13  0  0  0  0  0  0  0  0999 V2000
    1.5650   14.6464    4.5015 C   0  0  0  0  0  0  0  0  0  0  0  0
    2.0392   15.7239    3.5384 C   0  0  2  0  0  0  0  0  0  0  0  0
    3.3092   16.4192    4.0355 C   0  0  0  0  0  0  0  0  0  0  0  0
    4.3038   16.5281    2.8971 C   0  0  0  0  0  0  0  0  0  0  0  0
    4.0577   17.4332    1.9922 N   0  0  0  0  0  0  0  0  0  0  0  0
    5.0573   17.4026    1.0067 O   0  0  0  0  0  0  0  0  0  0  0  0
    5.3639   15.6686    2.8665 N   0  0  0  0  0  0  0  0  0  0  0  0
    0.9389   16.7246    3.3903 N   0  3  0  0  0  0  0  0  0  0  0  0
    1.1526   17.5443    3.9935 H   0  0  0  0  0  0  0  0  0  0  0  0
    0.8455   17.0695    2.4279 H   0  0  0  0  0  0  0  0  0  0  0  0
    0.0285   16.3682    3.7048 H   0  0  0  0  0  0  0  0  0  0  0  0
    4.5638   17.4495    0.1648 H   0  0  0  0  0  0  0  0  0  0  0  0
    5.1993   14.7019    2.6030 H   0  0  0  0  0  0  0  0  0  0  0  0
    5.9542   15.7490    3.6946 H   0  0  0  0  0  0  0  0  0  0  0  0
  2  3  1  0  0  0  0
  2  8  1  0  0  0  0
  2  1  1  1  0  0  0
  3  4  1  0  0  0  0
  4  5  2  0  0  0  0
  4  7  1  0  0  0  0
  5  6  1  0  0  0  0
  6 12  1  0  0  0  0
  7 13  1  0  0  0  0
  7 14  1  0  0  0  0
  8  9  1  0  0  0  0
  8 10  1  0  0  0  0
  8 11  1  0  0  0  0
M  CHG  1   8   1
M  END
>  <CHROM.0>
-61.36057116,-63.98104706,-65.87790017,-48.63371072,-64.86555618,-175.92731692
-69.08125005,-175.26011284,-167.71353764

>  <CHROM.1>
133.91115353,100.02995046,75.17433650,74.11990132,134.92253854,3.31844407
16.33180658,2.99188281,-2.54632419,0.21154247,-0.74835385

>  <Name>
P152625938

>  <RI>
2.22087e+07

>  <Rbt.Current_Directory>
/home/fstefaniak/projects/zuza/docking/adenine/4XNR

>  <Rbt.Executable>
rbdock ($Id: //depot/dev/client3/rdock/2013.1/src/exe/rbdock.cxx#4 $)

>  <Rbt.Library>
libRbt.so (2013.1, Build901 2013/11/27)

>  <Rbt.Parameter_File>
/home/fstefaniak/progs/rDock//data/scripts/dock_solv.prm

>  <Rbt.Receptor>
4xnr.prm

>  <SCORE>
-56.0069

>  <SCORE.INTER>
-41.0004

>  <SCORE.INTER.CONST>
1

>  <SCORE.INTER.POLAR>
-7.39618

>  <SCORE.INTER.ROT>
3

>  <SCORE.INTER.SOLV>
17.1512

>  <SCORE.INTER.VDW>
-13.9967

>  <SCORE.INTER.norm>
-5.12505

>  <SCORE.INTRA>
5.63808

>  <SCORE.INTRA.DIHEDRAL>
5.98718

>  <SCORE.INTRA.DIHEDRAL.0>
4.01598

>  <SCORE.INTRA.POLAR>
0.859103

>  <SCORE.INTRA.POLAR.0>
-0.859103

>  <SCORE.INTRA.REPUL>
0

>  <SCORE.INTRA.REPUL.0>
0

>  <SCORE.INTRA.SOLV>
-2.03308

>  <SCORE.INTRA.SOLV.lig_0>
-27.776

>  <SCORE.INTRA.VDW>
0.740078

>  <SCORE.INTRA.VDW.0>
-0.179238

>  <SCORE.INTRA.norm>
0.70476

>  <SCORE.RESTR>
0

>  <SCORE.RESTR.CAVITY>
0

>  <SCORE.RESTR.norm>
0

>  <SCORE.SYSTEM>
-20.6445

>  <SCORE.SYSTEM.CONST>
0

>  <SCORE.SYSTEM.DIHEDRAL>
4.29727

>  <SCORE.SYSTEM.POLAR>
-2.94198

>  <SCORE.SYSTEM.SOLV>
0.0162643

>  <SCORE.SYSTEM.VDW>
-5.39427

>  <SCORE.SYSTEM.norm>
-2.58057

>  <SCORE.heavy>
8

>  <SCORE.norm>
-7.00086

$$$$
P152625938
 OpenBabel12072022113D
libRbt.so/2013.1/901 2013/11/27
 14 13  0  0  0  0  0  0  0  0999 V2000
    2.0471   14.2273    3.9473 C   0  0  0  0  0  0  0  0  0  0  0  0
    2.1262   15.7323    3.7423 C   0  0  2  0  0  0  0  0  0  0  0  0
    3.4726   16.3031    4.1953 C   0  0  0  0  0  0  0  0  0  0  0  0
    4.3935   16.4347    2.9988 C   0  0  0  0  0  0  0  0  0  0  0  0
    4.1033   17.3708    2.1397 N   0  0  0  0  0  0  0  0  0  0  0  0
    5.0370   17.3581    1.0912 O   0  0  0  0  0  0  0  0  0  0  0  0
    5.4365   15.5630    2.8737 N   0  0  0  0  0  0  0  0  0  0  0  0
    1.0200   16.3618    4.5260 N   0  3  0  0  0  0  0  0  0  0  0  0
    0.1221   16.1874    4.0312 H   0  0  0  0  0  0  0  0  0  0  0  0
    0.9305   15.9677    5.4697 H   0  0  0  0  0  0  0  0  0  0  0  0
    1.1119   17.3820    4.5998 H   0  0  0  0  0  0  0  0  0  0  0  0
    4.4880   17.3426    0.2830 H   0  0  0  0  0  0  0  0  0  0  0  0
    5.2471   14.6214    2.5442 H   0  0  0  0  0  0  0  0  0  0  0  0
    6.0511   15.5719    3.6878 H   0  0  0  0  0  0  0  0  0  0  0  0
  2  3  1  0  0  0  0
  2  8  1  0  0  0  0
  2  1  1  1  0  0  0
  3  4  1  0  0  0  0
  4  5  2  0  0  0  0
  4  7  1  0  0  0  0
  5  6  1  0  0  0  0
  6 12  1  0  0  0  0
  7 13  1  0  0  0  0
  7 14  1  0  0  0  0
  8  9  1  0  0  0  0
  8 10  1  0  0  0  0
  8 11  1  0  0  0  0
M  CHG  1   8   1
M  END
>  <CHROM.0>
-55.38022174,-63.32884153,-68.74171336,49.06649500,-52.97684229,53.82422926
-69.37833913,-63.78391630,-168.09669748

>  <CHROM.1>
96.50827294,-74.24173115,71.16503007,77.35482143,129.16356848,3.44051531
16.17175450,3.17187055,-2.57905322,0.41187139,-0.50892357

>  <Name>
P152625938

>  <RI>
2.22087e+07

>  <Rbt.Current_Directory>
/home/fstefaniak/projects/zuza/docking/adenine/4XNR

>  <Rbt.Executable>
rbdock ($Id: //depot/dev/client3/rdock/2013.1/src/exe/rbdock.cxx#4 $)

>  <Rbt.Library>
libRbt.so (2013.1, Build901 2013/11/27)

>  <Rbt.Parameter_File>
/home/fstefaniak/progs/rDock//data/scripts/dock_solv.prm

>  <Rbt.Receptor>
4xnr.prm

>  <SCORE>
-55.4022

>  <SCORE.INTER>
-41.526

>  <SCORE.INTER.CONST>
1

>  <SCORE.INTER.POLAR>
-7.83755

>  <SCORE.INTER.ROT>
3

>  <SCORE.INTER.SOLV>
18.7176

>  <SCORE.INTER.VDW>
-13.398

>  <SCORE.INTER.norm>
-5.19075

>  <SCORE.INTRA>
2.58525

>  <SCORE.INTRA.DIHEDRAL>
2.47646

>  <SCORE.INTRA.DIHEDRAL.0>
4.01598

>  <SCORE.INTRA.POLAR>
0.859103

>  <SCORE.INTRA.POLAR.0>
-0.859103

>  <SCORE.INTRA.REPUL>
0

>  <SCORE.INTRA.REPUL.0>
0

>  <SCORE.INTRA.SOLV>
-2.85937

>  <SCORE.INTRA.SOLV.lig_0>
-27.776

>  <SCORE.INTRA.VDW>
-0.144248

>  <SCORE.INTRA.VDW.0>
-0.179238

>  <SCORE.INTRA.norm>
0.323156

>  <SCORE.RESTR>
0

>  <SCORE.RESTR.CAVITY>
0

>  <SCORE.RESTR.norm>
0

>  <SCORE.SYSTEM>
-16.4614

>  <SCORE.SYSTEM.CONST>
0

>  <SCORE.SYSTEM.DIHEDRAL>
4.66543

>  <SCORE.SYSTEM.POLAR>
-2.46407

>  <SCORE.SYSTEM.SOLV>
0.107036

>  <SCORE.SYSTEM.VDW>
-4.35156

>  <SCORE.SYSTEM.norm>
-2.05768

>  <SCORE.heavy>
8

>  <SCORE.norm>
-6.92528

$$$$
P153029743
 OpenBabel12072022113D
libRbt.so/2013.1/901 2013/11/27
 12 11  0  0  0  0  0  0  0  0999 V2000
    6.9778   18.3170    1.6990 C   0  0  0  0  0  0  0  0  0  0  0  0
    6.8825   17.9632    3.1800 C   0  0  2  0  0  0  0  0  0  0  0  0
    5.5950   17.1605    3.4651 C   0  0  0  0  0  0  0  0  0  0  0  0
    5.6061   15.8713    2.8585 O   0  0  0  0  0  0  0  0  0  0  0  0
    6.9492   19.1963    3.9706 N   0  0  0  0  0  0  0  0  0  0  0  0
    7.2780   19.1793    5.2991 C   0  0  0  0  0  0  0  0  0  0  0  0
    8.4153   19.0017    5.7130 O   0  0  0  0  0  0  0  0  0  0  0  0
    6.1751   19.3610    6.0887 N   0  0  0  0  0  0  0  0  0  0  0  0
    5.5392   18.2251    6.7085 C   0  0  0  0  0  0  0  0  0  0  0  0
    6.3139   15.3388    3.2830 H   0  0  0  0  0  0  0  0  0  0  0  0
    6.3151   19.9395    3.7133 H   0  0  0  0  0  0  0  0  0  0  0  0
    6.1632   20.2275    6.6062 H   0  0  0  0  0  0  0  0  0  0  0  0
  2  3  1  0  0  0  0
  2  5  1  0  0  0  0
  2  1  1  6  0  0  0
  3  4  1  0  0  0  0
  4 10  1  0  0  0  0
  5  6  1  0  0  0  0
  5 11  1  0  0  0  0
  6  7  2  0  0  0  0
  6  8  1  0  0  0  0
  8  9  1  0  0  0  0
  8 12  1  0  0  0  0
M  END
>  <CHROM.0>
-56.93801348,-63.86132516,-73.01523477,-49.47698346,-61.10280524,-63.71048969
-170.79064796,-62.25325790,-168.14048424

>  <CHROM.1>
66.85343879,-160.57427446,65.78255084,74.68492683,99.92136440,6.58880936
18.22219458,4.32651585,-1.80579111,0.77947004,1.21682029

>  <Name>
P153029743

>  <RI>
3.02409e+07

>  <Rbt.Current_Directory>
/home/fstefaniak/projects/zuza/docking/adenine/4XNR

>  <Rbt.Executable>
rbdock ($Id: //depot/dev/client3/rdock/2013.1/src/exe/rbdock.cxx#4 $)

>  <Rbt.Library>
libRbt.so (2013.1, Build901 2013/11/27)

>  <Rbt.Parameter_File>
/home/fstefaniak/progs/rDock//data/scripts/dock_solv.prm

>  <Rbt.Receptor>
4xnr.prm

>  <SCORE>
-54.8527

>  <SCORE.INTER>
-31.0388

>  <SCORE.INTER.CONST>
1

>  <SCORE.INTER.POLAR>
-4.05267

>  <SCORE.INTER.ROT>
4

>  <SCORE.INTER.SOLV>
14.3712

>  <SCORE.INTER.VDW>
-18.2407

>  <SCORE.INTER.norm>
-3.44875

>  <SCORE.INTRA>
-3.43045

>  <SCORE.INTRA.DIHEDRAL>
-4.52857

>  <SCORE.INTRA.DIHEDRAL.0>
6.1878

>  <SCORE.INTRA.POLAR>
0.201268

>  <SCORE.INTRA.POLAR.0>
-0.201268

>  <SCORE.INTRA.REPUL>
0

>  <SCORE.INTRA.REPUL.0>
0

>  <SCORE.INTRA.SOLV>
-1.01097

>  <SCORE.INTRA.SOLV.lig_0>
-16.2732

>  <SCORE.INTRA.VDW>
-1.34499

>  <SCORE.INTRA.VDW.0>
0.590693

>  <SCORE.INTRA.norm>
-0.381161

>  <SCORE.RESTR>
0

>  <SCORE.RESTR.CAVITY>
0

>  <SCORE.RESTR.norm>
0

>  <SCORE.SYSTEM>
-20.3835

>  <SCORE.SYSTEM.CONST>
0

>  <SCORE.SYSTEM.DIHEDRAL>
4.60523

>  <SCORE.SYSTEM.POLAR>
-2.93704

>  <SCORE.SYSTEM.SOLV>
0.215744

>  <SCORE.SYSTEM.VDW>
-5.40585

>  <SCORE.SYSTEM.norm>
-2.26483

>  <SCORE.heavy>
9

>  <SCORE.norm>
-6.09475

$$$$
P153029743
 OpenBabel12072022113D
libRbt.so/2013.1/901 2013/11/27
 12 11  0  0  0  0  0  0  0  0999 V2000
    7.0480   18.3092    1.7019 C   0  0  0  0  0  0  0  0  0  0  0  0
    6.9111   17.9935    3.1883 C   0  0  2  0  0  0  0  0  0  0  0  0
    5.6081   17.2113    3.4598 C   0  0  0  0  0  0  0  0  0  0  0  0
    5.6134   15.9142    2.8702 O   0  0  0  0  0  0  0  0  0  0  0  0
    6.9709   19.2452    3.9496 N   0  0  0  0  0  0  0  0  0  0  0  0
    7.2936   19.2607    5.2796 C   0  0  0  0  0  0  0  0  0  0  0  0
    8.4332   19.1214    5.7016 O   0  0  0  0  0  0  0  0  0  0  0  0
    6.1824   19.4263    6.0611 N   0  0  0  0  0  0  0  0  0  0  0  0
    5.5951   18.2900    6.7264 C   0  0  0  0  0  0  0  0  0  0  0  0
    6.3113   15.3806    3.3093 H   0  0  0  0  0  0  0  0  0  0  0  0
    6.3361   19.9803    3.6719 H   0  0  0  0  0  0  0  0  0  0  0  0
    6.1319   20.3118    6.5430 H   0  0  0  0  0  0  0  0  0  0  0  0
  2  3  1  0  0  0  0
  2  5  1  0  0  0  0
  2  1  1  6  0  0  0
  3  4  1  0  0  0  0
  4 10  1  0  0  0  0
  5  6  1  0  0  0  0
  5 11  1  0  0  0  0
  6  7  2  0  0  0  0
  6  8  1  0  0  0  0
  8  9  1  0  0  0  0
  8 12  1  0  0  0  0
M  END
>  <CHROM.0>
-60.20804423,57.65109371,-72.27213099,-46.09581471,-57.41823111,-58.07342512
-171.02872046,-174.45303403,-168.08703408

>  <CHROM.1>
66.04409572,-159.14856065,65.31137423,76.12797575,101.53975632,6.61481977
18.27751828,4.32167017,-1.80525423,0.77580182,1.20055661

>  <Name>
P153029743

>  <RI>
3.02409e+07

>  <Rbt.Current_Directory>
/home/fstefaniak/projects/zuza/docking/adenine/4XNR

>  <Rbt.Executable>
rbdock ($Id: //depot/dev/client3/rdock/2013.1/src/exe/rbdock.cxx#4 $)

>  <Rbt.Library>
libRbt.so (2013.1, Build901 2013/11/27)

>  <Rbt.Parameter_File>
/home/fstefaniak/progs/rDock//data/scripts/dock_solv.prm

>  <Rbt.Receptor>
4xnr.prm

>  <SCORE>
-53.8594

>  <SCORE.INTER>
-31.0496

>  <SCORE.INTER.CONST>
1

>  <SCORE.INTER.POLAR>
-4.06889

>  <SCORE.INTER.ROT>
4

>  <SCORE.INTER.SOLV>
14.5224

>  <SCORE.INTER.VDW>
-18.2442

>  <SCORE.INTER.norm>
-3.44996

>  <SCORE.INTRA>
-3.48363

>  <SCORE.INTRA.DIHEDRAL>
-4.57054

>  <SCORE.INTRA.DIHEDRAL.0>
6.1878

>  <SCORE.INTRA.POLAR>
0.201268

>  <SCORE.INTRA.POLAR.0>
-0.201268

>  <SCORE.INTRA.REPUL>
0

>  <SCORE.INTRA.REPUL.0>
0

>  <SCORE.INTRA.SOLV>
-1.01685

>  <SCORE.INTRA.SOLV.lig_0>
-16.2732

>  <SCORE.INTRA.VDW>
-1.37425

>  <SCORE.INTRA.VDW.0>
0.590693

>  <SCORE.INTRA.norm>
-0.38707

>  <SCORE.RESTR>
0

>  <SCORE.RESTR.CAVITY>
0

>  <SCORE.RESTR.norm>
0

>  <SCORE.SYSTEM>
-19.3261

>  <SCORE.SYSTEM.CONST>
0

>  <SCORE.SYSTEM.DIHEDRAL>
4.88839

>  <SCORE.SYSTEM.POLAR>
-2.98168

>  <SCORE.SYSTEM.SOLV>
0.189534

>  <SCORE.SYSTEM.VDW>
-4.63776

>  <SCORE.SYSTEM.norm>
-2.14734

>  <SCORE.heavy>
9

>  <SCORE.norm>
-5.98437

$$$$
P153029743
 OpenBabel12072022113D
libRbt.so/2013.1/901 2013/11/27
 12 11  0  0  0  0  0  0  0  0999 V2000
    7.0464   18.2743    1.6620 C   0  0  0  0  0  0  0  0  0  0  0  0
    6.9354   17.9565    3.1501 C   0  0  2  0  0  0  0  0  0  0  0  0
    5.6297   17.1877    3.4456 C   0  0  0  0  0  0  0  0  0  0  0  0
    5.6111   15.8905    2.8568 O   0  0  0  0  0  0  0  0  0  0  0  0
    7.0238   19.2057    3.9128 N   0  0  0  0  0  0  0  0  0  0  0  0
    7.3415   19.2121    5.2440 C   0  0  0  0  0  0  0  0  0  0  0  0
    8.4697   19.0109    5.6719 O   0  0  0  0  0  0  0  0  0  0  0  0
    6.2385   19.4462    6.0195 N   0  0  0  0  0  0  0  0  0  0  0  0
    5.5764   18.3480    6.6787 C   0  0  0  0  0  0  0  0  0  0  0  0
    6.2973   15.3435    3.2980 H   0  0  0  0  0  0  0  0  0  0  0  0
    6.4087   19.9568    3.6332 H   0  0  0  0  0  0  0  0  0  0  0  0
    6.2414   20.3321    6.5032 H   0  0  0  0  0  0  0  0  0  0  0  0
  2  3  1  0  0  0  0
  2  5  1  0  0  0  0
  2  1  1  6  0  0  0
  3  4  1  0  0  0  0
  4 10  1  0  0  0  0
  5  6  1  0  0  0  0
  5 11  1  0  0  0  0
  6  7  2  0  0  0  0
  6  8  1  0  0  0  0
  8  9  1  0  0  0  0
  8 12  1  0  0  0  0
M  END
>  <CHROM.0>
-61.02153692,54.72395757,59.21581747,-46.08134394,-176.45438068,-61.62208211
50.86532854,-61.32421304,-167.39744053

>  <CHROM.1>
66.22880910,-160.73801083,66.61596762,74.24949671,100.89730876,6.63850462
18.25095182,4.28897751,-1.80410288,0.75469830,1.19375005

>  <Name>
P153029743

>  <RI>
3.02409e+07

>  <Rbt.Current_Directory>
/home/fstefaniak/projects/zuza/docking/adenine/4XNR

>  <Rbt.Executable>
rbdock ($Id: //depot/dev/client3/rdock/2013.1/src/exe/rbdock.cxx#4 $)

>  <Rbt.Library>
libRbt.so (2013.1, Build901 2013/11/27)

>  <Rbt.Parameter_File>
/home/fstefaniak/progs/rDock//data/scripts/dock_solv.prm

>  <Rbt.Receptor>
4xnr.prm

>  <SCORE>
-52.5957

>  <SCORE.INTER>
-31.0508

>  <SCORE.INTER.CONST>
1

>  <SCORE.INTER.POLAR>
-3.99597

>  <SCORE.INTER.ROT>
4

>  <SCORE.INTER.SOLV>
14.4901

>  <SCORE.INTER.VDW>
-18.4773

>  <SCORE.INTER.norm>
-3.45009

>  <SCORE.INTRA>
-3.43165

>  <SCORE.INTRA.DIHEDRAL>
-4.50963

>  <SCORE.INTRA.DIHEDRAL.0>
6.1878

>  <SCORE.INTRA.POLAR>
0.201268

>  <SCORE.INTRA.POLAR.0>
-0.201268

>  <SCORE.INTRA.REPUL>
0

>  <SCORE.INTRA.REPUL.0>
0

>  <SCORE.INTRA.SOLV>
-1.01871

>  <SCORE.INTRA.SOLV.lig_0>
-16.2732

>  <SCORE.INTRA.VDW>
-1.35179

>  <SCORE.INTRA.VDW.0>
0.590693

>  <SCORE.INTRA.norm>
-0.381294

>  <SCORE.RESTR>
0

>  <SCORE.RESTR.CAVITY>
0

>  <SCORE.RESTR.norm>
0

>  <SCORE.SYSTEM>
-18.1132

>  <SCORE.SYSTEM.CONST>
0

>  <SCORE.SYSTEM.DIHEDRAL>
4.31612

>  <SCORE.SYSTEM.POLAR>
-2.96653

>  <SCORE.SYSTEM.SOLV>
0.109224

>  <SCORE.SYSTEM.VDW>
-3.66218

>  <SCORE.SYSTEM.norm>
-2.01258

>  <SCORE.heavy>
9

>  <SCORE.norm>
-5.84396

$$$$
P155110579
 OpenBabel12072022113D
libRbt.so/2013.1/901 2013/11/27
 17 16  0  0  0  0  0  0  0  0999 V2000
    2.9827   12.7816    2.9500 C   0  0  0  0  0  0  0  0  0  0  0  0
    2.3246   13.6306    4.0634 C   0  0  0  0  0  0  0  0  0  0  0  0
    0.8256   13.2860    4.0849 C   0  0  0  0  0  0  0  0  0  0  0  0
    2.9367   13.1825    5.4077 C   0  0  0  0  0  0  0  0  0  0  0  0
    2.6386   15.1428    3.8264 C   0  0  2  0  0  0  0  0  0  0  0  0
    4.0805   15.6555    4.0952 C   0  0  2  0  0  0  0  0  0  0  0  0
    4.3089   17.0661    3.5552 C   0  0  0  0  0  0  0  0  0  0  0  0
    3.6415   17.5141    2.6242 O   0  0  0  0  0  0  0  0  0  0  0  0
    5.3554   17.7536    4.0859 N   0  0  0  0  0  0  0  0  0  0  0  0
    4.9568   14.7916    3.3432 O   0  0  0  0  0  0  0  0  0  0  0  0
    1.6825   16.0396    4.5661 N   0  3  0  0  0  0  0  0  0  0  0  0
    0.7463   15.9185    4.1477 H   0  0  0  0  0  0  0  0  0  0  0  0
    1.6125   15.8715    5.5734 H   0  0  0  0  0  0  0  0  0  0  0  0
    1.9233   17.0359    4.3960 H   0  0  0  0  0  0  0  0  0  0  0  0
    5.8615   17.4807    4.9202 H   0  0  0  0  0  0  0  0  0  0  0  0
    5.5262   18.6959    3.7452 H   0  0  0  0  0  0  0  0  0  0  0  0
    5.8762   15.0002    3.6057 H   0  0  0  0  0  0  0  0  0  0  0  0
  1  2  1  0  0  0  0
  2  3  1  0  0  0  0
  2  4  1  0  0  0  0
  5 11  1  0  0  0  0
  5  2  1  1  0  0  0
  6  7  1  6  0  0  0
  6 10  1  0  0  0  0
  6  5  1  0  0  0  0
  7  8  2  0  0  0  0
  7  9  1  0  0  0  0
  9 15  1  0  0  0  0
  9 16  1  0  0  0  0
 10 17  1  0  0  0  0
 11 12  1  0  0  0  0
 11 13  1  0  0  0  0
 11 14  1  0  0  0  0
M  CHG  1  11   1
M  END
>  <CHROM.0>
-62.07144069,-70.93911609,-68.52389354,-45.55553271,-66.00556914,-65.86872807
-72.89821026,55.12116037,-168.28480795

>  <CHROM.1>
-66.69112367,-72.34662281,-24.96388923,-171.10846551,168.29851621,3.26515748
15.20105371,3.87638809,-2.15196666,0.18696313,-0.03073116

>  <Name>
P155110579

>  <RI>
2.22087e+07

>  <Rbt.Current_Directory>
/home/fstefaniak/projects/zuza/docking/adenine/4XNR

>  <Rbt.Executable>
rbdock ($Id: //depot/dev/client3/rdock/2013.1/src/exe/rbdock.cxx#4 $)

>  <Rbt.Library>
libRbt.so (2013.1, Build901 2013/11/27)

>  <Rbt.Parameter_File>
/home/fstefaniak/progs/rDock//data/scripts/dock_solv.prm

>  <Rbt.Receptor>
4xnr.prm

>  <SCORE>
-46.1802

>  <SCORE.INTER>
-27.577

>  <SCORE.INTER.CONST>
1

>  <SCORE.INTER.POLAR>
-4.26923

>  <SCORE.INTER.ROT>
3

>  <SCORE.INTER.SOLV>
16.689

>  <SCORE.INTER.VDW>
-15.3169

>  <SCORE.INTER.norm>
-2.507

>  <SCORE.INTRA>
1.07834

>  <SCORE.INTRA.DIHEDRAL>
0.624824

>  <SCORE.INTRA.DIHEDRAL.0>
2.79952

>  <SCORE.INTRA.POLAR>
0.236014

>  <SCORE.INTRA.POLAR.0>
-0.236014

>  <SCORE.INTRA.REPUL>
0

>  <SCORE.INTRA.REPUL.0>
0

>  <SCORE.INTRA.SOLV>
-1.9112

>  <SCORE.INTRA.SOLV.lig_0>
-29.1422

>  <SCORE.INTRA.VDW>
0.919077

>  <SCORE.INTRA.VDW.0>
-0.616711

>  <SCORE.INTRA.norm>
0.0980307

>  <SCORE.RESTR>
0

>  <SCORE.RESTR.CAVITY>
0

>  <SCORE.RESTR.norm>
0

>  <SCORE.SYSTEM>
-19.6815

>  <SCORE.SYSTEM.CONST>
0

>  <SCORE.SYSTEM.DIHEDRAL>
5.7632

>  <SCORE.SYSTEM.POLAR>
-2.98245

>  <SCORE.SYSTEM.SOLV>
0.0651514

>  <SCORE.SYSTEM.VDW>
-5.1223

>  <SCORE.SYSTEM.norm>
-1.78923

>  <SCORE.heavy>
11

>  <SCORE.norm>
-4.1982

$$$$
P155110579
 OpenBabel12072022113D
libRbt.so/2013.1/901 2013/11/27
 17 16  0  0  0  0  0  0  0  0999 V2000
    2.9534   12.7893    2.9329 C   0  0  0  0  0  0  0  0  0  0  0  0
    2.3119   13.6405    4.0543 C   0  0  0  0  0  0  0  0  0  0  0  0
    0.8149   13.2904    4.1038 C   0  0  0  0  0  0  0  0  0  0  0  0
    2.9495   13.2002    5.3893 C   0  0  0  0  0  0  0  0  0  0  0  0
    2.6160   15.1529    3.8056 C   0  0  2  0  0  0  0  0  0  0  0  0
    4.0524   15.6788    4.0784 C   0  0  2  0  0  0  0  0  0  0  0  0
    4.2550   17.1088    3.5808 C   0  0  0  0  0  0  0  0  0  0  0  0
    3.6280   17.5499    2.6189 O   0  0  0  0  0  0  0  0  0  0  0  0
    5.2376   17.8260    4.1886 N   0  0  0  0  0  0  0  0  0  0  0  0
    4.9349   14.8521    3.2927 O   0  0  0  0  0  0  0  0  0  0  0  0
    1.6488   16.0489    4.5315 N   0  3  0  0  0  0  0  0  0  0  0  0
    1.6843   15.8071    5.5347 H   0  0  0  0  0  0  0  0  0  0  0  0
    1.8214   17.0531    4.4329 H   0  0  0  0  0  0  0  0  0  0  0  0
    0.6750   15.8337    4.2400 H   0  0  0  0  0  0  0  0  0  0  0  0
    5.7025   17.5556    5.0475 H   0  0  0  0  0  0  0  0  0  0  0  0
    5.3899   18.7816    3.8774 H   0  0  0  0  0  0  0  0  0  0  0  0
    5.8496   15.0217    3.5967 H   0  0  0  0  0  0  0  0  0  0  0  0
  1  2  1  0  0  0  0
  2  3  1  0  0  0  0
  2  4  1  0  0  0  0
  5 11  1  0  0  0  0
  5  2  1  1  0  0  0
  6  7  1  6  0  0  0
  6 10  1  0  0  0  0
  6  5  1  0  0  0  0
  7  8  2  0  0  0  0
  7  9  1  0  0  0  0
  9 15  1  0  0  0  0
  9 16  1  0  0  0  0
 10 17  1  0  0  0  0
 11 12  1  0  0  0  0
 11 13  1  0  0  0  0
 11 14  1  0  0  0  0
M  CHG  1  11   1
M  END
>  <CHROM.0>
-63.12997808,-68.88230648,60.41856598,-47.77641639,-177.92151646,-64.14114682
50.62603372,-61.03060708,-168.50976162

>  <CHROM.1>
56.30426299,-73.75189240,-29.29548111,-167.29313244,170.77872694,3.23425936
15.22743389,3.87553126,-2.13646289,0.19854326,-0.01331429

>  <Name>
P155110579

>  <RI>
2.22087e+07

>  <Rbt.Current_Directory>
/home/fstefaniak/projects/zuza/docking/adenine/4XNR

>  <Rbt.Executable>
rbdock ($Id: //depot/dev/client3/rdock/2013.1/src/exe/rbdock.cxx#4 $)

>  <Rbt.Library>
libRbt.so (2013.1, Build901 2013/11/27)

>  <Rbt.Parameter_File>
/home/fstefaniak/progs/rDock//data/scripts/dock_solv.prm

>  <Rbt.Receptor>
4xnr.prm

>  <SCORE>
-45.8312

>  <SCORE.INTER>
-28.3484

>  <SCORE.INTER.CONST>
1

>  <SCORE.INTER.POLAR>
-4.3538

>  <SCORE.INTER.ROT>
3

>  <SCORE.INTER.SOLV>
16.7163

>  <SCORE.INTER.VDW>
-15.5584

>  <SCORE.INTER.norm>
-2.57713

>  <SCORE.INTRA>
1.41785

>  <SCORE.INTRA.DIHEDRAL>
1.13042

>  <SCORE.INTRA.DIHEDRAL.0>
2.79952

>  <SCORE.INTRA.POLAR>
0.236014

>  <SCORE.INTRA.POLAR.0>
-0.236014

>  <SCORE.INTRA.REPUL>
0

>  <SCORE.INTRA.REPUL.0>
0

>  <SCORE.INTRA.SOLV>
-1.84594

>  <SCORE.INTRA.SOLV.lig_0>
-29.1422

>  <SCORE.INTRA.VDW>
0.973166

>  <SCORE.INTRA.VDW.0>
-0.616711

>  <SCORE.INTRA.norm>
0.128896

>  <SCORE.RESTR>
0

>  <SCORE.RESTR.CAVITY>
0

>  <SCORE.RESTR.norm>
0

>  <SCORE.SYSTEM>
-18.9007

>  <SCORE.SYSTEM.CONST>
0

>  <SCORE.SYSTEM.DIHEDRAL>
4.32947

>  <SCORE.SYSTEM.POLAR>
-2.90681

>  <SCORE.SYSTEM.SOLV>
-0.00345182

>  <SCORE.SYSTEM.VDW>
-4.3531

>  <SCORE.SYSTEM.norm>
-1.71824

>  <SCORE.heavy>
11

>  <SCORE.norm>
-4.16648

$$$$
P155110579
 OpenBabel12072022113D
libRbt.so/2013.1/901 2013/11/27
 17 16  0  0  0  0  0  0  0  0999 V2000
    2.9958   12.8341    2.9741 C   0  0  0  0  0  0  0  0  0  0  0  0
    2.3164   13.6707    4.0842 C   0  0  0  0  0  0  0  0  0  0  0  0
    0.8268   13.2878    4.1078 C   0  0  0  0  0  0  0  0  0  0  0  0
    2.9402   13.2439    5.4302 C   0  0  0  0  0  0  0  0  0  0  0  0
    2.5915   15.1894    3.8409 C   0  0  2  0  0  0  0  0  0  0  0  0
    4.0096   15.7477    4.1434 C   0  0  2  0  0  0  0  0  0  0  0  0
    4.2903   17.0578    3.4097 C   0  0  0  0  0  0  0  0  0  0  0  0
    3.5881   17.4328    2.4720 O   0  0  0  0  0  0  0  0  0  0  0  0
    5.4151   17.7272    3.7783 N   0  0  0  0  0  0  0  0  0  0  0  0
    4.9393   14.7827    3.6107 O   0  0  0  0  0  0  0  0  0  0  0  0
    1.5892   16.0637    4.5456 N   0  3  0  0  0  0  0  0  0  0  0  0
    0.6710   15.9192    4.0959 H   0  0  0  0  0  0  0  0  0  0  0  0
    1.4892   15.8954    5.5504 H   0  0  0  0  0  0  0  0  0  0  0  0
    1.8114   17.0653    4.3815 H   0  0  0  0  0  0  0  0  0  0  0  0
    5.9613   17.5253    4.6077 H   0  0  0  0  0  0  0  0  0  0  0  0
    5.6222   18.6036    3.3069 H   0  0  0  0  0  0  0  0  0  0  0  0
    4.7835   14.7212    2.6464 H   0  0  0  0  0  0  0  0  0  0  0  0
  1  2  1  0  0  0  0
  2  3  1  0  0  0  0
  2  4  1  0  0  0  0
  5 11  1  0  0  0  0
  5  2  1  1  0  0  0
  6  7  1  6  0  0  0
  6 10  1  0  0  0  0
  6  5  1  0  0  0  0
  7  8  2  0  0  0  0
  7  9  1  0  0  0  0
  9 15  1  0  0  0  0
  9 16  1  0  0  0  0
 10 17  1  0  0  0  0
 11 12  1  0  0  0  0
 11 13  1  0  0  0  0
 11 14  1  0  0  0  0
M  CHG  1  11   1
M  END
>  <CHROM.0>
-58.95129697,-72.60417723,-65.91767922,-48.20459673,-57.61435361,-63.39231053
-71.29383818,-175.65925038,-168.32894318

>  <CHROM.1>
-67.36077423,-73.97006832,-15.31314630,61.03607627,159.08508390,3.23781355
15.21456670,3.85033618,-2.15641819,0.15105403,-0.10937274

>  <Name>
P155110579

>  <RI>
2.22087e+07

>  <Rbt.Current_Directory>
/home/fstefaniak/projects/zuza/docking/adenine/4XNR

>  <Rbt.Executable>
rbdock ($Id: //depot/dev/client3/rdock/2013.1/src/exe/rbdock.cxx#4 $)

>  <Rbt.Library>
libRbt.so (2013.1, Build901 2013/11/27)

>  <Rbt.Parameter_File>
/home/fstefaniak/progs/rDock//data/scripts/dock_solv.prm

>  <Rbt.Receptor>
4xnr.prm

>  <SCORE>
-45.68

>  <SCORE.INTER>
-26.9869

>  <SCORE.INTER.CONST>
1

>  <SCORE.INTER.POLAR>
-4.09892

>  <SCORE.INTER.ROT>
3

>  <SCORE.INTER.SOLV>
16.5841

>  <SCORE.INTER.VDW>
-15.4562

>  <SCORE.INTER.norm>
-2.45335

>  <SCORE.INTRA>
1.90782

>  <SCORE.INTRA.DIHEDRAL>
0.910052

>  <SCORE.INTRA.DIHEDRAL.0>
2.79952

>  <SCORE.INTRA.POLAR>
0.236014

>  <SCORE.INTRA.POLAR.0>
-0.236014

>  <SCORE.INTRA.REPUL>
0

>  <SCORE.INTRA.REPUL.0>
0

>  <SCORE.INTRA.SOLV>
-2.22291

>  <SCORE.INTRA.SOLV.lig_0>
-29.1422

>  <SCORE.INTRA.VDW>
1.7618

>  <SCORE.INTRA.VDW.0>
-0.616711

>  <SCORE.INTRA.norm>
0.173438

>  <SCORE.RESTR>
0

>  <SCORE.RESTR.CAVITY>
0

>  <SCORE.RESTR.norm>
0

>  <SCORE.SYSTEM>
-20.601

>  <SCORE.SYSTEM.CONST>
0

>  <SCORE.SYSTEM.DIHEDRAL>
5.01777

>  <SCORE.SYSTEM.POLAR>
-2.96196

>  <SCORE.SYSTEM.SOLV>
0.12726

>  <SCORE.SYSTEM.VDW>
-5.5758

>  <SCORE.SYSTEM.norm>
-1.87282

>  <SCORE.heavy>
11

>  <SCORE.norm>
-4.15273

$$$$
P155268485
 OpenBabel12072022113D
libRbt.so/2013.1/901 2013/11/27
 12 11  0  0  0  0  0  0  0  0999 V2000
    6.5366   19.7236    5.4438 C   0  0  0  0  0  0  0  0  0  0  0  0
    5.9551   18.3695    5.0740 C   0  0  0  0  0  0  0  0  0  0  0  0
    6.0468   17.8601    3.8180 C   0  0  0  0  0  0  0  0  0  0  0  0
    6.6965   18.5555    2.7582 C   0  0  0  0  0  0  0  0  0  0  0  0
    7.2200   19.1470    1.9069 N   0  0  0  0  0  0  0  0  0  0  0  0
    5.4394   16.5357    3.5059 C   0  0  0  0  0  0  0  0  0  0  0  0
    5.6598   15.8943    2.4855 O   0  0  0  0  0  0  0  0  0  0  0  0
    4.6112   16.1393    4.5076 O   0  0  0  0  0  0  0  0  0  0  0  0
    3.8857   14.9393    4.2329 C   0  0  0  0  0  0  0  0  0  0  0  0
    5.3546   17.7243    6.1510 N   0  0  0  0  0  0  0  0  0  0  0  0
    4.6445   17.0403    5.8968 H   0  0  0  0  0  0  0  0  0  0  0  0
    6.0195   17.3519    6.8404 H   0  0  0  0  0  0  0  0  0  0  0  0
  1  2  1  0  0  0  0
  2  3  2  0  0  0  0
  2 10  1  0  0  0  0
  3  4  1  0  0  0  0
  3  6  1  0  0  0  0
  4  5  3  0  0  0  0
  6  7  2  0  0  0  0
  6  8  1  0  0  0  0
  8  9  1  0  0  0  0
 10 11  1  0  0  0  0
 10 12  1  0  0  0  0
M  END
>  <CHROM.0>
-59.71896295,-62.99737092,-68.26470538,-48.40456058,-177.55716368,61.40480933
-68.02503306,-62.09162235,-167.95526419

>  <CHROM.1>
155.86236223,-166.96633664,174.24913057,5.69297344,17.42103701,4.03245017
0.35569981,0.97849032,1.07307825

>  <Name>
P155268485

>  <RI>
4.17015e+07

>  <Rbt.Current_Directory>
/home/fstefaniak/projects/zuza/docking/adenine/4XNR

>  <Rbt.Executable>
rbdock ($Id: //depot/dev/client3/rdock/2013.1/src/exe/rbdock.cxx#4 $)

>  <Rbt.Library>
libRbt.so (2013.1, Build901 2013/11/27)

>  <Rbt.Parameter_File>
/home/fstefaniak/progs/rDock//data/scripts/dock_solv.prm

>  <Rbt.Receptor>
4xnr.prm

>  <SCORE>
-48.1551

>  <SCORE.INTER>
-26.7292

>  <SCORE.INTER.CONST>
1

>  <SCORE.INTER.POLAR>
-2.74587

>  <SCORE.INTER.ROT>
3

>  <SCORE.INTER.SOLV>
11.8551

>  <SCORE.INTER.VDW>
-18.2183

>  <SCORE.INTER.norm>
-2.67292

>  <SCORE.INTRA>
-1.55069

>  <SCORE.INTRA.DIHEDRAL>
-0.309716

>  <SCORE.INTRA.DIHEDRAL.0>
1.64635

>  <SCORE.INTRA.POLAR>
-0.521635

>  <SCORE.INTRA.POLAR.0>
0

>  <SCORE.INTRA.REPUL>
0

>  <SCORE.INTRA.REPUL.0>
0

>  <SCORE.INTRA.SOLV>
-0.126346

>  <SCORE.INTRA.SOLV.lig_0>
-10.2967

>  <SCORE.INTRA.VDW>
0.440901

>  <SCORE.INTRA.VDW.0>
2.10067

>  <SCORE.INTRA.norm>
-0.155069

>  <SCORE.RESTR>
0

>  <SCORE.RESTR.CAVITY>
0

>  <SCORE.RESTR.norm>
0

>  <SCORE.SYSTEM>
-19.8752

>  <SCORE.SYSTEM.CONST>
0

>  <SCORE.SYSTEM.DIHEDRAL>
4.09849

>  <SCORE.SYSTEM.POLAR>
-2.94907

>  <SCORE.SYSTEM.SOLV>
-0.029388

>  <SCORE.SYSTEM.VDW>
-4.77625

>  <SCORE.SYSTEM.norm>
-1.98752

>  <SCORE.heavy>
10

>  <SCORE.norm>
-4.81551

$$$$
P155268485
 OpenBabel12072022113D
libRbt.so/2013.1/901 2013/11/27
 12 11  0  0  0  0  0  0  0  0999 V2000
    7.1706   19.3029    5.4820 C   0  0  0  0  0  0  0  0  0  0  0  0
    6.0655   18.3225    5.1272 C   0  0  0  0  0  0  0  0  0  0  0  0
    5.7848   17.9809    3.8426 C   0  0  0  0  0  0  0  0  0  0  0  0
    6.5067   18.5136    2.7364 C   0  0  0  0  0  0  0  0  0  0  0  0
    7.1009   18.9712    1.8497 N   0  0  0  0  0  0  0  0  0  0  0  0
    4.6752   17.0300    3.5509 C   0  0  0  0  0  0  0  0  0  0  0  0
    3.8401   17.1878    2.6684 O   0  0  0  0  0  0  0  0  0  0  0  0
    4.7192   15.9670    4.3963 O   0  0  0  0  0  0  0  0  0  0  0  0
    3.8348   14.8999    4.0484 C   0  0  0  0  0  0  0  0  0  0  0  0
    5.4101   17.8153    6.2453 N   0  0  0  0  0  0  0  0  0  0  0  0
    4.6174   17.2109    6.0378 H   0  0  0  0  0  0  0  0  0  0  0  0
    6.0368   17.4021    6.9471 H   0  0  0  0  0  0  0  0  0  0  0  0
  1  2  1  0  0  0  0
  2  3  2  0  0  0  0
  2 10  1  0  0  0  0
  3  4  1  0  0  0  0
  3  6  1  0  0  0  0
  4  5  3  0  0  0  0
  6  7  2  0  0  0  0
  6  8  1  0  0  0  0
  8  9  1  0  0  0  0
 10 11  1  0  0  0  0
 10 12  1  0  0  0  0
M  END
>  <CHROM.0>
-57.71468170,-60.70498279,-65.11829140,-47.94547070,-61.96719137,-63.34970659
-69.15588648,-58.74778941,-167.97672675

>  <CHROM.1>
175.49728649,135.21117174,-170.02867806,5.45892227,17.53787966,4.03907738
-0.02132180,0.84561479,1.64294420

>  <Name>
P155268485

>  <RI>
4.17015e+07

>  <Rbt.Current_Directory>
/home/fstefaniak/projects/zuza/docking/adenine/4XNR

>  <Rbt.Executable>
rbdock ($Id: //depot/dev/client3/rdock/2013.1/src/exe/rbdock.cxx#4 $)

>  <Rbt.Library>
libRbt.so (2013.1, Build901 2013/11/27)

>  <Rbt.Parameter_File>
/home/fstefaniak/progs/rDock//data/scripts/dock_solv.prm

>  <Rbt.Receptor>
4xnr.prm

>  <SCORE>
-48.0819

>  <SCORE.INTER>
-27.4716

>  <SCORE.INTER.CONST>
1

>  <SCORE.INTER.POLAR>
-2.75726

>  <SCORE.INTER.ROT>
3

>  <SCORE.INTER.SOLV>
10.7048

>  <SCORE.INTER.VDW>
-18.2918

>  <SCORE.INTER.norm>
-2.74716

>  <SCORE.INTRA>
0.318714

>  <SCORE.INTRA.DIHEDRAL>
5.10818

>  <SCORE.INTRA.DIHEDRAL.0>
1.64635

>  <SCORE.INTRA.POLAR>
-0.376167

>  <SCORE.INTRA.POLAR.0>
0

>  <SCORE.INTRA.REPUL>
0

>  <SCORE.INTRA.REPUL.0>
0

>  <SCORE.INTRA.SOLV>
-0.184067

>  <SCORE.INTRA.SOLV.lig_0>
-10.2967

>  <SCORE.INTRA.VDW>
-0.864379

>  <SCORE.INTRA.VDW.0>
2.10067

>  <SCORE.INTRA.norm>
0.0318714

>  <SCORE.RESTR>
0

>  <SCORE.RESTR.CAVITY>
0

>  <SCORE.RESTR.norm>
0

>  <SCORE.SYSTEM>
-20.929

>  <SCORE.SYSTEM.CONST>
0

>  <SCORE.SYSTEM.DIHEDRAL>
4.04559

>  <SCORE.SYSTEM.POLAR>
-2.97772

>  <SCORE.SYSTEM.SOLV>
0.277358

>  <SCORE.SYSTEM.VDW>
-5.46791

>  <SCORE.SYSTEM.norm>
-2.0929

>  <SCORE.heavy>
10

>  <SCORE.norm>
-4.80819

$$$$
P155268485
 OpenBabel12072022113D
libRbt.so/2013.1/901 2013/11/27
 12 11  0  0  0  0  0  0  0  0999 V2000
    7.1688   19.2331    5.5511 C   0  0  0  0  0  0  0  0  0  0  0  0
    6.0535   18.2698    5.1816 C   0  0  0  0  0  0  0  0  0  0  0  0
    5.7687   17.9514    3.8920 C   0  0  0  0  0  0  0  0  0  0  0  0
    6.4956   18.4939    2.7938 C   0  0  0  0  0  0  0  0  0  0  0  0
    7.0940   18.9592    1.9140 N   0  0  0  0  0  0  0  0  0  0  0  0
    4.6494   17.0166    3.5861 C   0  0  0  0  0  0  0  0  0  0  0  0
    3.8228   17.1906    2.6985 O   0  0  0  0  0  0  0  0  0  0  0  0
    4.6736   15.9477    4.4247 O   0  0  0  0  0  0  0  0  0  0  0  0
    3.8161   14.8730    4.0354 C   0  0  0  0  0  0  0  0  0  0  0  0
    5.3934   17.7519    6.2920 N   0  0  0  0  0  0  0  0  0  0  0  0
    4.6168   17.1302    6.0753 H   0  0  0  0  0  0  0  0  0  0  0  0
    6.0189   17.3540    7.0037 H   0  0  0  0  0  0  0  0  0  0  0  0
  1  2  1  0  0  0  0
  2  3  2  0  0  0  0
  2 10  1  0  0  0  0
  3  4  1  0  0  0  0
  3  6  1  0  0  0  0
  4  5  3  0  0  0  0
  6  7  2  0  0  0  0
  6  8  1  0  0  0  0
  8  9  1  0  0  0  0
 10 11  1  0  0  0  0
 10 12  1  0  0  0  0
M  END
>  <CHROM.0>
-57.77704255,-60.19757480,-65.14156451,-48.38310224,-59.76056230,-63.53463708
-66.47227466,-55.47334952,-167.94887449

>  <CHROM.1>
177.75001815,135.91775271,-167.75136426,5.44149298,17.50726531,4.08037704
-0.01647295,0.83870051,1.65736397

>  <Name>
P155268485

>  <RI>
4.17015e+07

>  <Rbt.Current_Directory>
/home/fstefaniak/projects/zuza/docking/adenine/4XNR

>  <Rbt.Executable>
rbdock ($Id: //depot/dev/client3/rdock/2013.1/src/exe/rbdock.cxx#4 $)

>  <Rbt.Library>
libRbt.so (2013.1, Build901 2013/11/27)

>  <Rbt.Parameter_File>
/home/fstefaniak/progs/rDock//data/scripts/dock_solv.prm

>  <Rbt.Receptor>
4xnr.prm

>  <SCORE>
-47.9082

>  <SCORE.INTER>
-27.389

>  <SCORE.INTER.CONST>
1

>  <SCORE.INTER.POLAR>
-2.78935

>  <SCORE.INTER.ROT>
3

>  <SCORE.INTER.SOLV>
10.6944

>  <SCORE.INTER.VDW>
-18.1263

>  <SCORE.INTER.norm>
-2.7389

>  <SCORE.INTRA>
0.340683

>  <SCORE.INTRA.DIHEDRAL>
5.31421

>  <SCORE.INTRA.DIHEDRAL.0>
1.64635

>  <SCORE.INTRA.POLAR>
-0.40931

>  <SCORE.INTRA.POLAR.0>
0

>  <SCORE.INTRA.REPUL>
0

>  <SCORE.INTRA.REPUL.0>
0

>  <SCORE.INTRA.SOLV>
-0.187363

>  <SCORE.INTRA.SOLV.lig_0>
-10.2967

>  <SCORE.INTRA.VDW>
-0.831083

>  <SCORE.INTRA.VDW.0>
2.10067

>  <SCORE.INTRA.norm>
0.0340683

>  <SCORE.RESTR>
0

>  <SCORE.RESTR.CAVITY>
0

>  <SCORE.RESTR.norm>
0

>  <SCORE.SYSTEM>
-20.8599

>  <SCORE.SYSTEM.CONST>
0

>  <SCORE.SYSTEM.DIHEDRAL>
3.88644

>  <SCORE.SYSTEM.POLAR>
-2.97797

>  <SCORE.SYSTEM.SOLV>
0.2907

>  <SCORE.SYSTEM.VDW>
-5.37241

>  <SCORE.SYSTEM.norm>
-2.08599

>  <SCORE.heavy>
10

>  <SCORE.norm>
-4.79082

$$$$
P155774521
 OpenBabel12072022113D
libRbt.so/2013.1/901 2013/11/27
 14 14  0  0  0  0  0  0  0  0999 V2000
    6.1662   18.4562    5.9353 C   0  0  0  0  0  0  0  0  0  0  0  0
    5.1117   18.0413    5.2189 C   0  0  0  0  0  0  0  0  0  0  0  0
    5.2282   17.8095    3.7811 C   0  0  0  0  0  0  0  0  0  0  0  0
    4.1031   17.5750    3.0748 C   0  0  0  0  0  0  0  0  0  0  0  0
    3.9505   17.4417    1.7074 N   0  0  0  0  0  0  0  0  0  0  0  0
    2.9478   18.2019    1.1080 O   0  0  0  0  0  0  0  0  0  0  0  0
    6.5629   17.8550    3.1744 C   0  0  0  0  0  0  0  0  0  0  0  0
    7.6270   18.2751    3.8678 C   0  0  0  0  0  0  0  0  0  0  0  0
    7.4888   18.6563    5.2919 C   0  0  0  0  0  0  0  0  0  0  0  0
    8.4402   19.0887    5.9312 O   0  0  0  0  0  0  0  0  0  0  0  0
    6.7214   17.3849    1.8859 O   0  0  0  0  0  0  0  0  0  0  0  0
    4.8513   17.5521    1.2212 H   0  0  0  0  0  0  0  0  0  0  0  0
    3.4353   18.9526    0.7170 H   0  0  0  0  0  0  0  0  0  0  0  0
    7.5917   17.6986    1.5712 H   0  0  0  0  0  0  0  0  0  0  0  0
  1  2  2  0  0  0  0
  1  9  1  0  0  0  0
  2  3  1  0  0  0  0
  3  4  2  0  0  0  0
  3  7  1  0  0  0  0
  4  5  1  0  0  0  0
  5  6  1  0  0  0  0
  5 12  1  0  0  0  0
  6 13  1  0  0  0  0
  7  8  2  0  0  0  0
  7 11  1  0  0  0  0
  8  9  1  0  0  0  0
  9 10  2  0  0  0  0
 11 14  1  0  0  0  0
M  END
>  <CHROM.0>
-57.83756835,-64.51219921,-65.31515010,-46.62133794,-61.30461870,-62.48799170
-66.84376283,-59.85273873,-167.90952010

>  <CHROM.1>
-130.02060490,100.74208057,165.70213389,5.82606154,18.07556081,3.61081920
0.80424377,0.02882415,1.37022855

>  <Name>
P155774521

>  <RI>
3.02409e+07

>  <Rbt.Current_Directory>
/home/fstefaniak/projects/zuza/docking/adenine/4XNR

>  <Rbt.Executable>
rbdock ($Id: //depot/dev/client3/rdock/2013.1/src/exe/rbdock.cxx#4 $)

>  <Rbt.Library>
libRbt.so (2013.1, Build901 2013/11/27)

>  <Rbt.Parameter_File>
/home/fstefaniak/progs/rDock//data/scripts/dock_solv.prm

>  <Rbt.Receptor>
4xnr.prm

>  <SCORE>
-53.5776

>  <SCORE.INTER>
-31.7539

>  <SCORE.INTER.CONST>
1

>  <SCORE.INTER.POLAR>
-4.51204

>  <SCORE.INTER.ROT>
1

>  <SCORE.INTER.SOLV>
14.6105

>  <SCORE.INTER.VDW>
-15.266

>  <SCORE.INTER.norm>
-2.88672

>  <SCORE.INTRA>
-0.899592

>  <SCORE.INTRA.DIHEDRAL>
-0.635342

>  <SCORE.INTRA.DIHEDRAL.0>
2.0052

>  <SCORE.INTRA.POLAR>
-0.220194

>  <SCORE.INTRA.POLAR.0>
-0.398033

>  <SCORE.INTRA.REPUL>
0

>  <SCORE.INTRA.REPUL.0>
0

>  <SCORE.INTRA.SOLV>
0.0273956

>  <SCORE.INTRA.SOLV.lig_0>
-19.064

>  <SCORE.INTRA.VDW>
0.153041

>  <SCORE.INTRA.VDW.0>
-0.0170964

>  <SCORE.INTRA.norm>
-0.081781

>  <SCORE.RESTR>
0

>  <SCORE.RESTR.CAVITY>
0

>  <SCORE.RESTR.norm>
0

>  <SCORE.SYSTEM>
-20.9241

>  <SCORE.SYSTEM.CONST>
0

>  <SCORE.SYSTEM.DIHEDRAL>
4.1008

>  <SCORE.SYSTEM.POLAR>
-2.99641

>  <SCORE.SYSTEM.SOLV>
0.284616

>  <SCORE.SYSTEM.VDW>
-5.42318

>  <SCORE.SYSTEM.norm>
-1.90219

>  <SCORE.heavy>
11

>  <SCORE.norm>
-4.87069

$$$$
P155774521
 OpenBabel12072022113D
libRbt.so/2013.1/901 2013/11/27
 14 14  0  0  0  0  0  0  0  0999 V2000
    6.1761   18.4186    5.9206 C   0  0  0  0  0  0  0  0  0  0  0  0
    5.1237   18.0018    5.2021 C   0  0  0  0  0  0  0  0  0  0  0  0
    5.2368   17.7947    3.7602 C   0  0  0  0  0  0  0  0  0  0  0  0
    4.1116   17.5572    3.0551 C   0  0  0  0  0  0  0  0  0  0  0  0
    3.9546   17.4439    1.6863 N   0  0  0  0  0  0  0  0  0  0  0  0
    2.9467   18.2090    1.1021 O   0  0  0  0  0  0  0  0  0  0  0  0
    6.5680   17.8671    3.1487 C   0  0  0  0  0  0  0  0  0  0  0  0
    7.6298   18.2896    3.8442 C   0  0  0  0  0  0  0  0  0  0  0  0
    7.4931   18.6461    5.2748 C   0  0  0  0  0  0  0  0  0  0  0  0
    8.4418   19.0803    5.9170 O   0  0  0  0  0  0  0  0  0  0  0  0
    6.7268   17.4199    1.8520 O   0  0  0  0  0  0  0  0  0  0  0  0
    4.8533   17.5654    1.1986 H   0  0  0  0  0  0  0  0  0  0  0  0
    3.4294   18.9690    0.7234 H   0  0  0  0  0  0  0  0  0  0  0  0
    7.6403   17.6390    1.5829 H   0  0  0  0  0  0  0  0  0  0  0  0
  1  2  2  0  0  0  0
  1  9  1  0  0  0  0
  2  3  1  0  0  0  0
  3  4  2  0  0  0  0
  3  7  1  0  0  0  0
  4  5  1  0  0  0  0
  5  6  1  0  0  0  0
  5 12  1  0  0  0  0
  6 13  1  0  0  0  0
  7  8  2  0  0  0  0
  7 11  1  0  0  0  0
  8  9  1  0  0  0  0
  9 10  2  0  0  0  0
 11 14  1  0  0  0  0
M  END
>  <CHROM.0>
-58.29402329,-65.18928164,-73.59756731,-48.42109442,-59.45508653,-62.63685242
-173.54619136,-63.55053829,-168.71728232

>  <CHROM.1>
-129.51630955,100.55923539,173.61023528,5.83158794,18.07124231,3.59185586
0.80288842,0.04032916,1.38528168

>  <Name>
P155774521

>  <RI>
3.02409e+07

>  <Rbt.Current_Directory>
/home/fstefaniak/projects/zuza/docking/adenine/4XNR

>  <Rbt.Executable>
rbdock ($Id: //depot/dev/client3/rdock/2013.1/src/exe/rbdock.cxx#4 $)

>  <Rbt.Library>
libRbt.so (2013.1, Build901 2013/11/27)

>  <Rbt.Parameter_File>
/home/fstefaniak/progs/rDock//data/scripts/dock_solv.prm

>  <Rbt.Receptor>
4xnr.prm

>  <SCORE>
-52.9946

>  <SCORE.INTER>
-31.692

>  <SCORE.INTER.CONST>
1

>  <SCORE.INTER.POLAR>
-4.51954

>  <SCORE.INTER.ROT>
1

>  <SCORE.INTER.SOLV>
14.6121

>  <SCORE.INTER.VDW>
-15.2002

>  <SCORE.INTER.norm>
-2.88109

>  <SCORE.INTRA>
-0.98004

>  <SCORE.INTRA.DIHEDRAL>
-0.908402

>  <SCORE.INTRA.DIHEDRAL.0>
2.0052

>  <SCORE.INTRA.POLAR>
-0.224458

>  <SCORE.INTRA.POLAR.0>
-0.398033

>  <SCORE.INTRA.REPUL>
0

>  <SCORE.INTRA.REPUL.0>
0

>  <SCORE.INTRA.SOLV>
0.0260219

>  <SCORE.INTRA.SOLV.lig_0>
-19.064

>  <SCORE.INTRA.VDW>
0.224307

>  <SCORE.INTRA.VDW.0>
-0.0170964

>  <SCORE.INTRA.norm>
-0.0890946

>  <SCORE.RESTR>
0

>  <SCORE.RESTR.CAVITY>
0

>  <SCORE.RESTR.norm>
0

>  <SCORE.SYSTEM>
-20.3225

>  <SCORE.SYSTEM.CONST>
0

>  <SCORE.SYSTEM.DIHEDRAL>
4.55454

>  <SCORE.SYSTEM.POLAR>
-2.92867

>  <SCORE.SYSTEM.SOLV>
0.216648

>  <SCORE.SYSTEM.VDW>
-5.37651

>  <SCORE.SYSTEM.norm>
-1.8475

>  <SCORE.heavy>
11

>  <SCORE.norm>
-4.81769

$$$$
P155774521
 OpenBabel12072022113D
libRbt.so/2013.1/901 2013/11/27
 14 14  0  0  0  0  0  0  0  0999 V2000
    6.1861   18.3963    5.9819 C   0  0  0  0  0  0  0  0  0  0  0  0
    5.1321   17.9552    5.2805 C   0  0  0  0  0  0  0  0  0  0  0  0
    5.2271   17.7485    3.8373 C   0  0  0  0  0  0  0  0  0  0  0  0
    4.0966   17.4850    3.1501 C   0  0  0  0  0  0  0  0  0  0  0  0
    3.9207   17.3662    1.7842 N   0  0  0  0  0  0  0  0  0  0  0  0
    2.9666   18.1953    1.1971 O   0  0  0  0  0  0  0  0  0  0  0  0
    6.5467   17.8494    3.2048 C   0  0  0  0  0  0  0  0  0  0  0  0
    7.6096   18.2965    3.8832 C   0  0  0  0  0  0  0  0  0  0  0  0
    7.4875   18.6519    5.3153 C   0  0  0  0  0  0  0  0  0  0  0  0
    8.4362   19.1081    5.9420 O   0  0  0  0  0  0  0  0  0  0  0  0
    6.6951   17.4039    1.9064 O   0  0  0  0  0  0  0  0  0  0  0  0
    4.8219   17.4156    1.2885 H   0  0  0  0  0  0  0  0  0  0  0  0
    3.5022   18.8969    0.7788 H   0  0  0  0  0  0  0  0  0  0  0  0
    7.5917   17.6612    1.6156 H   0  0  0  0  0  0  0  0  0  0  0  0
  1  2  2  0  0  0  0
  1  9  1  0  0  0  0
  2  3  1  0  0  0  0
  3  4  2  0  0  0  0
  3  7  1  0  0  0  0
  4  5  1  0  0  0  0
  5  6  1  0  0  0  0
  5 12  1  0  0  0  0
  6 13  1  0  0  0  0
  7  8  2  0  0  0  0
  7 11  1  0  0  0  0
  8  9  1  0  0  0  0
  9 10  2  0  0  0  0
 11 14  1  0  0  0  0
M  END
>  <CHROM.0>
-64.73648285,56.23641722,-64.64701133,-44.93990511,-59.98786878,-63.43699493
-70.06608080,-175.34222999,-167.84956898

>  <CHROM.1>
-124.00419139,102.41866618,172.31787726,5.82229925,18.04664959,3.65708545
0.79896616,0.06333005,1.39060886

>  <Name>
P155774521

>  <RI>
3.02409e+07

>  <Rbt.Current_Directory>
/home/fstefaniak/projects/zuza/docking/adenine/4XNR

>  <Rbt.Executable>
rbdock ($Id: //depot/dev/client3/rdock/2013.1/src/exe/rbdock.cxx#4 $)

>  <Rbt.Library>
libRbt.so (2013.1, Build901 2013/11/27)

>  <Rbt.Parameter_File>
/home/fstefaniak/progs/rDock//data/scripts/dock_solv.prm

>  <Rbt.Receptor>
4xnr.prm

>  <SCORE>
-52.4207

>  <SCORE.INTER>
-31.3819

>  <SCORE.INTER.CONST>
1

>  <SCORE.INTER.POLAR>
-4.45793

>  <SCORE.INTER.ROT>
1

>  <SCORE.INTER.SOLV>
14.4632

>  <SCORE.INTER.VDW>
-15.1493

>  <SCORE.INTER.norm>
-2.8529

>  <SCORE.INTRA>
-1.05556

>  <SCORE.INTRA.DIHEDRAL>
-0.840479

>  <SCORE.INTRA.DIHEDRAL.0>
2.0052

>  <SCORE.INTRA.POLAR>
-0.258932

>  <SCORE.INTRA.POLAR.0>
-0.398033

>  <SCORE.INTRA.REPUL>
0

>  <SCORE.INTRA.REPUL.0>
0

>  <SCORE.INTRA.SOLV>
0.0801926

>  <SCORE.INTRA.SOLV.lig_0>
-19.064

>  <SCORE.INTRA.VDW>
0.20495

>  <SCORE.INTRA.VDW.0>
-0.0170964

>  <SCORE.INTRA.norm>
-0.0959601

>  <SCORE.RESTR>
0

>  <SCORE.RESTR.CAVITY>
0

>  <SCORE.RESTR.norm>
0

>  <SCORE.SYSTEM>
-19.9832

>  <SCORE.SYSTEM.CONST>
0

>  <SCORE.SYSTEM.DIHEDRAL>
4.69349

>  <SCORE.SYSTEM.POLAR>
-2.98827

>  <SCORE.SYSTEM.SOLV>
0.224097

>  <SCORE.SYSTEM.VDW>
-5.00044

>  <SCORE.SYSTEM.norm>
-1.81666

>  <SCORE.heavy>
11

>  <SCORE.norm>
-4.76552

$$$$
P155841029
 OpenBabel12072022113D
libRbt.so/2013.1/901 2013/11/27
 13 13  0  0  0  0  0  0  0  0999 V2000
    3.6182   15.5040    4.0308 C   0  0  0  0  0  0  0  0  0  0  0  0
    2.1436   15.4651    3.6486 C   0  0  0  0  0  0  0  0  0  0  0  0
    1.5789   16.8724    3.4672 C   0  0  0  0  0  0  0  0  0  0  0  0
    2.3755   17.6227    2.4808 N   0  0  0  0  0  0  0  0  0  0  0  0
    3.8013   17.7192    2.8413 C   0  0  0  0  0  0  0  0  0  0  0  0
    4.4048   16.3278    3.0188 C   0  0  0  0  0  0  0  0  0  0  0  0
    1.8154   18.6910    1.8093 C   0  0  0  0  0  0  0  0  0  0  0  0
    0.9386   19.5028    2.3278 N   0  0  0  0  0  0  0  0  0  0  0  0
    0.5959   20.5234    1.4233 O   0  0  0  0  0  0  0  0  0  0  0  0
    2.3062   18.8652    0.5510 N   0  0  0  0  0  0  0  0  0  0  0  0
    0.9550   21.3115    1.8705 H   0  0  0  0  0  0  0  0  0  0  0  0
    2.2121   18.0208    0.0030 H   0  0  0  0  0  0  0  0  0  0  0  0
    3.2830   19.1345    0.6348 H   0  0  0  0  0  0  0  0  0  0  0  0
  1  2  1  0  0  0  0
  1  6  1  0  0  0  0
  2  3  1  0  0  0  0
  3  4  1  0  0  0  0
  4  5  1  0  0  0  0
  4  7  1  0  0  0  0
  5  6  1  0  0  0  0
  7  8  2  0  0  0  0
  7 10  1  0  0  0  0
  8  9  1  0  0  0  0
  9 11  1  0  0  0  0
 10 12  1  0  0  0  0
 10 13  1  0  0  0  0
M  END
>  <CHROM.0>
-57.11644127,-61.69045730,61.64712167,-48.43844976,-175.58981660,-175.57812197
55.13021005,-63.47227128,-168.57263582

>  <CHROM.1>
33.95198916,54.99648121,-113.60392291,2.33700895,17.77148487,2.51871535,1.08367572
-0.32100011,2.47831081

>  <Name>
P155841029

>  <RI>
3.02409e+07

>  <Rbt.Current_Directory>
/home/fstefaniak/projects/zuza/docking/adenine/4XNR

>  <Rbt.Executable>
rbdock ($Id: //depot/dev/client3/rdock/2013.1/src/exe/rbdock.cxx#4 $)

>  <Rbt.Library>
libRbt.so (2013.1, Build901 2013/11/27)

>  <Rbt.Parameter_File>
/home/fstefaniak/progs/rDock//data/scripts/dock_solv.prm

>  <Rbt.Receptor>
4xnr.prm

>  <SCORE>
-49.347

>  <SCORE.INTER>
-29.8742

>  <SCORE.INTER.CONST>
1

>  <SCORE.INTER.POLAR>
-5.29715

>  <SCORE.INTER.ROT>
2

>  <SCORE.INTER.SOLV>
11.1482

>  <SCORE.INTER.VDW>
-10.9084

>  <SCORE.INTER.norm>
-2.98742

>  <SCORE.INTRA>
-0.758682

>  <SCORE.INTRA.DIHEDRAL>
-1.63517

>  <SCORE.INTRA.DIHEDRAL.0>
2.95132

>  <SCORE.INTRA.POLAR>
0.224075

>  <SCORE.INTRA.POLAR.0>
-0.224075

>  <SCORE.INTRA.REPUL>
0

>  <SCORE.INTRA.REPUL.0>
0

>  <SCORE.INTRA.SOLV>
-0.00610695

>  <SCORE.INTRA.SOLV.lig_0>
-10.5908

>  <SCORE.INTRA.VDW>
-0.699896

>  <SCORE.INTRA.VDW.0>
0.312495

>  <SCORE.INTRA.norm>
-0.0758682

>  <SCORE.RESTR>
0

>  <SCORE.RESTR.CAVITY>
0

>  <SCORE.RESTR.norm>
0

>  <SCORE.SYSTEM>
-18.7141

>  <SCORE.SYSTEM.CONST>
0

>  <SCORE.SYSTEM.DIHEDRAL>
3.73958

>  <SCORE.SYSTEM.POLAR>
-2.9537

>  <SCORE.SYSTEM.SOLV>
-0.102289

>  <SCORE.SYSTEM.VDW>
-3.84284

>  <SCORE.SYSTEM.norm>
-1.87141

>  <SCORE.heavy>
10

>  <SCORE.norm>
-4.9347

$$$$
P155841029
 OpenBabel12072022113D
libRbt.so/2013.1/901 2013/11/27
 13 13  0  0  0  0  0  0  0  0999 V2000
    4.3196   16.4830    2.7533 C   0  0  0  0  0  0  0  0  0  0  0  0
    4.0518   16.7929    4.2211 C   0  0  0  0  0  0  0  0  0  0  0  0
    5.3432   17.1327    4.9623 C   0  0  0  0  0  0  0  0  0  0  0  0
    6.0437   18.2422    4.2924 N   0  0  0  0  0  0  0  0  0  0  0  0
    6.3593   17.9591    2.8809 C   0  0  0  0  0  0  0  0  0  0  0  0
    5.0878   17.6271    2.1033 C   0  0  0  0  0  0  0  0  0  0  0  0
    6.9358   19.0231    4.9996 C   0  0  0  0  0  0  0  0  0  0  0  0
    8.1412   18.6484    5.3211 N   0  0  0  0  0  0  0  0  0  0  0  0
    8.8300   19.6762    5.9891 O   0  0  0  0  0  0  0  0  0  0  0  0
    6.4633   20.2663    5.2921 N   0  0  0  0  0  0  0  0  0  0  0  0
    8.3422   19.7248    6.8317 H   0  0  0  0  0  0  0  0  0  0  0  0
    5.6290   20.4736    4.7600 H   0  0  0  0  0  0  0  0  0  0  0  0
    7.2006   20.9344    5.0826 H   0  0  0  0  0  0  0  0  0  0  0  0
  1  2  1  0  0  0  0
  1  6  1  0  0  0  0
  2  3  1  0  0  0  0
  3  4  1  0  0  0  0
  4  5  1  0  0  0  0
  4  7  1  0  0  0  0
  5  6  1  0  0  0  0
  7  8  2  0  0  0  0
  7 10  1  0  0  0  0
  8  9  1  0  0  0  0
  9 11  1  0  0  0  0
 10 12  1  0  0  0  0
 10 13  1  0  0  0  0
M  END
>  <CHROM.0>
-56.64669842,-60.11645779,-65.88623232,-47.61733265,-63.11574606,-62.52778590
-66.52716624,-56.85012238,-168.00630346

>  <CHROM.1>
76.27437159,-13.06639362,68.36347742,6.20212823,18.23978671,4.32161260,-2.58936518
0.64093404,1.53995963

>  <Name>
P155841029

>  <RI>
3.02409e+07

>  <Rbt.Current_Directory>
/home/fstefaniak/projects/zuza/docking/adenine/4XNR

>  <Rbt.Executable>
rbdock ($Id: //depot/dev/client3/rdock/2013.1/src/exe/rbdock.cxx#4 $)

>  <Rbt.Library>
libRbt.so (2013.1, Build901 2013/11/27)

>  <Rbt.Parameter_File>
/home/fstefaniak/progs/rDock//data/scripts/dock_solv.prm

>  <Rbt.Receptor>
4xnr.prm

>  <SCORE>
-47.901

>  <SCORE.INTER>
-25.9475

>  <SCORE.INTER.CONST>
1

>  <SCORE.INTER.POLAR>
-4.06305

>  <SCORE.INTER.ROT>
2

>  <SCORE.INTER.SOLV>
12.0619

>  <SCORE.INTER.VDW>
-12.7088

>  <SCORE.INTER.norm>
-2.59475

>  <SCORE.INTRA>
-1.06398

>  <SCORE.INTRA.DIHEDRAL>
-1.74662

>  <SCORE.INTRA.DIHEDRAL.0>
2.95132

>  <SCORE.INTRA.POLAR>
0.224075

>  <SCORE.INTRA.POLAR.0>
-0.224075

>  <SCORE.INTRA.REPUL>
0

>  <SCORE.INTRA.REPUL.0>
0

>  <SCORE.INTRA.SOLV>
0.0230678

>  <SCORE.INTRA.SOLV.lig_0>
-10.5908

>  <SCORE.INTRA.VDW>
-0.964061

>  <SCORE.INTRA.VDW.0>
0.312495

>  <SCORE.INTRA.norm>
-0.106398

>  <SCORE.RESTR>
0

>  <SCORE.RESTR.CAVITY>
0

>  <SCORE.RESTR.norm>
0

>  <SCORE.SYSTEM>
-20.8895

>  <SCORE.SYSTEM.CONST>
0

>  <SCORE.SYSTEM.DIHEDRAL>
4.00053

>  <SCORE.SYSTEM.POLAR>
-2.99538

>  <SCORE.SYSTEM.SOLV>
0.288518

>  <SCORE.SYSTEM.VDW>
-5.37141

>  <SCORE.SYSTEM.norm>
-2.08895

>  <SCORE.heavy>
10

>  <SCORE.norm>
-4.7901

$$$$
P155841029
 OpenBabel12072022113D
libRbt.so/2013.1/901 2013/11/27
 13 13  0  0  0  0  0  0  0  0999 V2000
    3.5596   15.5626    4.0397 C   0  0  0  0  0  0  0  0  0  0  0  0
    2.0837   15.5352    3.6615 C   0  0  0  0  0  0  0  0  0  0  0  0
    1.5370   16.9458    3.4525 C   0  0  0  0  0  0  0  0  0  0  0  0
    2.3410   17.6653    2.4492 N   0  0  0  0  0  0  0  0  0  0  0  0
    3.7687   17.7505    2.8047 C   0  0  0  0  0  0  0  0  0  0  0  0
    4.3544   16.3553    3.0094 C   0  0  0  0  0  0  0  0  0  0  0  0
    1.7932   18.7268    1.7571 C   0  0  0  0  0  0  0  0  0  0  0  0
    0.9241   19.5572    2.2590 N   0  0  0  0  0  0  0  0  0  0  0  0
    0.5937   20.5645    1.3352 O   0  0  0  0  0  0  0  0  0  0  0  0
    2.2879   18.8726    0.4968 N   0  0  0  0  0  0  0  0  0  0  0  0
    0.8557   21.3690    1.8191 H   0  0  0  0  0  0  0  0  0  0  0  0
    2.2129   18.0106   -0.0261 H   0  0  0  0  0  0  0  0  0  0  0  0
    3.2590   19.1628    0.5775 H   0  0  0  0  0  0  0  0  0  0  0  0
  1  2  1  0  0  0  0
  1  6  1  0  0  0  0
  2  3  1  0  0  0  0
  3  4  1  0  0  0  0
  4  5  1  0  0  0  0
  4  7  1  0  0  0  0
  5  6  1  0  0  0  0
  7  8  2  0  0  0  0
  7 10  1  0  0  0  0
  8  9  1  0  0  0  0
  9 11  1  0  0  0  0
 10 12  1  0  0  0  0
 10 13  1  0  0  0  0
M  END
>  <CHROM.0>
-58.45776992,-61.88033508,60.51068361,-47.18606710,60.39328532,-62.79241409
54.31622965,60.72854119,-167.93960273

>  <CHROM.1>
33.65774427,53.17512814,-120.61974224,2.30360366,17.81539653,2.48460525,1.09186131
-0.33111786,2.46065434

>  <Name>
P155841029

>  <RI>
3.02409e+07

>  <Rbt.Current_Directory>
/home/fstefaniak/projects/zuza/docking/adenine/4XNR

>  <Rbt.Executable>
rbdock ($Id: //depot/dev/client3/rdock/2013.1/src/exe/rbdock.cxx#4 $)

>  <Rbt.Library>
libRbt.so (2013.1, Build901 2013/11/27)

>  <Rbt.Parameter_File>
/home/fstefaniak/progs/rDock//data/scripts/dock_solv.prm

>  <Rbt.Receptor>
4xnr.prm

>  <SCORE>
-47.656

>  <SCORE.INTER>
-29.9515

>  <SCORE.INTER.CONST>
1

>  <SCORE.INTER.POLAR>
-5.41287

>  <SCORE.INTER.ROT>
2

>  <SCORE.INTER.SOLV>
11.2505

>  <SCORE.INTER.VDW>
-10.6083

>  <SCORE.INTER.norm>
-2.99515

>  <SCORE.INTRA>
-0.673734

>  <SCORE.INTRA.DIHEDRAL>
-1.43434

>  <SCORE.INTRA.DIHEDRAL.0>
2.95132

>  <SCORE.INTRA.POLAR>
0.224075

>  <SCORE.INTRA.POLAR.0>
-0.224075

>  <SCORE.INTRA.REPUL>
0

>  <SCORE.INTRA.REPUL.0>
0

>  <SCORE.INTRA.SOLV>
-0.0117593

>  <SCORE.INTRA.SOLV.lig_0>
-10.5908

>  <SCORE.INTRA.VDW>
-0.712538

>  <SCORE.INTRA.VDW.0>
0.312495

>  <SCORE.INTRA.norm>
-0.0673734

>  <SCORE.RESTR>
0

>  <SCORE.RESTR.CAVITY>
0

>  <SCORE.RESTR.norm>
0

>  <SCORE.SYSTEM>
-17.0308

>  <SCORE.SYSTEM.CONST>
0

>  <SCORE.SYSTEM.DIHEDRAL>
3.75117

>  <SCORE.SYSTEM.POLAR>
-2.96936

>  <SCORE.SYSTEM.SOLV>
-0.194694

>  <SCORE.SYSTEM.VDW>
-2.64149

>  <SCORE.SYSTEM.norm>
-1.70308

>  <SCORE.heavy>
10

>  <SCORE.norm>
-4.7656

$$$$
P156180563
 OpenBabel12072022113D
libRbt.so/2013.1/901 2013/11/27
 12 11  0  0  0  0  0  0  0  0999 V2000
    5.3536   15.6436    3.4815 C   0  0  0  0  0  0  0  0  0  0  0  0
    5.6057   17.0882    3.0275 C   0  0  0  0  0  0  0  0  0  0  0  0
    4.2819   17.6852    2.5340 C   0  0  0  0  0  0  0  0  0  0  0  0
    6.2095   17.8606    4.2381 C   0  0  0  0  0  0  0  0  0  0  0  0
    5.5816   17.8616    5.3793 N   0  0  0  0  0  0  0  0  0  0  0  0
    6.2654   18.6470    6.3222 O   0  0  0  0  0  0  0  0  0  0  0  0
    7.3923   18.5343    4.0272 N   0  0  0  0  0  0  0  0  0  0  0  0
    6.5875   17.0021    1.9756 O   0  0  0  0  0  0  0  0  0  0  0  0
    6.9177   18.2385    1.3537 C   0  0  0  0  0  0  0  0  0  0  0  0
    6.8644   17.9964    6.7334 H   0  0  0  0  0  0  0  0  0  0  0  0
    7.5817   19.2709    4.6995 H   0  0  0  0  0  0  0  0  0  0  0  0
    8.1621   17.8960    3.8565 H   0  0  0  0  0  0  0  0  0  0  0  0
  1  2  1  0  0  0  0
  2  3  1  0  0  0  0
  2  4  1  0  0  0  0
  2  8  1  0  0  0  0
  4  5  2  0  0  0  0
  4  7  1  0  0  0  0
  5  6  1  0  0  0  0
  6 10  1  0  0  0  0
  7 11  1  0  0  0  0
  7 12  1  0  0  0  0
  8  9  1  0  0  0  0
M  END
>  <CHROM.0>
-57.20842326,-175.60521795,-69.83105175,-46.71609977,-59.61215030,-61.52514717
-66.52649486,-60.10308634,-168.08337088

>  <CHROM.1>
-54.10556388,176.70859525,159.34425321,-89.92440740,6.06021747,17.63607334
3.61665713,1.64971260,-0.68423557,-1.79644232

>  <Name>
P156180563

>  <RI>
3.4169e+07

>  <Rbt.Current_Directory>
/home/fstefaniak/projects/zuza/docking/adenine/4XNR

>  <Rbt.Executable>
rbdock ($Id: //depot/dev/client3/rdock/2013.1/src/exe/rbdock.cxx#4 $)

>  <Rbt.Library>
libRbt.so (2013.1, Build901 2013/11/27)

>  <Rbt.Parameter_File>
/home/fstefaniak/progs/rDock//data/scripts/dock_solv.prm

>  <Rbt.Receptor>
4xnr.prm

>  <SCORE>
-48.0437

>  <SCORE.INTER>
-27.3228

>  <SCORE.INTER.CONST>
1

>  <SCORE.INTER.POLAR>
-4.33606

>  <SCORE.INTER.ROT>
3

>  <SCORE.INTER.SOLV>
9.46309

>  <SCORE.INTER.VDW>
-12.516

>  <SCORE.INTER.norm>
-3.03586

>  <SCORE.INTRA>
0.00169938

>  <SCORE.INTRA.DIHEDRAL>
-2.22058

>  <SCORE.INTRA.DIHEDRAL.0>
3.55613

>  <SCORE.INTRA.POLAR>
0.0773217

>  <SCORE.INTRA.POLAR.0>
-0.0773217

>  <SCORE.INTRA.REPUL>
0

>  <SCORE.INTRA.REPUL.0>
0

>  <SCORE.INTRA.SOLV>
0.151967

>  <SCORE.INTRA.SOLV.lig_0>
-7.61666

>  <SCORE.INTRA.VDW>
0.77311

>  <SCORE.INTRA.VDW.0>
3.72047

>  <SCORE.INTRA.norm>
0.00018882

>  <SCORE.RESTR>
0

>  <SCORE.RESTR.CAVITY>
0

>  <SCORE.RESTR.norm>
0

>  <SCORE.SYSTEM>
-20.7226

>  <SCORE.SYSTEM.CONST>
0

>  <SCORE.SYSTEM.DIHEDRAL>
4.34092

>  <SCORE.SYSTEM.POLAR>
-2.99213

>  <SCORE.SYSTEM.SOLV>
0.260671

>  <SCORE.SYSTEM.VDW>
-5.37515

>  <SCORE.SYSTEM.norm>
-2.30251

>  <SCORE.heavy>
9

>  <SCORE.norm>
-5.33818

$$$$
P156180563
 OpenBabel12072022113D
libRbt.so/2013.1/901 2013/11/27
 12 11  0  0  0  0  0  0  0  0999 V2000
    5.3438   15.6588    3.4873 C   0  0  0  0  0  0  0  0  0  0  0  0
    5.5606   17.1158    3.0548 C   0  0  0  0  0  0  0  0  0  0  0  0
    4.2116   17.7056    2.6249 C   0  0  0  0  0  0  0  0  0  0  0  0
    6.2007   17.8706    4.2578 C   0  0  0  0  0  0  0  0  0  0  0  0
    5.5981   17.8706    5.4125 N   0  0  0  0  0  0  0  0  0  0  0  0
    6.3125   18.6396    6.3462 O   0  0  0  0  0  0  0  0  0  0  0  0
    7.3873   18.5307    4.0261 N   0  0  0  0  0  0  0  0  0  0  0  0
    6.5023   17.0645    1.9648 O   0  0  0  0  0  0  0  0  0  0  0  0
    6.8377   18.3245    1.3954 C   0  0  0  0  0  0  0  0  0  0  0  0
    6.9524   17.9922    6.6963 H   0  0  0  0  0  0  0  0  0  0  0  0
    7.5848   19.2817    4.6800 H   0  0  0  0  0  0  0  0  0  0  0  0
    8.1519   17.8831    3.8675 H   0  0  0  0  0  0  0  0  0  0  0  0
  1  2  1  0  0  0  0
  2  3  1  0  0  0  0
  2  4  1  0  0  0  0
  2  8  1  0  0  0  0
  4  5  2  0  0  0  0
  4  7  1  0  0  0  0
  5  6  1  0  0  0  0
  6 10  1  0  0  0  0
  7 11  1  0  0  0  0
  7 12  1  0  0  0  0
  8  9  1  0  0  0  0
M  END
>  <CHROM.0>
-57.40246807,-176.59199313,-64.74475848,-46.46067998,-175.88222498,-63.28947348
-68.90587468,-61.86064643,-168.14487833

>  <CHROM.1>
-56.00196813,179.33060599,157.24176145,-86.28691857,6.03434068,17.66052330
3.64131972,1.68882369,-0.68806853,-1.76206221

>  <Name>
P156180563

>  <RI>
3.4169e+07

>  <Rbt.Current_Directory>
/home/fstefaniak/projects/zuza/docking/adenine/4XNR

>  <Rbt.Executable>
rbdock ($Id: //depot/dev/client3/rdock/2013.1/src/exe/rbdock.cxx#4 $)

>  <Rbt.Library>
libRbt.so (2013.1, Build901 2013/11/27)

>  <Rbt.Parameter_File>
/home/fstefaniak/progs/rDock//data/scripts/dock_solv.prm

>  <Rbt.Receptor>
4xnr.prm

>  <SCORE>
-48.0083

>  <SCORE.INTER>
-27.2236

>  <SCORE.INTER.CONST>
1

>  <SCORE.INTER.POLAR>
-4.30966

>  <SCORE.INTER.ROT>
3

>  <SCORE.INTER.SOLV>
9.38821

>  <SCORE.INTER.VDW>
-12.5129

>  <SCORE.INTER.norm>
-3.02485

>  <SCORE.INTRA>
0.0412814

>  <SCORE.INTRA.DIHEDRAL>
-2.28615

>  <SCORE.INTRA.DIHEDRAL.0>
3.55613

>  <SCORE.INTRA.POLAR>
0.0773217

>  <SCORE.INTRA.POLAR.0>
-0.0773217

>  <SCORE.INTRA.REPUL>
0

>  <SCORE.INTRA.REPUL.0>
0

>  <SCORE.INTRA.SOLV>
0.162904

>  <SCORE.INTRA.SOLV.lig_0>
-7.61666

>  <SCORE.INTRA.VDW>
0.84001

>  <SCORE.INTRA.VDW.0>
3.72047

>  <SCORE.INTRA.norm>
0.00458683

>  <SCORE.RESTR>
0

>  <SCORE.RESTR.CAVITY>
0

>  <SCORE.RESTR.norm>
0

>  <SCORE.SYSTEM>
-20.826

>  <SCORE.SYSTEM.CONST>
0

>  <SCORE.SYSTEM.DIHEDRAL>
4.28754

>  <SCORE.SYSTEM.POLAR>
-3.00315

>  <SCORE.SYSTEM.SOLV>
0.0843678

>  <SCORE.SYSTEM.VDW>
-5.33081

>  <SCORE.SYSTEM.norm>
-2.314

>  <SCORE.heavy>
9

>  <SCORE.norm>
-5.33426

$$$$
P156180563
 OpenBabel12072022113D
libRbt.so/2013.1/901 2013/11/27
 12 11  0  0  0  0  0  0  0  0999 V2000
    6.8953   17.8235    2.6808 C   0  0  0  0  0  0  0  0  0  0  0  0
    5.5581   17.2296    3.1453 C   0  0  0  0  0  0  0  0  0  0  0  0
    5.2562   17.7463    4.5575 C   0  0  0  0  0  0  0  0  0  0  0  0
    4.4765   17.6393    2.1018 C   0  0  0  0  0  0  0  0  0  0  0  0
    3.2490   17.8365    2.4900 N   0  0  0  0  0  0  0  0  0  0  0  0
    2.4263   18.1531    1.3962 O   0  0  0  0  0  0  0  0  0  0  0  0
    4.8804   17.7539    0.7898 N   0  0  0  0  0  0  0  0  0  0  0  0
    5.7343   15.7993    3.1171 O   0  0  0  0  0  0  0  0  0  0  0  0
    4.6188   15.0433    3.5737 C   0  0  0  0  0  0  0  0  0  0  0  0
    2.2677   19.1062    1.5296 H   0  0  0  0  0  0  0  0  0  0  0  0
    4.3482   17.1889    0.1356 H   0  0  0  0  0  0  0  0  0  0  0  0
    5.0076   18.7235    0.5200 H   0  0  0  0  0  0  0  0  0  0  0  0
  1  2  1  0  0  0  0
  2  3  1  0  0  0  0
  2  4  1  0  0  0  0
  2  8  1  0  0  0  0
  4  5  2  0  0  0  0
  4  7  1  0  0  0  0
  5  6  1  0  0  0  0
  6 10  1  0  0  0  0
  7 11  1  0  0  0  0
  7 12  1  0  0  0  0
  8  9  1  0  0  0  0
M  END
>  <CHROM.0>
-58.74205104,59.50108949,-65.67316490,-44.06522956,-59.93334707,-177.70068756
-68.98362875,-59.41081611,-168.14230369

>  <CHROM.1>
-148.12664177,177.32652807,124.64527345,-107.03432996,4.75783784,17.22839880
2.61748023,-0.76604747,-0.18440609,-0.73629479

>  <Name>
P156180563

>  <RI>
3.4169e+07

>  <Rbt.Current_Directory>
/home/fstefaniak/projects/zuza/docking/adenine/4XNR

>  <Rbt.Executable>
rbdock ($Id: //depot/dev/client3/rdock/2013.1/src/exe/rbdock.cxx#4 $)

>  <Rbt.Library>
libRbt.so (2013.1, Build901 2013/11/27)

>  <Rbt.Parameter_File>
/home/fstefaniak/progs/rDock//data/scripts/dock_solv.prm

>  <Rbt.Receptor>
4xnr.prm

>  <SCORE>
-47.1948

>  <SCORE.INTER>
-26.7915

>  <SCORE.INTER.CONST>
1

>  <SCORE.INTER.POLAR>
-3.9946

>  <SCORE.INTER.ROT>
3

>  <SCORE.INTER.SOLV>
10.3994

>  <SCORE.INTER.VDW>
-13.6121

>  <SCORE.INTER.norm>
-2.97683

>  <SCORE.INTRA>
-0.581832

>  <SCORE.INTRA.DIHEDRAL>
-2.07814

>  <SCORE.INTRA.DIHEDRAL.0>
3.55613

>  <SCORE.INTRA.POLAR>
0.0773217

>  <SCORE.INTRA.POLAR.0>
-0.0773217

>  <SCORE.INTRA.REPUL>
0

>  <SCORE.INTRA.REPUL.0>
0

>  <SCORE.INTRA.SOLV>
-0.040517

>  <SCORE.INTRA.SOLV.lig_0>
-7.61666

>  <SCORE.INTRA.VDW>
0.214603

>  <SCORE.INTRA.VDW.0>
3.72047

>  <SCORE.INTRA.norm>
-0.064648

>  <SCORE.RESTR>
0

>  <SCORE.RESTR.CAVITY>
0

>  <SCORE.RESTR.norm>
0

>  <SCORE.SYSTEM>
-19.8215

>  <SCORE.SYSTEM.CONST>
0

>  <SCORE.SYSTEM.DIHEDRAL>
4.45007

>  <SCORE.SYSTEM.POLAR>
-3.02927

>  <SCORE.SYSTEM.SOLV>
0.253774

>  <SCORE.SYSTEM.VDW>
-4.68469

>  <SCORE.SYSTEM.norm>
-2.20239

>  <SCORE.heavy>
9

>  <SCORE.norm>
-5.24386

$$$$
P156234412
 OpenBabel12072022113D
libRbt.so/2013.1/901 2013/11/27
 10  9  0  0  0  0  0  0  0  0999 V2000
    7.1310   18.0738    1.4357 C   0  0  0  0  0  0  0  0  0  0  0  0
    6.3573   18.3114    2.6981 C   0  0  0  0  0  0  0  0  0  0  0  0
    6.7809   19.1646    3.5833 N   0  0  0  0  0  0  0  0  0  0  0  0
    5.9379   19.2021    4.7003 O   0  0  0  0  0  0  0  0  0  0  0  0
    5.1375   17.4459    2.8989 C   0  0  0  0  0  0  0  0  0  0  0  0
    4.2107   17.2942    1.9992 N   0  0  0  0  0  0  0  0  0  0  0  0
    4.4687   18.0723    0.8646 O   0  0  0  0  0  0  0  0  0  0  0  0
    5.0834   16.6708    4.1823 C   0  0  0  0  0  0  0  0  0  0  0  0
    5.4220   20.0162    4.5473 H   0  0  0  0  0  0  0  0  0  0  0  0
    4.3144   17.4408    0.1368 H   0  0  0  0  0  0  0  0  0  0  0  0
  1  2  1  0  0  0  0
  2  3  2  0  0  0  0
  2  5  1  0  0  0  0
  3  4  1  0  0  0  0
  4  9  1  0  0  0  0
  5  6  2  0  0  0  0
  5  8  1  0  0  0  0
  6  7  1  0  0  0  0
  7 10  1  0  0  0  0
M  END
>  <CHROM.0>
-60.84741761,-64.07062811,-67.66416902,-48.29095571,-63.43760463,-63.85398639
-67.55203416,-63.16137533,-167.10519059

>  <CHROM.1>
-50.76370792,-102.05000426,133.46233500,5.61467510,18.05593675,2.78713282
-2.11649984,0.62527853,1.53419785

>  <Name>
P156234412

>  <RI>
4.17015e+07

>  <Rbt.Current_Directory>
/home/fstefaniak/projects/zuza/docking/adenine/4XNR

>  <Rbt.Executable>
rbdock ($Id: //depot/dev/client3/rdock/2013.1/src/exe/rbdock.cxx#4 $)

>  <Rbt.Library>
libRbt.so (2013.1, Build901 2013/11/27)

>  <Rbt.Parameter_File>
/home/fstefaniak/progs/rDock//data/scripts/dock_solv.prm

>  <Rbt.Receptor>
4xnr.prm

>  <SCORE>
-49.5816

>  <SCORE.INTER>
-28.0493

>  <SCORE.INTER.CONST>
1

>  <SCORE.INTER.POLAR>
-3.81151

>  <SCORE.INTER.ROT>
1

>  <SCORE.INTER.SOLV>
8.03583

>  <SCORE.INTER.VDW>
-12.9398

>  <SCORE.INTER.norm>
-3.50616

>  <SCORE.INTRA>
-0.634598

>  <SCORE.INTRA.DIHEDRAL>
-7.18299

>  <SCORE.INTRA.DIHEDRAL.0>
15.0649

>  <SCORE.INTRA.POLAR>
0

>  <SCORE.INTRA.POLAR.0>
0

>  <SCORE.INTRA.REPUL>
0

>  <SCORE.INTRA.REPUL.0>
0

>  <SCORE.INTRA.SOLV>
-0.124641

>  <SCORE.INTRA.SOLV.lig_0>
-6.51036

>  <SCORE.INTRA.VDW>
3.01922

>  <SCORE.INTRA.VDW.0>
-0.726131

>  <SCORE.INTRA.norm>
-0.0793248

>  <SCORE.RESTR>
0

>  <SCORE.RESTR.CAVITY>
0

>  <SCORE.RESTR.norm>
0

>  <SCORE.SYSTEM>
-20.8977

>  <SCORE.SYSTEM.CONST>
0

>  <SCORE.SYSTEM.DIHEDRAL>
4.27388

>  <SCORE.SYSTEM.POLAR>
-2.94735

>  <SCORE.SYSTEM.SOLV>
0.258697

>  <SCORE.SYSTEM.VDW>
-5.61816

>  <SCORE.SYSTEM.norm>
-2.61221

>  <SCORE.heavy>
8

>  <SCORE.norm>
-6.1977

$$$$
P156234412
 OpenBabel12072022113D
libRbt.so/2013.1/901 2013/11/27
 10  9  0  0  0  0  0  0  0  0999 V2000
    5.3169   16.1536    3.6937 C   0  0  0  0  0  0  0  0  0  0  0  0
    5.7489   17.5244    4.1214 C   0  0  0  0  0  0  0  0  0  0  0  0
    5.1647   18.1216    5.1179 N   0  0  0  0  0  0  0  0  0  0  0  0
    5.6885   19.4035    5.3228 O   0  0  0  0  0  0  0  0  0  0  0  0
    6.8166   18.1750    3.2764 C   0  0  0  0  0  0  0  0  0  0  0  0
    7.9374   18.6246    3.7594 N   0  0  0  0  0  0  0  0  0  0  0  0
    7.9905   18.4745    5.1500 O   0  0  0  0  0  0  0  0  0  0  0  0
    6.5638   18.1981    1.7978 C   0  0  0  0  0  0  0  0  0  0  0  0
    5.3227   19.9032    4.5686 H   0  0  0  0  0  0  0  0  0  0  0  0
    7.2999   19.0928    5.4549 H   0  0  0  0  0  0  0  0  0  0  0  0
  1  2  1  0  0  0  0
  2  3  2  0  0  0  0
  2  5  1  0  0  0  0
  3  4  1  0  0  0  0
  4  9  1  0  0  0  0
  5  6  2  0  0  0  0
  5  8  1  0  0  0  0
  6  7  1  0  0  0  0
  7 10  1  0  0  0  0
M  END
>  <CHROM.0>
-58.43022635,178.94514653,-67.30213225,-46.51272506,-60.11407487,-61.45115876
-70.10322617,60.34788119,-167.39405536

>  <CHROM.1>
-124.85861140,72.90250182,-67.12745293,6.41273072,18.13025306,4.07703899
1.88901682,-0.51226774,-2.03566593

>  <Name>
P156234412

>  <RI>
4.17015e+07

>  <Rbt.Current_Directory>
/home/fstefaniak/projects/zuza/docking/adenine/4XNR

>  <Rbt.Executable>
rbdock ($Id: //depot/dev/client3/rdock/2013.1/src/exe/rbdock.cxx#4 $)

>  <Rbt.Library>
libRbt.so (2013.1, Build901 2013/11/27)

>  <Rbt.Parameter_File>
/home/fstefaniak/progs/rDock//data/scripts/dock_solv.prm

>  <Rbt.Receptor>
4xnr.prm

>  <SCORE>
-48.6836

>  <SCORE.INTER>
-25.2165

>  <SCORE.INTER.CONST>
1

>  <SCORE.INTER.POLAR>
-3.36971

>  <SCORE.INTER.ROT>
1

>  <SCORE.INTER.SOLV>
8.12454

>  <SCORE.INTER.VDW>
-12.5535

>  <SCORE.INTER.norm>
-3.15206

>  <SCORE.INTRA>
-3.80812

>  <SCORE.INTRA.DIHEDRAL>
-6.94804

>  <SCORE.INTRA.DIHEDRAL.0>
15.0649

>  <SCORE.INTRA.POLAR>
-0.829877

>  <SCORE.INTRA.POLAR.0>
0

>  <SCORE.INTRA.REPUL>
0

>  <SCORE.INTRA.REPUL.0>
0

>  <SCORE.INTRA.SOLV>
0.243719

>  <SCORE.INTRA.SOLV.lig_0>
-6.51036

>  <SCORE.INTRA.VDW>
2.36562

>  <SCORE.INTRA.VDW.0>
-0.726131

>  <SCORE.INTRA.norm>
-0.476015

>  <SCORE.RESTR>
0

>  <SCORE.RESTR.CAVITY>
0

>  <SCORE.RESTR.norm>
0

>  <SCORE.SYSTEM>
-19.659

>  <SCORE.SYSTEM.CONST>
0

>  <SCORE.SYSTEM.DIHEDRAL>
4.39567

>  <SCORE.SYSTEM.POLAR>
-2.99036

>  <SCORE.SYSTEM.SOLV>
0.0859041

>  <SCORE.SYSTEM.VDW>
-4.63196

>  <SCORE.SYSTEM.norm>
-2.45737

>  <SCORE.heavy>
8

>  <SCORE.norm>
-6.08545

$$$$
P156234412
 OpenBabel12072022113D
libRbt.so/2013.1/901 2013/11/27
 10  9  0  0  0  0  0  0  0  0999 V2000
    5.0997   16.6649    4.1757 C   0  0  0  0  0  0  0  0  0  0  0  0
    5.1537   17.4321    2.8884 C   0  0  0  0  0  0  0  0  0  0  0  0
    4.2370   17.2675    1.9809 N   0  0  0  0  0  0  0  0  0  0  0  0
    4.4983   18.0427    0.8449 O   0  0  0  0  0  0  0  0  0  0  0  0
    6.3634   18.3130    2.6937 C   0  0  0  0  0  0  0  0  0  0  0  0
    6.7901   19.1525    3.5907 N   0  0  0  0  0  0  0  0  0  0  0  0
    5.9567   19.1651    4.7153 O   0  0  0  0  0  0  0  0  0  0  0  0
    7.1310   18.1067    1.4214 C   0  0  0  0  0  0  0  0  0  0  0  0
    4.3698   17.4029    0.1194 H   0  0  0  0  0  0  0  0  0  0  0  0
    5.3715   19.9250    4.5350 H   0  0  0  0  0  0  0  0  0  0  0  0
  1  2  1  0  0  0  0
  2  3  2  0  0  0  0
  2  5  1  0  0  0  0
  3  4  1  0  0  0  0
  4  9  1  0  0  0  0
  5  6  2  0  0  0  0
  5  8  1  0  0  0  0
  6  7  1  0  0  0  0
  7 10  1  0  0  0  0
M  END
>  <CHROM.0>
-59.39601284,58.83735419,-73.07515304,-44.27292049,-59.48375442,-60.81785325
-171.89915206,-58.87570166,-168.00378517

>  <CHROM.1>
-49.08359143,132.65161058,-96.30639072,5.63007689,18.04320378,2.78065341
1.03640421,0.63512637,1.54078960

>  <Name>
P156234412

>  <RI>
4.17015e+07

>  <Rbt.Current_Directory>
/home/fstefaniak/projects/zuza/docking/adenine/4XNR

>  <Rbt.Executable>
rbdock ($Id: //depot/dev/client3/rdock/2013.1/src/exe/rbdock.cxx#4 $)

>  <Rbt.Library>
libRbt.so (2013.1, Build901 2013/11/27)

>  <Rbt.Parameter_File>
/home/fstefaniak/progs/rDock//data/scripts/dock_solv.prm

>  <Rbt.Receptor>
4xnr.prm

>  <SCORE>
-48.1259

>  <SCORE.INTER>
-28.3408

>  <SCORE.INTER.CONST>
1

>  <SCORE.INTER.POLAR>
-3.80401

>  <SCORE.INTER.ROT>
1

>  <SCORE.INTER.SOLV>
8.01323

>  <SCORE.INTER.VDW>
-13.1516

>  <SCORE.INTER.norm>
-3.5426

>  <SCORE.INTRA>
-0.350854

>  <SCORE.INTRA.DIHEDRAL>
-7.60151

>  <SCORE.INTRA.DIHEDRAL.0>
15.0649

>  <SCORE.INTRA.POLAR>
0

>  <SCORE.INTRA.POLAR.0>
0

>  <SCORE.INTRA.REPUL>
0

>  <SCORE.INTRA.REPUL.0>
0

>  <SCORE.INTRA.SOLV>
-0.126534

>  <SCORE.INTRA.SOLV.lig_0>
-6.51036

>  <SCORE.INTRA.VDW>
3.51317

>  <SCORE.INTRA.VDW.0>
-0.726131

>  <SCORE.INTRA.norm>
-0.0438567

>  <SCORE.RESTR>
0

>  <SCORE.RESTR.CAVITY>
0

>  <SCORE.RESTR.norm>
0

>  <SCORE.SYSTEM>
-19.4342

>  <SCORE.SYSTEM.CONST>
0

>  <SCORE.SYSTEM.DIHEDRAL>
4.95781

>  <SCORE.SYSTEM.POLAR>
-3.00316

>  <SCORE.SYSTEM.SOLV>
0.31648

>  <SCORE.SYSTEM.VDW>
-4.70373

>  <SCORE.SYSTEM.norm>
-2.42928

>  <SCORE.heavy>
8

>  <SCORE.norm>
-6.01574

$$$$
P156238498
 OpenBabel12072022113D
libRbt.so/2013.1/901 2013/11/27
 13 13  0  0  0  0  0  0  0  0999 V2000
    8.2850   19.0188    0.2084 H   0  0  0  0  0  0  0  0  0  0  0  0
    7.4249   18.7429    0.6951 N   0  0  0  0  0  0  0  0  0  0  0  0
    7.5796   18.7515    1.9257 N   0  0  0  0  0  0  0  0  0  0  0  0
    6.3996   18.3648    2.4317 N   0  0  0  0  0  0  0  0  0  0  0  0
    6.1507   18.5212    3.8118 C   0  0  0  0  0  0  0  0  0  0  0  0
    6.5978   19.6596    4.5037 C   0  0  0  0  0  0  0  0  0  0  0  0
    6.4171   19.7896    5.8842 C   0  0  0  0  0  0  0  0  0  0  0  0
    5.7991   18.7740    6.6074 C   0  0  0  0  0  0  0  0  0  0  0  0
    5.3636   17.6240    5.9517 C   0  0  0  0  0  0  0  0  0  0  0  0
    5.5431   17.4963    4.5655 C   0  0  0  0  0  0  0  0  0  0  0  0
    5.0433   16.2539    3.9315 C   0  0  0  0  0  0  0  0  0  0  0  0
    5.1159   16.0504    2.7247 O   0  0  0  0  0  0  0  0  0  0  0  0
    5.5836   18.5253    1.8323 H   0  0  0  0  0  0  0  0  0  0  0  0
  1  2  1  0  0  0  0
  2  3  2  0  0  0  0
  3  4  1  0  0  0  0
  4  5  1  0  0  0  0
  4 13  1  0  0  0  0
  5  6  2  0  0  0  0
  5 10  1  0  0  0  0
  6  7  1  0  0  0  0
  7  8  2  0  0  0  0
  8  9  1  0  0  0  0
  9 10  2  0  0  0  0
 10 11  1  0  0  0  0
 11 12  2  0  0  0  0
M  END
>  <CHROM.0>
-62.17742800,-67.58627020,-65.60566581,-45.93628391,-55.86148001,-63.29970110
-67.94823243,-55.30266783,-167.81579959

>  <CHROM.1>
-167.46890183,38.77943231,-0.70694731,6.14479342,18.16069882,3.80124433,-1.07276402
0.97657302,1.10331027

>  <Name>
P156238498

>  <RI>
4.17015e+07

>  <Rbt.Current_Directory>
/home/fstefaniak/projects/zuza/docking/adenine/4XNR

>  <Rbt.Executable>
rbdock ($Id: //depot/dev/client3/rdock/2013.1/src/exe/rbdock.cxx#4 $)

>  <Rbt.Library>
libRbt.so (2013.1, Build901 2013/11/27)

>  <Rbt.Parameter_File>
/home/fstefaniak/progs/rDock//data/scripts/dock_solv.prm

>  <Rbt.Receptor>
4xnr.prm

>  <SCORE>
-51.9014

>  <SCORE.INTER>
-30.5548

>  <SCORE.INTER.CONST>
1

>  <SCORE.INTER.POLAR>
-2.8138

>  <SCORE.INTER.ROT>
3

>  <SCORE.INTER.SOLV>
11.9192

>  <SCORE.INTER.VDW>
-20.5636

>  <SCORE.INTER.norm>
-2.77771

>  <SCORE.INTRA>
-0.541876

>  <SCORE.INTRA.DIHEDRAL>
-0.344795

>  <SCORE.INTRA.DIHEDRAL.0>
1.08068

>  <SCORE.INTRA.POLAR>
0.0321666

>  <SCORE.INTRA.POLAR.0>
-0.0321666

>  <SCORE.INTRA.REPUL>
0

>  <SCORE.INTRA.REPUL.0>
0

>  <SCORE.INTRA.SOLV>
-0.0800389

>  <SCORE.INTRA.SOLV.lig_0>
-10.7482

>  <SCORE.INTRA.VDW>
-0.438825

>  <SCORE.INTRA.VDW.0>
-0.336416

>  <SCORE.INTRA.norm>
-0.0492614

>  <SCORE.RESTR>
0

>  <SCORE.RESTR.CAVITY>
0

>  <SCORE.RESTR.norm>
0

>  <SCORE.SYSTEM>
-20.8047

>  <SCORE.SYSTEM.CONST>
0

>  <SCORE.SYSTEM.DIHEDRAL>
4.647

>  <SCORE.SYSTEM.POLAR>
-3.00005

>  <SCORE.SYSTEM.SOLV>
0.283321

>  <SCORE.SYSTEM.VDW>
-5.51309

>  <SCORE.SYSTEM.norm>
-1.89134

>  <SCORE.heavy>
11

>  <SCORE.norm>
-4.71831

$$$$
P156238498
 OpenBabel12072022113D
libRbt.so/2013.1/901 2013/11/27
 13 13  0  0  0  0  0  0  0  0999 V2000
    7.2732   18.2458    0.2604 H   0  0  0  0  0  0  0  0  0  0  0  0
    7.6145   18.0653    1.2110 N   0  0  0  0  0  0  0  0  0  0  0  0
    7.2577   18.9568    1.9960 N   0  0  0  0  0  0  0  0  0  0  0  0
    7.7747   18.6085    3.1831 N   0  0  0  0  0  0  0  0  0  0  0  0
    6.9408   18.5745    4.3209 C   0  0  0  0  0  0  0  0  0  0  0  0
    7.1906   19.4047    5.4268 C   0  0  0  0  0  0  0  0  0  0  0  0
    6.4116   19.3271    6.5855 C   0  0  0  0  0  0  0  0  0  0  0  0
    5.3741   18.4036    6.6703 C   0  0  0  0  0  0  0  0  0  0  0  0
    5.1158   17.5526    5.5973 C   0  0  0  0  0  0  0  0  0  0  0  0
    5.8967   17.6338    4.4338 C   0  0  0  0  0  0  0  0  0  0  0  0
    5.5574   16.7090    3.3270 C   0  0  0  0  0  0  0  0  0  0  0  0
    6.3616   16.3939    2.4568 O   0  0  0  0  0  0  0  0  0  0  0  0
    8.4907   17.8751    3.1595 H   0  0  0  0  0  0  0  0  0  0  0  0
  1  2  1  0  0  0  0
  2  3  2  0  0  0  0
  3  4  1  0  0  0  0
  4  5  1  0  0  0  0
  4 13  1  0  0  0  0
  5  6  2  0  0  0  0
  5 10  1  0  0  0  0
  6  7  1  0  0  0  0
  7  8  2  0  0  0  0
  8  9  1  0  0  0  0
  9 10  2  0  0  0  0
 10 11  1  0  0  0  0
 11 12  2  0  0  0  0
M  END
>  <CHROM.0>
-56.34380757,-61.76282433,-63.65992106,-45.35135431,-61.38931107,-60.77575678
-68.00135722,-60.35531875,-168.20017260

>  <CHROM.1>
-129.45377999,-118.68719479,23.64283300,6.53746973,18.12036538,4.00141841
-1.14631112,0.83301412,1.06697311

>  <Name>
P156238498

>  <RI>
4.17015e+07

>  <Rbt.Current_Directory>
/home/fstefaniak/projects/zuza/docking/adenine/4XNR

>  <Rbt.Executable>
rbdock ($Id: //depot/dev/client3/rdock/2013.1/src/exe/rbdock.cxx#4 $)

>  <Rbt.Library>
libRbt.so (2013.1, Build901 2013/11/27)

>  <Rbt.Parameter_File>
/home/fstefaniak/progs/rDock//data/scripts/dock_solv.prm

>  <Rbt.Receptor>
4xnr.prm

>  <SCORE>
-51.8202

>  <SCORE.INTER>
-32.4878

>  <SCORE.INTER.CONST>
1

>  <SCORE.INTER.POLAR>
-3.41318

>  <SCORE.INTER.ROT>
3

>  <SCORE.INTER.SOLV>
12.6273

>  <SCORE.INTER.VDW>
-20.0904

>  <SCORE.INTER.norm>
-2.95344

>  <SCORE.INTRA>
1.53491

>  <SCORE.INTRA.DIHEDRAL>
2.11075

>  <SCORE.INTRA.DIHEDRAL.0>
1.08068

>  <SCORE.INTRA.POLAR>
0.0321666

>  <SCORE.INTRA.POLAR.0>
-0.0321666

>  <SCORE.INTRA.REPUL>
0

>  <SCORE.INTRA.REPUL.0>
0

>  <SCORE.INTRA.SOLV>
0.575077

>  <SCORE.INTRA.SOLV.lig_0>
-10.7482

>  <SCORE.INTRA.VDW>
0.0826331

>  <SCORE.INTRA.VDW.0>
-0.336416

>  <SCORE.INTRA.norm>
0.139537

>  <SCORE.RESTR>
0

>  <SCORE.RESTR.CAVITY>
0

>  <SCORE.RESTR.norm>
0

>  <SCORE.SYSTEM>
-20.8673

>  <SCORE.SYSTEM.CONST>
0

>  <SCORE.SYSTEM.DIHEDRAL>
4.16997

>  <SCORE.SYSTEM.POLAR>
-3.03066

>  <SCORE.SYSTEM.SOLV>
0.293193

>  <SCORE.SYSTEM.VDW>
-5.29709

>  <SCORE.SYSTEM.norm>
-1.89703

>  <SCORE.heavy>
11

>  <SCORE.norm>
-4.71093

$$$$
P156238498
 OpenBabel12072022113D
libRbt.so/2013.1/901 2013/11/27
 13 13  0  0  0  0  0  0  0  0999 V2000
    6.1357   18.9002    0.1053 H   0  0  0  0  0  0  0  0  0  0  0  0
    6.4491   18.3818    0.9334 N   0  0  0  0  0  0  0  0  0  0  0  0
    7.0190   19.1276    1.7442 N   0  0  0  0  0  0  0  0  0  0  0  0
    7.3838   18.3310    2.7592 N   0  0  0  0  0  0  0  0  0  0  0  0
    6.7517   18.4699    4.0132 C   0  0  0  0  0  0  0  0  0  0  0  0
    7.1137   19.5013    4.8962 C   0  0  0  0  0  0  0  0  0  0  0  0
    6.5425   19.6039    6.1684 C   0  0  0  0  0  0  0  0  0  0  0  0
    5.6071   18.6650    6.5928 C   0  0  0  0  0  0  0  0  0  0  0  0
    5.2436   17.6190    5.7468 C   0  0  0  0  0  0  0  0  0  0  0  0
    5.8157   17.5192    4.4690 C   0  0  0  0  0  0  0  0  0  0  0  0
    5.3729   16.3906    3.6171 C   0  0  0  0  0  0  0  0  0  0  0  0
    5.8649   16.1566    2.5189 O   0  0  0  0  0  0  0  0  0  0  0  0
    7.6173   17.3654    2.5062 H   0  0  0  0  0  0  0  0  0  0  0  0
  1  2  1  0  0  0  0
  2  3  2  0  0  0  0
  3  4  1  0  0  0  0
  4  5  1  0  0  0  0
  4 13  1  0  0  0  0
  5  6  2  0  0  0  0
  5 10  1  0  0  0  0
  6  7  1  0  0  0  0
  7  8  2  0  0  0  0
  8  9  1  0  0  0  0
  9 10  2  0  0  0  0
 10 11  1  0  0  0  0
 11 12  2  0  0  0  0
M  END
>  <CHROM.0>
-60.57100359,-64.65436067,-65.69485763,-47.16833984,-60.00875549,-62.74949395
-67.21070941,-59.37639163,-168.31325637

>  <CHROM.1>
-111.29533439,-78.87052475,5.87958708,6.30036973,18.13135676,3.84004463,-1.32288361
1.03636674,1.17097771

>  <Name>
P156238498

>  <RI>
4.17015e+07

>  <Rbt.Current_Directory>
/home/fstefaniak/projects/zuza/docking/adenine/4XNR

>  <Rbt.Executable>
rbdock ($Id: //depot/dev/client3/rdock/2013.1/src/exe/rbdock.cxx#4 $)

>  <Rbt.Library>
libRbt.so (2013.1, Build901 2013/11/27)

>  <Rbt.Parameter_File>
/home/fstefaniak/progs/rDock//data/scripts/dock_solv.prm

>  <Rbt.Receptor>
4xnr.prm

>  <SCORE>
-51.4703

>  <SCORE.INTER>
-30.1561

>  <SCORE.INTER.CONST>
1

>  <SCORE.INTER.POLAR>
-2.96045

>  <SCORE.INTER.ROT>
3

>  <SCORE.INTER.SOLV>
12.2782

>  <SCORE.INTER.VDW>
-19.9286

>  <SCORE.INTER.norm>
-2.74147

>  <SCORE.INTRA>
-0.398523

>  <SCORE.INTRA.DIHEDRAL>
0.0156985

>  <SCORE.INTRA.DIHEDRAL.0>
1.08068

>  <SCORE.INTRA.POLAR>
0.0321666

>  <SCORE.INTRA.POLAR.0>
-0.0321666

>  <SCORE.INTRA.REPUL>
0

>  <SCORE.INTRA.REPUL.0>
0

>  <SCORE.INTRA.SOLV>
0.415488

>  <SCORE.INTRA.SOLV.lig_0>
-10.7482

>  <SCORE.INTRA.VDW>
-0.723483

>  <SCORE.INTRA.VDW.0>
-0.336416

>  <SCORE.INTRA.norm>
-0.0362294

>  <SCORE.RESTR>
0

>  <SCORE.RESTR.CAVITY>
0

>  <SCORE.RESTR.norm>
0

>  <SCORE.SYSTEM>
-20.9156

>  <SCORE.SYSTEM.CONST>
0

>  <SCORE.SYSTEM.DIHEDRAL>
4.02493

>  <SCORE.SYSTEM.POLAR>
-2.96872

>  <SCORE.SYSTEM.SOLV>
0.279437

>  <SCORE.SYSTEM.VDW>
-5.48278

>  <SCORE.SYSTEM.norm>
-1.90142

>  <SCORE.heavy>
11

>  <SCORE.norm>
-4.67912

$$$$
P156243627
 OpenBabel12072022113D
libRbt.so/2013.1/901 2013/11/27
 14 13  0  0  0  0  0  0  0  0999 V2000
    1.2023   16.3979    3.6978 C   0  0  0  0  0  0  0  0  0  0  0  0
    2.5207   16.9991    3.2818 C   0  0  0  0  0  0  0  0  0  0  0  0
    2.6744   17.4639    2.1571 O   0  0  0  0  0  0  0  0  0  0  0  0
    3.4554   17.0179    4.2963 N   0  0  0  0  0  0  0  0  0  0  0  0
    4.7737   17.4784    4.2829 C   0  0  0  0  0  0  0  0  0  0  0  0
    5.5316   17.7494    3.1932 C   0  0  0  0  0  0  0  0  0  0  0  0
    6.9309   18.3175    3.3656 C   0  0  0  0  0  0  0  0  0  0  0  0
    8.0917   18.7889    3.5086 N   0  0  0  0  0  0  0  0  0  0  0  0
    5.2236   17.5832    1.8507 N   0  0  0  0  0  0  0  0  0  0  0  0
    5.3408   17.6345    5.5952 C   0  0  0  0  0  0  0  0  0  0  0  0
    5.7312   17.7344    6.6826 N   0  0  0  0  0  0  0  0  0  0  0  0
    3.1009   16.7695    5.2169 H   0  0  0  0  0  0  0  0  0  0  0  0
    4.3360   17.0828    1.7076 H   0  0  0  0  0  0  0  0  0  0  0  0
    5.2364   18.4455    1.3086 H   0  0  0  0  0  0  0  0  0  0  0  0
  1  2  1  0  0  0  0
  2  3  2  0  0  0  0
  2  4  1  0  0  0  0
  4  5  1  0  0  0  0
  4 12  1  0  0  0  0
  5  6  2  0  0  0  0
  5 10  1  0  0  0  0
  6  7  1  0  0  0  0
  6  9  1  0  0  0  0
  7  8  3  0  0  0  0
  9 13  1  0  0  0  0
  9 14  1  0  0  0  0
 10 11  3  0  0  0  0
M  END
>  <CHROM.0>
-55.48409304,-62.21213464,-66.29181654,-47.26090523,-58.15322877,-63.82465736
-68.62545629,-61.03477436,-167.88480945

>  <CHROM.1>
-7.76668134,4.59747665,17.54364371,3.75709479,2.98494964,-0.30041405,-1.48781584

>  <Name>
P156243627

>  <RI>
3.4169e+07

>  <Rbt.Current_Directory>
/home/fstefaniak/projects/zuza/docking/adenine/4XNR

>  <Rbt.Executable>
rbdock ($Id: //depot/dev/client3/rdock/2013.1/src/exe/rbdock.cxx#4 $)

>  <Rbt.Library>
libRbt.so (2013.1, Build901 2013/11/27)

>  <Rbt.Parameter_File>
/home/fstefaniak/progs/rDock//data/scripts/dock_solv.prm

>  <Rbt.Receptor>
4xnr.prm

>  <SCORE>
-42.9257

>  <SCORE.INTER>
-23.6338

>  <SCORE.INTER.CONST>
1

>  <SCORE.INTER.POLAR>
-4.07434

>  <SCORE.INTER.ROT>
1

>  <SCORE.INTER.SOLV>
14.9315

>  <SCORE.INTER.VDW>
-11.4185

>  <SCORE.INTER.norm>
-2.14852

>  <SCORE.INTRA>
1.64562

>  <SCORE.INTRA.DIHEDRAL>
-0.000393938

>  <SCORE.INTRA.DIHEDRAL.0>
0.48032

>  <SCORE.INTRA.POLAR>
0.529812

>  <SCORE.INTRA.POLAR.0>
-0.642366

>  <SCORE.INTRA.REPUL>
0

>  <SCORE.INTRA.REPUL.0>
0

>  <SCORE.INTRA.SOLV>
0.0393821

>  <SCORE.INTRA.SOLV.lig_0>
-21.2795

>  <SCORE.INTRA.VDW>
-0.175231

>  <SCORE.INTRA.VDW.0>
0.0596453

>  <SCORE.INTRA.norm>
0.149602

>  <SCORE.RESTR>
0

>  <SCORE.RESTR.CAVITY>
0

>  <SCORE.RESTR.norm>
0

>  <SCORE.SYSTEM>
-20.9376

>  <SCORE.SYSTEM.CONST>
0

>  <SCORE.SYSTEM.DIHEDRAL>
4.25086

>  <SCORE.SYSTEM.POLAR>
-3.00791

>  <SCORE.SYSTEM.SOLV>
0.28149

>  <SCORE.SYSTEM.VDW>
-5.44281

>  <SCORE.SYSTEM.norm>
-1.90342

>  <SCORE.heavy>
11

>  <SCORE.norm>
-3.90234

$$$$
P156243627
 OpenBabel12072022113D
libRbt.so/2013.1/901 2013/11/27
 14 13  0  0  0  0  0  0  0  0999 V2000
    1.2070   16.3728    3.6915 C   0  0  0  0  0  0  0  0  0  0  0  0
    2.5219   16.9838    3.2791 C   0  0  0  0  0  0  0  0  0  0  0  0
    2.6721   17.4587    2.1580 O   0  0  0  0  0  0  0  0  0  0  0  0
    3.4577   16.9989    4.2926 N   0  0  0  0  0  0  0  0  0  0  0  0
    4.7738   17.4659    4.2815 C   0  0  0  0  0  0  0  0  0  0  0  0
    5.5291   17.7496    3.1933 C   0  0  0  0  0  0  0  0  0  0  0  0
    6.9258   18.3231    3.3688 C   0  0  0  0  0  0  0  0  0  0  0  0
    8.0844   18.7989    3.5144 N   0  0  0  0  0  0  0  0  0  0  0  0
    5.2204   17.5930    1.8498 N   0  0  0  0  0  0  0  0  0  0  0  0
    5.3416   17.6139    5.5944 C   0  0  0  0  0  0  0  0  0  0  0  0
    5.7328   17.7067    6.6822 N   0  0  0  0  0  0  0  0  0  0  0  0
    3.1056   16.7411    5.2115 H   0  0  0  0  0  0  0  0  0  0  0  0
    4.3346   17.0902    1.7035 H   0  0  0  0  0  0  0  0  0  0  0  0
    5.2291   18.4597    1.3147 H   0  0  0  0  0  0  0  0  0  0  0  0
  1  2  1  0  0  0  0
  2  3  2  0  0  0  0
  2  4  1  0  0  0  0
  4  5  1  0  0  0  0
  4 12  1  0  0  0  0
  5  6  2  0  0  0  0
  5 10  1  0  0  0  0
  6  7  1  0  0  0  0
  6  9  1  0  0  0  0
  7  8  3  0  0  0  0
  9 13  1  0  0  0  0
  9 14  1  0  0  0  0
 10 11  3  0  0  0  0
M  END
>  <CHROM.0>
-58.60490300,-63.06415529,-64.79849190,-48.73099553,-60.86233938,-179.92122004
-69.31805873,-174.93334407,-168.22453825

>  <CHROM.1>
-7.71574827,4.59660966,17.53462579,3.75647828,2.98658502,-0.30518258,-1.47906340

>  <Name>
P156243627

>  <RI>
3.4169e+07

>  <Rbt.Current_Directory>
/home/fstefaniak/projects/zuza/docking/adenine/4XNR

>  <Rbt.Executable>
rbdock ($Id: //depot/dev/client3/rdock/2013.1/src/exe/rbdock.cxx#4 $)

>  <Rbt.Library>
libRbt.so (2013.1, Build901 2013/11/27)

>  <Rbt.Parameter_File>
/home/fstefaniak/progs/rDock//data/scripts/dock_solv.prm

>  <Rbt.Receptor>
4xnr.prm

>  <SCORE>
-42.6282

>  <SCORE.INTER>
-23.6306

>  <SCORE.INTER.CONST>
1

>  <SCORE.INTER.POLAR>
-4.07895

>  <SCORE.INTER.ROT>
1

>  <SCORE.INTER.SOLV>
14.9075

>  <SCORE.INTER.VDW>
-11.3931

>  <SCORE.INTER.norm>
-2.14823

>  <SCORE.INTRA>
1.6444

>  <SCORE.INTRA.DIHEDRAL>
-0.000393075

>  <SCORE.INTRA.DIHEDRAL.0>
0.48032

>  <SCORE.INTRA.POLAR>
0.529222

>  <SCORE.INTRA.POLAR.0>
-0.642366

>  <SCORE.INTRA.REPUL>
0

>  <SCORE.INTRA.REPUL.0>
0

>  <SCORE.INTRA.SOLV>
0.0393218

>  <SCORE.INTRA.SOLV.lig_0>
-21.2795

>  <SCORE.INTRA.VDW>
-0.17442

>  <SCORE.INTRA.VDW.0>
0.0596453

>  <SCORE.INTRA.norm>
0.149491

>  <SCORE.RESTR>
0

>  <SCORE.RESTR.CAVITY>
0

>  <SCORE.RESTR.norm>
0

>  <SCORE.SYSTEM>
-20.642

>  <SCORE.SYSTEM.CONST>
0

>  <SCORE.SYSTEM.DIHEDRAL>
4.00776

>  <SCORE.SYSTEM.POLAR>
-2.95583

>  <SCORE.SYSTEM.SOLV>
0.0290604

>  <SCORE.SYSTEM.VDW>
-5.25416

>  <SCORE.SYSTEM.norm>
-1.87655

>  <SCORE.heavy>
11

>  <SCORE.norm>
-3.87529

$$$$
P156243627
 OpenBabel12072022113D
libRbt.so/2013.1/901 2013/11/27
 14 13  0  0  0  0  0  0  0  0999 V2000
    1.2180   16.3845    3.6865 C   0  0  0  0  0  0  0  0  0  0  0  0
    2.5350   16.9900    3.2724 C   0  0  0  0  0  0  0  0  0  0  0  0
    2.6866   17.4616    2.1501 O   0  0  0  0  0  0  0  0  0  0  0  0
    3.4710   17.0043    4.2858 N   0  0  0  0  0  0  0  0  0  0  0  0
    4.7887   17.4667    4.2733 C   0  0  0  0  0  0  0  0  0  0  0  0
    5.5448   17.7451    3.1843 C   0  0  0  0  0  0  0  0  0  0  0  0
    6.9435   18.3142    3.3582 C   0  0  0  0  0  0  0  0  0  0  0  0
    8.1038   18.7864    3.5025 N   0  0  0  0  0  0  0  0  0  0  0  0
    5.2353   17.5863    1.8413 N   0  0  0  0  0  0  0  0  0  0  0  0
    5.3571   17.6159    5.5858 C   0  0  0  0  0  0  0  0  0  0  0  0
    5.7488   17.7101    6.6733 N   0  0  0  0  0  0  0  0  0  0  0  0
    3.1181   16.7500    5.2053 H   0  0  0  0  0  0  0  0  0  0  0  0
    4.3336   17.1122    1.6965 H   0  0  0  0  0  0  0  0  0  0  0  0
    5.2749   18.4471    1.2981 H   0  0  0  0  0  0  0  0  0  0  0  0
  1  2  1  0  0  0  0
  2  3  2  0  0  0  0
  2  4  1  0  0  0  0
  4  5  1  0  0  0  0
  4 12  1  0  0  0  0
  5  6  2  0  0  0  0
  5 10  1  0  0  0  0
  6  7  1  0  0  0  0
  6  9  1  0  0  0  0
  7  8  3  0  0  0  0
  9 13  1  0  0  0  0
  9 14  1  0  0  0  0
 10 11  3  0  0  0  0
M  END
>  <CHROM.0>
-53.44450022,-63.79142012,-65.85581279,-49.07388648,-175.11511111,-63.91346744
-69.56843072,58.67714374,-168.14332139

>  <CHROM.1>
-5.93101226,4.61175186,17.53489156,3.74814243,2.98657920,-0.30171650,-1.48146272

>  <Name>
P156243627

>  <RI>
3.4169e+07

>  <Rbt.Current_Directory>
/home/fstefaniak/projects/zuza/docking/adenine/4XNR

>  <Rbt.Executable>
rbdock ($Id: //depot/dev/client3/rdock/2013.1/src/exe/rbdock.cxx#4 $)

>  <Rbt.Library>
libRbt.so (2013.1, Build901 2013/11/27)

>  <Rbt.Parameter_File>
/home/fstefaniak/progs/rDock//data/scripts/dock_solv.prm

>  <Rbt.Receptor>
4xnr.prm

>  <SCORE>
-41.9885

>  <SCORE.INTER>
-23.6211

>  <SCORE.INTER.CONST>
1

>  <SCORE.INTER.POLAR>
-4.0646

>  <SCORE.INTER.ROT>
1

>  <SCORE.INTER.SOLV>
14.9068

>  <SCORE.INTER.VDW>
-11.4344

>  <SCORE.INTER.norm>
-2.14738

>  <SCORE.INTRA>
1.59633

>  <SCORE.INTRA.DIHEDRAL>
-0.000362554

>  <SCORE.INTRA.DIHEDRAL.0>
0.48032

>  <SCORE.INTRA.POLAR>
0.507159

>  <SCORE.INTRA.POLAR.0>
-0.642366

>  <SCORE.INTRA.REPUL>
0

>  <SCORE.INTRA.REPUL.0>
0

>  <SCORE.INTRA.SOLV>
0.0371088

>  <SCORE.INTRA.SOLV.lig_0>
-21.2795

>  <SCORE.INTRA.VDW>
-0.146385

>  <SCORE.INTRA.VDW.0>
0.0596453

>  <SCORE.INTRA.norm>
0.145121

>  <SCORE.RESTR>
0

>  <SCORE.RESTR.CAVITY>
0

>  <SCORE.RESTR.norm>
0

>  <SCORE.SYSTEM>
-19.9637

>  <SCORE.SYSTEM.CONST>
0

>  <SCORE.SYSTEM.DIHEDRAL>
4.3289

>  <SCORE.SYSTEM.POLAR>
-2.99381

>  <SCORE.SYSTEM.SOLV>
-0.0706332

>  <SCORE.SYSTEM.VDW>
-4.74918

>  <SCORE.SYSTEM.norm>
-1.81488

>  <SCORE.heavy>
11

>  <SCORE.norm>
-3.81714

$$$$
P156251492
 OpenBabel12072022113D
libRbt.so/2013.1/901 2013/11/27
 14 13  0  0  0  0  0  0  0  0999 V2000
    2.7784   19.1744   -0.0808 C   0  0  0  0  0  0  0  0  0  0  0  0
    2.4702   19.8187   -1.2153 N   0  3  0  0  0  0  0  0  0  0  0  0
    3.0605   19.7922   -2.0335 H   0  0  0  0  0  0  0  0  0  0  0  0
    1.5543   20.2462   -1.2838 H   0  0  0  0  0  0  0  0  0  0  0  0
    3.9123   18.4624   -0.0115 N   0  0  0  0  0  0  0  0  0  0  0  0
    1.9146   19.2453    1.0338 N   0  0  0  0  0  0  0  0  0  0  0  0
    2.1116   18.3893    2.0974 N   0  0  0  0  0  0  0  0  0  0  0  0
    0.8897   20.1690    1.0373 N   0  0  0  0  0  0  0  0  0  0  0  0
    4.5560   18.3881   -0.7854 H   0  0  0  0  0  0  0  0  0  0  0  0
    4.1827   18.0883    0.8903 H   0  0  0  0  0  0  0  0  0  0  0  0
    1.2463   17.8726    2.2824 H   0  0  0  0  0  0  0  0  0  0  0  0
    2.3046   18.9391    2.9376 H   0  0  0  0  0  0  0  0  0  0  0  0
    0.5421   20.2940    0.0816 H   0  0  0  0  0  0  0  0  0  0  0  0
    1.2588   21.0762    1.3308 H   0  0  0  0  0  0  0  0  0  0  0  0
  1  2  2  0  0  0  0
  1  5  1  0  0  0  0
  1  6  1  0  0  0  0
  2  3  1  0  0  0  0
  2  4  1  0  0  0  0
  5  9  1  0  0  0  0
  5 10  1  0  0  0  0
  6  7  1  0  0  0  0
  6  8  1  0  0  0  0
  7 11  1  0  0  0  0
  7 12  1  0  0  0  0
  8 13  1  0  0  0  0
  8 14  1  0  0  0  0
M  CHG  1   2   1
M  END
>  <CHROM.0>
-57.72392171,-59.40179603,-70.04495095,-46.49288353,-65.29430055,61.44381642
-170.92387352,-57.50994047,-168.17113682

>  <CHROM.1>
-124.96929578,33.60418061,2.33585146,19.22202249,0.48475152,-0.77913370,-0.58490013
2.03470108

>  <Name>
P156251492

>  <RI>
2.22087e+07

>  <Rbt.Current_Directory>
/home/fstefaniak/projects/zuza/docking/adenine/4XNR

>  <Rbt.Executable>
rbdock ($Id: //depot/dev/client3/rdock/2013.1/src/exe/rbdock.cxx#4 $)

>  <Rbt.Library>
libRbt.so (2013.1, Build901 2013/11/27)

>  <Rbt.Parameter_File>
/home/fstefaniak/progs/rDock//data/scripts/dock_solv.prm

>  <Rbt.Receptor>
4xnr.prm

>  <SCORE>
-49.9478

>  <SCORE.INTER>
-32.8867

>  <SCORE.INTER.CONST>
1

>  <SCORE.INTER.POLAR>
-6.95122

>  <SCORE.INTER.ROT>
2

>  <SCORE.INTER.SOLV>
21.7724

>  <SCORE.INTER.VDW>
-10.9445

>  <SCORE.INTER.norm>
-5.48111

>  <SCORE.INTRA>
2.04941

>  <SCORE.INTRA.DIHEDRAL>
0.000790831

>  <SCORE.INTRA.DIHEDRAL.0>
1.6

>  <SCORE.INTRA.POLAR>
0

>  <SCORE.INTRA.POLAR.0>
0

>  <SCORE.INTRA.REPUL>
0

>  <SCORE.INTRA.REPUL.0>
0

>  <SCORE.INTRA.SOLV>
0.190489

>  <SCORE.INTRA.SOLV.lig_0>
-34.2898

>  <SCORE.INTRA.VDW>
1.95377

>  <SCORE.INTRA.VDW.0>
-0.316297

>  <SCORE.INTRA.norm>
0.341568

>  <SCORE.RESTR>
0

>  <SCORE.RESTR.CAVITY>
0

>  <SCORE.RESTR.norm>
0

>  <SCORE.SYSTEM>
-19.1106

>  <SCORE.SYSTEM.CONST>
0

>  <SCORE.SYSTEM.DIHEDRAL>
4.6034

>  <SCORE.SYSTEM.POLAR>
-2.99445

>  <SCORE.SYSTEM.SOLV>
0.107397

>  <SCORE.SYSTEM.VDW>
-4.32915

>  <SCORE.SYSTEM.norm>
-3.1851

>  <SCORE.heavy>
6

>  <SCORE.norm>
-8.32464

$$$$
P156251492
 OpenBabel12072022113D
libRbt.so/2013.1/901 2013/11/27
 14 13  0  0  0  0  0  0  0  0999 V2000
    2.7903   19.1287   -0.0066 C   0  0  0  0  0  0  0  0  0  0  0  0
    2.4856   19.7699   -1.1437 N   0  3  0  0  0  0  0  0  0  0  0  0
    3.0749   19.7355   -1.9624 H   0  0  0  0  0  0  0  0  0  0  0  0
    1.5726   20.2035   -1.2133 H   0  0  0  0  0  0  0  0  0  0  0  0
    3.9193   18.4091    0.0649 N   0  0  0  0  0  0  0  0  0  0  0  0
    1.9282   19.2108    1.1084 N   0  0  0  0  0  0  0  0  0  0  0  0
    2.1202   18.3583    2.1758 N   0  0  0  0  0  0  0  0  0  0  0  0
    0.9099   20.1417    1.1087 N   0  0  0  0  0  0  0  0  0  0  0  0
    4.5617   18.3267   -0.7093 H   0  0  0  0  0  0  0  0  0  0  0  0
    4.1880   18.0372    0.9681 H   0  0  0  0  0  0  0  0  0  0  0  0
    1.2371   17.8891    2.3989 H   0  0  0  0  0  0  0  0  0  0  0  0
    2.3718   18.9073    3.0010 H   0  0  0  0  0  0  0  0  0  0  0  0
    0.5256   20.2247    0.1625 H   0  0  0  0  0  0  0  0  0  0  0  0
    1.2956   21.0586    1.3448 H   0  0  0  0  0  0  0  0  0  0  0  0
  1  2  2  0  0  0  0
  1  5  1  0  0  0  0
  1  6  1  0  0  0  0
  2  3  1  0  0  0  0
  2  4  1  0  0  0  0
  5  9  1  0  0  0  0
  5 10  1  0  0  0  0
  6  7  1  0  0  0  0
  6  8  1  0  0  0  0
  7 11  1  0  0  0  0
  7 12  1  0  0  0  0
  8 13  1  0  0  0  0
  8 14  1  0  0  0  0
M  CHG  1   2   1
M  END
>  <CHROM.0>
-54.30466932,57.00518538,-65.26675310,-46.77272578,-61.90559800,60.15457504
-68.10629654,-56.14604464,-167.85480742

>  <CHROM.1>
-128.25131903,36.86290029,2.34887580,19.18212691,0.55891195,-0.77692708,-0.59003681
2.03034803

>  <Name>
P156251492

>  <RI>
2.22087e+07

>  <Rbt.Current_Directory>
/home/fstefaniak/projects/zuza/docking/adenine/4XNR

>  <Rbt.Executable>
rbdock ($Id: //depot/dev/client3/rdock/2013.1/src/exe/rbdock.cxx#4 $)

>  <Rbt.Library>
libRbt.so (2013.1, Build901 2013/11/27)

>  <Rbt.Parameter_File>
/home/fstefaniak/progs/rDock//data/scripts/dock_solv.prm

>  <Rbt.Receptor>
4xnr.prm

>  <SCORE>
-49.5462

>  <SCORE.INTER>
-32.2472

>  <SCORE.INTER.CONST>
1

>  <SCORE.INTER.POLAR>
-6.76328

>  <SCORE.INTER.ROT>
2

>  <SCORE.INTER.SOLV>
21.5461

>  <SCORE.INTER.VDW>
-11.0693

>  <SCORE.INTER.norm>
-5.37454

>  <SCORE.INTRA>
1.61942

>  <SCORE.INTRA.DIHEDRAL>
0.000864465

>  <SCORE.INTRA.DIHEDRAL.0>
1.6

>  <SCORE.INTRA.POLAR>
0

>  <SCORE.INTRA.POLAR.0>
0

>  <SCORE.INTRA.REPUL>
0

>  <SCORE.INTRA.REPUL.0>
0

>  <SCORE.INTRA.SOLV>
0.19247

>  <SCORE.INTRA.SOLV.lig_0>
-34.2898

>  <SCORE.INTRA.VDW>
1.52275

>  <SCORE.INTRA.VDW.0>
-0.316297

>  <SCORE.INTRA.norm>
0.269903

>  <SCORE.RESTR>
0

>  <SCORE.RESTR.CAVITY>
0

>  <SCORE.RESTR.norm>
0

>  <SCORE.SYSTEM>
-18.9184

>  <SCORE.SYSTEM.CONST>
0

>  <SCORE.SYSTEM.DIHEDRAL>
4.28931

>  <SCORE.SYSTEM.POLAR>
-3.03485

>  <SCORE.SYSTEM.SOLV>
0.253659

>  <SCORE.SYSTEM.VDW>
-4.01043

>  <SCORE.SYSTEM.norm>
-3.15307

>  <SCORE.heavy>
6

>  <SCORE.norm>
-8.25771

$$$$
P156251492
 OpenBabel12072022113D
libRbt.so/2013.1/901 2013/11/27
 14 13  0  0  0  0  0  0  0  0999 V2000
    2.7838   19.1115    0.0135 C   0  0  0  0  0  0  0  0  0  0  0  0
    3.9110   18.3894    0.0846 N   0  3  0  0  0  0  0  0  0  0  0  0
    4.5524   18.3045   -0.6900 H   0  0  0  0  0  0  0  0  0  0  0  0
    4.1794   18.0174    0.9879 H   0  0  0  0  0  0  0  0  0  0  0  0
    2.4794   19.7523   -1.1242 N   0  0  0  0  0  0  0  0  0  0  0  0
    1.9227   19.1964    1.1291 N   0  0  0  0  0  0  0  0  0  0  0  0
    0.9069   20.1298    1.1298 N   0  0  0  0  0  0  0  0  0  0  0  0
    2.1143   18.3447    2.1975 N   0  0  0  0  0  0  0  0  0  0  0  0
    3.0679   19.7155   -1.9434 H   0  0  0  0  0  0  0  0  0  0  0  0
    1.5672   20.1875   -1.1936 H   0  0  0  0  0  0  0  0  0  0  0  0
    0.5247   20.2165    0.1831 H   0  0  0  0  0  0  0  0  0  0  0  0
    1.2943   21.0451    1.3695 H   0  0  0  0  0  0  0  0  0  0  0  0
    1.2333   17.8687    2.4145 H   0  0  0  0  0  0  0  0  0  0  0  0
    2.3559   18.8954    3.0244 H   0  0  0  0  0  0  0  0  0  0  0  0
  1  2  2  0  0  0  0
  1  5  1  0  0  0  0
  1  6  1  0  0  0  0
  2  3  1  0  0  0  0
  2  4  1  0  0  0  0
  5  9  1  0  0  0  0
  5 10  1  0  0  0  0
  6  7  1  0  0  0  0
  6  8  1  0  0  0  0
  7 11  1  0  0  0  0
  7 12  1  0  0  0  0
  8 13  1  0  0  0  0
  8 14  1  0  0  0  0
M  CHG  1   2   1
M  END
>  <CHROM.0>
-55.43836953,-62.09264919,-67.60510583,-47.51721209,-58.81462166,-42.96640733
-68.77200866,-59.66010093,-167.79807336

>  <CHROM.1>
36.62014752,-127.56635776,2.34292297,19.16635796,0.57935137,-0.77710134,-0.59276103
2.02969365

>  <Name>
P156251492

>  <RI>
2.22087e+07

>  <Rbt.Current_Directory>
/home/fstefaniak/projects/zuza/docking/adenine/4XNR

>  <Rbt.Executable>
rbdock ($Id: //depot/dev/client3/rdock/2013.1/src/exe/rbdock.cxx#4 $)

>  <Rbt.Library>
libRbt.so (2013.1, Build901 2013/11/27)

>  <Rbt.Parameter_File>
/home/fstefaniak/progs/rDock//data/scripts/dock_solv.prm

>  <Rbt.Receptor>
4xnr.prm

>  <SCORE>
-49.5228

>  <SCORE.INTER>
-30.9191

>  <SCORE.INTER.CONST>
1

>  <SCORE.INTER.POLAR>
-6.5254

>  <SCORE.INTER.ROT>
2

>  <SCORE.INTER.SOLV>
21.5276

>  <SCORE.INTER.VDW>
-10.9706

>  <SCORE.INTER.norm>
-5.15319

>  <SCORE.INTRA>
1.72059

>  <SCORE.INTRA.DIHEDRAL>
-0.000846479

>  <SCORE.INTRA.DIHEDRAL.0>
1.6

>  <SCORE.INTRA.POLAR>
0

>  <SCORE.INTRA.POLAR.0>
0

>  <SCORE.INTRA.REPUL>
0

>  <SCORE.INTRA.REPUL.0>
0

>  <SCORE.INTRA.SOLV>
0.191221

>  <SCORE.INTRA.SOLV.lig_0>
-34.2898

>  <SCORE.INTRA.VDW>
1.6254

>  <SCORE.INTRA.VDW.0>
-0.316297

>  <SCORE.INTRA.norm>
0.286764

>  <SCORE.RESTR>
0

>  <SCORE.RESTR.CAVITY>
0

>  <SCORE.RESTR.norm>
0

>  <SCORE.SYSTEM>
-20.3243

>  <SCORE.SYSTEM.CONST>
0

>  <SCORE.SYSTEM.DIHEDRAL>
5.48011

>  <SCORE.SYSTEM.POLAR>
-3.09817

>  <SCORE.SYSTEM.SOLV>
0.306905

>  <SCORE.SYSTEM.VDW>
-5.15129

>  <SCORE.SYSTEM.norm>
-3.38738

>  <SCORE.heavy>
6

>  <SCORE.norm>
-8.2538

$$$$
P156450664
 OpenBabel12072022113D
libRbt.so/2013.1/901 2013/11/27
 17 17  0  0  0  0  0  0  0  0999 V2000
    1.8621   14.4758    4.1470 C   0  0  0  0  0  0  0  0  0  0  0  0
    1.7786   15.8568    3.9738 C   0  0  0  0  0  0  0  0  0  0  0  0
    2.9405   16.6086    3.7872 C   0  0  0  0  0  0  0  0  0  0  0  0
    4.1944   15.9811    3.7743 C   0  0  0  0  0  0  0  0  0  0  0  0
    4.2697   14.5923    3.9485 C   0  0  0  0  0  0  0  0  0  0  0  0
    3.1049   13.8436    4.1345 C   0  0  0  0  0  0  0  0  0  0  0  0
    5.4219   16.8085    3.5664 C   0  0  0  0  0  0  0  0  0  0  0  0
    6.0449   16.7078    2.5115 O   0  0  0  0  0  0  0  0  0  0  0  0
    5.7547   17.6569    4.5976 N   0  0  0  0  0  0  0  0  0  0  0  0
    6.7952   18.4196    4.4753 C   0  0  0  0  0  0  0  0  0  0  0  0
    7.6608   18.4980    3.4268 N   0  0  0  0  0  0  0  0  0  0  0  0
    7.1625   19.2997    5.4672 N   0  0  0  0  0  0  0  0  0  0  0  0
    8.2921   18.8802    6.1872 O   0  0  0  0  0  0  0  0  0  0  0  0
    8.4299   17.8291    3.5309 H   0  0  0  0  0  0  0  0  0  0  0  0
    7.2121   18.3573    2.5292 H   0  0  0  0  0  0  0  0  0  0  0  0
    7.2460   20.2599    5.1413 H   0  0  0  0  0  0  0  0  0  0  0  0
    7.9719   18.0669    6.6330 H   0  0  0  0  0  0  0  0  0  0  0  0
  1  2  2  0  0  0  0
  1  6  1  0  0  0  0
  2  3  1  0  0  0  0
  3  4  2  0  0  0  0
  4  5  1  0  0  0  0
  4  7  1  0  0  0  0
  5  6  2  0  0  0  0
  7  8  2  0  0  0  0
  7  9  1  0  0  0  0
  9 10  2  0  0  0  0
 10 11  1  0  0  0  0
 10 12  1  0  0  0  0
 11 14  1  0  0  0  0
 11 15  1  0  0  0  0
 12 13  1  0  0  0  0
 12 16  1  0  0  0  0
 13 17  1  0  0  0  0
M  END
>  <CHROM.0>
-57.20795434,-62.58147912,-63.35699012,-47.26413979,-57.43087406,59.11402691
-68.77306089,-58.39349474,-168.26558882

>  <CHROM.1>
-109.87539065,-178.88939906,-88.89906703,106.00883838,-65.25428635,5.17657904
16.84151385,4.17632137,2.68931777,-0.52368188,-2.08270656

>  <Name>
P156450664

>  <RI>
9.71178e+06

>  <Rbt.Current_Directory>
/home/fstefaniak/projects/zuza/docking/adenine/4XNR

>  <Rbt.Executable>
rbdock ($Id: //depot/dev/client3/rdock/2013.1/src/exe/rbdock.cxx#4 $)

>  <Rbt.Library>
libRbt.so (2013.1, Build901 2013/11/27)

>  <Rbt.Parameter_File>
/home/fstefaniak/progs/rDock//data/scripts/dock_solv.prm

>  <Rbt.Receptor>
4xnr.prm

>  <SCORE>
-60.942

>  <SCORE.INTER>
-43.2786

>  <SCORE.INTER.CONST>
1

>  <SCORE.INTER.POLAR>
-5.89205

>  <SCORE.INTER.ROT>
4

>  <SCORE.INTER.SOLV>
14.9857

>  <SCORE.INTER.VDW>
-20.4741

>  <SCORE.INTER.norm>
-3.32912

>  <SCORE.INTRA>
2.13323

>  <SCORE.INTRA.DIHEDRAL>
4.99183

>  <SCORE.INTRA.DIHEDRAL.0>
7.26783

>  <SCORE.INTRA.POLAR>
0.296375

>  <SCORE.INTRA.POLAR.0>
-0.296375

>  <SCORE.INTRA.REPUL>
0

>  <SCORE.INTRA.REPUL.0>
0

>  <SCORE.INTRA.SOLV>
0.147907

>  <SCORE.INTRA.SOLV.lig_0>
-22.1253

>  <SCORE.INTRA.VDW>
-1.44431

>  <SCORE.INTRA.VDW.0>
0.900418

>  <SCORE.INTRA.norm>
0.164095

>  <SCORE.RESTR>
0

>  <SCORE.RESTR.CAVITY>
0

>  <SCORE.RESTR.norm>
0

>  <SCORE.SYSTEM>
-19.7966

>  <SCORE.SYSTEM.CONST>
0

>  <SCORE.SYSTEM.DIHEDRAL>
4.00524

>  <SCORE.SYSTEM.POLAR>
-2.99857

>  <SCORE.SYSTEM.SOLV>
0.164635

>  <SCORE.SYSTEM.VDW>
-4.59249

>  <SCORE.SYSTEM.norm>
-1.52282

>  <SCORE.heavy>
13

>  <SCORE.norm>
-4.68784

$$$$
P156450664
 OpenBabel12072022113D
libRbt.so/2013.1/901 2013/11/27
 17 17  0  0  0  0  0  0  0  0999 V2000
    1.8659   14.3992    4.3012 C   0  0  0  0  0  0  0  0  0  0  0  0
    1.7408   15.7757    4.1174 C   0  0  0  0  0  0  0  0  0  0  0  0
    2.8758   16.5546    3.8824 C   0  0  0  0  0  0  0  0  0  0  0  0
    4.1441   15.9591    3.8313 C   0  0  0  0  0  0  0  0  0  0  0  0
    4.2613   14.5746    4.0165 C   0  0  0  0  0  0  0  0  0  0  0  0
    3.1234   13.7986    4.2509 C   0  0  0  0  0  0  0  0  0  0  0  0
    5.3419   16.8151    3.5720 C   0  0  0  0  0  0  0  0  0  0  0  0
    5.9193   16.7316    2.4899 O   0  0  0  0  0  0  0  0  0  0  0  0
    5.7009   17.6681    4.5904 N   0  0  0  0  0  0  0  0  0  0  0  0
    6.7453   18.4210    4.4431 C   0  0  0  0  0  0  0  0  0  0  0  0
    7.5919   18.4844    3.3782 N   0  0  0  0  0  0  0  0  0  0  0  0
    7.1384   19.3053    5.4214 N   0  0  0  0  0  0  0  0  0  0  0  0
    8.2659   18.8720    6.1366 O   0  0  0  0  0  0  0  0  0  0  0  0
    8.3777   17.8367    3.4910 H   0  0  0  0  0  0  0  0  0  0  0  0
    7.1321   18.3043    2.4933 H   0  0  0  0  0  0  0  0  0  0  0  0
    7.2378   20.2597    5.0835 H   0  0  0  0  0  0  0  0  0  0  0  0
    7.9315   18.0750    6.6011 H   0  0  0  0  0  0  0  0  0  0  0  0
  1  2  2  0  0  0  0
  1  6  1  0  0  0  0
  2  3  1  0  0  0  0
  3  4  2  0  0  0  0
  4  5  1  0  0  0  0
  4  7  1  0  0  0  0
  5  6  2  0  0  0  0
  7  8  2  0  0  0  0
  7  9  1  0  0  0  0
  9 10  2  0  0  0  0
 10 11  1  0  0  0  0
 10 12  1  0  0  0  0
 11 14  1  0  0  0  0
 11 15  1  0  0  0  0
 12 13  1  0  0  0  0
 12 16  1  0  0  0  0
 13 17  1  0  0  0  0
M  END
>  <CHROM.0>
-63.27532403,-54.75420580,-64.21125283,-45.41561032,-60.09299394,58.57046346
-68.71552504,-177.74041232,-168.10938506

>  <CHROM.1>
-108.91791952,178.69432204,-91.20205995,105.11901778,-65.74542728,5.13201003
16.82206593,4.20499452,2.74217183,-0.56834972,-2.02158111

>  <Name>
P156450664

>  <RI>
9.71178e+06

>  <Rbt.Current_Directory>
/home/fstefaniak/projects/zuza/docking/adenine/4XNR

>  <Rbt.Executable>
rbdock ($Id: //depot/dev/client3/rdock/2013.1/src/exe/rbdock.cxx#4 $)

>  <Rbt.Library>
libRbt.so (2013.1, Build901 2013/11/27)

>  <Rbt.Parameter_File>
/home/fstefaniak/progs/rDock//data/scripts/dock_solv.prm

>  <Rbt.Receptor>
4xnr.prm

>  <SCORE>
-60.7562

>  <SCORE.INTER>
-43.4167

>  <SCORE.INTER.CONST>
1

>  <SCORE.INTER.POLAR>
-5.86952

>  <SCORE.INTER.ROT>
4

>  <SCORE.INTER.SOLV>
15.006

>  <SCORE.INTER.VDW>
-20.648

>  <SCORE.INTER.norm>
-3.33974

>  <SCORE.INTRA>
2.22282

>  <SCORE.INTRA.DIHEDRAL>
5.17635

>  <SCORE.INTRA.DIHEDRAL.0>
7.26783

>  <SCORE.INTRA.POLAR>
0.296375

>  <SCORE.INTRA.POLAR.0>
-0.296375

>  <SCORE.INTRA.REPUL>
0

>  <SCORE.INTRA.REPUL.0>
0

>  <SCORE.INTRA.SOLV>
0.14882

>  <SCORE.INTRA.SOLV.lig_0>
-22.1253

>  <SCORE.INTRA.VDW>
-1.44744

>  <SCORE.INTRA.VDW.0>
0.900418

>  <SCORE.INTRA.norm>
0.170986

>  <SCORE.RESTR>
0

>  <SCORE.RESTR.CAVITY>
0

>  <SCORE.RESTR.norm>
0

>  <SCORE.SYSTEM>
-19.5624

>  <SCORE.SYSTEM.CONST>
0

>  <SCORE.SYSTEM.DIHEDRAL>
4.36876

>  <SCORE.SYSTEM.POLAR>
-2.98525

>  <SCORE.SYSTEM.SOLV>
0.0221992

>  <SCORE.SYSTEM.VDW>
-4.55439

>  <SCORE.SYSTEM.norm>
-1.5048

>  <SCORE.heavy>
13

>  <SCORE.norm>
-4.67356

$$$$
P156450664
 OpenBabel12072022113D
libRbt.so/2013.1/901 2013/11/27
 17 17  0  0  0  0  0  0  0  0999 V2000
    1.8696   14.4862    4.2718 C   0  0  0  0  0  0  0  0  0  0  0  0
    1.8248   15.8714    4.1193 C   0  0  0  0  0  0  0  0  0  0  0  0
    3.0026   16.5877    3.8957 C   0  0  0  0  0  0  0  0  0  0  0  0
    4.2336   15.9202    3.8248 C   0  0  0  0  0  0  0  0  0  0  0  0
    4.2700   14.5275    3.9785 C   0  0  0  0  0  0  0  0  0  0  0  0
    3.0896   13.8143    4.2016 C   0  0  0  0  0  0  0  0  0  0  0  0
    5.4785   16.7102    3.5782 C   0  0  0  0  0  0  0  0  0  0  0  0
    6.1199   16.5178    2.5474 O   0  0  0  0  0  0  0  0  0  0  0  0
    5.8054   17.6315    4.5467 N   0  0  0  0  0  0  0  0  0  0  0  0
    6.8179   18.4169    4.3533 C   0  0  0  0  0  0  0  0  0  0  0  0
    7.6583   18.4560    3.2823 N   0  0  0  0  0  0  0  0  0  0  0  0
    7.1775   19.3685    5.2799 N   0  0  0  0  0  0  0  0  0  0  0  0
    8.2371   18.9622    6.1060 O   0  0  0  0  0  0  0  0  0  0  0  0
    8.4567   17.8279    3.4152 H   0  0  0  0  0  0  0  0  0  0  0  0
    7.1979   18.2340    2.4073 H   0  0  0  0  0  0  0  0  0  0  0  0
    7.3353   20.2869    4.8716 H   0  0  0  0  0  0  0  0  0  0  0  0
    7.8747   18.1605    6.5404 H   0  0  0  0  0  0  0  0  0  0  0  0
  1  2  2  0  0  0  0
  1  6  1  0  0  0  0
  2  3  1  0  0  0  0
  3  4  2  0  0  0  0
  4  5  1  0  0  0  0
  4  7  1  0  0  0  0
  5  6  2  0  0  0  0
  7  8  2  0  0  0  0
  7  9  1  0  0  0  0
  9 10  2  0  0  0  0
 10 11  1  0  0  0  0
 10 12  1  0  0  0  0
 11 14  1  0  0  0  0
 11 15  1  0  0  0  0
 12 13  1  0  0  0  0
 12 16  1  0  0  0  0
 13 17  1  0  0  0  0
M  END
>  <CHROM.0>
-56.64497968,-60.57255694,62.53399181,-46.89150698,-58.28732477,-62.15742221
53.46655997,-59.47934834,-168.20930693

>  <CHROM.1>
-116.19978503,-175.14736996,-89.62252144,98.87447763,-59.94592343,5.19860001
16.81457758,4.16956904,2.64752722,-0.49171338,-2.22377737

>  <Name>
P156450664

>  <RI>
9.71178e+06

>  <Rbt.Current_Directory>
/home/fstefaniak/projects/zuza/docking/adenine/4XNR

>  <Rbt.Executable>
rbdock ($Id: //depot/dev/client3/rdock/2013.1/src/exe/rbdock.cxx#4 $)

>  <Rbt.Library>
libRbt.so (2013.1, Build901 2013/11/27)

>  <Rbt.Parameter_File>
/home/fstefaniak/progs/rDock//data/scripts/dock_solv.prm

>  <Rbt.Receptor>
4xnr.prm

>  <SCORE>
-60.0092

>  <SCORE.INTER>
-42.8649

>  <SCORE.INTER.CONST>
1

>  <SCORE.INTER.POLAR>
-5.85308

>  <SCORE.INTER.ROT>
4

>  <SCORE.INTER.SOLV>
15.4967

>  <SCORE.INTER.VDW>
-20.4986

>  <SCORE.INTER.norm>
-3.2973

>  <SCORE.INTRA>
1.79208

>  <SCORE.INTRA.DIHEDRAL>
4.18497

>  <SCORE.INTRA.DIHEDRAL.0>
7.26783

>  <SCORE.INTRA.POLAR>
0.296375

>  <SCORE.INTRA.POLAR.0>
-0.296375

>  <SCORE.INTRA.REPUL>
0

>  <SCORE.INTRA.REPUL.0>
0

>  <SCORE.INTRA.SOLV>
0.141781

>  <SCORE.INTRA.SOLV.lig_0>
-22.1253

>  <SCORE.INTRA.VDW>
-1.37897

>  <SCORE.INTRA.VDW.0>
0.900418

>  <SCORE.INTRA.norm>
0.137852

>  <SCORE.RESTR>
0

>  <SCORE.RESTR.CAVITY>
0

>  <SCORE.RESTR.norm>
0

>  <SCORE.SYSTEM>
-18.9364

>  <SCORE.SYSTEM.CONST>
0

>  <SCORE.SYSTEM.DIHEDRAL>
3.85485

>  <SCORE.SYSTEM.POLAR>
-2.98927

>  <SCORE.SYSTEM.SOLV>
0.194638

>  <SCORE.SYSTEM.VDW>
-4.00987

>  <SCORE.SYSTEM.norm>
-1.45665

>  <SCORE.heavy>
13

>  <SCORE.norm>
-4.61609

$$$$
P20462346
 OpenBabel12072022113D
libRbt.so/2013.1/901 2013/11/27
 11 11  0  0  0  0  0  0  0  0999 V2000
    3.4050   13.6502    5.1372 C   0  0  0  0  0  0  0  0  0  0  0  0
    2.7277   13.8698    3.7876 C   0  0  1  0  0  0  0  0  0  0  0  0
    1.2055   14.0695    3.8886 C   0  0  1  0  0  0  0  0  0  0  0  0
    0.8475   15.4492    4.4367 C   0  0  0  0  0  0  0  0  0  0  0  0
    1.6014   16.5452    3.6919 C   0  0  0  0  0  0  0  0  0  0  0  0
    3.0982   16.2475    3.6184 C   0  0  1  0  0  0  0  0  0  0  0  0
    3.3271   14.9537    3.0611 O   0  0  0  0  0  0  0  0  0  0  0  0
    3.6827   17.2542    2.7918 O   0  0  0  0  0  0  0  0  0  0  0  0
    5.0992   17.2753    2.8965 C   0  0  0  0  0  0  0  0  0  0  0  0
    0.6333   13.9481    2.5805 O   0  0  0  0  0  0  0  0  0  0  0  0
   -0.3172   14.1576    2.6641 H   0  0  0  0  0  0  0  0  0  0  0  0
  2  1  1  1  0  0  0
  2  7  1  0  0  0  0
  2  3  1  0  0  0  0
  3  4  1  0  0  0  0
  3 10  1  6  0  0  0
  4  5  1  0  0  0  0
  5  6  1  0  0  0  0
  6  7  1  0  0  0  0
  6  8  1  6  0  0  0
  8  9  1  0  0  0  0
 10 11  1  0  0  0  0
M  END
>  <CHROM.0>
-55.68654327,-176.81959922,-73.10193714,-45.97301054,-177.80614640,-175.06586154
-174.84835521,-62.41600800,-168.18020606

>  <CHROM.1>
-175.06556980,166.21223292,2.57012216,15.33483191,3.55340439,-2.35794892
-0.14017132,-0.37937137

>  <Name>
P20462346

>  <RI>
4.17015e+07

>  <Rbt.Current_Directory>
/home/fstefaniak/projects/zuza/docking/adenine/4XNR

>  <Rbt.Executable>
rbdock ($Id: //depot/dev/client3/rdock/2013.1/src/exe/rbdock.cxx#4 $)

>  <Rbt.Library>
libRbt.so (2013.1, Build901 2013/11/27)

>  <Rbt.Parameter_File>
/home/fstefaniak/progs/rDock//data/scripts/dock_solv.prm

>  <Rbt.Receptor>
4xnr.prm

>  <SCORE>
-43.7281

>  <SCORE.INTER>
-23.0613

>  <SCORE.INTER.CONST>
1

>  <SCORE.INTER.POLAR>
-2.60607

>  <SCORE.INTER.ROT>
1

>  <SCORE.INTER.SOLV>
7.42793

>  <SCORE.INTER.VDW>
-13.43

>  <SCORE.INTER.norm>
-2.30613

>  <SCORE.INTRA>
-0.668752

>  <SCORE.INTRA.DIHEDRAL>
-0.775711

>  <SCORE.INTRA.DIHEDRAL.0>
1.80358

>  <SCORE.INTRA.POLAR>
0.00752285

>  <SCORE.INTRA.POLAR.0>
-0.00752285

>  <SCORE.INTRA.REPUL>
0

>  <SCORE.INTRA.REPUL.0>
0

>  <SCORE.INTRA.SOLV>
0.0182984

>  <SCORE.INTRA.SOLV.lig_0>
-7.94252

>  <SCORE.INTRA.VDW>
-0.315623

>  <SCORE.INTRA.VDW.0>
0.64276

>  <SCORE.INTRA.norm>
-0.0668752

>  <SCORE.RESTR>
0

>  <SCORE.RESTR.CAVITY>
0

>  <SCORE.RESTR.norm>
0

>  <SCORE.SYSTEM>
-19.9981

>  <SCORE.SYSTEM.CONST>
0

>  <SCORE.SYSTEM.DIHEDRAL>
4.82237

>  <SCORE.SYSTEM.POLAR>
-3.00507

>  <SCORE.SYSTEM.SOLV>
-0.0730858

>  <SCORE.SYSTEM.VDW>
-4.89823

>  <SCORE.SYSTEM.norm>
-1.99981

>  <SCORE.heavy>
10

>  <SCORE.norm>
-4.37281

$$$$
P20462346
 OpenBabel12072022113D
libRbt.so/2013.1/901 2013/11/27
 11 11  0  0  0  0  0  0  0  0999 V2000
    3.3932   13.6548    5.1748 C   0  0  0  0  0  0  0  0  0  0  0  0
    2.7312   13.8568    3.8149 C   0  0  1  0  0  0  0  0  0  0  0  0
    1.2087   14.0630    3.8967 C   0  0  1  0  0  0  0  0  0  0  0  0
    0.8497   15.4519    4.4206 C   0  0  0  0  0  0  0  0  0  0  0  0
    1.6154   16.5343    3.6680 C   0  0  0  0  0  0  0  0  0  0  0  0
    3.1118   16.2305    3.6150 C   0  0  1  0  0  0  0  0  0  0  0  0
    3.3422   14.9279    3.0791 O   0  0  0  0  0  0  0  0  0  0  0  0
    3.7086   17.2230    2.7801 O   0  0  0  0  0  0  0  0  0  0  0  0
    5.1203   17.2705    2.9321 C   0  0  0  0  0  0  0  0  0  0  0  0
    0.6501   13.9244    2.5843 O   0  0  0  0  0  0  0  0  0  0  0  0
   -0.2957   14.1597    2.6504 H   0  0  0  0  0  0  0  0  0  0  0  0
  2  1  1  1  0  0  0
  2  7  1  0  0  0  0
  2  3  1  0  0  0  0
  3  4  1  0  0  0  0
  3 10  1  6  0  0  0
  4  5  1  0  0  0  0
  5  6  1  0  0  0  0
  6  7  1  0  0  0  0
  6  8  1  6  0  0  0
  8  9  1  0  0  0  0
 10 11  1  0  0  0  0
M  END
>  <CHROM.0>
-58.38859090,-177.19312648,-67.92448415,-47.88364761,-176.35721045,57.83840850
-67.45060057,-59.90227901,-168.30832700

>  <CHROM.1>
-173.69768652,164.29457277,2.58091178,15.32195314,3.56098205,-2.36360323
-0.15447454,-0.39312978

>  <Name>
P20462346

>  <RI>
4.17015e+07

>  <Rbt.Current_Directory>
/home/fstefaniak/projects/zuza/docking/adenine/4XNR

>  <Rbt.Executable>
rbdock ($Id: //depot/dev/client3/rdock/2013.1/src/exe/rbdock.cxx#4 $)

>  <Rbt.Library>
libRbt.so (2013.1, Build901 2013/11/27)

>  <Rbt.Parameter_File>
/home/fstefaniak/progs/rDock//data/scripts/dock_solv.prm

>  <Rbt.Receptor>
4xnr.prm

>  <SCORE>
-43.429

>  <SCORE.INTER>
-23.2008

>  <SCORE.INTER.CONST>
1

>  <SCORE.INTER.POLAR>
-2.60122

>  <SCORE.INTER.ROT>
1

>  <SCORE.INTER.SOLV>
7.394

>  <SCORE.INTER.VDW>
-13.5278

>  <SCORE.INTER.norm>
-2.32008

>  <SCORE.INTRA>
-0.520346

>  <SCORE.INTRA.DIHEDRAL>
-0.449136

>  <SCORE.INTRA.DIHEDRAL.0>
1.80358

>  <SCORE.INTRA.POLAR>
0.00752285

>  <SCORE.INTRA.POLAR.0>
-0.00752285

>  <SCORE.INTRA.REPUL>
0

>  <SCORE.INTRA.REPUL.0>
0

>  <SCORE.INTRA.SOLV>
0.0156679

>  <SCORE.INTRA.SOLV.lig_0>
-7.94252

>  <SCORE.INTRA.VDW>
-0.329189

>  <SCORE.INTRA.VDW.0>
0.64276

>  <SCORE.INTRA.norm>
-0.0520346

>  <SCORE.RESTR>
0

>  <SCORE.RESTR.CAVITY>
0

>  <SCORE.RESTR.norm>
0

>  <SCORE.SYSTEM>
-19.7078

>  <SCORE.SYSTEM.CONST>
0

>  <SCORE.SYSTEM.DIHEDRAL>
4.08637

>  <SCORE.SYSTEM.POLAR>
-2.96533

>  <SCORE.SYSTEM.SOLV>
-0.0411652

>  <SCORE.SYSTEM.VDW>
-4.60249

>  <SCORE.SYSTEM.norm>
-1.97078

>  <SCORE.heavy>
10

>  <SCORE.norm>
-4.3429

$$$$
P20462346
 OpenBabel12072022113D
libRbt.so/2013.1/901 2013/11/27
 11 11  0  0  0  0  0  0  0  0999 V2000
    3.4357   13.5732    5.0238 C   0  0  0  0  0  0  0  0  0  0  0  0
    2.7284   13.8353    3.6974 C   0  0  1  0  0  0  0  0  0  0  0  0
    1.2091   14.0326    3.8389 C   0  0  1  0  0  0  0  0  0  0  0  0
    0.8653   15.3947    4.4378 C   0  0  0  0  0  0  0  0  0  0  0  0
    1.6037   16.5130    3.7108 C   0  0  0  0  0  0  0  0  0  0  0  0
    3.0980   16.2169    3.5943 C   0  0  1  0  0  0  0  0  0  0  0  0
    3.3127   14.9410    2.9917 O   0  0  0  0  0  0  0  0  0  0  0  0
    3.6651   17.2486    2.7866 O   0  0  0  0  0  0  0  0  0  0  0  0
    5.0804   17.2973    2.8980 C   0  0  0  0  0  0  0  0  0  0  0  0
    0.6075   13.9525    2.5408 O   0  0  0  0  0  0  0  0  0  0  0  0
   -0.3397   14.1646    2.6516 H   0  0  0  0  0  0  0  0  0  0  0  0
  2  1  1  1  0  0  0
  2  7  1  0  0  0  0
  2  3  1  0  0  0  0
  3  4  1  0  0  0  0
  3 10  1  6  0  0  0
  4  5  1  0  0  0  0
  5  6  1  0  0  0  0
  6  7  1  0  0  0  0
  6  8  1  6  0  0  0
  8  9  1  0  0  0  0
 10 11  1  0  0  0  0
M  END
>  <CHROM.0>
-57.82113325,-63.73787685,-73.73144155,-46.56675700,-57.80359503,60.77859260
-171.20721890,-59.02421268,-168.41364981

>  <CHROM.1>
-174.76114672,164.04944609,2.56715624,15.31031192,3.51663455,-2.34890486
-0.12512813,-0.34481246

>  <Name>
P20462346

>  <RI>
4.17015e+07

>  <Rbt.Current_Directory>
/home/fstefaniak/projects/zuza/docking/adenine/4XNR

>  <Rbt.Executable>
rbdock ($Id: //depot/dev/client3/rdock/2013.1/src/exe/rbdock.cxx#4 $)

>  <Rbt.Library>
libRbt.so (2013.1, Build901 2013/11/27)

>  <Rbt.Parameter_File>
/home/fstefaniak/progs/rDock//data/scripts/dock_solv.prm

>  <Rbt.Receptor>
4xnr.prm

>  <SCORE>
-42.4756

>  <SCORE.INTER>
-22.6959

>  <SCORE.INTER.CONST>
1

>  <SCORE.INTER.POLAR>
-2.64189

>  <SCORE.INTER.ROT>
1

>  <SCORE.INTER.SOLV>
7.4087

>  <SCORE.INTER.VDW>
-13.0605

>  <SCORE.INTER.norm>
-2.26959

>  <SCORE.INTRA>
-0.566361

>  <SCORE.INTRA.DIHEDRAL>
-0.474556

>  <SCORE.INTRA.DIHEDRAL.0>
1.80358

>  <SCORE.INTRA.POLAR>
0.00752285

>  <SCORE.INTRA.POLAR.0>
-0.00752285

>  <SCORE.INTRA.REPUL>
0

>  <SCORE.INTRA.REPUL.0>
0

>  <SCORE.INTRA.SOLV>
0.0163113

>  <SCORE.INTRA.SOLV.lig_0>
-7.94252

>  <SCORE.INTRA.VDW>
-0.362816

>  <SCORE.INTRA.VDW.0>
0.64276

>  <SCORE.INTRA.norm>
-0.0566361

>  <SCORE.RESTR>
0

>  <SCORE.RESTR.CAVITY>
0

>  <SCORE.RESTR.norm>
0

>  <SCORE.SYSTEM>
-19.2133

>  <SCORE.SYSTEM.CONST>
0

>  <SCORE.SYSTEM.DIHEDRAL>
4.85109

>  <SCORE.SYSTEM.POLAR>
-2.97437

>  <SCORE.SYSTEM.SOLV>
0.104563

>  <SCORE.SYSTEM.VDW>
-4.54621

>  <SCORE.SYSTEM.norm>
-1.92133

>  <SCORE.heavy>
10

>  <SCORE.norm>
-4.24756

$$$$
P20855218
 OpenBabel12072022113D
libRbt.so/2013.1/901 2013/11/27
 12 12  0  0  0  0  0  0  0  0999 V2000
    7.2878   19.1762    5.7925 C   0  0  0  0  0  0  0  0  0  0  0  0
    6.1378   19.0076    4.8093 C   0  0  2  0  0  0  0  0  0  0  0  0
    5.7555   17.5412    4.5918 C   0  0  2  0  0  0  0  0  0  0  0  0
    6.6130   17.1708    3.3990 C   0  0  2  0  0  0  0  0  0  0  0  0
    6.5503   18.4637    2.5789 C   0  0  1  0  0  0  0  0  0  0  0  0
    6.5683   19.5301    3.5350 O   0  0  0  0  0  0  0  0  0  0  0  0
    7.6462   18.5697    1.6851 O   0  0  0  0  0  0  0  0  0  0  0  0
    6.1180   16.0381    2.6930 O   0  0  0  0  0  0  0  0  0  0  0  0
    4.3778   17.4080    4.2003 O   0  0  0  0  0  0  0  0  0  0  0  0
    7.5718   17.8284    1.0602 H   0  0  0  0  0  0  0  0  0  0  0  0
    6.2700   15.2787    3.2944 H   0  0  0  0  0  0  0  0  0  0  0  0
    3.8518   17.3043    5.0144 H   0  0  0  0  0  0  0  0  0  0  0  0
  2  6  1  0  0  0  0
  2  1  1  1  0  0  0
  2  3  1  0  0  0  0
  3  9  1  6  0  0  0
  3  4  1  0  0  0  0
  4  8  1  6  0  0  0
  4  5  1  0  0  0  0
  5  6  1  0  0  0  0
  5  7  1  6  0  0  0
  7 10  1  0  0  0  0
  8 11  1  0  0  0  0
  9 12  1  0  0  0  0
M  END
>  <CHROM.0>
-55.56093666,-60.89009750,-65.39960760,-47.90063796,-174.58790496,-63.96538104
-66.17324995,-59.36246692,-167.93819006

>  <CHROM.1>
-90.52874206,-69.89810786,63.10170775,6.32930771,18.06848929,3.65727731,-1.65286018
-0.83373138,-2.18750540

>  <Name>
P20855218

>  <RI>
3.51561e+07

>  <Rbt.Current_Directory>
/home/fstefaniak/projects/zuza/docking/adenine/4XNR

>  <Rbt.Executable>
rbdock ($Id: //depot/dev/client3/rdock/2013.1/src/exe/rbdock.cxx#4 $)

>  <Rbt.Library>
libRbt.so (2013.1, Build901 2013/11/27)

>  <Rbt.Parameter_File>
/home/fstefaniak/progs/rDock//data/scripts/dock_solv.prm

>  <Rbt.Receptor>
4xnr.prm

>  <SCORE>
-57.5587

>  <SCORE.INTER>
-34.8759

>  <SCORE.INTER.CONST>
1

>  <SCORE.INTER.POLAR>
-4.74871

>  <SCORE.INTER.ROT>
0

>  <SCORE.INTER.SOLV>
12.9007

>  <SCORE.INTER.VDW>
-15.3218

>  <SCORE.INTER.norm>
-3.8751

>  <SCORE.INTRA>
-1.74327

>  <SCORE.INTRA.DIHEDRAL>
-3.65408

>  <SCORE.INTRA.DIHEDRAL.0>
7.99085

>  <SCORE.INTRA.POLAR>
0.341765

>  <SCORE.INTRA.POLAR.0>
-0.341765

>  <SCORE.INTRA.REPUL>
0

>  <SCORE.INTRA.REPUL.0>
0

>  <SCORE.INTRA.SOLV>
-0.0449329

>  <SCORE.INTRA.SOLV.lig_0>
-16.441

>  <SCORE.INTRA.VDW>
-1.05577

>  <SCORE.INTRA.VDW.0>
0.796924

>  <SCORE.INTRA.norm>
-0.193697

>  <SCORE.RESTR>
0

>  <SCORE.RESTR.CAVITY>
0

>  <SCORE.RESTR.norm>
0

>  <SCORE.SYSTEM>
-20.9395

>  <SCORE.SYSTEM.CONST>
0

>  <SCORE.SYSTEM.DIHEDRAL>
4.06102

>  <SCORE.SYSTEM.POLAR>
-2.99579

>  <SCORE.SYSTEM.SOLV>
0.11538

>  <SCORE.SYSTEM.VDW>
-5.36586

>  <SCORE.SYSTEM.norm>
-2.32662

>  <SCORE.heavy>
9

>  <SCORE.norm>
-6.39541

$$$$
P20855218
 OpenBabel12072022113D
libRbt.so/2013.1/901 2013/11/27
 12 12  0  0  0  0  0  0  0  0999 V2000
    7.3324   19.2145    5.7358 C   0  0  0  0  0  0  0  0  0  0  0  0
    6.1630   19.0236    4.7799 C   0  0  2  0  0  0  0  0  0  0  0  0
    5.8077   17.5498    4.5666 C   0  0  2  0  0  0  0  0  0  0  0  0
    6.6442   17.2019    3.3523 C   0  0  2  0  0  0  0  0  0  0  0  0
    6.5335   18.4954    2.5384 C   0  0  1  0  0  0  0  0  0  0  0  0
    6.5511   19.5592    3.4975 O   0  0  0  0  0  0  0  0  0  0  0  0
    7.6050   18.6281    1.6189 O   0  0  0  0  0  0  0  0  0  0  0  0
    6.1573   16.0607    2.6544 O   0  0  0  0  0  0  0  0  0  0  0  0
    4.4243   17.3875    4.2078 O   0  0  0  0  0  0  0  0  0  0  0  0
    7.5363   17.8829    0.9981 H   0  0  0  0  0  0  0  0  0  0  0  0
    6.3342   15.3038    3.2523 H   0  0  0  0  0  0  0  0  0  0  0  0
    3.9153   17.3107    5.0355 H   0  0  0  0  0  0  0  0  0  0  0  0
  2  6  1  0  0  0  0
  2  1  1  1  0  0  0
  2  3  1  0  0  0  0
  3  9  1  6  0  0  0
  3  4  1  0  0  0  0
  4  8  1  6  0  0  0
  4  5  1  0  0  0  0
  5  6  1  0  0  0  0
  5  7  1  6  0  0  0
  7 10  1  0  0  0  0
  8 11  1  0  0  0  0
  9 12  1  0  0  0  0
M  END
>  <CHROM.0>
-55.24850456,-61.71548731,-69.76663645,-45.14184875,-63.93038075,-63.79284756
-67.08484537,-64.23797927,-168.25816755

>  <CHROM.1>
-87.99469826,-69.48491612,62.61602902,6.34719310,18.09259039,3.62046437,-1.64323752
-0.86508674,-2.17657038

>  <Name>
P20855218

>  <RI>
3.51561e+07

>  <Rbt.Current_Directory>
/home/fstefaniak/projects/zuza/docking/adenine/4XNR

>  <Rbt.Executable>
rbdock ($Id: //depot/dev/client3/rdock/2013.1/src/exe/rbdock.cxx#4 $)

>  <Rbt.Library>
libRbt.so (2013.1, Build901 2013/11/27)

>  <Rbt.Parameter_File>
/home/fstefaniak/progs/rDock//data/scripts/dock_solv.prm

>  <Rbt.Receptor>
4xnr.prm

>  <SCORE>
-57.4787

>  <SCORE.INTER>
-34.614

>  <SCORE.INTER.CONST>
1

>  <SCORE.INTER.POLAR>
-4.77537

>  <SCORE.INTER.ROT>
0

>  <SCORE.INTER.SOLV>
12.9312

>  <SCORE.INTER.VDW>
-15.0685

>  <SCORE.INTER.norm>
-3.846

>  <SCORE.INTRA>
-1.97556

>  <SCORE.INTRA.DIHEDRAL>
-4.14603

>  <SCORE.INTRA.DIHEDRAL.0>
7.99085

>  <SCORE.INTRA.POLAR>
0.341765

>  <SCORE.INTRA.POLAR.0>
-0.341765

>  <SCORE.INTRA.REPUL>
0

>  <SCORE.INTRA.REPUL.0>
0

>  <SCORE.INTRA.SOLV>
-0.0477924

>  <SCORE.INTRA.SOLV.lig_0>
-16.441

>  <SCORE.INTRA.VDW>
-1.04065

>  <SCORE.INTRA.VDW.0>
0.796924

>  <SCORE.INTRA.norm>
-0.219507

>  <SCORE.RESTR>
0

>  <SCORE.RESTR.CAVITY>
0

>  <SCORE.RESTR.norm>
0

>  <SCORE.SYSTEM>
-20.8892

>  <SCORE.SYSTEM.CONST>
0

>  <SCORE.SYSTEM.DIHEDRAL>
4.73933

>  <SCORE.SYSTEM.POLAR>
-3.03331

>  <SCORE.SYSTEM.SOLV>
0.270584

>  <SCORE.SYSTEM.VDW>
-5.48505

>  <SCORE.SYSTEM.norm>
-2.32102

>  <SCORE.heavy>
9

>  <SCORE.norm>
-6.38652

$$$$
P20855218
 OpenBabel12072022113D
libRbt.so/2013.1/901 2013/11/27
 12 12  0  0  0  0  0  0  0  0999 V2000
    5.5381   16.2773    3.3557 C   0  0  0  0  0  0  0  0  0  0  0  0
    5.4882   17.7771    3.6123 C   0  0  2  0  0  0  0  0  0  0  0  0
    6.8795   18.3983    3.7625 C   0  0  2  0  0  0  0  0  0  0  0  0
    7.0962   18.3153    5.2596 C   0  0  2  0  0  0  0  0  0  0  0  0
    5.6869   18.6202    5.7781 C   0  0  1  0  0  0  0  0  0  0  0  0
    4.7902   17.9874    4.8576 O   0  0  0  0  0  0  0  0  0  0  0  0
    5.4941   18.1227    7.0920 O   0  0  0  0  0  0  0  0  0  0  0  0
    8.0743   19.2374    5.7282 O   0  0  0  0  0  0  0  0  0  0  0  0
    6.8784   19.7890    3.3954 O   0  0  0  0  0  0  0  0  0  0  0  0
    6.0907   18.6248    7.6729 H   0  0  0  0  0  0  0  0  0  0  0  0
    7.8106   20.1016    5.3472 H   0  0  0  0  0  0  0  0  0  0  0  0
    6.2325   20.2415    3.9683 H   0  0  0  0  0  0  0  0  0  0  0  0
  2  6  1  0  0  0  0
  2  1  1  1  0  0  0
  2  3  1  0  0  0  0
  3  9  1  1  0  0  0
  3  4  1  0  0  0  0
  4  8  1  1  0  0  0
  4  5  1  0  0  0  0
  5  6  1  0  0  0  0
  5  7  1  1  0  0  0
  7 10  1  0  0  0  0
  8 11  1  0  0  0  0
  9 12  1  0  0  0  0
M  END
>  <CHROM.0>
-47.73487422,-175.19005385,-66.13168513,-46.47550504,-58.60247572,-62.21844204
-67.63291238,-59.50117119,-168.34450526

>  <CHROM.1>
58.34025639,50.11758014,65.71860636,6.22349336,18.32619637,4.80456624,2.15017863
-0.72051217,-1.73512970

>  <Name>
P20855218

>  <RI>
3.51561e+07

>  <Rbt.Current_Directory>
/home/fstefaniak/projects/zuza/docking/adenine/4XNR

>  <Rbt.Executable>
rbdock ($Id: //depot/dev/client3/rdock/2013.1/src/exe/rbdock.cxx#4 $)

>  <Rbt.Library>
libRbt.so (2013.1, Build901 2013/11/27)

>  <Rbt.Parameter_File>
/home/fstefaniak/progs/rDock//data/scripts/dock_solv.prm

>  <Rbt.Receptor>
4xnr.prm

>  <SCORE>
-56.6805

>  <SCORE.INTER>
-33.8543

>  <SCORE.INTER.CONST>
1

>  <SCORE.INTER.POLAR>
-5.16634

>  <SCORE.INTER.ROT>
0

>  <SCORE.INTER.SOLV>
14.2317

>  <SCORE.INTER.VDW>
-13.6923

>  <SCORE.INTER.norm>
-3.76158

>  <SCORE.INTRA>
-2.38811

>  <SCORE.INTRA.DIHEDRAL>
-6.95762

>  <SCORE.INTRA.DIHEDRAL.0>
7.99085

>  <SCORE.INTRA.POLAR>
0.341765

>  <SCORE.INTRA.POLAR.0>
-0.341765

>  <SCORE.INTRA.REPUL>
0

>  <SCORE.INTRA.REPUL.0>
0

>  <SCORE.INTRA.SOLV>
0.0861696

>  <SCORE.INTRA.SOLV.lig_0>
-16.441

>  <SCORE.INTRA.VDW>
-0.114383

>  <SCORE.INTRA.VDW.0>
0.796924

>  <SCORE.INTRA.norm>
-0.265345

>  <SCORE.RESTR>
0

>  <SCORE.RESTR.CAVITY>
0

>  <SCORE.RESTR.norm>
0

>  <SCORE.SYSTEM>
-20.4381

>  <SCORE.SYSTEM.CONST>
0

>  <SCORE.SYSTEM.DIHEDRAL>
4.82091

>  <SCORE.SYSTEM.POLAR>
-3.08553

>  <SCORE.SYSTEM.SOLV>
0.278552

>  <SCORE.SYSTEM.VDW>
-5.04015

>  <SCORE.SYSTEM.norm>
-2.2709

>  <SCORE.heavy>
9

>  <SCORE.norm>
-6.29783

$$$$
P21190230
 OpenBabel12072022113D
libRbt.so/2013.1/901 2013/11/27
 13 13  0  0  0  0  0  0  0  0999 V2000
    4.3931   16.0241    3.4265 C   0  0  0  0  0  0  0  0  0  0  0  0
    5.0235   17.4116    3.2968 C   0  0  1  0  0  0  0  0  0  0  0  0
    6.0025   17.6743    4.4147 C   0  0  0  0  0  0  0  0  0  0  0  0
    6.0948   19.0471    5.0365 C   0  0  0  0  0  0  0  0  0  0  0  0
    5.5150   17.9062    5.8244 C   0  0  0  0  0  0  0  0  0  0  0  0
    5.6828   17.5899    2.0002 N   0  0  0  0  0  0  0  0  0  0  0  0
    6.7829   18.4048    1.8451 C   0  0  0  0  0  0  0  0  0  0  0  0
    7.0062   19.4387    2.4603 O   0  0  0  0  0  0  0  0  0  0  0  0
    7.6655   17.9470    0.9049 N   0  0  0  0  0  0  0  0  0  0  0  0
    4.7946   17.5035    0.8949 O   0  0  0  0  0  0  0  0  0  0  0  0
    8.5366   18.4647    0.8823 H   0  0  0  0  0  0  0  0  0  0  0  0
    7.2327   17.8294   -0.0036 H   0  0  0  0  0  0  0  0  0  0  0  0
    4.5645   18.4424    0.7479 H   0  0  0  0  0  0  0  0  0  0  0  0
  2  1  1  6  0  0  0
  2  3  1  0  0  0  0
  2  6  1  0  0  0  0
  3  4  1  0  0  0  0
  3  5  1  0  0  0  0
  4  5  1  0  0  0  0
  6  7  1  0  0  0  0
  6 10  1  0  0  0  0
  7  8  2  0  0  0  0
  7  9  1  0  0  0  0
  9 11  1  0  0  0  0
  9 12  1  0  0  0  0
 10 13  1  0  0  0  0
M  END
>  <CHROM.0>
-59.77758595,-65.07255318,-65.81798585,-49.07145270,-61.29373693,58.62921393
-72.91906277,-64.15059342,-168.10527284

>  <CHROM.1>
-141.76705868,-149.52327054,-33.30864121,93.94958042,-171.54086802,5.89693599
17.90259558,2.92999826,1.91884677,0.72642873,1.39086323

>  <Name>
P21190230

>  <RI>
3.51561e+07

>  <Rbt.Current_Directory>
/home/fstefaniak/projects/zuza/docking/adenine/4XNR

>  <Rbt.Executable>
rbdock ($Id: //depot/dev/client3/rdock/2013.1/src/exe/rbdock.cxx#4 $)

>  <Rbt.Library>
libRbt.so (2013.1, Build901 2013/11/27)

>  <Rbt.Parameter_File>
/home/fstefaniak/progs/rDock//data/scripts/dock_solv.prm

>  <Rbt.Receptor>
4xnr.prm

>  <SCORE>
-60.0098

>  <SCORE.INTER>
-41.1106

>  <SCORE.INTER.CONST>
1

>  <SCORE.INTER.POLAR>
-5.92475

>  <SCORE.INTER.ROT>
4

>  <SCORE.INTER.SOLV>
14.9517

>  <SCORE.INTER.VDW>
-18.9085

>  <SCORE.INTER.norm>
-4.11106

>  <SCORE.INTRA>
0.91114

>  <SCORE.INTRA.DIHEDRAL>
-0.939529

>  <SCORE.INTRA.DIHEDRAL.0>
5.47517

>  <SCORE.INTRA.POLAR>
0.110042

>  <SCORE.INTRA.POLAR.0>
-0.110042

>  <SCORE.INTRA.REPUL>
0

>  <SCORE.INTRA.REPUL.0>
0

>  <SCORE.INTRA.SOLV>
-0.129162

>  <SCORE.INTRA.SOLV.lig_0>
-16.261

>  <SCORE.INTRA.VDW>
1.07134

>  <SCORE.INTRA.VDW.0>
-0.10653

>  <SCORE.INTRA.norm>
0.091114

>  <SCORE.RESTR>
0

>  <SCORE.RESTR.CAVITY>
0

>  <SCORE.RESTR.norm>
0

>  <SCORE.SYSTEM>
-19.8104

>  <SCORE.SYSTEM.CONST>
0

>  <SCORE.SYSTEM.DIHEDRAL>
4.42431

>  <SCORE.SYSTEM.POLAR>
-2.94176

>  <SCORE.SYSTEM.SOLV>
0.12717

>  <SCORE.SYSTEM.VDW>
-4.91824

>  <SCORE.SYSTEM.norm>
-1.98104

>  <SCORE.heavy>
10

>  <SCORE.norm>
-6.00098

$$$$
P21190230
 OpenBabel12072022113D
libRbt.so/2013.1/901 2013/11/27
 13 13  0  0  0  0  0  0  0  0999 V2000
    4.5154   15.9663    3.4847 C   0  0  0  0  0  0  0  0  0  0  0  0
    5.0517   17.3895    3.3229 C   0  0  1  0  0  0  0  0  0  0  0  0
    6.0140   17.7407    4.4309 C   0  0  0  0  0  0  0  0  0  0  0  0
    5.9889   19.1171    5.0510 C   0  0  0  0  0  0  0  0  0  0  0  0
    5.5216   17.9300    5.8453 C   0  0  0  0  0  0  0  0  0  0  0  0
    5.6941   17.5834    2.0201 N   0  0  0  0  0  0  0  0  0  0  0  0
    6.7864   18.4075    1.8588 C   0  0  0  0  0  0  0  0  0  0  0  0
    7.0157   19.4314    2.4883 O   0  0  0  0  0  0  0  0  0  0  0  0
    7.6533   17.9720    0.8937 N   0  0  0  0  0  0  0  0  0  0  0  0
    4.7933   17.4997    0.9248 O   0  0  0  0  0  0  0  0  0  0  0  0
    8.5096   18.5122    0.8460 H   0  0  0  0  0  0  0  0  0  0  0  0
    7.1978   17.8423   -0.0020 H   0  0  0  0  0  0  0  0  0  0  0  0
    4.5548   18.4381    0.7885 H   0  0  0  0  0  0  0  0  0  0  0  0
  2  1  1  1  0  0  0
  2  3  1  0  0  0  0
  2  6  1  0  0  0  0
  3  4  1  0  0  0  0
  3  5  1  0  0  0  0
  4  5  1  0  0  0  0
  6  7  1  0  0  0  0
  6 10  1  0  0  0  0
  7  8  2  0  0  0  0
  7  9  1  0  0  0  0
  9 11  1  0  0  0  0
  9 12  1  0  0  0  0
 10 13  1  0  0  0  0
M  END
>  <CHROM.0>
-62.35243993,-66.23959592,-74.00816816,-48.74819734,-61.83365886,61.21860782
-170.89381799,-56.67373342,-167.56861262

>  <CHROM.1>
-139.95679387,-145.68919559,-32.60817665,93.94428157,-173.20913321,5.90422844
17.91087254,2.95180000,1.92858350,0.75851924,1.36603985

>  <Name>
P21190230

>  <RI>
3.51561e+07

>  <Rbt.Current_Directory>
/home/fstefaniak/projects/zuza/docking/adenine/4XNR

>  <Rbt.Executable>
rbdock ($Id: //depot/dev/client3/rdock/2013.1/src/exe/rbdock.cxx#4 $)

>  <Rbt.Library>
libRbt.so (2013.1, Build901 2013/11/27)

>  <Rbt.Parameter_File>
/home/fstefaniak/progs/rDock//data/scripts/dock_solv.prm

>  <Rbt.Receptor>
4xnr.prm

>  <SCORE>
-59.6512

>  <SCORE.INTER>
-41.5075

>  <SCORE.INTER.CONST>
1

>  <SCORE.INTER.POLAR>
-5.94715

>  <SCORE.INTER.ROT>
4

>  <SCORE.INTER.SOLV>
14.9678

>  <SCORE.INTER.VDW>
-19.1038

>  <SCORE.INTER.norm>
-4.15075

>  <SCORE.INTRA>
1.04341

>  <SCORE.INTRA.DIHEDRAL>
-0.848191

>  <SCORE.INTRA.DIHEDRAL.0>
5.47517

>  <SCORE.INTRA.POLAR>
0.110042

>  <SCORE.INTRA.POLAR.0>
-0.110042

>  <SCORE.INTRA.REPUL>
0

>  <SCORE.INTRA.REPUL.0>
0

>  <SCORE.INTRA.SOLV>
-0.13625

>  <SCORE.INTRA.SOLV.lig_0>
-16.261

>  <SCORE.INTRA.VDW>
1.16149

>  <SCORE.INTRA.VDW.0>
-0.10653

>  <SCORE.INTRA.norm>
0.104341

>  <SCORE.RESTR>
0

>  <SCORE.RESTR.CAVITY>
0

>  <SCORE.RESTR.norm>
0

>  <SCORE.SYSTEM>
-19.1871

>  <SCORE.SYSTEM.CONST>
0

>  <SCORE.SYSTEM.DIHEDRAL>
4.91813

>  <SCORE.SYSTEM.POLAR>
-2.91731

>  <SCORE.SYSTEM.SOLV>
0.0871184

>  <SCORE.SYSTEM.VDW>
-4.73541

>  <SCORE.SYSTEM.norm>
-1.91871

>  <SCORE.heavy>
10

>  <SCORE.norm>
-5.96512

$$$$
P21190230
 OpenBabel12072022113D
libRbt.so/2013.1/901 2013/11/27
 13 13  0  0  0  0  0  0  0  0999 V2000
    4.5045   16.0012    3.4037 C   0  0  0  0  0  0  0  0  0  0  0  0
    5.0746   17.4144    3.2731 C   0  0  1  0  0  0  0  0  0  0  0  0
    6.0025   17.7380    4.4183 C   0  0  0  0  0  0  0  0  0  0  0  0
    5.9720   19.1054    5.0576 C   0  0  0  0  0  0  0  0  0  0  0  0
    5.4642   17.9126    5.8178 C   0  0  0  0  0  0  0  0  0  0  0  0
    5.7682   17.6048    1.9962 N   0  0  0  0  0  0  0  0  0  0  0  0
    6.8522   18.4459    1.8712 C   0  0  0  0  0  0  0  0  0  0  0  0
    7.5387   18.8778    2.7875 O   0  0  0  0  0  0  0  0  0  0  0  0
    7.1301   18.7791    0.5733 N   0  0  0  0  0  0  0  0  0  0  0  0
    4.9160   17.4932    0.8650 O   0  0  0  0  0  0  0  0  0  0  0  0
    6.7692   18.1138   -0.1009 H   0  0  0  0  0  0  0  0  0  0  0  0
    8.1061   19.0146    0.4374 H   0  0  0  0  0  0  0  0  0  0  0  0
    4.7209   18.4306    0.6671 H   0  0  0  0  0  0  0  0  0  0  0  0
  2  1  1  1  0  0  0
  2  3  1  0  0  0  0
  2  6  1  0  0  0  0
  3  4  1  0  0  0  0
  3  5  1  0  0  0  0
  4  5  1  0  0  0  0
  6  7  1  0  0  0  0
  6 10  1  0  0  0  0
  7  8  2  0  0  0  0
  7  9  1  0  0  0  0
  9 11  1  0  0  0  0
  9 12  1  0  0  0  0
 10 13  1  0  0  0  0
M  END
>  <CHROM.0>
-58.20704545,55.07576116,-62.05260725,-44.67612843,-59.51256675,-60.60528620
-70.17886160,60.26057429,-168.11851452

>  <CHROM.1>
-139.31756019,-148.11398916,17.40010449,97.96318562,-22.63991059,5.92574502
17.94058366,2.92542464,1.87914097,0.73730943,1.46185027

>  <Name>
P21190230

>  <RI>
3.51561e+07

>  <Rbt.Current_Directory>
/home/fstefaniak/projects/zuza/docking/adenine/4XNR

>  <Rbt.Executable>
rbdock ($Id: //depot/dev/client3/rdock/2013.1/src/exe/rbdock.cxx#4 $)

>  <Rbt.Library>
libRbt.so (2013.1, Build901 2013/11/27)

>  <Rbt.Parameter_File>
/home/fstefaniak/progs/rDock//data/scripts/dock_solv.prm

>  <Rbt.Receptor>
4xnr.prm

>  <SCORE>
-57.8656

>  <SCORE.INTER>
-42.1533

>  <SCORE.INTER.CONST>
1

>  <SCORE.INTER.POLAR>
-5.94611

>  <SCORE.INTER.ROT>
4

>  <SCORE.INTER.SOLV>
14.5635

>  <SCORE.INTER.VDW>
-19.403

>  <SCORE.INTER.norm>
-4.21533

>  <SCORE.INTRA>
3.25173

>  <SCORE.INTRA.DIHEDRAL>
-0.903764

>  <SCORE.INTRA.DIHEDRAL.0>
5.47517

>  <SCORE.INTRA.POLAR>
0.110042

>  <SCORE.INTRA.POLAR.0>
-0.110042

>  <SCORE.INTRA.REPUL>
0

>  <SCORE.INTRA.REPUL.0>
0

>  <SCORE.INTRA.SOLV>
0.078384

>  <SCORE.INTRA.SOLV.lig_0>
-16.261

>  <SCORE.INTRA.VDW>
3.29028

>  <SCORE.INTRA.VDW.0>
-0.10653

>  <SCORE.INTRA.norm>
0.325173

>  <SCORE.RESTR>
0

>  <SCORE.RESTR.CAVITY>
0

>  <SCORE.RESTR.norm>
0

>  <SCORE.SYSTEM>
-18.964

>  <SCORE.SYSTEM.CONST>
0

>  <SCORE.SYSTEM.DIHEDRAL>
4.44442

>  <SCORE.SYSTEM.POLAR>
-3.03685

>  <SCORE.SYSTEM.SOLV>
0.212251

>  <SCORE.SYSTEM.VDW>
-4.07207

>  <SCORE.SYSTEM.norm>
-1.8964

>  <SCORE.heavy>
10

>  <SCORE.norm>
-5.78656

$$$$
P22525129
 OpenBabel12072022113D
libRbt.so/2013.1/901 2013/11/27
 15 15  0  0  0  0  0  0  0  0999 V2000
    7.5366   18.8421    6.2768 C   0  0  0  0  0  0  0  0  0  0  0  0
    7.4353   18.7698    4.7770 C   0  0  0  0  0  0  0  0  0  0  0  0
    8.2894   19.2974    4.0586 O   0  0  0  0  0  0  0  0  0  0  0  0
    6.2648   18.1146    4.1221 C   0  0  0  0  0  0  0  0  0  0  0  0
    5.4006   17.3589    4.9376 C   0  0  0  0  0  0  0  0  0  0  0  0
    4.3154   16.6767    4.3982 C   0  0  0  0  0  0  0  0  0  0  0  0
    4.0671   16.7485    3.0320 C   0  0  0  0  0  0  0  0  0  0  0  0
    4.8969   17.5194    2.2130 C   0  0  0  0  0  0  0  0  0  0  0  0
    5.9872   18.2333    2.7452 C   0  0  0  0  0  0  0  0  0  0  0  0
    6.8275   19.0278    2.0094 O   0  0  0  0  0  0  0  0  0  0  0  0
    7.4135   18.4591    0.8432 C   0  0  0  0  0  0  0  0  0  0  0  0
    4.6343   17.5403    0.8695 O   0  0  0  0  0  0  0  0  0  0  0  0
    5.5613   17.2365    6.2942 O   0  0  0  0  0  0  0  0  0  0  0  0
    4.6846   18.4547    0.5446 H   0  0  0  0  0  0  0  0  0  0  0  0
    4.8734   16.6135    6.6238 H   0  0  0  0  0  0  0  0  0  0  0  0
  1  2  1  0  0  0  0
  2  3  2  0  0  0  0
  2  4  1  0  0  0  0
  4  5  2  0  0  0  0
  4  9  1  0  0  0  0
  5  6  1  0  0  0  0
  5 13  1  0  0  0  0
  6  7  2  0  0  0  0
  7  8  1  0  0  0  0
  8  9  2  0  0  0  0
  8 12  1  0  0  0  0
  9 10  1  0  0  0  0
 10 11  1  0  0  0  0
 12 14  1  0  0  0  0
 13 15  1  0  0  0  0
M  END
>  <CHROM.0>
-62.35115354,47.48596161,-73.57119738,-51.24602675,-63.35418256,-65.65949914
-171.91956999,-176.13982270,-166.84043081

>  <CHROM.1>
-11.56052758,-176.18652323,135.06570178,127.06200413,6.08571135,18.01475746
3.55947059,-1.25211600,-0.55876417,-1.46912678

>  <Name>
P22525129

>  <RI>
3.4169e+07

>  <Rbt.Current_Directory>
/home/fstefaniak/projects/zuza/docking/adenine/4XNR

>  <Rbt.Executable>
rbdock ($Id: //depot/dev/client3/rdock/2013.1/src/exe/rbdock.cxx#4 $)

>  <Rbt.Library>
libRbt.so (2013.1, Build901 2013/11/27)

>  <Rbt.Parameter_File>
/home/fstefaniak/progs/rDock//data/scripts/dock_solv.prm

>  <Rbt.Receptor>
4xnr.prm

>  <SCORE>
-41.673

>  <SCORE.INTER>
-24.9234

>  <SCORE.INTER.CONST>
1

>  <SCORE.INTER.POLAR>
-4.27378

>  <SCORE.INTER.ROT>
2

>  <SCORE.INTER.SOLV>
15.0619

>  <SCORE.INTER.VDW>
-12.3236

>  <SCORE.INTER.norm>
-1.91718

>  <SCORE.INTRA>
2.55227

>  <SCORE.INTRA.DIHEDRAL>
1.46915

>  <SCORE.INTRA.DIHEDRAL.0>
4.43341

>  <SCORE.INTRA.POLAR>
0.008947

>  <SCORE.INTRA.POLAR.0>
-0.008947

>  <SCORE.INTRA.REPUL>
0

>  <SCORE.INTRA.REPUL.0>
0

>  <SCORE.INTRA.SOLV>
0.0635351

>  <SCORE.INTRA.SOLV.lig_0>
-13.2835

>  <SCORE.INTRA.VDW>
1.7555

>  <SCORE.INTRA.VDW.0>
4.13314

>  <SCORE.INTRA.norm>
0.196328

>  <SCORE.RESTR>
0

>  <SCORE.RESTR.CAVITY>
0

>  <SCORE.RESTR.norm>
0

>  <SCORE.SYSTEM>
-19.3019

>  <SCORE.SYSTEM.CONST>
0

>  <SCORE.SYSTEM.DIHEDRAL>
5.37232

>  <SCORE.SYSTEM.POLAR>
-2.92709

>  <SCORE.SYSTEM.SOLV>
0.179519

>  <SCORE.SYSTEM.VDW>
-4.96159

>  <SCORE.SYSTEM.norm>
-1.48476

>  <SCORE.heavy>
13

>  <SCORE.norm>
-3.20562

$$$$
P22525129
 OpenBabel12072022113D
libRbt.so/2013.1/901 2013/11/27
 15 15  0  0  0  0  0  0  0  0999 V2000
    7.5202   18.8303    6.2946 C   0  0  0  0  0  0  0  0  0  0  0  0
    7.4270   18.7596    4.7942 C   0  0  0  0  0  0  0  0  0  0  0  0
    8.2862   19.2858    4.0809 O   0  0  0  0  0  0  0  0  0  0  0  0
    6.2585   18.1077    4.1324 C   0  0  0  0  0  0  0  0  0  0  0  0
    5.3883   17.3532    4.9424 C   0  0  0  0  0  0  0  0  0  0  0  0
    4.3044   16.6740    4.3965 C   0  0  0  0  0  0  0  0  0  0  0  0
    4.0636   16.7478    3.0290 C   0  0  0  0  0  0  0  0  0  0  0  0
    4.8996   17.5177    2.2153 C   0  0  0  0  0  0  0  0  0  0  0  0
    5.9886   18.2285    2.7541 C   0  0  0  0  0  0  0  0  0  0  0  0
    6.8347   19.0218    2.0237 O   0  0  0  0  0  0  0  0  0  0  0  0
    7.4269   18.4525    0.8609 C   0  0  0  0  0  0  0  0  0  0  0  0
    4.6443   17.5406    0.8704 O   0  0  0  0  0  0  0  0  0  0  0  0
    5.5413   17.2290    6.2997 O   0  0  0  0  0  0  0  0  0  0  0  0
    4.6820   18.4571    0.5498 H   0  0  0  0  0  0  0  0  0  0  0  0
    4.8935   16.5578    6.6155 H   0  0  0  0  0  0  0  0  0  0  0  0
  1  2  1  0  0  0  0
  2  3  2  0  0  0  0
  2  4  1  0  0  0  0
  4  5  2  0  0  0  0
  4  9  1  0  0  0  0
  5  6  1  0  0  0  0
  5 13  1  0  0  0  0
  6  7  2  0  0  0  0
  7  8  1  0  0  0  0
  8  9  2  0  0  0  0
  8 12  1  0  0  0  0
  9 10  1  0  0  0  0
 10 11  1  0  0  0  0
 12 14  1  0  0  0  0
 13 15  1  0  0  0  0
M  END
>  <CHROM.0>
-57.62833599,47.12767613,-72.83499665,-43.69776164,-54.74826311,-175.43574547
-171.29568393,-57.48519675,-168.27280032

>  <CHROM.1>
-11.57214731,-172.13214995,134.01782636,126.98945420,6.08250771,18.00858432
3.56870109,-1.25801867,-0.55719050,-1.47117958

>  <Name>
P22525129

>  <RI>
3.4169e+07

>  <Rbt.Current_Directory>
/home/fstefaniak/projects/zuza/docking/adenine/4XNR

>  <Rbt.Executable>
rbdock ($Id: //depot/dev/client3/rdock/2013.1/src/exe/rbdock.cxx#4 $)

>  <Rbt.Library>
libRbt.so (2013.1, Build901 2013/11/27)

>  <Rbt.Parameter_File>
/home/fstefaniak/progs/rDock//data/scripts/dock_solv.prm

>  <Rbt.Receptor>
4xnr.prm

>  <SCORE>
-41.3435

>  <SCORE.INTER>
-24.8308

>  <SCORE.INTER.CONST>
1

>  <SCORE.INTER.POLAR>
-4.2087

>  <SCORE.INTER.ROT>
2

>  <SCORE.INTER.SOLV>
15.0641

>  <SCORE.INTER.VDW>
-12.4796

>  <SCORE.INTER.norm>
-1.91006

>  <SCORE.INTRA>
2.58094

>  <SCORE.INTRA.DIHEDRAL>
1.63112

>  <SCORE.INTRA.DIHEDRAL.0>
4.43341

>  <SCORE.INTRA.POLAR>
0.008947

>  <SCORE.INTRA.POLAR.0>
-0.008947

>  <SCORE.INTRA.REPUL>
0

>  <SCORE.INTRA.REPUL.0>
0

>  <SCORE.INTRA.SOLV>
0.0642408

>  <SCORE.INTRA.SOLV.lig_0>
-13.2835

>  <SCORE.INTRA.VDW>
1.70284

>  <SCORE.INTRA.VDW.0>
4.13314

>  <SCORE.INTRA.norm>
0.198534

>  <SCORE.RESTR>
0

>  <SCORE.RESTR.CAVITY>
0

>  <SCORE.RESTR.norm>
0

>  <SCORE.SYSTEM>
-19.0936

>  <SCORE.SYSTEM.CONST>
0

>  <SCORE.SYSTEM.DIHEDRAL>
6.05236

>  <SCORE.SYSTEM.POLAR>
-3.09815

>  <SCORE.SYSTEM.SOLV>
0.252985

>  <SCORE.SYSTEM.VDW>
-4.50369

>  <SCORE.SYSTEM.norm>
-1.46874

>  <SCORE.heavy>
13

>  <SCORE.norm>
-3.18027

$$$$
P22525129
 OpenBabel12072022113D
libRbt.so/2013.1/901 2013/11/27
 15 15  0  0  0  0  0  0  0  0999 V2000
    7.5278   18.8557    6.2843 C   0  0  0  0  0  0  0  0  0  0  0  0
    7.4296   18.7739    4.7848 C   0  0  0  0  0  0  0  0  0  0  0  0
    8.2896   19.2898    4.0649 O   0  0  0  0  0  0  0  0  0  0  0  0
    6.2556   18.1234    4.1315 C   0  0  0  0  0  0  0  0  0  0  0  0
    5.3829   17.3811    4.9502 C   0  0  0  0  0  0  0  0  0  0  0  0
    4.2936   16.7038    4.4128 C   0  0  0  0  0  0  0  0  0  0  0  0
    4.0498   16.7672    3.0454 C   0  0  0  0  0  0  0  0  0  0  0  0
    4.8883   17.5250    2.2229 C   0  0  0  0  0  0  0  0  0  0  0  0
    5.9829   18.2339    2.7529 C   0  0  0  0  0  0  0  0  0  0  0  0
    6.8319   19.0159    2.0135 O   0  0  0  0  0  0  0  0  0  0  0  0
    7.4246   18.4302    0.8592 C   0  0  0  0  0  0  0  0  0  0  0  0
    4.6298   17.5378    0.8786 O   0  0  0  0  0  0  0  0  0  0  0  0
    5.5387   17.2677    6.3081 O   0  0  0  0  0  0  0  0  0  0  0  0
    4.6642   18.4522    0.5515 H   0  0  0  0  0  0  0  0  0  0  0  0
    4.8743   16.6179    6.6341 H   0  0  0  0  0  0  0  0  0  0  0  0
  1  2  1  0  0  0  0
  2  3  2  0  0  0  0
  2  4  1  0  0  0  0
  4  5  2  0  0  0  0
  4  9  1  0  0  0  0
  5  6  1  0  0  0  0
  5 13  1  0  0  0  0
  6  7  2  0  0  0  0
  7  8  1  0  0  0  0
  8  9  2  0  0  0  0
  8 12  1  0  0  0  0
  9 10  1  0  0  0  0
 10 11  1  0  0  0  0
 12 14  1  0  0  0  0
 13 15  1  0  0  0  0
M  END
>  <CHROM.0>
-61.49467125,45.90989322,-66.40025428,-49.73448731,-54.75622344,62.53301091
-72.61789804,-61.60365430,-168.12492761

>  <CHROM.1>
-11.50860023,-173.36291265,133.51202433,126.58647617,6.07803429,18.02030750
3.56956459,-1.25542641,-0.55056661,-1.47901831

>  <Name>
P22525129

>  <RI>
3.4169e+07

>  <Rbt.Current_Directory>
/home/fstefaniak/projects/zuza/docking/adenine/4XNR

>  <Rbt.Executable>
rbdock ($Id: //depot/dev/client3/rdock/2013.1/src/exe/rbdock.cxx#4 $)

>  <Rbt.Library>
libRbt.so (2013.1, Build901 2013/11/27)

>  <Rbt.Parameter_File>
/home/fstefaniak/progs/rDock//data/scripts/dock_solv.prm

>  <Rbt.Receptor>
4xnr.prm

>  <SCORE>
-41.1657

>  <SCORE.INTER>
-24.9538

>  <SCORE.INTER.CONST>
1

>  <SCORE.INTER.POLAR>
-4.25414

>  <SCORE.INTER.ROT>
2

>  <SCORE.INTER.SOLV>
15.0691

>  <SCORE.INTER.VDW>
-12.4118

>  <SCORE.INTER.norm>
-1.91952

>  <SCORE.INTRA>
2.57891

>  <SCORE.INTRA.DIHEDRAL>
1.67547

>  <SCORE.INTRA.DIHEDRAL.0>
4.43341

>  <SCORE.INTRA.POLAR>
0.008947

>  <SCORE.INTRA.POLAR.0>
-0.008947

>  <SCORE.INTRA.REPUL>
0

>  <SCORE.INTRA.REPUL.0>
0

>  <SCORE.INTRA.SOLV>
0.064189

>  <SCORE.INTRA.SOLV.lig_0>
-13.2835

>  <SCORE.INTRA.VDW>
1.67866

>  <SCORE.INTRA.VDW.0>
4.13314

>  <SCORE.INTRA.norm>
0.198377

>  <SCORE.RESTR>
0

>  <SCORE.RESTR.CAVITY>
0

>  <SCORE.RESTR.norm>
0

>  <SCORE.SYSTEM>
-18.7909

>  <SCORE.SYSTEM.CONST>
0

>  <SCORE.SYSTEM.DIHEDRAL>
5.23017

>  <SCORE.SYSTEM.POLAR>
-3.0012

>  <SCORE.SYSTEM.SOLV>
0.257687

>  <SCORE.SYSTEM.VDW>
-4.35252

>  <SCORE.SYSTEM.norm>
-1.44545

>  <SCORE.heavy>
13

>  <SCORE.norm>
-3.1666

$$$$
P22525140
 OpenBabel12072022113D
libRbt.so/2013.1/901 2013/11/27
 15 15  0  0  0  0  0  0  0  0999 V2000
    7.7092   18.7853    6.2654 C   0  0  0  0  0  0  0  0  0  0  0  0
    6.3485   18.2123    5.9720 C   0  0  0  0  0  0  0  0  0  0  0  0
    5.6068   17.8399    6.8819 O   0  0  0  0  0  0  0  0  0  0  0  0
    5.8978   18.0558    4.5597 C   0  0  0  0  0  0  0  0  0  0  0  0
    4.5579   17.6682    4.3604 C   0  0  0  0  0  0  0  0  0  0  0  0
    4.0583   17.4904    3.0717 C   0  0  0  0  0  0  0  0  0  0  0  0
    4.9104   17.7127    1.9857 C   0  0  0  0  0  0  0  0  0  0  0  0
    6.2310   18.1101    2.1588 C   0  0  0  0  0  0  0  0  0  0  0  0
    6.7239   18.2865    3.4512 C   0  0  0  0  0  0  0  0  0  0  0  0
    8.0112   18.7145    3.6129 O   0  0  0  0  0  0  0  0  0  0  0  0
    4.4527   17.5469    0.7064 O   0  0  0  0  0  0  0  0  0  0  0  0
    2.7847   17.1080    2.7404 O   0  0  0  0  0  0  0  0  0  0  0  0
    2.0581   16.3879    3.7314 C   0  0  0  0  0  0  0  0  0  0  0  0
    8.6132   17.9518    3.5568 H   0  0  0  0  0  0  0  0  0  0  0  0
    4.4533   18.4440    0.3170 H   0  0  0  0  0  0  0  0  0  0  0  0
  1  2  1  0  0  0  0
  2  3  2  0  0  0  0
  2  4  1  0  0  0  0
  4  5  2  0  0  0  0
  4  9  1  0  0  0  0
  5  6  1  0  0  0  0
  6  7  2  0  0  0  0
  6 12  1  0  0  0  0
  7  8  1  0  0  0  0
  7 11  1  0  0  0  0
  8  9  2  0  0  0  0
  9 10  1  0  0  0  0
 10 14  1  0  0  0  0
 11 15  1  0  0  0  0
 12 13  1  0  0  0  0
M  END
>  <CHROM.0>
-58.64842871,-162.34559479,-66.95813156,-47.20910709,-176.65636496,-62.82942562
-68.23094015,-59.71012673,-168.07321687

>  <CHROM.1>
-172.48795099,-23.52665918,112.87372259,97.91033758,5.32302573,17.83268908
3.79209447,0.70900093,0.34542355,1.58355337

>  <Name>
P22525140

>  <RI>
3.4169e+07

>  <Rbt.Current_Directory>
/home/fstefaniak/projects/zuza/docking/adenine/4XNR

>  <Rbt.Executable>
rbdock ($Id: //depot/dev/client3/rdock/2013.1/src/exe/rbdock.cxx#4 $)

>  <Rbt.Library>
libRbt.so (2013.1, Build901 2013/11/27)

>  <Rbt.Parameter_File>
/home/fstefaniak/progs/rDock//data/scripts/dock_solv.prm

>  <Rbt.Receptor>
4xnr.prm

>  <SCORE>
-45.5321

>  <SCORE.INTER>
-29.9682

>  <SCORE.INTER.CONST>
1

>  <SCORE.INTER.POLAR>
-4.79933

>  <SCORE.INTER.ROT>
2

>  <SCORE.INTER.SOLV>
14.7009

>  <SCORE.INTER.VDW>
-13.8147

>  <SCORE.INTER.norm>
-2.30525

>  <SCORE.INTRA>
4.76414

>  <SCORE.INTRA.DIHEDRAL>
7.07356

>  <SCORE.INTRA.DIHEDRAL.0>
2.73165

>  <SCORE.INTRA.POLAR>
0.336957

>  <SCORE.INTRA.POLAR.0>
-0.336957

>  <SCORE.INTRA.REPUL>
0

>  <SCORE.INTRA.REPUL.0>
0

>  <SCORE.INTRA.SOLV>
0.0554846

>  <SCORE.INTRA.SOLV.lig_0>
-14.039

>  <SCORE.INTRA.VDW>
0.0539612

>  <SCORE.INTRA.VDW.0>
3.54349

>  <SCORE.INTRA.norm>
0.366472

>  <SCORE.RESTR>
0

>  <SCORE.RESTR.CAVITY>
0

>  <SCORE.RESTR.norm>
0

>  <SCORE.SYSTEM>
-20.328

>  <SCORE.SYSTEM.CONST>
0

>  <SCORE.SYSTEM.DIHEDRAL>
5.53976

>  <SCORE.SYSTEM.POLAR>
-2.97815

>  <SCORE.SYSTEM.SOLV>
0.0761138

>  <SCORE.SYSTEM.VDW>
-5.49677

>  <SCORE.SYSTEM.norm>
-1.56369

>  <SCORE.heavy>
13

>  <SCORE.norm>
-3.50247

$$$$
P22525140
 OpenBabel12072022113D
libRbt.so/2013.1/901 2013/11/27
 15 15  0  0  0  0  0  0  0  0999 V2000
    6.0459   18.6984    6.9589 C   0  0  0  0  0  0  0  0  0  0  0  0
    6.9263   18.5938    5.7425 C   0  0  0  0  0  0  0  0  0  0  0  0
    8.1410   18.7808    5.8199 O   0  0  0  0  0  0  0  0  0  0  0  0
    6.3223   18.2955    4.4126 C   0  0  0  0  0  0  0  0  0  0  0  0
    4.9547   17.9568    4.3983 C   0  0  0  0  0  0  0  0  0  0  0  0
    4.3145   17.6544    3.1979 C   0  0  0  0  0  0  0  0  0  0  0  0
    5.0545   17.7030    2.0126 C   0  0  0  0  0  0  0  0  0  0  0  0
    6.4005   18.0493    2.0019 C   0  0  0  0  0  0  0  0  0  0  0  0
    7.0343   18.3511    3.2067 C   0  0  0  0  0  0  0  0  0  0  0  0
    8.3473   18.7281    3.1842 O   0  0  0  0  0  0  0  0  0  0  0  0
    4.4573   17.4115    0.8160 O   0  0  0  0  0  0  0  0  0  0  0  0
    2.9989   17.3019    3.0460 O   0  0  0  0  0  0  0  0  0  0  0  0
    2.5294   16.2294    3.8571 C   0  0  0  0  0  0  0  0  0  0  0  0
    8.8089   18.2440    2.4773 H   0  0  0  0  0  0  0  0  0  0  0  0
    4.3093   18.2779    0.3870 H   0  0  0  0  0  0  0  0  0  0  0  0
  1  2  1  0  0  0  0
  2  3  2  0  0  0  0
  2  4  1  0  0  0  0
  4  5  2  0  0  0  0
  4  9  1  0  0  0  0
  5  6  1  0  0  0  0
  6  7  2  0  0  0  0
  6 12  1  0  0  0  0
  7  8  1  0  0  0  0
  7 11  1  0  0  0  0
  8  9  2  0  0  0  0
  9 10  1  0  0  0  0
 10 14  1  0  0  0  0
 11 15  1  0  0  0  0
 12 13  1  0  0  0  0
M  END
>  <CHROM.0>
-59.75999624,-61.04669964,-65.50211093,-49.64040833,-176.40746303,-66.14266244
-67.31913547,-59.35472921,-168.54063241

>  <CHROM.1>
-7.85925020,-52.33029485,103.25671327,146.63919909,5.64963953,17.97378606
3.72028351,0.64252206,0.33032824,1.48915180

>  <Name>
P22525140

>  <RI>
3.4169e+07

>  <Rbt.Current_Directory>
/home/fstefaniak/projects/zuza/docking/adenine/4XNR

>  <Rbt.Executable>
rbdock ($Id: //depot/dev/client3/rdock/2013.1/src/exe/rbdock.cxx#4 $)

>  <Rbt.Library>
libRbt.so (2013.1, Build901 2013/11/27)

>  <Rbt.Parameter_File>
/home/fstefaniak/progs/rDock//data/scripts/dock_solv.prm

>  <Rbt.Receptor>
4xnr.prm

>  <SCORE>
-45.2342

>  <SCORE.INTER>
-27.2081

>  <SCORE.INTER.CONST>
1

>  <SCORE.INTER.POLAR>
-3.50099

>  <SCORE.INTER.ROT>
2

>  <SCORE.INTER.SOLV>
14.4829

>  <SCORE.INTER.VDW>
-16.2298

>  <SCORE.INTER.norm>
-2.09293

>  <SCORE.INTRA>
2.88329

>  <SCORE.INTRA.DIHEDRAL>
6.54459

>  <SCORE.INTRA.DIHEDRAL.0>
2.73165

>  <SCORE.INTRA.POLAR>
0.336957

>  <SCORE.INTRA.POLAR.0>
-0.336957

>  <SCORE.INTRA.REPUL>
0

>  <SCORE.INTRA.REPUL.0>
0

>  <SCORE.INTRA.SOLV>
0.165646

>  <SCORE.INTRA.SOLV.lig_0>
-14.039

>  <SCORE.INTRA.VDW>
-1.61748

>  <SCORE.INTRA.VDW.0>
3.54349

>  <SCORE.INTRA.norm>
0.221791

>  <SCORE.RESTR>
0

>  <SCORE.RESTR.CAVITY>
0

>  <SCORE.RESTR.norm>
0

>  <SCORE.SYSTEM>
-20.9094

>  <SCORE.SYSTEM.CONST>
0

>  <SCORE.SYSTEM.DIHEDRAL>
3.83567

>  <SCORE.SYSTEM.POLAR>
-2.92536

>  <SCORE.SYSTEM.SOLV>
0.0976627

>  <SCORE.SYSTEM.VDW>
-5.4995

>  <SCORE.SYSTEM.norm>
-1.60841

>  <SCORE.heavy>
13

>  <SCORE.norm>
-3.47956

$$$$
P22525140
 OpenBabel12072022113D
libRbt.so/2013.1/901 2013/11/27
 15 15  0  0  0  0  0  0  0  0999 V2000
    7.6368   18.8029    6.3518 C   0  0  0  0  0  0  0  0  0  0  0  0
    6.2955   18.2012    6.0285 C   0  0  0  0  0  0  0  0  0  0  0  0
    5.5478   17.8001    6.9210 O   0  0  0  0  0  0  0  0  0  0  0  0
    5.8726   18.0512    4.6069 C   0  0  0  0  0  0  0  0  0  0  0  0
    4.5328   17.6791    4.3793 C   0  0  0  0  0  0  0  0  0  0  0  0
    4.0581   17.5083    3.0802 C   0  0  0  0  0  0  0  0  0  0  0  0
    4.9351   17.7219    2.0125 C   0  0  0  0  0  0  0  0  0  0  0  0
    6.2563   18.1040    2.2135 C   0  0  0  0  0  0  0  0  0  0  0  0
    6.7241   18.2736    3.5161 C   0  0  0  0  0  0  0  0  0  0  0  0
    8.0125   18.6866    3.7051 O   0  0  0  0  0  0  0  0  0  0  0  0
    4.5023   17.5626    0.7238 O   0  0  0  0  0  0  0  0  0  0  0  0
    2.7874   17.1408    2.7221 O   0  0  0  0  0  0  0  0  0  0  0  0
    2.0234   16.4496    3.7055 C   0  0  0  0  0  0  0  0  0  0  0  0
    8.6121   17.9267    3.6033 H   0  0  0  0  0  0  0  0  0  0  0  0
    4.5039   18.4625    0.3410 H   0  0  0  0  0  0  0  0  0  0  0  0
  1  2  1  0  0  0  0
  2  3  2  0  0  0  0
  2  4  1  0  0  0  0
  4  5  2  0  0  0  0
  4  9  1  0  0  0  0
  5  6  1  0  0  0  0
  6  7  2  0  0  0  0
  6 12  1  0  0  0  0
  7  8  1  0  0  0  0
  7 11  1  0  0  0  0
  8  9  2  0  0  0  0
  9 10  1  0  0  0  0
 10 14  1  0  0  0  0
 11 15  1  0  0  0  0
 12 13  1  0  0  0  0
M  END
>  <CHROM.0>
-54.67473282,-157.02666304,-63.78077652,-43.67444384,-56.85485370,-61.32360335
-65.21731661,-174.07443093,-167.31502601

>  <CHROM.1>
-170.35306074,-22.41488876,111.75509714,101.54732515,5.31047844,17.83774528
3.82762873,0.73082756,0.33513768,1.57792603

>  <Name>
P22525140

>  <RI>
3.4169e+07

>  <Rbt.Current_Directory>
/home/fstefaniak/projects/zuza/docking/adenine/4XNR

>  <Rbt.Executable>
rbdock ($Id: //depot/dev/client3/rdock/2013.1/src/exe/rbdock.cxx#4 $)

>  <Rbt.Library>
libRbt.so (2013.1, Build901 2013/11/27)

>  <Rbt.Parameter_File>
/home/fstefaniak/progs/rDock//data/scripts/dock_solv.prm

>  <Rbt.Receptor>
4xnr.prm

>  <SCORE>
-44.7751

>  <SCORE.INTER>
-29.9715

>  <SCORE.INTER.CONST>
1

>  <SCORE.INTER.POLAR>
-4.92562

>  <SCORE.INTER.ROT>
2

>  <SCORE.INTER.SOLV>
14.7472

>  <SCORE.INTER.VDW>
-13.4114

>  <SCORE.INTER.norm>
-2.3055

>  <SCORE.INTRA>
4.74093

>  <SCORE.INTRA.DIHEDRAL>
7.12604

>  <SCORE.INTRA.DIHEDRAL.0>
2.73165

>  <SCORE.INTRA.POLAR>
0.336957

>  <SCORE.INTRA.POLAR.0>
-0.336957

>  <SCORE.INTRA.REPUL>
0

>  <SCORE.INTRA.REPUL.0>
0

>  <SCORE.INTRA.SOLV>
0.0555413

>  <SCORE.INTRA.SOLV.lig_0>
-14.039

>  <SCORE.INTRA.VDW>
0.00448443

>  <SCORE.INTRA.VDW.0>
3.54349

>  <SCORE.INTRA.norm>
0.364687

>  <SCORE.RESTR>
0

>  <SCORE.RESTR.CAVITY>
0

>  <SCORE.RESTR.norm>
0

>  <SCORE.SYSTEM>
-19.5445

>  <SCORE.SYSTEM.CONST>
0

>  <SCORE.SYSTEM.DIHEDRAL>
6.82836

>  <SCORE.SYSTEM.POLAR>
-3.07666

>  <SCORE.SYSTEM.SOLV>
0.144184

>  <SCORE.SYSTEM.VDW>
-5.09831

>  <SCORE.SYSTEM.norm>
-1.50342

>  <SCORE.heavy>
13

>  <SCORE.norm>
-3.44424

$$$$
P23843064
 OpenBabel12072022113D
libRbt.so/2013.1/901 2013/11/27
 15 15  0  0  0  0  0  0  0  0999 V2000
    4.4554   15.2723    3.9541 C   0  0  0  0  0  0  0  0  0  0  0  0
    3.4155   14.2339    4.1187 C   0  0  0  0  0  0  0  0  0  0  0  0
    2.0358   14.2124    3.9919 C   0  0  0  0  0  0  0  0  0  0  0  0
    1.6551   12.8616    4.3039 C   0  0  0  0  0  0  0  0  0  0  0  0
    2.8103   12.1754    4.6070 C   0  0  0  0  0  0  0  0  0  0  0  0
    3.8816   13.0085    4.4843 O   0  0  0  0  0  0  0  0  0  0  0  0
    3.0970   10.7812    5.0084 C   0  0  0  0  0  0  0  0  0  0  0  0
    0.2866   12.3104    4.2910 C   0  0  0  0  0  0  0  0  0  0  0  0
   -0.6253   12.9628    3.7215 O   0  0  0  0  0  0  0  0  0  0  0  0
    0.1562   11.2096    4.9295 O   0  5  0  0  0  0  0  0  0  0  0  0
    1.1342   15.3412    3.6454 C   0  0  0  0  0  0  0  0  0  0  0  0
    0.9869   16.3153    4.7337 N   0  3  0  0  0  0  0  0  0  0  0  0
    1.4521   16.0256    5.5941 H   0  0  0  0  0  0  0  0  0  0  0  0
    1.5638   17.1457    4.4177 H   0  0  0  0  0  0  0  0  0  0  0  0
    0.0487   16.6745    4.8867 H   0  0  0  0  0  0  0  0  0  0  0  0
  1  2  1  0  0  0  0
  2  3  2  0  0  0  0
  2  6  1  0  0  0  0
  3  4  1  0  0  0  0
  3 11  1  0  0  0  0
  4  5  2  0  0  0  0
  4  8  1  0  0  0  0
  5  6  1  0  0  0  0
  5  7  1  0  0  0  0
  8  9  2  0  0  0  0
  8 10  1  0  0  0  0
 11 12  1  0  0  0  0
 12 13  1  0  0  0  0
 12 14  1  0  0  0  0
 12 15  1  0  0  0  0
M  CHG  2  10  -1  12   1
M  END
>  <CHROM.0>
-53.89164867,-159.53394312,-65.17123100,-45.98055394,-59.28926710,-64.35327031
-68.27306219,-61.08623648,-167.77423102

>  <CHROM.1>
-72.44632111,14.77586860,-5.58675378,1.91227886,13.42227428,4.33470386,-1.11254416
0.04267867,3.00842988

>  <Name>
P23843064

>  <RI>
3.51561e+07

>  <Rbt.Current_Directory>
/home/fstefaniak/projects/zuza/docking/adenine/4XNR

>  <Rbt.Executable>
rbdock ($Id: //depot/dev/client3/rdock/2013.1/src/exe/rbdock.cxx#4 $)

>  <Rbt.Library>
libRbt.so (2013.1, Build901 2013/11/27)

>  <Rbt.Parameter_File>
/home/fstefaniak/progs/rDock//data/scripts/dock_solv.prm

>  <Rbt.Receptor>
4xnr.prm

>  <SCORE>
-38.4302

>  <SCORE.INTER>
-17.4689

>  <SCORE.INTER.CONST>
1

>  <SCORE.INTER.POLAR>
-2.76964

>  <SCORE.INTER.ROT>
2

>  <SCORE.INTER.SOLV>
19.3859

>  <SCORE.INTER.VDW>
-13.8091

>  <SCORE.INTER.norm>
-1.45574

>  <SCORE.INTRA>
-1.07539

>  <SCORE.INTRA.DIHEDRAL>
3.88496

>  <SCORE.INTRA.DIHEDRAL.0>
1.55387

>  <SCORE.INTRA.POLAR>
0.352815

>  <SCORE.INTRA.POLAR.0>
-0.352815

>  <SCORE.INTRA.REPUL>
0

>  <SCORE.INTRA.REPUL.0>
0

>  <SCORE.INTRA.SOLV>
-4.89884

>  <SCORE.INTRA.SOLV.lig_0>
-45.6611

>  <SCORE.INTRA.VDW>
-1.76802

>  <SCORE.INTRA.VDW.0>
0.938716

>  <SCORE.INTRA.norm>
-0.0896157

>  <SCORE.RESTR>
0.133993

>  <SCORE.RESTR.CAVITY>
0.133993

>  <SCORE.RESTR.norm>
0.0111661

>  <SCORE.SYSTEM>
-20.0199

>  <SCORE.SYSTEM.CONST>
0

>  <SCORE.SYSTEM.DIHEDRAL>
6.22403

>  <SCORE.SYSTEM.POLAR>
-3.04212

>  <SCORE.SYSTEM.SOLV>
0.256289

>  <SCORE.SYSTEM.VDW>
-5.36633

>  <SCORE.SYSTEM.norm>
-1.66833

>  <SCORE.heavy>
12

>  <SCORE.norm>
-3.20252

$$$$
P23843064
 OpenBabel12072022113D
libRbt.so/2013.1/901 2013/11/27
 15 15  0  0  0  0  0  0  0  0999 V2000
    4.3729   15.4165    4.0087 C   0  0  0  0  0  0  0  0  0  0  0  0
    3.3536   14.3529    4.1383 C   0  0  0  0  0  0  0  0  0  0  0  0
    1.9809   14.2962    3.9577 C   0  0  0  0  0  0  0  0  0  0  0  0
    1.6221   12.9376    4.2620 C   0  0  0  0  0  0  0  0  0  0  0  0
    2.7814   12.2821    4.6139 C   0  0  0  0  0  0  0  0  0  0  0  0
    3.8355   13.1414    4.5286 O   0  0  0  0  0  0  0  0  0  0  0  0
    3.0869   10.8974    5.0339 C   0  0  0  0  0  0  0  0  0  0  0  0
    0.2694   12.3520    4.1987 C   0  0  0  0  0  0  0  0  0  0  0  0
   -0.6239   12.9561    3.5518 O   0  0  0  0  0  0  0  0  0  0  0  0
    0.1288   11.2767    4.8772 O   0  5  0  0  0  0  0  0  0  0  0  0
    1.0656   15.4002    3.5700 C   0  0  0  0  0  0  0  0  0  0  0  0
    0.9446   16.4369    4.6022 N   0  3  0  0  0  0  0  0  0  0  0  0
    1.7060   17.1152    4.5777 H   0  0  0  0  0  0  0  0  0  0  0  0
    0.1056   17.0079    4.2986 H   0  0  0  0  0  0  0  0  0  0  0  0
    0.7295   16.1096    5.5400 H   0  0  0  0  0  0  0  0  0  0  0  0
  1  2  1  0  0  0  0
  2  3  2  0  0  0  0
  2  6  1  0  0  0  0
  3  4  1  0  0  0  0
  3 11  1  0  0  0  0
  4  5  2  0  0  0  0
  4  8  1  0  0  0  0
  5  6  1  0  0  0  0
  5  7  1  0  0  0  0
  8  9  2  0  0  0  0
  8 10  1  0  0  0  0
 11 12  1  0  0  0  0
 12 13  1  0  0  0  0
 12 14  1  0  0  0  0
 12 15  1  0  0  0  0
M  CHG  2  10  -1  12   1
M  END
>  <CHROM.0>
-54.32822851,-61.72699087,-72.63694385,-48.14163794,-173.33881099,-67.81439914
-173.40780065,-57.72876605,-166.61739636

>  <CHROM.1>
-67.35048024,17.17369633,82.34343247,1.87101224,13.51129336,4.29495168,-1.14107717
0.09081516,2.99912376

>  <Name>
P23843064

>  <RI>
3.51561e+07

>  <Rbt.Current_Directory>
/home/fstefaniak/projects/zuza/docking/adenine/4XNR

>  <Rbt.Executable>
rbdock ($Id: //depot/dev/client3/rdock/2013.1/src/exe/rbdock.cxx#4 $)

>  <Rbt.Library>
libRbt.so (2013.1, Build901 2013/11/27)

>  <Rbt.Parameter_File>
/home/fstefaniak/progs/rDock//data/scripts/dock_solv.prm

>  <Rbt.Receptor>
4xnr.prm

>  <SCORE>
-38.1234

>  <SCORE.INTER>
-15.3809

>  <SCORE.INTER.CONST>
1

>  <SCORE.INTER.POLAR>
-2.1361

>  <SCORE.INTER.ROT>
2

>  <SCORE.INTER.SOLV>
19.0567

>  <SCORE.INTER.VDW>
-14.4191

>  <SCORE.INTER.norm>
-1.28174

>  <SCORE.INTRA>
-2.5317

>  <SCORE.INTRA.DIHEDRAL>
1.57841

>  <SCORE.INTRA.DIHEDRAL.0>
1.55387

>  <SCORE.INTRA.POLAR>
0.352815

>  <SCORE.INTRA.POLAR.0>
-0.352815

>  <SCORE.INTRA.REPUL>
0

>  <SCORE.INTRA.REPUL.0>
0

>  <SCORE.INTRA.SOLV>
-5.22431

>  <SCORE.INTRA.SOLV.lig_0>
-45.6611

>  <SCORE.INTRA.VDW>
-1.90832

>  <SCORE.INTRA.VDW.0>
0.938716

>  <SCORE.INTRA.norm>
-0.210975

>  <SCORE.RESTR>
0

>  <SCORE.RESTR.CAVITY>
0

>  <SCORE.RESTR.norm>
0

>  <SCORE.SYSTEM>
-20.2109

>  <SCORE.SYSTEM.CONST>
0

>  <SCORE.SYSTEM.DIHEDRAL>
5.12912

>  <SCORE.SYSTEM.POLAR>
-2.9876

>  <SCORE.SYSTEM.SOLV>
0.0486707

>  <SCORE.SYSTEM.VDW>
-5.24117

>  <SCORE.SYSTEM.norm>
-1.68424

>  <SCORE.heavy>
12

>  <SCORE.norm>
-3.17695

$$$$
P23843064
 OpenBabel12072022113D
libRbt.so/2013.1/901 2013/11/27
 15 15  0  0  0  0  0  0  0  0999 V2000
    4.3997   15.5787    4.1232 C   0  0  0  0  0  0  0  0  0  0  0  0
    3.3918   14.4981    4.1801 C   0  0  0  0  0  0  0  0  0  0  0  0
    2.0356   14.4195    3.9064 C   0  0  0  0  0  0  0  0  0  0  0  0
    1.6797   13.0540    4.1817 C   0  0  0  0  0  0  0  0  0  0  0  0
    2.8231   12.4162    4.6098 C   0  0  0  0  0  0  0  0  0  0  0  0
    3.8660   13.2930    4.5989 O   0  0  0  0  0  0  0  0  0  0  0  0
    3.1223   11.0351    5.0456 C   0  0  0  0  0  0  0  0  0  0  0  0
    0.3443   12.4466    4.0248 C   0  0  0  0  0  0  0  0  0  0  0  0
   -0.5151   13.0420    3.3260 O   0  0  0  0  0  0  0  0  0  0  0  0
    0.1782   11.3626    4.6834 O   0  5  0  0  0  0  0  0  0  0  0  0
    1.1306   15.5100    3.4605 C   0  0  0  0  0  0  0  0  0  0  0  0
    0.7341   16.4106    4.5498 N   0  3  0  0  0  0  0  0  0  0  0  0
   -0.2729   16.5676    4.5911 H   0  0  0  0  0  0  0  0  0  0  0  0
    0.9257   15.8527    5.4297 H   0  0  0  0  0  0  0  0  0  0  0  0
    1.2770   17.2647    4.6421 H   0  0  0  0  0  0  0  0  0  0  0  0
  1  2  1  0  0  0  0
  2  3  2  0  0  0  0
  2  6  1  0  0  0  0
  3  4  1  0  0  0  0
  3 11  1  0  0  0  0
  4  5  2  0  0  0  0
  4  8  1  0  0  0  0
  5  6  1  0  0  0  0
  5  7  1  0  0  0  0
  8  9  2  0  0  0  0
  8 10  1  0  0  0  0
 11 12  1  0  0  0  0
 12 13  1  0  0  0  0
 12 14  1  0  0  0  0
 12 15  1  0  0  0  0
M  CHG  2  10  -1  12   1
M  END
>  <CHROM.0>
-57.00696306,-61.13059626,-73.86854504,-46.25185988,-60.27707791,-61.98873965
-172.65411812,-175.08650235,-168.64738732

>  <CHROM.1>
-77.44985590,16.81441583,-130.41230041,1.89767059,13.61575335,4.24213950
-1.10845948,0.14947711,3.00956095

>  <Name>
P23843064

>  <RI>
3.51561e+07

>  <Rbt.Current_Directory>
/home/fstefaniak/projects/zuza/docking/adenine/4XNR

>  <Rbt.Executable>
rbdock ($Id: //depot/dev/client3/rdock/2013.1/src/exe/rbdock.cxx#4 $)

>  <Rbt.Library>
libRbt.so (2013.1, Build901 2013/11/27)

>  <Rbt.Parameter_File>
/home/fstefaniak/progs/rDock//data/scripts/dock_solv.prm

>  <Rbt.Receptor>
4xnr.prm

>  <SCORE>
-37.6704

>  <SCORE.INTER>
-16.7661

>  <SCORE.INTER.CONST>
1

>  <SCORE.INTER.POLAR>
-2.39343

>  <SCORE.INTER.ROT>
2

>  <SCORE.INTER.SOLV>
18.8203

>  <SCORE.INTER.VDW>
-14.406

>  <SCORE.INTER.norm>
-1.39717

>  <SCORE.INTRA>
-0.665123

>  <SCORE.INTRA.DIHEDRAL>
3.81324

>  <SCORE.INTRA.DIHEDRAL.0>
1.55387

>  <SCORE.INTRA.POLAR>
0.352815

>  <SCORE.INTRA.POLAR.0>
-0.352815

>  <SCORE.INTRA.REPUL>
0

>  <SCORE.INTRA.REPUL.0>
0

>  <SCORE.INTRA.SOLV>
-4.30171

>  <SCORE.INTRA.SOLV.lig_0>
-45.6611

>  <SCORE.INTRA.VDW>
-1.62046

>  <SCORE.INTRA.VDW.0>
0.938716

>  <SCORE.INTRA.norm>
-0.055427

>  <SCORE.RESTR>
0.00493368

>  <SCORE.RESTR.CAVITY>
0.00493368

>  <SCORE.RESTR.norm>
0.00041114

>  <SCORE.SYSTEM>
-20.2441

>  <SCORE.SYSTEM.CONST>
0

>  <SCORE.SYSTEM.DIHEDRAL>
4.8343

>  <SCORE.SYSTEM.POLAR>
-2.9748

>  <SCORE.SYSTEM.SOLV>
0.094805

>  <SCORE.SYSTEM.VDW>
-5.22312

>  <SCORE.SYSTEM.norm>
-1.68701

>  <SCORE.heavy>
12

>  <SCORE.norm>
-3.1392

$$$$
P23868837
 OpenBabel12072022113D
libRbt.so/2013.1/901 2013/11/27
 10 10  0  0  0  0  0  0  0  0999 V2000
    2.9318   16.6677    3.6722 C   0  0  0  0  0  0  0  0  0  0  0  0
    4.3752   16.1834    3.7054 C   0  0  0  0  0  0  0  0  0  0  0  0
    5.0502   16.6442    2.5268 O   0  0  0  0  0  0  0  0  0  0  0  0
    6.3563   17.0017    2.9767 C   0  0  0  0  0  0  0  0  0  0  0  0
    6.1230   17.5082    4.3783 C   0  0  2  0  0  0  0  0  0  0  0  0
    5.0304   16.7107    4.8706 O   0  0  0  0  0  0  0  0  0  0  0  0
    5.7140   18.9821    4.4138 C   0  0  0  0  0  0  0  0  0  0  0  0
    6.7932   19.7882    3.9394 O   0  0  0  0  0  0  0  0  0  0  0  0
    4.4336   14.6592    3.7643 C   0  0  0  0  0  0  0  0  0  0  0  0
    7.4904   19.7240    4.6208 H   0  0  0  0  0  0  0  0  0  0  0  0
  1  2  1  0  0  0  0
  2  3  1  0  0  0  0
  2  6  1  0  0  0  0
  2  9  1  0  0  0  0
  3  4  1  0  0  0  0
  4  5  1  0  0  0  0
  5  6  1  0  0  0  0
  5  7  1  6  0  0  0
  7  8  1  0  0  0  0
  8 10  1  0  0  0  0
M  END
>  <CHROM.0>
-57.93868197,-178.14513676,-67.92771318,-47.42913750,-60.35289014,-62.39056945
-68.17583450,-59.98138402,-167.91416506

>  <CHROM.1>
-65.16593818,-68.80272638,5.21969883,17.16252422,3.80613900,2.22798828,-0.39022091
-2.73026931

>  <Name>
P23868837

>  <RI>
4.17015e+07

>  <Rbt.Current_Directory>
/home/fstefaniak/projects/zuza/docking/adenine/4XNR

>  <Rbt.Executable>
rbdock ($Id: //depot/dev/client3/rdock/2013.1/src/exe/rbdock.cxx#4 $)

>  <Rbt.Library>
libRbt.so (2013.1, Build901 2013/11/27)

>  <Rbt.Parameter_File>
/home/fstefaniak/progs/rDock//data/scripts/dock_solv.prm

>  <Rbt.Receptor>
4xnr.prm

>  <SCORE>
-37.5668

>  <SCORE.INTER>
-16.9012

>  <SCORE.INTER.CONST>
1

>  <SCORE.INTER.POLAR>
-2.59487

>  <SCORE.INTER.ROT>
1

>  <SCORE.INTER.SOLV>
9.11429

>  <SCORE.INTER.VDW>
-9.92263

>  <SCORE.INTER.norm>
-1.87791

>  <SCORE.INTRA>
0.0857718

>  <SCORE.INTRA.DIHEDRAL>
-0.306439

>  <SCORE.INTRA.DIHEDRAL.0>
0.836658

>  <SCORE.INTRA.POLAR>
0.0803713

>  <SCORE.INTRA.POLAR.0>
-0.0803713

>  <SCORE.INTRA.REPUL>
0

>  <SCORE.INTRA.REPUL.0>
0

>  <SCORE.INTRA.SOLV>
-0.123196

>  <SCORE.INTRA.SOLV.lig_0>
-8.26396

>  <SCORE.INTRA.VDW>
0.0273271

>  <SCORE.INTRA.VDW.0>
-0.14052

>  <SCORE.INTRA.norm>
0.0095302

>  <SCORE.RESTR>
0

>  <SCORE.RESTR.CAVITY>
0

>  <SCORE.RESTR.norm>
0

>  <SCORE.SYSTEM>
-20.7514

>  <SCORE.SYSTEM.CONST>
0

>  <SCORE.SYSTEM.DIHEDRAL>
4.15848

>  <SCORE.SYSTEM.POLAR>
-2.97844

>  <SCORE.SYSTEM.SOLV>
0.257719

>  <SCORE.SYSTEM.VDW>
-5.37819

>  <SCORE.SYSTEM.norm>
-2.30571

>  <SCORE.heavy>
9

>  <SCORE.norm>
-4.17409

$$$$
P23868837
 OpenBabel12072022113D
libRbt.so/2013.1/901 2013/11/27
 10 10  0  0  0  0  0  0  0  0999 V2000
    2.9218   16.6724    3.6560 C   0  0  0  0  0  0  0  0  0  0  0  0
    4.3587   16.1718    3.7174 C   0  0  0  0  0  0  0  0  0  0  0  0
    5.0557   16.6060    2.5415 O   0  0  0  0  0  0  0  0  0  0  0  0
    6.3595   16.9553    3.0044 C   0  0  0  0  0  0  0  0  0  0  0  0
    6.1125   17.4864    4.3944 C   0  0  2  0  0  0  0  0  0  0  0  0
    5.0037   16.7097    4.8834 O   0  0  0  0  0  0  0  0  0  0  0  0
    5.7207   18.9655    4.4011 C   0  0  0  0  0  0  0  0  0  0  0  0
    6.8267   19.7539    3.9598 O   0  0  0  0  0  0  0  0  0  0  0  0
    4.3980   14.6482    3.8009 C   0  0  0  0  0  0  0  0  0  0  0  0
    7.5229   19.6336    4.6346 H   0  0  0  0  0  0  0  0  0  0  0  0
  1  2  1  0  0  0  0
  2  3  1  0  0  0  0
  2  6  1  0  0  0  0
  2  9  1  0  0  0  0
  3  4  1  0  0  0  0
  4  5  1  0  0  0  0
  5  6  1  0  0  0  0
  5  7  1  6  0  0  0
  7  8  1  0  0  0  0
  8 10  1  0  0  0  0
M  END
>  <CHROM.0>
-56.50458889,-177.89381883,-66.99420418,-46.86052360,-60.05105595,-60.58803478
-68.44253857,-58.56967508,-167.27692239

>  <CHROM.1>
-66.53311176,-64.62969584,5.21475257,17.14234000,3.81865082,2.23376012,-0.36901636
-2.74075707

>  <Name>
P23868837

>  <RI>
4.17015e+07

>  <Rbt.Current_Directory>
/home/fstefaniak/projects/zuza/docking/adenine/4XNR

>  <Rbt.Executable>
rbdock ($Id: //depot/dev/client3/rdock/2013.1/src/exe/rbdock.cxx#4 $)

>  <Rbt.Library>
libRbt.so (2013.1, Build901 2013/11/27)

>  <Rbt.Parameter_File>
/home/fstefaniak/progs/rDock//data/scripts/dock_solv.prm

>  <Rbt.Receptor>
4xnr.prm

>  <SCORE>
-37.5417

>  <SCORE.INTER>
-16.8482

>  <SCORE.INTER.CONST>
1

>  <SCORE.INTER.POLAR>
-2.59907

>  <SCORE.INTER.ROT>
1

>  <SCORE.INTER.SOLV>
9.06543

>  <SCORE.INTER.VDW>
-9.85706

>  <SCORE.INTER.norm>
-1.87202

>  <SCORE.INTRA>
-0.00920133

>  <SCORE.INTRA.DIHEDRAL>
-0.519051

>  <SCORE.INTRA.DIHEDRAL.0>
0.836658

>  <SCORE.INTRA.POLAR>
0.0803713

>  <SCORE.INTRA.POLAR.0>
-0.0803713

>  <SCORE.INTRA.REPUL>
0

>  <SCORE.INTRA.REPUL.0>
0

>  <SCORE.INTRA.SOLV>
-0.136815

>  <SCORE.INTRA.SOLV.lig_0>
-8.26396

>  <SCORE.INTRA.VDW>
0.0454693

>  <SCORE.INTRA.VDW.0>
-0.14052

>  <SCORE.INTRA.norm>
-0.00102237

>  <SCORE.RESTR>
0

>  <SCORE.RESTR.CAVITY>
0

>  <SCORE.RESTR.norm>
0

>  <SCORE.SYSTEM>
-20.6843

>  <SCORE.SYSTEM.CONST>
0

>  <SCORE.SYSTEM.DIHEDRAL>
4.27317

>  <SCORE.SYSTEM.POLAR>
-3.00366

>  <SCORE.SYSTEM.SOLV>
0.267163

>  <SCORE.SYSTEM.VDW>
-5.29074

>  <SCORE.SYSTEM.norm>
-2.29825

>  <SCORE.heavy>
9

>  <SCORE.norm>
-4.1713

$$$$
P23868837
 OpenBabel12072022113D
libRbt.so/2013.1/901 2013/11/27
 10 10  0  0  0  0  0  0  0  0999 V2000
    2.9242   16.6565    3.6727 C   0  0  0  0  0  0  0  0  0  0  0  0
    4.3659   16.1677    3.7123 C   0  0  0  0  0  0  0  0  0  0  0  0
    5.0480   16.6277    2.5375 O   0  0  0  0  0  0  0  0  0  0  0  0
    6.3530   16.9806    2.9941 C   0  0  0  0  0  0  0  0  0  0  0  0
    6.1146   17.4861    4.3951 C   0  0  2  0  0  0  0  0  0  0  0  0
    5.0172   16.6915    4.8812 O   0  0  0  0  0  0  0  0  0  0  0  0
    5.7101   18.9613    4.4305 C   0  0  0  0  0  0  0  0  0  0  0  0
    6.7818   19.7619    3.9305 O   0  0  0  0  0  0  0  0  0  0  0  0
    4.4192   14.6432    3.7697 C   0  0  0  0  0  0  0  0  0  0  0  0
    7.5234   19.6289    4.5524 H   0  0  0  0  0  0  0  0  0  0  0  0
  1  2  1  0  0  0  0
  2  3  1  0  0  0  0
  2  6  1  0  0  0  0
  2  9  1  0  0  0  0
  3  4  1  0  0  0  0
  4  5  1  0  0  0  0
  5  6  1  0  0  0  0
  5  7  1  6  0  0  0
  7  8  1  0  0  0  0
  8 10  1  0  0  0  0
M  END
>  <CHROM.0>
-55.86264779,-178.69536978,-65.84256696,-46.64716559,-60.16808487,-177.98769216
-67.07925093,-60.06788040,-168.15020800

>  <CHROM.1>
-63.71192479,-63.31533980,5.21174793,17.14315431,3.81370670,2.22951976,-0.38586738
-2.73422971

>  <Name>
P23868837

>  <RI>
4.17015e+07

>  <Rbt.Current_Directory>
/home/fstefaniak/projects/zuza/docking/adenine/4XNR

>  <Rbt.Executable>
rbdock ($Id: //depot/dev/client3/rdock/2013.1/src/exe/rbdock.cxx#4 $)

>  <Rbt.Library>
libRbt.so (2013.1, Build901 2013/11/27)

>  <Rbt.Parameter_File>
/home/fstefaniak/progs/rDock//data/scripts/dock_solv.prm

>  <Rbt.Receptor>
4xnr.prm

>  <SCORE>
-37.3779

>  <SCORE.INTER>
-16.8061

>  <SCORE.INTER.CONST>
1

>  <SCORE.INTER.POLAR>
-2.58637

>  <SCORE.INTER.ROT>
1

>  <SCORE.INTER.SOLV>
9.08329

>  <SCORE.INTER.VDW>
-9.87724

>  <SCORE.INTER.norm>
-1.86734

>  <SCORE.INTRA>
-0.0335703

>  <SCORE.INTRA.DIHEDRAL>
-0.675496

>  <SCORE.INTRA.DIHEDRAL.0>
0.836658

>  <SCORE.INTRA.POLAR>
0.0803713

>  <SCORE.INTRA.POLAR.0>
-0.0803713

>  <SCORE.INTRA.REPUL>
0

>  <SCORE.INTRA.REPUL.0>
0

>  <SCORE.INTRA.SOLV>
-0.114609

>  <SCORE.INTRA.SOLV.lig_0>
-8.26396

>  <SCORE.INTRA.VDW>
0.0882197

>  <SCORE.INTRA.VDW.0>
-0.14052

>  <SCORE.INTRA.norm>
-0.00373003

>  <SCORE.RESTR>
0

>  <SCORE.RESTR.CAVITY>
0

>  <SCORE.RESTR.norm>
0

>  <SCORE.SYSTEM>
-20.5383

>  <SCORE.SYSTEM.CONST>
0

>  <SCORE.SYSTEM.DIHEDRAL>
4.06423

>  <SCORE.SYSTEM.POLAR>
-3.0123

>  <SCORE.SYSTEM.SOLV>
0.159663

>  <SCORE.SYSTEM.VDW>
-5.05912

>  <SCORE.SYSTEM.norm>
-2.28203

>  <SCORE.heavy>
9

>  <SCORE.norm>
-4.1531

$$$$
P23886423
 OpenBabel12072022113D
libRbt.so/2013.1/901 2013/11/27
 14 14  0  0  0  0  0  0  0  0999 V2000
    5.1241   18.4171    4.1386 C   0  0  0  0  0  0  0  0  0  0  0  0
    6.3770   18.6637    3.2919 C   0  0  2  0  0  0  0  0  0  0  0  0
    6.4342   17.4884    2.2966 C   0  0  1  0  0  0  0  0  0  0  0  0
    6.2237   16.2059    3.1052 C   0  0  0  0  0  0  0  0  0  0  0  0
    5.1138   16.6357    4.4878 S   0  0  0  0  0  0  0  0  0  0  0  0
    5.4102   17.6244    1.3043 O   0  0  0  0  0  0  0  0  0  0  0  0
    7.5893   18.7627    4.1065 N   0  0  0  0  0  0  0  0  0  0  0  0
    7.5574   19.3690    5.3256 C   0  0  0  0  0  0  0  0  0  0  0  0
    6.7202   20.1785    5.6912 O   0  0  0  0  0  0  0  0  0  0  0  0
    8.5895   18.9861    6.1151 N   0  0  0  0  0  0  0  0  0  0  0  0
    5.4913   18.5243    0.9392 H   0  0  0  0  0  0  0  0  0  0  0  0
    8.2720   18.0212    4.0250 H   0  0  0  0  0  0  0  0  0  0  0  0
    8.8580   19.6303    6.8455 H   0  0  0  0  0  0  0  0  0  0  0  0
    8.5242   18.0203    6.4144 H   0  0  0  0  0  0  0  0  0  0  0  0
  1  2  1  0  0  0  0
  1  5  1  0  0  0  0
  2  7  1  1  0  0  0
  2  3  1  0  0  0  0
  3  4  1  0  0  0  0
  3  6  1  6  0  0  0
  4  5  1  0  0  0  0
  6 11  1  0  0  0  0
  7  8  1  0  0  0  0
  7 12  1  0  0  0  0
  8  9  2  0  0  0  0
  8 10  1  0  0  0  0
 10 13  1  0  0  0  0
 10 14  1  0  0  0  0
M  END
>  <CHROM.0>
-57.86843531,-60.70640606,-75.90942874,-49.64835737,-176.23088338,-67.94804352
-172.33942038,-59.50431338,-167.68100149

>  <CHROM.1>
-37.00265160,51.44661643,-21.83514450,155.86292586,6.36698318,18.06735352
4.04220161,2.45631162,-0.87354825,-1.49087384

>  <Name>
P23886423

>  <RI>
2.22087e+07

>  <Rbt.Current_Directory>
/home/fstefaniak/projects/zuza/docking/adenine/4XNR

>  <Rbt.Executable>
rbdock ($Id: //depot/dev/client3/rdock/2013.1/src/exe/rbdock.cxx#4 $)

>  <Rbt.Library>
libRbt.so (2013.1, Build901 2013/11/27)

>  <Rbt.Parameter_File>
/home/fstefaniak/progs/rDock//data/scripts/dock_solv.prm

>  <Rbt.Receptor>
4xnr.prm

>  <SCORE>
-57.6967

>  <SCORE.INTER>
-38.5548

>  <SCORE.INTER.CONST>
1

>  <SCORE.INTER.POLAR>
-6.55925

>  <SCORE.INTER.ROT>
3

>  <SCORE.INTER.SOLV>
15.1523

>  <SCORE.INTER.VDW>
-14.4898

>  <SCORE.INTER.norm>
-3.85548

>  <SCORE.INTRA>
1.15354

>  <SCORE.INTRA.DIHEDRAL>
-0.00392543

>  <SCORE.INTRA.DIHEDRAL.0>
2.85762

>  <SCORE.INTRA.POLAR>
0

>  <SCORE.INTRA.POLAR.0>
0

>  <SCORE.INTRA.REPUL>
0

>  <SCORE.INTRA.REPUL.0>
0

>  <SCORE.INTRA.SOLV>
0.190017

>  <SCORE.INTRA.SOLV.lig_0>
-18.7476

>  <SCORE.INTRA.VDW>
1.0605

>  <SCORE.INTRA.VDW.0>
-0.809344

>  <SCORE.INTRA.norm>
0.115354

>  <SCORE.RESTR>
0

>  <SCORE.RESTR.CAVITY>
0

>  <SCORE.RESTR.norm>
0

>  <SCORE.SYSTEM>
-20.2954

>  <SCORE.SYSTEM.CONST>
0

>  <SCORE.SYSTEM.DIHEDRAL>
5.03315

>  <SCORE.SYSTEM.POLAR>
-2.90788

>  <SCORE.SYSTEM.SOLV>
0.0302684

>  <SCORE.SYSTEM.VDW>
-5.52513

>  <SCORE.SYSTEM.norm>
-2.02954

>  <SCORE.heavy>
10

>  <SCORE.norm>
-5.76967

$$$$
P23886423
 OpenBabel12072022113D
libRbt.so/2013.1/901 2013/11/27
 14 14  0  0  0  0  0  0  0  0999 V2000
    5.1495   18.4618    4.1321 C   0  0  0  0  0  0  0  0  0  0  0  0
    6.4152   18.6889    3.2991 C   0  0  2  0  0  0  0  0  0  0  0  0
    6.4615   17.5161    2.3001 C   0  0  1  0  0  0  0  0  0  0  0  0
    6.2198   16.2348    3.1017 C   0  0  0  0  0  0  0  0  0  0  0  0
    5.1037   16.6797    4.4746 S   0  0  0  0  0  0  0  0  0  0  0  0
    5.4502   17.6740    1.2979 O   0  0  0  0  0  0  0  0  0  0  0  0
    7.6207   18.7631    4.1263 N   0  0  0  0  0  0  0  0  0  0  0  0
    7.5646   19.2708    5.3887 C   0  0  0  0  0  0  0  0  0  0  0  0
    6.6597   19.9575    5.8353 O   0  0  0  0  0  0  0  0  0  0  0  0
    8.6556   18.9424    6.1216 N   0  0  0  0  0  0  0  0  0  0  0  0
    5.5192   18.5898    0.9719 H   0  0  0  0  0  0  0  0  0  0  0  0
    8.3278   18.0530    3.9912 H   0  0  0  0  0  0  0  0  0  0  0  0
    8.9582   19.6228    6.8044 H   0  0  0  0  0  0  0  0  0  0  0  0
    8.6319   17.9895    6.4650 H   0  0  0  0  0  0  0  0  0  0  0  0
  1  2  1  0  0  0  0
  1  5  1  0  0  0  0
  2  7  1  1  0  0  0
  2  3  1  0  0  0  0
  3  4  1  0  0  0  0
  3  6  1  6  0  0  0
  4  5  1  0  0  0  0
  6 11  1  0  0  0  0
  7  8  1  0  0  0  0
  7 12  1  0  0  0  0
  8  9  2  0  0  0  0
  8 10  1  0  0  0  0
 10 13  1  0  0  0  0
 10 14  1  0  0  0  0
M  END
>  <CHROM.0>
-58.56814616,55.44848542,-65.28724455,-49.25429634,-59.10957840,-51.50163753
-68.37642484,-65.12357001,-169.04383376

>  <CHROM.1>
-31.82040534,48.38030660,-17.26333999,147.21082788,6.38084209,18.05910631
4.06015854,2.36220975,-0.78886280,-1.56749421

>  <Name>
P23886423

>  <RI>
2.22087e+07

>  <Rbt.Current_Directory>
/home/fstefaniak/projects/zuza/docking/adenine/4XNR

>  <Rbt.Executable>
rbdock ($Id: //depot/dev/client3/rdock/2013.1/src/exe/rbdock.cxx#4 $)

>  <Rbt.Library>
libRbt.so (2013.1, Build901 2013/11/27)

>  <Rbt.Parameter_File>
/home/fstefaniak/progs/rDock//data/scripts/dock_solv.prm

>  <Rbt.Receptor>
4xnr.prm

>  <SCORE>
-57.5335

>  <SCORE.INTER>
-39.8658

>  <SCORE.INTER.CONST>
1

>  <SCORE.INTER.POLAR>
-6.65725

>  <SCORE.INTER.ROT>
3

>  <SCORE.INTER.SOLV>
14.8787

>  <SCORE.INTER.VDW>
-14.946

>  <SCORE.INTER.norm>
-3.98658

>  <SCORE.INTRA>
2.09688

>  <SCORE.INTRA.DIHEDRAL>
0.490488

>  <SCORE.INTRA.DIHEDRAL.0>
2.85762

>  <SCORE.INTRA.POLAR>
0

>  <SCORE.INTRA.POLAR.0>
0

>  <SCORE.INTRA.REPUL>
0

>  <SCORE.INTRA.REPUL.0>
0

>  <SCORE.INTRA.SOLV>
0.237586

>  <SCORE.INTRA.SOLV.lig_0>
-18.7476

>  <SCORE.INTRA.VDW>
1.73285

>  <SCORE.INTRA.VDW.0>
-0.809344

>  <SCORE.INTRA.norm>
0.209688

>  <SCORE.RESTR>
0

>  <SCORE.RESTR.CAVITY>
0

>  <SCORE.RESTR.norm>
0

>  <SCORE.SYSTEM>
-19.7646

>  <SCORE.SYSTEM.CONST>
0

>  <SCORE.SYSTEM.DIHEDRAL>
4.20606

>  <SCORE.SYSTEM.POLAR>
-2.97199

>  <SCORE.SYSTEM.SOLV>
0.381931

>  <SCORE.SYSTEM.VDW>
-4.79909

>  <SCORE.SYSTEM.norm>
-1.97646

>  <SCORE.heavy>
10

>  <SCORE.norm>
-5.75335

$$$$
P23886423
 OpenBabel12072022113D
libRbt.so/2013.1/901 2013/11/27
 14 14  0  0  0  0  0  0  0  0999 V2000
    5.1690   18.4541    4.1214 C   0  0  0  0  0  0  0  0  0  0  0  0
    6.4368   18.6743    3.2897 C   0  0  2  0  0  0  0  0  0  0  0  0
    6.4811   17.4978    2.2949 C   0  0  1  0  0  0  0  0  0  0  0  0
    6.2341   16.2202    3.1007 C   0  0  0  0  0  0  0  0  0  0  0  0
    5.1171   16.6733    4.4701 S   0  0  0  0  0  0  0  0  0  0  0  0
    5.4720   17.6552    1.2905 O   0  0  0  0  0  0  0  0  0  0  0  0
    7.6411   18.7478    4.1186 N   0  0  0  0  0  0  0  0  0  0  0  0
    7.5812   19.2443    5.3854 C   0  0  0  0  0  0  0  0  0  0  0  0
    6.6713   19.9208    5.8375 O   0  0  0  0  0  0  0  0  0  0  0  0
    8.6743   18.9174    6.1157 N   0  0  0  0  0  0  0  0  0  0  0  0
    5.5511   18.5664    0.9540 H   0  0  0  0  0  0  0  0  0  0  0  0
    8.3520   18.0425    3.9782 H   0  0  0  0  0  0  0  0  0  0  0  0
    8.9750   19.5964    6.8007 H   0  0  0  0  0  0  0  0  0  0  0  0
    8.6547   17.9632    6.4556 H   0  0  0  0  0  0  0  0  0  0  0  0
  1  2  1  0  0  0  0
  1  5  1  0  0  0  0
  2  7  1  1  0  0  0
  2  3  1  0  0  0  0
  3  4  1  0  0  0  0
  3  6  1  6  0  0  0
  4  5  1  0  0  0  0
  6 11  1  0  0  0  0
  7  8  1  0  0  0  0
  7 12  1  0  0  0  0
  8  9  2  0  0  0  0
  8 10  1  0  0  0  0
 10 13  1  0  0  0  0
 10 14  1  0  0  0  0
M  END
>  <CHROM.0>
-57.33695248,57.93774332,-71.40823064,-48.48711864,-63.02598429,-65.06921658
-170.60917087,-59.03660520,-167.91777006

>  <CHROM.1>
-30.97592460,49.02270518,-17.15311466,146.87793508,6.39822339,18.04183144
4.05490721,2.35213001,-0.77865823,-1.57660085

>  <Name>
P23886423

>  <RI>
2.22087e+07

>  <Rbt.Current_Directory>
/home/fstefaniak/projects/zuza/docking/adenine/4XNR

>  <Rbt.Executable>
rbdock ($Id: //depot/dev/client3/rdock/2013.1/src/exe/rbdock.cxx#4 $)

>  <Rbt.Library>
libRbt.so (2013.1, Build901 2013/11/27)

>  <Rbt.Parameter_File>
/home/fstefaniak/progs/rDock//data/scripts/dock_solv.prm

>  <Rbt.Receptor>
4xnr.prm

>  <SCORE>
-57.2598

>  <SCORE.INTER>
-39.9547

>  <SCORE.INTER.CONST>
1

>  <SCORE.INTER.POLAR>
-6.73089

>  <SCORE.INTER.ROT>
3

>  <SCORE.INTER.SOLV>
14.873

>  <SCORE.INTER.VDW>
-14.7578

>  <SCORE.INTER.norm>
-3.99547

>  <SCORE.INTRA>
2.16515

>  <SCORE.INTRA.DIHEDRAL>
0.453383

>  <SCORE.INTRA.DIHEDRAL.0>
2.85762

>  <SCORE.INTRA.POLAR>
0

>  <SCORE.INTRA.POLAR.0>
0

>  <SCORE.INTRA.REPUL>
0

>  <SCORE.INTRA.REPUL.0>
0

>  <SCORE.INTRA.SOLV>
0.247584

>  <SCORE.INTRA.SOLV.lig_0>
-18.7476

>  <SCORE.INTRA.VDW>
1.81467

>  <SCORE.INTRA.VDW.0>
-0.809344

>  <SCORE.INTRA.norm>
0.216515

>  <SCORE.RESTR>
0

>  <SCORE.RESTR.CAVITY>
0

>  <SCORE.RESTR.norm>
0

>  <SCORE.SYSTEM>
-19.4703

>  <SCORE.SYSTEM.CONST>
0

>  <SCORE.SYSTEM.DIHEDRAL>
4.58405

>  <SCORE.SYSTEM.POLAR>
-2.95782

>  <SCORE.SYSTEM.SOLV>
0.305721

>  <SCORE.SYSTEM.VDW>
-4.75075

>  <SCORE.SYSTEM.norm>
-1.94703

>  <SCORE.heavy>
10

>  <SCORE.norm>
-5.72598

$$$$
P23925466
 OpenBabel12072022113D
libRbt.so/2013.1/901 2013/11/27
 11 10  0  0  0  0  0  0  0  0999 V2000
    5.2121   17.4486    3.8529 C   0  0  0  0  0  0  0  0  0  0  0  0
    6.4750   17.7854    3.0763 C   0  0  0  0  0  0  0  0  0  0  0  0
    6.7204   17.3835    1.9372 O   0  0  0  0  0  0  0  0  0  0  0  0
    7.4306   18.5547    3.7057 N   0  0  0  0  0  0  0  0  0  0  0  0
    7.2328   19.3183    4.8228 C   0  0  0  0  0  0  0  0  0  0  0  0
    6.4086   20.2106    4.9510 O   0  0  0  0  0  0  0  0  0  0  0  0
    8.0945   19.0133    5.8308 N   0  0  0  0  0  0  0  0  0  0  0  0
    4.6025   15.8405    3.3966 Cl  0  0  0  0  0  0  0  0  0  0  0  0
    8.3515   18.1531    3.6148 H   0  0  0  0  0  0  0  0  0  0  0  0
    8.3937   19.7497    6.4550 H   0  0  0  0  0  0  0  0  0  0  0  0
    7.8905   18.1314    6.2889 H   0  0  0  0  0  0  0  0  0  0  0  0
  1  2  1  0  0  0  0
  1  8  1  0  0  0  0
  2  3  2  0  0  0  0
  2  4  1  0  0  0  0
  4  5  1  0  0  0  0
  4  9  1  0  0  0  0
  5  6  2  0  0  0  0
  5  7  1  0  0  0  0
  7 10  1  0  0  0  0
  7 11  1  0  0  0  0
M  END
>  <CHROM.0>
-56.50400462,-177.54782769,-73.25425692,-47.68655986,-62.79746067,-61.15926516
-68.65195699,-54.01954225,-167.67936335

>  <CHROM.1>
30.69684488,-17.17863435,-56.88757609,147.55455843,6.24933032,17.84240224
3.87885831,2.34414429,-0.67176413,-2.06543947

>  <Name>
P23925466

>  <RI>
1.34432e+07

>  <Rbt.Current_Directory>
/home/fstefaniak/projects/zuza/docking/adenine/4XNR

>  <Rbt.Executable>
rbdock ($Id: //depot/dev/client3/rdock/2013.1/src/exe/rbdock.cxx#4 $)

>  <Rbt.Library>
libRbt.so (2013.1, Build901 2013/11/27)

>  <Rbt.Parameter_File>
/home/fstefaniak/progs/rDock//data/scripts/dock_solv.prm

>  <Rbt.Receptor>
4xnr.prm

>  <SCORE>
-58.1186

>  <SCORE.INTER>
-36.9311

>  <SCORE.INTER.CONST>
1

>  <SCORE.INTER.POLAR>
-5.84399

>  <SCORE.INTER.ROT>
4

>  <SCORE.INTER.SOLV>
12.4187

>  <SCORE.INTER.VDW>
-15.547

>  <SCORE.INTER.norm>
-4.61639

>  <SCORE.INTRA>
-0.662834

>  <SCORE.INTRA.DIHEDRAL>
0.0917896

>  <SCORE.INTRA.DIHEDRAL.0>
2.71621

>  <SCORE.INTRA.POLAR>
0

>  <SCORE.INTRA.POLAR.0>
0

>  <SCORE.INTRA.REPUL>
0

>  <SCORE.INTRA.REPUL.0>
0

>  <SCORE.INTRA.SOLV>
0.0467523

>  <SCORE.INTRA.SOLV.lig_0>
-17.6601

>  <SCORE.INTRA.VDW>
-0.732105

>  <SCORE.INTRA.VDW.0>
0.336248

>  <SCORE.INTRA.norm>
-0.0828542

>  <SCORE.RESTR>
0

>  <SCORE.RESTR.CAVITY>
0

>  <SCORE.RESTR.norm>
0

>  <SCORE.SYSTEM>
-20.5247

>  <SCORE.SYSTEM.CONST>
0

>  <SCORE.SYSTEM.DIHEDRAL>
4.90096

>  <SCORE.SYSTEM.POLAR>
-2.98382

>  <SCORE.SYSTEM.SOLV>
0.250719

>  <SCORE.SYSTEM.VDW>
-5.45429

>  <SCORE.SYSTEM.norm>
-2.56559

>  <SCORE.heavy>
8

>  <SCORE.norm>
-7.26483

$$$$
P23925466
 OpenBabel12072022113D
libRbt.so/2013.1/901 2013/11/27
 11 10  0  0  0  0  0  0  0  0999 V2000
    5.2693   17.3736    3.9749 C   0  0  0  0  0  0  0  0  0  0  0  0
    6.5096   17.7168    3.1656 C   0  0  0  0  0  0  0  0  0  0  0  0
    6.7419   17.2911    2.0325 O   0  0  0  0  0  0  0  0  0  0  0  0
    7.4603   18.5219    3.7566 N   0  0  0  0  0  0  0  0  0  0  0  0
    7.2706   19.3007    4.8645 C   0  0  0  0  0  0  0  0  0  0  0  0
    6.4325   20.1798    4.9944 O   0  0  0  0  0  0  0  0  0  0  0  0
    8.1579   19.0290    5.8598 N   0  0  0  0  0  0  0  0  0  0  0  0
    4.5437   15.8538    3.4012 Cl  0  0  0  0  0  0  0  0  0  0  0  0
    8.3888   18.1424    3.6495 H   0  0  0  0  0  0  0  0  0  0  0  0
    8.4249   19.7724    6.4903 H   0  0  0  0  0  0  0  0  0  0  0  0
    8.0052   18.1321    6.3086 H   0  0  0  0  0  0  0  0  0  0  0  0
  1  2  1  0  0  0  0
  1  8  1  0  0  0  0
  2  3  2  0  0  0  0
  2  4  1  0  0  0  0
  4  5  1  0  0  0  0
  4  9  1  0  0  0  0
  5  6  2  0  0  0  0
  5  7  1  0  0  0  0
  7 10  1  0  0  0  0
  7 11  1  0  0  0  0
M  END
>  <CHROM.0>
-63.11343746,58.86937733,-68.47442759,-43.95544444,-63.73791544,-59.02051962
-69.71948427,-65.90140071,-167.77595608

>  <CHROM.1>
22.13834646,-16.57950789,-57.40109496,150.17972364,6.26252456,17.81445601
3.92921088,2.32003708,-0.60410149,-2.12156563

>  <Name>
P23925466

>  <RI>
1.34432e+07

>  <Rbt.Current_Directory>
/home/fstefaniak/projects/zuza/docking/adenine/4XNR

>  <Rbt.Executable>
rbdock ($Id: //depot/dev/client3/rdock/2013.1/src/exe/rbdock.cxx#4 $)

>  <Rbt.Library>
libRbt.so (2013.1, Build901 2013/11/27)

>  <Rbt.Parameter_File>
/home/fstefaniak/progs/rDock//data/scripts/dock_solv.prm

>  <Rbt.Receptor>
4xnr.prm

>  <SCORE>
-57.097

>  <SCORE.INTER>
-36.6008

>  <SCORE.INTER.CONST>
1

>  <SCORE.INTER.POLAR>
-5.80497

>  <SCORE.INTER.ROT>
4

>  <SCORE.INTER.SOLV>
12.4661

>  <SCORE.INTER.VDW>
-15.4727

>  <SCORE.INTER.norm>
-4.5751

>  <SCORE.INTRA>
-0.598973

>  <SCORE.INTRA.DIHEDRAL>
0.0889172

>  <SCORE.INTRA.DIHEDRAL.0>
2.71621

>  <SCORE.INTRA.POLAR>
0

>  <SCORE.INTRA.POLAR.0>
0

>  <SCORE.INTRA.REPUL>
0

>  <SCORE.INTRA.REPUL.0>
0

>  <SCORE.INTRA.SOLV>
0.0422347

>  <SCORE.INTRA.SOLV.lig_0>
-17.6601

>  <SCORE.INTRA.VDW>
-0.664549

>  <SCORE.INTRA.VDW.0>
0.336248

>  <SCORE.INTRA.norm>
-0.0748716

>  <SCORE.RESTR>
0

>  <SCORE.RESTR.CAVITY>
0

>  <SCORE.RESTR.norm>
0

>  <SCORE.SYSTEM>
-19.8972

>  <SCORE.SYSTEM.CONST>
0

>  <SCORE.SYSTEM.DIHEDRAL>
4.97945

>  <SCORE.SYSTEM.POLAR>
-3.00418

>  <SCORE.SYSTEM.SOLV>
0.342041

>  <SCORE.SYSTEM.VDW>
-5.02471

>  <SCORE.SYSTEM.norm>
-2.48715

>  <SCORE.heavy>
8

>  <SCORE.norm>
-7.13713

$$$$
P23925466
 OpenBabel12072022113D
libRbt.so/2013.1/901 2013/11/27
 11 10  0  0  0  0  0  0  0  0999 V2000
    5.2787   17.3610    3.9893 C   0  0  0  0  0  0  0  0  0  0  0  0
    6.4922   17.7354    3.1534 C   0  0  0  0  0  0  0  0  0  0  0  0
    6.6932   17.3431    2.0024 O   0  0  0  0  0  0  0  0  0  0  0  0
    7.4550   18.5305    3.7383 N   0  0  0  0  0  0  0  0  0  0  0  0
    7.2759   19.3245    4.8371 C   0  0  0  0  0  0  0  0  0  0  0  0
    6.4703   20.2363    4.9456 O   0  0  0  0  0  0  0  0  0  0  0  0
    8.1338   19.0263    5.8503 N   0  0  0  0  0  0  0  0  0  0  0  0
    4.7315   15.7129    3.6018 Cl  0  0  0  0  0  0  0  0  0  0  0  0
    8.3772   18.1339    3.6379 H   0  0  0  0  0  0  0  0  0  0  0  0
    8.3632   19.7460    6.5218 H   0  0  0  0  0  0  0  0  0  0  0  0
    7.9847   18.1074    6.2538 H   0  0  0  0  0  0  0  0  0  0  0  0
  1  2  1  0  0  0  0
  1  8  1  0  0  0  0
  2  3  2  0  0  0  0
  2  4  1  0  0  0  0
  4  5  1  0  0  0  0
  4  9  1  0  0  0  0
  5  6  2  0  0  0  0
  5  7  1  0  0  0  0
  7 10  1  0  0  0  0
  7 11  1  0  0  0  0
M  END
>  <CHROM.0>
-57.06694830,-64.70680482,62.87121058,-46.27594046,-176.95672844,-63.79585442
53.10096230,-60.70019086,-168.49941313

>  <CHROM.1>
32.86339998,-19.78914779,-58.93569634,154.77345531,6.30621481,17.79318736
3.96693896,2.40611605,-0.77066413,-2.01411614

>  <Name>
P23925466

>  <RI>
1.34432e+07

>  <Rbt.Current_Directory>
/home/fstefaniak/projects/zuza/docking/adenine/4XNR

>  <Rbt.Executable>
rbdock ($Id: //depot/dev/client3/rdock/2013.1/src/exe/rbdock.cxx#4 $)

>  <Rbt.Library>
libRbt.so (2013.1, Build901 2013/11/27)

>  <Rbt.Parameter_File>
/home/fstefaniak/progs/rDock//data/scripts/dock_solv.prm

>  <Rbt.Receptor>
4xnr.prm

>  <SCORE>
-56.3118

>  <SCORE.INTER>
-36.5841

>  <SCORE.INTER.CONST>
1

>  <SCORE.INTER.POLAR>
-5.84359

>  <SCORE.INTER.ROT>
4

>  <SCORE.INTER.SOLV>
12.52

>  <SCORE.INTER.VDW>
-15.3507

>  <SCORE.INTER.norm>
-4.57301

>  <SCORE.INTRA>
-0.74665

>  <SCORE.INTRA.DIHEDRAL>
0.0956272

>  <SCORE.INTRA.DIHEDRAL.0>
2.71621

>  <SCORE.INTRA.POLAR>
0

>  <SCORE.INTRA.POLAR.0>
0

>  <SCORE.INTRA.REPUL>
0

>  <SCORE.INTRA.REPUL.0>
0

>  <SCORE.INTRA.SOLV>
0.0588648

>  <SCORE.INTRA.SOLV.lig_0>
-17.6601

>  <SCORE.INTRA.VDW>
-0.823895

>  <SCORE.INTRA.VDW.0>
0.336248

>  <SCORE.INTRA.norm>
-0.0933312

>  <SCORE.RESTR>
0

>  <SCORE.RESTR.CAVITY>
0

>  <SCORE.RESTR.norm>
0

>  <SCORE.SYSTEM>
-18.9811

>  <SCORE.SYSTEM.CONST>
0

>  <SCORE.SYSTEM.DIHEDRAL>
4.09602

>  <SCORE.SYSTEM.POLAR>
-2.98378

>  <SCORE.SYSTEM.SOLV>
0.0121093

>  <SCORE.SYSTEM.VDW>
-4.07749

>  <SCORE.SYSTEM.norm>
-2.37264

>  <SCORE.heavy>
8

>  <SCORE.norm>
-7.03897

$$$$
P23933286
 OpenBabel12072022113D
libRbt.so/2013.1/901 2013/11/27
 15 15  0  0  0  0  0  0  0  0999 V2000
    3.1691   14.0204    3.6404 C   0  0  0  0  0  0  0  0  0  0  0  0
    2.8097   15.4153    3.4000 N   0  0  0  0  0  0  0  0  0  0  0  0
    1.4075   15.6693    3.7204 C   0  0  0  0  0  0  0  0  0  0  0  0
    3.6514   16.2805    4.1199 N   0  0  0  0  0  0  0  0  0  0  0  0
    4.7627   16.8502    3.5203 C   0  0  0  0  0  0  0  0  0  0  0  0
    5.0959   16.6618    2.3521 O   0  0  0  0  0  0  0  0  0  0  0  0
    5.5908   17.7532    4.3866 C   0  0  0  0  0  0  0  0  0  0  0  0
    5.2825   17.7803    5.7580 C   0  0  0  0  0  0  0  0  0  0  0  0
    5.9996   18.5911    6.6405 C   0  0  0  0  0  0  0  0  0  0  0  0
    7.0370   19.3876    6.1645 C   0  0  0  0  0  0  0  0  0  0  0  0
    7.3595   19.3755    4.8074 C   0  0  0  0  0  0  0  0  0  0  0  0
    6.6408   18.5630    3.9225 C   0  0  0  0  0  0  0  0  0  0  0  0
    6.9882   18.5788    2.5946 O   0  0  0  0  0  0  0  0  0  0  0  0
    3.4557   16.4981    5.0966 H   0  0  0  0  0  0  0  0  0  0  0  0
    6.4450   17.9212    2.1239 H   0  0  0  0  0  0  0  0  0  0  0  0
  1  2  1  0  0  0  0
  2  3  1  0  0  0  0
  2  4  1  0  0  0  0
  4  5  1  0  0  0  0
  4 14  1  0  0  0  0
  5  6  2  0  0  0  0
  5  7  1  0  0  0  0
  7  8  2  0  0  0  0
  7 12  1  0  0  0  0
  8  9  1  0  0  0  0
  9 10  2  0  0  0  0
 10 11  1  0  0  0  0
 11 12  2  0  0  0  0
 12 13  1  0  0  0  0
 13 15  1  0  0  0  0
M  END
>  <CHROM.0>
-62.96152402,-65.75319552,-65.85919419,-45.91907883,-60.40963587,-62.97860255
-66.00347058,-176.75330978,-167.60175162

>  <CHROM.1>
96.02016825,9.11825961,-3.98299523,5.00008772,17.23359118,4.15499614,2.69776656
-0.64981508,-1.86434470

>  <Name>
P23933286

>  <RI>
3.4169e+07

>  <Rbt.Current_Directory>
/home/fstefaniak/projects/zuza/docking/adenine/4XNR

>  <Rbt.Executable>
rbdock ($Id: //depot/dev/client3/rdock/2013.1/src/exe/rbdock.cxx#4 $)

>  <Rbt.Library>
libRbt.so (2013.1, Build901 2013/11/27)

>  <Rbt.Parameter_File>
/home/fstefaniak/progs/rDock//data/scripts/dock_solv.prm

>  <Rbt.Receptor>
4xnr.prm

>  <SCORE>
-49.3753

>  <SCORE.INTER>
-31.5233

>  <SCORE.INTER.CONST>
1

>  <SCORE.INTER.POLAR>
-2.93527

>  <SCORE.INTER.ROT>
2

>  <SCORE.INTER.SOLV>
13.0147

>  <SCORE.INTER.VDW>
-20.5029

>  <SCORE.INTER.norm>
-2.42487

>  <SCORE.INTRA>
2.98275

>  <SCORE.INTRA.DIHEDRAL>
0.345872

>  <SCORE.INTRA.DIHEDRAL.0>
0.479735

>  <SCORE.INTRA.POLAR>
0.714694

>  <SCORE.INTRA.POLAR.0>
-0.714694

>  <SCORE.INTRA.REPUL>
0

>  <SCORE.INTRA.REPUL.0>
0

>  <SCORE.INTRA.SOLV>
-0.620551

>  <SCORE.INTRA.SOLV.lig_0>
-17.5326

>  <SCORE.INTRA.VDW>
0.690135

>  <SCORE.INTRA.VDW.0>
0.162251

>  <SCORE.INTRA.norm>
0.229443

>  <SCORE.RESTR>
0

>  <SCORE.RESTR.CAVITY>
0

>  <SCORE.RESTR.norm>
0

>  <SCORE.SYSTEM>
-20.8347

>  <SCORE.SYSTEM.CONST>
0

>  <SCORE.SYSTEM.DIHEDRAL>
4.32843

>  <SCORE.SYSTEM.POLAR>
-2.97757

>  <SCORE.SYSTEM.SOLV>
0.142121

>  <SCORE.SYSTEM.VDW>
-5.45478

>  <SCORE.SYSTEM.norm>
-1.60267

>  <SCORE.heavy>
13

>  <SCORE.norm>
-3.7981

$$$$
P23933286
 OpenBabel12072022113D
libRbt.so/2013.1/901 2013/11/27
 15 15  0  0  0  0  0  0  0  0999 V2000
    3.2485   13.9439    3.6442 C   0  0  0  0  0  0  0  0  0  0  0  0
    2.8732   15.3339    3.4001 N   0  0  0  0  0  0  0  0  0  0  0  0
    1.4666   15.5713    3.7139 C   0  0  0  0  0  0  0  0  0  0  0  0
    3.7011   16.2105    4.1223 N   0  0  0  0  0  0  0  0  0  0  0  0
    4.7943   16.8113    3.5198 C   0  0  0  0  0  0  0  0  0  0  0  0
    5.1220   16.6426    2.3470 O   0  0  0  0  0  0  0  0  0  0  0  0
    5.6090   17.7238    4.3889 C   0  0  0  0  0  0  0  0  0  0  0  0
    5.3179   17.7226    5.7643 C   0  0  0  0  0  0  0  0  0  0  0  0
    6.0244   18.5395    6.6497 C   0  0  0  0  0  0  0  0  0  0  0  0
    7.0336   19.3707    6.1725 C   0  0  0  0  0  0  0  0  0  0  0  0
    7.3386   19.3872    4.8114 C   0  0  0  0  0  0  0  0  0  0  0  0
    6.6306   18.5685    3.9237 C   0  0  0  0  0  0  0  0  0  0  0  0
    6.9601   18.6130    2.5919 O   0  0  0  0  0  0  0  0  0  0  0  0
    3.5087   16.4133    5.1028 H   0  0  0  0  0  0  0  0  0  0  0  0
    6.3125   18.0821    2.0941 H   0  0  0  0  0  0  0  0  0  0  0  0
  1  2  1  0  0  0  0
  2  3  1  0  0  0  0
  2  4  1  0  0  0  0
  4  5  1  0  0  0  0
  4 14  1  0  0  0  0
  5  6  2  0  0  0  0
  5  7  1  0  0  0  0
  7  8  2  0  0  0  0
  7 12  1  0  0  0  0
  8  9  1  0  0  0  0
  9 10  2  0  0  0  0
 10 11  1  0  0  0  0
 11 12  2  0  0  0  0
 12 13  1  0  0  0  0
 13 15  1  0  0  0  0
M  END
>  <CHROM.0>
-52.90316130,-64.53814929,-65.31008401,-48.20165841,-59.57735542,-62.97468274
-68.56952787,-60.35911661,-167.95869393

>  <CHROM.1>
97.18136339,9.56191649,7.14913078,5.02507786,17.19657504,4.15633507,2.70768868
-0.67806330,-1.84012636

>  <Name>
P23933286

>  <RI>
3.4169e+07

>  <Rbt.Current_Directory>
/home/fstefaniak/projects/zuza/docking/adenine/4XNR

>  <Rbt.Executable>
rbdock ($Id: //depot/dev/client3/rdock/2013.1/src/exe/rbdock.cxx#4 $)

>  <Rbt.Library>
libRbt.so (2013.1, Build901 2013/11/27)

>  <Rbt.Parameter_File>
/home/fstefaniak/progs/rDock//data/scripts/dock_solv.prm

>  <Rbt.Receptor>
4xnr.prm

>  <SCORE>
-49.3475

>  <SCORE.INTER>
-31.4379

>  <SCORE.INTER.CONST>
1

>  <SCORE.INTER.POLAR>
-2.95705

>  <SCORE.INTER.ROT>
2

>  <SCORE.INTER.SOLV>
13.0054

>  <SCORE.INTER.VDW>
-20.3702

>  <SCORE.INTER.norm>
-2.4183

>  <SCORE.INTRA>
2.9758

>  <SCORE.INTRA.DIHEDRAL>
0.42861

>  <SCORE.INTRA.DIHEDRAL.0>
0.479735

>  <SCORE.INTRA.POLAR>
0.714694

>  <SCORE.INTRA.POLAR.0>
-0.714694

>  <SCORE.INTRA.REPUL>
0

>  <SCORE.INTRA.REPUL.0>
0

>  <SCORE.INTRA.SOLV>
-0.622549

>  <SCORE.INTRA.SOLV.lig_0>
-17.5326

>  <SCORE.INTRA.VDW>
0.642811

>  <SCORE.INTRA.VDW.0>
0.162251

>  <SCORE.INTRA.norm>
0.228908

>  <SCORE.RESTR>
0

>  <SCORE.RESTR.CAVITY>
0

>  <SCORE.RESTR.norm>
0

>  <SCORE.SYSTEM>
-20.8854

>  <SCORE.SYSTEM.CONST>
0

>  <SCORE.SYSTEM.DIHEDRAL>
4.24958

>  <SCORE.SYSTEM.POLAR>
-3.01433

>  <SCORE.SYSTEM.SOLV>
0.28425

>  <SCORE.SYSTEM.VDW>
-5.38713

>  <SCORE.SYSTEM.norm>
-1.60657

>  <SCORE.heavy>
13

>  <SCORE.norm>
-3.79596

$$$$
P23933286
 OpenBabel12072022113D
libRbt.so/2013.1/901 2013/11/27
 15 15  0  0  0  0  0  0  0  0999 V2000
    3.3124   13.9897    3.4993 C   0  0  0  0  0  0  0  0  0  0  0  0
    2.8700   15.3730    3.3457 N   0  0  0  0  0  0  0  0  0  0  0  0
    1.4702   15.5327    3.7306 C   0  0  0  0  0  0  0  0  0  0  0  0
    3.6925   16.2461    4.0782 N   0  0  0  0  0  0  0  0  0  0  0  0
    4.7994   16.8371    3.4913 C   0  0  0  0  0  0  0  0  0  0  0  0
    5.1446   16.6621    2.3245 O   0  0  0  0  0  0  0  0  0  0  0  0
    5.6065   17.7468    4.3704 C   0  0  0  0  0  0  0  0  0  0  0  0
    5.2856   17.7612    5.7391 C   0  0  0  0  0  0  0  0  0  0  0  0
    5.9830   18.5769    6.6328 C   0  0  0  0  0  0  0  0  0  0  0  0
    7.0128   19.3912    6.1709 C   0  0  0  0  0  0  0  0  0  0  0  0
    7.3475   19.3920    4.8167 C   0  0  0  0  0  0  0  0  0  0  0  0
    6.6486   18.5746    3.9205 C   0  0  0  0  0  0  0  0  0  0  0  0
    7.0076   18.6035    2.5960 O   0  0  0  0  0  0  0  0  0  0  0  0
    3.4858   16.4537    5.0548 H   0  0  0  0  0  0  0  0  0  0  0  0
    6.5280   17.8957    2.1290 H   0  0  0  0  0  0  0  0  0  0  0  0
  1  2  1  0  0  0  0
  2  3  1  0  0  0  0
  2  4  1  0  0  0  0
  4  5  1  0  0  0  0
  4 14  1  0  0  0  0
  5  6  2  0  0  0  0
  5  7  1  0  0  0  0
  7  8  2  0  0  0  0
  7 12  1  0  0  0  0
  8  9  1  0  0  0  0
  9 10  2  0  0  0  0
 10 11  1  0  0  0  0
 11 12  2  0  0  0  0
 12 13  1  0  0  0  0
 13 15  1  0  0  0  0
M  END
>  <CHROM.0>
-59.98308739,-62.81008329,-68.37747056,-47.98601119,-60.44781623,-65.48714078
-69.77117092,-62.28060559,-168.16802486

>  <CHROM.1>
91.72698350,9.01832396,-8.23219157,5.03227260,17.21404277,4.13014550,-2.67205302
0.66101589,1.26026202

>  <Name>
P23933286

>  <RI>
3.4169e+07

>  <Rbt.Current_Directory>
/home/fstefaniak/projects/zuza/docking/adenine/4XNR

>  <Rbt.Executable>
rbdock ($Id: //depot/dev/client3/rdock/2013.1/src/exe/rbdock.cxx#4 $)

>  <Rbt.Library>
libRbt.so (2013.1, Build901 2013/11/27)

>  <Rbt.Parameter_File>
/home/fstefaniak/progs/rDock//data/scripts/dock_solv.prm

>  <Rbt.Receptor>
4xnr.prm

>  <SCORE>
-49.2568

>  <SCORE.INTER>
-31.3936

>  <SCORE.INTER.CONST>
1

>  <SCORE.INTER.POLAR>
-3.02854

>  <SCORE.INTER.ROT>
2

>  <SCORE.INTER.SOLV>
13.1035

>  <SCORE.INTER.VDW>
-20.1351

>  <SCORE.INTER.norm>
-2.41489

>  <SCORE.INTRA>
3.09448

>  <SCORE.INTRA.DIHEDRAL>
0.414392

>  <SCORE.INTRA.DIHEDRAL.0>
0.479735

>  <SCORE.INTRA.POLAR>
0.714694

>  <SCORE.INTRA.POLAR.0>
-0.714694

>  <SCORE.INTRA.REPUL>
0

>  <SCORE.INTRA.REPUL.0>
0

>  <SCORE.INTRA.SOLV>
-0.615625

>  <SCORE.INTRA.SOLV.lig_0>
-17.5326

>  <SCORE.INTRA.VDW>
0.765143

>  <SCORE.INTRA.VDW.0>
0.162251

>  <SCORE.INTRA.norm>
0.238037

>  <SCORE.RESTR>
0

>  <SCORE.RESTR.CAVITY>
0

>  <SCORE.RESTR.norm>
0

>  <SCORE.SYSTEM>
-20.9577

>  <SCORE.SYSTEM.CONST>
0

>  <SCORE.SYSTEM.DIHEDRAL>
4.36625

>  <SCORE.SYSTEM.POLAR>
-2.9547

>  <SCORE.SYSTEM.SOLV>
0.257311

>  <SCORE.SYSTEM.VDW>
-5.66398

>  <SCORE.SYSTEM.norm>
-1.61213

>  <SCORE.heavy>
13

>  <SCORE.norm>
-3.78899

$$$$
P23936416
 OpenBabel12072022113D
libRbt.so/2013.1/901 2013/11/27
 10 10  0  0  0  0  0  0  0  0999 V2000
    7.0217   18.0891    1.7560 C   0  0  0  0  0  0  0  0  0  0  0  0
    5.9860   17.8137    2.7601 N   0  3  2  0  0  0  0  0  0  0  0  0
    5.0317   17.9730    2.3359 H   0  0  0  0  0  0  0  0  0  0  0  0
    5.9309   18.6937    3.9736 C   0  0  0  0  0  0  0  0  0  0  0  0
    5.3347   17.8195    5.0736 C   0  0  0  0  0  0  0  0  0  0  0  0
    4.9053   16.5261    4.4027 C   0  0  2  0  0  0  0  0  0  0  0  0
    5.8613   16.3878    3.2429 C   0  0  0  0  0  0  0  0  0  0  0  0
    3.5773   16.5961    3.6519 C   0  0  0  0  0  0  0  0  0  0  0  0
    3.6054   17.2481    2.5831 O   0  0  0  0  0  0  0  0  0  0  0  0
    2.6014   16.0830    4.2823 O   0  5  0  0  0  0  0  0  0  0  0  0
  1  2  1  0  0  0  0
  2  3  1  6  0  0  0
  2  4  1  0  0  0  0
  2  7  1  0  0  0  0
  4  5  1  0  0  0  0
  5  6  1  0  0  0  0
  6  7  1  0  0  0  0
  6  8  1  6  0  0  0
  8  9  2  0  0  0  0
  8 10  1  0  0  0  0
M  CHG  2   2   1  10  -1
M  END
>  <CHROM.0>
-61.58524300,67.41167091,-66.02023370,-48.63032498,61.03929442,-63.14179821
-68.89849540,-60.52083005,-167.97200229

>  <CHROM.1>
72.07476767,4.96177346,17.26088761,3.49050275,0.31400734,-0.48094636,-1.65213304

>  <Name>
P23936416

>  <RI>
4.17015e+07

>  <Rbt.Current_Directory>
/home/fstefaniak/projects/zuza/docking/adenine/4XNR

>  <Rbt.Executable>
rbdock ($Id: //depot/dev/client3/rdock/2013.1/src/exe/rbdock.cxx#4 $)

>  <Rbt.Library>
libRbt.so (2013.1, Build901 2013/11/27)

>  <Rbt.Parameter_File>
/home/fstefaniak/progs/rDock//data/scripts/dock_solv.prm

>  <Rbt.Receptor>
4xnr.prm

>  <SCORE>
-32.8486

>  <SCORE.INTER>
-15.0549

>  <SCORE.INTER.CONST>
1

>  <SCORE.INTER.POLAR>
-1.79054

>  <SCORE.INTER.ROT>
1

>  <SCORE.INTER.SOLV>
15.3821

>  <SCORE.INTER.VDW>
-13.4622

>  <SCORE.INTER.norm>
-1.67277

>  <SCORE.INTRA>
1.05994

>  <SCORE.INTRA.DIHEDRAL>
0.043707

>  <SCORE.INTRA.DIHEDRAL.0>
0.91618

>  <SCORE.INTRA.POLAR>
-0.374283

>  <SCORE.INTRA.POLAR.0>
-0.178465

>  <SCORE.INTRA.REPUL>
0

>  <SCORE.INTRA.REPUL.0>
0

>  <SCORE.INTRA.SOLV>
0.0543994

>  <SCORE.INTRA.SOLV.lig_0>
-37.3311

>  <SCORE.INTRA.VDW>
2.28345

>  <SCORE.INTRA.VDW.0>
1.26299

>  <SCORE.INTRA.norm>
0.117771

>  <SCORE.RESTR>
0

>  <SCORE.RESTR.CAVITY>
0

>  <SCORE.RESTR.norm>
0

>  <SCORE.SYSTEM>
-18.8537

>  <SCORE.SYSTEM.CONST>
0

>  <SCORE.SYSTEM.DIHEDRAL>
4.22076

>  <SCORE.SYSTEM.POLAR>
-2.94073

>  <SCORE.SYSTEM.SOLV>
0.105986

>  <SCORE.SYSTEM.VDW>
-4.20891

>  <SCORE.SYSTEM.norm>
-2.09485

>  <SCORE.heavy>
9

>  <SCORE.norm>
-3.64985

$$$$
P23936416
 OpenBabel12072022113D
libRbt.so/2013.1/901 2013/11/27
 10 10  0  0  0  0  0  0  0  0999 V2000
    0.5456   16.5843    4.5380 C   0  0  0  0  0  0  0  0  0  0  0  0
    1.5899   15.5521    4.5164 N   0  3  2  0  0  0  0  0  0  0  0  0
    1.7985   15.2400    5.5037 H   0  0  0  0  0  0  0  0  0  0  0  0
    2.9529   15.9405    4.0251 C   0  0  0  0  0  0  0  0  0  0  0  0
    3.5523   14.6575    3.4556 C   0  0  0  0  0  0  0  0  0  0  0  0
    2.5802   13.5434    3.8033 C   0  0  2  0  0  0  0  0  0  0  0  0
    1.2413   14.2381    3.8577 C   0  0  0  0  0  0  0  0  0  0  0  0
    2.6748   13.0255    5.2369 C   0  0  0  0  0  0  0  0  0  0  0  0
    3.1737   13.8274    6.0591 O   0  0  0  0  0  0  0  0  0  0  0  0
    2.3441   11.8062    5.3671 O   0  5  0  0  0  0  0  0  0  0  0  0
  1  2  1  0  0  0  0
  2  3  1  1  0  0  0
  2  4  1  0  0  0  0
  2  7  1  0  0  0  0
  4  5  1  0  0  0  0
  5  6  1  0  0  0  0
  6  7  1  0  0  0  0
  6  8  1  1  0  0  0
  8  9  2  0  0  0  0
  8 10  1  0  0  0  0
M  CHG  2   2   1  10  -1
M  END
>  <CHROM.0>
-58.42824308,-69.52312044,-63.72491296,-44.91663769,-60.43695467,-62.79799160
-68.06630399,-60.59733296,-167.99539902

>  <CHROM.1>
23.16971429,2.28358295,14.35703358,4.57813635,1.92093633,0.39074922,-0.42910567

>  <Name>
P23936416

>  <RI>
4.17015e+07

>  <Rbt.Current_Directory>
/home/fstefaniak/projects/zuza/docking/adenine/4XNR

>  <Rbt.Executable>
rbdock ($Id: //depot/dev/client3/rdock/2013.1/src/exe/rbdock.cxx#4 $)

>  <Rbt.Library>
libRbt.so (2013.1, Build901 2013/11/27)

>  <Rbt.Parameter_File>
/home/fstefaniak/progs/rDock//data/scripts/dock_solv.prm

>  <Rbt.Receptor>
4xnr.prm

>  <SCORE>
-32.8319

>  <SCORE.INTER>
-11.7845

>  <SCORE.INTER.CONST>
1

>  <SCORE.INTER.POLAR>
-1.70722

>  <SCORE.INTER.ROT>
1

>  <SCORE.INTER.SOLV>
17.8009

>  <SCORE.INTER.VDW>
-12.3659

>  <SCORE.INTER.norm>
-1.30939

>  <SCORE.INTRA>
-0.264489

>  <SCORE.INTRA.DIHEDRAL>
0.279895

>  <SCORE.INTRA.DIHEDRAL.0>
0.91618

>  <SCORE.INTRA.POLAR>
0.178465

>  <SCORE.INTRA.POLAR.0>
-0.178465

>  <SCORE.INTRA.REPUL>
0

>  <SCORE.INTRA.REPUL.0>
0

>  <SCORE.INTRA.SOLV>
-0.586298

>  <SCORE.INTRA.SOLV.lig_0>
-37.3311

>  <SCORE.INTRA.VDW>
-0.71807

>  <SCORE.INTRA.VDW.0>
1.26299

>  <SCORE.INTRA.norm>
-0.0293877

>  <SCORE.RESTR>
0

>  <SCORE.RESTR.CAVITY>
0

>  <SCORE.RESTR.norm>
0

>  <SCORE.SYSTEM>
-20.7829

>  <SCORE.SYSTEM.CONST>
0

>  <SCORE.SYSTEM.DIHEDRAL>
4.64337

>  <SCORE.SYSTEM.POLAR>
-3.0197

>  <SCORE.SYSTEM.SOLV>
0.281682

>  <SCORE.SYSTEM.VDW>
-5.43131

>  <SCORE.SYSTEM.norm>
-2.30922

>  <SCORE.heavy>
9

>  <SCORE.norm>
-3.64799

$$$$
P23936416
 OpenBabel12072022113D
libRbt.so/2013.1/901 2013/11/27
 10 10  0  0  0  0  0  0  0  0999 V2000
    0.5386   16.6043    4.5343 C   0  0  0  0  0  0  0  0  0  0  0  0
    1.5905   15.5798    4.5118 N   0  3  2  0  0  0  0  0  0  0  0  0
    1.7909   15.2577    5.4976 H   0  0  0  0  0  0  0  0  0  0  0  0
    2.9558   15.9836    4.0396 C   0  0  0  0  0  0  0  0  0  0  0  0
    3.5704   14.7116    3.4616 C   0  0  0  0  0  0  0  0  0  0  0  0
    2.6027   13.5866    3.7861 C   0  0  2  0  0  0  0  0  0  0  0  0
    1.2584   14.2712    3.8342 C   0  0  0  0  0  0  0  0  0  0  0  0
    2.6859   13.0528    5.2144 C   0  0  0  0  0  0  0  0  0  0  0  0
    3.2238   13.8259    6.0396 O   0  0  0  0  0  0  0  0  0  0  0  0
    2.3054   11.8472    5.3368 O   0  5  0  0  0  0  0  0  0  0  0  0
  1  2  1  0  0  0  0
  2  3  1  1  0  0  0
  2  4  1  0  0  0  0
  2  7  1  0  0  0  0
  4  5  1  0  0  0  0
  5  6  1  0  0  0  0
  6  7  1  0  0  0  0
  6  8  1  1  0  0  0
  8  9  2  0  0  0  0
  8 10  1  0  0  0  0
M  CHG  2   2   1  10  -1
M  END
>  <CHROM.0>
-56.90448461,-69.04481912,-64.84970927,-47.12523607,-58.54592689,-61.95324135
-67.33858476,-57.12910020,-168.36040352

>  <CHROM.1>
20.17772560,2.29162699,14.38844851,4.56684726,1.91545184,0.33840995,-0.40614094

>  <Name>
P23936416

>  <RI>
4.17015e+07

>  <Rbt.Current_Directory>
/home/fstefaniak/projects/zuza/docking/adenine/4XNR

>  <Rbt.Executable>
rbdock ($Id: //depot/dev/client3/rdock/2013.1/src/exe/rbdock.cxx#4 $)

>  <Rbt.Library>
libRbt.so (2013.1, Build901 2013/11/27)

>  <Rbt.Parameter_File>
/home/fstefaniak/progs/rDock//data/scripts/dock_solv.prm

>  <Rbt.Receptor>
4xnr.prm

>  <SCORE>
-32.7321

>  <SCORE.INTER>
-11.6819

>  <SCORE.INTER.CONST>
1

>  <SCORE.INTER.POLAR>
-1.70051

>  <SCORE.INTER.ROT>
1

>  <SCORE.INTER.SOLV>
17.8346

>  <SCORE.INTER.VDW>
-12.3311

>  <SCORE.INTER.norm>
-1.29799

>  <SCORE.INTRA>
-0.29636

>  <SCORE.INTRA.DIHEDRAL>
0.270078

>  <SCORE.INTRA.DIHEDRAL.0>
0.91618

>  <SCORE.INTRA.POLAR>
0.178465

>  <SCORE.INTRA.POLAR.0>
-0.178465

>  <SCORE.INTRA.REPUL>
0

>  <SCORE.INTRA.REPUL.0>
0

>  <SCORE.INTRA.SOLV>
-0.637872

>  <SCORE.INTRA.SOLV.lig_0>
-37.3311

>  <SCORE.INTRA.VDW>
-0.719245

>  <SCORE.INTRA.VDW.0>
1.26299

>  <SCORE.INTRA.norm>
-0.0329289

>  <SCORE.RESTR>
0

>  <SCORE.RESTR.CAVITY>
0

>  <SCORE.RESTR.norm>
0

>  <SCORE.SYSTEM>
-20.7538

>  <SCORE.SYSTEM.CONST>
0

>  <SCORE.SYSTEM.DIHEDRAL>
4.34696

>  <SCORE.SYSTEM.POLAR>
-3.00045

>  <SCORE.SYSTEM.SOLV>
0.289843

>  <SCORE.SYSTEM.VDW>
-5.37998

>  <SCORE.SYSTEM.norm>
-2.30598

>  <SCORE.heavy>
9

>  <SCORE.norm>
-3.6369

$$$$
P23938388
 OpenBabel12072022113D
libRbt.so/2013.1/901 2013/11/27
 11 10  0  0  0  0  0  0  0  0999 V2000
    3.0366   13.1116    3.6167 C   0  0  0  0  0  0  0  0  0  0  0  0
    3.6929   14.1775    4.4823 C   0  0  0  0  0  0  0  0  0  0  0  0
    3.6409   15.5081    3.8743 N   0  0  0  0  0  0  0  0  0  0  0  0
    2.3459   16.1776    3.8932 C   0  0  0  0  0  0  0  0  0  0  0  0
    4.8519   16.2080    3.7802 C   0  0  0  0  0  0  0  0  0  0  0  0
    5.5625   16.1599    2.7809 O   0  0  0  0  0  0  0  0  0  0  0  0
    5.1211   17.0086    4.8641 N   0  0  0  0  0  0  0  0  0  0  0  0
    5.8035   18.2031    4.7707 C   0  0  0  0  0  0  0  0  0  0  0  0
    6.2483   18.6927    3.7387 O   0  0  0  0  0  0  0  0  0  0  0  0
    6.1488   18.7777    6.1199 C   0  0  0  0  0  0  0  0  0  0  0  0
    4.4628   16.9088    5.6167 H   0  0  0  0  0  0  0  0  0  0  0  0
  1  2  1  0  0  0  0
  2  3  1  0  0  0  0
  3  4  1  0  0  0  0
  3  5  1  0  0  0  0
  5  6  2  0  0  0  0
  5  7  1  0  0  0  0
  7  8  1  0  0  0  0
  7 11  1  0  0  0  0
  8  9  2  0  0  0  0
  8 10  1  0  0  0  0
M  END
>  <CHROM.0>
-64.25691710,-61.71926502,-67.27815995,-47.05624986,-60.19898491,-63.95296263
-68.34769023,-60.45989857,-168.90366345

>  <CHROM.1>
74.22758531,93.09014661,-147.10194490,-0.09436504,4.64261677,16.40363742
4.18152548,-2.39753607,0.72633499,0.86402031

>  <Name>
P23938388

>  <RI>
4.17015e+07

>  <Rbt.Current_Directory>
/home/fstefaniak/projects/zuza/docking/adenine/4XNR

>  <Rbt.Executable>
rbdock ($Id: //depot/dev/client3/rdock/2013.1/src/exe/rbdock.cxx#4 $)

>  <Rbt.Library>
libRbt.so (2013.1, Build901 2013/11/27)

>  <Rbt.Parameter_File>
/home/fstefaniak/progs/rDock//data/scripts/dock_solv.prm

>  <Rbt.Receptor>
4xnr.prm

>  <SCORE>
-43.2697

>  <SCORE.INTER>
-20.2052

>  <SCORE.INTER.CONST>
1

>  <SCORE.INTER.POLAR>
-2.09684

>  <SCORE.INTER.ROT>
4

>  <SCORE.INTER.SOLV>
10.503

>  <SCORE.INTER.VDW>
-16.2484

>  <SCORE.INTER.norm>
-2.02052

>  <SCORE.INTRA>
-2.1938

>  <SCORE.INTRA.DIHEDRAL>
0.676553

>  <SCORE.INTRA.DIHEDRAL.0>
2.07448

>  <SCORE.INTRA.POLAR>
0

>  <SCORE.INTRA.POLAR.0>
0

>  <SCORE.INTRA.REPUL>
0

>  <SCORE.INTRA.REPUL.0>
0

>  <SCORE.INTRA.SOLV>
-0.0241709

>  <SCORE.INTRA.SOLV.lig_0>
-15.1388

>  <SCORE.INTRA.VDW>
-2.51999

>  <SCORE.INTRA.VDW.0>
2.89487

>  <SCORE.INTRA.norm>
-0.21938

>  <SCORE.RESTR>
0

>  <SCORE.RESTR.CAVITY>
0

>  <SCORE.RESTR.norm>
0

>  <SCORE.SYSTEM>
-20.8707

>  <SCORE.SYSTEM.CONST>
0

>  <SCORE.SYSTEM.DIHEDRAL>
4.1785

>  <SCORE.SYSTEM.POLAR>
-2.93151

>  <SCORE.SYSTEM.SOLV>
0.265347

>  <SCORE.SYSTEM.VDW>
-5.62339

>  <SCORE.SYSTEM.norm>
-2.08707

>  <SCORE.heavy>
10

>  <SCORE.norm>
-4.32697

$$$$
P23938388
 OpenBabel12072022113D
libRbt.so/2013.1/901 2013/11/27
 11 10  0  0  0  0  0  0  0  0999 V2000
    3.0530   13.1151    3.6519 C   0  0  0  0  0  0  0  0  0  0  0  0
    3.7106   14.2224    4.4628 C   0  0  0  0  0  0  0  0  0  0  0  0
    3.5868   15.5357    3.8279 N   0  0  0  0  0  0  0  0  0  0  0  0
    2.2593   16.1385    3.8428 C   0  0  0  0  0  0  0  0  0  0  0  0
    4.7598   16.2943    3.7104 C   0  0  0  0  0  0  0  0  0  0  0  0
    5.4187   16.3291    2.6759 O   0  0  0  0  0  0  0  0  0  0  0  0
    5.0501   17.0510    4.8201 N   0  0  0  0  0  0  0  0  0  0  0  0
    5.7486   18.2386    4.7637 C   0  0  0  0  0  0  0  0  0  0  0  0
    6.1665   18.7735    3.7430 O   0  0  0  0  0  0  0  0  0  0  0  0
    6.1484   18.7385    6.1275 C   0  0  0  0  0  0  0  0  0  0  0  0
    4.3975   16.9329    5.5749 H   0  0  0  0  0  0  0  0  0  0  0  0
  1  2  1  0  0  0  0
  2  3  1  0  0  0  0
  3  4  1  0  0  0  0
  3  5  1  0  0  0  0
  5  6  2  0  0  0  0
  5  7  1  0  0  0  0
  7  8  1  0  0  0  0
  7 11  1  0  0  0  0
  8  9  2  0  0  0  0
  8 10  1  0  0  0  0
M  END
>  <CHROM.0>
-57.10339341,-62.27083935,-66.83237947,-47.02119592,-58.01907716,-177.87378524
-69.11698243,-59.92412688,-167.86768028

>  <CHROM.1>
71.82682464,97.95008092,-151.31398628,1.53610677,4.58709264,16.44508511,4.15219530
2.54277442,-0.84446638,-2.07353489

>  <Name>
P23938388

>  <RI>
4.17015e+07

>  <Rbt.Current_Directory>
/home/fstefaniak/projects/zuza/docking/adenine/4XNR

>  <Rbt.Executable>
rbdock ($Id: //depot/dev/client3/rdock/2013.1/src/exe/rbdock.cxx#4 $)

>  <Rbt.Library>
libRbt.so (2013.1, Build901 2013/11/27)

>  <Rbt.Parameter_File>
/home/fstefaniak/progs/rDock//data/scripts/dock_solv.prm

>  <Rbt.Receptor>
4xnr.prm

>  <SCORE>
-42.8942

>  <SCORE.INTER>
-20.0296

>  <SCORE.INTER.CONST>
1

>  <SCORE.INTER.POLAR>
-2.09684

>  <SCORE.INTER.ROT>
4

>  <SCORE.INTER.SOLV>
10.3873

>  <SCORE.INTER.VDW>
-16.0927

>  <SCORE.INTER.norm>
-2.00296

>  <SCORE.INTRA>
-2.1554

>  <SCORE.INTRA.DIHEDRAL>
0.589403

>  <SCORE.INTRA.DIHEDRAL.0>
2.07448

>  <SCORE.INTRA.POLAR>
0

>  <SCORE.INTRA.POLAR.0>
0

>  <SCORE.INTRA.REPUL>
0

>  <SCORE.INTRA.REPUL.0>
0

>  <SCORE.INTRA.SOLV>
-0.03674

>  <SCORE.INTRA.SOLV.lig_0>
-15.1388

>  <SCORE.INTRA.VDW>
-2.43174

>  <SCORE.INTRA.VDW.0>
2.89487

>  <SCORE.INTRA.norm>
-0.21554

>  <SCORE.RESTR>
0

>  <SCORE.RESTR.CAVITY>
0

>  <SCORE.RESTR.norm>
0

>  <SCORE.SYSTEM>
-20.7093

>  <SCORE.SYSTEM.CONST>
0

>  <SCORE.SYSTEM.DIHEDRAL>
4.24865

>  <SCORE.SYSTEM.POLAR>
-2.99717

>  <SCORE.SYSTEM.SOLV>
0.172031

>  <SCORE.SYSTEM.VDW>
-5.28915

>  <SCORE.SYSTEM.norm>
-2.07093

>  <SCORE.heavy>
10

>  <SCORE.norm>
-4.28942

$$$$
P23938388
 OpenBabel12072022113D
libRbt.so/2013.1/901 2013/11/27
 11 10  0  0  0  0  0  0  0  0999 V2000
    6.0051   18.9170    5.5919 C   0  0  0  0  0  0  0  0  0  0  0  0
    5.5056   17.5918    5.0344 C   0  0  0  0  0  0  0  0  0  0  0  0
    5.4145   17.5934    3.5733 N   0  0  0  0  0  0  0  0  0  0  0  0
    6.6634   17.7921    2.8477 C   0  0  0  0  0  0  0  0  0  0  0  0
    4.3071   16.9455    3.0083 C   0  0  0  0  0  0  0  0  0  0  0  0
    3.5471   17.5064    2.2250 O   0  0  0  0  0  0  0  0  0  0  0  0
    4.2050   15.6169    3.3439 N   0  0  0  0  0  0  0  0  0  0  0  0
    3.0732   15.0635    3.9041 C   0  0  0  0  0  0  0  0  0  0  0  0
    1.9853   15.6180    4.0114 O   0  0  0  0  0  0  0  0  0  0  0  0
    3.3496   13.7475    4.5834 C   0  0  0  0  0  0  0  0  0  0  0  0
    4.7942   15.0132    2.7979 H   0  0  0  0  0  0  0  0  0  0  0  0
  1  2  1  0  0  0  0
  2  3  1  0  0  0  0
  3  4  1  0  0  0  0
  3  5  1  0  0  0  0
  5  6  2  0  0  0  0
  5  7  1  0  0  0  0
  7  8  1  0  0  0  0
  7 11  1  0  0  0  0
  8  9  2  0  0  0  0
  8 10  1  0  0  0  0
M  END
>  <CHROM.0>
-60.15001784,-61.75784806,-68.02373142,-46.41047542,-58.04396091,-63.56958186
-68.77141027,-172.67843017,-169.73467052

>  <CHROM.1>
62.00937051,125.21562149,125.80581671,9.97932117,4.40291789,16.64726829,3.80741083
-0.24656537,0.79482060,1.98194214

>  <Name>
P23938388

>  <RI>
4.17015e+07

>  <Rbt.Current_Directory>
/home/fstefaniak/projects/zuza/docking/adenine/4XNR

>  <Rbt.Executable>
rbdock ($Id: //depot/dev/client3/rdock/2013.1/src/exe/rbdock.cxx#4 $)

>  <Rbt.Library>
libRbt.so (2013.1, Build901 2013/11/27)

>  <Rbt.Parameter_File>
/home/fstefaniak/progs/rDock//data/scripts/dock_solv.prm

>  <Rbt.Receptor>
4xnr.prm

>  <SCORE>
-42.0947

>  <SCORE.INTER>
-19.5077

>  <SCORE.INTER.CONST>
1

>  <SCORE.INTER.POLAR>
-1.95917

>  <SCORE.INTER.ROT>
4

>  <SCORE.INTER.SOLV>
10.0391

>  <SCORE.INTER.VDW>
-16.0876

>  <SCORE.INTER.norm>
-1.95077

>  <SCORE.INTRA>
-1.8449

>  <SCORE.INTRA.DIHEDRAL>
0.315602

>  <SCORE.INTRA.DIHEDRAL.0>
2.07448

>  <SCORE.INTRA.POLAR>
0

>  <SCORE.INTRA.POLAR.0>
0

>  <SCORE.INTRA.REPUL>
0

>  <SCORE.INTRA.REPUL.0>
0

>  <SCORE.INTRA.SOLV>
0.0327288

>  <SCORE.INTRA.SOLV.lig_0>
-15.1388

>  <SCORE.INTRA.VDW>
-2.01907

>  <SCORE.INTRA.VDW.0>
2.89487

>  <SCORE.INTRA.norm>
-0.18449

>  <SCORE.RESTR>
0

>  <SCORE.RESTR.CAVITY>
0

>  <SCORE.RESTR.norm>
0

>  <SCORE.SYSTEM>
-20.7421

>  <SCORE.SYSTEM.CONST>
0

>  <SCORE.SYSTEM.DIHEDRAL>
4.42168

>  <SCORE.SYSTEM.POLAR>
-2.94366

>  <SCORE.SYSTEM.SOLV>
0.140579

>  <SCORE.SYSTEM.VDW>
-5.5366

>  <SCORE.SYSTEM.norm>
-2.07421

>  <SCORE.heavy>
10

>  <SCORE.norm>
-4.20947

$$$$
P23963563
 OpenBabel12072022113D
libRbt.so/2013.1/901 2013/11/27
 15 15  0  0  0  0  0  0  0  0999 V2000
    3.8490   14.7173    3.5213 C   0  0  0  0  0  0  0  0  0  0  0  0
    2.7280   13.8941    3.6854 C   0  0  0  0  0  0  0  0  0  0  0  0
    1.4603   14.4570    3.8475 C   0  0  0  0  0  0  0  0  0  0  0  0
    1.3297   15.8514    3.8488 C   0  0  0  0  0  0  0  0  0  0  0  0
    2.4487   16.6764    3.6839 C   0  0  0  0  0  0  0  0  0  0  0  0
    3.7148   16.1101    3.5085 C   0  0  0  0  0  0  0  0  0  0  0  0
    4.9394   16.9356    3.3331 C   0  0  0  0  0  0  0  0  0  0  0  0
    4.9606   18.1226    3.6321 O   0  0  0  0  0  0  0  0  0  0  0  0
    6.0606   16.3134    2.8592 N   0  0  0  0  0  0  0  0  0  0  0  0
    0.2899   13.7020    4.0174 N   0  0  0  0  0  0  0  0  0  0  0  0
    0.1744   12.3528    4.1791 C   0  0  0  0  0  0  0  0  0  0  0  0
   -0.9102   11.7991    4.3175 O   0  0  0  0  0  0  0  0  0  0  0  0
    6.4570   15.4909    3.2889 H   0  0  0  0  0  0  0  0  0  0  0  0
    6.6670   16.8742    2.2738 H   0  0  0  0  0  0  0  0  0  0  0  0
   -0.6011   14.1841    4.0274 H   0  0  0  0  0  0  0  0  0  0  0  0
  1  2  2  0  0  0  0
  1  6  1  0  0  0  0
  2  3  1  0  0  0  0
  3  4  2  0  0  0  0
  3 10  1  0  0  0  0
  4  5  1  0  0  0  0
  5  6  2  0  0  0  0
  6  7  1  0  0  0  0
  7  8  2  0  0  0  0
  7  9  1  0  0  0  0
  9 13  1  0  0  0  0
  9 14  1  0  0  0  0
 10 11  1  0  0  0  0
 10 15  1  0  0  0  0
 11 12  2  0  0  0  0
M  END
>  <CHROM.0>
-59.25302389,-60.34703680,-68.07565074,-43.18696508,-175.92848327,-177.29507894
-63.10698442,-58.94811544,-168.03909787

>  <CHROM.1>
6.60560160,-161.86786174,-54.41634888,2.58855277,15.06669878,3.70276257,-0.68202365
-0.19315915,-3.10364871

>  <Name>
P23963563

>  <RI>
3.51561e+07

>  <Rbt.Current_Directory>
/home/fstefaniak/projects/zuza/docking/adenine/4XNR

>  <Rbt.Executable>
rbdock ($Id: //depot/dev/client3/rdock/2013.1/src/exe/rbdock.cxx#4 $)

>  <Rbt.Library>
libRbt.so (2013.1, Build901 2013/11/27)

>  <Rbt.Parameter_File>
/home/fstefaniak/progs/rDock//data/scripts/dock_solv.prm

>  <Rbt.Receptor>
4xnr.prm

>  <SCORE>
-46.0319

>  <SCORE.INTER>
-25.3153

>  <SCORE.INTER.CONST>
1

>  <SCORE.INTER.POLAR>
-3.01619

>  <SCORE.INTER.ROT>
3

>  <SCORE.INTER.SOLV>
10.4002

>  <SCORE.INTER.VDW>
-15.8896

>  <SCORE.INTER.norm>
-2.10961

>  <SCORE.INTRA>
-0.224663

>  <SCORE.INTRA.DIHEDRAL>
-0.467087

>  <SCORE.INTRA.DIHEDRAL.0>
2.18257

>  <SCORE.INTRA.POLAR>
0

>  <SCORE.INTRA.POLAR.0>
0

>  <SCORE.INTRA.REPUL>
0

>  <SCORE.INTRA.REPUL.0>
0

>  <SCORE.INTRA.SOLV>
0.0156881

>  <SCORE.INTRA.SOLV.lig_0>
-18.7183

>  <SCORE.INTRA.VDW>
0.00103611

>  <SCORE.INTRA.VDW.0>
-0.191828

>  <SCORE.INTRA.norm>
-0.0187219

>  <SCORE.RESTR>
0.0648376

>  <SCORE.RESTR.CAVITY>
0.0648376

>  <SCORE.RESTR.norm>
0.00540313

>  <SCORE.SYSTEM>
-20.5568

>  <SCORE.SYSTEM.CONST>
0

>  <SCORE.SYSTEM.DIHEDRAL>
4.49346

>  <SCORE.SYSTEM.POLAR>
-3.03523

>  <SCORE.SYSTEM.SOLV>
0.0161663

>  <SCORE.SYSTEM.VDW>
-5.0903

>  <SCORE.SYSTEM.norm>
-1.71306

>  <SCORE.heavy>
12

>  <SCORE.norm>
-3.83599

$$$$
P23963563
 OpenBabel12072022113D
libRbt.so/2013.1/901 2013/11/27
 15 15  0  0  0  0  0  0  0  0999 V2000
    2.5413   16.3791    3.9565 C   0  0  0  0  0  0  0  0  0  0  0  0
    1.3272   15.6838    4.0156 C   0  0  0  0  0  0  0  0  0  0  0  0
    1.3060   14.2939    3.8821 C   0  0  0  0  0  0  0  0  0  0  0  0
    2.5121   13.6106    3.6835 C   0  0  0  0  0  0  0  0  0  0  0  0
    3.7273   14.3033    3.6250 C   0  0  0  0  0  0  0  0  0  0  0  0
    3.7472   15.6934    3.7723 C   0  0  0  0  0  0  0  0  0  0  0  0
    5.0063   16.4828    3.7150 C   0  0  0  0  0  0  0  0  0  0  0  0
    5.8204   16.3265    2.8140 O   0  0  0  0  0  0  0  0  0  0  0  0
    5.2100   17.4225    4.6866 N   0  0  0  0  0  0  0  0  0  0  0  0
    0.1327   13.5257    3.9295 N   0  0  0  0  0  0  0  0  0  0  0  0
    0.0172   12.1693    4.0114 C   0  0  0  0  0  0  0  0  0  0  0  0
   -1.0699   11.6043    4.0440 O   0  0  0  0  0  0  0  0  0  0  0  0
    4.9814   18.3979    4.5658 H   0  0  0  0  0  0  0  0  0  0  0  0
    5.8885   17.1856    5.3997 H   0  0  0  0  0  0  0  0  0  0  0  0
   -0.7607   14.0027    3.9024 H   0  0  0  0  0  0  0  0  0  0  0  0
  1  2  2  0  0  0  0
  1  6  1  0  0  0  0
  2  3  1  0  0  0  0
  3  4  2  0  0  0  0
  3 10  1  0  0  0  0
  4  5  1  0  0  0  0
  5  6  2  0  0  0  0
  6  7  1  0  0  0  0
  7  8  2  0  0  0  0
  7  9  1  0  0  0  0
  9 13  1  0  0  0  0
  9 14  1  0  0  0  0
 10 11  1  0  0  0  0
 10 15  1  0  0  0  0
 11 12  2  0  0  0  0
M  END
>  <CHROM.0>
-58.57552577,-179.93543806,-69.76686841,-48.31893791,-173.96678987,-61.48337471
-65.06753750,-60.16975562,-167.85855590

>  <CHROM.1>
-169.24460287,-130.19161200,-95.63802325,2.51986644,14.78863463,3.85046126
0.62795927,0.22996094,0.25441856

>  <Name>
P23963563

>  <RI>
3.51561e+07

>  <Rbt.Current_Directory>
/home/fstefaniak/projects/zuza/docking/adenine/4XNR

>  <Rbt.Executable>
rbdock ($Id: //depot/dev/client3/rdock/2013.1/src/exe/rbdock.cxx#4 $)

>  <Rbt.Library>
libRbt.so (2013.1, Build901 2013/11/27)

>  <Rbt.Parameter_File>
/home/fstefaniak/progs/rDock//data/scripts/dock_solv.prm

>  <Rbt.Receptor>
4xnr.prm

>  <SCORE>
-44.177

>  <SCORE.INTER>
-26.5958

>  <SCORE.INTER.CONST>
1

>  <SCORE.INTER.POLAR>
-3.03492

>  <SCORE.INTER.ROT>
3

>  <SCORE.INTER.SOLV>
9.8653

>  <SCORE.INTER.VDW>
-16.5026

>  <SCORE.INTER.norm>
-2.21632

>  <SCORE.INTRA>
2.81943

>  <SCORE.INTRA.DIHEDRAL>
5.89082

>  <SCORE.INTRA.DIHEDRAL.0>
2.18257

>  <SCORE.INTRA.POLAR>
0

>  <SCORE.INTRA.POLAR.0>
0

>  <SCORE.INTRA.REPUL>
0

>  <SCORE.INTRA.REPUL.0>
0

>  <SCORE.INTRA.SOLV>
-0.0143135

>  <SCORE.INTRA.SOLV.lig_0>
-18.7183

>  <SCORE.INTRA.VDW>
-0.11882

>  <SCORE.INTRA.VDW.0>
-0.191828

>  <SCORE.INTRA.norm>
0.234953

>  <SCORE.RESTR>
0.2957

>  <SCORE.RESTR.CAVITY>
0.2957

>  <SCORE.RESTR.norm>
0.0246416

>  <SCORE.SYSTEM>
-20.6963

>  <SCORE.SYSTEM.CONST>
0

>  <SCORE.SYSTEM.DIHEDRAL>
4.14649

>  <SCORE.SYSTEM.POLAR>
-2.95414

>  <SCORE.SYSTEM.SOLV>
0.0897707

>  <SCORE.SYSTEM.VDW>
-5.36252

>  <SCORE.SYSTEM.norm>
-1.72469

>  <SCORE.heavy>
12

>  <SCORE.norm>
-3.68142

$$$$
P23963563
 OpenBabel12072022113D
libRbt.so/2013.1/901 2013/11/27
 15 15  0  0  0  0  0  0  0  0999 V2000
    4.1139   14.3001    3.6273 C   0  0  0  0  0  0  0  0  0  0  0  0
    5.2367   15.1208    3.4632 C   0  0  0  0  0  0  0  0  0  0  0  0
    5.1061   16.5100    3.5199 C   0  0  0  0  0  0  0  0  0  0  0  0
    3.8394   17.0664    3.7368 C   0  0  0  0  0  0  0  0  0  0  0  0
    2.7157   16.2481    3.9022 C   0  0  0  0  0  0  0  0  0  0  0  0
    2.8513   14.8573    3.8583 C   0  0  0  0  0  0  0  0  0  0  0  0
    1.6936   13.9383    4.0230 C   0  0  0  0  0  0  0  0  0  0  0  0
    1.7850   12.7421    3.7788 O   0  0  0  0  0  0  0  0  0  0  0  0
    0.5257   14.4686    4.4955 N   0  0  0  0  0  0  0  0  0  0  0  0
    6.1805   17.3992    3.3652 N   0  0  0  0  0  0  0  0  0  0  0  0
    6.2754   18.6886    3.7990 C   0  0  0  0  0  0  0  0  0  0  0  0
    7.2711   19.3755    3.6020 O   0  0  0  0  0  0  0  0  0  0  0  0
   -0.2900   14.6063    3.9176 H   0  0  0  0  0  0  0  0  0  0  0  0
    0.5971   15.0179    5.3429 H   0  0  0  0  0  0  0  0  0  0  0  0
    7.0080   17.0795    2.8758 H   0  0  0  0  0  0  0  0  0  0  0  0
  1  2  2  0  0  0  0
  1  6  1  0  0  0  0
  2  3  1  0  0  0  0
  3  4  2  0  0  0  0
  3 10  1  0  0  0  0
  4  5  1  0  0  0  0
  5  6  2  0  0  0  0
  6  7  1  0  0  0  0
  7  8  2  0  0  0  0
  7  9  1  0  0  0  0
  9 13  1  0  0  0  0
  9 14  1  0  0  0  0
 10 11  1  0  0  0  0
 10 15  1  0  0  0  0
 11 12  2  0  0  0  0
M  END
>  <CHROM.0>
-60.64036315,-175.35649585,-67.84327592,-45.72858118,-60.74986333,-59.39474593
-65.40552910,-60.08315104,-168.14947934

>  <CHROM.1>
-157.46646909,-10.30858330,107.92901799,3.96488740,15.90801763,3.76811859
-2.41835946,0.21008469,0.12888341

>  <Name>
P23963563

>  <RI>
3.51561e+07

>  <Rbt.Current_Directory>
/home/fstefaniak/projects/zuza/docking/adenine/4XNR

>  <Rbt.Executable>
rbdock ($Id: //depot/dev/client3/rdock/2013.1/src/exe/rbdock.cxx#4 $)

>  <Rbt.Library>
libRbt.so (2013.1, Build901 2013/11/27)

>  <Rbt.Parameter_File>
/home/fstefaniak/progs/rDock//data/scripts/dock_solv.prm

>  <Rbt.Receptor>
4xnr.prm

>  <SCORE>
-43.3767

>  <SCORE.INTER>
-23.1643

>  <SCORE.INTER.CONST>
1

>  <SCORE.INTER.POLAR>
-2.84139

>  <SCORE.INTER.ROT>
3

>  <SCORE.INTER.SOLV>
11.5938

>  <SCORE.INTER.VDW>
-15.4361

>  <SCORE.INTER.norm>
-1.93035

>  <SCORE.INTRA>
0.478122

>  <SCORE.INTRA.DIHEDRAL>
0.723966

>  <SCORE.INTRA.DIHEDRAL.0>
2.18257

>  <SCORE.INTRA.POLAR>
0

>  <SCORE.INTRA.POLAR.0>
0

>  <SCORE.INTRA.REPUL>
0

>  <SCORE.INTRA.REPUL.0>
0

>  <SCORE.INTRA.SOLV>
0.0111224

>  <SCORE.INTRA.SOLV.lig_0>
-18.7183

>  <SCORE.INTRA.VDW>
0.110578

>  <SCORE.INTRA.VDW.0>
-0.191828

>  <SCORE.INTRA.norm>
0.0398435

>  <SCORE.RESTR>
0

>  <SCORE.RESTR.CAVITY>
0

>  <SCORE.RESTR.norm>
0

>  <SCORE.SYSTEM>
-20.6906

>  <SCORE.SYSTEM.CONST>
0

>  <SCORE.SYSTEM.DIHEDRAL>
4.20909

>  <SCORE.SYSTEM.POLAR>
-2.98987

>  <SCORE.SYSTEM.SOLV>
0.266051

>  <SCORE.SYSTEM.VDW>
-5.31922

>  <SCORE.SYSTEM.norm>
-1.72422

>  <SCORE.heavy>
12

>  <SCORE.norm>
-3.61473

$$$$
P24019403
 OpenBabel12072022113D
libRbt.so/2013.1/901 2013/11/27
 14 14  0  0  0  0  0  0  0  0999 V2000
    3.8271   17.5276    2.9808 C   0  0  0  0  0  0  0  0  0  0  0  0
    5.0068   16.8713    3.6961 C   0  0  1  0  0  0  0  0  0  0  0  0
    6.3209   17.4469    3.1391 C   0  0  0  0  0  0  0  0  0  0  0  0
    6.7544   17.2956    2.0073 O   0  0  0  0  0  0  0  0  0  0  0  0
    6.9212   18.1776    4.1182 N   0  0  0  0  0  0  0  0  0  0  0  0
    6.2066   18.1333    5.2664 C   0  0  0  0  0  0  0  0  0  0  0  0
    6.4887   18.6849    6.3140 O   0  0  0  0  0  0  0  0  0  0  0  0
    5.0971   17.3488    5.0602 N   0  0  0  0  0  0  0  0  0  0  0  0
    4.9448   15.3414    3.6000 C   0  0  0  0  0  0  0  0  0  0  0  0
    3.8115   14.6990    4.4112 C   0  0  0  0  0  0  0  0  0  0  0  0
    2.4794   14.9366    3.7577 C   0  0  0  0  0  0  0  0  0  0  0  0
    1.4338   15.5048    4.3713 C   0  0  0  0  0  0  0  0  0  0  0  0
    7.7909   18.6711    4.0156 H   0  0  0  0  0  0  0  0  0  0  0  0
    4.4080   17.2149    5.7895 H   0  0  0  0  0  0  0  0  0  0  0  0
  2  1  1  6  0  0  0
  2  3  1  0  0  0  0
  2  8  1  0  0  0  0
  2  9  1  0  0  0  0
  3  4  2  0  0  0  0
  3  5  1  0  0  0  0
  5  6  1  0  0  0  0
  5 13  1  0  0  0  0
  6  7  2  0  0  0  0
  6  8  1  0  0  0  0
  8 14  1  0  0  0  0
  9 10  1  0  0  0  0
 10 11  1  0  0  0  0
 11 12  2  0  0  0  0
M  END
>  <CHROM.0>
-58.65234875,-63.99930685,-64.43674941,-46.14715752,-65.13431354,-174.90494245
-66.33420119,-58.92676699,-168.29573581

>  <CHROM.1>
-69.58361416,73.37398666,-124.72321841,4.96964829,16.86300153,4.06881492
-2.84098898,0.56355484,1.20114468

>  <Name>
P24019403

>  <RI>
3.4169e+07

>  <Rbt.Current_Directory>
/home/fstefaniak/projects/zuza/docking/adenine/4XNR

>  <Rbt.Executable>
rbdock ($Id: //depot/dev/client3/rdock/2013.1/src/exe/rbdock.cxx#4 $)

>  <Rbt.Library>
libRbt.so (2013.1, Build901 2013/11/27)

>  <Rbt.Parameter_File>
/home/fstefaniak/progs/rDock//data/scripts/dock_solv.prm

>  <Rbt.Receptor>
4xnr.prm

>  <SCORE>
-41.0704

>  <SCORE.INTER>
-22.1027

>  <SCORE.INTER.CONST>
1

>  <SCORE.INTER.POLAR>
-2.07943

>  <SCORE.INTER.ROT>
3

>  <SCORE.INTER.SOLV>
12.529

>  <SCORE.INTER.VDW>
-17.58

>  <SCORE.INTER.norm>
-1.84189

>  <SCORE.INTRA>
1.66722

>  <SCORE.INTRA.DIHEDRAL>
0.959681

>  <SCORE.INTRA.DIHEDRAL.0>
0.0492842

>  <SCORE.INTRA.POLAR>
0

>  <SCORE.INTRA.POLAR.0>
0

>  <SCORE.INTRA.REPUL>
0

>  <SCORE.INTRA.REPUL.0>
0

>  <SCORE.INTRA.SOLV>
-0.333864

>  <SCORE.INTRA.SOLV.lig_0>
-17.1227

>  <SCORE.INTRA.VDW>
1.35431

>  <SCORE.INTRA.VDW.0>
-0.649006

>  <SCORE.INTRA.norm>
0.138935

>  <SCORE.RESTR>
0

>  <SCORE.RESTR.CAVITY>
0

>  <SCORE.RESTR.norm>
0

>  <SCORE.SYSTEM>
-20.6349

>  <SCORE.SYSTEM.CONST>
0

>  <SCORE.SYSTEM.DIHEDRAL>
4.22164

>  <SCORE.SYSTEM.POLAR>
-2.99781

>  <SCORE.SYSTEM.SOLV>
0.172595

>  <SCORE.SYSTEM.VDW>
-5.22867

>  <SCORE.SYSTEM.norm>
-1.71958

>  <SCORE.heavy>
12

>  <SCORE.norm>
-3.42253

$$$$
P24019403
 OpenBabel12072022113D
libRbt.so/2013.1/901 2013/11/27
 14 14  0  0  0  0  0  0  0  0999 V2000
    3.8793   17.5699    2.9872 C   0  0  0  0  0  0  0  0  0  0  0  0
    5.0497   16.8906    3.6963 C   0  0  1  0  0  0  0  0  0  0  0  0
    6.3718   17.4386    3.1308 C   0  0  0  0  0  0  0  0  0  0  0  0
    6.7954   17.2773    1.9966 O   0  0  0  0  0  0  0  0  0  0  0  0
    6.9927   18.1581    4.1053 N   0  0  0  0  0  0  0  0  0  0  0  0
    6.2842   18.1296    5.2579 C   0  0  0  0  0  0  0  0  0  0  0  0
    6.5837   18.6765    6.3031 O   0  0  0  0  0  0  0  0  0  0  0  0
    5.1577   17.3676    5.0592 N   0  0  0  0  0  0  0  0  0  0  0  0
    4.9559   15.3621    3.6025 C   0  0  0  0  0  0  0  0  0  0  0  0
    3.6870   14.7637    4.2244 C   0  0  0  0  0  0  0  0  0  0  0  0
    3.5662   13.3013    3.9004 C   0  0  0  0  0  0  0  0  0  0  0  0
    2.5018   12.7511    3.3029 C   0  0  0  0  0  0  0  0  0  0  0  0
    7.8716   18.6336    3.9969 H   0  0  0  0  0  0  0  0  0  0  0  0
    4.4705   17.2486    5.7927 H   0  0  0  0  0  0  0  0  0  0  0  0
  2  1  1  6  0  0  0
  2  3  1  0  0  0  0
  2  8  1  0  0  0  0
  2  9  1  0  0  0  0
  3  4  2  0  0  0  0
  3  5  1  0  0  0  0
  5  6  1  0  0  0  0
  5 13  1  0  0  0  0
  6  7  2  0  0  0  0
  6  8  1  0  0  0  0
  8 14  1  0  0  0  0
  9 10  1  0  0  0  0
 10 11  1  0  0  0  0
 11 12  2  0  0  0  0
M  END
>  <CHROM.0>
-58.90794032,-62.27154399,-67.04844527,-48.73190734,-59.36523576,-64.67543941
-67.50471166,-61.08303124,-167.68032410

>  <CHROM.1>
-59.91642592,170.95863827,-124.30463365,5.17509947,16.51558731,3.97145551
-2.73139398,0.89119581,1.27830526

>  <Name>
P24019403

>  <RI>
3.4169e+07

>  <Rbt.Current_Directory>
/home/fstefaniak/projects/zuza/docking/adenine/4XNR

>  <Rbt.Executable>
rbdock ($Id: //depot/dev/client3/rdock/2013.1/src/exe/rbdock.cxx#4 $)

>  <Rbt.Library>
libRbt.so (2013.1, Build901 2013/11/27)

>  <Rbt.Parameter_File>
/home/fstefaniak/progs/rDock//data/scripts/dock_solv.prm

>  <Rbt.Receptor>
4xnr.prm

>  <SCORE>
-40.9301

>  <SCORE.INTER>
-20.8459

>  <SCORE.INTER.CONST>
1

>  <SCORE.INTER.POLAR>
-2.04903

>  <SCORE.INTER.ROT>
3

>  <SCORE.INTER.SOLV>
12.2893

>  <SCORE.INTER.VDW>
-16.7636

>  <SCORE.INTER.norm>
-1.73716

>  <SCORE.INTRA>
0.847234

>  <SCORE.INTRA.DIHEDRAL>
0.324155

>  <SCORE.INTRA.DIHEDRAL.0>
0.0492842

>  <SCORE.INTRA.POLAR>
0

>  <SCORE.INTRA.POLAR.0>
0

>  <SCORE.INTRA.REPUL>
0

>  <SCORE.INTRA.REPUL.0>
0

>  <SCORE.INTRA.SOLV>
-0.517808

>  <SCORE.INTRA.SOLV.lig_0>
-17.1227

>  <SCORE.INTRA.VDW>
0.94406

>  <SCORE.INTRA.VDW.0>
-0.649006

>  <SCORE.INTRA.norm>
0.0706028

>  <SCORE.RESTR>
0

>  <SCORE.RESTR.CAVITY>
0

>  <SCORE.RESTR.norm>
0

>  <SCORE.SYSTEM>
-20.9314

>  <SCORE.SYSTEM.CONST>
0

>  <SCORE.SYSTEM.DIHEDRAL>
4.01137

>  <SCORE.SYSTEM.POLAR>
-2.9513

>  <SCORE.SYSTEM.SOLV>
0.271394

>  <SCORE.SYSTEM.VDW>
-5.54416

>  <SCORE.SYSTEM.norm>
-1.74428

>  <SCORE.heavy>
12

>  <SCORE.norm>
-3.41084

$$$$
P24019403
 OpenBabel12072022113D
libRbt.so/2013.1/901 2013/11/27
 14 14  0  0  0  0  0  0  0  0999 V2000
    3.8759   17.5610    2.9778 C   0  0  0  0  0  0  0  0  0  0  0  0
    5.0483   16.8949    3.6960 C   0  0  1  0  0  0  0  0  0  0  0  0
    6.3688   17.4487    3.1322 C   0  0  0  0  0  0  0  0  0  0  0  0
    6.7981   17.2831    2.0008 O   0  0  0  0  0  0  0  0  0  0  0  0
    6.9805   18.1790    4.1045 N   0  0  0  0  0  0  0  0  0  0  0  0
    6.2676   18.1529    5.2544 C   0  0  0  0  0  0  0  0  0  0  0  0
    6.5588   18.7088    6.2972 O   0  0  0  0  0  0  0  0  0  0  0  0
    5.1474   17.3815    5.0562 N   0  0  0  0  0  0  0  0  0  0  0  0
    4.9659   15.3652    3.6118 C   0  0  0  0  0  0  0  0  0  0  0  0
    3.6825   14.7643    4.2008 C   0  0  0  0  0  0  0  0  0  0  0  0
    3.6021   13.2894    3.9248 C   0  0  0  0  0  0  0  0  0  0  0  0
    2.5916   12.7028    3.2709 C   0  0  0  0  0  0  0  0  0  0  0  0
    7.8563   18.6602    3.9965 H   0  0  0  0  0  0  0  0  0  0  0  0
    4.4580   17.2624    5.7877 H   0  0  0  0  0  0  0  0  0  0  0  0
  2  1  1  6  0  0  0
  2  3  1  0  0  0  0
  2  8  1  0  0  0  0
  2  9  1  0  0  0  0
  3  4  2  0  0  0  0
  3  5  1  0  0  0  0
  5  6  1  0  0  0  0
  5 13  1  0  0  0  0
  6  7  2  0  0  0  0
  6  8  1  0  0  0  0
  8 14  1  0  0  0  0
  9 10  1  0  0  0  0
 10 11  1  0  0  0  0
 11 12  2  0  0  0  0
M  END
>  <CHROM.0>
-56.14981468,-62.19842155,-65.76657989,-44.91668434,-66.42900806,-63.42661719
-70.10103715,-61.77376850,-167.61117796

>  <CHROM.1>
-58.44515576,172.85749114,-122.40481537,5.17985997,16.51962427,3.96797966
-2.71280696,0.90100936,1.26127444

>  <Name>
P24019403

>  <RI>
3.4169e+07

>  <Rbt.Current_Directory>
/home/fstefaniak/projects/zuza/docking/adenine/4XNR

>  <Rbt.Executable>
rbdock ($Id: //depot/dev/client3/rdock/2013.1/src/exe/rbdock.cxx#4 $)

>  <Rbt.Library>
libRbt.so (2013.1, Build901 2013/11/27)

>  <Rbt.Parameter_File>
/home/fstefaniak/progs/rDock//data/scripts/dock_solv.prm

>  <Rbt.Receptor>
4xnr.prm

>  <SCORE>
-40.8628

>  <SCORE.INTER>
-20.8594

>  <SCORE.INTER.CONST>
1

>  <SCORE.INTER.POLAR>
-2.03932

>  <SCORE.INTER.ROT>
3

>  <SCORE.INTER.SOLV>
12.3067

>  <SCORE.INTER.VDW>
-16.8108

>  <SCORE.INTER.norm>
-1.73828

>  <SCORE.INTRA>
0.86268

>  <SCORE.INTRA.DIHEDRAL>
0.204108

>  <SCORE.INTRA.DIHEDRAL.0>
0.0492842

>  <SCORE.INTRA.POLAR>
0

>  <SCORE.INTRA.POLAR.0>
0

>  <SCORE.INTRA.REPUL>
0

>  <SCORE.INTRA.REPUL.0>
0

>  <SCORE.INTRA.SOLV>
-0.522296

>  <SCORE.INTRA.SOLV.lig_0>
-17.1227

>  <SCORE.INTRA.VDW>
1.02177

>  <SCORE.INTRA.VDW.0>
-0.649006

>  <SCORE.INTRA.norm>
0.07189

>  <SCORE.RESTR>
0

>  <SCORE.RESTR.CAVITY>
0

>  <SCORE.RESTR.norm>
0

>  <SCORE.SYSTEM>
-20.8661

>  <SCORE.SYSTEM.CONST>
0

>  <SCORE.SYSTEM.DIHEDRAL>
4.7993

>  <SCORE.SYSTEM.POLAR>
-3.03729

>  <SCORE.SYSTEM.SOLV>
0.268167

>  <SCORE.SYSTEM.VDW>
-5.47558

>  <SCORE.SYSTEM.norm>
-1.73884

>  <SCORE.heavy>
12

>  <SCORE.norm>
-3.40524

$$$$
P24071195
 OpenBabel12072022113D
libRbt.so/2013.1/901 2013/11/27
 16 16  0  0  0  0  0  0  0  0999 V2000
    7.3297   18.6697    4.7491 C   0  0  0  0  0  0  0  0  0  0  0  0
    7.2089   18.4000    3.3836 C   0  0  0  0  0  0  0  0  0  0  0  0
    6.0091   17.9108    2.8712 C   0  0  0  0  0  0  0  0  0  0  0  0
    4.9206   17.6543    3.7074 C   0  0  0  0  0  0  0  0  0  0  0  0
    5.0737   17.8798    5.0806 C   0  0  0  0  0  0  0  0  0  0  0  0
    6.2524   18.4238    5.6079 C   0  0  0  0  0  0  0  0  0  0  0  0
    6.2825   18.7996    7.0531 C   0  0  0  0  0  0  0  0  0  0  0  0
    7.6286   18.5339    7.6168 N   0  3  0  0  0  0  0  0  0  0  0  0
    8.2956   19.2332    7.2680 H   0  0  0  0  0  0  0  0  0  0  0  0
    7.6084   18.6531    8.6400 H   0  0  0  0  0  0  0  0  0  0  0  0
    7.9702   17.5939    7.4041 H   0  0  0  0  0  0  0  0  0  0  0  0
    3.5883   17.1958    3.1787 C   0  0  0  0  0  0  0  0  0  0  0  0
    2.8691   16.5176    3.9746 O   0  0  0  0  0  0  0  0  0  0  0  0
    3.3038   17.5689    1.9987 O   0  5  0  0  0  0  0  0  0  0  0  0
    5.9402   17.7090    1.5200 O   0  0  0  0  0  0  0  0  0  0  0  0
    5.7641   18.6061    1.1194 H   0  0  0  0  0  0  0  0  0  0  0  0
  1  2  2  0  0  0  0
  1  6  1  0  0  0  0
  2  3  1  0  0  0  0
  3  4  2  0  0  0  0
  3 15  1  0  0  0  0
  4  5  1  0  0  0  0
  4 12  1  0  0  0  0
  5  6  2  0  0  0  0
  6  7  1  0  0  0  0
  7  8  1  0  0  0  0
  8  9  1  0  0  0  0
  8 10  1  0  0  0  0
  8 11  1  0  0  0  0
 12 13  2  0  0  0  0
 12 14  1  0  0  0  0
 15 16  1  0  0  0  0
M  CHG  2   8   1  14  -1
M  END
>  <CHROM.0>
-63.22992602,83.04364492,-74.94764562,-45.66443301,-177.82641531,-60.38983692
-172.56316790,-56.44411685,-168.24103271

>  <CHROM.1>
-80.50086276,153.58126291,-39.19954163,72.94518242,5.52422179,17.92878111
4.22761229,-0.91225848,-0.33506687,-1.61784726

>  <Name>
P24071195

>  <RI>
2.22087e+07

>  <Rbt.Current_Directory>
/home/fstefaniak/projects/zuza/docking/adenine/4XNR

>  <Rbt.Executable>
rbdock ($Id: //depot/dev/client3/rdock/2013.1/src/exe/rbdock.cxx#4 $)

>  <Rbt.Library>
libRbt.so (2013.1, Build901 2013/11/27)

>  <Rbt.Parameter_File>
/home/fstefaniak/progs/rDock//data/scripts/dock_solv.prm

>  <Rbt.Receptor>
4xnr.prm

>  <SCORE>
-48.8794

>  <SCORE.INTER>
-33.7496

>  <SCORE.INTER.CONST>
1

>  <SCORE.INTER.POLAR>
-6.22077

>  <SCORE.INTER.ROT>
2

>  <SCORE.INTER.SOLV>
27.6996

>  <SCORE.INTER.VDW>
-15.9304

>  <SCORE.INTER.norm>
-2.81247

>  <SCORE.INTRA>
2.73673

>  <SCORE.INTRA.DIHEDRAL>
7.79676

>  <SCORE.INTRA.DIHEDRAL.0>
0.87139

>  <SCORE.INTRA.POLAR>
0.0627215

>  <SCORE.INTRA.POLAR.0>
-0.0627215

>  <SCORE.INTRA.REPUL>
0

>  <SCORE.INTRA.REPUL.0>
0

>  <SCORE.INTRA.SOLV>
-0.509607

>  <SCORE.INTRA.SOLV.lig_0>
-53.693

>  <SCORE.INTRA.VDW>
-1.1201

>  <SCORE.INTRA.VDW.0>
0.455039

>  <SCORE.INTRA.norm>
0.228061

>  <SCORE.RESTR>
0

>  <SCORE.RESTR.CAVITY>
0

>  <SCORE.RESTR.norm>
0

>  <SCORE.SYSTEM>
-17.8665

>  <SCORE.SYSTEM.CONST>
0

>  <SCORE.SYSTEM.DIHEDRAL>
7.29994

>  <SCORE.SYSTEM.POLAR>
-2.95798

>  <SCORE.SYSTEM.SOLV>
0.0647597

>  <SCORE.SYSTEM.VDW>
-4.50601

>  <SCORE.SYSTEM.norm>
-1.48888

>  <SCORE.heavy>
12

>  <SCORE.norm>
-4.07329

$$$$
P24071195
 OpenBabel12072022113D
libRbt.so/2013.1/901 2013/11/27
 16 16  0  0  0  0  0  0  0  0999 V2000
    6.7705   19.1541    4.4987 C   0  0  0  0  0  0  0  0  0  0  0  0
    6.6299   18.8381    3.1451 C   0  0  0  0  0  0  0  0  0  0  0  0
    5.7424   17.8395    2.7489 C   0  0  0  0  0  0  0  0  0  0  0  0
    5.0025   17.1196    3.6892 C   0  0  0  0  0  0  0  0  0  0  0  0
    5.1930   17.4117    5.0451 C   0  0  0  0  0  0  0  0  0  0  0  0
    6.0382   18.4491    5.4606 C   0  0  0  0  0  0  0  0  0  0  0  0
    6.0593   18.8182    6.9077 C   0  0  0  0  0  0  0  0  0  0  0  0
    7.4116   18.5826    7.4700 N   0  3  0  0  0  0  0  0  0  0  0  0
    8.0511   19.3245    7.1596 H   0  0  0  0  0  0  0  0  0  0  0  0
    7.3797   18.6530    8.4973 H   0  0  0  0  0  0  0  0  0  0  0  0
    7.7936   17.6685    7.2169 H   0  0  0  0  0  0  0  0  0  0  0  0
    3.9826   16.0865    3.2929 C   0  0  0  0  0  0  0  0  0  0  0  0
    4.1946   15.4750    2.2012 O   0  0  0  0  0  0  0  0  0  0  0  0
    3.0312   15.9056    4.1142 O   0  5  0  0  0  0  0  0  0  0  0  0
    5.6175   17.6080    1.4066 O   0  0  0  0  0  0  0  0  0  0  0  0
    5.5285   18.5071    0.9824 H   0  0  0  0  0  0  0  0  0  0  0  0
  1  2  2  0  0  0  0
  1  6  1  0  0  0  0
  2  3  1  0  0  0  0
  3  4  2  0  0  0  0
  3 15  1  0  0  0  0
  4  5  1  0  0  0  0
  4 12  1  0  0  0  0
  5  6  2  0  0  0  0
  6  7  1  0  0  0  0
  7  8  1  0  0  0  0
  8  9  1  0  0  0  0
  8 10  1  0  0  0  0
  8 11  1  0  0  0  0
 12 13  2  0  0  0  0
 12 14  1  0  0  0  0
 15 16  1  0  0  0  0
M  CHG  2   8   1  14  -1
M  END
>  <CHROM.0>
-56.92901580,72.45300557,-69.45514042,-48.07469051,-57.41865927,-175.27489743
-67.27406783,-55.71837871,-167.77205173

>  <CHROM.1>
-46.09225327,29.68814346,-66.37349210,75.54984718,5.47217980,17.58012988
4.16820738,-0.87619084,-0.75340155,-1.59563968

>  <Name>
P24071195

>  <RI>
2.22087e+07

>  <Rbt.Current_Directory>
/home/fstefaniak/projects/zuza/docking/adenine/4XNR

>  <Rbt.Executable>
rbdock ($Id: //depot/dev/client3/rdock/2013.1/src/exe/rbdock.cxx#4 $)

>  <Rbt.Library>
libRbt.so (2013.1, Build901 2013/11/27)

>  <Rbt.Parameter_File>
/home/fstefaniak/progs/rDock//data/scripts/dock_solv.prm

>  <Rbt.Receptor>
4xnr.prm

>  <SCORE>
-48.2945

>  <SCORE.INTER>
-30.6353

>  <SCORE.INTER.CONST>
1

>  <SCORE.INTER.POLAR>
-5.87635

>  <SCORE.INTER.ROT>
2

>  <SCORE.INTER.SOLV>
28.0926

>  <SCORE.INTER.VDW>
-15.1332

>  <SCORE.INTER.norm>
-2.55294

>  <SCORE.INTRA>
1.54356

>  <SCORE.INTRA.DIHEDRAL>
5.52413

>  <SCORE.INTRA.DIHEDRAL.0>
0.87139

>  <SCORE.INTRA.POLAR>
0.0627215

>  <SCORE.INTRA.POLAR.0>
-0.0627215

>  <SCORE.INTRA.REPUL>
0

>  <SCORE.INTRA.REPUL.0>
0

>  <SCORE.INTRA.SOLV>
-0.90366

>  <SCORE.INTRA.SOLV.lig_0>
-53.693

>  <SCORE.INTRA.VDW>
-0.979928

>  <SCORE.INTRA.VDW.0>
0.455039

>  <SCORE.INTRA.norm>
0.12863

>  <SCORE.RESTR>
0

>  <SCORE.RESTR.CAVITY>
0

>  <SCORE.RESTR.norm>
0

>  <SCORE.SYSTEM>
-19.2028

>  <SCORE.SYSTEM.CONST>
0

>  <SCORE.SYSTEM.DIHEDRAL>
5.07356

>  <SCORE.SYSTEM.POLAR>
-2.98595

>  <SCORE.SYSTEM.SOLV>
0.198237

>  <SCORE.SYSTEM.VDW>
-4.60595

>  <SCORE.SYSTEM.norm>
-1.60023

>  <SCORE.heavy>
12

>  <SCORE.norm>
-4.02454

$$$$
P24071195
 OpenBabel12072022113D
libRbt.so/2013.1/901 2013/11/27
 16 16  0  0  0  0  0  0  0  0999 V2000
    6.7905   19.1687    4.5301 C   0  0  0  0  0  0  0  0  0  0  0  0
    6.6615   18.8586    3.1740 C   0  0  0  0  0  0  0  0  0  0  0  0
    5.7855   17.8543    2.7668 C   0  0  0  0  0  0  0  0  0  0  0  0
    5.0459   17.1229    3.6984 C   0  0  0  0  0  0  0  0  0  0  0  0
    5.2249   17.4095    5.0571 C   0  0  0  0  0  0  0  0  0  0  0  0
    6.0581   18.4522    5.4835 C   0  0  0  0  0  0  0  0  0  0  0  0
    6.0665   18.8138    6.9326 C   0  0  0  0  0  0  0  0  0  0  0  0
    7.4159   18.5827    7.5037 N   0  3  0  0  0  0  0  0  0  0  0  0
    8.0647   19.3037    7.1647 H   0  0  0  0  0  0  0  0  0  0  0  0
    7.3854   18.6934    8.5275 H   0  0  0  0  0  0  0  0  0  0  0  0
    7.7860   17.6547    7.2863 H   0  0  0  0  0  0  0  0  0  0  0  0
    4.0379   16.0829    3.2899 C   0  0  0  0  0  0  0  0  0  0  0  0
    3.0742   15.8863    4.0921 O   0  0  0  0  0  0  0  0  0  0  0  0
    4.2358   15.5343    2.1619 O   0  5  0  0  0  0  0  0  0  0  0  0
    5.6715   17.6288    1.4224 O   0  0  0  0  0  0  0  0  0  0  0  0
    5.6194   18.5309    0.9986 H   0  0  0  0  0  0  0  0  0  0  0  0
  1  2  2  0  0  0  0
  1  6  1  0  0  0  0
  2  3  1  0  0  0  0
  3  4  2  0  0  0  0
  3 15  1  0  0  0  0
  4  5  1  0  0  0  0
  4 12  1  0  0  0  0
  5  6  2  0  0  0  0
  6  7  1  0  0  0  0
  7  8  1  0  0  0  0
  8  9  1  0  0  0  0
  8 10  1  0  0  0  0
  8 11  1  0  0  0  0
 12 13  2  0  0  0  0
 12 14  1  0  0  0  0
 15 16  1  0  0  0  0
M  CHG  2   8   1  14  -1
M  END
>  <CHROM.0>
-58.48935287,75.03871127,-72.72443009,-46.09954237,-57.89318553,-62.64370727
-171.68480785,-172.77344978,-166.87477676

>  <CHROM.1>
-43.56876335,-151.84900895,-66.56714139,72.77906329,5.50512254,17.58959383
4.17851346,-0.88757825,-0.75672377,-1.59580699

>  <Name>
P24071195

>  <RI>
2.22087e+07

>  <Rbt.Current_Directory>
/home/fstefaniak/projects/zuza/docking/adenine/4XNR

>  <Rbt.Executable>
rbdock ($Id: //depot/dev/client3/rdock/2013.1/src/exe/rbdock.cxx#4 $)

>  <Rbt.Library>
libRbt.so (2013.1, Build901 2013/11/27)

>  <Rbt.Parameter_File>
/home/fstefaniak/progs/rDock//data/scripts/dock_solv.prm

>  <Rbt.Receptor>
4xnr.prm

>  <SCORE>
-48.2312

>  <SCORE.INTER>
-30.9882

>  <SCORE.INTER.CONST>
1

>  <SCORE.INTER.POLAR>
-5.93392

>  <SCORE.INTER.ROT>
2

>  <SCORE.INTER.SOLV>
28.1309

>  <SCORE.INTER.VDW>
-15.1894

>  <SCORE.INTER.norm>
-2.58235

>  <SCORE.INTRA>
1.33414

>  <SCORE.INTRA.DIHEDRAL>
4.885

>  <SCORE.INTRA.DIHEDRAL.0>
0.87139

>  <SCORE.INTRA.POLAR>
0.0627215

>  <SCORE.INTRA.POLAR.0>
-0.0627215

>  <SCORE.INTRA.REPUL>
0

>  <SCORE.INTRA.REPUL.0>
0

>  <SCORE.INTRA.SOLV>
-0.861537

>  <SCORE.INTRA.SOLV.lig_0>
-53.693

>  <SCORE.INTRA.VDW>
-0.890847

>  <SCORE.INTRA.VDW.0>
0.455039

>  <SCORE.INTRA.norm>
0.111178

>  <SCORE.RESTR>
0

>  <SCORE.RESTR.CAVITY>
0

>  <SCORE.RESTR.norm>
0

>  <SCORE.SYSTEM>
-18.5772

>  <SCORE.SYSTEM.CONST>
0

>  <SCORE.SYSTEM.DIHEDRAL>
6.13288

>  <SCORE.SYSTEM.POLAR>
-2.98402

>  <SCORE.SYSTEM.SOLV>
0.106513

>  <SCORE.SYSTEM.VDW>
-4.51784

>  <SCORE.SYSTEM.norm>
-1.5481

>  <SCORE.heavy>
12

>  <SCORE.norm>
-4.01927

$$$$
P24135333
 OpenBabel12072022113D
libRbt.so/2013.1/901 2013/11/27
 12 12  0  0  0  0  0  0  0  0999 V2000
    5.0627   17.6655    4.2927 C   0  0  0  0  0  0  0  0  0  0  0  0
    6.3644   17.0895    3.9433 N   0  0  0  0  0  0  0  0  0  0  0  0
    7.2074   18.1529    3.3980 C   0  0  0  0  0  0  0  0  0  0  0  0
    7.4430   19.1942    4.4004 N   0  0  0  0  0  0  0  0  0  0  0  0
    6.1650   19.7083    4.9160 C   0  0  0  0  0  0  0  0  0  0  0  0
    5.2275   18.6657    5.3467 N   0  0  0  0  0  0  0  0  0  0  0  0
    5.8249   17.9761    6.4914 O   0  0  0  0  0  0  0  0  0  0  0  0
    8.1932   18.6007    5.5003 O   0  0  0  0  0  0  0  0  0  0  0  0
    6.1079   16.1797    2.8333 O   0  0  0  0  0  0  0  0  0  0  0  0
    5.1097   17.3387    6.7168 H   0  0  0  0  0  0  0  0  0  0  0  0
    7.5244   18.0018    5.8846 H   0  0  0  0  0  0  0  0  0  0  0  0
    6.3851   15.3275    3.2221 H   0  0  0  0  0  0  0  0  0  0  0  0
  1  2  1  0  0  0  0
  1  6  1  0  0  0  0
  2  3  1  0  0  0  0
  2  9  1  0  0  0  0
  3  4  1  0  0  0  0
  4  5  1  0  0  0  0
  4  8  1  0  0  0  0
  5  6  1  0  0  0  0
  6  7  1  0  0  0  0
  7 10  1  0  0  0  0
  8 11  1  0  0  0  0
  9 12  1  0  0  0  0
M  END
>  <CHROM.0>
-55.08922291,-45.41760294,-66.19215348,-46.37554381,-59.13352887,-65.66026902
-65.72278410,-56.94931706,-168.23945343

>  <CHROM.1>
-118.31921579,-68.82015144,-63.90933043,6.41178586,18.08478660,4.60123334
1.75940212,-0.44032571,-2.24837450

>  <Name>
P24135333

>  <RI>
1.34432e+07

>  <Rbt.Current_Directory>
/home/fstefaniak/projects/zuza/docking/adenine/4XNR

>  <Rbt.Executable>
rbdock ($Id: //depot/dev/client3/rdock/2013.1/src/exe/rbdock.cxx#4 $)

>  <Rbt.Library>
libRbt.so (2013.1, Build901 2013/11/27)

>  <Rbt.Parameter_File>
/home/fstefaniak/progs/rDock//data/scripts/dock_solv.prm

>  <Rbt.Receptor>
4xnr.prm

>  <SCORE>
-48.8705

>  <SCORE.INTER>
-28.7618

>  <SCORE.INTER.CONST>
1

>  <SCORE.INTER.POLAR>
-4.84121

>  <SCORE.INTER.ROT>
0

>  <SCORE.INTER.SOLV>
18.1268

>  <SCORE.INTER.VDW>
-12.6795

>  <SCORE.INTER.norm>
-3.19576

>  <SCORE.INTRA>
-0.0851951

>  <SCORE.INTRA.DIHEDRAL>
-0.771836

>  <SCORE.INTRA.DIHEDRAL.0>
1.60573

>  <SCORE.INTRA.POLAR>
-0.0209719

>  <SCORE.INTRA.POLAR.0>
-0.840788

>  <SCORE.INTRA.REPUL>
0

>  <SCORE.INTRA.REPUL.0>
0

>  <SCORE.INTRA.SOLV>
0.0279933

>  <SCORE.INTRA.SOLV.lig_0>
-28.2115

>  <SCORE.INTRA.VDW>
0.358031

>  <SCORE.INTRA.VDW.0>
1.20758

>  <SCORE.INTRA.norm>
-0.00946612

>  <SCORE.RESTR>
0

>  <SCORE.RESTR.CAVITY>
0

>  <SCORE.RESTR.norm>
0

>  <SCORE.SYSTEM>
-20.0234

>  <SCORE.SYSTEM.CONST>
0

>  <SCORE.SYSTEM.DIHEDRAL>
5.20087

>  <SCORE.SYSTEM.POLAR>
-3.02954

>  <SCORE.SYSTEM.SOLV>
0.348262

>  <SCORE.SYSTEM.VDW>
-5.10019

>  <SCORE.SYSTEM.norm>
-2.22483

>  <SCORE.heavy>
9

>  <SCORE.norm>
-5.43005

$$$$
P24135333
 OpenBabel12072022113D
libRbt.so/2013.1/901 2013/11/27
 12 12  0  0  0  0  0  0  0  0999 V2000
    5.0582   17.6523    4.3046 C   0  0  0  0  0  0  0  0  0  0  0  0
    6.3615   17.0872    3.9436 N   0  0  0  0  0  0  0  0  0  0  0  0
    7.1915   18.1582    3.3932 C   0  0  0  0  0  0  0  0  0  0  0  0
    7.4269   19.1998    4.3953 N   0  0  0  0  0  0  0  0  0  0  0  0
    6.1492   19.7028    4.9222 C   0  0  0  0  0  0  0  0  0  0  0  0
    5.2236   18.6520    5.3588 N   0  0  0  0  0  0  0  0  0  0  0  0
    5.8358   17.9654    6.4975 O   0  0  0  0  0  0  0  0  0  0  0  0
    8.1909   18.6106    5.4881 O   0  0  0  0  0  0  0  0  0  0  0  0
    6.1033   16.1771    2.8343 O   0  0  0  0  0  0  0  0  0  0  0  0
    5.1311   17.3163    6.7224 H   0  0  0  0  0  0  0  0  0  0  0  0
    7.5307   18.0042    5.8755 H   0  0  0  0  0  0  0  0  0  0  0  0
    6.4021   15.3287    3.2150 H   0  0  0  0  0  0  0  0  0  0  0  0
  1  2  1  0  0  0  0
  1  6  1  0  0  0  0
  2  3  1  0  0  0  0
  2  9  1  0  0  0  0
  3  4  1  0  0  0  0
  4  5  1  0  0  0  0
  4  8  1  0  0  0  0
  5  6  1  0  0  0  0
  6  7  1  0  0  0  0
  7 10  1  0  0  0  0
  8 11  1  0  0  0  0
  9 12  1  0  0  0  0
M  END
>  <CHROM.0>
-52.83756101,-45.58977381,-67.65947529,-46.51400776,-58.81779014,-63.34105172
-65.82552863,-58.79052703,-167.98610484

>  <CHROM.1>
-119.07006923,-68.69284391,-63.40807512,6.40646876,18.08178484,4.60268915
1.76068766,-0.45153014,-2.24620628

>  <Name>
P24135333

>  <RI>
1.34432e+07

>  <Rbt.Current_Directory>
/home/fstefaniak/projects/zuza/docking/adenine/4XNR

>  <Rbt.Executable>
rbdock ($Id: //depot/dev/client3/rdock/2013.1/src/exe/rbdock.cxx#4 $)

>  <Rbt.Library>
libRbt.so (2013.1, Build901 2013/11/27)

>  <Rbt.Parameter_File>
/home/fstefaniak/progs/rDock//data/scripts/dock_solv.prm

>  <Rbt.Receptor>
4xnr.prm

>  <SCORE>
-48.8392

>  <SCORE.INTER>
-28.7549

>  <SCORE.INTER.CONST>
1

>  <SCORE.INTER.POLAR>
-4.83969

>  <SCORE.INTER.ROT>
0

>  <SCORE.INTER.SOLV>
18.1238

>  <SCORE.INTER.VDW>
-12.6789

>  <SCORE.INTER.norm>
-3.19499

>  <SCORE.INTRA>
-0.0625601

>  <SCORE.INTRA.DIHEDRAL>
-0.771407

>  <SCORE.INTRA.DIHEDRAL.0>
1.60573

>  <SCORE.INTRA.POLAR>
-0.0190353

>  <SCORE.INTRA.POLAR.0>
-0.840788

>  <SCORE.INTRA.REPUL>
0

>  <SCORE.INTRA.REPUL.0>
0

>  <SCORE.INTRA.SOLV>
0.029053

>  <SCORE.INTRA.SOLV.lig_0>
-28.2115

>  <SCORE.INTRA.VDW>
0.373337

>  <SCORE.INTRA.VDW.0>
1.20758

>  <SCORE.INTRA.norm>
-0.00695112

>  <SCORE.RESTR>
0

>  <SCORE.RESTR.CAVITY>
0

>  <SCORE.RESTR.norm>
0

>  <SCORE.SYSTEM>
-20.0217

>  <SCORE.SYSTEM.CONST>
0

>  <SCORE.SYSTEM.DIHEDRAL>
5.2797

>  <SCORE.SYSTEM.POLAR>
-3.04183

>  <SCORE.SYSTEM.SOLV>
0.350639

>  <SCORE.SYSTEM.VDW>
-5.08517

>  <SCORE.SYSTEM.norm>
-2.22464

>  <SCORE.heavy>
9

>  <SCORE.norm>
-5.42658

$$$$
P24135333
 OpenBabel12072022113D
libRbt.so/2013.1/901 2013/11/27
 12 12  0  0  0  0  0  0  0  0999 V2000
    5.0963   17.6333    4.3207 C   0  0  0  0  0  0  0  0  0  0  0  0
    6.4397   17.1771    3.9530 N   0  0  0  0  0  0  0  0  0  0  0  0
    7.1943   18.3244    3.4498 C   0  0  0  0  0  0  0  0  0  0  0  0
    7.3462   19.3429    4.4909 N   0  0  0  0  0  0  0  0  0  0  0  0
    6.0315   19.7331    5.0226 C   0  0  0  0  0  0  0  0  0  0  0  0
    5.1811   18.6032    5.4118 N   0  0  0  0  0  0  0  0  0  0  0  0
    5.8327   17.9214    6.5312 O   0  0  0  0  0  0  0  0  0  0  0  0
    8.1425   18.7707    5.5696 O   0  0  0  0  0  0  0  0  0  0  0  0
    6.2563   16.2919    2.8091 O   0  0  0  0  0  0  0  0  0  0  0  0
    5.1385   17.2695    6.7797 H   0  0  0  0  0  0  0  0  0  0  0  0
    8.1190   19.4931    6.2263 H   0  0  0  0  0  0  0  0  0  0  0  0
    6.4992   15.4298    3.1989 H   0  0  0  0  0  0  0  0  0  0  0  0
  1  2  1  0  0  0  0
  1  6  1  0  0  0  0
  2  3  1  0  0  0  0
  2  9  1  0  0  0  0
  3  4  1  0  0  0  0
  4  5  1  0  0  0  0
  4  8  1  0  0  0  0
  5  6  1  0  0  0  0
  6  7  1  0  0  0  0
  7 10  1  0  0  0  0
  8 11  1  0  0  0  0
  9 12  1  0  0  0  0
M  END
>  <CHROM.0>
-56.99250143,56.13136516,-65.44989565,-48.65317613,-59.15010558,-60.21378595
-65.89041344,-57.86349856,-167.93697677

>  <CHROM.1>
-111.78395986,-175.60243590,-68.43274901,6.41100543,18.15815420,4.65061676
1.72907038,-0.49934278,-2.23420549

>  <Name>
P24135333

>  <RI>
1.34432e+07

>  <Rbt.Current_Directory>
/home/fstefaniak/projects/zuza/docking/adenine/4XNR

>  <Rbt.Executable>
rbdock ($Id: //depot/dev/client3/rdock/2013.1/src/exe/rbdock.cxx#4 $)

>  <Rbt.Library>
libRbt.so (2013.1, Build901 2013/11/27)

>  <Rbt.Parameter_File>
/home/fstefaniak/progs/rDock//data/scripts/dock_solv.prm

>  <Rbt.Receptor>
4xnr.prm

>  <SCORE>
-48.1842

>  <SCORE.INTER>
-30.1669

>  <SCORE.INTER.CONST>
1

>  <SCORE.INTER.POLAR>
-5.24204

>  <SCORE.INTER.ROT>
0

>  <SCORE.INTER.SOLV>
18.291

>  <SCORE.INTER.VDW>
-12.3348

>  <SCORE.INTER.norm>
-3.35187

>  <SCORE.INTRA>
1.9932

>  <SCORE.INTRA.DIHEDRAL>
-0.829109

>  <SCORE.INTRA.DIHEDRAL.0>
1.60573

>  <SCORE.INTRA.POLAR>
0.840788

>  <SCORE.INTRA.POLAR.0>
-0.840788

>  <SCORE.INTRA.REPUL>
0

>  <SCORE.INTRA.REPUL.0>
0

>  <SCORE.INTRA.SOLV>
-0.228775

>  <SCORE.INTRA.SOLV.lig_0>
-28.2115

>  <SCORE.INTRA.VDW>
-0.336539

>  <SCORE.INTRA.VDW.0>
1.20758

>  <SCORE.INTRA.norm>
0.221467

>  <SCORE.RESTR>
0

>  <SCORE.RESTR.CAVITY>
0

>  <SCORE.RESTR.norm>
0

>  <SCORE.SYSTEM>
-20.0105

>  <SCORE.SYSTEM.CONST>
0

>  <SCORE.SYSTEM.DIHEDRAL>
3.80734

>  <SCORE.SYSTEM.POLAR>
-2.98043

>  <SCORE.SYSTEM.SOLV>
0.3872

>  <SCORE.SYSTEM.VDW>
-4.80376

>  <SCORE.SYSTEM.norm>
-2.22339

>  <SCORE.heavy>
9

>  <SCORE.norm>
-5.3538

$$$$
P24145078
 OpenBabel12072022113D
libRbt.so/2013.1/901 2013/11/27
 13 13  0  0  0  0  0  0  0  0999 V2000
    4.0464   16.2822    3.9296 C   0  0  0  0  0  0  0  0  0  0  0  0
    4.6979   17.6432    3.9047 C   0  0  0  0  0  0  0  0  0  0  0  0
    5.5551   17.5336    2.6553 C   0  0  2  0  0  0  0  0  0  0  0  0
    6.0253   16.1674    2.6174 O   0  0  0  0  0  0  0  0  0  0  0  0
    5.1782   15.3833    3.4740 C   0  0  0  0  0  0  0  0  0  0  0  0
    6.7298   18.5098    2.5465 C   0  0  0  0  0  0  0  0  0  0  0  0
    7.5859   18.5136    3.7199 N   0  0  0  0  0  0  0  0  0  0  0  0
    7.2241   19.1428    4.8700 C   0  0  0  0  0  0  0  0  0  0  0  0
    6.2404   19.8510    5.0200 O   0  0  0  0  0  0  0  0  0  0  0  0
    8.0966   18.9063    5.8808 N   0  0  0  0  0  0  0  0  0  0  0  0
    8.1923   17.7114    3.8220 H   0  0  0  0  0  0  0  0  0  0  0  0
    8.3529   19.7065    6.4406 H   0  0  0  0  0  0  0  0  0  0  0  0
    7.8672   18.0759    6.4126 H   0  0  0  0  0  0  0  0  0  0  0  0
  1  2  1  0  0  0  0
  1  5  1  0  0  0  0
  2  3  1  0  0  0  0
  3  4  1  0  0  0  0
  3  6  1  1  0  0  0
  4  5  1  0  0  0  0
  6  7  1  0  0  0  0
  7  8  1  0  0  0  0
  7 11  1  0  0  0  0
  8  9  2  0  0  0  0
  8 10  1  0  0  0  0
 10 12  1  0  0  0  0
 10 13  1  0  0  0  0
M  END
>  <CHROM.0>
-56.92115583,-60.64081325,-65.41505399,-47.58463777,-58.48420718,-59.54657319
-69.39205499,-174.04011882,-168.65013647

>  <CHROM.1>
51.78051243,-76.77384822,-6.74841570,136.36677540,6.16816872,17.79668868
3.89030171,2.29032491,-0.54744016,-2.16898082

>  <Name>
P24145078

>  <RI>
3.51561e+07

>  <Rbt.Current_Directory>
/home/fstefaniak/projects/zuza/docking/adenine/4XNR

>  <Rbt.Executable>
rbdock ($Id: //depot/dev/client3/rdock/2013.1/src/exe/rbdock.cxx#4 $)

>  <Rbt.Library>
libRbt.so (2013.1, Build901 2013/11/27)

>  <Rbt.Parameter_File>
/home/fstefaniak/progs/rDock//data/scripts/dock_solv.prm

>  <Rbt.Receptor>
4xnr.prm

>  <SCORE>
-57.0112

>  <SCORE.INTER>
-36.7039

>  <SCORE.INTER.CONST>
1

>  <SCORE.INTER.POLAR>
-5.7598

>  <SCORE.INTER.ROT>
4

>  <SCORE.INTER.SOLV>
13.0137

>  <SCORE.INTER.VDW>
-15.8745

>  <SCORE.INTER.norm>
-3.67039

>  <SCORE.INTRA>
0.441467

>  <SCORE.INTRA.DIHEDRAL>
-0.242438

>  <SCORE.INTRA.DIHEDRAL.0>
1.81837

>  <SCORE.INTRA.POLAR>
0

>  <SCORE.INTRA.POLAR.0>
0

>  <SCORE.INTRA.REPUL>
0

>  <SCORE.INTRA.REPUL.0>
0

>  <SCORE.INTRA.SOLV>
0.247827

>  <SCORE.INTRA.SOLV.lig_0>
-14.0981

>  <SCORE.INTRA.VDW>
0.438773

>  <SCORE.INTRA.VDW.0>
-0.912962

>  <SCORE.INTRA.norm>
0.0441467

>  <SCORE.RESTR>
0

>  <SCORE.RESTR.CAVITY>
0

>  <SCORE.RESTR.norm>
0

>  <SCORE.SYSTEM>
-20.7488

>  <SCORE.SYSTEM.CONST>
0

>  <SCORE.SYSTEM.DIHEDRAL>
4.16573

>  <SCORE.SYSTEM.POLAR>
-2.9797

>  <SCORE.SYSTEM.SOLV>
0.15375

>  <SCORE.SYSTEM.VDW>
-5.34001

>  <SCORE.SYSTEM.norm>
-2.07488

>  <SCORE.heavy>
10

>  <SCORE.norm>
-5.70112

$$$$
P24145078
 OpenBabel12072022113D
libRbt.so/2013.1/901 2013/11/27
 13 13  0  0  0  0  0  0  0  0999 V2000
    4.0687   16.2815    3.8950 C   0  0  0  0  0  0  0  0  0  0  0  0
    4.7099   17.6474    3.8715 C   0  0  0  0  0  0  0  0  0  0  0  0
    5.5672   17.5458    2.6215 C   0  0  2  0  0  0  0  0  0  0  0  0
    6.0476   16.1832    2.5816 O   0  0  0  0  0  0  0  0  0  0  0  0
    5.2069   15.3917    3.4377 C   0  0  0  0  0  0  0  0  0  0  0  0
    6.7345   18.5309    2.5133 C   0  0  0  0  0  0  0  0  0  0  0  0
    7.5844   18.5483    3.6911 N   0  0  0  0  0  0  0  0  0  0  0  0
    7.1962   19.1502    4.8471 C   0  0  0  0  0  0  0  0  0  0  0  0
    6.1822   19.8125    5.0043 O   0  0  0  0  0  0  0  0  0  0  0  0
    8.0796   18.9435    5.8551 N   0  0  0  0  0  0  0  0  0  0  0  0
    8.2169   17.7655    3.7861 H   0  0  0  0  0  0  0  0  0  0  0  0
    8.3210   19.7548    6.4054 H   0  0  0  0  0  0  0  0  0  0  0  0
    7.8719   18.1136    6.3965 H   0  0  0  0  0  0  0  0  0  0  0  0
  1  2  1  0  0  0  0
  1  5  1  0  0  0  0
  2  3  1  0  0  0  0
  3  4  1  0  0  0  0
  3  6  1  1  0  0  0
  4  5  1  0  0  0  0
  6  7  1  0  0  0  0
  7  8  1  0  0  0  0
  7 11  1  0  0  0  0
  8  9  2  0  0  0  0
  8 10  1  0  0  0  0
 10 12  1  0  0  0  0
 10 13  1  0  0  0  0
M  END
>  <CHROM.0>
-58.05126210,-59.66134386,-64.95003859,-46.82095089,-175.81621829,-173.15464434
-69.39111577,-63.01646217,-168.07672372

>  <CHROM.1>
51.26428723,-74.97940185,-6.00206168,134.66784437,6.16773977,17.80707000
3.86035629,2.28176561,-0.55406832,-2.16778309

>  <Name>
P24145078

>  <RI>
3.51561e+07

>  <Rbt.Current_Directory>
/home/fstefaniak/projects/zuza/docking/adenine/4XNR

>  <Rbt.Executable>
rbdock ($Id: //depot/dev/client3/rdock/2013.1/src/exe/rbdock.cxx#4 $)

>  <Rbt.Library>
libRbt.so (2013.1, Build901 2013/11/27)

>  <Rbt.Parameter_File>
/home/fstefaniak/progs/rDock//data/scripts/dock_solv.prm

>  <Rbt.Receptor>
4xnr.prm

>  <SCORE>
-56.951

>  <SCORE.INTER>
-36.8874

>  <SCORE.INTER.CONST>
1

>  <SCORE.INTER.POLAR>
-5.77694

>  <SCORE.INTER.ROT>
4

>  <SCORE.INTER.SOLV>
13.0236

>  <SCORE.INTER.VDW>
-15.943

>  <SCORE.INTER.norm>
-3.68874

>  <SCORE.INTRA>
0.663543

>  <SCORE.INTRA.DIHEDRAL>
-0.213366

>  <SCORE.INTRA.DIHEDRAL.0>
1.81837

>  <SCORE.INTRA.POLAR>
0

>  <SCORE.INTRA.POLAR.0>
0

>  <SCORE.INTRA.REPUL>
0

>  <SCORE.INTRA.REPUL.0>
0

>  <SCORE.INTRA.SOLV>
0.275539

>  <SCORE.INTRA.SOLV.lig_0>
-14.0981

>  <SCORE.INTRA.VDW>
0.632456

>  <SCORE.INTRA.VDW.0>
-0.912962

>  <SCORE.INTRA.norm>
0.0663543

>  <SCORE.RESTR>
0

>  <SCORE.RESTR.CAVITY>
0

>  <SCORE.RESTR.norm>
0

>  <SCORE.SYSTEM>
-20.7272

>  <SCORE.SYSTEM.CONST>
0

>  <SCORE.SYSTEM.DIHEDRAL>
4.42105

>  <SCORE.SYSTEM.POLAR>
-2.99168

>  <SCORE.SYSTEM.SOLV>
-0.00580988

>  <SCORE.SYSTEM.VDW>
-5.31762

>  <SCORE.SYSTEM.norm>
-2.07272

>  <SCORE.heavy>
10

>  <SCORE.norm>
-5.6951

$$$$
P24145078
 OpenBabel12072022113D
libRbt.so/2013.1/901 2013/11/27
 13 13  0  0  0  0  0  0  0  0999 V2000
    4.0462   16.2732    3.8764 C   0  0  0  0  0  0  0  0  0  0  0  0
    4.7002   17.6331    3.8528 C   0  0  0  0  0  0  0  0  0  0  0  0
    5.5637   17.5200    2.6081 C   0  0  2  0  0  0  0  0  0  0  0  0
    6.0316   16.1530    2.5747 O   0  0  0  0  0  0  0  0  0  0  0  0
    5.1788   15.3717    3.4280 C   0  0  0  0  0  0  0  0  0  0  0  0
    6.7407   18.4940    2.5039 C   0  0  0  0  0  0  0  0  0  0  0  0
    7.5821   18.5091    3.6878 N   0  0  0  0  0  0  0  0  0  0  0  0
    7.2135   19.1628    4.8218 C   0  0  0  0  0  0  0  0  0  0  0  0
    6.2232   19.8654    4.9538 O   0  0  0  0  0  0  0  0  0  0  0  0
    8.0871   18.9590    5.8388 N   0  0  0  0  0  0  0  0  0  0  0  0
    8.1779   17.7019    3.8117 H   0  0  0  0  0  0  0  0  0  0  0  0
    8.3330   19.7743    6.3812 H   0  0  0  0  0  0  0  0  0  0  0  0
    7.8667   18.1379    6.3885 H   0  0  0  0  0  0  0  0  0  0  0  0
  1  2  1  0  0  0  0
  1  5  1  0  0  0  0
  2  3  1  0  0  0  0
  3  4  1  0  0  0  0
  3  6  1  1  0  0  0
  4  5  1  0  0  0  0
  6  7  1  0  0  0  0
  7  8  1  0  0  0  0
  7 11  1  0  0  0  0
  8  9  2  0  0  0  0
  8 10  1  0  0  0  0
 10 12  1  0  0  0  0
 10 13  1  0  0  0  0
M  END
>  <CHROM.0>
-59.15402267,-169.91672549,59.35684492,-48.11197155,-176.12501461,-61.87673046
52.53060684,-60.44850070,-168.03957282

>  <CHROM.1>
51.13132288,-77.52200459,-5.33761890,136.57908112,6.16665152,17.79811921
3.84323511,2.27429767,-0.53516194,-2.19352724

>  <Name>
P24145078

>  <RI>
3.51561e+07

>  <Rbt.Current_Directory>
/home/fstefaniak/projects/zuza/docking/adenine/4XNR

>  <Rbt.Executable>
rbdock ($Id: //depot/dev/client3/rdock/2013.1/src/exe/rbdock.cxx#4 $)

>  <Rbt.Library>
libRbt.so (2013.1, Build901 2013/11/27)

>  <Rbt.Parameter_File>
/home/fstefaniak/progs/rDock//data/scripts/dock_solv.prm

>  <Rbt.Receptor>
4xnr.prm

>  <SCORE>
-54.6945

>  <SCORE.INTER>
-36.439

>  <SCORE.INTER.CONST>
1

>  <SCORE.INTER.POLAR>
-5.71721

>  <SCORE.INTER.ROT>
4

>  <SCORE.INTER.SOLV>
13.0539

>  <SCORE.INTER.VDW>
-15.8533

>  <SCORE.INTER.norm>
-3.6439

>  <SCORE.INTRA>
0.469517

>  <SCORE.INTRA.DIHEDRAL>
-0.201121

>  <SCORE.INTRA.DIHEDRAL.0>
1.81837

>  <SCORE.INTRA.POLAR>
0

>  <SCORE.INTRA.POLAR.0>
0

>  <SCORE.INTRA.REPUL>
0

>  <SCORE.INTRA.REPUL.0>
0

>  <SCORE.INTRA.SOLV>
0.232487

>  <SCORE.INTRA.SOLV.lig_0>
-14.0981

>  <SCORE.INTRA.VDW>
0.453834

>  <SCORE.INTRA.VDW.0>
-0.912962

>  <SCORE.INTRA.norm>
0.0469517

>  <SCORE.RESTR>
0

>  <SCORE.RESTR.CAVITY>
0

>  <SCORE.RESTR.norm>
0

>  <SCORE.SYSTEM>
-18.725

>  <SCORE.SYSTEM.CONST>
0

>  <SCORE.SYSTEM.DIHEDRAL>
4.24541

>  <SCORE.SYSTEM.POLAR>
-2.94049

>  <SCORE.SYSTEM.SOLV>
-0.0163512

>  <SCORE.SYSTEM.VDW>
-4.09135

>  <SCORE.SYSTEM.norm>
-1.8725

>  <SCORE.heavy>
10

>  <SCORE.norm>
-5.46945

$$$$
P24155541
 OpenBabel12072022113D
libRbt.so/2013.1/901 2013/11/27
 17 18  0  0  0  0  0  0  0  0999 V2000
   -0.3604   12.2577    2.2504 C   0  0  0  0  0  0  0  0  0  0  0  0
   -0.0271   13.0070    3.5420 C   0  0  2  0  0  0  0  0  0  0  0  0
    0.9785   14.1340    3.3036 C   0  0  1  0  0  0  0  0  0  0  0  0
    1.0211   15.1371    4.4513 C   0  0  0  0  0  0  0  0  0  0  0  0
    2.0773   16.0980    4.2386 N   0  0  0  0  0  0  0  0  0  0  0  0
    3.2831   15.7771    3.7060 C   0  0  0  0  0  0  0  0  0  0  0  0
    4.2223   16.5630    3.7200 O   0  0  0  0  0  0  0  0  0  0  0  0
    3.3884   14.5582    3.1249 N   0  0  0  0  0  0  0  0  0  0  0  0
    2.3744   13.5453    3.1544 C   0  0  1  0  0  0  0  0  0  0  0  0
    2.6793   12.5874    4.1739 N   0  0  0  0  0  0  0  0  0  0  0  0
    1.7666   11.7802    4.7613 C   0  0  0  0  0  0  0  0  0  0  0  0
    2.0976   10.8586    5.4962 O   0  0  0  0  0  0  0  0  0  0  0  0
    0.4613   12.0706    4.5356 N   0  0  0  0  0  0  0  0  0  0  0  0
    2.0741   16.9736    4.7479 H   0  0  0  0  0  0  0  0  0  0  0  0
    4.3055   14.3436    2.7610 H   0  0  0  0  0  0  0  0  0  0  0  0
    3.6415   12.3288    4.3369 H   0  0  0  0  0  0  0  0  0  0  0  0
   -0.1831   11.4261    4.9795 H   0  0  0  0  0  0  0  0  0  0  0  0
  2  1  1  6  0  0  0
  2  3  1  0  0  0  0
  2 13  1  0  0  0  0
  3  4  1  1  0  0  0
  3  9  1  0  0  0  0
  4  5  1  0  0  0  0
  5  6  1  0  0  0  0
  5 14  1  0  0  0  0
  6  7  2  0  0  0  0
  6  8  1  0  0  0  0
  8 15  1  0  0  0  0
  9  8  1  1  0  0  0
  9 10  1  0  0  0  0
 10 11  1  0  0  0  0
 10 16  1  0  0  0  0
 11 12  2  0  0  0  0
 11 13  1  0  0  0  0
 13 17  1  0  0  0  0
M  END
>  <CHROM.0>
-59.16090283,-60.77733600,-67.53396970,-48.31278598,-60.09908916,-63.48542638
-67.71018749,-61.52859348,-168.23456134

>  <CHROM.1>
1.86990439,13.71519837,3.89638427,2.13709214,0.37122691,2.81455984

>  <Name>
P24155541

>  <RI>
2.22087e+07

>  <Rbt.Current_Directory>
/home/fstefaniak/projects/zuza/docking/adenine/4XNR

>  <Rbt.Executable>
rbdock ($Id: //depot/dev/client3/rdock/2013.1/src/exe/rbdock.cxx#4 $)

>  <Rbt.Library>
libRbt.so (2013.1, Build901 2013/11/27)

>  <Rbt.Parameter_File>
/home/fstefaniak/progs/rDock//data/scripts/dock_solv.prm

>  <Rbt.Receptor>
4xnr.prm

>  <SCORE>
-36.6158

>  <SCORE.INTER>
-15.7129

>  <SCORE.INTER.CONST>
1

>  <SCORE.INTER.POLAR>
-1.70132

>  <SCORE.INTER.ROT>
0

>  <SCORE.INTER.SOLV>
9.66576

>  <SCORE.INTER.VDW>
-11.6261

>  <SCORE.INTER.norm>
-1.20868

>  <SCORE.INTRA>
0

>  <SCORE.INTRA.DIHEDRAL>
0

>  <SCORE.INTRA.DIHEDRAL.0>
0

>  <SCORE.INTRA.POLAR>
0

>  <SCORE.INTRA.POLAR.0>
0

>  <SCORE.INTRA.REPUL>
0

>  <SCORE.INTRA.REPUL.0>
0

>  <SCORE.INTRA.SOLV>
0

>  <SCORE.INTRA.SOLV.lig_0>
-27.6356

>  <SCORE.INTRA.VDW>
0

>  <SCORE.INTRA.VDW.0>
0

>  <SCORE.INTRA.norm>
0

>  <SCORE.RESTR>
0.0600278

>  <SCORE.RESTR.CAVITY>
0.0600278

>  <SCORE.RESTR.norm>
0.00461752

>  <SCORE.SYSTEM>
-20.963

>  <SCORE.SYSTEM.CONST>
0

>  <SCORE.SYSTEM.DIHEDRAL>
3.97932

>  <SCORE.SYSTEM.POLAR>
-2.95458

>  <SCORE.SYSTEM.SOLV>
0.272855

>  <SCORE.SYSTEM.VDW>
-5.5441

>  <SCORE.SYSTEM.norm>
-1.61254

>  <SCORE.heavy>
13

>  <SCORE.norm>
-2.8166

$$$$
P24155541
 OpenBabel12072022113D
libRbt.so/2013.1/901 2013/11/27
 17 18  0  0  0  0  0  0  0  0999 V2000
    4.2561   11.0316    3.0059 C   0  0  0  0  0  0  0  0  0  0  0  0
    2.9193   11.1890    3.7334 C   0  0  2  0  0  0  0  0  0  0  0  0
    2.3875   12.6199    3.6450 C   0  0  1  0  0  0  0  0  0  0  0  0
    0.9059   12.7195    3.9914 C   0  0  0  0  0  0  0  0  0  0  0  0
    0.4905   14.1016    4.0250 N   0  0  0  0  0  0  0  0  0  0  0  0
    1.2663   15.1033    4.5103 C   0  0  0  0  0  0  0  0  0  0  0  0
    0.8182   16.2257    4.7088 O   0  0  0  0  0  0  0  0  0  0  0  0
    2.5706   14.8124    4.7309 N   0  0  0  0  0  0  0  0  0  0  0  0
    3.1493   13.5054    4.6213 C   0  0  1  0  0  0  0  0  0  0  0  0
    3.2639   12.9183    5.9221 N   0  0  0  0  0  0  0  0  0  0  0  0
    3.3468   11.5885    6.1555 C   0  0  0  0  0  0  0  0  0  0  0  0
    3.6208   11.1431    7.2625 O   0  0  0  0  0  0  0  0  0  0  0  0
    3.0639   10.7681    5.1134 N   0  0  0  0  0  0  0  0  0  0  0  0
   -0.4937   14.3350    3.9708 H   0  0  0  0  0  0  0  0  0  0  0  0
    3.1122   15.5734    5.1144 H   0  0  0  0  0  0  0  0  0  0  0  0
    3.5080   13.5029    6.7082 H   0  0  0  0  0  0  0  0  0  0  0  0
    3.1597    9.7828    5.3317 H   0  0  0  0  0  0  0  0  0  0  0  0
  2  1  1  1  0  0  0
  2  3  1  0  0  0  0
  2 13  1  0  0  0  0
  3  4  1  1  0  0  0
  3  9  1  0  0  0  0
  4  5  1  0  0  0  0
  5  6  1  0  0  0  0
  5 14  1  0  0  0  0
  6  7  2  0  0  0  0
  6  8  1  0  0  0  0
  8 15  1  0  0  0  0
  9  8  1  1  0  0  0
  9 10  1  0  0  0  0
 10 11  1  0  0  0  0
 10 16  1  0  0  0  0
 11 12  2  0  0  0  0
 11 13  1  0  0  0  0
 13 17  1  0  0  0  0
M  END
>  <CHROM.0>
-56.64091037,-71.07061312,-68.72812381,-48.52868836,-176.81665695,59.70141307
-67.91167977,-62.66524624,-168.24530952

>  <CHROM.1>
2.46518809,12.91501914,4.75332083,0.26305613,1.01320101,-2.06421380

>  <Name>
P24155541

>  <RI>
2.22087e+07

>  <Rbt.Current_Directory>
/home/fstefaniak/projects/zuza/docking/adenine/4XNR

>  <Rbt.Executable>
rbdock ($Id: //depot/dev/client3/rdock/2013.1/src/exe/rbdock.cxx#4 $)

>  <Rbt.Library>
libRbt.so (2013.1, Build901 2013/11/27)

>  <Rbt.Parameter_File>
/home/fstefaniak/progs/rDock//data/scripts/dock_solv.prm

>  <Rbt.Receptor>
4xnr.prm

>  <SCORE>
-36.5756

>  <SCORE.INTER>
-18.1835

>  <SCORE.INTER.CONST>
1

>  <SCORE.INTER.POLAR>
-1.67284

>  <SCORE.INTER.ROT>
0

>  <SCORE.INTER.SOLV>
11.8695

>  <SCORE.INTER.VDW>
-14.1027

>  <SCORE.INTER.norm>
-1.39873

>  <SCORE.INTRA>
0

>  <SCORE.INTRA.DIHEDRAL>
0

>  <SCORE.INTRA.DIHEDRAL.0>
0

>  <SCORE.INTRA.POLAR>
0

>  <SCORE.INTRA.POLAR.0>
0

>  <SCORE.INTRA.REPUL>
0

>  <SCORE.INTRA.REPUL.0>
0

>  <SCORE.INTRA.SOLV>
0

>  <SCORE.INTRA.SOLV.lig_0>
-27.6356

>  <SCORE.INTRA.VDW>
0

>  <SCORE.INTRA.VDW.0>
0

>  <SCORE.INTRA.norm>
0

>  <SCORE.RESTR>
1.34913

>  <SCORE.RESTR.CAVITY>
1.34913

>  <SCORE.RESTR.norm>
0.10378

>  <SCORE.SYSTEM>
-19.7412

>  <SCORE.SYSTEM.CONST>
0

>  <SCORE.SYSTEM.DIHEDRAL>
4.6884

>  <SCORE.SYSTEM.POLAR>
-2.96936

>  <SCORE.SYSTEM.SOLV>
-0.03191

>  <SCORE.SYSTEM.VDW>
-4.81509

>  <SCORE.SYSTEM.norm>
-1.51855

>  <SCORE.heavy>
13

>  <SCORE.norm>
-2.81351

$$$$
P24155541
 OpenBabel12072022113D
libRbt.so/2013.1/901 2013/11/27
 17 18  0  0  0  0  0  0  0  0999 V2000
   -0.3504   12.2618    2.2479 C   0  0  0  0  0  0  0  0  0  0  0  0
   -0.0271   13.0089    3.5434 C   0  0  2  0  0  0  0  0  0  0  0  0
    0.9815   14.1353    3.3151 C   0  0  1  0  0  0  0  0  0  0  0  0
    1.0155   15.1367    4.4645 C   0  0  0  0  0  0  0  0  0  0  0  0
    2.0744   16.0968    4.2621 N   0  0  0  0  0  0  0  0  0  0  0  0
    3.2844   15.7754    3.7392 C   0  0  0  0  0  0  0  0  0  0  0  0
    4.2242   16.5603    3.7623 O   0  0  0  0  0  0  0  0  0  0  0  0
    3.3933   14.5572    3.1573 N   0  0  0  0  0  0  0  0  0  0  0  0
    2.3780   13.5453    3.1768 C   0  0  1  0  0  0  0  0  0  0  0  0
    2.6733   12.5856    4.1975 N   0  0  0  0  0  0  0  0  0  0  0  0
    1.7549   11.7786    4.7760 C   0  0  0  0  0  0  0  0  0  0  0  0
    2.0788   10.8556    5.5123 O   0  0  0  0  0  0  0  0  0  0  0  0
    0.4519   12.0706    4.5397 N   0  0  0  0  0  0  0  0  0  0  0  0
    2.0678   16.9716    4.7726 H   0  0  0  0  0  0  0  0  0  0  0  0
    4.3132   14.3422    2.8008 H   0  0  0  0  0  0  0  0  0  0  0  0
    3.6338   12.3258    4.3682 H   0  0  0  0  0  0  0  0  0  0  0  0
   -0.1969   11.4262    4.9773 H   0  0  0  0  0  0  0  0  0  0  0  0
  2  1  1  6  0  0  0
  2  3  1  0  0  0  0
  2 13  1  0  0  0  0
  3  4  1  1  0  0  0
  3  9  1  0  0  0  0
  4  5  1  0  0  0  0
  5  6  1  0  0  0  0
  5 14  1  0  0  0  0
  6  7  2  0  0  0  0
  6  8  1  0  0  0  0
  8 15  1  0  0  0  0
  9  8  1  1  0  0  0
  9 10  1  0  0  0  0
 10 11  1  0  0  0  0
 10 16  1  0  0  0  0
 11 12  2  0  0  0  0
 11 13  1  0  0  0  0
 13 17  1  0  0  0  0
M  END
>  <CHROM.0>
-60.15712886,-62.02293350,-67.62450025,-49.04239674,-60.06525408,-64.53330761
-68.34986377,-61.31236976,-167.67735880

>  <CHROM.1>
1.86749338,13.71468173,3.91474804,2.14104879,0.37887676,2.81452420

>  <Name>
P24155541

>  <RI>
2.22087e+07

>  <Rbt.Current_Directory>
/home/fstefaniak/projects/zuza/docking/adenine/4XNR

>  <Rbt.Executable>
rbdock ($Id: //depot/dev/client3/rdock/2013.1/src/exe/rbdock.cxx#4 $)

>  <Rbt.Library>
libRbt.so (2013.1, Build901 2013/11/27)

>  <Rbt.Parameter_File>
/home/fstefaniak/progs/rDock//data/scripts/dock_solv.prm

>  <Rbt.Receptor>
4xnr.prm

>  <SCORE>
-36.515

>  <SCORE.INTER>
-15.6298

>  <SCORE.INTER.CONST>
1

>  <SCORE.INTER.POLAR>
-1.66957

>  <SCORE.INTER.ROT>
0

>  <SCORE.INTER.SOLV>
9.69534

>  <SCORE.INTER.VDW>
-11.6864

>  <SCORE.INTER.norm>
-1.20229

>  <SCORE.INTRA>
0

>  <SCORE.INTRA.DIHEDRAL>
0

>  <SCORE.INTRA.DIHEDRAL.0>
0

>  <SCORE.INTRA.POLAR>
0

>  <SCORE.INTRA.POLAR.0>
0

>  <SCORE.INTRA.REPUL>
0

>  <SCORE.INTRA.REPUL.0>
0

>  <SCORE.INTRA.SOLV>
0

>  <SCORE.INTRA.SOLV.lig_0>
-27.6356

>  <SCORE.INTRA.VDW>
0

>  <SCORE.INTRA.VDW.0>
0

>  <SCORE.INTRA.norm>
0

>  <SCORE.RESTR>
0.0540327

>  <SCORE.RESTR.CAVITY>
0.0540327

>  <SCORE.RESTR.norm>
0.00415636

>  <SCORE.SYSTEM>
-20.9392

>  <SCORE.SYSTEM.CONST>
0

>  <SCORE.SYSTEM.DIHEDRAL>
4.06185

>  <SCORE.SYSTEM.POLAR>
-2.93792

>  <SCORE.SYSTEM.SOLV>
0.26456

>  <SCORE.SYSTEM.VDW>
-5.60857

>  <SCORE.SYSTEM.norm>
-1.61071

>  <SCORE.heavy>
13

>  <SCORE.norm>
-2.80884

$$$$
P24180736
 OpenBabel12072022113D
libRbt.so/2013.1/901 2013/11/27
 13 12  0  0  0  0  0  0  0  0999 V2000
    3.8974   15.9094    3.1030 C   0  0  0  0  0  0  0  0  0  0  0  0
    4.9987   16.9879    3.1787 C   0  0  0  0  0  0  0  0  0  0  0  0
    5.5944   17.2752    2.0587 N   0  0  0  0  0  0  0  0  0  0  0  0
    6.6035   18.1854    2.0466 C   0  0  0  0  0  0  0  0  0  0  0  0
    7.0948   18.7544    3.0136 O   0  0  0  0  0  0  0  0  0  0  0  0
    7.0623   18.3935    0.7941 N   0  0  0  0  0  0  0  0  0  0  0  0
    5.2712   17.5660    4.4058 N   0  0  0  0  0  0  0  0  0  0  0  0
    4.3739   14.5422    4.1356 Cl  0  0  0  0  0  0  0  0  0  0  0  0
    2.3653   16.6103    3.6604 Cl  0  0  0  0  0  0  0  0  0  0  0  0
    6.6445   17.8945    0.0259 H   0  0  0  0  0  0  0  0  0  0  0  0
    7.8244   19.0366    0.6497 H   0  0  0  0  0  0  0  0  0  0  0  0
    5.3748   18.5763    4.4268 H   0  0  0  0  0  0  0  0  0  0  0  0
    4.7108   17.1989    5.1791 H   0  0  0  0  0  0  0  0  0  0  0  0
  1  2  1  0  0  0  0
  1  8  1  0  0  0  0
  1  9  1  0  0  0  0
  2  3  2  0  0  0  0
  2  7  1  0  0  0  0
  3  4  1  0  0  0  0
  4  5  2  0  0  0  0
  4  6  1  0  0  0  0
  6 10  1  0  0  0  0
  6 11  1  0  0  0  0
  7 12  1  0  0  0  0
  7 13  1  0  0  0  0
M  END
>  <CHROM.0>
-51.88872152,49.97555401,-64.24447252,-47.23104217,-60.62422287,-51.60607929
-72.18385296,-58.95084285,-167.84092488

>  <CHROM.1>
118.58800838,-134.85862354,3.96747558,4.81413108,16.78269568,3.17531027,2.38553966
-0.19148401,2.72687111

>  <Name>
P24180736

>  <RI>
2.22087e+07

>  <Rbt.Current_Directory>
/home/fstefaniak/projects/zuza/docking/adenine/4XNR

>  <Rbt.Executable>
rbdock ($Id: //depot/dev/client3/rdock/2013.1/src/exe/rbdock.cxx#4 $)

>  <Rbt.Library>
libRbt.so (2013.1, Build901 2013/11/27)

>  <Rbt.Parameter_File>
/home/fstefaniak/progs/rDock//data/scripts/dock_solv.prm

>  <Rbt.Receptor>
4xnr.prm

>  <SCORE>
-54.9726

>  <SCORE.INTER>
-32.455

>  <SCORE.INTER.CONST>
1

>  <SCORE.INTER.POLAR>
-4.76397

>  <SCORE.INTER.ROT>
3

>  <SCORE.INTER.SOLV>
11.3616

>  <SCORE.INTER.VDW>
-15.144

>  <SCORE.INTER.norm>
-3.60611

>  <SCORE.INTRA>
-2.79596

>  <SCORE.INTRA.DIHEDRAL>
-5.49251

>  <SCORE.INTRA.DIHEDRAL.0>
7.16013

>  <SCORE.INTRA.POLAR>
0

>  <SCORE.INTRA.POLAR.0>
0

>  <SCORE.INTRA.REPUL>
0

>  <SCORE.INTRA.REPUL.0>
0

>  <SCORE.INTRA.SOLV>
-0.0689442

>  <SCORE.INTRA.SOLV.lig_0>
-15.1375

>  <SCORE.INTRA.VDW>
-0.0152318

>  <SCORE.INTRA.VDW.0>
-0.844627

>  <SCORE.INTRA.norm>
-0.310662

>  <SCORE.RESTR>
0

>  <SCORE.RESTR.CAVITY>
0

>  <SCORE.RESTR.norm>
0

>  <SCORE.SYSTEM>
-19.7216

>  <SCORE.SYSTEM.CONST>
0

>  <SCORE.SYSTEM.DIHEDRAL>
5.37342

>  <SCORE.SYSTEM.POLAR>
-3.11617

>  <SCORE.SYSTEM.SOLV>
0.410693

>  <SCORE.SYSTEM.VDW>
-4.68858

>  <SCORE.SYSTEM.norm>
-2.19129

>  <SCORE.heavy>
9

>  <SCORE.norm>
-6.10807

$$$$
P24180736
 OpenBabel12072022113D
libRbt.so/2013.1/901 2013/11/27
 13 12  0  0  0  0  0  0  0  0999 V2000
    3.8608   15.9231    3.0831 C   0  0  0  0  0  0  0  0  0  0  0  0
    4.9732   16.9895    3.1671 C   0  0  0  0  0  0  0  0  0  0  0  0
    5.5695   17.2817    2.0488 N   0  0  0  0  0  0  0  0  0  0  0  0
    6.5879   18.1816    2.0435 C   0  0  0  0  0  0  0  0  0  0  0  0
    7.0791   18.7449    3.0140 O   0  0  0  0  0  0  0  0  0  0  0  0
    7.0562   18.3862    0.7939 N   0  0  0  0  0  0  0  0  0  0  0  0
    5.2540   17.5526    4.3993 N   0  0  0  0  0  0  0  0  0  0  0  0
    4.3351   14.5321    4.0845 Cl  0  0  0  0  0  0  0  0  0  0  0  0
    2.3417   16.6278    3.6702 Cl  0  0  0  0  0  0  0  0  0  0  0  0
    6.6380   17.8922    0.0228 H   0  0  0  0  0  0  0  0  0  0  0  0
    7.8256   19.0217    0.6547 H   0  0  0  0  0  0  0  0  0  0  0  0
    5.3313   18.5648    4.4369 H   0  0  0  0  0  0  0  0  0  0  0  0
    4.7186   17.1568    5.1761 H   0  0  0  0  0  0  0  0  0  0  0  0
  1  2  1  0  0  0  0
  1  8  1  0  0  0  0
  1  9  1  0  0  0  0
  2  3  2  0  0  0  0
  2  7  1  0  0  0  0
  3  4  1  0  0  0  0
  4  5  2  0  0  0  0
  4  6  1  0  0  0  0
  6 10  1  0  0  0  0
  6 11  1  0  0  0  0
  7 12  1  0  0  0  0
  7 13  1  0  0  0  0
M  END
>  <CHROM.0>
-56.73873533,49.97944883,-74.89050235,-47.40216198,59.53465683,-62.97927061
-172.45900193,-58.32579689,-168.16067111

>  <CHROM.1>
117.86655503,-132.48476771,3.27853994,4.78973363,16.78265016,3.16287226,-2.39938991
0.22205449,-0.37606268

>  <Name>
P24180736

>  <RI>
2.22087e+07

>  <Rbt.Current_Directory>
/home/fstefaniak/projects/zuza/docking/adenine/4XNR

>  <Rbt.Executable>
rbdock ($Id: //depot/dev/client3/rdock/2013.1/src/exe/rbdock.cxx#4 $)

>  <Rbt.Library>
libRbt.so (2013.1, Build901 2013/11/27)

>  <Rbt.Parameter_File>
/home/fstefaniak/progs/rDock//data/scripts/dock_solv.prm

>  <Rbt.Receptor>
4xnr.prm

>  <SCORE>
-53.8483

>  <SCORE.INTER>
-32.4486

>  <SCORE.INTER.CONST>
1

>  <SCORE.INTER.POLAR>
-4.8074

>  <SCORE.INTER.ROT>
3

>  <SCORE.INTER.SOLV>
11.3382

>  <SCORE.INTER.VDW>
-14.9871

>  <SCORE.INTER.norm>
-3.6054

>  <SCORE.INTRA>
-2.83218

>  <SCORE.INTRA.DIHEDRAL>
-5.55028

>  <SCORE.INTRA.DIHEDRAL.0>
7.16013

>  <SCORE.INTRA.POLAR>
0

>  <SCORE.INTRA.POLAR.0>
0

>  <SCORE.INTRA.REPUL>
0

>  <SCORE.INTRA.REPUL.0>
0

>  <SCORE.INTRA.SOLV>
-0.0725408

>  <SCORE.INTRA.SOLV.lig_0>
-15.1375

>  <SCORE.INTRA.VDW>
-0.0207661

>  <SCORE.INTRA.VDW.0>
-0.844627

>  <SCORE.INTRA.norm>
-0.314686

>  <SCORE.RESTR>
0

>  <SCORE.RESTR.CAVITY>
0

>  <SCORE.RESTR.norm>
0

>  <SCORE.SYSTEM>
-18.5676

>  <SCORE.SYSTEM.CONST>
0

>  <SCORE.SYSTEM.DIHEDRAL>
5.2847

>  <SCORE.SYSTEM.POLAR>
-3.00571

>  <SCORE.SYSTEM.SOLV>
0.12909

>  <SCORE.SYSTEM.VDW>
-4.16395

>  <SCORE.SYSTEM.norm>
-2.06307

>  <SCORE.heavy>
9

>  <SCORE.norm>
-5.98315

$$$$
P24180736
 OpenBabel12072022113D
libRbt.so/2013.1/901 2013/11/27
 13 12  0  0  0  0  0  0  0  0999 V2000
    3.9471   15.9712    3.1248 C   0  0  0  0  0  0  0  0  0  0  0  0
    5.0564   17.0420    3.1918 C   0  0  0  0  0  0  0  0  0  0  0  0
    5.6414   17.3292    2.0662 N   0  0  0  0  0  0  0  0  0  0  0  0
    6.6565   18.2326    2.0459 C   0  0  0  0  0  0  0  0  0  0  0  0
    7.1353   18.8253    3.0049 O   0  0  0  0  0  0  0  0  0  0  0  0
    7.1372   18.4033    0.7959 N   0  0  0  0  0  0  0  0  0  0  0  0
    5.3464   17.6141    4.4177 N   0  0  0  0  0  0  0  0  0  0  0  0
    4.3811   14.6391    4.2201 Cl  0  0  0  0  0  0  0  0  0  0  0  0
    2.4070   16.7057    3.6124 Cl  0  0  0  0  0  0  0  0  0  0  0  0
    6.7291   17.8858    0.0349 H   0  0  0  0  0  0  0  0  0  0  0  0
    7.9057   19.0376    0.6466 H   0  0  0  0  0  0  0  0  0  0  0  0
    4.6547   18.2487    4.8057 H   0  0  0  0  0  0  0  0  0  0  0  0
    5.7322   16.9633    5.1064 H   0  0  0  0  0  0  0  0  0  0  0  0
  1  2  1  0  0  0  0
  1  8  1  0  0  0  0
  1  9  1  0  0  0  0
  2  3  2  0  0  0  0
  2  7  1  0  0  0  0
  3  4  1  0  0  0  0
  4  5  2  0  0  0  0
  4  6  1  0  0  0  0
  6 10  1  0  0  0  0
  6 11  1  0  0  0  0
  7 12  1  0  0  0  0
  7 13  1  0  0  0  0
M  END
>  <CHROM.0>
-56.01127445,-175.69746379,61.04681160,-49.73357401,-174.92508849,-61.63244728
53.09462146,-60.82071477,-168.50422658

>  <CHROM.1>
121.81737122,-70.96813801,1.58150659,4.85880204,16.84720676,3.18824662,2.38074431
-0.12443595,2.64288806

>  <Name>
P24180736

>  <RI>
2.22087e+07

>  <Rbt.Current_Directory>
/home/fstefaniak/projects/zuza/docking/adenine/4XNR

>  <Rbt.Executable>
rbdock ($Id: //depot/dev/client3/rdock/2013.1/src/exe/rbdock.cxx#4 $)

>  <Rbt.Library>
libRbt.so (2013.1, Build901 2013/11/27)

>  <Rbt.Parameter_File>
/home/fstefaniak/progs/rDock//data/scripts/dock_solv.prm

>  <Rbt.Receptor>
4xnr.prm

>  <SCORE>
-51.8192

>  <SCORE.INTER>
-29.9507

>  <SCORE.INTER.CONST>
1

>  <SCORE.INTER.POLAR>
-4.35404

>  <SCORE.INTER.ROT>
3

>  <SCORE.INTER.SOLV>
11.6931

>  <SCORE.INTER.VDW>
-14.9514

>  <SCORE.INTER.norm>
-3.32785

>  <SCORE.INTRA>
-3.06608

>  <SCORE.INTRA.DIHEDRAL>
-5.63352

>  <SCORE.INTRA.DIHEDRAL.0>
7.16013

>  <SCORE.INTRA.POLAR>
0

>  <SCORE.INTRA.POLAR.0>
0

>  <SCORE.INTRA.REPUL>
0

>  <SCORE.INTRA.REPUL.0>
0

>  <SCORE.INTRA.SOLV>
-0.137092

>  <SCORE.INTRA.SOLV.lig_0>
-15.1375

>  <SCORE.INTRA.VDW>
-0.180767

>  <SCORE.INTRA.VDW.0>
-0.844627

>  <SCORE.INTRA.norm>
-0.340675

>  <SCORE.RESTR>
0

>  <SCORE.RESTR.CAVITY>
0

>  <SCORE.RESTR.norm>
0

>  <SCORE.SYSTEM>
-18.8025

>  <SCORE.SYSTEM.CONST>
0

>  <SCORE.SYSTEM.DIHEDRAL>
3.72833

>  <SCORE.SYSTEM.POLAR>
-2.93573

>  <SCORE.SYSTEM.SOLV>
-0.0102127

>  <SCORE.SYSTEM.VDW>
-3.98858

>  <SCORE.SYSTEM.norm>
-2.08916

>  <SCORE.heavy>
9

>  <SCORE.norm>
-5.75769

$$$$
P24207812
 OpenBabel12072022113D
libRbt.so/2013.1/901 2013/11/27
 14 14  0  0  0  0  0  0  0  0999 V2000
    3.5463   14.4025    3.7920 C   0  0  0  0  0  0  0  0  0  0  0  0
    4.4755   15.3706    4.2585 O   0  0  0  0  0  0  0  0  0  0  0  0
    4.1051   16.6942    3.8773 C   0  0  2  0  0  0  0  0  0  0  0  0
    4.6328   16.9726    2.4583 C   0  0  2  0  0  0  0  0  0  0  0  0
    5.9580   17.6672    2.7281 C   0  0  1  0  0  0  0  0  0  0  0  0
    5.6429   18.4425    4.0051 C   0  0  1  0  0  0  0  0  0  0  0  0
    4.6790   17.6690    4.7591 O   0  0  0  0  0  0  0  0  0  0  0  0
    6.8457   18.7259    4.8983 C   0  0  0  0  0  0  0  0  0  0  0  0
    7.9887   18.9994    4.0813 O   0  0  0  0  0  0  0  0  0  0  0  0
    7.0133   16.7261    2.9243 O   0  0  0  0  0  0  0  0  0  0  0  0
    3.7773   17.8704    1.7389 O   0  0  0  0  0  0  0  0  0  0  0  0
    8.2242   18.1410    3.6794 H   0  0  0  0  0  0  0  0  0  0  0  0
    6.6769   16.0153    3.4973 H   0  0  0  0  0  0  0  0  0  0  0  0
    4.3486   18.4423    1.1958 H   0  0  0  0  0  0  0  0  0  0  0  0
  1  2  1  0  0  0  0
  3  7  1  0  0  0  0
  3  2  1  1  0  0  0
  3  4  1  0  0  0  0
  4 11  1  1  0  0  0
  4  5  1  0  0  0  0
  5 10  1  1  0  0  0
  5  6  1  0  0  0  0
  6  7  1  0  0  0  0
  6  8  1  1  0  0  0
  8  9  1  0  0  0  0
  9 12  1  0  0  0  0
 10 13  1  0  0  0  0
 11 14  1  0  0  0  0
M  END
>  <CHROM.0>
-57.06842546,179.06600916,-66.57698156,-46.95174251,-175.09757244,-64.96959650
-70.82108920,-57.83747879,-168.41928977

>  <CHROM.1>
-84.95641783,143.32314234,-43.36196359,36.84080528,-70.76741109,5.36348568
17.21967793,3.58484280,-2.76353755,-0.64707636,-0.80493007

>  <Name>
P24207812

>  <RI>
1.00763e+07

>  <Rbt.Current_Directory>
/home/fstefaniak/projects/zuza/docking/adenine/4XNR

>  <Rbt.Executable>
rbdock ($Id: //depot/dev/client3/rdock/2013.1/src/exe/rbdock.cxx#4 $)

>  <Rbt.Library>
libRbt.so (2013.1, Build901 2013/11/27)

>  <Rbt.Parameter_File>
/home/fstefaniak/progs/rDock//data/scripts/dock_solv.prm

>  <Rbt.Receptor>
4xnr.prm

>  <SCORE>
-47.427

>  <SCORE.INTER>
-31.4417

>  <SCORE.INTER.CONST>
1

>  <SCORE.INTER.POLAR>
-4.91775

>  <SCORE.INTER.ROT>
2

>  <SCORE.INTER.SOLV>
13.6115

>  <SCORE.INTER.VDW>
-14.0391

>  <SCORE.INTER.norm>
-2.85833

>  <SCORE.INTRA>
4.73013

>  <SCORE.INTRA.DIHEDRAL>
10.0638

>  <SCORE.INTRA.DIHEDRAL.0>
1.02916

>  <SCORE.INTRA.POLAR>
-0.522634

>  <SCORE.INTRA.POLAR.0>
-0.0945277

>  <SCORE.INTRA.REPUL>
0

>  <SCORE.INTRA.REPUL.0>
0

>  <SCORE.INTRA.SOLV>
0.929977

>  <SCORE.INTRA.SOLV.lig_0>
-18.5277

>  <SCORE.INTRA.VDW>
1.01019

>  <SCORE.INTRA.VDW.0>
0.00199835

>  <SCORE.INTRA.norm>
0.430012

>  <SCORE.RESTR>
0

>  <SCORE.RESTR.CAVITY>
0

>  <SCORE.RESTR.norm>
0

>  <SCORE.SYSTEM>
-20.7155

>  <SCORE.SYSTEM.CONST>
0

>  <SCORE.SYSTEM.DIHEDRAL>
4.51772

>  <SCORE.SYSTEM.POLAR>
-2.99458

>  <SCORE.SYSTEM.SOLV>
0.0825911

>  <SCORE.SYSTEM.VDW>
-5.36185

>  <SCORE.SYSTEM.norm>
-1.88323

>  <SCORE.heavy>
11

>  <SCORE.norm>
-4.31155

$$$$
P24207812
 OpenBabel12072022113D
libRbt.so/2013.1/901 2013/11/27
 14 14  0  0  0  0  0  0  0  0999 V2000
    3.8129   14.2031    3.8421 C   0  0  0  0  0  0  0  0  0  0  0  0
    4.7583   15.1799    4.2548 O   0  0  0  0  0  0  0  0  0  0  0  0
    4.2259   16.5014    4.1869 C   0  0  2  0  0  0  0  0  0  0  0  0
    4.2692   16.9840    2.7257 C   0  0  2  0  0  0  0  0  0  0  0  0
    5.5783   17.7550    2.6702 C   0  0  1  0  0  0  0  0  0  0  0  0
    5.6431   18.3498    4.0749 C   0  0  1  0  0  0  0  0  0  0  0  0
    5.0009   17.4153    4.9750 O   0  0  0  0  0  0  0  0  0  0  0  0
    7.0505   18.6324    4.5889 C   0  0  0  0  0  0  0  0  0  0  0  0
    6.9974   18.8975    5.9945 O   0  0  0  0  0  0  0  0  0  0  0  0
    6.6847   16.8922    2.4068 O   0  0  0  0  0  0  0  0  0  0  0  0
    3.1906   17.8807    2.4292 O   0  0  0  0  0  0  0  0  0  0  0  0
    6.9221   18.0195    6.4153 H   0  0  0  0  0  0  0  0  0  0  0  0
    7.4866   17.4413    2.3581 H   0  0  0  0  0  0  0  0  0  0  0  0
    3.1387   18.5231    3.1594 H   0  0  0  0  0  0  0  0  0  0  0  0
  1  2  1  0  0  0  0
  3  7  1  0  0  0  0
  3  2  1  6  0  0  0
  3  4  1  0  0  0  0
  4 11  1  1  0  0  0
  4  5  1  0  0  0  0
  5 10  1  1  0  0  0
  5  6  1  0  0  0  0
  6  7  1  0  0  0  0
  6  8  1  1  0  0  0
  8  9  1  0  0  0  0
  9 12  1  0  0  0  0
 10 13  1  0  0  0  0
 11 14  1  0  0  0  0
M  END
>  <CHROM.0>
-58.05379299,-61.80314197,-54.90769470,-45.45626699,-58.05595746,-175.39544766
-67.78606168,-172.59372439,-167.88761621

>  <CHROM.1>
-79.26165022,45.91371566,178.44050586,-167.22129700,78.70730449,5.21870186
17.15111615,3.85556737,-2.89179630,-0.84621536,-0.76584927

>  <Name>
P24207812

>  <RI>
1.00763e+07

>  <Rbt.Current_Directory>
/home/fstefaniak/projects/zuza/docking/adenine/4XNR

>  <Rbt.Executable>
rbdock ($Id: //depot/dev/client3/rdock/2013.1/src/exe/rbdock.cxx#4 $)

>  <Rbt.Library>
libRbt.so (2013.1, Build901 2013/11/27)

>  <Rbt.Parameter_File>
/home/fstefaniak/progs/rDock//data/scripts/dock_solv.prm

>  <Rbt.Receptor>
4xnr.prm

>  <SCORE>
-45.1427

>  <SCORE.INTER>
-27.7327

>  <SCORE.INTER.CONST>
1

>  <SCORE.INTER.POLAR>
-3.80437

>  <SCORE.INTER.ROT>
2

>  <SCORE.INTER.SOLV>
12.5276

>  <SCORE.INTER.VDW>
-14.9164

>  <SCORE.INTER.norm>
-2.52116

>  <SCORE.INTRA>
2.91222

>  <SCORE.INTRA.DIHEDRAL>
4.05256

>  <SCORE.INTRA.DIHEDRAL.0>
1.02916

>  <SCORE.INTRA.POLAR>
0.0945277

>  <SCORE.INTRA.POLAR.0>
-0.0945277

>  <SCORE.INTRA.REPUL>
0

>  <SCORE.INTRA.REPUL.0>
0

>  <SCORE.INTRA.SOLV>
0.228589

>  <SCORE.INTRA.SOLV.lig_0>
-18.5277

>  <SCORE.INTRA.VDW>
0.450246

>  <SCORE.INTRA.VDW.0>
0.00199835

>  <SCORE.INTRA.norm>
0.264747

>  <SCORE.RESTR>
0

>  <SCORE.RESTR.CAVITY>
0

>  <SCORE.RESTR.norm>
0

>  <SCORE.SYSTEM>
-20.3222

>  <SCORE.SYSTEM.CONST>
0

>  <SCORE.SYSTEM.DIHEDRAL>
4.5329

>  <SCORE.SYSTEM.POLAR>
-3.04237

>  <SCORE.SYSTEM.SOLV>
0.0583693

>  <SCORE.SYSTEM.VDW>
-4.9373

>  <SCORE.SYSTEM.norm>
-1.84747

>  <SCORE.heavy>
11

>  <SCORE.norm>
-4.10388

$$$$
P24207812
 OpenBabel12072022113D
libRbt.so/2013.1/901 2013/11/27
 14 14  0  0  0  0  0  0  0  0999 V2000
    3.5642   14.3306    4.1234 C   0  0  0  0  0  0  0  0  0  0  0  0
    4.5407   15.2602    4.5714 O   0  0  0  0  0  0  0  0  0  0  0  0
    4.1516   16.6085    4.3168 C   0  0  2  0  0  0  0  0  0  0  0  0
    4.2712   16.8876    2.8076 C   0  0  2  0  0  0  0  0  0  0  0  0
    5.6550   17.5069    2.6939 C   0  0  1  0  0  0  0  0  0  0  0  0
    5.7573   18.2717    4.0113 C   0  0  1  0  0  0  0  0  0  0  0  0
    5.0046   17.5344    5.0041 O   0  0  0  0  0  0  0  0  0  0  0  0
    7.1774   18.4744    4.5282 C   0  0  0  0  0  0  0  0  0  0  0  0
    7.1637   19.4388    5.5858 O   0  0  0  0  0  0  0  0  0  0  0  0
    6.6688   16.5085    2.5788 O   0  0  0  0  0  0  0  0  0  0  0  0
    3.2984   17.8427    2.3642 O   0  0  0  0  0  0  0  0  0  0  0  0
    7.2523   20.3038    5.1411 H   0  0  0  0  0  0  0  0  0  0  0  0
    6.6739   15.9915    3.4031 H   0  0  0  0  0  0  0  0  0  0  0  0
    3.1983   18.5043    3.0719 H   0  0  0  0  0  0  0  0  0  0  0  0
  1  2  1  0  0  0  0
  3  7  1  0  0  0  0
  3  2  1  6  0  0  0
  3  4  1  0  0  0  0
  4 11  1  1  0  0  0
  4  5  1  0  0  0  0
  5 10  1  1  0  0  0
  5  6  1  0  0  0  0
  6  7  1  0  0  0  0
  6  8  1  1  0  0  0
  8  9  1  0  0  0  0
  9 12  1  0  0  0  0
 10 13  1  0  0  0  0
 11 14  1  0  0  0  0
M  END
>  <CHROM.0>
-57.86491776,-61.49181952,61.04851140,-45.67005918,-59.27568862,-67.01859069
53.34186853,-59.36090674,-167.25836072

>  <CHROM.1>
-72.81273694,37.02975907,-64.00591030,167.34131671,-87.60649612,5.21788389
17.16035970,3.89211287,-2.82353428,-0.80207531,-0.81145543

>  <Name>
P24207812

>  <RI>
1.00763e+07

>  <Rbt.Current_Directory>
/home/fstefaniak/projects/zuza/docking/adenine/4XNR

>  <Rbt.Executable>
rbdock ($Id: //depot/dev/client3/rdock/2013.1/src/exe/rbdock.cxx#4 $)

>  <Rbt.Library>
libRbt.so (2013.1, Build901 2013/11/27)

>  <Rbt.Parameter_File>
/home/fstefaniak/progs/rDock//data/scripts/dock_solv.prm

>  <Rbt.Receptor>
4xnr.prm

>  <SCORE>
-44.6183

>  <SCORE.INTER>
-29.7754

>  <SCORE.INTER.CONST>
1

>  <SCORE.INTER.POLAR>
-4.38106

>  <SCORE.INTER.ROT>
2

>  <SCORE.INTER.SOLV>
13.4145

>  <SCORE.INTER.VDW>
-14.6516

>  <SCORE.INTER.norm>
-2.70685

>  <SCORE.INTRA>
4.06776

>  <SCORE.INTRA.DIHEDRAL>
6.06919

>  <SCORE.INTRA.DIHEDRAL.0>
1.02916

>  <SCORE.INTRA.POLAR>
0.0945277

>  <SCORE.INTRA.POLAR.0>
-0.0945277

>  <SCORE.INTRA.REPUL>
0

>  <SCORE.INTRA.REPUL.0>
0

>  <SCORE.INTRA.SOLV>
0.0769683

>  <SCORE.INTRA.SOLV.lig_0>
-18.5277

>  <SCORE.INTRA.VDW>
0.673284

>  <SCORE.INTRA.VDW.0>
0.00199835

>  <SCORE.INTRA.norm>
0.369796

>  <SCORE.RESTR>
0

>  <SCORE.RESTR.CAVITY>
0

>  <SCORE.RESTR.norm>
0

>  <SCORE.SYSTEM>
-18.9107

>  <SCORE.SYSTEM.CONST>
0

>  <SCORE.SYSTEM.DIHEDRAL>
4.25302

>  <SCORE.SYSTEM.POLAR>
-2.99638

>  <SCORE.SYSTEM.SOLV>
0.182307

>  <SCORE.SYSTEM.VDW>
-4.09763

>  <SCORE.SYSTEM.norm>
-1.71915

>  <SCORE.heavy>
11

>  <SCORE.norm>
-4.05621

$$$$
P24228551
 OpenBabel12072022113D
libRbt.so/2013.1/901 2013/11/27
 13 13  0  0  0  0  0  0  0  0999 V2000
    6.3970   18.3035    1.6044 C   0  0  0  0  0  0  0  0  0  0  0  0
    6.9713   17.3367    2.6410 C   0  0  1  0  0  0  0  0  0  0  0  0
    7.2001   17.9586    4.0290 C   0  0  2  0  0  0  0  0  0  0  0  0
    5.8674   18.1612    4.7583 C   0  0  1  0  0  0  0  0  0  0  0  0
    5.0819   16.8626    4.7829 C   0  0  0  0  0  0  0  0  0  0  0  0
    4.9240   16.3159    3.3721 C   0  0  1  0  0  0  0  0  0  0  0  0
    6.1809   16.1461    2.7301 O   0  0  0  0  0  0  0  0  0  0  0  0
    4.3137   15.0412    3.4527 O   0  0  0  0  0  0  0  0  0  0  0  0
    6.1149   18.6021    6.0959 O   0  0  0  0  0  0  0  0  0  0  0  0
    7.8846   19.2127    3.9614 O   0  0  0  0  0  0  0  0  0  0  0  0
    4.3813   14.6793    2.5540 H   0  0  0  0  0  0  0  0  0  0  0  0
    6.6755   17.9092    6.4969 H   0  0  0  0  0  0  0  0  0  0  0  0
    7.9961   19.5289    4.8761 H   0  0  0  0  0  0  0  0  0  0  0  0
  2  1  1  6  0  0  0
  2  3  1  0  0  0  0
  2  7  1  0  0  0  0
  3 10  1  6  0  0  0
  3  4  1  0  0  0  0
  4  5  1  0  0  0  0
  4  9  1  1  0  0  0
  5  6  1  0  0  0  0
  6  7  1  0  0  0  0
  6  8  1  1  0  0  0
  8 11  1  0  0  0  0
  9 12  1  0  0  0  0
 10 13  1  0  0  0  0
M  END
>  <CHROM.0>
-56.77501949,-66.43566539,-64.02716455,-47.32965101,-60.31477440,-62.10492401
-68.57153306,-60.33373672,-168.24552450

>  <CHROM.1>
-179.38727172,-57.66910227,-170.35593268,6.09851790,17.39082737,3.76465160
-0.62750150,-0.82534789,-1.95930877

>  <Name>
P24228551

>  <RI>
1.34432e+07

>  <Rbt.Current_Directory>
/home/fstefaniak/projects/zuza/docking/adenine/4XNR

>  <Rbt.Executable>
rbdock ($Id: //depot/dev/client3/rdock/2013.1/src/exe/rbdock.cxx#4 $)

>  <Rbt.Library>
libRbt.so (2013.1, Build901 2013/11/27)

>  <Rbt.Parameter_File>
/home/fstefaniak/progs/rDock//data/scripts/dock_solv.prm

>  <Rbt.Receptor>
4xnr.prm

>  <SCORE>
-48.0585

>  <SCORE.INTER>
-27.5737

>  <SCORE.INTER.CONST>
1

>  <SCORE.INTER.POLAR>
-3.81722

>  <SCORE.INTER.ROT>
0

>  <SCORE.INTER.SOLV>
13.232

>  <SCORE.INTER.VDW>
-13.669

>  <SCORE.INTER.norm>
-2.75737

>  <SCORE.INTRA>
0.395725

>  <SCORE.INTRA.DIHEDRAL>
-0.279447

>  <SCORE.INTRA.DIHEDRAL.0>
0.79452

>  <SCORE.INTRA.POLAR>
0.061013

>  <SCORE.INTRA.POLAR.0>
-0.061013

>  <SCORE.INTRA.REPUL>
0

>  <SCORE.INTRA.REPUL.0>
0

>  <SCORE.INTRA.SOLV>
0.0527134

>  <SCORE.INTRA.SOLV.lig_0>
-16.7178

>  <SCORE.INTRA.VDW>
0.301647

>  <SCORE.INTRA.VDW.0>
-0.103995

>  <SCORE.INTRA.norm>
0.0395725

>  <SCORE.RESTR>
0

>  <SCORE.RESTR.CAVITY>
0

>  <SCORE.RESTR.norm>
0

>  <SCORE.SYSTEM>
-20.8806

>  <SCORE.SYSTEM.CONST>
0

>  <SCORE.SYSTEM.DIHEDRAL>
4.16055

>  <SCORE.SYSTEM.POLAR>
-2.99473

>  <SCORE.SYSTEM.SOLV>
0.28236

>  <SCORE.SYSTEM.VDW>
-5.41891

>  <SCORE.SYSTEM.norm>
-2.08806

>  <SCORE.heavy>
10

>  <SCORE.norm>
-4.80585

$$$$
P24228551
 OpenBabel12072022113D
libRbt.so/2013.1/901 2013/11/27
 13 13  0  0  0  0  0  0  0  0999 V2000
    3.6526   16.9044    3.9058 C   0  0  0  0  0  0  0  0  0  0  0  0
    5.1181   16.5708    4.1887 C   0  0  1  0  0  0  0  0  0  0  0  0
    6.1056   17.1191    3.1447 C   0  0  2  0  0  0  0  0  0  0  0  0
    6.2792   18.6333    3.3058 C   0  0  1  0  0  0  0  0  0  0  0  0
    6.6448   18.9681    4.7405 C   0  0  0  0  0  0  0  0  0  0  0  0
    5.6247   18.3695    5.6973 C   0  0  1  0  0  0  0  0  0  0  0  0
    5.4912   16.9662    5.5133 O   0  0  0  0  0  0  0  0  0  0  0  0
    6.0762   18.5822    7.0218 O   0  0  0  0  0  0  0  0  0  0  0  0
    7.3064   19.0947    2.4246 O   0  0  0  0  0  0  0  0  0  0  0  0
    5.6945   16.8417    1.8030 O   0  0  0  0  0  0  0  0  0  0  0  0
    6.8308   17.9793    7.1238 H   0  0  0  0  0  0  0  0  0  0  0  0
    6.9812   18.8995    1.5238 H   0  0  0  0  0  0  0  0  0  0  0  0
    4.8746   17.3435    1.6442 H   0  0  0  0  0  0  0  0  0  0  0  0
  2  1  1  6  0  0  0
  2  3  1  0  0  0  0
  2  7  1  0  0  0  0
  3 10  1  6  0  0  0
  3  4  1  0  0  0  0
  4  5  1  0  0  0  0
  4  9  1  6  0  0  0
  5  6  1  0  0  0  0
  6  7  1  0  0  0  0
  6  8  1  1  0  0  0
  8 11  1  0  0  0  0
  9 12  1  0  0  0  0
 10 13  1  0  0  0  0
M  END
>  <CHROM.0>
-58.56912724,-157.68147385,-66.88589217,-46.02046868,-58.53279106,-60.17008695
-69.24760674,-59.94352807,-167.40255225

>  <CHROM.1>
65.99612896,62.42509848,-71.55863575,5.81223046,17.81148745,4.16086014,1.49331203
-0.77371281,-1.76250171

>  <Name>
P24228551

>  <RI>
1.34432e+07

>  <Rbt.Current_Directory>
/home/fstefaniak/projects/zuza/docking/adenine/4XNR

>  <Rbt.Executable>
rbdock ($Id: //depot/dev/client3/rdock/2013.1/src/exe/rbdock.cxx#4 $)

>  <Rbt.Library>
libRbt.so (2013.1, Build901 2013/11/27)

>  <Rbt.Parameter_File>
/home/fstefaniak/progs/rDock//data/scripts/dock_solv.prm

>  <Rbt.Receptor>
4xnr.prm

>  <SCORE>
-47.0122

>  <SCORE.INTER>
-27.9985

>  <SCORE.INTER.CONST>
1

>  <SCORE.INTER.POLAR>
-3.71655

>  <SCORE.INTER.ROT>
0

>  <SCORE.INTER.SOLV>
14.4137

>  <SCORE.INTER.VDW>
-14.6817

>  <SCORE.INTER.norm>
-2.79985

>  <SCORE.INTRA>
0.826739

>  <SCORE.INTRA.DIHEDRAL>
0.0853583

>  <SCORE.INTRA.DIHEDRAL.0>
0.79452

>  <SCORE.INTRA.POLAR>
0.061013

>  <SCORE.INTRA.POLAR.0>
-0.061013

>  <SCORE.INTRA.REPUL>
0

>  <SCORE.INTRA.REPUL.0>
0

>  <SCORE.INTRA.SOLV>
-0.0143562

>  <SCORE.INTRA.SOLV.lig_0>
-16.7178

>  <SCORE.INTRA.VDW>
0.583794

>  <SCORE.INTRA.VDW.0>
-0.103995

>  <SCORE.INTRA.norm>
0.0826739

>  <SCORE.RESTR>
0

>  <SCORE.RESTR.CAVITY>
0

>  <SCORE.RESTR.norm>
0

>  <SCORE.SYSTEM>
-19.8405

>  <SCORE.SYSTEM.CONST>
0

>  <SCORE.SYSTEM.DIHEDRAL>
6.48968

>  <SCORE.SYSTEM.POLAR>
-2.99991

>  <SCORE.SYSTEM.SOLV>
0.254607

>  <SCORE.SYSTEM.VDW>
-5.47538

>  <SCORE.SYSTEM.norm>
-1.98405

>  <SCORE.heavy>
10

>  <SCORE.norm>
-4.70122

$$$$
P24228551
 OpenBabel12072022113D
libRbt.so/2013.1/901 2013/11/27
 13 13  0  0  0  0  0  0  0  0999 V2000
    6.4091   18.3337    1.5429 C   0  0  0  0  0  0  0  0  0  0  0  0
    6.9509   17.3380    2.5695 C   0  0  1  0  0  0  0  0  0  0  0  0
    7.2023   17.9385    3.9630 C   0  0  2  0  0  0  0  0  0  0  0  0
    5.8781   18.1799    4.6960 C   0  0  1  0  0  0  0  0  0  0  0  0
    5.0485   16.9089    4.7095 C   0  0  0  0  0  0  0  0  0  0  0  0
    4.8704   16.3812    3.2938 C   0  0  1  0  0  0  0  0  0  0  0  0
    6.1201   16.1744    2.6485 O   0  0  0  0  0  0  0  0  0  0  0  0
    4.2168   15.1276    3.3634 O   0  0  0  0  0  0  0  0  0  0  0  0
    6.1421   18.5995    6.0373 O   0  0  0  0  0  0  0  0  0  0  0  0
    7.9295   19.1690    3.9062 O   0  0  0  0  0  0  0  0  0  0  0  0
    4.3198   14.7474    2.4756 H   0  0  0  0  0  0  0  0  0  0  0  0
    6.7021   17.8971    6.4224 H   0  0  0  0  0  0  0  0  0  0  0  0
    8.0141   19.4952    4.8203 H   0  0  0  0  0  0  0  0  0  0  0  0
  2  1  1  6  0  0  0
  2  3  1  0  0  0  0
  2  7  1  0  0  0  0
  3 10  1  6  0  0  0
  3  4  1  0  0  0  0
  4  5  1  0  0  0  0
  4  9  1  1  0  0  0
  5  6  1  0  0  0  0
  6  7  1  0  0  0  0
  6  8  1  1  0  0  0
  8 11  1  0  0  0  0
  9 12  1  0  0  0  0
 10 13  1  0  0  0  0
M  END
>  <CHROM.0>
-62.43457946,-61.63366934,-67.94510894,-47.00536531,60.29006524,-177.04634834
-66.33337454,-60.35448695,-167.76693864

>  <CHROM.1>
177.85452679,-55.96466106,-166.90232123,6.08182595,17.41153095,3.69488271
-0.60845692,-0.79447177,-1.93619539

>  <Name>
P24228551

>  <RI>
1.34432e+07

>  <Rbt.Current_Directory>
/home/fstefaniak/projects/zuza/docking/adenine/4XNR

>  <Rbt.Executable>
rbdock ($Id: //depot/dev/client3/rdock/2013.1/src/exe/rbdock.cxx#4 $)

>  <Rbt.Library>
libRbt.so (2013.1, Build901 2013/11/27)

>  <Rbt.Parameter_File>
/home/fstefaniak/progs/rDock//data/scripts/dock_solv.prm

>  <Rbt.Receptor>
4xnr.prm

>  <SCORE>
-46.9588

>  <SCORE.INTER>
-27.8356

>  <SCORE.INTER.CONST>
1

>  <SCORE.INTER.POLAR>
-3.85231

>  <SCORE.INTER.ROT>
0

>  <SCORE.INTER.SOLV>
13.0429

>  <SCORE.INTER.VDW>
-13.6636

>  <SCORE.INTER.norm>
-2.78356

>  <SCORE.INTRA>
0.642784

>  <SCORE.INTRA.DIHEDRAL>
0.158779

>  <SCORE.INTRA.DIHEDRAL.0>
0.79452

>  <SCORE.INTRA.POLAR>
0.061013

>  <SCORE.INTRA.POLAR.0>
-0.061013

>  <SCORE.INTRA.REPUL>
0

>  <SCORE.INTRA.REPUL.0>
0

>  <SCORE.INTRA.SOLV>
0.0547929

>  <SCORE.INTRA.SOLV.lig_0>
-16.7178

>  <SCORE.INTRA.VDW>
0.328554

>  <SCORE.INTRA.VDW.0>
-0.103995

>  <SCORE.INTRA.norm>
0.0642784

>  <SCORE.RESTR>
0

>  <SCORE.RESTR.CAVITY>
0

>  <SCORE.RESTR.norm>
0

>  <SCORE.SYSTEM>
-19.766

>  <SCORE.SYSTEM.CONST>
0

>  <SCORE.SYSTEM.DIHEDRAL>
4.1217

>  <SCORE.SYSTEM.POLAR>
-2.9598

>  <SCORE.SYSTEM.SOLV>
-0.0410449

>  <SCORE.SYSTEM.VDW>
-4.67153

>  <SCORE.SYSTEM.norm>
-1.9766

>  <SCORE.heavy>
10

>  <SCORE.norm>
-4.69588

$$$$
P24228552
 OpenBabel12072022113D
libRbt.so/2013.1/901 2013/11/27
 13 13  0  0  0  0  0  0  0  0999 V2000
    3.8884   15.9588    3.5215 C   0  0  0  0  0  0  0  0  0  0  0  0
    4.6148   17.2824    3.7342 C   0  0  2  0  0  0  0  0  0  0  0  0
    5.7907   17.4517    2.7569 C   0  0  2  0  0  0  0  0  0  0  0  0
    6.5578   18.7376    3.0977 C   0  0  1  0  0  0  0  0  0  0  0  0
    6.9430   18.7657    4.5671 C   0  0  0  0  0  0  0  0  0  0  0  0
    5.7087   18.5325    5.4254 C   0  0  1  0  0  0  0  0  0  0  0  0
    5.0831   17.3012    5.0878 O   0  0  0  0  0  0  0  0  0  0  0  0
    6.0681   18.4814    6.7923 O   0  0  0  0  0  0  0  0  0  0  0  0
    7.7353   18.8217    2.2922 O   0  0  0  0  0  0  0  0  0  0  0  0
    5.3568   17.5436    1.3964 O   0  0  0  0  0  0  0  0  0  0  0  0
    6.6360   17.6990    6.8837 H   0  0  0  0  0  0  0  0  0  0  0  0
    7.4211   18.7597    1.3686 H   0  0  0  0  0  0  0  0  0  0  0  0
    4.9761   18.4312    1.2706 H   0  0  0  0  0  0  0  0  0  0  0  0
  2  7  1  0  0  0  0
  2  1  1  6  0  0  0
  2  3  1  0  0  0  0
  3 10  1  6  0  0  0
  3  4  1  0  0  0  0
  4  5  1  0  0  0  0
  4  9  1  6  0  0  0
  5  6  1  0  0  0  0
  6  7  1  0  0  0  0
  6  8  1  1  0  0  0
  8 11  1  0  0  0  0
  9 12  1  0  0  0  0
 10 13  1  0  0  0  0
M  END
>  <CHROM.0>
-56.89601424,-175.52671569,-65.56953766,-47.09358463,-177.29490766,-62.54402182
-67.57713483,-59.75673539,-168.44030465

>  <CHROM.1>
74.88443052,55.69995281,-64.41837226,5.79160418,17.88774435,3.85507847,1.54786806
-0.66652116,-1.69656295

>  <Name>
P24228552

>  <RI>
1.34432e+07

>  <Rbt.Current_Directory>
/home/fstefaniak/projects/zuza/docking/adenine/4XNR

>  <Rbt.Executable>
rbdock ($Id: //depot/dev/client3/rdock/2013.1/src/exe/rbdock.cxx#4 $)

>  <Rbt.Library>
libRbt.so (2013.1, Build901 2013/11/27)

>  <Rbt.Parameter_File>
/home/fstefaniak/progs/rDock//data/scripts/dock_solv.prm

>  <Rbt.Receptor>
4xnr.prm

>  <SCORE>
-58.914

>  <SCORE.INTER>
-38.4292

>  <SCORE.INTER.CONST>
1

>  <SCORE.INTER.POLAR>
-5.28274

>  <SCORE.INTER.ROT>
0

>  <SCORE.INTER.SOLV>
14.0179

>  <SCORE.INTER.VDW>
-16.283

>  <SCORE.INTER.norm>
-3.84292

>  <SCORE.INTRA>
0.300371

>  <SCORE.INTRA.DIHEDRAL>
0.10311

>  <SCORE.INTRA.DIHEDRAL.0>
1.14076

>  <SCORE.INTRA.POLAR>
0.0425732

>  <SCORE.INTRA.POLAR.0>
-0.0425732

>  <SCORE.INTRA.REPUL>
0

>  <SCORE.INTRA.REPUL.0>
0

>  <SCORE.INTRA.SOLV>
0.0740593

>  <SCORE.INTRA.SOLV.lig_0>
-16.9242

>  <SCORE.INTRA.VDW>
0.0670373

>  <SCORE.INTRA.VDW.0>
0.328339

>  <SCORE.INTRA.norm>
0.0300371

>  <SCORE.RESTR>
0

>  <SCORE.RESTR.CAVITY>
0

>  <SCORE.RESTR.norm>
0

>  <SCORE.SYSTEM>
-20.7851

>  <SCORE.SYSTEM.CONST>
0

>  <SCORE.SYSTEM.DIHEDRAL>
4.10007

>  <SCORE.SYSTEM.POLAR>
-2.99126

>  <SCORE.SYSTEM.SOLV>
0.0903344

>  <SCORE.SYSTEM.VDW>
-5.2827

>  <SCORE.SYSTEM.norm>
-2.07851

>  <SCORE.heavy>
10

>  <SCORE.norm>
-5.8914

$$$$
P24228552
 OpenBabel12072022113D
libRbt.so/2013.1/901 2013/11/27
 13 13  0  0  0  0  0  0  0  0999 V2000
    3.8800   15.9928    3.5847 C   0  0  0  0  0  0  0  0  0  0  0  0
    4.6094   17.3189    3.7702 C   0  0  2  0  0  0  0  0  0  0  0  0
    5.7769   17.4715    2.7802 C   0  0  2  0  0  0  0  0  0  0  0  0
    6.5480   18.7618    3.0940 C   0  0  1  0  0  0  0  0  0  0  0  0
    6.9461   18.8128    4.5593 C   0  0  0  0  0  0  0  0  0  0  0  0
    5.7190   18.5944    5.4319 C   0  0  1  0  0  0  0  0  0  0  0  0
    5.0894   17.3585    5.1192 O   0  0  0  0  0  0  0  0  0  0  0  0
    6.0902   18.5646    6.7963 O   0  0  0  0  0  0  0  0  0  0  0  0
    7.7187   18.8321    2.2770 O   0  0  0  0  0  0  0  0  0  0  0  0
    5.3313   17.5424    1.4222 O   0  0  0  0  0  0  0  0  0  0  0  0
    6.6770   17.7965    6.8903 H   0  0  0  0  0  0  0  0  0  0  0  0
    7.3937   18.7882    1.3562 H   0  0  0  0  0  0  0  0  0  0  0  0
    4.9688   18.4351    1.2800 H   0  0  0  0  0  0  0  0  0  0  0  0
  2  7  1  0  0  0  0
  2  1  1  6  0  0  0
  2  3  1  0  0  0  0
  3 10  1  6  0  0  0
  3  4  1  0  0  0  0
  4  5  1  0  0  0  0
  4  9  1  6  0  0  0
  5  6  1  0  0  0  0
  6  7  1  0  0  0  0
  6  8  1  1  0  0  0
  8 11  1  0  0  0  0
  9 12  1  0  0  0  0
 10 13  1  0  0  0  0
M  END
>  <CHROM.0>
-57.66803848,-173.14806286,-73.94299599,-47.39594312,60.01039427,-59.47747833
-171.48185015,59.66835728,-168.24607576

>  <CHROM.1>
76.14936253,57.67658668,-62.97632045,5.78798102,17.92521542,3.87121411,1.55893437
-0.66691961,-1.70530986

>  <Name>
P24228552

>  <RI>
1.34432e+07

>  <Rbt.Current_Directory>
/home/fstefaniak/projects/zuza/docking/adenine/4XNR

>  <Rbt.Executable>
rbdock ($Id: //depot/dev/client3/rdock/2013.1/src/exe/rbdock.cxx#4 $)

>  <Rbt.Library>
libRbt.so (2013.1, Build901 2013/11/27)

>  <Rbt.Parameter_File>
/home/fstefaniak/progs/rDock//data/scripts/dock_solv.prm

>  <Rbt.Receptor>
4xnr.prm

>  <SCORE>
-56.2472

>  <SCORE.INTER>
-38.4097

>  <SCORE.INTER.CONST>
1

>  <SCORE.INTER.POLAR>
-5.30145

>  <SCORE.INTER.ROT>
0

>  <SCORE.INTER.SOLV>
13.9989

>  <SCORE.INTER.VDW>
-16.2013

>  <SCORE.INTER.norm>
-3.84097

>  <SCORE.INTRA>
0.349986

>  <SCORE.INTRA.DIHEDRAL>
0.159839

>  <SCORE.INTRA.DIHEDRAL.0>
1.14076

>  <SCORE.INTRA.POLAR>
0.0425732

>  <SCORE.INTRA.POLAR.0>
-0.0425732

>  <SCORE.INTRA.REPUL>
0

>  <SCORE.INTRA.REPUL.0>
0

>  <SCORE.INTRA.SOLV>
0.0744891

>  <SCORE.INTRA.SOLV.lig_0>
-16.9242

>  <SCORE.INTRA.VDW>
0.0880733

>  <SCORE.INTRA.VDW.0>
0.328339

>  <SCORE.INTRA.norm>
0.0349986

>  <SCORE.RESTR>
0

>  <SCORE.RESTR.CAVITY>
0

>  <SCORE.RESTR.norm>
0

>  <SCORE.SYSTEM>
-18.1875

>  <SCORE.SYSTEM.CONST>
0

>  <SCORE.SYSTEM.DIHEDRAL>
4.90808

>  <SCORE.SYSTEM.POLAR>
-2.96099

>  <SCORE.SYSTEM.SOLV>
-0.176059

>  <SCORE.SYSTEM.VDW>
-3.83238

>  <SCORE.SYSTEM.norm>
-1.81875

>  <SCORE.heavy>
10

>  <SCORE.norm>
-5.62472

$$$$
P24228552
 OpenBabel12072022113D
libRbt.so/2013.1/901 2013/11/27
 13 13  0  0  0  0  0  0  0  0999 V2000
    3.8631   15.9994    3.5977 C   0  0  0  0  0  0  0  0  0  0  0  0
    4.6025   17.3204    3.7796 C   0  0  2  0  0  0  0  0  0  0  0  0
    5.7789   17.4561    2.7977 C   0  0  2  0  0  0  0  0  0  0  0  0
    6.5588   18.7418    3.1085 C   0  0  1  0  0  0  0  0  0  0  0  0
    6.9459   18.7995    4.5765 C   0  0  0  0  0  0  0  0  0  0  0  0
    5.7104   18.5979    5.4410 C   0  0  1  0  0  0  0  0  0  0  0  0
    5.0725   17.3653    5.1320 O   0  0  0  0  0  0  0  0  0  0  0  0
    6.0707   18.5743    6.8085 O   0  0  0  0  0  0  0  0  0  0  0  0
    7.7362   18.7962    2.3002 O   0  0  0  0  0  0  0  0  0  0  0  0
    5.3444   17.5213    1.4358 O   0  0  0  0  0  0  0  0  0  0  0  0
    6.6223   17.7828    6.9193 H   0  0  0  0  0  0  0  0  0  0  0  0
    7.4210   18.7102    1.3790 H   0  0  0  0  0  0  0  0  0  0  0  0
    4.9875   18.4150    1.2857 H   0  0  0  0  0  0  0  0  0  0  0  0
  2  7  1  0  0  0  0
  2  1  1  6  0  0  0
  2  3  1  0  0  0  0
  3 10  1  6  0  0  0
  3  4  1  0  0  0  0
  4  5  1  0  0  0  0
  4  9  1  6  0  0  0
  5  6  1  0  0  0  0
  6  7  1  0  0  0  0
  6  8  1  1  0  0  0
  8 11  1  0  0  0  0
  9 12  1  0  0  0  0
 10 13  1  0  0  0  0
M  END
>  <CHROM.0>
-61.97320841,-176.88721964,61.06809697,-48.16855473,-176.34543890,-64.16107764
52.60269155,57.85602304,-168.22457715

>  <CHROM.1>
75.92578903,55.32218897,-65.08124593,5.78531314,17.91685645,3.88566134,1.55018227
-0.65711971,-1.71752416

>  <Name>
P24228552

>  <RI>
1.34432e+07

>  <Rbt.Current_Directory>
/home/fstefaniak/projects/zuza/docking/adenine/4XNR

>  <Rbt.Executable>
rbdock ($Id: //depot/dev/client3/rdock/2013.1/src/exe/rbdock.cxx#4 $)

>  <Rbt.Library>
libRbt.so (2013.1, Build901 2013/11/27)

>  <Rbt.Parameter_File>
/home/fstefaniak/progs/rDock//data/scripts/dock_solv.prm

>  <Rbt.Receptor>
4xnr.prm

>  <SCORE>
-56.0269

>  <SCORE.INTER>
-38.5232

>  <SCORE.INTER.CONST>
1

>  <SCORE.INTER.POLAR>
-5.2471

>  <SCORE.INTER.ROT>
0

>  <SCORE.INTER.SOLV>
14.0023

>  <SCORE.INTER.VDW>
-16.4592

>  <SCORE.INTER.norm>
-3.85232

>  <SCORE.INTRA>
0.408428

>  <SCORE.INTRA.DIHEDRAL>
0.291968

>  <SCORE.INTRA.DIHEDRAL.0>
1.14076

>  <SCORE.INTRA.POLAR>
0.0425732

>  <SCORE.INTRA.POLAR.0>
-0.0425732

>  <SCORE.INTRA.REPUL>
0

>  <SCORE.INTRA.REPUL.0>
0

>  <SCORE.INTRA.SOLV>
0.0759043

>  <SCORE.INTRA.SOLV.lig_0>
-16.9242

>  <SCORE.INTRA.VDW>
0.079743

>  <SCORE.INTRA.VDW.0>
0.328339

>  <SCORE.INTRA.norm>
0.0408428

>  <SCORE.RESTR>
0

>  <SCORE.RESTR.CAVITY>
0

>  <SCORE.RESTR.norm>
0

>  <SCORE.SYSTEM>
-17.9121

>  <SCORE.SYSTEM.CONST>
0

>  <SCORE.SYSTEM.DIHEDRAL>
3.87616

>  <SCORE.SYSTEM.POLAR>
-2.92696

>  <SCORE.SYSTEM.SOLV>
-0.192828

>  <SCORE.SYSTEM.VDW>
-3.41265

>  <SCORE.SYSTEM.norm>
-1.79121

>  <SCORE.heavy>
10

>  <SCORE.norm>
-5.60269

$$$$
P24240664
 OpenBabel12072022113D
libRbt.so/2013.1/901 2013/11/27
 15 14  0  0  0  0  0  0  0  0999 V2000
    6.1061   17.9847    1.9606 C   0  0  0  0  0  0  0  0  0  0  0  0
    4.7144   17.5793    2.3933 C   0  0  0  0  0  0  0  0  0  0  0  0
    3.6428   17.7437    1.6668 N   0  0  0  0  0  0  0  0  0  0  0  0
    3.7793   18.3186    0.4345 N   0  0  0  0  0  0  0  0  0  0  0  0
    2.8464   19.1858   -0.0755 C   0  0  0  0  0  0  0  0  0  0  0  0
    2.9724   19.7306   -1.1647 O   0  0  0  0  0  0  0  0  0  0  0  0
    1.7715   19.3948    0.7241 N   0  0  0  0  0  0  0  0  0  0  0  0
    4.5345   16.9099    3.7794 C   0  0  0  0  0  0  0  0  0  0  0  0
    5.0466   15.4732    3.7520 C   0  0  0  0  0  0  0  0  0  0  0  0
    5.2151   17.7322    4.8693 C   0  0  0  0  0  0  0  0  0  0  0  0
    3.1442   16.8558    4.1147 O   0  0  0  0  0  0  0  0  0  0  0  0
    4.5931   18.1585   -0.1465 H   0  0  0  0  0  0  0  0  0  0  0  0
    0.9760   19.8172    0.2656 H   0  0  0  0  0  0  0  0  0  0  0  0
    1.6160   18.7263    1.4636 H   0  0  0  0  0  0  0  0  0  0  0  0
    3.0997   16.4595    5.0074 H   0  0  0  0  0  0  0  0  0  0  0  0
  1  2  1  0  0  0  0
  2  3  2  0  0  0  0
  2  8  1  0  0  0  0
  3  4  1  0  0  0  0
  4  5  1  0  0  0  0
  4 12  1  0  0  0  0
  5  6  2  0  0  0  0
  5  7  1  0  0  0  0
  7 13  1  0  0  0  0
  7 14  1  0  0  0  0
  8  9  1  0  0  0  0
  8 10  1  0  0  0  0
  8 11  1  0  0  0  0
 11 15  1  0  0  0  0
M  END
>  <CHROM.0>
-56.03772249,-62.05470166,-67.91708805,-44.88024539,-175.14643475,-163.03810234
-63.50256357,60.54975083,-167.95963001

>  <CHROM.1>
-73.76617170,-142.66521159,-163.97930034,-177.79263636,3.94731534,17.90459428
2.04628614,-1.18469890,0.16331649,-1.09830287

>  <Name>
P24240664

>  <RI>
2.22087e+07

>  <Rbt.Current_Directory>
/home/fstefaniak/projects/zuza/docking/adenine/4XNR

>  <Rbt.Executable>
rbdock ($Id: //depot/dev/client3/rdock/2013.1/src/exe/rbdock.cxx#4 $)

>  <Rbt.Library>
libRbt.so (2013.1, Build901 2013/11/27)

>  <Rbt.Parameter_File>
/home/fstefaniak/progs/rDock//data/scripts/dock_solv.prm

>  <Rbt.Receptor>
4xnr.prm

>  <SCORE>
-43.8206

>  <SCORE.INTER>
-25.1464

>  <SCORE.INTER.CONST>
1

>  <SCORE.INTER.POLAR>
-4.07795

>  <SCORE.INTER.ROT>
3

>  <SCORE.INTER.SOLV>
16.6352

>  <SCORE.INTER.VDW>
-14.3161

>  <SCORE.INTER.norm>
-2.28603

>  <SCORE.INTRA>
0.554819

>  <SCORE.INTRA.DIHEDRAL>
-1.99167

>  <SCORE.INTRA.DIHEDRAL.0>
5.46719

>  <SCORE.INTRA.POLAR>
0.284797

>  <SCORE.INTRA.POLAR.0>
-0.325193

>  <SCORE.INTRA.REPUL>
0

>  <SCORE.INTRA.REPUL.0>
0

>  <SCORE.INTRA.SOLV>
-0.00484627

>  <SCORE.INTRA.SOLV.lig_0>
-19.7974

>  <SCORE.INTRA.VDW>
0.584767

>  <SCORE.INTRA.VDW.0>
2.46297

>  <SCORE.INTRA.norm>
0.050438

>  <SCORE.RESTR>
0

>  <SCORE.RESTR.CAVITY>
0

>  <SCORE.RESTR.norm>
0

>  <SCORE.SYSTEM>
-19.2291

>  <SCORE.SYSTEM.CONST>
0

>  <SCORE.SYSTEM.DIHEDRAL>
5.582

>  <SCORE.SYSTEM.POLAR>
-3.03543

>  <SCORE.SYSTEM.SOLV>
-0.156128

>  <SCORE.SYSTEM.VDW>
-4.50989

>  <SCORE.SYSTEM.norm>
-1.7481

>  <SCORE.heavy>
11

>  <SCORE.norm>
-3.98369

$$$$
P24240664
 OpenBabel12072022113D
libRbt.so/2013.1/901 2013/11/27
 15 14  0  0  0  0  0  0  0  0999 V2000
    6.6597   18.4251    1.0734 C   0  0  0  0  0  0  0  0  0  0  0  0
    5.3960   17.8163    1.6399 C   0  0  0  0  0  0  0  0  0  0  0  0
    4.2270   17.8830    1.0635 N   0  0  0  0  0  0  0  0  0  0  0  0
    4.1309   18.5440   -0.1288 N   0  0  0  0  0  0  0  0  0  0  0  0
    2.9889   19.2016   -0.5106 C   0  0  0  0  0  0  0  0  0  0  0  0
    2.9010   19.8226   -1.5621 O   0  0  0  0  0  0  0  0  0  0  0  0
    1.9626   19.1117    0.3709 N   0  0  0  0  0  0  0  0  0  0  0  0
    5.4809   17.0470    2.9825 C   0  0  0  0  0  0  0  0  0  0  0  0
    6.1289   17.9139    4.0576 C   0  0  0  0  0  0  0  0  0  0  0  0
    4.1028   16.5518    3.4100 C   0  0  0  0  0  0  0  0  0  0  0  0
    6.3029   15.8861    2.8247 O   0  0  0  0  0  0  0  0  0  0  0  0
    4.9103   18.6088   -0.7720 H   0  0  0  0  0  0  0  0  0  0  0  0
    2.2395   18.9898    1.3352 H   0  0  0  0  0  0  0  0  0  0  0  0
    1.1325   19.6451    0.1607 H   0  0  0  0  0  0  0  0  0  0  0  0
    6.3289   15.4556    3.7021 H   0  0  0  0  0  0  0  0  0  0  0  0
  1  2  1  0  0  0  0
  2  3  2  0  0  0  0
  2  8  1  0  0  0  0
  3  4  1  0  0  0  0
  4  5  1  0  0  0  0
  4 12  1  0  0  0  0
  5  6  2  0  0  0  0
  5  7  1  0  0  0  0
  7 13  1  0  0  0  0
  7 14  1  0  0  0  0
  8  9  1  0  0  0  0
  8 10  1  0  0  0  0
  8 11  1  0  0  0  0
 11 15  1  0  0  0  0
M  END
>  <CHROM.0>
-58.75870273,56.92641192,-73.82066117,-46.91978098,-58.44142563,-160.83843117
-172.63717350,-59.72432703,-168.25635081

>  <CHROM.1>
53.59027906,-149.27594731,28.11754862,179.09258084,4.56718234,18.01066777
1.38671335,-0.98848438,0.04636783,-1.03513374

>  <Name>
P24240664

>  <RI>
2.22087e+07

>  <Rbt.Current_Directory>
/home/fstefaniak/projects/zuza/docking/adenine/4XNR

>  <Rbt.Executable>
rbdock ($Id: //depot/dev/client3/rdock/2013.1/src/exe/rbdock.cxx#4 $)

>  <Rbt.Library>
libRbt.so (2013.1, Build901 2013/11/27)

>  <Rbt.Parameter_File>
/home/fstefaniak/progs/rDock//data/scripts/dock_solv.prm

>  <Rbt.Receptor>
4xnr.prm

>  <SCORE>
-42.1812

>  <SCORE.INTER>
-24.691

>  <SCORE.INTER.CONST>
1

>  <SCORE.INTER.POLAR>
-4.16809

>  <SCORE.INTER.ROT>
3

>  <SCORE.INTER.SOLV>
18.1998

>  <SCORE.INTER.VDW>
-14.2336

>  <SCORE.INTER.norm>
-2.24464

>  <SCORE.INTRA>
1.25742

>  <SCORE.INTRA.DIHEDRAL>
-2.68179

>  <SCORE.INTRA.DIHEDRAL.0>
5.46719

>  <SCORE.INTRA.POLAR>
0.317316

>  <SCORE.INTRA.POLAR.0>
-0.325193

>  <SCORE.INTRA.REPUL>
0

>  <SCORE.INTRA.REPUL.0>
0

>  <SCORE.INTRA.SOLV>
0.0137398

>  <SCORE.INTRA.SOLV.lig_0>
-19.7974

>  <SCORE.INTRA.VDW>
1.51257

>  <SCORE.INTRA.VDW.0>
2.46297

>  <SCORE.INTRA.norm>
0.114311

>  <SCORE.RESTR>
0

>  <SCORE.RESTR.CAVITY>
0

>  <SCORE.RESTR.norm>
0

>  <SCORE.SYSTEM>
-18.7476

>  <SCORE.SYSTEM.CONST>
0

>  <SCORE.SYSTEM.DIHEDRAL>
6.21649

>  <SCORE.SYSTEM.POLAR>
-2.96519

>  <SCORE.SYSTEM.SOLV>
0.20956

>  <SCORE.SYSTEM.VDW>
-4.75644

>  <SCORE.SYSTEM.norm>
-1.70433

>  <SCORE.heavy>
11

>  <SCORE.norm>
-3.83465

$$$$
P24240664
 OpenBabel12072022113D
libRbt.so/2013.1/901 2013/11/27
 15 14  0  0  0  0  0  0  0  0999 V2000
    6.9141   17.8805    3.1332 C   0  0  0  0  0  0  0  0  0  0  0  0
    6.3310   17.7742    4.5250 C   0  0  0  0  0  0  0  0  0  0  0  0
    5.5237   16.8245    4.9119 N   0  0  0  0  0  0  0  0  0  0  0  0
    5.1785   15.8608    4.0065 N   0  0  0  0  0  0  0  0  0  0  0  0
    3.8835   15.6759    3.5928 C   0  0  0  0  0  0  0  0  0  0  0  0
    3.5665   14.8364    2.7598 O   0  0  0  0  0  0  0  0  0  0  0  0
    2.9794   16.4992    4.1786 N   0  0  0  0  0  0  0  0  0  0  0  0
    6.7197   18.8451    5.5756 C   0  0  0  0  0  0  0  0  0  0  0  0
    6.3786   20.2429    5.0684 C   0  0  0  0  0  0  0  0  0  0  0  0
    6.0552   18.5526    6.9172 C   0  0  0  0  0  0  0  0  0  0  0  0
    8.1324   18.8116    5.8018 O   0  0  0  0  0  0  0  0  0  0  0  0
    5.8679   15.2598    3.5717 H   0  0  0  0  0  0  0  0  0  0  0  0
    2.2795   16.8756    3.5541 H   0  0  0  0  0  0  0  0  0  0  0  0
    2.7281   16.2948    5.1341 H   0  0  0  0  0  0  0  0  0  0  0  0
    8.3112   19.4947    6.4781 H   0  0  0  0  0  0  0  0  0  0  0  0
  1  2  1  0  0  0  0
  2  3  2  0  0  0  0
  2  8  1  0  0  0  0
  3  4  1  0  0  0  0
  4  5  1  0  0  0  0
  4 12  1  0  0  0  0
  5  6  2  0  0  0  0
  5  7  1  0  0  0  0
  7 13  1  0  0  0  0
  7 14  1  0  0  0  0
  8  9  1  0  0  0  0
  8 10  1  0  0  0  0
  8 11  1  0  0  0  0
 11 15  1  0  0  0  0
M  END
>  <CHROM.0>
-58.83361235,-163.13219310,-74.89477717,-47.05165069,-56.21496807,54.65910779
-171.97072152,-174.99664432,-168.13564413

>  <CHROM.1>
56.61159182,-117.16884647,138.15797424,-179.16241204,5.60618123,17.43821413
4.59262885,-0.81315444,-0.43464173,-2.20999974

>  <Name>
P24240664

>  <RI>
2.22087e+07

>  <Rbt.Current_Directory>
/home/fstefaniak/projects/zuza/docking/adenine/4XNR

>  <Rbt.Executable>
rbdock ($Id: //depot/dev/client3/rdock/2013.1/src/exe/rbdock.cxx#4 $)

>  <Rbt.Library>
libRbt.so (2013.1, Build901 2013/11/27)

>  <Rbt.Parameter_File>
/home/fstefaniak/progs/rDock//data/scripts/dock_solv.prm

>  <Rbt.Receptor>
4xnr.prm

>  <SCORE>
-42.0394

>  <SCORE.INTER>
-25.6924

>  <SCORE.INTER.CONST>
1

>  <SCORE.INTER.POLAR>
-4.05482

>  <SCORE.INTER.ROT>
3

>  <SCORE.INTER.SOLV>
14.5913

>  <SCORE.INTER.VDW>
-14.076

>  <SCORE.INTER.norm>
-2.33567

>  <SCORE.INTRA>
2.2007

>  <SCORE.INTRA.DIHEDRAL>
0.715651

>  <SCORE.INTRA.DIHEDRAL.0>
5.46719

>  <SCORE.INTRA.POLAR>
0.325193

>  <SCORE.INTRA.POLAR.0>
-0.325193

>  <SCORE.INTRA.REPUL>
0

>  <SCORE.INTRA.REPUL.0>
0

>  <SCORE.INTRA.SOLV>
0.150303

>  <SCORE.INTRA.SOLV.lig_0>
-19.7974

>  <SCORE.INTRA.VDW>
0.66207

>  <SCORE.INTRA.VDW.0>
2.46297

>  <SCORE.INTRA.norm>
0.200064

>  <SCORE.RESTR>
0

>  <SCORE.RESTR.CAVITY>
0

>  <SCORE.RESTR.norm>
0

>  <SCORE.SYSTEM>
-18.5477

>  <SCORE.SYSTEM.CONST>
0

>  <SCORE.SYSTEM.DIHEDRAL>
6.38382

>  <SCORE.SYSTEM.POLAR>
-2.95922

>  <SCORE.SYSTEM.SOLV>
-0.0649306

>  <SCORE.SYSTEM.VDW>
-4.60732

>  <SCORE.SYSTEM.norm>
-1.68615

>  <SCORE.heavy>
11

>  <SCORE.norm>
-3.82176

$$$$
P24243466
 OpenBabel12072022113D
libRbt.so/2013.1/901 2013/11/27
 14 14  0  0  0  0  0  0  0  0999 V2000
    4.9978   15.2671    3.8521 C   0  0  0  0  0  0  0  0  0  0  0  0
    3.5493   15.3426    3.3846 C   0  0  0  0  0  0  0  0  0  0  0  0
    2.9633   16.7353    3.6026 C   0  0  0  0  0  0  0  0  0  0  0  0
    3.8223   17.8365    2.9716 C   0  0  1  0  0  0  0  0  0  0  0  0
    5.3069   17.7474    3.3564 C   0  0  2  0  0  0  0  0  0  0  0  0
    5.8609   16.3255    3.1696 C   0  0  0  0  0  0  0  0  0  0  0  0
    5.5436   18.2750    4.7660 C   0  0  0  0  0  0  0  0  0  0  0  0
    5.2049   17.6888    5.7927 O   0  0  0  0  0  0  0  0  0  0  0  0
    6.1667   19.5014    4.8179 N   0  0  0  0  0  0  0  0  0  0  0  0
    7.2272   19.6033    5.7492 O   0  0  0  0  0  0  0  0  0  0  0  0
    3.7329   17.7360    1.5446 O   0  0  0  0  0  0  0  0  0  0  0  0
    5.6872   20.3655    4.5870 H   0  0  0  0  0  0  0  0  0  0  0  0
    7.7270   20.3809    5.4148 H   0  0  0  0  0  0  0  0  0  0  0  0
    4.2720   18.4544    1.1690 H   0  0  0  0  0  0  0  0  0  0  0  0
  1  2  1  0  0  0  0
  1  6  1  0  0  0  0
  2  3  1  0  0  0  0
  3  4  1  0  0  0  0
  4  5  1  0  0  0  0
  4 11  1  6  0  0  0
  5  6  1  0  0  0  0
  5  7  1  1  0  0  0
  7  8  2  0  0  0  0
  7  9  1  0  0  0  0
  9 10  1  0  0  0  0
  9 12  1  0  0  0  0
 10 13  1  0  0  0  0
 11 14  1  0  0  0  0
M  END
>  <CHROM.0>
-56.23309712,-169.43033604,-64.91396531,-44.77897723,-173.94474349,-63.19240789
-69.04457222,-59.21662631,-167.09803844

>  <CHROM.1>
178.95212487,72.32365391,-134.15566338,160.16339623,4.97493805,17.52114082
3.92153033,-2.79407329,-0.90285826,-0.41821993

>  <Name>
P24243466

>  <RI>
3.51561e+07

>  <Rbt.Current_Directory>
/home/fstefaniak/projects/zuza/docking/adenine/4XNR

>  <Rbt.Executable>
rbdock ($Id: //depot/dev/client3/rdock/2013.1/src/exe/rbdock.cxx#4 $)

>  <Rbt.Library>
libRbt.so (2013.1, Build901 2013/11/27)

>  <Rbt.Parameter_File>
/home/fstefaniak/progs/rDock//data/scripts/dock_solv.prm

>  <Rbt.Receptor>
4xnr.prm

>  <SCORE>
-49.0985

>  <SCORE.INTER>
-28.1356

>  <SCORE.INTER.CONST>
1

>  <SCORE.INTER.POLAR>
-4.90949

>  <SCORE.INTER.ROT>
2

>  <SCORE.INTER.SOLV>
14.8958

>  <SCORE.INTER.VDW>
-12.2907

>  <SCORE.INTER.norm>
-2.55778

>  <SCORE.INTRA>
-0.398162

>  <SCORE.INTRA.DIHEDRAL>
2.66276

>  <SCORE.INTRA.DIHEDRAL.0>
1.64153

>  <SCORE.INTRA.POLAR>
0

>  <SCORE.INTRA.POLAR.0>
0

>  <SCORE.INTRA.REPUL>
0

>  <SCORE.INTRA.REPUL.0>
0

>  <SCORE.INTRA.SOLV>
-0.184215

>  <SCORE.INTRA.SOLV.lig_0>
-18.8194

>  <SCORE.INTRA.VDW>
-1.63743

>  <SCORE.INTRA.VDW.0>
0.490446

>  <SCORE.INTRA.norm>
-0.0361966

>  <SCORE.RESTR>
0

>  <SCORE.RESTR.CAVITY>
0

>  <SCORE.RESTR.norm>
0

>  <SCORE.SYSTEM>
-20.5647

>  <SCORE.SYSTEM.CONST>
0

>  <SCORE.SYSTEM.DIHEDRAL>
5.20199

>  <SCORE.SYSTEM.POLAR>
-3.04059

>  <SCORE.SYSTEM.SOLV>
0.0842664

>  <SCORE.SYSTEM.VDW>
-5.33663

>  <SCORE.SYSTEM.norm>
-1.86952

>  <SCORE.heavy>
11

>  <SCORE.norm>
-4.4635

$$$$
P24243466
 OpenBabel12072022113D
libRbt.so/2013.1/901 2013/11/27
 14 14  0  0  0  0  0  0  0  0999 V2000
    5.0134   15.1636    3.8645 C   0  0  0  0  0  0  0  0  0  0  0  0
    3.5636   15.3867    3.4514 C   0  0  0  0  0  0  0  0  0  0  0  0
    3.1312   16.8318    3.6868 C   0  0  0  0  0  0  0  0  0  0  0  0
    4.0737   17.8400    3.0204 C   0  0  1  0  0  0  0  0  0  0  0  0
    5.5549   17.5997    3.3496 C   0  0  2  0  0  0  0  0  0  0  0  0
    5.9537   16.1289    3.1466 C   0  0  0  0  0  0  0  0  0  0  0  0
    5.8971   18.0996    4.7476 C   0  0  0  0  0  0  0  0  0  0  0  0
    5.4413   17.6236    5.7859 O   0  0  0  0  0  0  0  0  0  0  0  0
    6.7657   19.1672    4.7740 N   0  0  0  0  0  0  0  0  0  0  0  0
    7.9947   18.9322    5.4348 O   0  0  0  0  0  0  0  0  0  0  0  0
    3.9209   17.7501    1.5981 O   0  0  0  0  0  0  0  0  0  0  0  0
    6.4455   20.1299    4.7502 H   0  0  0  0  0  0  0  0  0  0  0  0
    7.9886   19.6167    6.1403 H   0  0  0  0  0  0  0  0  0  0  0  0
    4.4541   18.4627    1.2036 H   0  0  0  0  0  0  0  0  0  0  0  0
  1  2  1  0  0  0  0
  1  6  1  0  0  0  0
  2  3  1  0  0  0  0
  3  4  1  0  0  0  0
  4  5  1  0  0  0  0
  4 11  1  6  0  0  0
  5  6  1  0  0  0  0
  5  7  1  1  0  0  0
  7  8  2  0  0  0  0
  7  9  1  0  0  0  0
  9 10  1  0  0  0  0
  9 12  1  0  0  0  0
 10 13  1  0  0  0  0
 11 14  1  0  0  0  0
M  END
>  <CHROM.0>
-59.14185915,-172.23492059,-62.44959991,-45.99441463,-56.69961192,-57.92913926
-68.22240660,-57.14967582,-166.57026817

>  <CHROM.1>
173.94220475,65.41336484,-118.45134321,-121.27223162,5.24816563,17.37378520
3.91102620,-2.94935010,-0.77745193,-0.52283622

>  <Name>
P24243466

>  <RI>
3.51561e+07

>  <Rbt.Current_Directory>
/home/fstefaniak/projects/zuza/docking/adenine/4XNR

>  <Rbt.Executable>
rbdock ($Id: //depot/dev/client3/rdock/2013.1/src/exe/rbdock.cxx#4 $)

>  <Rbt.Library>
libRbt.so (2013.1, Build901 2013/11/27)

>  <Rbt.Parameter_File>
/home/fstefaniak/progs/rDock//data/scripts/dock_solv.prm

>  <Rbt.Receptor>
4xnr.prm

>  <SCORE>
-45.2911

>  <SCORE.INTER>
-24.7866

>  <SCORE.INTER.CONST>
1

>  <SCORE.INTER.POLAR>
-4.73844

>  <SCORE.INTER.ROT>
2

>  <SCORE.INTER.SOLV>
14.2853

>  <SCORE.INTER.VDW>
-10.4247

>  <SCORE.INTER.norm>
-2.25332

>  <SCORE.INTRA>
-0.102228

>  <SCORE.INTRA.DIHEDRAL>
3.44469

>  <SCORE.INTRA.DIHEDRAL.0>
1.64153

>  <SCORE.INTRA.POLAR>
0

>  <SCORE.INTRA.POLAR.0>
0

>  <SCORE.INTRA.REPUL>
0

>  <SCORE.INTRA.REPUL.0>
0

>  <SCORE.INTRA.SOLV>
-0.103459

>  <SCORE.INTRA.SOLV.lig_0>
-18.8194

>  <SCORE.INTRA.VDW>
-1.77284

>  <SCORE.INTRA.VDW.0>
0.490446

>  <SCORE.INTRA.norm>
-0.00929343

>  <SCORE.RESTR>
0

>  <SCORE.RESTR.CAVITY>
0

>  <SCORE.RESTR.norm>
0

>  <SCORE.SYSTEM>
-20.4023

>  <SCORE.SYSTEM.CONST>
0

>  <SCORE.SYSTEM.DIHEDRAL>
4.55206

>  <SCORE.SYSTEM.POLAR>
-3.01323

>  <SCORE.SYSTEM.SOLV>
0.275778

>  <SCORE.SYSTEM.VDW>
-5.16672

>  <SCORE.SYSTEM.norm>
-1.85475

>  <SCORE.heavy>
11

>  <SCORE.norm>
-4.11737

$$$$
P24243466
 OpenBabel12072022113D
libRbt.so/2013.1/901 2013/11/27
 14 14  0  0  0  0  0  0  0  0999 V2000
    4.9434   15.2587    3.9017 C   0  0  0  0  0  0  0  0  0  0  0  0
    3.5062   15.3633    3.4059 C   0  0  0  0  0  0  0  0  0  0  0  0
    2.9534   16.7747    3.5875 C   0  0  0  0  0  0  0  0  0  0  0  0
    3.8527   17.8410    2.9526 C   0  0  1  0  0  0  0  0  0  0  0  0
    5.3271   17.7203    3.3666 C   0  0  2  0  0  0  0  0  0  0  0  0
    5.8466   16.2812    3.2162 C   0  0  0  0  0  0  0  0  0  0  0  0
    5.5521   18.2679    4.7705 C   0  0  0  0  0  0  0  0  0  0  0  0
    5.2031   17.6972    5.8025 O   0  0  0  0  0  0  0  0  0  0  0  0
    6.1769   19.4939    4.8103 N   0  0  0  0  0  0  0  0  0  0  0  0
    7.2573   19.5942    5.7186 O   0  0  0  0  0  0  0  0  0  0  0  0
    3.7866   17.7161    1.5262 O   0  0  0  0  0  0  0  0  0  0  0  0
    5.6931   20.3586    4.5907 H   0  0  0  0  0  0  0  0  0  0  0  0
    7.6146   20.4888    5.5228 H   0  0  0  0  0  0  0  0  0  0  0  0
    4.3130   18.4420    1.1470 H   0  0  0  0  0  0  0  0  0  0  0  0
  1  2  1  0  0  0  0
  1  6  1  0  0  0  0
  2  3  1  0  0  0  0
  3  4  1  0  0  0  0
  4  5  1  0  0  0  0
  4 11  1  6  0  0  0
  5  6  1  0  0  0  0
  5  7  1  1  0  0  0
  7  8  2  0  0  0  0
  7  9  1  0  0  0  0
  9 10  1  0  0  0  0
  9 12  1  0  0  0  0
 10 13  1  0  0  0  0
 11 14  1  0  0  0  0
M  END
>  <CHROM.0>
-56.15597064,-175.19939796,-64.23639033,55.08323346,58.00989171,-64.74893074
-72.31401654,-179.92118922,-167.83348761

>  <CHROM.1>
175.99294073,73.85050570,-132.18778737,174.08159692,4.97771223,17.51724864
3.92611556,-2.83003854,-0.90701863,-0.46657950

>  <Name>
P24243466

>  <RI>
3.51561e+07

>  <Rbt.Current_Directory>
/home/fstefaniak/projects/zuza/docking/adenine/4XNR

>  <Rbt.Executable>
rbdock ($Id: //depot/dev/client3/rdock/2013.1/src/exe/rbdock.cxx#4 $)

>  <Rbt.Library>
libRbt.so (2013.1, Build901 2013/11/27)

>  <Rbt.Parameter_File>
/home/fstefaniak/progs/rDock//data/scripts/dock_solv.prm

>  <Rbt.Receptor>
4xnr.prm

>  <SCORE>
-44.9997

>  <SCORE.INTER>
-28.1266

>  <SCORE.INTER.CONST>
1

>  <SCORE.INTER.POLAR>
-4.85009

>  <SCORE.INTER.ROT>
2

>  <SCORE.INTER.SOLV>
14.8853

>  <SCORE.INTER.VDW>
-12.4792

>  <SCORE.INTER.norm>
-2.55696

>  <SCORE.INTRA>
-0.382829

>  <SCORE.INTRA.DIHEDRAL>
2.70542

>  <SCORE.INTRA.DIHEDRAL.0>
1.64153

>  <SCORE.INTRA.POLAR>
0

>  <SCORE.INTRA.POLAR.0>
0

>  <SCORE.INTRA.REPUL>
0

>  <SCORE.INTRA.REPUL.0>
0

>  <SCORE.INTRA.SOLV>
-0.180859

>  <SCORE.INTRA.SOLV.lig_0>
-18.8194

>  <SCORE.INTRA.VDW>
-1.64511

>  <SCORE.INTRA.VDW.0>
0.490446

>  <SCORE.INTRA.norm>
-0.0348027

>  <SCORE.RESTR>
0

>  <SCORE.RESTR.CAVITY>
0

>  <SCORE.RESTR.norm>
0

>  <SCORE.SYSTEM>
-16.4903

>  <SCORE.SYSTEM.CONST>
0

>  <SCORE.SYSTEM.DIHEDRAL>
3.95311

>  <SCORE.SYSTEM.POLAR>
-2.44001

>  <SCORE.SYSTEM.SOLV>
-0.160621

>  <SCORE.SYSTEM.VDW>
-4.12429

>  <SCORE.SYSTEM.norm>
-1.49911

>  <SCORE.heavy>
11

>  <SCORE.norm>
-4.09088

$$$$
P24318520
 OpenBabel12072022113D
libRbt.so/2013.1/901 2013/11/27
 12 11  0  0  0  0  0  0  0  0999 V2000
    4.8954   17.8657    3.5987 C   0  0  0  0  0  0  0  0  0  0  0  0
    4.0262   16.7040    3.1470 C   0  0  0  0  0  0  0  0  0  0  0  0
    4.5684   15.1877    3.9074 Cl  0  0  0  0  0  0  0  0  0  0  0  0
    6.3547   17.5692    3.3367 C   0  0  0  0  0  0  0  0  0  0  0  0
    6.7385   16.9315    2.3549 O   0  0  0  0  0  0  0  0  0  0  0  0
    7.2914   18.0205    4.2375 N   0  0  0  0  0  0  0  0  0  0  0  0
    7.0985   18.5475    5.4882 C   0  0  0  0  0  0  0  0  0  0  0  0
    6.0283   18.7716    6.0319 O   0  0  0  0  0  0  0  0  0  0  0  0
    8.2709   18.8198    6.1285 N   0  0  0  0  0  0  0  0  0  0  0  0
    8.2284   17.7259    4.0135 H   0  0  0  0  0  0  0  0  0  0  0  0
    8.3674   19.7050    6.6064 H   0  0  0  0  0  0  0  0  0  0  0  0
    8.6360   18.0264    6.6449 H   0  0  0  0  0  0  0  0  0  0  0  0
  1  2  1  0  0  0  0
  1  4  1  0  0  0  0
  2  3  1  0  0  0  0
  4  5  2  0  0  0  0
  4  6  1  0  0  0  0
  6  7  1  0  0  0  0
  6 10  1  0  0  0  0
  7  8  2  0  0  0  0
  7  9  1  0  0  0  0
  9 11  1  0  0  0  0
  9 12  1  0  0  0  0
M  END
>  <CHROM.0>
-57.81853473,-61.42775799,-64.91673622,-46.60742893,-58.33757184,-67.23346928
-67.31021625,-58.01169320,-168.18549524

>  <CHROM.1>
54.49224357,35.21843893,134.76665803,5.95333514,17.27024535,4.22357751,2.41301195
-0.59334162,-1.93734520

>  <Name>
P24318520

>  <RI>
1.34432e+07

>  <Rbt.Current_Directory>
/home/fstefaniak/projects/zuza/docking/adenine/4XNR

>  <Rbt.Executable>
rbdock ($Id: //depot/dev/client3/rdock/2013.1/src/exe/rbdock.cxx#4 $)

>  <Rbt.Library>
libRbt.so (2013.1, Build901 2013/11/27)

>  <Rbt.Parameter_File>
/home/fstefaniak/progs/rDock//data/scripts/dock_solv.prm

>  <Rbt.Receptor>
4xnr.prm

>  <SCORE>
-51.5738

>  <SCORE.INTER>
-30.85

>  <SCORE.INTER.CONST>
1

>  <SCORE.INTER.POLAR>
-4.71611

>  <SCORE.INTER.ROT>
3

>  <SCORE.INTER.SOLV>
11.9844

>  <SCORE.INTER.VDW>
-14.4412

>  <SCORE.INTER.norm>
-3.42778

>  <SCORE.INTRA>
0.155323

>  <SCORE.INTRA.DIHEDRAL>
1.16064

>  <SCORE.INTRA.DIHEDRAL.0>
1.59869

>  <SCORE.INTRA.POLAR>
0

>  <SCORE.INTRA.POLAR.0>
0

>  <SCORE.INTRA.REPUL>
0

>  <SCORE.INTRA.REPUL.0>
0

>  <SCORE.INTRA.SOLV>
0.41569

>  <SCORE.INTRA.SOLV.lig_0>
-18.6713

>  <SCORE.INTRA.VDW>
-0.632839

>  <SCORE.INTRA.VDW.0>
0.262432

>  <SCORE.INTRA.norm>
0.0172582

>  <SCORE.RESTR>
0

>  <SCORE.RESTR.CAVITY>
0

>  <SCORE.RESTR.norm>
0

>  <SCORE.SYSTEM>
-20.8791

>  <SCORE.SYSTEM.CONST>
0

>  <SCORE.SYSTEM.DIHEDRAL>
4.22812

>  <SCORE.SYSTEM.POLAR>
-3.00269

>  <SCORE.SYSTEM.SOLV>
0.281966

>  <SCORE.SYSTEM.VDW>
-5.41378

>  <SCORE.SYSTEM.norm>
-2.3199

>  <SCORE.heavy>
9

>  <SCORE.norm>
-5.73042

$$$$
P24318520
 OpenBabel12072022113D
libRbt.so/2013.1/901 2013/11/27
 12 11  0  0  0  0  0  0  0  0999 V2000
    4.8662   17.7335    3.4512 C   0  0  0  0  0  0  0  0  0  0  0  0
    4.2567   16.3476    3.5812 C   0  0  0  0  0  0  0  0  0  0  0  0
    2.4971   16.4616    3.8303 Cl  0  0  0  0  0  0  0  0  0  0  0  0
    6.3436   17.6363    3.1449 C   0  0  0  0  0  0  0  0  0  0  0  0
    6.7759   17.1500    2.0986 O   0  0  0  0  0  0  0  0  0  0  0  0
    7.2424   18.0998    4.0775 N   0  0  0  0  0  0  0  0  0  0  0  0
    7.0184   18.4718    5.3778 C   0  0  0  0  0  0  0  0  0  0  0  0
    5.9420   18.5141    5.9528 O   0  0  0  0  0  0  0  0  0  0  0  0
    8.1659   18.8122    6.0304 N   0  0  0  0  0  0  0  0  0  0  0  0
    8.2017   17.9402    3.8146 H   0  0  0  0  0  0  0  0  0  0  0  0
    8.2128   19.7105    6.4911 H   0  0  0  0  0  0  0  0  0  0  0  0
    8.5593   18.0476    6.5690 H   0  0  0  0  0  0  0  0  0  0  0  0
  1  2  1  0  0  0  0
  1  4  1  0  0  0  0
  2  3  1  0  0  0  0
  4  5  2  0  0  0  0
  4  6  1  0  0  0  0
  6  7  1  0  0  0  0
  6 10  1  0  0  0  0
  7  8  2  0  0  0  0
  7  9  1  0  0  0  0
  9 11  1  0  0  0  0
  9 12  1  0  0  0  0
M  END
>  <CHROM.0>
-55.13684507,-174.38621163,-72.16580098,-48.28338665,-59.02664142,-62.98028376
-172.72774148,-62.79690691,-167.65433831

>  <CHROM.1>
-176.10325274,64.75381161,126.48403509,5.45584626,17.52813439,4.14579515
-2.72403495,0.29032758,1.22852388

>  <Name>
P24318520

>  <RI>
1.34432e+07

>  <Rbt.Current_Directory>
/home/fstefaniak/projects/zuza/docking/adenine/4XNR

>  <Rbt.Executable>
rbdock ($Id: //depot/dev/client3/rdock/2013.1/src/exe/rbdock.cxx#4 $)

>  <Rbt.Library>
libRbt.so (2013.1, Build901 2013/11/27)

>  <Rbt.Parameter_File>
/home/fstefaniak/progs/rDock//data/scripts/dock_solv.prm

>  <Rbt.Receptor>
4xnr.prm

>  <SCORE>
-51.0331

>  <SCORE.INTER>
-30.8402

>  <SCORE.INTER.CONST>
1

>  <SCORE.INTER.POLAR>
-4.47619

>  <SCORE.INTER.ROT>
3

>  <SCORE.INTER.SOLV>
11.8096

>  <SCORE.INTER.VDW>
-15.1761

>  <SCORE.INTER.norm>
-3.42669

>  <SCORE.INTRA>
-0.0424786

>  <SCORE.INTRA.DIHEDRAL>
1.65712

>  <SCORE.INTRA.DIHEDRAL.0>
1.59869

>  <SCORE.INTRA.POLAR>
0

>  <SCORE.INTRA.POLAR.0>
0

>  <SCORE.INTRA.REPUL>
0

>  <SCORE.INTRA.REPUL.0>
0

>  <SCORE.INTRA.SOLV>
0.11295

>  <SCORE.INTRA.SOLV.lig_0>
-18.6713

>  <SCORE.INTRA.VDW>
-0.927513

>  <SCORE.INTRA.VDW.0>
0.262432

>  <SCORE.INTRA.norm>
-0.00471984

>  <SCORE.RESTR>
0

>  <SCORE.RESTR.CAVITY>
0

>  <SCORE.RESTR.norm>
0

>  <SCORE.SYSTEM>
-20.1504

>  <SCORE.SYSTEM.CONST>
0

>  <SCORE.SYSTEM.DIHEDRAL>
4.67625

>  <SCORE.SYSTEM.POLAR>
-2.97759

>  <SCORE.SYSTEM.SOLV>
0.202438

>  <SCORE.SYSTEM.VDW>
-5.13452

>  <SCORE.SYSTEM.norm>
-2.23893

>  <SCORE.heavy>
9

>  <SCORE.norm>
-5.67035

$$$$
P24318520
 OpenBabel12072022113D
libRbt.so/2013.1/901 2013/11/27
 12 11  0  0  0  0  0  0  0  0999 V2000
    4.8656   17.7426    3.4567 C   0  0  0  0  0  0  0  0  0  0  0  0
    4.2748   16.3477    3.5752 C   0  0  0  0  0  0  0  0  0  0  0  0
    2.5132   16.4360    3.8211 Cl  0  0  0  0  0  0  0  0  0  0  0  0
    6.3424   17.6678    3.1408 C   0  0  0  0  0  0  0  0  0  0  0  0
    6.7744   17.2042    2.0842 O   0  0  0  0  0  0  0  0  0  0  0  0
    7.2409   18.1259    4.0764 N   0  0  0  0  0  0  0  0  0  0  0  0
    7.0199   18.4732    5.3840 C   0  0  0  0  0  0  0  0  0  0  0  0
    5.9462   18.4933    5.9653 O   0  0  0  0  0  0  0  0  0  0  0  0
    8.1670   18.8158    6.0362 N   0  0  0  0  0  0  0  0  0  0  0  0
    8.2006   17.9817    3.8058 H   0  0  0  0  0  0  0  0  0  0  0  0
    8.2218   19.7247    6.4746 H   0  0  0  0  0  0  0  0  0  0  0  0
    8.5471   18.0602    6.5965 H   0  0  0  0  0  0  0  0  0  0  0  0
  1  2  1  0  0  0  0
  1  4  1  0  0  0  0
  2  3  1  0  0  0  0
  4  5  2  0  0  0  0
  4  6  1  0  0  0  0
  6  7  1  0  0  0  0
  6 10  1  0  0  0  0
  7  8  2  0  0  0  0
  7  9  1  0  0  0  0
  9 11  1  0  0  0  0
  9 12  1  0  0  0  0
M  END
>  <CHROM.0>
-58.66907895,-175.69190893,-71.57026728,-48.92263253,-59.74287901,-62.21649103
-171.77950964,-58.49769243,-167.52556056

>  <CHROM.1>
-175.60124239,65.11812230,123.62553944,5.46152247,17.53235870,4.14399527
-2.72479891,0.30323660,1.24604993

>  <Name>
P24318520

>  <RI>
1.34432e+07

>  <Rbt.Current_Directory>
/home/fstefaniak/projects/zuza/docking/adenine/4XNR

>  <Rbt.Executable>
rbdock ($Id: //depot/dev/client3/rdock/2013.1/src/exe/rbdock.cxx#4 $)

>  <Rbt.Library>
libRbt.so (2013.1, Build901 2013/11/27)

>  <Rbt.Parameter_File>
/home/fstefaniak/progs/rDock//data/scripts/dock_solv.prm

>  <Rbt.Receptor>
4xnr.prm

>  <SCORE>
-51.0263

>  <SCORE.INTER>
-30.871

>  <SCORE.INTER.CONST>
1

>  <SCORE.INTER.POLAR>
-4.44738

>  <SCORE.INTER.ROT>
3

>  <SCORE.INTER.SOLV>
11.7759

>  <SCORE.INTER.VDW>
-15.2814

>  <SCORE.INTER.norm>
-3.43012

>  <SCORE.INTRA>
-0.0503955

>  <SCORE.INTRA.DIHEDRAL>
1.66818

>  <SCORE.INTRA.DIHEDRAL.0>
1.59869

>  <SCORE.INTRA.POLAR>
0

>  <SCORE.INTRA.POLAR.0>
0

>  <SCORE.INTRA.REPUL>
0

>  <SCORE.INTRA.REPUL.0>
0

>  <SCORE.INTRA.SOLV>
0.113737

>  <SCORE.INTRA.SOLV.lig_0>
-18.6713

>  <SCORE.INTRA.VDW>
-0.941354

>  <SCORE.INTRA.VDW.0>
0.262432

>  <SCORE.INTRA.norm>
-0.0055995

>  <SCORE.RESTR>
0

>  <SCORE.RESTR.CAVITY>
0

>  <SCORE.RESTR.norm>
0

>  <SCORE.SYSTEM>
-20.1049

>  <SCORE.SYSTEM.CONST>
0

>  <SCORE.SYSTEM.DIHEDRAL>
4.42023

>  <SCORE.SYSTEM.POLAR>
-2.94003

>  <SCORE.SYSTEM.SOLV>
0.205644

>  <SCORE.SYSTEM.VDW>
-5.14512

>  <SCORE.SYSTEM.norm>
-2.23388

>  <SCORE.heavy>
9

>  <SCORE.norm>
-5.66959

$$$$
P25485764
 OpenBabel12072022113D
libRbt.so/2013.1/901 2013/11/27
 16 16  0  0  0  0  0  0  0  0999 V2000
    4.9302   17.8204    4.8298 C   0  0  0  0  0  0  0  0  0  0  0  0
    4.4867   17.1333    3.5212 C   0  0  1  0  0  0  0  0  0  0  0  0
    5.6680   17.2933    2.5505 C   0  0  2  0  0  0  0  0  0  0  0  0
    6.2503   18.6366    2.9706 C   0  0  1  0  0  0  0  0  0  0  0  0
    6.2616   18.4835    4.4871 C   0  0  1  0  0  0  0  0  0  0  0  0
    6.4442   19.8009    5.1340 N   0  3  0  0  0  0  0  0  0  0  0  0
    6.3231   19.6757    6.1526 H   0  0  0  0  0  0  0  0  0  0  0  0
    7.3850   20.1914    4.9959 H   0  0  0  0  0  0  0  0  0  0  0  0
    5.7516   20.4934    4.8249 H   0  0  0  0  0  0  0  0  0  0  0  0
    7.5631   18.8744    2.4939 O   0  0  0  0  0  0  0  0  0  0  0  0
    5.2457   17.3509    1.2021 O   0  0  0  0  0  0  0  0  0  0  0  0
    4.0678   15.6770    3.6808 C   0  0  0  0  0  0  0  0  0  0  0  0
    2.7337   15.6557    4.1694 O   0  0  0  0  0  0  0  0  0  0  0  0
    7.5142   18.8014    1.5156 H   0  0  0  0  0  0  0  0  0  0  0  0
    4.8949   18.2588    1.0617 H   0  0  0  0  0  0  0  0  0  0  0  0
    2.7408   16.0567    5.0600 H   0  0  0  0  0  0  0  0  0  0  0  0
  1  2  1  0  0  0  0
  1  5  1  0  0  0  0
  2 12  1  1  0  0  0
  2  3  1  0  0  0  0
  3 11  1  6  0  0  0
  3  4  1  0  0  0  0
  4 10  1  6  0  0  0
  4  5  1  0  0  0  0
  5  6  1  1  0  0  0
  6  7  1  0  0  0  0
  6  8  1  0  0  0  0
  6  9  1  0  0  0  0
 10 14  1  0  0  0  0
 11 15  1  0  0  0  0
 12 13  1  0  0  0  0
 13 16  1  0  0  0  0
M  CHG  1   6   1
M  END
>  <CHROM.0>
-56.01847296,-60.63837664,-61.63283088,-47.13538090,-58.23436792,-57.71262886
-68.66421557,-57.72357637,-168.13824166

>  <CHROM.1>
80.46661825,77.43059950,57.38929075,55.18205174,-64.42553148,5.36586150,17.70197907
3.48938439,2.93434804,-0.73560169,-1.93031082

>  <Name>
P25485764

>  <RI>
3.02409e+07

>  <Rbt.Current_Directory>
/home/fstefaniak/projects/zuza/docking/adenine/4XNR

>  <Rbt.Executable>
rbdock ($Id: //depot/dev/client3/rdock/2013.1/src/exe/rbdock.cxx#4 $)

>  <Rbt.Library>
libRbt.so (2013.1, Build901 2013/11/27)

>  <Rbt.Parameter_File>
/home/fstefaniak/progs/rDock//data/scripts/dock_solv.prm

>  <Rbt.Receptor>
4xnr.prm

>  <SCORE>
-54.2383

>  <SCORE.INTER>
-36.6355

>  <SCORE.INTER.CONST>
1

>  <SCORE.INTER.POLAR>
-5.84665

>  <SCORE.INTER.ROT>
1

>  <SCORE.INTER.SOLV>
22.2557

>  <SCORE.INTER.VDW>
-16.62

>  <SCORE.INTER.norm>
-3.66355

>  <SCORE.INTRA>
3.1167

>  <SCORE.INTRA.DIHEDRAL>
1.92712

>  <SCORE.INTRA.DIHEDRAL.0>
1.32533

>  <SCORE.INTRA.POLAR>
0.643856

>  <SCORE.INTRA.POLAR.0>
-0.643856

>  <SCORE.INTRA.REPUL>
0

>  <SCORE.INTRA.REPUL.0>
0

>  <SCORE.INTRA.SOLV>
-0.982357

>  <SCORE.INTRA.SOLV.lig_0>
-36.5831

>  <SCORE.INTRA.VDW>
0.45521

>  <SCORE.INTRA.VDW.0>
-0.507159

>  <SCORE.INTRA.norm>
0.31167

>  <SCORE.RESTR>
0

>  <SCORE.RESTR.CAVITY>
0

>  <SCORE.RESTR.norm>
0

>  <SCORE.SYSTEM>
-20.7195

>  <SCORE.SYSTEM.CONST>
0

>  <SCORE.SYSTEM.DIHEDRAL>
4.0079

>  <SCORE.SYSTEM.POLAR>
-3.01765

>  <SCORE.SYSTEM.SOLV>
0.305556

>  <SCORE.SYSTEM.VDW>
-5.19199

>  <SCORE.SYSTEM.norm>
-2.07195

>  <SCORE.heavy>
10

>  <SCORE.norm>
-5.42383

$$$$
P25485764
 OpenBabel12072022113D
libRbt.so/2013.1/901 2013/11/27
 16 16  0  0  0  0  0  0  0  0999 V2000
    5.1026   17.7749    4.9905 C   0  0  0  0  0  0  0  0  0  0  0  0
    4.6887   17.2632    3.5948 C   0  0  1  0  0  0  0  0  0  0  0  0
    5.9540   17.3624    2.7273 C   0  0  2  0  0  0  0  0  0  0  0  0
    6.6513   18.5832    3.3131 C   0  0  1  0  0  0  0  0  0  0  0  0
    6.5242   18.2986    4.8052 C   0  0  1  0  0  0  0  0  0  0  0  0
    6.8046   19.5227    5.5864 N   0  3  0  0  0  0  0  0  0  0  0  0
    7.0366   19.2387    6.5524 H   0  0  0  0  0  0  0  0  0  0  0  0
    7.6130   20.0505    5.2333 H   0  0  0  0  0  0  0  0  0  0  0  0
    5.9962   20.1540    5.6373 H   0  0  0  0  0  0  0  0  0  0  0  0
    8.0164   18.7004    2.9527 O   0  0  0  0  0  0  0  0  0  0  0  0
    5.6497   17.5879    1.3649 O   0  0  0  0  0  0  0  0  0  0  0  0
    4.0942   15.8603    3.5850 C   0  0  0  0  0  0  0  0  0  0  0  0
    2.7758   15.9392    4.1088 O   0  0  0  0  0  0  0  0  0  0  0  0
    8.4640   17.9084    3.3228 H   0  0  0  0  0  0  0  0  0  0  0  0
    5.2313   18.4766    1.3194 H   0  0  0  0  0  0  0  0  0  0  0  0
    2.8450   16.2491    5.0325 H   0  0  0  0  0  0  0  0  0  0  0  0
  1  2  1  0  0  0  0
  1  5  1  0  0  0  0
  2 12  1  1  0  0  0
  2  3  1  0  0  0  0
  3 11  1  6  0  0  0
  3  4  1  0  0  0  0
  4 10  1  6  0  0  0
  4  5  1  0  0  0  0
  5  6  1  1  0  0  0
  6  7  1  0  0  0  0
  6  8  1  0  0  0  0
  6  9  1  0  0  0  0
 10 14  1  0  0  0  0
 11 15  1  0  0  0  0
 12 13  1  0  0  0  0
 13 16  1  0  0  0  0
M  CHG  1   6   1
M  END
>  <CHROM.0>
-57.40647600,-63.97746891,-63.53489277,175.77219082,-59.40206575,-61.23715639
-68.55685750,-66.67571133,-168.02659692

>  <CHROM.1>
74.49654357,65.30479743,-62.40466490,82.01867224,-62.52836970,5.63456906
17.71316603,3.70262676,2.90289313,-0.60151271,-1.86569324

>  <Name>
P25485764

>  <RI>
3.02409e+07

>  <Rbt.Current_Directory>
/home/fstefaniak/projects/zuza/docking/adenine/4XNR

>  <Rbt.Executable>
rbdock ($Id: //depot/dev/client3/rdock/2013.1/src/exe/rbdock.cxx#4 $)

>  <Rbt.Library>
libRbt.so (2013.1, Build901 2013/11/27)

>  <Rbt.Parameter_File>
/home/fstefaniak/progs/rDock//data/scripts/dock_solv.prm

>  <Rbt.Receptor>
4xnr.prm

>  <SCORE>
-53.3226

>  <SCORE.INTER>
-37.7986

>  <SCORE.INTER.CONST>
1

>  <SCORE.INTER.POLAR>
-5.75412

>  <SCORE.INTER.ROT>
1

>  <SCORE.INTER.SOLV>
20.648

>  <SCORE.INTER.VDW>
-17.168

>  <SCORE.INTER.norm>
-3.77986

>  <SCORE.INTRA>
2.83984

>  <SCORE.INTRA.DIHEDRAL>
0.978444

>  <SCORE.INTRA.DIHEDRAL.0>
1.32533

>  <SCORE.INTRA.POLAR>
0.643856

>  <SCORE.INTRA.POLAR.0>
-0.643856

>  <SCORE.INTRA.REPUL>
0

>  <SCORE.INTRA.REPUL.0>
0

>  <SCORE.INTRA.SOLV>
-0.986795

>  <SCORE.INTRA.SOLV.lig_0>
-36.5831

>  <SCORE.INTRA.VDW>
0.654907

>  <SCORE.INTRA.VDW.0>
-0.507159

>  <SCORE.INTRA.norm>
0.283984

>  <SCORE.RESTR>
0

>  <SCORE.RESTR.CAVITY>
0

>  <SCORE.RESTR.norm>
0

>  <SCORE.SYSTEM>
-18.3638

>  <SCORE.SYSTEM.CONST>
0

>  <SCORE.SYSTEM.DIHEDRAL>
3.55447

>  <SCORE.SYSTEM.POLAR>
-2.42756

>  <SCORE.SYSTEM.SOLV>
0.0864246

>  <SCORE.SYSTEM.VDW>
-5.3643

>  <SCORE.SYSTEM.norm>
-1.83638

>  <SCORE.heavy>
10

>  <SCORE.norm>
-5.33226

$$$$
P25485764
 OpenBabel12072022113D
libRbt.so/2013.1/901 2013/11/27
 16 16  0  0  0  0  0  0  0  0999 V2000
    5.1015   17.7917    5.0233 C   0  0  0  0  0  0  0  0  0  0  0  0
    4.6931   17.2893    3.6226 C   0  0  1  0  0  0  0  0  0  0  0  0
    5.9671   17.3740    2.7665 C   0  0  2  0  0  0  0  0  0  0  0  0
    6.6753   18.5840    3.3617 C   0  0  1  0  0  0  0  0  0  0  0  0
    6.5315   18.2971    4.8519 C   0  0  1  0  0  0  0  0  0  0  0  0
    6.8213   19.5152    5.6389 N   0  3  0  0  0  0  0  0  0  0  0  0
    7.5544   20.0486    5.1431 H   0  0  0  0  0  0  0  0  0  0  0  0
    6.0108   20.1415    5.7263 H   0  0  0  0  0  0  0  0  0  0  0  0
    7.1772   19.3042    6.5788 H   0  0  0  0  0  0  0  0  0  0  0  0
    8.0449   18.6840    3.0135 O   0  0  0  0  0  0  0  0  0  0  0  0
    5.6777   17.6073    1.4021 O   0  0  0  0  0  0  0  0  0  0  0  0
    4.0802   15.8944    3.6037 C   0  0  0  0  0  0  0  0  0  0  0  0
    2.7247   16.0056    4.0150 O   0  0  0  0  0  0  0  0  0  0  0  0
    8.4676   17.8571    3.3333 H   0  0  0  0  0  0  0  0  0  0  0  0
    5.1890   18.4598    1.3658 H   0  0  0  0  0  0  0  0  0  0  0  0
    2.2822   16.6254    3.4034 H   0  0  0  0  0  0  0  0  0  0  0  0
  1  2  1  0  0  0  0
  1  5  1  0  0  0  0
  2 12  1  1  0  0  0
  2  3  1  0  0  0  0
  3 11  1  6  0  0  0
  3  4  1  0  0  0  0
  4 10  1  6  0  0  0
  4  5  1  0  0  0  0
  5  6  1  1  0  0  0
  6  7  1  0  0  0  0
  6  8  1  0  0  0  0
  6  9  1  0  0  0  0
 10 14  1  0  0  0  0
 11 15  1  0  0  0  0
 12 13  1  0  0  0  0
 13 16  1  0  0  0  0
M  CHG  1   6   1
M  END
>  <CHROM.0>
-61.06622396,70.19310295,-65.08929440,-45.33033464,-61.89566276,-175.20304004
-69.05874942,-62.94070785,-167.80195333

>  <CHROM.1>
79.07411107,59.65516740,-58.75754751,-151.46187112,57.79082808,5.63615256
17.73045131,3.71665292,2.86591275,-0.57282902,-1.86610481

>  <Name>
P25485764

>  <RI>
3.02409e+07

>  <Rbt.Current_Directory>
/home/fstefaniak/projects/zuza/docking/adenine/4XNR

>  <Rbt.Executable>
rbdock ($Id: //depot/dev/client3/rdock/2013.1/src/exe/rbdock.cxx#4 $)

>  <Rbt.Library>
libRbt.so (2013.1, Build901 2013/11/27)

>  <Rbt.Parameter_File>
/home/fstefaniak/progs/rDock//data/scripts/dock_solv.prm

>  <Rbt.Receptor>
4xnr.prm

>  <SCORE>
-53.2952

>  <SCORE.INTER>
-37.3065

>  <SCORE.INTER.CONST>
1

>  <SCORE.INTER.POLAR>
-5.71808

>  <SCORE.INTER.ROT>
1

>  <SCORE.INTER.SOLV>
20.6387

>  <SCORE.INTER.VDW>
-16.9569

>  <SCORE.INTER.norm>
-3.73065

>  <SCORE.INTRA>
3.42667

>  <SCORE.INTRA.DIHEDRAL>
1.89121

>  <SCORE.INTRA.DIHEDRAL.0>
1.32533

>  <SCORE.INTRA.POLAR>
0.643856

>  <SCORE.INTRA.POLAR.0>
-0.643856

>  <SCORE.INTRA.REPUL>
0

>  <SCORE.INTRA.REPUL.0>
0

>  <SCORE.INTRA.SOLV>
-0.868628

>  <SCORE.INTRA.SOLV.lig_0>
-36.5831

>  <SCORE.INTRA.VDW>
0.726269

>  <SCORE.INTRA.VDW.0>
-0.507159

>  <SCORE.INTRA.norm>
0.342667

>  <SCORE.RESTR>
0

>  <SCORE.RESTR.CAVITY>
0

>  <SCORE.RESTR.norm>
0

>  <SCORE.SYSTEM>
-19.4154

>  <SCORE.SYSTEM.CONST>
0

>  <SCORE.SYSTEM.DIHEDRAL>
4.91572

>  <SCORE.SYSTEM.POLAR>
-2.9978

>  <SCORE.SYSTEM.SOLV>
0.193796

>  <SCORE.SYSTEM.VDW>
-4.65407

>  <SCORE.SYSTEM.norm>
-1.94154

>  <SCORE.heavy>
10

>  <SCORE.norm>
-5.32952

$$$$
P28316096
 OpenBabel12072022113D
libRbt.so/2013.1/901 2013/11/27
 12 12  0  0  0  0  0  0  0  0999 V2000
    6.8776   19.6664    5.2579 C   0  0  0  0  0  0  0  0  0  0  0  0
    6.5190   18.9371    3.9632 C   0  0  0  0  0  0  0  0  0  0  0  0
    5.1401   18.2969    4.0632 C   0  0  2  0  0  0  0  0  0  0  0  0
    5.0978   17.4410    5.3394 N   0  3  0  0  0  0  0  0  0  0  0  0
    5.7317   16.6395    5.1834 H   0  0  0  0  0  0  0  0  0  0  0  0
    4.1596   16.9880    5.2561 H   0  0  0  0  0  0  0  0  0  0  0  0
    5.3194   18.2170    6.4996 N   0  0  0  0  0  0  0  0  0  0  0  0
    6.6867   18.7614    6.4741 C   0  0  0  0  0  0  0  0  0  0  0  0
    4.7436   17.3871    2.8665 C   0  0  0  0  0  0  0  0  0  0  0  0
    3.5153   17.5604    2.5760 O   0  0  0  0  0  0  0  0  0  0  0  0
    5.6018   16.5884    2.4335 O   0  5  0  0  0  0  0  0  0  0  0  0
    5.1973   17.6738    7.3629 H   0  0  0  0  0  0  0  0  0  0  0  0
  1  2  1  0  0  0  0
  1  8  1  0  0  0  0
  2  3  1  0  0  0  0
  3  4  1  0  0  0  0
  3  9  1  6  0  0  0
  4  5  1  0  0  0  0
  4  6  1  0  0  0  0
  4  7  1  0  0  0  0
  7  8  1  0  0  0  0
  7 12  1  0  0  0  0
  9 10  2  0  0  0  0
  9 11  1  0  0  0  0
M  CHG  2   4   1  11  -1
M  END
>  <CHROM.0>
-59.20195553,-62.07533661,-68.50816752,-48.30246380,-176.33751088,-63.30551189
-68.26377501,-60.33288827,-168.23668030

>  <CHROM.1>
-140.37157365,5.47526418,18.05050473,4.39043316,-1.02052164,-0.61240280,-1.67567063

>  <Name>
P28316096

>  <RI>
9.71178e+06

>  <Rbt.Current_Directory>
/home/fstefaniak/projects/zuza/docking/adenine/4XNR

>  <Rbt.Executable>
rbdock ($Id: //depot/dev/client3/rdock/2013.1/src/exe/rbdock.cxx#4 $)

>  <Rbt.Library>
libRbt.so (2013.1, Build901 2013/11/27)

>  <Rbt.Parameter_File>
/home/fstefaniak/progs/rDock//data/scripts/dock_solv.prm

>  <Rbt.Receptor>
4xnr.prm

>  <SCORE>
-44.6308

>  <SCORE.INTER>
-22.6335

>  <SCORE.INTER.CONST>
1

>  <SCORE.INTER.POLAR>
-3.12427

>  <SCORE.INTER.ROT>
1

>  <SCORE.INTER.SOLV>
23.3293

>  <SCORE.INTER.VDW>
-16.7178

>  <SCORE.INTER.norm>
-2.51483

>  <SCORE.INTRA>
-0.987825

>  <SCORE.INTRA.DIHEDRAL>
-0.117514

>  <SCORE.INTRA.DIHEDRAL.0>
1.10641

>  <SCORE.INTRA.POLAR>
0

>  <SCORE.INTRA.POLAR.0>
0

>  <SCORE.INTRA.REPUL>
0

>  <SCORE.INTRA.REPUL.0>
0

>  <SCORE.INTRA.SOLV>
-0.535252

>  <SCORE.INTRA.SOLV.lig_0>
-45.9557

>  <SCORE.INTRA.VDW>
-0.661443

>  <SCORE.INTRA.VDW.0>
0.317883

>  <SCORE.INTRA.norm>
-0.109758

>  <SCORE.RESTR>
0

>  <SCORE.RESTR.CAVITY>
0

>  <SCORE.RESTR.norm>
0

>  <SCORE.SYSTEM>
-21.0096

>  <SCORE.SYSTEM.CONST>
0

>  <SCORE.SYSTEM.DIHEDRAL>
4.15125

>  <SCORE.SYSTEM.POLAR>
-2.95239

>  <SCORE.SYSTEM.SOLV>
0.0981081

>  <SCORE.SYSTEM.VDW>
-5.58152

>  <SCORE.SYSTEM.norm>
-2.3344

>  <SCORE.heavy>
9

>  <SCORE.norm>
-4.95898

$$$$
P28316096
 OpenBabel12072022113D
libRbt.so/2013.1/901 2013/11/27
 12 12  0  0  0  0  0  0  0  0999 V2000
    6.8426   19.6644    5.2377 C   0  0  0  0  0  0  0  0  0  0  0  0
    6.4872   18.9270    3.9467 C   0  0  0  0  0  0  0  0  0  0  0  0
    5.1118   18.2800    4.0505 C   0  0  2  0  0  0  0  0  0  0  0  0
    5.0747   17.4299    5.3308 N   0  3  0  0  0  0  0  0  0  0  0  0
    5.7128   16.6310    5.1782 H   0  0  0  0  0  0  0  0  0  0  0  0
    4.1390   16.9715    5.2502 H   0  0  0  0  0  0  0  0  0  0  0  0
    5.2929   18.2125    6.4872 N   0  0  0  0  0  0  0  0  0  0  0  0
    6.6573   18.7641    6.4582 C   0  0  0  0  0  0  0  0  0  0  0  0
    4.7195   17.3624    2.8584 C   0  0  0  0  0  0  0  0  0  0  0  0
    3.4918   17.5324    2.5636 O   0  0  0  0  0  0  0  0  0  0  0  0
    5.5797   16.5621    2.4325 O   0  5  0  0  0  0  0  0  0  0  0  0
    5.1741   17.6728    7.3531 H   0  0  0  0  0  0  0  0  0  0  0  0
  1  2  1  0  0  0  0
  1  8  1  0  0  0  0
  2  3  1  0  0  0  0
  3  4  1  0  0  0  0
  3  9  1  6  0  0  0
  4  5  1  0  0  0  0
  4  6  1  0  0  0  0
  4  7  1  0  0  0  0
  7  8  1  0  0  0  0
  7 12  1  0  0  0  0
  9 10  2  0  0  0  0
  9 11  1  0  0  0  0
M  CHG  2   4   1  11  -1
M  END
>  <CHROM.0>
-55.93482592,-63.65911419,-66.66454291,-48.53182317,-177.61407246,-63.18803708
-66.45420587,-61.72457397,-167.91224050

>  <CHROM.1>
-140.06212689,5.44841108,18.03697070,4.37867606,-1.01974059,-0.61941336,-1.67890556

>  <Name>
P28316096

>  <RI>
9.71178e+06

>  <Rbt.Current_Directory>
/home/fstefaniak/projects/zuza/docking/adenine/4XNR

>  <Rbt.Executable>
rbdock ($Id: //depot/dev/client3/rdock/2013.1/src/exe/rbdock.cxx#4 $)

>  <Rbt.Library>
libRbt.so (2013.1, Build901 2013/11/27)

>  <Rbt.Parameter_File>
/home/fstefaniak/progs/rDock//data/scripts/dock_solv.prm

>  <Rbt.Receptor>
4xnr.prm

>  <SCORE>
-44.6307

>  <SCORE.INTER>
-22.6537

>  <SCORE.INTER.CONST>
1

>  <SCORE.INTER.POLAR>
-3.08752

>  <SCORE.INTER.ROT>
1

>  <SCORE.INTER.SOLV>
23.354

>  <SCORE.INTER.VDW>
-16.862

>  <SCORE.INTER.norm>
-2.51707

>  <SCORE.INTRA>
-0.990716

>  <SCORE.INTRA.DIHEDRAL>
-0.116812

>  <SCORE.INTRA.DIHEDRAL.0>
1.10641

>  <SCORE.INTRA.POLAR>
0

>  <SCORE.INTRA.POLAR.0>
0

>  <SCORE.INTRA.REPUL>
0

>  <SCORE.INTRA.REPUL.0>
0

>  <SCORE.INTRA.SOLV>
-0.535782

>  <SCORE.INTRA.SOLV.lig_0>
-45.9557

>  <SCORE.INTRA.VDW>
-0.664419

>  <SCORE.INTRA.VDW.0>
0.317883

>  <SCORE.INTRA.norm>
-0.11008

>  <SCORE.RESTR>
0

>  <SCORE.RESTR.CAVITY>
0

>  <SCORE.RESTR.norm>
0

>  <SCORE.SYSTEM>
-20.9863

>  <SCORE.SYSTEM.CONST>
0

>  <SCORE.SYSTEM.DIHEDRAL>
4.00753

>  <SCORE.SYSTEM.POLAR>
-2.97966

>  <SCORE.SYSTEM.SOLV>
0.107699

>  <SCORE.SYSTEM.VDW>
-5.43039

>  <SCORE.SYSTEM.norm>
-2.33181

>  <SCORE.heavy>
9

>  <SCORE.norm>
-4.95896

$$$$
P28316096
 OpenBabel12072022113D
libRbt.so/2013.1/901 2013/11/27
 12 12  0  0  0  0  0  0  0  0999 V2000
    6.8646   19.6644    5.2530 C   0  0  0  0  0  0  0  0  0  0  0  0
    6.5083   18.9347    3.9579 C   0  0  0  0  0  0  0  0  0  0  0  0
    5.1301   18.2927    4.0565 C   0  0  2  0  0  0  0  0  0  0  0  0
    5.0876   17.4367    5.3326 N   0  3  0  0  0  0  0  0  0  0  0  0
    5.7227   16.6360    5.1771 H   0  0  0  0  0  0  0  0  0  0  0  0
    4.1501   16.9825    5.2484 H   0  0  0  0  0  0  0  0  0  0  0  0
    5.3071   18.2129    6.4930 N   0  0  0  0  0  0  0  0  0  0  0  0
    6.6738   18.7591    6.4689 C   0  0  0  0  0  0  0  0  0  0  0  0
    4.7359   17.3825    2.8594 C   0  0  0  0  0  0  0  0  0  0  0  0
    3.5081   17.5552    2.5668 O   0  0  0  0  0  0  0  0  0  0  0  0
    5.5952   16.5840    2.4279 O   0  5  0  0  0  0  0  0  0  0  0  0
    5.1848   17.6695    7.3562 H   0  0  0  0  0  0  0  0  0  0  0  0
  1  2  1  0  0  0  0
  1  8  1  0  0  0  0
  2  3  1  0  0  0  0
  3  4  1  0  0  0  0
  3  9  1  6  0  0  0
  4  5  1  0  0  0  0
  4  6  1  0  0  0  0
  4  7  1  0  0  0  0
  7  8  1  0  0  0  0
  7 12  1  0  0  0  0
  9 10  2  0  0  0  0
  9 11  1  0  0  0  0
M  CHG  2   4   1  11  -1
M  END
>  <CHROM.0>
-57.55514309,-64.97962262,-67.60912131,-46.10454511,-58.51626404,-63.25442758
-66.28679754,-58.29243992,-168.08387017

>  <CHROM.1>
-140.30771844,5.46523978,18.04675054,4.38402796,-1.02171170,-0.61391643,-1.67608600

>  <Name>
P28316096

>  <RI>
9.71178e+06

>  <Rbt.Current_Directory>
/home/fstefaniak/projects/zuza/docking/adenine/4XNR

>  <Rbt.Executable>
rbdock ($Id: //depot/dev/client3/rdock/2013.1/src/exe/rbdock.cxx#4 $)

>  <Rbt.Library>
libRbt.so (2013.1, Build901 2013/11/27)

>  <Rbt.Parameter_File>
/home/fstefaniak/progs/rDock//data/scripts/dock_solv.prm

>  <Rbt.Receptor>
4xnr.prm

>  <SCORE>
-44.6226

>  <SCORE.INTER>
-22.7198

>  <SCORE.INTER.CONST>
1

>  <SCORE.INTER.POLAR>
-3.11273

>  <SCORE.INTER.ROT>
1

>  <SCORE.INTER.SOLV>
23.3425

>  <SCORE.INTER.VDW>
-16.8183

>  <SCORE.INTER.norm>
-2.52442

>  <SCORE.INTRA>
-0.988425

>  <SCORE.INTRA.DIHEDRAL>
-0.11737

>  <SCORE.INTRA.DIHEDRAL.0>
1.10641

>  <SCORE.INTRA.POLAR>
0

>  <SCORE.INTRA.POLAR.0>
0

>  <SCORE.INTRA.REPUL>
0

>  <SCORE.INTRA.REPUL.0>
0

>  <SCORE.INTRA.SOLV>
-0.535362

>  <SCORE.INTRA.SOLV.lig_0>
-45.9557

>  <SCORE.INTRA.VDW>
-0.662059

>  <SCORE.INTRA.VDW.0>
0.317883

>  <SCORE.INTRA.norm>
-0.109825

>  <SCORE.RESTR>
0

>  <SCORE.RESTR.CAVITY>
0

>  <SCORE.RESTR.norm>
0

>  <SCORE.SYSTEM>
-20.9144

>  <SCORE.SYSTEM.CONST>
0

>  <SCORE.SYSTEM.DIHEDRAL>
4.30756

>  <SCORE.SYSTEM.POLAR>
-3.00838

>  <SCORE.SYSTEM.SOLV>
0.287811

>  <SCORE.SYSTEM.VDW>
-5.44679

>  <SCORE.SYSTEM.norm>
-2.32382

>  <SCORE.heavy>
9

>  <SCORE.norm>
-4.95807

$$$$
P28811580
 OpenBabel12072022113D
libRbt.so/2013.1/901 2013/11/27
 12 12  0  0  0  0  0  0  0  0999 V2000
    1.2793   15.9656    4.2344 C   0  0  0  0  0  0  0  0  0  0  0  0
    2.3169   16.4407    3.8585 C   0  0  0  0  0  0  0  0  0  0  0  0
    3.5925   17.0281    3.4170 C   0  0  0  0  0  0  0  0  0  0  0  0
    4.7518   16.3757    4.0435 N   0  0  0  0  0  0  0  0  0  0  0  0
    5.8759   16.2337    3.1031 C   0  0  0  0  0  0  0  0  0  0  0  0
    6.5766   17.5435    2.7563 C   0  0  0  0  0  0  0  0  0  0  0  0
    6.9406   18.2846    4.0229 C   0  0  0  0  0  0  0  0  0  0  0  0
    8.1145   18.8402    4.0861 N   0  0  0  0  0  0  0  0  0  0  0  0
    8.2932   19.5459    5.2786 O   0  0  0  0  0  0  0  0  0  0  0  0
    5.8588   18.3977    5.0759 C   0  0  0  0  0  0  0  0  0  0  0  0
    5.2117   17.0305    5.2803 C   0  0  0  0  0  0  0  0  0  0  0  0
    7.9230   20.4221    5.0619 H   0  0  0  0  0  0  0  0  0  0  0  0
  1  2  3  0  0  0  0
  2  3  1  0  0  0  0
  3  4  1  0  0  0  0
  4  5  1  0  0  0  0
  4 11  1  0  0  0  0
  5  6  1  0  0  0  0
  6  7  1  0  0  0  0
  7  8  2  0  0  0  0
  7 10  1  0  0  0  0
  8  9  1  0  0  0  0
  9 12  1  0  0  0  0
 10 11  1  0  0  0  0
M  END
>  <CHROM.0>
-59.28538827,-61.65266336,-67.52666843,-46.42221369,-59.45711480,-64.22374416
-68.99450258,-63.71445483,-167.93806176

>  <CHROM.1>
60.63429741,141.64307063,-86.83462707,5.44746635,17.48464137,4.13019269,2.80603341
-0.34113885,-2.15833766

>  <Name>
P28811580

>  <RI>
4.17015e+07

>  <Rbt.Current_Directory>
/home/fstefaniak/projects/zuza/docking/adenine/4XNR

>  <Rbt.Executable>
rbdock ($Id: //depot/dev/client3/rdock/2013.1/src/exe/rbdock.cxx#4 $)

>  <Rbt.Library>
libRbt.so (2013.1, Build901 2013/11/27)

>  <Rbt.Parameter_File>
/home/fstefaniak/progs/rDock//data/scripts/dock_solv.prm

>  <Rbt.Receptor>
4xnr.prm

>  <SCORE>
-41.6719

>  <SCORE.INTER>
-20.1814

>  <SCORE.INTER.CONST>
1

>  <SCORE.INTER.POLAR>
-2.10749

>  <SCORE.INTER.ROT>
2

>  <SCORE.INTER.SOLV>
10.2772

>  <SCORE.INTER.VDW>
-14.7884

>  <SCORE.INTER.norm>
-1.83468

>  <SCORE.INTRA>
-0.556897

>  <SCORE.INTRA.DIHEDRAL>
-0.527414

>  <SCORE.INTRA.DIHEDRAL.0>
2.07738

>  <SCORE.INTRA.POLAR>
0

>  <SCORE.INTRA.POLAR.0>
0

>  <SCORE.INTRA.REPUL>
0

>  <SCORE.INTRA.REPUL.0>
0

>  <SCORE.INTRA.SOLV>
-0.0411776

>  <SCORE.INTRA.SOLV.lig_0>
-7.79112

>  <SCORE.INTRA.VDW>
-0.272601

>  <SCORE.INTRA.VDW.0>
-0.338893

>  <SCORE.INTRA.norm>
-0.050627

>  <SCORE.RESTR>
0

>  <SCORE.RESTR.CAVITY>
0

>  <SCORE.RESTR.norm>
0

>  <SCORE.SYSTEM>
-20.9336

>  <SCORE.SYSTEM.CONST>
0

>  <SCORE.SYSTEM.DIHEDRAL>
4.40499

>  <SCORE.SYSTEM.POLAR>
-2.98523

>  <SCORE.SYSTEM.SOLV>
0.267686

>  <SCORE.SYSTEM.VDW>
-5.56254

>  <SCORE.SYSTEM.norm>
-1.90305

>  <SCORE.heavy>
11

>  <SCORE.norm>
-3.78836

$$$$
P28811580
 OpenBabel12072022113D
libRbt.so/2013.1/901 2013/11/27
 12 12  0  0  0  0  0  0  0  0999 V2000
    1.2851   15.9481    4.1893 C   0  0  0  0  0  0  0  0  0  0  0  0
    2.3237   16.4391    3.8373 C   0  0  0  0  0  0  0  0  0  0  0  0
    3.5994   17.0248    3.3937 C   0  0  0  0  0  0  0  0  0  0  0  0
    4.7585   16.3755    4.0236 N   0  0  0  0  0  0  0  0  0  0  0  0
    5.8873   16.2403    3.0877 C   0  0  0  0  0  0  0  0  0  0  0  0
    6.5842   17.5537    2.7472 C   0  0  0  0  0  0  0  0  0  0  0  0
    6.9397   18.2932    4.0172 C   0  0  0  0  0  0  0  0  0  0  0  0
    8.1111   18.8533    4.0869 N   0  0  0  0  0  0  0  0  0  0  0  0
    8.2819   19.5568    5.2818 O   0  0  0  0  0  0  0  0  0  0  0  0
    5.8530   18.3994    5.0657 C   0  0  0  0  0  0  0  0  0  0  0  0
    5.2105   17.0291    5.2640 C   0  0  0  0  0  0  0  0  0  0  0  0
    7.9108   20.4326    5.0650 H   0  0  0  0  0  0  0  0  0  0  0  0
  1  2  3  0  0  0  0
  2  3  1  0  0  0  0
  3  4  1  0  0  0  0
  4  5  1  0  0  0  0
  4 11  1  0  0  0  0
  5  6  1  0  0  0  0
  6  7  1  0  0  0  0
  7  8  2  0  0  0  0
  7 10  1  0  0  0  0
  8  9  1  0  0  0  0
  9 12  1  0  0  0  0
 10 11  1  0  0  0  0
M  END
>  <CHROM.0>
-58.23073525,-60.50005093,-65.40957739,-46.19723856,-61.84349300,-63.56616255
-67.81085703,-60.77731667,-167.96268421

>  <CHROM.1>
-77.04795956,142.14700965,-86.95228035,5.44919652,17.48737667,4.11598197
2.79960875,-0.34154778,-2.15863535

>  <Name>
P28811580

>  <RI>
4.17015e+07

>  <Rbt.Current_Directory>
/home/fstefaniak/projects/zuza/docking/adenine/4XNR

>  <Rbt.Executable>
rbdock ($Id: //depot/dev/client3/rdock/2013.1/src/exe/rbdock.cxx#4 $)

>  <Rbt.Library>
libRbt.so (2013.1, Build901 2013/11/27)

>  <Rbt.Parameter_File>
/home/fstefaniak/progs/rDock//data/scripts/dock_solv.prm

>  <Rbt.Receptor>
4xnr.prm

>  <SCORE>
-41.6004

>  <SCORE.INTER>
-20.0993

>  <SCORE.INTER.CONST>
1

>  <SCORE.INTER.POLAR>
-2.09349

>  <SCORE.INTER.ROT>
2

>  <SCORE.INTER.SOLV>
10.2459

>  <SCORE.INTER.VDW>
-14.7698

>  <SCORE.INTER.norm>
-1.82721

>  <SCORE.INTRA>
-0.570441

>  <SCORE.INTRA.DIHEDRAL>
-0.557969

>  <SCORE.INTRA.DIHEDRAL.0>
2.07738

>  <SCORE.INTRA.POLAR>
0

>  <SCORE.INTRA.POLAR.0>
0

>  <SCORE.INTRA.REPUL>
0

>  <SCORE.INTRA.REPUL.0>
0

>  <SCORE.INTRA.SOLV>
-0.0413995

>  <SCORE.INTRA.SOLV.lig_0>
-7.79112

>  <SCORE.INTRA.VDW>
-0.270757

>  <SCORE.INTRA.VDW.0>
-0.338893

>  <SCORE.INTRA.norm>
-0.0518583

>  <SCORE.RESTR>
0

>  <SCORE.RESTR.CAVITY>
0

>  <SCORE.RESTR.norm>
0

>  <SCORE.SYSTEM>
-20.9307

>  <SCORE.SYSTEM.CONST>
0

>  <SCORE.SYSTEM.DIHEDRAL>
4.15038

>  <SCORE.SYSTEM.POLAR>
-2.99974

>  <SCORE.SYSTEM.SOLV>
0.2803

>  <SCORE.SYSTEM.VDW>
-5.43154

>  <SCORE.SYSTEM.norm>
-1.90279

>  <SCORE.heavy>
11

>  <SCORE.norm>
-3.78185

$$$$
P28811580
 OpenBabel12072022113D
libRbt.so/2013.1/901 2013/11/27
 12 12  0  0  0  0  0  0  0  0999 V2000
    1.2731   16.0294    4.1806 C   0  0  0  0  0  0  0  0  0  0  0  0
    2.3237   16.4798    3.8106 C   0  0  0  0  0  0  0  0  0  0  0  0
    3.6085   17.0474    3.3697 C   0  0  0  0  0  0  0  0  0  0  0  0
    4.7567   16.3893    4.0105 N   0  0  0  0  0  0  0  0  0  0  0  0
    5.8908   16.2397    3.0834 C   0  0  0  0  0  0  0  0  0  0  0  0
    6.6029   17.5450    2.7431 C   0  0  0  0  0  0  0  0  0  0  0  0
    6.9564   18.2858    4.0130 C   0  0  0  0  0  0  0  0  0  0  0  0
    8.1326   18.8348    4.0892 N   0  0  0  0  0  0  0  0  0  0  0  0
    8.3014   19.5410    5.2828 O   0  0  0  0  0  0  0  0  0  0  0  0
    5.8631   18.4064    5.0531 C   0  0  0  0  0  0  0  0  0  0  0  0
    5.2059   17.0431    5.2517 C   0  0  0  0  0  0  0  0  0  0  0  0
    7.9390   20.4191    5.0606 H   0  0  0  0  0  0  0  0  0  0  0  0
  1  2  3  0  0  0  0
  2  3  1  0  0  0  0
  3  4  1  0  0  0  0
  4  5  1  0  0  0  0
  4 11  1  0  0  0  0
  5  6  1  0  0  0  0
  6  7  1  0  0  0  0
  7  8  2  0  0  0  0
  7 10  1  0  0  0  0
  8  9  1  0  0  0  0
  9 12  1  0  0  0  0
 10 11  1  0  0  0  0
M  END
>  <CHROM.0>
-59.73526575,-60.41492474,-65.72228339,-47.43815638,-176.47669877,-62.55269492
-69.17989940,-177.00978510,-167.98996103

>  <CHROM.1>
101.49777058,142.40299465,-86.84928965,5.45693650,17.49794447,4.10658533
2.80141251,-0.32771318,-2.16485592

>  <Name>
P28811580

>  <RI>
4.17015e+07

>  <Rbt.Current_Directory>
/home/fstefaniak/projects/zuza/docking/adenine/4XNR

>  <Rbt.Executable>
rbdock ($Id: //depot/dev/client3/rdock/2013.1/src/exe/rbdock.cxx#4 $)

>  <Rbt.Library>
libRbt.so (2013.1, Build901 2013/11/27)

>  <Rbt.Parameter_File>
/home/fstefaniak/progs/rDock//data/scripts/dock_solv.prm

>  <Rbt.Receptor>
4xnr.prm

>  <SCORE>
-41.5815

>  <SCORE.INTER>
-20.0785

>  <SCORE.INTER.CONST>
1

>  <SCORE.INTER.POLAR>
-2.09713

>  <SCORE.INTER.ROT>
2

>  <SCORE.INTER.SOLV>
10.251

>  <SCORE.INTER.VDW>
-14.7456

>  <SCORE.INTER.norm>
-1.82532

>  <SCORE.INTRA>
-0.576825

>  <SCORE.INTRA.DIHEDRAL>
-0.572961

>  <SCORE.INTRA.DIHEDRAL.0>
2.07738

>  <SCORE.INTRA.POLAR>
0

>  <SCORE.INTRA.POLAR.0>
0

>  <SCORE.INTRA.REPUL>
0

>  <SCORE.INTRA.REPUL.0>
0

>  <SCORE.INTRA.SOLV>
-0.0419106

>  <SCORE.INTRA.SOLV.lig_0>
-7.79112

>  <SCORE.INTRA.VDW>
-0.26939

>  <SCORE.INTRA.VDW.0>
-0.338893

>  <SCORE.INTRA.norm>
-0.0524387

>  <SCORE.RESTR>
0

>  <SCORE.RESTR.CAVITY>
0

>  <SCORE.RESTR.norm>
0

>  <SCORE.SYSTEM>
-20.9261

>  <SCORE.SYSTEM.CONST>
0

>  <SCORE.SYSTEM.DIHEDRAL>
4.15698

>  <SCORE.SYSTEM.POLAR>
-2.96911

>  <SCORE.SYSTEM.SOLV>
-0.0313674

>  <SCORE.SYSTEM.VDW>
-5.42894

>  <SCORE.SYSTEM.norm>
-1.90238

>  <SCORE.heavy>
11

>  <SCORE.norm>
-3.78014

$$$$
P29352675
 OpenBabel12072022113D
libRbt.so/2013.1/901 2013/11/27
 14 14  0  0  0  0  0  0  0  0999 V2000
    3.4573   13.6427    4.1631 C   0  0  0  0  0  0  0  0  0  0  0  0
    3.1220   15.0354    3.6334 C   0  0  1  0  0  0  0  0  0  0  0  0
    1.6214   15.3743    3.7620 C   0  0  0  0  0  0  0  0  0  0  0  0
    0.7930   14.6073    2.8964 O   0  0  0  0  0  0  0  0  0  0  0  0
    4.0014   16.0475    4.2165 N   0  0  0  0  0  0  0  0  0  0  0  0
    4.9257   16.7985    3.5245 C   0  0  0  0  0  0  0  0  0  0  0  0
    5.1673   16.6129    2.3346 O   0  0  0  0  0  0  0  0  0  0  0  0
    5.5833   17.8082    4.3273 C   0  0  0  0  0  0  0  0  0  0  0  0
    6.4698   18.8105    3.9817 C   0  0  0  0  0  0  0  0  0  0  0  0
    6.7911   19.5011    5.1746 C   0  0  0  0  0  0  0  0  0  0  0  0
    6.0834   18.8821    6.1773 C   0  0  0  0  0  0  0  0  0  0  0  0
    5.3464   17.8561    5.6786 O   0  0  0  0  0  0  0  0  0  0  0  0
   -0.1311   14.9052    3.0494 H   0  0  0  0  0  0  0  0  0  0  0  0
    3.8466   16.3227    5.1810 H   0  0  0  0  0  0  0  0  0  0  0  0
  2  1  1  1  0  0  0
  2  3  1  0  0  0  0
  2  5  1  0  0  0  0
  3  4  1  0  0  0  0
  4 13  1  0  0  0  0
  5  6  1  0  0  0  0
  5 14  1  0  0  0  0
  6  7  2  0  0  0  0
  6  8  1  0  0  0  0
  8  9  2  0  0  0  0
  8 12  1  0  0  0  0
  9 10  1  0  0  0  0
 10 11  2  0  0  0  0
 11 12  1  0  0  0  0
M  END
>  <CHROM.0>
-58.67511008,-61.82207401,-67.40924524,-48.96137280,-59.57890906,-63.00104434
-69.49651828,-59.45024047,-168.27293286

>  <CHROM.1>
-68.86637224,114.47186185,-179.40537317,-174.00531761,4.33930151,16.65805619
4.12873885,2.64857287,-0.66078668,-1.91374457

>  <Name>
P29352675

>  <RI>
3.4169e+07

>  <Rbt.Current_Directory>
/home/fstefaniak/projects/zuza/docking/adenine/4XNR

>  <Rbt.Executable>
rbdock ($Id: //depot/dev/client3/rdock/2013.1/src/exe/rbdock.cxx#4 $)

>  <Rbt.Library>
libRbt.so (2013.1, Build901 2013/11/27)

>  <Rbt.Parameter_File>
/home/fstefaniak/progs/rDock//data/scripts/dock_solv.prm

>  <Rbt.Receptor>
4xnr.prm

>  <SCORE>
-54.3512

>  <SCORE.INTER>
-35.0657

>  <SCORE.INTER.CONST>
1

>  <SCORE.INTER.POLAR>
-3.68388

>  <SCORE.INTER.ROT>
3

>  <SCORE.INTER.SOLV>
11.8549

>  <SCORE.INTER.VDW>
-20.6492

>  <SCORE.INTER.norm>
-2.92214

>  <SCORE.INTRA>
1.6683

>  <SCORE.INTRA.DIHEDRAL>
-0.405226

>  <SCORE.INTRA.DIHEDRAL.0>
2.25017

>  <SCORE.INTRA.POLAR>
1.0052

>  <SCORE.INTRA.POLAR.0>
-1.13198

>  <SCORE.INTRA.REPUL>
0

>  <SCORE.INTRA.REPUL.0>
0

>  <SCORE.INTRA.SOLV>
-1.53536

>  <SCORE.INTRA.SOLV.lig_0>
-16.5325

>  <SCORE.INTRA.VDW>
-0.779108

>  <SCORE.INTRA.VDW.0>
-0.366351

>  <SCORE.INTRA.norm>
0.139025

>  <SCORE.RESTR>
0

>  <SCORE.RESTR.CAVITY>
0

>  <SCORE.RESTR.norm>
0

>  <SCORE.SYSTEM>
-20.9538

>  <SCORE.SYSTEM.CONST>
0

>  <SCORE.SYSTEM.DIHEDRAL>
4.0316

>  <SCORE.SYSTEM.POLAR>
-2.94807

>  <SCORE.SYSTEM.SOLV>
0.27162

>  <SCORE.SYSTEM.VDW>
-5.5767

>  <SCORE.SYSTEM.norm>
-1.74615

>  <SCORE.heavy>
12

>  <SCORE.norm>
-4.52927

$$$$
P29352675
 OpenBabel12072022113D
libRbt.so/2013.1/901 2013/11/27
 14 14  0  0  0  0  0  0  0  0999 V2000
    3.5496   13.6189    3.9911 C   0  0  0  0  0  0  0  0  0  0  0  0
    3.1333   15.0279    3.5742 C   0  0  1  0  0  0  0  0  0  0  0  0
    1.6201   15.2767    3.7507 C   0  0  0  0  0  0  0  0  0  0  0  0
    0.8126   14.4786    2.8935 O   0  0  0  0  0  0  0  0  0  0  0  0
    3.9705   16.0381    4.2196 N   0  0  0  0  0  0  0  0  0  0  0  0
    4.9910   16.7372    3.6136 C   0  0  0  0  0  0  0  0  0  0  0  0
    5.3619   16.4997    2.4670 O   0  0  0  0  0  0  0  0  0  0  0  0
    5.5825   17.7592    4.4514 C   0  0  0  0  0  0  0  0  0  0  0  0
    5.3952   18.0622    5.7867 C   0  0  0  0  0  0  0  0  0  0  0  0
    6.2343   19.1643    6.0774 C   0  0  0  0  0  0  0  0  0  0  0  0
    6.8843   19.4695    4.9054 C   0  0  0  0  0  0  0  0  0  0  0  0
    6.5007   18.6259    3.9126 O   0  0  0  0  0  0  0  0  0  0  0  0
   -0.1214   14.7315    3.0657 H   0  0  0  0  0  0  0  0  0  0  0  0
    3.7143   16.3542    5.1493 H   0  0  0  0  0  0  0  0  0  0  0  0
  2  1  1  1  0  0  0
  2  3  1  0  0  0  0
  2  5  1  0  0  0  0
  3  4  1  0  0  0  0
  4 13  1  0  0  0  0
  5  6  1  0  0  0  0
  5 14  1  0  0  0  0
  6  7  2  0  0  0  0
  6  8  1  0  0  0  0
  8  9  2  0  0  0  0
  8 12  1  0  0  0  0
  9 10  1  0  0  0  0
 10 11  2  0  0  0  0
 11 12  1  0  0  0  0
M  END
>  <CHROM.0>
-60.60222741,-63.14182083,-68.18119329,-45.84351394,-59.75352096,-64.96696949
-68.42827159,-61.07596797,-168.35084514

>  <CHROM.1>
-65.51339178,103.46907697,-178.37067328,7.48784753,4.41506856,16.64944626
4.07898166,-2.49887292,0.51996914,0.93416400

>  <Name>
P29352675

>  <RI>
3.4169e+07

>  <Rbt.Current_Directory>
/home/fstefaniak/projects/zuza/docking/adenine/4XNR

>  <Rbt.Executable>
rbdock ($Id: //depot/dev/client3/rdock/2013.1/src/exe/rbdock.cxx#4 $)

>  <Rbt.Library>
libRbt.so (2013.1, Build901 2013/11/27)

>  <Rbt.Parameter_File>
/home/fstefaniak/progs/rDock//data/scripts/dock_solv.prm

>  <Rbt.Receptor>
4xnr.prm

>  <SCORE>
-53.2394

>  <SCORE.INTER>
-34.6752

>  <SCORE.INTER.CONST>
1

>  <SCORE.INTER.POLAR>
-3.7475

>  <SCORE.INTER.ROT>
3

>  <SCORE.INTER.SOLV>
11.5933

>  <SCORE.INTER.VDW>
-20.0896

>  <SCORE.INTER.norm>
-2.8896

>  <SCORE.INTRA>
2.3587

>  <SCORE.INTRA.DIHEDRAL>
-0.374589

>  <SCORE.INTRA.DIHEDRAL.0>
2.25017

>  <SCORE.INTRA.POLAR>
1.13198

>  <SCORE.INTRA.POLAR.0>
-1.13198

>  <SCORE.INTRA.REPUL>
0

>  <SCORE.INTRA.REPUL.0>
0

>  <SCORE.INTRA.SOLV>
-1.70514

>  <SCORE.INTRA.SOLV.lig_0>
-16.5325

>  <SCORE.INTRA.VDW>
-0.450171

>  <SCORE.INTRA.VDW.0>
-0.366351

>  <SCORE.INTRA.norm>
0.196558

>  <SCORE.RESTR>
0

>  <SCORE.RESTR.CAVITY>
0

>  <SCORE.RESTR.norm>
0

>  <SCORE.SYSTEM>
-20.9229

>  <SCORE.SYSTEM.CONST>
0

>  <SCORE.SYSTEM.DIHEDRAL>
4.44262

>  <SCORE.SYSTEM.POLAR>
-2.9844

>  <SCORE.SYSTEM.SOLV>
0.268549

>  <SCORE.SYSTEM.VDW>
-5.57097

>  <SCORE.SYSTEM.norm>
-1.74357

>  <SCORE.heavy>
12

>  <SCORE.norm>
-4.43661

$$$$
P29352675
 OpenBabel12072022113D
libRbt.so/2013.1/901 2013/11/27
 14 14  0  0  0  0  0  0  0  0999 V2000
    3.5131   13.6336    4.0094 C   0  0  0  0  0  0  0  0  0  0  0  0
    3.1337   15.0513    3.5866 C   0  0  1  0  0  0  0  0  0  0  0  0
    1.6250   15.3354    3.7482 C   0  0  0  0  0  0  0  0  0  0  0  0
    0.8049   14.5227    2.9171 O   0  0  0  0  0  0  0  0  0  0  0  0
    3.9878   16.0428    4.2387 N   0  0  0  0  0  0  0  0  0  0  0  0
    5.0587   16.6832    3.6553 C   0  0  0  0  0  0  0  0  0  0  0  0
    5.4620   16.4007    2.5300 O   0  0  0  0  0  0  0  0  0  0  0  0
    5.6610   17.7017    4.4898 C   0  0  0  0  0  0  0  0  0  0  0  0
    5.4561   18.0293    5.8167 C   0  0  0  0  0  0  0  0  0  0  0  0
    6.3184   19.1132    6.1079 C   0  0  0  0  0  0  0  0  0  0  0  0
    6.9987   19.3839    4.9446 C   0  0  0  0  0  0  0  0  0  0  0  0
    6.6119   18.5359    3.9567 O   0  0  0  0  0  0  0  0  0  0  0  0
   -0.1269   14.7722    3.1054 H   0  0  0  0  0  0  0  0  0  0  0  0
    3.7106   16.3933    5.1498 H   0  0  0  0  0  0  0  0  0  0  0  0
  2  1  1  1  0  0  0
  2  3  1  0  0  0  0
  2  5  1  0  0  0  0
  3  4  1  0  0  0  0
  4 13  1  0  0  0  0
  5  6  1  0  0  0  0
  5 14  1  0  0  0  0
  6  7  2  0  0  0  0
  6  8  1  0  0  0  0
  8  9  2  0  0  0  0
  8 12  1  0  0  0  0
  9 10  1  0  0  0  0
 10 11  2  0  0  0  0
 11 12  1  0  0  0  0
M  END
>  <CHROM.0>
-58.87155375,-62.52139014,-66.48281167,-44.88968073,-59.57699071,-62.40310414
-69.51254732,-59.99293009,-167.84735411

>  <CHROM.1>
-63.49433207,101.09775980,179.20025785,8.99693767,4.46324208,16.62361297
4.10890373,-2.49054821,0.46464209,0.89294136

>  <Name>
P29352675

>  <RI>
3.4169e+07

>  <Rbt.Current_Directory>
/home/fstefaniak/projects/zuza/docking/adenine/4XNR

>  <Rbt.Executable>
rbdock ($Id: //depot/dev/client3/rdock/2013.1/src/exe/rbdock.cxx#4 $)

>  <Rbt.Library>
libRbt.so (2013.1, Build901 2013/11/27)

>  <Rbt.Parameter_File>
/home/fstefaniak/progs/rDock//data/scripts/dock_solv.prm

>  <Rbt.Receptor>
4xnr.prm

>  <SCORE>
-53.0959

>  <SCORE.INTER>
-34.616

>  <SCORE.INTER.CONST>
1

>  <SCORE.INTER.POLAR>
-3.72396

>  <SCORE.INTER.ROT>
3

>  <SCORE.INTER.SOLV>
11.6657

>  <SCORE.INTER.VDW>
-20.1527

>  <SCORE.INTER.norm>
-2.88467

>  <SCORE.INTRA>
2.40184

>  <SCORE.INTRA.DIHEDRAL>
-0.341501

>  <SCORE.INTRA.DIHEDRAL.0>
2.25017

>  <SCORE.INTRA.POLAR>
1.13198

>  <SCORE.INTRA.POLAR.0>
-1.13198

>  <SCORE.INTRA.REPUL>
0

>  <SCORE.INTRA.REPUL.0>
0

>  <SCORE.INTRA.SOLV>
-1.70056

>  <SCORE.INTRA.SOLV.lig_0>
-16.5325

>  <SCORE.INTRA.VDW>
-0.425865

>  <SCORE.INTRA.VDW.0>
-0.366351

>  <SCORE.INTRA.norm>
0.200153

>  <SCORE.RESTR>
0

>  <SCORE.RESTR.CAVITY>
0

>  <SCORE.RESTR.norm>
0

>  <SCORE.SYSTEM>
-20.8817

>  <SCORE.SYSTEM.CONST>
0

>  <SCORE.SYSTEM.DIHEDRAL>
4.48676

>  <SCORE.SYSTEM.POLAR>
-3.01423

>  <SCORE.SYSTEM.SOLV>
0.280375

>  <SCORE.SYSTEM.VDW>
-5.46275

>  <SCORE.SYSTEM.norm>
-1.74014

>  <SCORE.heavy>
12

>  <SCORE.norm>
-4.42465

$$$$
P29568059
 OpenBabel12072022113D
libRbt.so/2013.1/901 2013/11/27
 13 13  0  0  0  0  0  0  0  0999 V2000
    5.1699   17.5371    4.3654 C   0  0  0  0  0  0  0  0  0  0  0  0
    4.3045   16.4500    3.2532 S   0  0  0  0  0  0  0  0  0  0  0  0
    3.4410   17.2516    2.4130 O   0  0  0  0  0  0  0  0  0  0  0  0
    5.2894   15.5619    2.6735 O   0  0  0  0  0  0  0  0  0  0  0  0
    3.3382   15.5809    4.3445 N   0  0  0  0  0  0  0  0  0  0  0  0
    1.9038   15.9539    4.4207 C   0  0  0  0  0  0  0  0  0  0  0  0
    1.0603   15.1621    3.4251 C   0  0  0  0  0  0  0  0  0  0  0  0
    1.3028   13.6606    3.5339 C   0  0  0  0  0  0  0  0  0  0  0  0
    2.7965   13.3466    3.4612 C   0  0  0  0  0  0  0  0  0  0  0  0
    3.6205   14.1492    4.4767 C   0  0  2  0  0  0  0  0  0  0  0  0
    3.3672   13.7249    5.8473 N   0  0  0  0  0  0  0  0  0  0  0  0
    3.1250   14.5434    6.4021 H   0  0  0  0  0  0  0  0  0  0  0  0
    4.2158   13.3487    6.2547 H   0  0  0  0  0  0  0  0  0  0  0  0
  1  2  1  0  0  0  0
  2  3  2  0  0  0  0
  2  4  2  0  0  0  0
  2  5  1  0  0  0  0
  5  6  1  0  0  0  0
  5 10  1  0  0  0  0
  6  7  1  0  0  0  0
  7  8  1  0  0  0  0
  8  9  1  0  0  0  0
  9 10  1  0  0  0  0
 10 11  1  1  0  0  0
 11 12  1  0  0  0  0
 11 13  1  0  0  0  0
M  END
>  <CHROM.0>
-61.10463330,-167.43744390,-67.84637382,-43.49064602,-175.89765242,-176.47314335
-66.33333788,-172.68777640,-167.83394358

>  <CHROM.1>
103.14356452,-4.43644813,3.38258191,15.45102511,3.77715009,-0.83378410,0.31857095
2.55401960

>  <Name>
P29568059

>  <RI>
3.4169e+07

>  <Rbt.Current_Directory>
/home/fstefaniak/projects/zuza/docking/adenine/4XNR

>  <Rbt.Executable>
rbdock ($Id: //depot/dev/client3/rdock/2013.1/src/exe/rbdock.cxx#4 $)

>  <Rbt.Library>
libRbt.so (2013.1, Build901 2013/11/27)

>  <Rbt.Parameter_File>
/home/fstefaniak/progs/rDock//data/scripts/dock_solv.prm

>  <Rbt.Receptor>
4xnr.prm

>  <SCORE>
-43.7032

>  <SCORE.INTER>
-24.9319

>  <SCORE.INTER.CONST>
1

>  <SCORE.INTER.POLAR>
-3.37065

>  <SCORE.INTER.ROT>
2

>  <SCORE.INTER.SOLV>
10.6339

>  <SCORE.INTER.VDW>
-13.8638

>  <SCORE.INTER.norm>
-2.26654

>  <SCORE.INTRA>
1.43161

>  <SCORE.INTRA.DIHEDRAL>
3.24903

>  <SCORE.INTRA.DIHEDRAL.0>
1.23488

>  <SCORE.INTRA.POLAR>
0

>  <SCORE.INTRA.POLAR.0>
0

>  <SCORE.INTRA.REPUL>
0

>  <SCORE.INTRA.REPUL.0>
0

>  <SCORE.INTRA.SOLV>
0.0695544

>  <SCORE.INTRA.SOLV.lig_0>
-11.9379

>  <SCORE.INTRA.VDW>
-0.227688

>  <SCORE.INTRA.VDW.0>
-0.572882

>  <SCORE.INTRA.norm>
0.130146

>  <SCORE.RESTR>
0

>  <SCORE.RESTR.CAVITY>
0

>  <SCORE.RESTR.norm>
0

>  <SCORE.SYSTEM>
-20.2029

>  <SCORE.SYSTEM.CONST>
0

>  <SCORE.SYSTEM.DIHEDRAL>
5.58819

>  <SCORE.SYSTEM.POLAR>
-3.02192

>  <SCORE.SYSTEM.SOLV>
-0.163377

>  <SCORE.SYSTEM.VDW>
-5.20379

>  <SCORE.SYSTEM.norm>
-1.83662

>  <SCORE.heavy>
11

>  <SCORE.norm>
-3.97302

$$$$
P29568059
 OpenBabel12072022113D
libRbt.so/2013.1/901 2013/11/27
 13 13  0  0  0  0  0  0  0  0999 V2000
    5.1431   17.5697    4.3726 C   0  0  0  0  0  0  0  0  0  0  0  0
    4.3040   16.4616    3.2610 S   0  0  0  0  0  0  0  0  0  0  0  0
    3.4366   17.2439    2.4069 O   0  0  0  0  0  0  0  0  0  0  0  0
    5.3071   15.5837    2.6972 O   0  0  0  0  0  0  0  0  0  0  0  0
    3.3406   15.5866    4.3502 N   0  0  0  0  0  0  0  0  0  0  0  0
    1.9056   15.9565    4.4294 C   0  0  0  0  0  0  0  0  0  0  0  0
    1.0625   15.1667    3.4318 C   0  0  0  0  0  0  0  0  0  0  0  0
    1.3080   13.6653    3.5349 C   0  0  0  0  0  0  0  0  0  0  0  0
    2.8023   13.3545    3.4595 C   0  0  0  0  0  0  0  0  0  0  0  0
    3.6258   14.1550    4.4770 C   0  0  2  0  0  0  0  0  0  0  0  0
    3.3749   13.7253    5.8463 N   0  0  0  0  0  0  0  0  0  0  0  0
    3.1387   14.5422    6.4059 H   0  0  0  0  0  0  0  0  0  0  0  0
    4.2228   13.3427    6.2490 H   0  0  0  0  0  0  0  0  0  0  0  0
  1  2  1  0  0  0  0
  2  3  2  0  0  0  0
  2  4  2  0  0  0  0
  2  5  1  0  0  0  0
  5  6  1  0  0  0  0
  5 10  1  0  0  0  0
  6  7  1  0  0  0  0
  7  8  1  0  0  0  0
  8  9  1  0  0  0  0
  9 10  1  0  0  0  0
 10 11  1  1  0  0  0
 11 12  1  0  0  0  0
 11 13  1  0  0  0  0
M  END
>  <CHROM.0>
-59.99412274,-164.38242199,-64.63991903,-46.50560654,-61.95494375,-63.54343732
-67.77637385,60.56736646,-168.09072864

>  <CHROM.1>
102.00630587,-4.86851747,3.38391833,15.45954961,3.78227372,-0.83719425,0.31900601
2.55879575

>  <Name>
P29568059

>  <RI>
3.4169e+07

>  <Rbt.Current_Directory>
/home/fstefaniak/projects/zuza/docking/adenine/4XNR

>  <Rbt.Executable>
rbdock ($Id: //depot/dev/client3/rdock/2013.1/src/exe/rbdock.cxx#4 $)

>  <Rbt.Library>
libRbt.so (2013.1, Build901 2013/11/27)

>  <Rbt.Parameter_File>
/home/fstefaniak/progs/rDock//data/scripts/dock_solv.prm

>  <Rbt.Receptor>
4xnr.prm

>  <SCORE>
-43.1684

>  <SCORE.INTER>
-25.193

>  <SCORE.INTER.CONST>
1

>  <SCORE.INTER.POLAR>
-3.39615

>  <SCORE.INTER.ROT>
2

>  <SCORE.INTER.SOLV>
10.6455

>  <SCORE.INTER.VDW>
-13.9567

>  <SCORE.INTER.norm>
-2.29027

>  <SCORE.INTRA>
1.41325

>  <SCORE.INTRA.DIHEDRAL>
3.22636

>  <SCORE.INTRA.DIHEDRAL.0>
1.23488

>  <SCORE.INTRA.POLAR>
0

>  <SCORE.INTRA.POLAR.0>
0

>  <SCORE.INTRA.REPUL>
0

>  <SCORE.INTRA.REPUL.0>
0

>  <SCORE.INTRA.SOLV>
0.0679202

>  <SCORE.INTRA.SOLV.lig_0>
-11.9379

>  <SCORE.INTRA.VDW>
-0.233886

>  <SCORE.INTRA.VDW.0>
-0.572882

>  <SCORE.INTRA.norm>
0.128478

>  <SCORE.RESTR>
0

>  <SCORE.RESTR.CAVITY>
0

>  <SCORE.RESTR.norm>
0

>  <SCORE.SYSTEM>
-19.3887

>  <SCORE.SYSTEM.CONST>
0

>  <SCORE.SYSTEM.DIHEDRAL>
5.16002

>  <SCORE.SYSTEM.POLAR>
-2.98429

>  <SCORE.SYSTEM.SOLV>
0.0748735

>  <SCORE.SYSTEM.VDW>
-4.72312

>  <SCORE.SYSTEM.norm>
-1.76261

>  <SCORE.heavy>
11

>  <SCORE.norm>
-3.9244

$$$$
P29568059
 OpenBabel12072022113D
libRbt.so/2013.1/901 2013/11/27
 13 13  0  0  0  0  0  0  0  0999 V2000
    5.0386   17.3819    4.5183 C   0  0  0  0  0  0  0  0  0  0  0  0
    4.1578   16.3334    3.3814 S   0  0  0  0  0  0  0  0  0  0  0  0
    3.2853   17.1634    2.5790 O   0  0  0  0  0  0  0  0  0  0  0  0
    5.1339   15.4637    2.7605 O   0  0  0  0  0  0  0  0  0  0  0  0
    3.2035   15.4297    4.4552 N   0  0  0  0  0  0  0  0  0  0  0  0
    1.7406   15.6777    4.4303 C   0  0  0  0  0  0  0  0  0  0  0  0
    1.0311   14.7729    3.4264 C   0  0  0  0  0  0  0  0  0  0  0  0
    1.3938   13.3046    3.6208 C   0  0  0  0  0  0  0  0  0  0  0  0
    2.9105   13.1208    3.6499 C   0  0  0  0  0  0  0  0  0  0  0  0
    3.5984   14.0355    4.6719 C   0  0  2  0  0  0  0  0  0  0  0  0
    3.2980   13.6493    6.0443 N   0  0  0  0  0  0  0  0  0  0  0  0
    4.0740   13.0980    6.4048 H   0  0  0  0  0  0  0  0  0  0  0  0
    2.4872   13.0412    6.0623 H   0  0  0  0  0  0  0  0  0  0  0  0
  1  2  1  0  0  0  0
  2  3  2  0  0  0  0
  2  4  2  0  0  0  0
  2  5  1  0  0  0  0
  5  6  1  0  0  0  0
  5 10  1  0  0  0  0
  6  7  1  0  0  0  0
  7  8  1  0  0  0  0
  8  9  1  0  0  0  0
  9 10  1  0  0  0  0
 10 11  1  1  0  0  0
 11 12  1  0  0  0  0
 11 13  1  0  0  0  0
M  END
>  <CHROM.0>
-56.26458580,-42.97584901,-66.37451578,-45.90090112,-59.74857016,58.90839086
-63.99955024,-60.85367086,-167.96612994

>  <CHROM.1>
111.08908698,-138.25035481,3.29612404,15.26604248,3.89573082,-0.88295755
0.39566004,2.54019806

>  <Name>
P29568059

>  <RI>
3.4169e+07

>  <Rbt.Current_Directory>
/home/fstefaniak/projects/zuza/docking/adenine/4XNR

>  <Rbt.Executable>
rbdock ($Id: //depot/dev/client3/rdock/2013.1/src/exe/rbdock.cxx#4 $)

>  <Rbt.Library>
libRbt.so (2013.1, Build901 2013/11/27)

>  <Rbt.Parameter_File>
/home/fstefaniak/progs/rDock//data/scripts/dock_solv.prm

>  <Rbt.Receptor>
4xnr.prm

>  <SCORE>
-41.7644

>  <SCORE.INTER>
-25.0311

>  <SCORE.INTER.CONST>
1

>  <SCORE.INTER.POLAR>
-3.12196

>  <SCORE.INTER.ROT>
2

>  <SCORE.INTER.SOLV>
10.3019

>  <SCORE.INTER.VDW>
-14.6482

>  <SCORE.INTER.norm>
-2.27556

>  <SCORE.INTRA>
1.95897

>  <SCORE.INTRA.DIHEDRAL>
2.90091

>  <SCORE.INTRA.DIHEDRAL.0>
1.23488

>  <SCORE.INTRA.POLAR>
0

>  <SCORE.INTRA.POLAR.0>
0

>  <SCORE.INTRA.REPUL>
0

>  <SCORE.INTRA.REPUL.0>
0

>  <SCORE.INTRA.SOLV>
-0.00238517

>  <SCORE.INTRA.SOLV.lig_0>
-11.9379

>  <SCORE.INTRA.VDW>
0.509707

>  <SCORE.INTRA.VDW.0>
-0.572882

>  <SCORE.INTRA.norm>
0.178088

>  <SCORE.RESTR>
0

>  <SCORE.RESTR.CAVITY>
0

>  <SCORE.RESTR.norm>
0

>  <SCORE.SYSTEM>
-18.6922

>  <SCORE.SYSTEM.CONST>
0

>  <SCORE.SYSTEM.DIHEDRAL>
5.32433

>  <SCORE.SYSTEM.POLAR>
-3.02031

>  <SCORE.SYSTEM.SOLV>
0.238136

>  <SCORE.SYSTEM.VDW>
-4.24795

>  <SCORE.SYSTEM.norm>
-1.69929

>  <SCORE.heavy>
11

>  <SCORE.norm>
-3.79676

$$$$
P30393900
 OpenBabel12072022113D
libRbt.so/2013.1/901 2013/11/27
 14 14  0  0  0  0  0  0  0  0999 V2000
    5.7313   18.9352    6.9201 C   0  0  0  0  0  0  0  0  0  0  0  0
    6.3552   18.2586    5.7024 C   0  0  2  0  0  0  0  0  0  0  0  0
    7.6993   18.9427    5.3412 C   0  0  0  0  0  0  0  0  0  0  0  0
    7.9158   19.5691    4.3097 O   0  0  0  0  0  0  0  0  0  0  0  0
    8.6567   18.8446    6.3169 N   0  0  0  0  0  0  0  0  0  0  0  0
    5.5278   18.1575    4.4744 N   0  0  0  0  0  0  0  0  0  0  0  0
    6.2932   17.9183    3.2392 C   0  0  0  0  0  0  0  0  0  0  0  0
    6.4962   16.4429    2.8302 C   0  0  0  0  0  0  0  0  0  0  0  0
    5.2480   15.6727    2.8294 N   0  0  0  0  0  0  0  0  0  0  0  0
    4.5836   15.7958    4.1315 C   0  0  0  0  0  0  0  0  0  0  0  0
    4.3585   17.2637    4.5607 C   0  0  0  0  0  0  0  0  0  0  0  0
    8.8133   19.6774    6.8758 H   0  0  0  0  0  0  0  0  0  0  0  0
    8.7811   17.9401    6.7484 H   0  0  0  0  0  0  0  0  0  0  0  0
    5.4516   14.6919    2.6426 H   0  0  0  0  0  0  0  0  0  0  0  0
  2  3  1  0  0  0  0
  2  6  1  0  0  0  0
  2  1  1  1  0  0  0
  3  4  2  0  0  0  0
  3  5  1  0  0  0  0
  5 12  1  0  0  0  0
  5 13  1  0  0  0  0
  6  7  1  0  0  0  0
  6 11  1  0  0  0  0
  7  8  1  0  0  0  0
  8  9  1  0  0  0  0
  9 10  1  0  0  0  0
  9 14  1  0  0  0  0
 10 11  1  0  0  0  0
M  END
>  <CHROM.0>
-59.95439677,-60.03696890,-70.99899690,-44.84800029,-56.86383951,-67.05896353
-172.78654378,-64.94777446,-168.18113168

>  <CHROM.1>
-114.52516665,160.75794386,-103.21928396,6.28607925,17.80509758,4.61545224
0.90454008,0.47165716,1.04796367

>  <Name>
P30393900

>  <RI>
1.00763e+07

>  <Rbt.Current_Directory>
/home/fstefaniak/projects/zuza/docking/adenine/4XNR

>  <Rbt.Executable>
rbdock ($Id: //depot/dev/client3/rdock/2013.1/src/exe/rbdock.cxx#4 $)

>  <Rbt.Library>
libRbt.so (2013.1, Build901 2013/11/27)

>  <Rbt.Parameter_File>
/home/fstefaniak/progs/rDock//data/scripts/dock_solv.prm

>  <Rbt.Receptor>
4xnr.prm

>  <SCORE>
-43.1983

>  <SCORE.INTER>
-25.708

>  <SCORE.INTER.CONST>
1

>  <SCORE.INTER.POLAR>
-4.93761

>  <SCORE.INTER.ROT>
3

>  <SCORE.INTER.SOLV>
14.9037

>  <SCORE.INTER.VDW>
-11.2479

>  <SCORE.INTER.norm>
-2.33709

>  <SCORE.INTRA>
2.71947

>  <SCORE.INTRA.DIHEDRAL>
-0.0366399

>  <SCORE.INTRA.DIHEDRAL.0>
1.73585

>  <SCORE.INTRA.POLAR>
0.0912391

>  <SCORE.INTRA.POLAR.0>
-0.0912391

>  <SCORE.INTRA.REPUL>
0

>  <SCORE.INTRA.REPUL.0>
0

>  <SCORE.INTRA.SOLV>
-0.21583

>  <SCORE.INTRA.SOLV.lig_0>
-15.622

>  <SCORE.INTRA.VDW>
2.53549

>  <SCORE.INTRA.VDW.0>
1.25119

>  <SCORE.INTRA.norm>
0.247224

>  <SCORE.RESTR>
0

>  <SCORE.RESTR.CAVITY>
0

>  <SCORE.RESTR.norm>
0

>  <SCORE.SYSTEM>
-20.2098

>  <SCORE.SYSTEM.CONST>
0

>  <SCORE.SYSTEM.DIHEDRAL>
4.95064

>  <SCORE.SYSTEM.POLAR>
-3.00346

>  <SCORE.SYSTEM.SOLV>
0.220025

>  <SCORE.SYSTEM.VDW>
-5.18526

>  <SCORE.SYSTEM.norm>
-1.83726

>  <SCORE.heavy>
11

>  <SCORE.norm>
-3.92712

$$$$
P30393900
 OpenBabel12072022113D
libRbt.so/2013.1/901 2013/11/27
 14 14  0  0  0  0  0  0  0  0999 V2000
    5.7212   18.9120    6.9096 C   0  0  0  0  0  0  0  0  0  0  0  0
    6.3528   18.2418    5.6924 C   0  0  2  0  0  0  0  0  0  0  0  0
    7.7025   18.9233    5.3475 C   0  0  0  0  0  0  0  0  0  0  0  0
    7.9409   19.5274    4.3076 O   0  0  0  0  0  0  0  0  0  0  0  0
    8.6370   18.8511    6.3474 N   0  0  0  0  0  0  0  0  0  0  0  0
    5.5355   18.1527    4.4567 N   0  0  0  0  0  0  0  0  0  0  0  0
    6.3075   17.8897    3.2306 C   0  0  0  0  0  0  0  0  0  0  0  0
    6.4812   16.4079    2.8312 C   0  0  0  0  0  0  0  0  0  0  0  0
    5.2161   15.6659    2.8219 N   0  0  0  0  0  0  0  0  0  0  0  0
    4.5418   15.8109    4.1167 C   0  0  0  0  0  0  0  0  0  0  0  0
    4.3456   17.2858    4.5360 C   0  0  0  0  0  0  0  0  0  0  0  0
    8.7665   19.6922    6.9007 H   0  0  0  0  0  0  0  0  0  0  0  0
    8.7651   17.9533    6.7917 H   0  0  0  0  0  0  0  0  0  0  0  0
    5.3993   14.6798    2.6422 H   0  0  0  0  0  0  0  0  0  0  0  0
  2  3  1  0  0  0  0
  2  6  1  0  0  0  0
  2  1  1  1  0  0  0
  3  4  2  0  0  0  0
  3  5  1  0  0  0  0
  5 12  1  0  0  0  0
  5 13  1  0  0  0  0
  6  7  1  0  0  0  0
  6 11  1  0  0  0  0
  7  8  1  0  0  0  0
  8  9  1  0  0  0  0
  9 10  1  0  0  0  0
  9 14  1  0  0  0  0
 10 11  1  0  0  0  0
M  END
>  <CHROM.0>
-53.51882864,-62.09456607,-66.49470741,-46.44891676,-57.32662958,59.68567609
-65.62790028,-56.13573038,-168.94765826

>  <CHROM.1>
-116.47945199,162.04813611,-102.25817234,6.27810770,17.79303164,4.61059284
0.90300125,0.46212619,1.04987083

>  <Name>
P30393900

>  <RI>
1.00763e+07

>  <Rbt.Current_Directory>
/home/fstefaniak/projects/zuza/docking/adenine/4XNR

>  <Rbt.Executable>
rbdock ($Id: //depot/dev/client3/rdock/2013.1/src/exe/rbdock.cxx#4 $)

>  <Rbt.Library>
libRbt.so (2013.1, Build901 2013/11/27)

>  <Rbt.Parameter_File>
/home/fstefaniak/progs/rDock//data/scripts/dock_solv.prm

>  <Rbt.Receptor>
4xnr.prm

>  <SCORE>
-42.7603

>  <SCORE.INTER>
-25.753

>  <SCORE.INTER.CONST>
1

>  <SCORE.INTER.POLAR>
-5.00521

>  <SCORE.INTER.ROT>
3

>  <SCORE.INTER.SOLV>
14.8692

>  <SCORE.INTER.VDW>
-11.041

>  <SCORE.INTER.norm>
-2.34118

>  <SCORE.INTRA>
2.64899

>  <SCORE.INTRA.DIHEDRAL>
-0.0988509

>  <SCORE.INTRA.DIHEDRAL.0>
1.73585

>  <SCORE.INTRA.POLAR>
0.0912391

>  <SCORE.INTRA.POLAR.0>
-0.0912391

>  <SCORE.INTRA.REPUL>
0

>  <SCORE.INTRA.REPUL.0>
0

>  <SCORE.INTRA.SOLV>
-0.221597

>  <SCORE.INTRA.SOLV.lig_0>
-15.622

>  <SCORE.INTRA.VDW>
2.499

>  <SCORE.INTRA.VDW.0>
1.25119

>  <SCORE.INTRA.norm>
0.240817

>  <SCORE.RESTR>
0

>  <SCORE.RESTR.CAVITY>
0

>  <SCORE.RESTR.norm>
0

>  <SCORE.SYSTEM>
-19.6563

>  <SCORE.SYSTEM.CONST>
0

>  <SCORE.SYSTEM.DIHEDRAL>
4.17012

>  <SCORE.SYSTEM.POLAR>
-3.02876

>  <SCORE.SYSTEM.SOLV>
0.178845

>  <SCORE.SYSTEM.VDW>
-4.45801

>  <SCORE.SYSTEM.norm>
-1.78694

>  <SCORE.heavy>
11

>  <SCORE.norm>
-3.8873

$$$$
P30393900
 OpenBabel12072022113D
libRbt.so/2013.1/901 2013/11/27
 14 14  0  0  0  0  0  0  0  0999 V2000
    5.7251   18.9716    6.8990 C   0  0  0  0  0  0  0  0  0  0  0  0
    6.3546   18.2815    5.6918 C   0  0  2  0  0  0  0  0  0  0  0  0
    7.7147   18.9423    5.3478 C   0  0  0  0  0  0  0  0  0  0  0  0
    7.9632   19.5420    4.3077 O   0  0  0  0  0  0  0  0  0  0  0  0
    8.6471   18.8568    6.3486 N   0  0  0  0  0  0  0  0  0  0  0  0
    5.5429   18.1907    4.4526 N   0  0  0  0  0  0  0  0  0  0  0  0
    6.3195   17.9184    3.2314 C   0  0  0  0  0  0  0  0  0  0  0  0
    6.4879   16.4340    2.8396 C   0  0  0  0  0  0  0  0  0  0  0  0
    5.2193   15.6982    2.8275 N   0  0  0  0  0  0  0  0  0  0  0  0
    4.5394   15.8524    4.1183 C   0  0  0  0  0  0  0  0  0  0  0  0
    4.3484   17.3301    4.5300 C   0  0  0  0  0  0  0  0  0  0  0  0
    8.8006   19.7012    6.8908 H   0  0  0  0  0  0  0  0  0  0  0  0
    8.7497   17.9617    6.8048 H   0  0  0  0  0  0  0  0  0  0  0  0
    5.3986   14.7104    2.6532 H   0  0  0  0  0  0  0  0  0  0  0  0
  2  3  1  0  0  0  0
  2  6  1  0  0  0  0
  2  1  1  1  0  0  0
  3  4  2  0  0  0  0
  3  5  1  0  0  0  0
  5 12  1  0  0  0  0
  5 13  1  0  0  0  0
  6  7  1  0  0  0  0
  6 11  1  0  0  0  0
  7  8  1  0  0  0  0
  8  9  1  0  0  0  0
  9 10  1  0  0  0  0
  9 14  1  0  0  0  0
 10 11  1  0  0  0  0
M  END
>  <CHROM.0>
-54.39053512,-62.45883997,59.13924456,-48.07837015,-61.81633722,-66.23284161
53.37251960,-65.13530714,-168.30009167

>  <CHROM.1>
-115.88826228,161.50500960,-103.30933130,6.28552373,17.82459412,4.61036159
0.90442978,0.44956865,1.04231499

>  <Name>
P30393900

>  <RI>
1.00763e+07

>  <Rbt.Current_Directory>
/home/fstefaniak/projects/zuza/docking/adenine/4XNR

>  <Rbt.Executable>
rbdock ($Id: //depot/dev/client3/rdock/2013.1/src/exe/rbdock.cxx#4 $)

>  <Rbt.Library>
libRbt.so (2013.1, Build901 2013/11/27)

>  <Rbt.Parameter_File>
/home/fstefaniak/progs/rDock//data/scripts/dock_solv.prm

>  <Rbt.Receptor>
4xnr.prm

>  <SCORE>
-41.9527

>  <SCORE.INTER>
-25.753

>  <SCORE.INTER.CONST>
1

>  <SCORE.INTER.POLAR>
-4.98311

>  <SCORE.INTER.ROT>
3

>  <SCORE.INTER.SOLV>
14.8818

>  <SCORE.INTER.VDW>
-11.1189

>  <SCORE.INTER.norm>
-2.34118

>  <SCORE.INTRA>
2.71673

>  <SCORE.INTRA.DIHEDRAL>
-0.0758578

>  <SCORE.INTRA.DIHEDRAL.0>
1.73585

>  <SCORE.INTRA.POLAR>
0.0912391

>  <SCORE.INTRA.POLAR.0>
-0.0912391

>  <SCORE.INTRA.REPUL>
0

>  <SCORE.INTRA.REPUL.0>
0

>  <SCORE.INTRA.SOLV>
-0.218357

>  <SCORE.INTRA.SOLV.lig_0>
-15.622

>  <SCORE.INTRA.VDW>
2.55362

>  <SCORE.INTRA.VDW.0>
1.25119

>  <SCORE.INTRA.norm>
0.246975

>  <SCORE.RESTR>
0

>  <SCORE.RESTR.CAVITY>
0

>  <SCORE.RESTR.norm>
0

>  <SCORE.SYSTEM>
-18.9164

>  <SCORE.SYSTEM.CONST>
0

>  <SCORE.SYSTEM.DIHEDRAL>
4.08502

>  <SCORE.SYSTEM.POLAR>
-2.98442

>  <SCORE.SYSTEM.SOLV>
0.172278

>  <SCORE.SYSTEM.VDW>
-4.08197

>  <SCORE.SYSTEM.norm>
-1.71967

>  <SCORE.heavy>
11

>  <SCORE.norm>
-3.81388

$$$$
P32736201
 OpenBabel12072022113D
libRbt.so/2013.1/901 2013/11/27
 12 12  0  0  0  0  0  0  0  0999 V2000
    5.6033   16.6455    3.7864 C   0  0  0  0  0  0  0  0  0  0  0  0
    5.3291   18.0988    4.1480 C   0  0  2  0  0  0  0  0  0  0  0  0
    6.3896   19.1149    3.6992 C   0  0  1  0  0  0  0  0  0  0  0  0
    7.2649   19.2658    4.9268 C   0  0  1  0  0  0  0  0  0  0  0  0
    6.2355   19.1020    6.0463 C   0  0  1  0  0  0  0  0  0  0  0  0
    5.2296   18.1970    5.5817 O   0  0  0  0  0  0  0  0  0  0  0  0
    6.8367   18.6073    7.2265 O   0  0  0  0  0  0  0  0  0  0  0  0
    8.2475   18.2122    4.9724 O   0  0  0  0  0  0  0  0  0  0  0  0
    7.1375   18.7496    2.5480 O   0  0  0  0  0  0  0  0  0  0  0  0
    7.3549   17.8369    6.9233 H   0  0  0  0  0  0  0  0  0  0  0  0
    8.5336   18.0728    4.0500 H   0  0  0  0  0  0  0  0  0  0  0  0
    6.4937   18.5274    1.8497 H   0  0  0  0  0  0  0  0  0  0  0  0
  2  3  1  0  0  0  0
  2  6  1  0  0  0  0
  2  1  1  1  0  0  0
  3  4  1  0  0  0  0
  3  9  1  6  0  0  0
  4  8  1  1  0  0  0
  4  5  1  0  0  0  0
  5  6  1  0  0  0  0
  5  7  1  1  0  0  0
  7 10  1  0  0  0  0
  8 11  1  0  0  0  0
  9 12  1  0  0  0  0
M  END
>  <CHROM.0>
-177.21917684,-173.71419654,171.54669849,-46.27175903,-175.78765458,-61.40999011
49.53651888,-176.59200159,-168.59320928

>  <CHROM.1>
52.76157969,38.50453444,-49.47222713,6.51844602,18.40973075,4.77231631,1.62329851
-0.45655870,-1.68008596

>  <Name>
P32736201

>  <RI>
3.51561e+07

>  <Rbt.Current_Directory>
/home/fstefaniak/projects/zuza/docking/adenine/4XNR

>  <Rbt.Executable>
rbdock ($Id: //depot/dev/client3/rdock/2013.1/src/exe/rbdock.cxx#4 $)

>  <Rbt.Library>
libRbt.so (2013.1, Build901 2013/11/27)

>  <Rbt.Parameter_File>
/home/fstefaniak/progs/rDock//data/scripts/dock_solv.prm

>  <Rbt.Receptor>
4xnr.prm

>  <SCORE>
-53.3981

>  <SCORE.INTER>
-36.6887

>  <SCORE.INTER.CONST>
1

>  <SCORE.INTER.POLAR>
-5.52268

>  <SCORE.INTER.ROT>
0

>  <SCORE.INTER.SOLV>
12.9481

>  <SCORE.INTER.VDW>
-13.9662

>  <SCORE.INTER.norm>
-4.07652

>  <SCORE.INTRA>
-1.78184

>  <SCORE.INTRA.DIHEDRAL>
-1.8068

>  <SCORE.INTRA.DIHEDRAL.0>
4.76642

>  <SCORE.INTRA.POLAR>
-0.136512

>  <SCORE.INTRA.POLAR.0>
-0.323118

>  <SCORE.INTRA.REPUL>
0

>  <SCORE.INTRA.REPUL.0>
0

>  <SCORE.INTRA.SOLV>
-0.0793215

>  <SCORE.INTRA.SOLV.lig_0>
-15.752

>  <SCORE.INTRA.VDW>
-0.374641

>  <SCORE.INTRA.VDW.0>
0.732915

>  <SCORE.INTRA.norm>
-0.197983

>  <SCORE.RESTR>
0

>  <SCORE.RESTR.CAVITY>
0

>  <SCORE.RESTR.norm>
0

>  <SCORE.SYSTEM>
-14.9276

>  <SCORE.SYSTEM.CONST>
0

>  <SCORE.SYSTEM.DIHEDRAL>
4.7545

>  <SCORE.SYSTEM.POLAR>
-2.3536

>  <SCORE.SYSTEM.SOLV>
-0.162959

>  <SCORE.SYSTEM.VDW>
-3.63689

>  <SCORE.SYSTEM.norm>
-1.65862

>  <SCORE.heavy>
9

>  <SCORE.norm>
-5.93312

$$$$
P32736201
 OpenBabel12072022113D
libRbt.so/2013.1/901 2013/11/27
 12 12  0  0  0  0  0  0  0  0999 V2000
    5.6185   16.6062    3.7795 C   0  0  0  0  0  0  0  0  0  0  0  0
    5.3224   18.0580    4.1297 C   0  0  2  0  0  0  0  0  0  0  0  0
    6.3752   19.0847    3.6867 C   0  0  1  0  0  0  0  0  0  0  0  0
    7.2350   19.2534    4.9228 C   0  0  1  0  0  0  0  0  0  0  0  0
    6.1955   19.0831    6.0320 C   0  0  1  0  0  0  0  0  0  0  0  0
    5.2060   18.1630    5.5617 O   0  0  0  0  0  0  0  0  0  0  0  0
    6.7898   18.6026    7.2215 O   0  0  0  0  0  0  0  0  0  0  0  0
    8.2300   18.2124    4.9852 O   0  0  0  0  0  0  0  0  0  0  0  0
    7.1401   18.7223    2.5458 O   0  0  0  0  0  0  0  0  0  0  0  0
    7.3337   17.8470    6.9260 H   0  0  0  0  0  0  0  0  0  0  0  0
    8.4951   18.0397    4.0621 H   0  0  0  0  0  0  0  0  0  0  0  0
    6.5068   18.5063    1.8361 H   0  0  0  0  0  0  0  0  0  0  0  0
  2  3  1  0  0  0  0
  2  6  1  0  0  0  0
  2  1  1  1  0  0  0
  3  4  1  0  0  0  0
  3  9  1  6  0  0  0
  4  8  1  1  0  0  0
  4  5  1  0  0  0  0
  5  6  1  0  0  0  0
  5  7  1  1  0  0  0
  7 10  1  0  0  0  0
  8 11  1  0  0  0  0
  9 12  1  0  0  0  0
M  END
>  <CHROM.0>
-58.51224309,-176.77132283,-66.63600863,-45.31805921,-55.83325570,-62.15677909
-71.49925888,-59.43648531,-168.35688371

>  <CHROM.1>
53.92731468,35.70438045,-48.47375257,6.50080858,18.38723453,4.76506628,1.60980104
-0.46783900,-1.69177376

>  <Name>
P32736201

>  <RI>
3.51561e+07

>  <Rbt.Current_Directory>
/home/fstefaniak/projects/zuza/docking/adenine/4XNR

>  <Rbt.Executable>
rbdock ($Id: //depot/dev/client3/rdock/2013.1/src/exe/rbdock.cxx#4 $)

>  <Rbt.Library>
libRbt.so (2013.1, Build901 2013/11/27)

>  <Rbt.Parameter_File>
/home/fstefaniak/progs/rDock//data/scripts/dock_solv.prm

>  <Rbt.Receptor>
4xnr.prm

>  <SCORE>
-52.9095

>  <SCORE.INTER>
-30.6161

>  <SCORE.INTER.CONST>
1

>  <SCORE.INTER.POLAR>
-4.35646

>  <SCORE.INTER.ROT>
0

>  <SCORE.INTER.SOLV>
12.9039

>  <SCORE.INTER.VDW>
-13.7905

>  <SCORE.INTER.norm>
-3.40179

>  <SCORE.INTRA>
-1.61991

>  <SCORE.INTRA.DIHEDRAL>
-1.32139

>  <SCORE.INTRA.DIHEDRAL.0>
4.76642

>  <SCORE.INTRA.POLAR>
-0.177173

>  <SCORE.INTRA.POLAR.0>
-0.323118

>  <SCORE.INTRA.REPUL>
0

>  <SCORE.INTRA.REPUL.0>
0

>  <SCORE.INTRA.SOLV>
-0.079315

>  <SCORE.INTRA.SOLV.lig_0>
-15.752

>  <SCORE.INTRA.VDW>
-0.317172

>  <SCORE.INTRA.VDW.0>
0.732915

>  <SCORE.INTRA.norm>
-0.17999

>  <SCORE.RESTR>
0

>  <SCORE.RESTR.CAVITY>
0

>  <SCORE.RESTR.norm>
0

>  <SCORE.SYSTEM>
-20.6735

>  <SCORE.SYSTEM.CONST>
0

>  <SCORE.SYSTEM.DIHEDRAL>
4.66833

>  <SCORE.SYSTEM.POLAR>
-3.01526

>  <SCORE.SYSTEM.SOLV>
0.258384

>  <SCORE.SYSTEM.VDW>
-5.37371

>  <SCORE.SYSTEM.norm>
-2.29706

>  <SCORE.heavy>
9

>  <SCORE.norm>
-5.87884

$$$$
P32736201
 OpenBabel12072022113D
libRbt.so/2013.1/901 2013/11/27
 12 12  0  0  0  0  0  0  0  0999 V2000
    5.6032   16.6330    3.7731 C   0  0  0  0  0  0  0  0  0  0  0  0
    5.3246   18.0862    4.1319 C   0  0  2  0  0  0  0  0  0  0  0  0
    6.3865   19.1035    3.6891 C   0  0  1  0  0  0  0  0  0  0  0  0
    7.2538   19.2565    4.9221 C   0  0  1  0  0  0  0  0  0  0  0  0
    6.2176   19.0920    6.0351 C   0  0  1  0  0  0  0  0  0  0  0  0
    5.2160   18.1852    5.5649 O   0  0  0  0  0  0  0  0  0  0  0  0
    6.8121   18.5990    7.2195 O   0  0  0  0  0  0  0  0  0  0  0  0
    8.2376   18.2044    4.9746 O   0  0  0  0  0  0  0  0  0  0  0  0
    7.1422   18.7385    2.5429 O   0  0  0  0  0  0  0  0  0  0  0  0
    7.3457   17.8386    6.9178 H   0  0  0  0  0  0  0  0  0  0  0  0
    8.5075   18.0437    4.0507 H   0  0  0  0  0  0  0  0  0  0  0  0
    6.5034   18.5361    1.8341 H   0  0  0  0  0  0  0  0  0  0  0  0
  2  3  1  0  0  0  0
  2  6  1  0  0  0  0
  2  1  1  1  0  0  0
  3  4  1  0  0  0  0
  3  9  1  6  0  0  0
  4  8  1  1  0  0  0
  4  5  1  0  0  0  0
  5  6  1  0  0  0  0
  5  7  1  1  0  0  0
  7 10  1  0  0  0  0
  8 11  1  0  0  0  0
  9 12  1  0  0  0  0
M  END
>  <CHROM.0>
-60.51182405,-175.02213690,-66.71370661,-47.83056541,61.13260306,-61.10273117
-68.49958689,-174.20687176,-168.17377795

>  <CHROM.1>
54.12683302,36.62265958,-48.51946223,6.50953093,18.39933676,4.76338536,1.61631043
-0.45743026,-1.68374938

>  <Name>
P32736201

>  <RI>
3.51561e+07

>  <Rbt.Current_Directory>
/home/fstefaniak/projects/zuza/docking/adenine/4XNR

>  <Rbt.Executable>
rbdock ($Id: //depot/dev/client3/rdock/2013.1/src/exe/rbdock.cxx#4 $)

>  <Rbt.Library>
libRbt.so (2013.1, Build901 2013/11/27)

>  <Rbt.Parameter_File>
/home/fstefaniak/progs/rDock//data/scripts/dock_solv.prm

>  <Rbt.Receptor>
4xnr.prm

>  <SCORE>
-52.0496

>  <SCORE.INTER>
-30.6164

>  <SCORE.INTER.CONST>
1

>  <SCORE.INTER.POLAR>
-4.33982

>  <SCORE.INTER.ROT>
0

>  <SCORE.INTER.SOLV>
12.9183

>  <SCORE.INTER.VDW>
-13.851

>  <SCORE.INTER.norm>
-3.40183

>  <SCORE.INTRA>
-1.7138

>  <SCORE.INTRA.DIHEDRAL>
-1.49063

>  <SCORE.INTRA.DIHEDRAL.0>
4.76642

>  <SCORE.INTRA.POLAR>
-0.173573

>  <SCORE.INTRA.POLAR.0>
-0.323118

>  <SCORE.INTRA.REPUL>
0

>  <SCORE.INTRA.REPUL.0>
0

>  <SCORE.INTRA.SOLV>
-0.0790312

>  <SCORE.INTRA.SOLV.lig_0>
-15.752

>  <SCORE.INTRA.VDW>
-0.338827

>  <SCORE.INTRA.VDW.0>
0.732915

>  <SCORE.INTRA.norm>
-0.190423

>  <SCORE.RESTR>
0

>  <SCORE.RESTR.CAVITY>
0

>  <SCORE.RESTR.norm>
0

>  <SCORE.SYSTEM>
-19.7193

>  <SCORE.SYSTEM.CONST>
0

>  <SCORE.SYSTEM.DIHEDRAL>
4.25187

>  <SCORE.SYSTEM.POLAR>
-2.95809

>  <SCORE.SYSTEM.SOLV>
-0.0895583

>  <SCORE.SYSTEM.VDW>
-4.67336

>  <SCORE.SYSTEM.norm>
-2.19104

>  <SCORE.heavy>
9

>  <SCORE.norm>
-5.78329

$$$$
P32804231
 OpenBabel12072022113D
libRbt.so/2013.1/901 2013/11/27
 10 11  0  0  0  0  0  0  0  0999 V2000
    4.1888   17.4253    2.9868 C   0  0  0  0  0  0  0  0  0  0  0  0
    4.7106   17.1381    4.3834 C   0  0  2  0  0  0  0  0  0  0  0  0
    5.3635   18.3606    5.0884 C   0  0  2  0  0  0  0  0  0  0  0  0
    6.6730   18.7542    4.4530 C   0  0  0  0  0  0  0  0  0  0  0  0
    7.1584   18.0181    3.4362 C   0  0  0  0  0  0  0  0  0  0  0  0
    6.3797   16.8246    2.9499 C   0  0  2  0  0  0  0  0  0  0  0  0
    5.3337   17.3432    2.1211 O   0  0  0  0  0  0  0  0  0  0  0  0
    5.7643   16.1945    4.0900 O   0  0  0  0  0  0  0  0  0  0  0  0
    5.6659   18.0133    6.4392 O   0  0  0  0  0  0  0  0  0  0  0  0
    4.8495   17.6177    6.7993 H   0  0  0  0  0  0  0  0  0  0  0  0
  1  7  1  0  0  0  0
  2  1  1  6  0  0  0
  2  3  1  0  0  0  0
  2  8  1  0  0  0  0
  3  4  1  0  0  0  0
  3  9  1  1  0  0  0
  4  5  2  0  0  0  0
  6  5  1  1  0  0  0
  6  7  1  0  0  0  0
  6  8  1  0  0  0  0
  9 10  1  0  0  0  0
M  END
>  <CHROM.0>
-60.12469508,56.51515745,-69.41209354,-49.27413466,-56.15667618,-62.91275339
-68.43593977,-57.73020735,-168.17038011

>  <CHROM.1>
-49.49101288,5.66730385,17.53636960,4.02390265,1.66312469,-0.40867654,-1.84192166

>  <Name>
P32804231

>  <RI>
4.17015e+07

>  <Rbt.Current_Directory>
/home/fstefaniak/projects/zuza/docking/adenine/4XNR

>  <Rbt.Executable>
rbdock ($Id: //depot/dev/client3/rdock/2013.1/src/exe/rbdock.cxx#4 $)

>  <Rbt.Library>
libRbt.so (2013.1, Build901 2013/11/27)

>  <Rbt.Parameter_File>
/home/fstefaniak/progs/rDock//data/scripts/dock_solv.prm

>  <Rbt.Receptor>
4xnr.prm

>  <SCORE>
-40.6131

>  <SCORE.INTER>
-20.6978

>  <SCORE.INTER.CONST>
1

>  <SCORE.INTER.POLAR>
-2.0301

>  <SCORE.INTER.ROT>
0

>  <SCORE.INTER.SOLV>
9.58738

>  <SCORE.INTER.VDW>
-13.8273

>  <SCORE.INTER.norm>
-2.29976

>  <SCORE.INTRA>
0.142253

>  <SCORE.INTRA.DIHEDRAL>
0.39876

>  <SCORE.INTRA.DIHEDRAL.0>
0.136428

>  <SCORE.INTRA.POLAR>
0

>  <SCORE.INTRA.POLAR.0>
0

>  <SCORE.INTRA.REPUL>
0

>  <SCORE.INTRA.REPUL.0>
0

>  <SCORE.INTRA.SOLV>
0.0341328

>  <SCORE.INTRA.SOLV.lig_0>
-9.36961

>  <SCORE.INTRA.VDW>
-0.0741932

>  <SCORE.INTRA.VDW.0>
0.214767

>  <SCORE.INTRA.norm>
0.0158059

>  <SCORE.RESTR>
0

>  <SCORE.RESTR.CAVITY>
0

>  <SCORE.RESTR.norm>
0

>  <SCORE.SYSTEM>
-20.0575

>  <SCORE.SYSTEM.CONST>
0

>  <SCORE.SYSTEM.DIHEDRAL>
4.19567

>  <SCORE.SYSTEM.POLAR>
-2.94543

>  <SCORE.SYSTEM.SOLV>
0.363777

>  <SCORE.SYSTEM.VDW>
-5.07338

>  <SCORE.SYSTEM.norm>
-2.22861

>  <SCORE.heavy>
9

>  <SCORE.norm>
-4.51257

$$$$
P32804231
 OpenBabel12072022113D
libRbt.so/2013.1/901 2013/11/27
 10 11  0  0  0  0  0  0  0  0999 V2000
    4.1856   17.4167    3.0012 C   0  0  0  0  0  0  0  0  0  0  0  0
    4.7105   17.1347    4.3977 C   0  0  2  0  0  0  0  0  0  0  0  0
    5.3647   18.3599    5.0968 C   0  0  2  0  0  0  0  0  0  0  0  0
    6.6728   18.7515    4.4570 C   0  0  0  0  0  0  0  0  0  0  0  0
    7.1560   18.0117    3.4418 C   0  0  0  0  0  0  0  0  0  0  0  0
    6.3765   16.8163    2.9616 C   0  0  2  0  0  0  0  0  0  0  0  0
    5.3285   17.3318    2.1332 O   0  0  0  0  0  0  0  0  0  0  0  0
    5.7638   16.1903    4.1053 O   0  0  0  0  0  0  0  0  0  0  0  0
    5.6702   18.0176    6.4481 O   0  0  0  0  0  0  0  0  0  0  0  0
    4.8523   17.6302    6.8138 H   0  0  0  0  0  0  0  0  0  0  0  0
  1  7  1  0  0  0  0
  2  1  1  6  0  0  0
  2  3  1  0  0  0  0
  2  8  1  0  0  0  0
  3  4  1  0  0  0  0
  3  9  1  1  0  0  0
  4  5  2  0  0  0  0
  6  5  1  1  0  0  0
  6  7  1  0  0  0  0
  6  8  1  0  0  0  0
  9 10  1  0  0  0  0
M  END
>  <CHROM.0>
-54.95134672,53.83195958,-64.69256691,-47.10741325,-58.03388321,-66.03721282
-69.11812609,-56.78007577,-168.34596823

>  <CHROM.1>
-49.96775535,5.66629820,17.53191648,4.03459402,1.66531740,-0.40931705,-1.84475895

>  <Name>
P32804231

>  <RI>
4.17015e+07

>  <Rbt.Current_Directory>
/home/fstefaniak/projects/zuza/docking/adenine/4XNR

>  <Rbt.Executable>
rbdock ($Id: //depot/dev/client3/rdock/2013.1/src/exe/rbdock.cxx#4 $)

>  <Rbt.Library>
libRbt.so (2013.1, Build901 2013/11/27)

>  <Rbt.Parameter_File>
/home/fstefaniak/progs/rDock//data/scripts/dock_solv.prm

>  <Rbt.Receptor>
4xnr.prm

>  <SCORE>
-40.6101

>  <SCORE.INTER>
-20.7155

>  <SCORE.INTER.CONST>
1

>  <SCORE.INTER.POLAR>
-2.04456

>  <SCORE.INTER.ROT>
0

>  <SCORE.INTER.SOLV>
9.59187

>  <SCORE.INTER.VDW>
-13.7925

>  <SCORE.INTER.norm>
-2.30173

>  <SCORE.INTRA>
0.111308

>  <SCORE.INTRA.DIHEDRAL>
0.352789

>  <SCORE.INTRA.DIHEDRAL.0>
0.136428

>  <SCORE.INTRA.POLAR>
0

>  <SCORE.INTRA.POLAR.0>
0

>  <SCORE.INTRA.REPUL>
0

>  <SCORE.INTRA.REPUL.0>
0

>  <SCORE.INTRA.SOLV>
0.0342005

>  <SCORE.INTRA.SOLV.lig_0>
-9.36961

>  <SCORE.INTRA.VDW>
-0.0821865

>  <SCORE.INTRA.VDW.0>
0.214767

>  <SCORE.INTRA.norm>
0.0123676

>  <SCORE.RESTR>
0

>  <SCORE.RESTR.CAVITY>
0

>  <SCORE.RESTR.norm>
0

>  <SCORE.SYSTEM>
-20.0058

>  <SCORE.SYSTEM.CONST>
0

>  <SCORE.SYSTEM.DIHEDRAL>
4.5052

>  <SCORE.SYSTEM.POLAR>
-3.0365

>  <SCORE.SYSTEM.SOLV>
0.384707

>  <SCORE.SYSTEM.VDW>
-4.84551

>  <SCORE.SYSTEM.norm>
-2.22287

>  <SCORE.heavy>
9

>  <SCORE.norm>
-4.51223

$$$$
P32804231
 OpenBabel12072022113D
libRbt.so/2013.1/901 2013/11/27
 10 11  0  0  0  0  0  0  0  0999 V2000
    4.1882   17.4410    2.9765 C   0  0  0  0  0  0  0  0  0  0  0  0
    4.6963   17.1651    4.3804 C   0  0  2  0  0  0  0  0  0  0  0  0
    5.3529   18.3902    5.0775 C   0  0  2  0  0  0  0  0  0  0  0  0
    6.6706   18.7668    4.4487 C   0  0  0  0  0  0  0  0  0  0  0  0
    7.1585   18.0158    3.4440 C   0  0  0  0  0  0  0  0  0  0  0  0
    6.3745   16.8231    2.9642 C   0  0  2  0  0  0  0  0  0  0  0  0
    5.3394   17.3408    2.1212 O   0  0  0  0  0  0  0  0  0  0  0  0
    5.7450   16.2103    4.1060 O   0  0  0  0  0  0  0  0  0  0  0  0
    5.6415   18.0553    6.4344 O   0  0  0  0  0  0  0  0  0  0  0  0
    4.8182   17.6728    6.7929 H   0  0  0  0  0  0  0  0  0  0  0  0
  1  7  1  0  0  0  0
  2  1  1  6  0  0  0
  2  3  1  0  0  0  0
  2  8  1  0  0  0  0
  3  4  1  0  0  0  0
  3  9  1  1  0  0  0
  4  5  2  0  0  0  0
  6  5  1  1  0  0  0
  6  7  1  0  0  0  0
  6  8  1  0  0  0  0
  9 10  1  0  0  0  0
M  END
>  <CHROM.0>
-55.59939262,55.55321395,-66.60358772,-48.42431672,-60.55973482,-61.21004139
-67.99555772,-54.59353577,-168.08030484

>  <CHROM.1>
-49.67978908,5.65892718,17.55208189,4.02453368,1.65681680,-0.39894267,-1.85531065

>  <Name>
P32804231

>  <RI>
4.17015e+07

>  <Rbt.Current_Directory>
/home/fstefaniak/projects/zuza/docking/adenine/4XNR

>  <Rbt.Executable>
rbdock ($Id: //depot/dev/client3/rdock/2013.1/src/exe/rbdock.cxx#4 $)

>  <Rbt.Library>
libRbt.so (2013.1, Build901 2013/11/27)

>  <Rbt.Parameter_File>
/home/fstefaniak/progs/rDock//data/scripts/dock_solv.prm

>  <Rbt.Receptor>
4xnr.prm

>  <SCORE>
-40.5911

>  <SCORE.INTER>
-20.7071

>  <SCORE.INTER.CONST>
1

>  <SCORE.INTER.POLAR>
-2.0386

>  <SCORE.INTER.ROT>
0

>  <SCORE.INTER.SOLV>
9.5785

>  <SCORE.INTER.VDW>
-13.8022

>  <SCORE.INTER.norm>
-2.30079

>  <SCORE.INTRA>
0.129869

>  <SCORE.INTRA.DIHEDRAL>
0.380327

>  <SCORE.INTRA.DIHEDRAL.0>
0.136428

>  <SCORE.INTRA.POLAR>
0

>  <SCORE.INTRA.POLAR.0>
0

>  <SCORE.INTRA.REPUL>
0

>  <SCORE.INTRA.REPUL.0>
0

>  <SCORE.INTRA.SOLV>
0.0341596

>  <SCORE.INTRA.SOLV.lig_0>
-9.36961

>  <SCORE.INTRA.VDW>
-0.0773747

>  <SCORE.INTRA.VDW.0>
0.214767

>  <SCORE.INTRA.norm>
0.0144298

>  <SCORE.RESTR>
0

>  <SCORE.RESTR.CAVITY>
0

>  <SCORE.RESTR.norm>
0

>  <SCORE.SYSTEM>
-20.0139

>  <SCORE.SYSTEM.CONST>
0

>  <SCORE.SYSTEM.DIHEDRAL>
4.19492

>  <SCORE.SYSTEM.POLAR>
-3.00502

>  <SCORE.SYSTEM.SOLV>
0.384345

>  <SCORE.SYSTEM.VDW>
-4.85225

>  <SCORE.SYSTEM.norm>
-2.22376

>  <SCORE.heavy>
9

>  <SCORE.norm>
-4.51012

$$$$
P32822350
 OpenBabel12072022113D
libRbt.so/2013.1/901 2013/11/27
 15 15  0  0  0  0  0  0  0  0999 V2000
    3.2173   13.0144    3.2783 C   0  0  0  0  0  0  0  0  0  0  0  0
    3.4618   14.3711    3.8897 C   0  0  0  0  0  0  0  0  0  0  0  0
    2.6989   14.8297    4.7321 O   0  0  0  0  0  0  0  0  0  0  0  0
    4.6116   14.9604    3.3956 N   0  0  0  0  0  0  0  0  0  0  0  0
    5.1468   16.2196    3.7367 C   0  0  0  0  0  0  0  0  0  0  0  0
    4.7828   16.9410    4.8708 C   0  0  0  0  0  0  0  0  0  0  0  0
    5.3651   18.1851    5.1333 C   0  0  0  0  0  0  0  0  0  0  0  0
    6.3160   18.7219    4.2608 C   0  0  0  0  0  0  0  0  0  0  0  0
    6.6894   18.0181    3.1131 C   0  0  0  0  0  0  0  0  0  0  0  0
    6.1008   16.7672    2.8692 C   0  0  0  0  0  0  0  0  0  0  0  0
    7.5926   18.3759    2.1484 O   0  0  0  0  0  0  0  0  0  0  0  0
    7.1078   18.6214    0.8363 C   0  0  0  0  0  0  0  0  0  0  0  0
    6.8643   19.9351    4.5690 O   0  0  0  0  0  0  0  0  0  0  0  0
    5.1359   14.4294    2.7111 H   0  0  0  0  0  0  0  0  0  0  0  0
    6.1855   20.6233    4.4739 H   0  0  0  0  0  0  0  0  0  0  0  0
  1  2  1  0  0  0  0
  2  3  2  0  0  0  0
  2  4  1  0  0  0  0
  4  5  1  0  0  0  0
  4 14  1  0  0  0  0
  5  6  2  0  0  0  0
  5 10  1  0  0  0  0
  6  7  1  0  0  0  0
  7  8  2  0  0  0  0
  8  9  1  0  0  0  0
  8 13  1  0  0  0  0
  9 10  2  0  0  0  0
  9 11  1  0  0  0  0
 11 12  1  0  0  0  0
 13 15  1  0  0  0  0
M  END
>  <CHROM.0>
-57.73391568,55.46153513,-66.13801526,-46.40378950,-56.80229232,-61.71815468
-67.60916695,-61.87252403,-167.90068676

>  <CHROM.1>
16.65515186,-69.12893058,-114.59031706,5.39138333,16.86086493,3.57422020
-2.72691962,0.85873053,0.86395682

>  <Name>
P32822350

>  <RI>
3.4169e+07

>  <Rbt.Current_Directory>
/home/fstefaniak/projects/zuza/docking/adenine/4XNR

>  <Rbt.Executable>
rbdock ($Id: //depot/dev/client3/rdock/2013.1/src/exe/rbdock.cxx#4 $)

>  <Rbt.Library>
libRbt.so (2013.1, Build901 2013/11/27)

>  <Rbt.Parameter_File>
/home/fstefaniak/progs/rDock//data/scripts/dock_solv.prm

>  <Rbt.Receptor>
4xnr.prm

>  <SCORE>
-47.2634

>  <SCORE.INTER>
-29.7403

>  <SCORE.INTER.CONST>
1

>  <SCORE.INTER.POLAR>
-3.49523

>  <SCORE.INTER.ROT>
2

>  <SCORE.INTER.SOLV>
13.7746

>  <SCORE.INTER.VDW>
-17.701

>  <SCORE.INTER.norm>
-2.28772

>  <SCORE.INTRA>
2.53281

>  <SCORE.INTRA.DIHEDRAL>
9.1565

>  <SCORE.INTRA.DIHEDRAL.0>
0.0807983

>  <SCORE.INTRA.POLAR>
0

>  <SCORE.INTRA.POLAR.0>
0

>  <SCORE.INTRA.REPUL>
0

>  <SCORE.INTRA.REPUL.0>
0

>  <SCORE.INTRA.SOLV>
-0.304936

>  <SCORE.INTRA.SOLV.lig_0>
-15.0872

>  <SCORE.INTRA.VDW>
-1.89297

>  <SCORE.INTRA.VDW.0>
2.57206

>  <SCORE.INTRA.norm>
0.194831

>  <SCORE.RESTR>
0

>  <SCORE.RESTR.CAVITY>
0

>  <SCORE.RESTR.norm>
0

>  <SCORE.SYSTEM>
-20.0559

>  <SCORE.SYSTEM.CONST>
0

>  <SCORE.SYSTEM.DIHEDRAL>
4.26219

>  <SCORE.SYSTEM.POLAR>
-3.014

>  <SCORE.SYSTEM.SOLV>
0.3814

>  <SCORE.SYSTEM.VDW>
-4.8718

>  <SCORE.SYSTEM.norm>
-1.54276

>  <SCORE.heavy>
13

>  <SCORE.norm>
-3.63565

$$$$
P32822350
 OpenBabel12072022113D
libRbt.so/2013.1/901 2013/11/27
 15 15  0  0  0  0  0  0  0  0999 V2000
    3.2143   13.0621    3.2780 C   0  0  0  0  0  0  0  0  0  0  0  0
    3.4663   14.4229    3.8773 C   0  0  0  0  0  0  0  0  0  0  0  0
    2.7045   14.8945    4.7134 O   0  0  0  0  0  0  0  0  0  0  0  0
    4.6214   14.9997    3.3806 N   0  0  0  0  0  0  0  0  0  0  0  0
    5.1641   16.2585    3.7113 C   0  0  0  0  0  0  0  0  0  0  0  0
    4.7930   16.9987    4.8309 C   0  0  0  0  0  0  0  0  0  0  0  0
    5.3837   18.2408    5.0838 C   0  0  0  0  0  0  0  0  0  0  0  0
    6.3503   18.7568    4.2160 C   0  0  0  0  0  0  0  0  0  0  0  0
    6.7312   18.0340    3.0827 C   0  0  0  0  0  0  0  0  0  0  0  0
    6.1339   16.7854    2.8484 C   0  0  0  0  0  0  0  0  0  0  0  0
    7.6496   18.3702    2.1246 O   0  0  0  0  0  0  0  0  0  0  0  0
    7.1874   18.5733    0.7971 C   0  0  0  0  0  0  0  0  0  0  0  0
    6.9062   19.9690    4.5146 O   0  0  0  0  0  0  0  0  0  0  0  0
    5.1438   14.4588    2.7025 H   0  0  0  0  0  0  0  0  0  0  0  0
    6.4721   20.3310    5.3045 H   0  0  0  0  0  0  0  0  0  0  0  0
  1  2  1  0  0  0  0
  2  3  2  0  0  0  0
  2  4  1  0  0  0  0
  4  5  1  0  0  0  0
  4 14  1  0  0  0  0
  5  6  2  0  0  0  0
  5 10  1  0  0  0  0
  6  7  1  0  0  0  0
  7  8  2  0  0  0  0
  8  9  1  0  0  0  0
  8 13  1  0  0  0  0
  9 10  2  0  0  0  0
  9 11  1  0  0  0  0
 11 12  1  0  0  0  0
 13 15  1  0  0  0  0
M  END
>  <CHROM.0>
-57.21373604,58.87942478,-65.52636278,-46.48196523,-59.36301387,-62.34774879
-66.29682224,178.76388096,-168.06209491

>  <CHROM.1>
16.02153307,-3.85085861,-115.95788653,5.42028621,16.88943647,3.55038361,-2.72663601
0.84438322,0.85361395

>  <Name>
P32822350

>  <RI>
3.4169e+07

>  <Rbt.Current_Directory>
/home/fstefaniak/projects/zuza/docking/adenine/4XNR

>  <Rbt.Executable>
rbdock ($Id: //depot/dev/client3/rdock/2013.1/src/exe/rbdock.cxx#4 $)

>  <Rbt.Library>
libRbt.so (2013.1, Build901 2013/11/27)

>  <Rbt.Parameter_File>
/home/fstefaniak/progs/rDock//data/scripts/dock_solv.prm

>  <Rbt.Receptor>
4xnr.prm

>  <SCORE>
-46.1101

>  <SCORE.INTER>
-27.2469

>  <SCORE.INTER.CONST>
1

>  <SCORE.INTER.POLAR>
-3.02391

>  <SCORE.INTER.ROT>
2

>  <SCORE.INTER.SOLV>
13.8964

>  <SCORE.INTER.VDW>
-17.6503

>  <SCORE.INTER.norm>
-2.09591

>  <SCORE.INTRA>
1.08196

>  <SCORE.INTRA.DIHEDRAL>
4.83157

>  <SCORE.INTRA.DIHEDRAL.0>
0.0807983

>  <SCORE.INTRA.POLAR>
0

>  <SCORE.INTRA.POLAR.0>
0

>  <SCORE.INTRA.REPUL>
0

>  <SCORE.INTRA.REPUL.0>
0

>  <SCORE.INTRA.SOLV>
-0.317983

>  <SCORE.INTRA.SOLV.lig_0>
-15.0872

>  <SCORE.INTRA.VDW>
-1.17483

>  <SCORE.INTRA.VDW.0>
2.57206

>  <SCORE.INTRA.norm>
0.0832278

>  <SCORE.RESTR>
0

>  <SCORE.RESTR.CAVITY>
0

>  <SCORE.RESTR.norm>
0

>  <SCORE.SYSTEM>
-19.9452

>  <SCORE.SYSTEM.CONST>
0

>  <SCORE.SYSTEM.DIHEDRAL>
4.00015

>  <SCORE.SYSTEM.POLAR>
-3.00444

>  <SCORE.SYSTEM.SOLV>
0.23685

>  <SCORE.SYSTEM.VDW>
-4.69435

>  <SCORE.SYSTEM.norm>
-1.53425

>  <SCORE.heavy>
13

>  <SCORE.norm>
-3.54693

$$$$
P32822350
 OpenBabel12072022113D
libRbt.so/2013.1/901 2013/11/27
 15 15  0  0  0  0  0  0  0  0999 V2000
    3.1695   13.0947    3.2532 C   0  0  0  0  0  0  0  0  0  0  0  0
    3.4302   14.4510    3.8587 C   0  0  0  0  0  0  0  0  0  0  0  0
    2.6674   14.9268    4.6916 O   0  0  0  0  0  0  0  0  0  0  0  0
    4.5936   15.0189    3.3714 N   0  0  0  0  0  0  0  0  0  0  0  0
    5.1458   16.2715    3.7097 C   0  0  0  0  0  0  0  0  0  0  0  0
    4.7880   17.0026    4.8396 C   0  0  0  0  0  0  0  0  0  0  0  0
    5.3874   18.2390    5.0997 C   0  0  0  0  0  0  0  0  0  0  0  0
    6.3493   18.7585    4.2288 C   0  0  0  0  0  0  0  0  0  0  0  0
    6.7169   18.0449    3.0853 C   0  0  0  0  0  0  0  0  0  0  0  0
    6.1110   16.8018    2.8439 C   0  0  0  0  0  0  0  0  0  0  0  0
    7.6290   18.3857    2.1228 O   0  0  0  0  0  0  0  0  0  0  0  0
    7.1586   18.5919    0.7987 C   0  0  0  0  0  0  0  0  0  0  0  0
    6.9141   19.9648    4.5345 O   0  0  0  0  0  0  0  0  0  0  0  0
    5.1154   14.4755    2.6947 H   0  0  0  0  0  0  0  0  0  0  0  0
    6.5054   20.3099    5.3452 H   0  0  0  0  0  0  0  0  0  0  0  0
  1  2  1  0  0  0  0
  2  3  2  0  0  0  0
  2  4  1  0  0  0  0
  4  5  1  0  0  0  0
  4 14  1  0  0  0  0
  5  6  2  0  0  0  0
  5 10  1  0  0  0  0
  6  7  1  0  0  0  0
  7  8  2  0  0  0  0
  8  9  1  0  0  0  0
  8 13  1  0  0  0  0
  9 10  2  0  0  0  0
  9 11  1  0  0  0  0
 11 12  1  0  0  0  0
 13 15  1  0  0  0  0
M  END
>  <CHROM.0>
-55.79934053,60.35991667,-63.61075242,-47.78281464,-53.40515043,-60.65869129
-67.40389586,-58.29178527,-166.63914626

>  <CHROM.1>
16.97058306,-2.32421756,-116.53910635,5.40131962,16.90390849,3.54873935,-2.73996181
0.84240379,0.87451005

>  <Name>
P32822350

>  <RI>
3.4169e+07

>  <Rbt.Current_Directory>
/home/fstefaniak/projects/zuza/docking/adenine/4XNR

>  <Rbt.Executable>
rbdock ($Id: //depot/dev/client3/rdock/2013.1/src/exe/rbdock.cxx#4 $)

>  <Rbt.Library>
libRbt.so (2013.1, Build901 2013/11/27)

>  <Rbt.Parameter_File>
/home/fstefaniak/progs/rDock//data/scripts/dock_solv.prm

>  <Rbt.Receptor>
4xnr.prm

>  <SCORE>
-45.9693

>  <SCORE.INTER>
-27.302

>  <SCORE.INTER.CONST>
1

>  <SCORE.INTER.POLAR>
-3.02103

>  <SCORE.INTER.ROT>
2

>  <SCORE.INTER.SOLV>
13.8264

>  <SCORE.INTER.VDW>
-17.6734

>  <SCORE.INTER.norm>
-2.10016

>  <SCORE.INTRA>
1.14971

>  <SCORE.INTRA.DIHEDRAL>
4.89688

>  <SCORE.INTRA.DIHEDRAL.0>
0.0807983

>  <SCORE.INTRA.POLAR>
0

>  <SCORE.INTRA.POLAR.0>
0

>  <SCORE.INTRA.REPUL>
0

>  <SCORE.INTRA.REPUL.0>
0

>  <SCORE.INTRA.SOLV>
-0.320306

>  <SCORE.INTRA.SOLV.lig_0>
-15.0872

>  <SCORE.INTRA.VDW>
-1.13858

>  <SCORE.INTRA.VDW.0>
2.57206

>  <SCORE.INTRA.norm>
0.088439

>  <SCORE.RESTR>
0

>  <SCORE.RESTR.CAVITY>
0

>  <SCORE.RESTR.norm>
0

>  <SCORE.SYSTEM>
-19.817

>  <SCORE.SYSTEM.CONST>
0

>  <SCORE.SYSTEM.DIHEDRAL>
4.20701

>  <SCORE.SYSTEM.POLAR>
-3.01437

>  <SCORE.SYSTEM.SOLV>
0.376534

>  <SCORE.SYSTEM.VDW>
-4.69126

>  <SCORE.SYSTEM.norm>
-1.52438

>  <SCORE.heavy>
13

>  <SCORE.norm>
-3.5361

$$$$
P32833212
 OpenBabel12072022113D
libRbt.so/2013.1/901 2013/11/27
 16 17  0  0  0  0  0  0  0  0999 V2000
   -0.0173   13.3485    2.2434 C   0  0  0  0  0  0  0  0  0  0  0  0
    1.0320   13.1890    3.3337 C   0  0  0  0  0  0  0  0  0  0  0  0
    0.7590   14.1082    4.3925 O   0  0  0  0  0  0  0  0  0  0  0  0
    1.9904   14.7634    4.6969 C   0  0  2  0  0  0  0  0  0  0  0  0
    2.0154   16.2486    4.3319 C   0  0  1  0  0  0  0  0  0  0  0  0
    2.9306   16.4120    3.2194 O   0  0  0  0  0  0  0  0  0  0  0  0
    3.8392   15.3103    3.2651 C   0  0  2  0  0  0  0  0  0  0  0  0
    3.0418   14.1344    3.8219 C   0  0  2  0  0  0  0  0  0  0  0  0
    2.3176   13.4656    2.7821 O   0  0  0  0  0  0  0  0  0  0  0  0
    4.9628   15.6861    4.1067 N   0  0  0  0  0  0  0  0  0  0  0  0
    0.6734   16.8653    3.9568 C   0  0  0  0  0  0  0  0  0  0  0  0
   -0.2393   16.7195    5.0489 O   0  0  0  0  0  0  0  0  0  0  0  0
    1.0159   11.7706    3.8994 C   0  0  0  0  0  0  0  0  0  0  0  0
    4.5784   15.9160    5.0229 H   0  0  0  0  0  0  0  0  0  0  0  0
    5.3663   16.5505    3.7492 H   0  0  0  0  0  0  0  0  0  0  0  0
   -0.9086   17.4194    4.9191 H   0  0  0  0  0  0  0  0  0  0  0  0
  1  2  1  0  0  0  0
  2  3  1  0  0  0  0
  2  9  1  0  0  0  0
  2 13  1  0  0  0  0
  4  3  1  6  0  0  0
  4  8  1  0  0  0  0
  5  4  1  0  0  0  0
  5  6  1  0  0  0  0
  5 11  1  6  0  0  0
  6  7  1  0  0  0  0
  7 10  1  1  0  0  0
  7  8  1  0  0  0  0
  8  9  1  6  0  0  0
 10 14  1  0  0  0  0
 10 15  1  0  0  0  0
 11 12  1  0  0  0  0
 12 16  1  0  0  0  0
M  END
>  <CHROM.0>
-59.04947629,-59.56044284,-72.44088279,-46.52278135,63.43535642,60.93927871
-170.71948182,-177.77182846,-167.67721417

>  <CHROM.1>
58.98365701,58.62679794,157.14564502,1.84711034,14.80337165,3.78470575,2.20401760
-0.11756509,-2.86770618

>  <Name>
P32833212

>  <RI>
9.71178e+06

>  <Rbt.Current_Directory>
/home/fstefaniak/projects/zuza/docking/adenine/4XNR

>  <Rbt.Executable>
rbdock ($Id: //depot/dev/client3/rdock/2013.1/src/exe/rbdock.cxx#4 $)

>  <Rbt.Library>
libRbt.so (2013.1, Build901 2013/11/27)

>  <Rbt.Parameter_File>
/home/fstefaniak/progs/rDock//data/scripts/dock_solv.prm

>  <Rbt.Receptor>
4xnr.prm

>  <SCORE>
-43.9012

>  <SCORE.INTER>
-26.9964

>  <SCORE.INTER.CONST>
1

>  <SCORE.INTER.POLAR>
-3.283

>  <SCORE.INTER.ROT>
2

>  <SCORE.INTER.SOLV>
12.0878

>  <SCORE.INTER.VDW>
-16.0169

>  <SCORE.INTER.norm>
-2.07664

>  <SCORE.INTRA>
0.997314

>  <SCORE.INTRA.DIHEDRAL>
1.31627

>  <SCORE.INTRA.DIHEDRAL.0>
1.00794

>  <SCORE.INTRA.POLAR>
0.124289

>  <SCORE.INTRA.POLAR.0>
-0.124289

>  <SCORE.INTRA.REPUL>
0

>  <SCORE.INTRA.REPUL.0>
0

>  <SCORE.INTRA.SOLV>
0.579259

>  <SCORE.INTRA.SOLV.lig_0>
-13.9775

>  <SCORE.INTRA.VDW>
-0.373032

>  <SCORE.INTRA.VDW.0>
-0.258406

>  <SCORE.INTRA.norm>
0.0767165

>  <SCORE.RESTR>
0.212704

>  <SCORE.RESTR.CAVITY>
0.212704

>  <SCORE.RESTR.norm>
0.0163619

>  <SCORE.SYSTEM>
-18.1149

>  <SCORE.SYSTEM.CONST>
0

>  <SCORE.SYSTEM.DIHEDRAL>
4.79433

>  <SCORE.SYSTEM.POLAR>
-2.97053

>  <SCORE.SYSTEM.SOLV>
-0.23763

>  <SCORE.SYSTEM.VDW>
-3.69369

>  <SCORE.SYSTEM.norm>
-1.39345

>  <SCORE.heavy>
13

>  <SCORE.norm>
-3.37702

$$$$
P32833212
 OpenBabel12072022113D
libRbt.so/2013.1/901 2013/11/27
 16 17  0  0  0  0  0  0  0  0999 V2000
    4.8704   14.8398    3.5539 C   0  0  0  0  0  0  0  0  0  0  0  0
    4.2829   16.2153    3.8331 C   0  0  0  0  0  0  0  0  0  0  0  0
    4.5406   17.0754    2.7221 O   0  0  0  0  0  0  0  0  0  0  0  0
    5.0599   18.2934    3.2559 C   0  0  2  0  0  0  0  0  0  0  0  0
    6.5300   18.5474    2.9186 C   0  0  1  0  0  0  0  0  0  0  0  0
    7.2905   18.4202    4.1464 O   0  0  0  0  0  0  0  0  0  0  0  0
    6.3850   18.6720    5.2225 C   0  0  2  0  0  0  0  0  0  0  0  0
    5.0271   18.1564    4.7548 C   0  0  2  0  0  0  0  0  0  0  0  0
    4.8970   16.7514    5.0033 O   0  0  0  0  0  0  0  0  0  0  0  0
    6.3901   20.1000    5.4923 N   0  0  0  0  0  0  0  0  0  0  0  0
    7.1407   17.6291    1.8669 C   0  0  0  0  0  0  0  0  0  0  0  0
    7.1912   18.3118    0.6105 O   0  0  0  0  0  0  0  0  0  0  0  0
    2.7732   16.1279    4.0459 C   0  0  0  0  0  0  0  0  0  0  0  0
    5.7508   20.5269    4.8220 H   0  0  0  0  0  0  0  0  0  0  0  0
    7.3126   20.4725    5.2731 H   0  0  0  0  0  0  0  0  0  0  0  0
    7.9269   18.9493    0.6944 H   0  0  0  0  0  0  0  0  0  0  0  0
  1  2  1  0  0  0  0
  2  3  1  0  0  0  0
  2  9  1  0  0  0  0
  2 13  1  0  0  0  0
  4  3  1  6  0  0  0
  4  8  1  0  0  0  0
  5  4  1  0  0  0  0
  5  6  1  0  0  0  0
  5 11  1  6  0  0  0
  6  7  1  0  0  0  0
  7 10  1  6  0  0  0
  7  8  1  0  0  0  0
  8  9  1  6  0  0  0
 10 14  1  0  0  0  0
 10 15  1  0  0  0  0
 11 12  1  0  0  0  0
 12 16  1  0  0  0  0
M  END
>  <CHROM.0>
-52.47110004,-170.51206783,-70.30299728,-47.16158050,-58.97926023,-61.73945738
-67.50210567,-59.80588210,-166.87812426

>  <CHROM.1>
100.96443815,82.86463766,74.84108491,5.59874585,17.63948545,3.61649090,-3.01650848
0.76393343,1.07215791

>  <Name>
P32833212

>  <RI>
9.71178e+06

>  <Rbt.Current_Directory>
/home/fstefaniak/projects/zuza/docking/adenine/4XNR

>  <Rbt.Executable>
rbdock ($Id: //depot/dev/client3/rdock/2013.1/src/exe/rbdock.cxx#4 $)

>  <Rbt.Library>
libRbt.so (2013.1, Build901 2013/11/27)

>  <Rbt.Parameter_File>
/home/fstefaniak/progs/rDock//data/scripts/dock_solv.prm

>  <Rbt.Receptor>
4xnr.prm

>  <SCORE>
-35.9222

>  <SCORE.INTER>
-18.2812

>  <SCORE.INTER.CONST>
1

>  <SCORE.INTER.POLAR>
-3.9034

>  <SCORE.INTER.ROT>
2

>  <SCORE.INTER.SOLV>
14.9554

>  <SCORE.INTER.VDW>
-9.0946

>  <SCORE.INTER.norm>
-1.40625

>  <SCORE.INTRA>
2.83907

>  <SCORE.INTRA.DIHEDRAL>
5.04332

>  <SCORE.INTRA.DIHEDRAL.0>
1.00794

>  <SCORE.INTRA.POLAR>
0.124289

>  <SCORE.INTRA.POLAR.0>
-0.124289

>  <SCORE.INTRA.REPUL>
0

>  <SCORE.INTRA.REPUL.0>
0

>  <SCORE.INTRA.SOLV>
0.099404

>  <SCORE.INTRA.SOLV.lig_0>
-13.9775

>  <SCORE.INTRA.VDW>
-0.154874

>  <SCORE.INTRA.VDW.0>
-0.258406

>  <SCORE.INTRA.norm>
0.21839

>  <SCORE.RESTR>
0

>  <SCORE.RESTR.CAVITY>
0

>  <SCORE.RESTR.norm>
0

>  <SCORE.SYSTEM>
-20.4801

>  <SCORE.SYSTEM.CONST>
0

>  <SCORE.SYSTEM.DIHEDRAL>
5.07922

>  <SCORE.SYSTEM.POLAR>
-3.02643

>  <SCORE.SYSTEM.SOLV>
0.257538

>  <SCORE.SYSTEM.VDW>
-5.34418

>  <SCORE.SYSTEM.norm>
-1.57539

>  <SCORE.heavy>
13

>  <SCORE.norm>
-2.76324

$$$$
P32833212
 OpenBabel12072022113D
libRbt.so/2013.1/901 2013/11/27
 16 17  0  0  0  0  0  0  0  0999 V2000
    4.8951   14.8453    3.5322 C   0  0  0  0  0  0  0  0  0  0  0  0
    4.2968   16.2135    3.8247 C   0  0  0  0  0  0  0  0  0  0  0  0
    4.5387   17.0832    2.7177 O   0  0  0  0  0  0  0  0  0  0  0  0
    5.0504   18.3025    3.2561 C   0  0  2  0  0  0  0  0  0  0  0  0
    6.5158   18.5724    2.9104 C   0  0  1  0  0  0  0  0  0  0  0  0
    7.2859   18.4442    4.1321 O   0  0  0  0  0  0  0  0  0  0  0  0
    6.3856   18.6804    5.2160 C   0  0  2  0  0  0  0  0  0  0  0  0
    5.0293   18.1553    4.7542 C   0  0  2  0  0  0  0  0  0  0  0  0
    4.9140   16.7474    4.9942 O   0  0  0  0  0  0  0  0  0  0  0  0
    6.3793   20.1066    5.4953 N   0  0  0  0  0  0  0  0  0  0  0  0
    7.1276   17.6668    1.8484 C   0  0  0  0  0  0  0  0  0  0  0  0
    7.1389   18.3487    0.5906 O   0  0  0  0  0  0  0  0  0  0  0  0
    2.7895   16.1106    4.0472 C   0  0  0  0  0  0  0  0  0  0  0  0
    5.7538   20.5357    4.8135 H   0  0  0  0  0  0  0  0  0  0  0  0
    7.3052   20.4837    5.2997 H   0  0  0  0  0  0  0  0  0  0  0  0
    7.8657   18.9983    0.6575 H   0  0  0  0  0  0  0  0  0  0  0  0
  1  2  1  0  0  0  0
  2  3  1  0  0  0  0
  2  9  1  0  0  0  0
  2 13  1  0  0  0  0
  4  3  1  6  0  0  0
  4  8  1  0  0  0  0
  5  4  1  0  0  0  0
  5  6  1  0  0  0  0
  5 11  1  6  0  0  0
  6  7  1  0  0  0  0
  7 10  1  6  0  0  0
  7  8  1  0  0  0  0
  8  9  1  6  0  0  0
 10 14  1  0  0  0  0
 10 15  1  0  0  0  0
 11 12  1  0  0  0  0
 12 16  1  0  0  0  0
M  END
>  <CHROM.0>
-58.25072407,-169.23605240,58.56742149,-48.06977849,-61.61731973,-66.76779282
52.10642414,-61.00236725,-167.38611968

>  <CHROM.1>
99.83336881,81.12979301,75.26483695,5.59576061,17.65039316,3.60802002,-3.01711018
0.77641523,1.08360923

>  <Name>
P32833212

>  <RI>
9.71178e+06

>  <Rbt.Current_Directory>
/home/fstefaniak/projects/zuza/docking/adenine/4XNR

>  <Rbt.Executable>
rbdock ($Id: //depot/dev/client3/rdock/2013.1/src/exe/rbdock.cxx#4 $)

>  <Rbt.Library>
libRbt.so (2013.1, Build901 2013/11/27)

>  <Rbt.Parameter_File>
/home/fstefaniak/progs/rDock//data/scripts/dock_solv.prm

>  <Rbt.Receptor>
4xnr.prm

>  <SCORE>
-34.0619

>  <SCORE.INTER>
-18.178

>  <SCORE.INTER.CONST>
1

>  <SCORE.INTER.POLAR>
-3.89577

>  <SCORE.INTER.ROT>
2

>  <SCORE.INTER.SOLV>
14.9465

>  <SCORE.INTER.VDW>
-9.04825

>  <SCORE.INTER.norm>
-1.39831

>  <SCORE.INTRA>
2.73136

>  <SCORE.INTRA.DIHEDRAL>
4.86312

>  <SCORE.INTRA.DIHEDRAL.0>
1.00794

>  <SCORE.INTRA.POLAR>
0.124289

>  <SCORE.INTRA.POLAR.0>
-0.124289

>  <SCORE.INTRA.REPUL>
0

>  <SCORE.INTRA.REPUL.0>
0

>  <SCORE.INTRA.SOLV>
0.104743

>  <SCORE.INTRA.SOLV.lig_0>
-13.9775

>  <SCORE.INTRA.VDW>
-0.175159

>  <SCORE.INTRA.VDW.0>
-0.258406

>  <SCORE.INTRA.norm>
0.210104

>  <SCORE.RESTR>
0

>  <SCORE.RESTR.CAVITY>
0

>  <SCORE.RESTR.norm>
0

>  <SCORE.SYSTEM>
-18.6153

>  <SCORE.SYSTEM.CONST>
0

>  <SCORE.SYSTEM.DIHEDRAL>
4.56814

>  <SCORE.SYSTEM.POLAR>
-2.94616

>  <SCORE.SYSTEM.SOLV>
0.143737

>  <SCORE.SYSTEM.VDW>
-4.16026

>  <SCORE.SYSTEM.norm>
-1.43194

>  <SCORE.heavy>
13

>  <SCORE.norm>
-2.62014

$$$$
P33491762
 OpenBabel12072022113D
libRbt.so/2013.1/901 2013/11/27
 17 17  0  0  0  0  0  0  0  0999 V2000
    4.2167    8.5810    7.2839 C   0  0  0  0  0  0  0  0  0  0  0  0
    2.9442    8.9982    6.5418 C   0  0  0  0  0  0  0  0  0  0  0  0
    2.4651   10.3865    6.9763 C   0  0  0  0  0  0  0  0  0  0  0  0
    3.2980   11.5288    6.3817 C   0  0  0  0  0  0  0  0  0  0  0  0
    3.5232   11.4564    4.9293 N   0  0  0  0  0  0  0  0  0  0  0  0
    3.9797   10.1296    4.5102 C   0  0  0  0  0  0  0  0  0  0  0  0
    3.1313    8.9651    5.0215 C   0  0  0  0  0  0  0  0  0  0  0  0
    2.5331   12.1819    4.0740 C   0  0  0  0  0  0  0  0  0  0  0  0
    2.9652   12.2369    2.5901 C   0  0  0  0  0  0  0  0  0  0  0  0
    1.0974   11.6345    4.1288 C   0  0  0  0  0  0  0  0  0  0  0  0
    2.5099   13.6771    4.5397 C   0  0  0  0  0  0  0  0  0  0  0  0
    3.3399   14.1831    5.2948 O   0  0  0  0  0  0  0  0  0  0  0  0
    1.4084   14.3849    4.0563 N   0  0  0  0  0  0  0  0  0  0  0  0
    1.0627   15.6202    4.6511 N   0  0  0  0  0  0  0  0  0  0  0  0
    1.1773   14.2169    3.0743 H   0  0  0  0  0  0  0  0  0  0  0  0
    0.9670   15.4463    5.6607 H   0  0  0  0  0  0  0  0  0  0  0  0
    0.1043   15.8348    4.3603 H   0  0  0  0  0  0  0  0  0  0  0  0
  1  2  1  0  0  0  0
  2  3  1  0  0  0  0
  2  7  1  0  0  0  0
  3  4  1  0  0  0  0
  4  5  1  0  0  0  0
  5  6  1  0  0  0  0
  5  8  1  0  0  0  0
  6  7  1  0  0  0  0
  8  9  1  0  0  0  0
  8 10  1  0  0  0  0
  8 11  1  0  0  0  0
 11 12  2  0  0  0  0
 11 13  1  0  0  0  0
 13 14  1  0  0  0  0
 13 15  1  0  0  0  0
 14 16  1  0  0  0  0
 14 17  1  0  0  0  0
M  END
>  <CHROM.0>
-62.05654827,-179.74433732,59.23776579,-48.21007886,-177.64627878,-64.71948389
54.64071435,-177.89477420,-167.85438660

>  <CHROM.1>
171.13594948,12.22111047,163.92114100,-53.77486892,2.72772522,11.76350362
5.06354041,0.13065910,-1.27103809,1.33299419

>  <Name>
P33491762

>  <RI>
9.71178e+06

>  <Rbt.Current_Directory>
/home/fstefaniak/projects/zuza/docking/adenine/4XNR

>  <Rbt.Executable>
rbdock ($Id: //depot/dev/client3/rdock/2013.1/src/exe/rbdock.cxx#4 $)

>  <Rbt.Library>
libRbt.so (2013.1, Build901 2013/11/27)

>  <Rbt.Parameter_File>
/home/fstefaniak/progs/rDock//data/scripts/dock_solv.prm

>  <Rbt.Receptor>
4xnr.prm

>  <SCORE>
-32.5607

>  <SCORE.INTER>
-15.2919

>  <SCORE.INTER.CONST>
1

>  <SCORE.INTER.POLAR>
-2.47583

>  <SCORE.INTER.ROT>
4

>  <SCORE.INTER.SOLV>
8.25385

>  <SCORE.INTER.VDW>
-10.9598

>  <SCORE.INTER.norm>
-1.09228

>  <SCORE.INTRA>
-0.401471

>  <SCORE.INTRA.DIHEDRAL>
-1.16661

>  <SCORE.INTRA.DIHEDRAL.0>
2.84196

>  <SCORE.INTRA.POLAR>
0.0983013

>  <SCORE.INTRA.POLAR.0>
-0.0983013

>  <SCORE.INTRA.REPUL>
0

>  <SCORE.INTRA.REPUL.0>
0

>  <SCORE.INTRA.SOLV>
-0.395392

>  <SCORE.INTRA.SOLV.lig_0>
-13.5949

>  <SCORE.INTRA.VDW>
0.0453057

>  <SCORE.INTRA.VDW.0>
2.75756

>  <SCORE.INTRA.norm>
-0.0286765

>  <SCORE.RESTR>
1.9044

>  <SCORE.RESTR.CAVITY>
1.9044

>  <SCORE.RESTR.norm>
0.136029

>  <SCORE.SYSTEM>
-18.7717

>  <SCORE.SYSTEM.CONST>
0

>  <SCORE.SYSTEM.DIHEDRAL>
3.7315

>  <SCORE.SYSTEM.POLAR>
-2.93451

>  <SCORE.SYSTEM.SOLV>
-0.152595

>  <SCORE.SYSTEM.VDW>
-3.92573

>  <SCORE.SYSTEM.norm>
-1.34084

>  <SCORE.heavy>
14

>  <SCORE.norm>
-2.32576

$$$$
P33491762
 OpenBabel12072022113D
libRbt.so/2013.1/901 2013/11/27
 17 17  0  0  0  0  0  0  0  0999 V2000
    4.1236    8.3588    7.6711 C   0  0  0  0  0  0  0  0  0  0  0  0
    2.9040    8.7578    6.8361 C   0  0  0  0  0  0  0  0  0  0  0  0
    2.3660   10.1332    7.2417 C   0  0  0  0  0  0  0  0  0  0  0  0
    3.2197   11.2959    6.7206 C   0  0  0  0  0  0  0  0  0  0  0  0
    3.5571   11.2397    5.2894 N   0  0  0  0  0  0  0  0  0  0  0  0
    4.0703    9.9252    4.8978 C   0  0  0  0  0  0  0  0  0  0  0  0
    3.2080    8.7407    5.3344 C   0  0  0  0  0  0  0  0  0  0  0  0
    2.6217   11.9533    4.3654 C   0  0  0  0  0  0  0  0  0  0  0  0
    3.2668   12.2565    2.9929 C   0  0  0  0  0  0  0  0  0  0  0  0
    1.2832   11.2404    4.1120 C   0  0  0  0  0  0  0  0  0  0  0  0
    2.3227   13.3596    4.9865 C   0  0  0  0  0  0  0  0  0  0  0  0
    2.9985   13.8879    5.8692 O   0  0  0  0  0  0  0  0  0  0  0  0
    1.1637   13.9484    4.4780 N   0  0  0  0  0  0  0  0  0  0  0  0
    1.1837   14.5110    3.1810 N   0  0  0  0  0  0  0  0  0  0  0  0
    0.2861   13.5827    4.8546 H   0  0  0  0  0  0  0  0  0  0  0  0
    1.8249   15.3150    3.2168 H   0  0  0  0  0  0  0  0  0  0  0  0
    0.2701   14.9488    3.0304 H   0  0  0  0  0  0  0  0  0  0  0  0
  1  2  1  0  0  0  0
  2  3  1  0  0  0  0
  2  7  1  0  0  0  0
  3  4  1  0  0  0  0
  4  5  1  0  0  0  0
  5  6  1  0  0  0  0
  5  8  1  0  0  0  0
  6  7  1  0  0  0  0
  8  9  1  0  0  0  0
  8 10  1  0  0  0  0
  8 11  1  0  0  0  0
 11 12  2  0  0  0  0
 11 13  1  0  0  0  0
 13 14  1  0  0  0  0
 13 15  1  0  0  0  0
 14 16  1  0  0  0  0
 14 17  1  0  0  0  0
M  END
>  <CHROM.0>
-55.80587341,34.03358623,59.18141973,-46.71085747,-172.83815366,-51.42492480
-52.32249118,59.80961918,-168.34631620

>  <CHROM.1>
160.70178749,16.86025120,-75.42075894,-65.84347176,2.71515494,11.44954612
5.26507496,0.24696997,-1.26320556,1.30960720

>  <Name>
P33491762

>  <RI>
9.71178e+06

>  <Rbt.Current_Directory>
/home/fstefaniak/projects/zuza/docking/adenine/4XNR

>  <Rbt.Executable>
rbdock ($Id: //depot/dev/client3/rdock/2013.1/src/exe/rbdock.cxx#4 $)

>  <Rbt.Library>
libRbt.so (2013.1, Build901 2013/11/27)

>  <Rbt.Parameter_File>
/home/fstefaniak/progs/rDock//data/scripts/dock_solv.prm

>  <Rbt.Receptor>
4xnr.prm

>  <SCORE>
-30.3981

>  <SCORE.INTER>
-18.2133

>  <SCORE.INTER.CONST>
1

>  <SCORE.INTER.POLAR>
-3.07696

>  <SCORE.INTER.ROT>
4

>  <SCORE.INTER.SOLV>
7.63058

>  <SCORE.INTER.VDW>
-10.6959

>  <SCORE.INTER.norm>
-1.30095

>  <SCORE.INTRA>
0.425822

>  <SCORE.INTRA.DIHEDRAL>
-0.624958

>  <SCORE.INTRA.DIHEDRAL.0>
2.84196

>  <SCORE.INTRA.POLAR>
0.0983013

>  <SCORE.INTRA.POLAR.0>
-0.0983013

>  <SCORE.INTRA.REPUL>
0

>  <SCORE.INTRA.REPUL.0>
0

>  <SCORE.INTRA.SOLV>
-0.00514682

>  <SCORE.INTRA.SOLV.lig_0>
-13.5949

>  <SCORE.INTRA.VDW>
0.40665

>  <SCORE.INTRA.VDW.0>
2.75756

>  <SCORE.INTRA.norm>
0.0304158

>  <SCORE.RESTR>
2.38979

>  <SCORE.RESTR.CAVITY>
2.38979

>  <SCORE.RESTR.norm>
0.170699

>  <SCORE.SYSTEM>
-15.0004

>  <SCORE.SYSTEM.CONST>
0

>  <SCORE.SYSTEM.DIHEDRAL>
7.24154

>  <SCORE.SYSTEM.POLAR>
-2.77823

>  <SCORE.SYSTEM.SOLV>
0.0748471

>  <SCORE.SYSTEM.VDW>
-3.1783

>  <SCORE.SYSTEM.norm>
-1.07146

>  <SCORE.heavy>
14

>  <SCORE.norm>
-2.1713

$$$$
P33491762
 OpenBabel12072022113D
libRbt.so/2013.1/901 2013/11/27
 17 17  0  0  0  0  0  0  0  0999 V2000
    3.6670    8.4981    7.8906 C   0  0  0  0  0  0  0  0  0  0  0  0
    2.5800    9.1779    7.0538 C   0  0  0  0  0  0  0  0  0  0  0  0
    2.4913   10.6775    7.3521 C   0  0  0  0  0  0  0  0  0  0  0  0
    3.6233   11.4909    6.7123 C   0  0  0  0  0  0  0  0  0  0  0  0
    3.8593   11.2292    5.2836 N   0  0  0  0  0  0  0  0  0  0  0  0
    3.9430    9.7961    4.9947 C   0  0  0  0  0  0  0  0  0  0  0  0
    2.7923    8.9581    5.5524 C   0  0  0  0  0  0  0  0  0  0  0  0
    3.1319   12.1171    4.3242 C   0  0  0  0  0  0  0  0  0  0  0  0
    3.5650   11.8806    2.8585 C   0  0  0  0  0  0  0  0  0  0  0  0
    1.5983   12.0272    4.3848 C   0  0  0  0  0  0  0  0  0  0  0  0
    3.5528   13.5939    4.6324 C   0  0  0  0  0  0  0  0  0  0  0  0
    3.9939   13.9797    5.7148 O   0  0  0  0  0  0  0  0  0  0  0  0
    3.3252   14.4632    3.5643 N   0  0  0  0  0  0  0  0  0  0  0  0
    2.5137   15.6044    3.7602 N   0  0  0  0  0  0  0  0  0  0  0  0
    4.0598   14.4839    2.8531 H   0  0  0  0  0  0  0  0  0  0  0  0
    2.9945   16.3915    3.3040 H   0  0  0  0  0  0  0  0  0  0  0  0
    2.5682   15.8436    4.7546 H   0  0  0  0  0  0  0  0  0  0  0  0
  1  2  1  0  0  0  0
  2  3  1  0  0  0  0
  2  7  1  0  0  0  0
  3  4  1  0  0  0  0
  4  5  1  0  0  0  0
  5  6  1  0  0  0  0
  5  8  1  0  0  0  0
  6  7  1  0  0  0  0
  8  9  1  0  0  0  0
  8 10  1  0  0  0  0
  8 11  1  0  0  0  0
 11 12  2  0  0  0  0
 11 13  1  0  0  0  0
 13 14  1  0  0  0  0
 13 15  1  0  0  0  0
 14 16  1  0  0  0  0
 14 17  1  0  0  0  0
M  END
>  <CHROM.0>
-56.70051583,-56.10845974,-64.21810169,50.17872429,-48.67069529,-64.00558921
-69.20324328,55.63303251,-167.99753112

>  <CHROM.1>
173.29033107,-23.12713990,123.42261661,135.78736738,3.19285403,11.73491275
5.27455290,-1.37708672,-1.52242337,-0.32717701

>  <Name>
P33491762

>  <RI>
9.71178e+06

>  <Rbt.Current_Directory>
/home/fstefaniak/projects/zuza/docking/adenine/4XNR

>  <Rbt.Executable>
rbdock ($Id: //depot/dev/client3/rdock/2013.1/src/exe/rbdock.cxx#4 $)

>  <Rbt.Library>
libRbt.so (2013.1, Build901 2013/11/27)

>  <Rbt.Parameter_File>
/home/fstefaniak/progs/rDock//data/scripts/dock_solv.prm

>  <Rbt.Receptor>
4xnr.prm

>  <SCORE>
-29.9065

>  <SCORE.INTER>
-16.973

>  <SCORE.INTER.CONST>
1

>  <SCORE.INTER.POLAR>
-3.06764

>  <SCORE.INTER.ROT>
4

>  <SCORE.INTER.SOLV>
8.42043

>  <SCORE.INTER.VDW>
-10.1633

>  <SCORE.INTER.norm>
-1.21236

>  <SCORE.INTRA>
1.68685

>  <SCORE.INTRA.DIHEDRAL>
0.198821

>  <SCORE.INTRA.DIHEDRAL.0>
2.84196

>  <SCORE.INTRA.POLAR>
0.0983013

>  <SCORE.INTRA.POLAR.0>
-0.0983013

>  <SCORE.INTRA.REPUL>
0

>  <SCORE.INTRA.REPUL.0>
0

>  <SCORE.INTRA.SOLV>
-0.222325

>  <SCORE.INTRA.SOLV.lig_0>
-13.5949

>  <SCORE.INTRA.VDW>
1.36438

>  <SCORE.INTRA.VDW.0>
2.75756

>  <SCORE.INTRA.norm>
0.12049

>  <SCORE.RESTR>
1.70884

>  <SCORE.RESTR.CAVITY>
1.70884

>  <SCORE.RESTR.norm>
0.12206

>  <SCORE.SYSTEM>
-16.3292

>  <SCORE.SYSTEM.CONST>
0

>  <SCORE.SYSTEM.DIHEDRAL>
4.53126

>  <SCORE.SYSTEM.POLAR>
-2.47589

>  <SCORE.SYSTEM.SOLV>
0.0706552

>  <SCORE.SYSTEM.VDW>
-4.16711

>  <SCORE.SYSTEM.norm>
-1.16637

>  <SCORE.heavy>
14

>  <SCORE.norm>
-2.13618

$$$$
P38900066
 OpenBabel12072022113D
libRbt.so/2013.1/901 2013/11/27
 10 10  0  0  0  0  0  0  0  0999 V2000
    6.9505   19.5723    4.8970 C   0  0  0  0  0  0  0  0  0  0  0  0
    6.9165   18.9870    6.3047 C   0  0  0  0  0  0  0  0  0  0  0  0
    5.5730   18.3299    6.5862 C   0  0  0  0  0  0  0  0  0  0  0  0
    5.1424   17.5314    5.4372 N   0  3  0  0  0  0  0  0  0  0  0  0
    4.3567   16.8556    5.5263 H   0  0  0  0  0  0  0  0  0  0  0  0
    5.5737   17.5688    4.2255 C   0  0  0  0  0  0  0  0  0  0  0  0
    6.7199   18.4672    3.8711 C   0  0  0  0  0  0  0  0  0  0  0  0
    4.9079   16.6466    3.2635 C   0  0  0  0  0  0  0  0  0  0  0  0
    3.9479   15.9713    3.6998 O   0  0  0  0  0  0  0  0  0  0  0  0
    5.4459   16.7146    2.1190 O   0  5  0  0  0  0  0  0  0  0  0  0
  1  2  1  0  0  0  0
  1  7  1  0  0  0  0
  2  3  1  0  0  0  0
  3  4  1  0  0  0  0
  4  5  1  0  0  0  0
  4  6  2  0  0  0  0
  6  7  1  0  0  0  0
  6  8  1  0  0  0  0
  8  9  2  0  0  0  0
  8 10  1  0  0  0  0
M  CHG  2   4   1  10  -1
M  END
>  <CHROM.0>
-60.78652577,-62.39058832,-69.40395176,-46.76634651,-61.17167056,-63.98738839
-67.87050761,-58.04624680,-168.09948507

>  <CHROM.1>
3.56796773,5.65937169,17.72394553,4.47199434,-0.95102097,-0.74400148,-1.84798406

>  <Name>
P38900066

>  <RI>
4.17015e+07

>  <Rbt.Current_Directory>
/home/fstefaniak/projects/zuza/docking/adenine/4XNR

>  <Rbt.Executable>
rbdock ($Id: //depot/dev/client3/rdock/2013.1/src/exe/rbdock.cxx#4 $)

>  <Rbt.Library>
libRbt.so (2013.1, Build901 2013/11/27)

>  <Rbt.Parameter_File>
/home/fstefaniak/progs/rDock//data/scripts/dock_solv.prm

>  <Rbt.Receptor>
4xnr.prm

>  <SCORE>
-40.9076

>  <SCORE.INTER>
-19.8948

>  <SCORE.INTER.CONST>
1

>  <SCORE.INTER.POLAR>
-2.58923

>  <SCORE.INTER.ROT>
1

>  <SCORE.INTER.SOLV>
22.4839

>  <SCORE.INTER.VDW>
-16.3937

>  <SCORE.INTER.norm>
-2.21053

>  <SCORE.INTRA>
-0.0729436

>  <SCORE.INTRA.DIHEDRAL>
0.00861854

>  <SCORE.INTRA.DIHEDRAL.0>
0.0122702

>  <SCORE.INTRA.POLAR>
0

>  <SCORE.INTRA.POLAR.0>
0

>  <SCORE.INTRA.REPUL>
0

>  <SCORE.INTRA.REPUL.0>
0

>  <SCORE.INTRA.SOLV>
-0.205203

>  <SCORE.INTRA.SOLV.lig_0>
-47.0325

>  <SCORE.INTRA.VDW>
0.0253488

>  <SCORE.INTRA.VDW.0>
0.280464

>  <SCORE.INTRA.norm>
-0.00810485

>  <SCORE.RESTR>
0

>  <SCORE.RESTR.CAVITY>
0

>  <SCORE.RESTR.norm>
0

>  <SCORE.SYSTEM>
-20.9399

>  <SCORE.SYSTEM.CONST>
0

>  <SCORE.SYSTEM.DIHEDRAL>
4.37024

>  <SCORE.SYSTEM.POLAR>
-2.97173

>  <SCORE.SYSTEM.SOLV>
0.270529

>  <SCORE.SYSTEM.VDW>
-5.60105

>  <SCORE.SYSTEM.norm>
-2.32665

>  <SCORE.heavy>
9

>  <SCORE.norm>
-4.54529

$$$$
P38900066
 OpenBabel12072022113D
libRbt.so/2013.1/901 2013/11/27
 10 10  0  0  0  0  0  0  0  0999 V2000
    6.9283   19.6011    4.9016 C   0  0  0  0  0  0  0  0  0  0  0  0
    6.9174   18.9969    6.3016 C   0  0  0  0  0  0  0  0  0  0  0  0
    5.5836   18.3236    6.5909 C   0  0  0  0  0  0  0  0  0  0  0  0
    5.1460   17.5364    5.4367 N   0  3  0  0  0  0  0  0  0  0  0  0
    4.3676   16.8523    5.5266 H   0  0  0  0  0  0  0  0  0  0  0  0
    5.5616   17.5940    4.2204 C   0  0  0  0  0  0  0  0  0  0  0  0
    6.6949   18.5077    3.8638 C   0  0  0  0  0  0  0  0  0  0  0  0
    4.8922   16.6786    3.2545 C   0  0  0  0  0  0  0  0  0  0  0  0
    3.9120   16.0259    3.6803 O   0  0  0  0  0  0  0  0  0  0  0  0
    5.4491   16.7275    2.1181 O   0  5  0  0  0  0  0  0  0  0  0  0
  1  2  1  0  0  0  0
  1  7  1  0  0  0  0
  2  3  1  0  0  0  0
  3  4  1  0  0  0  0
  4  5  1  0  0  0  0
  4  6  2  0  0  0  0
  6  7  1  0  0  0  0
  6  8  1  0  0  0  0
  8  9  2  0  0  0  0
  8 10  1  0  0  0  0
M  CHG  2   4   1  10  -1
M  END
>  <CHROM.0>
-62.02893779,-60.23201495,-69.02392299,-46.62937925,-59.52223876,-61.35665039
-68.58757343,-61.69747717,-168.03815535

>  <CHROM.1>
6.17510596,5.64917468,17.74641632,4.46792499,-0.94616847,-0.74420193,-1.83789815

>  <Name>
P38900066

>  <RI>
4.17015e+07

>  <Rbt.Current_Directory>
/home/fstefaniak/projects/zuza/docking/adenine/4XNR

>  <Rbt.Executable>
rbdock ($Id: //depot/dev/client3/rdock/2013.1/src/exe/rbdock.cxx#4 $)

>  <Rbt.Library>
libRbt.so (2013.1, Build901 2013/11/27)

>  <Rbt.Parameter_File>
/home/fstefaniak/progs/rDock//data/scripts/dock_solv.prm

>  <Rbt.Receptor>
4xnr.prm

>  <SCORE>
-40.8972

>  <SCORE.INTER>
-19.9228

>  <SCORE.INTER.CONST>
1

>  <SCORE.INTER.POLAR>
-2.59699

>  <SCORE.INTER.ROT>
1

>  <SCORE.INTER.SOLV>
22.3988

>  <SCORE.INTER.VDW>
-16.3582

>  <SCORE.INTER.norm>
-2.21365

>  <SCORE.INTRA>
-0.0519025

>  <SCORE.INTRA.DIHEDRAL>
0.0701197

>  <SCORE.INTRA.DIHEDRAL.0>
0.0122702

>  <SCORE.INTRA.POLAR>
0

>  <SCORE.INTRA.POLAR.0>
0

>  <SCORE.INTRA.REPUL>
0

>  <SCORE.INTRA.REPUL.0>
0

>  <SCORE.INTRA.SOLV>
-0.210953

>  <SCORE.INTRA.SOLV.lig_0>
-47.0325

>  <SCORE.INTRA.VDW>
0.0185142

>  <SCORE.INTRA.VDW.0>
0.280464

>  <SCORE.INTRA.norm>
-0.00576695

>  <SCORE.RESTR>
0

>  <SCORE.RESTR.CAVITY>
0

>  <SCORE.RESTR.norm>
0

>  <SCORE.SYSTEM>
-20.9225

>  <SCORE.SYSTEM.CONST>
0

>  <SCORE.SYSTEM.DIHEDRAL>
4.32969

>  <SCORE.SYSTEM.POLAR>
-2.96629

>  <SCORE.SYSTEM.SOLV>
0.271482

>  <SCORE.SYSTEM.VDW>
-5.59444

>  <SCORE.SYSTEM.norm>
-2.32472

>  <SCORE.heavy>
9

>  <SCORE.norm>
-4.54414

$$$$
P38900066
 OpenBabel12072022113D
libRbt.so/2013.1/901 2013/11/27
 10 10  0  0  0  0  0  0  0  0999 V2000
    6.8473   19.6166    4.9309 C   0  0  0  0  0  0  0  0  0  0  0  0
    6.8767   18.9910    6.3212 C   0  0  0  0  0  0  0  0  0  0  0  0
    5.5677   18.2749    6.6210 C   0  0  0  0  0  0  0  0  0  0  0  0
    5.1341   17.4931    5.4617 N   0  3  0  0  0  0  0  0  0  0  0  0
    4.3774   16.7853    5.5530 H   0  0  0  0  0  0  0  0  0  0  0  0
    5.5281   17.5814    4.2400 C   0  0  0  0  0  0  0  0  0  0  0  0
    6.6287   18.5329    3.8799 C   0  0  0  0  0  0  0  0  0  0  0  0
    4.8697   16.6617    3.2705 C   0  0  0  0  0  0  0  0  0  0  0  0
    3.8959   15.9974    3.6931 O   0  0  0  0  0  0  0  0  0  0  0  0
    5.4275   16.7199    2.1350 O   0  5  0  0  0  0  0  0  0  0  0  0
  1  2  1  0  0  0  0
  1  7  1  0  0  0  0
  2  3  1  0  0  0  0
  3  4  1  0  0  0  0
  4  5  1  0  0  0  0
  4  6  2  0  0  0  0
  6  7  1  0  0  0  0
  6  8  1  0  0  0  0
  8  9  2  0  0  0  0
  8 10  1  0  0  0  0
M  CHG  2   4   1  10  -1
M  END
>  <CHROM.0>
-57.80518578,-61.79358129,-67.08822586,-48.43662889,-58.87696873,-64.15193990
-68.32642379,-61.26989840,-168.22033374

>  <CHROM.1>
7.79091872,5.61543047,17.73225950,4.48847498,-0.94022902,-0.76887579,-1.82236881

>  <Name>
P38900066

>  <RI>
4.17015e+07

>  <Rbt.Current_Directory>
/home/fstefaniak/projects/zuza/docking/adenine/4XNR

>  <Rbt.Executable>
rbdock ($Id: //depot/dev/client3/rdock/2013.1/src/exe/rbdock.cxx#4 $)

>  <Rbt.Library>
libRbt.so (2013.1, Build901 2013/11/27)

>  <Rbt.Parameter_File>
/home/fstefaniak/progs/rDock//data/scripts/dock_solv.prm

>  <Rbt.Receptor>
4xnr.prm

>  <SCORE>
-40.897

>  <SCORE.INTER>
-19.8939

>  <SCORE.INTER.CONST>
1

>  <SCORE.INTER.POLAR>
-2.57033

>  <SCORE.INTER.ROT>
1

>  <SCORE.INTER.SOLV>
22.5646

>  <SCORE.INTER.VDW>
-16.4831

>  <SCORE.INTER.norm>
-2.21044

>  <SCORE.INTRA>
-0.0308812

>  <SCORE.INTRA.DIHEDRAL>
0.131605

>  <SCORE.INTRA.DIHEDRAL.0>
0.0122702

>  <SCORE.INTRA.POLAR>
0

>  <SCORE.INTRA.POLAR.0>
0

>  <SCORE.INTRA.REPUL>
0

>  <SCORE.INTRA.REPUL.0>
0

>  <SCORE.INTRA.SOLV>
-0.215672

>  <SCORE.INTRA.SOLV.lig_0>
-47.0325

>  <SCORE.INTRA.VDW>
0.0111527

>  <SCORE.INTRA.VDW.0>
0.280464

>  <SCORE.INTRA.norm>
-0.00343124

>  <SCORE.RESTR>
0

>  <SCORE.RESTR.CAVITY>
0

>  <SCORE.RESTR.norm>
0

>  <SCORE.SYSTEM>
-20.9721

>  <SCORE.SYSTEM.CONST>
0

>  <SCORE.SYSTEM.DIHEDRAL>
4.03946

>  <SCORE.SYSTEM.POLAR>
-2.96604

>  <SCORE.SYSTEM.SOLV>
0.273639

>  <SCORE.SYSTEM.VDW>
-5.53234

>  <SCORE.SYSTEM.norm>
-2.33024

>  <SCORE.heavy>
9

>  <SCORE.norm>
-4.54411

$$$$
P41974730
 OpenBabel12072022113D
libRbt.so/2013.1/901 2013/11/27
 14 14  0  0  0  0  0  0  0  0999 V2000
    0.9759   13.7238    3.7358 C   0  0  0  0  0  0  0  0  0  0  0  0
    1.4690   14.9699    4.4840 C   0  0  0  0  0  0  0  0  0  0  0  0
    2.7693   15.2899    3.7786 C   0  0  0  0  0  0  0  0  0  0  0  0
    3.4622   16.4143    3.9966 C   0  0  0  0  0  0  0  0  0  0  0  0
    4.7686   16.6946    3.3465 C   0  0  0  0  0  0  0  0  0  0  0  0
    5.1939   16.1168    2.3511 O   0  0  0  0  0  0  0  0  0  0  0  0
    5.6429   17.7697    4.0116 C   0  0  0  0  0  0  0  0  0  0  0  0
    6.5394   18.3436    3.4156 O   0  0  0  0  0  0  0  0  0  0  0  0
    5.3220   18.0245    5.3173 N   0  0  0  0  0  0  0  0  0  0  0  0
    3.0815   14.2367    2.9534 N   0  0  0  0  0  0  0  0  0  0  0  0
    2.2482   13.0782    3.1838 C   0  0  0  0  0  0  0  0  0  0  0  0
    4.5566   17.5206    5.7527 H   0  0  0  0  0  0  0  0  0  0  0  0
    5.8345   18.7237    5.8342 H   0  0  0  0  0  0  0  0  0  0  0  0
    4.0595   14.1363    2.6772 H   0  0  0  0  0  0  0  0  0  0  0  0
  1  2  1  0  0  0  0
  1 11  1  0  0  0  0
  2  3  1  0  0  0  0
  3  4  2  0  0  0  0
  3 10  1  0  0  0  0
  4  5  1  0  0  0  0
  5  6  2  0  0  0  0
  5  7  1  0  0  0  0
  7  8  2  0  0  0  0
  7  9  1  0  0  0  0
  9 12  1  0  0  0  0
  9 13  1  0  0  0  0
 10 11  1  0  0  0  0
 10 14  1  0  0  0  0
M  END
>  <CHROM.0>
-54.96539683,-62.37778479,-66.09792831,-46.14003331,-175.64555528,-65.15209679
-67.08886333,-57.87674723,-167.55073390

>  <CHROM.1>
17.53013063,-159.98063365,3.82190728,15.89962354,3.68580359,2.58760860,-0.57622270
-2.33750179

>  <Name>
P41974730

>  <RI>
1.00763e+07

>  <Rbt.Current_Directory>
/home/fstefaniak/projects/zuza/docking/adenine/4XNR

>  <Rbt.Executable>
rbdock ($Id: //depot/dev/client3/rdock/2013.1/src/exe/rbdock.cxx#4 $)

>  <Rbt.Library>
libRbt.so (2013.1, Build901 2013/11/27)

>  <Rbt.Parameter_File>
/home/fstefaniak/progs/rDock//data/scripts/dock_solv.prm

>  <Rbt.Receptor>
4xnr.prm

>  <SCORE>
-45.4376

>  <SCORE.INTER>
-26.3316

>  <SCORE.INTER.CONST>
1

>  <SCORE.INTER.POLAR>
-3.06012

>  <SCORE.INTER.ROT>
2

>  <SCORE.INTER.SOLV>
10.7611

>  <SCORE.INTER.VDW>
-15.8744

>  <SCORE.INTER.norm>
-2.39378

>  <SCORE.INTRA>
1.81173

>  <SCORE.INTRA.DIHEDRAL>
2.36709

>  <SCORE.INTRA.DIHEDRAL.0>
0.161203

>  <SCORE.INTRA.POLAR>
0

>  <SCORE.INTRA.POLAR.0>
0

>  <SCORE.INTRA.REPUL>
0

>  <SCORE.INTRA.REPUL.0>
0

>  <SCORE.INTRA.SOLV>
-0.0288425

>  <SCORE.INTRA.SOLV.lig_0>
-17.802

>  <SCORE.INTRA.VDW>
0.642602

>  <SCORE.INTRA.VDW.0>
-0.434368

>  <SCORE.INTRA.norm>
0.164703

>  <SCORE.RESTR>
0

>  <SCORE.RESTR.CAVITY>
0

>  <SCORE.RESTR.norm>
0

>  <SCORE.SYSTEM>
-20.9178

>  <SCORE.SYSTEM.CONST>
0

>  <SCORE.SYSTEM.DIHEDRAL>
4.46478

>  <SCORE.SYSTEM.POLAR>
-3.03141

>  <SCORE.SYSTEM.SOLV>
0.114541

>  <SCORE.SYSTEM.VDW>
-5.36691

>  <SCORE.SYSTEM.norm>
-1.90161

>  <SCORE.heavy>
11

>  <SCORE.norm>
-4.13069

$$$$
P41974730
 OpenBabel12072022113D
libRbt.so/2013.1/901 2013/11/27
 14 14  0  0  0  0  0  0  0  0999 V2000
    0.9920   13.6885    3.7632 C   0  0  0  0  0  0  0  0  0  0  0  0
    1.4559   14.9576    4.4910 C   0  0  0  0  0  0  0  0  0  0  0  0
    2.7434   15.3019    3.7737 C   0  0  0  0  0  0  0  0  0  0  0  0
    3.4074   16.4472    3.9720 C   0  0  0  0  0  0  0  0  0  0  0  0
    4.7024   16.7527    3.3105 C   0  0  0  0  0  0  0  0  0  0  0  0
    5.1075   16.2179    2.2832 O   0  0  0  0  0  0  0  0  0  0  0  0
    5.5920   17.7959    4.0054 C   0  0  0  0  0  0  0  0  0  0  0  0
    6.4625   18.4114    3.4124 O   0  0  0  0  0  0  0  0  0  0  0  0
    5.3161   17.9723    5.3342 N   0  0  0  0  0  0  0  0  0  0  0  0
    3.0790   14.2458    2.9615 N   0  0  0  0  0  0  0  0  0  0  0  0
    2.2779   13.0690    3.2129 C   0  0  0  0  0  0  0  0  0  0  0  0
    4.5704   17.4372    5.7664 H   0  0  0  0  0  0  0  0  0  0  0  0
    5.8417   18.6454    5.8722 H   0  0  0  0  0  0  0  0  0  0  0  0
    4.0578   14.1674    2.6811 H   0  0  0  0  0  0  0  0  0  0  0  0
  1  2  1  0  0  0  0
  1 11  1  0  0  0  0
  2  3  1  0  0  0  0
  3  4  2  0  0  0  0
  3 10  1  0  0  0  0
  4  5  1  0  0  0  0
  5  6  2  0  0  0  0
  5  7  1  0  0  0  0
  7  8  2  0  0  0  0
  7  9  1  0  0  0  0
  9 12  1  0  0  0  0
  9 13  1  0  0  0  0
 10 11  1  0  0  0  0
 10 14  1  0  0  0  0
M  END
>  <CHROM.0>
-62.46929284,-64.51041394,-67.74087317,-48.24081393,-61.32131833,-62.98000792
-67.71685668,-61.30989473,-167.35094494

>  <CHROM.1>
21.30036821,-158.57690108,3.79152238,15.91750708,3.68110622,2.60344208,-0.60883760
-2.30567934

>  <Name>
P41974730

>  <RI>
1.00763e+07

>  <Rbt.Current_Directory>
/home/fstefaniak/projects/zuza/docking/adenine/4XNR

>  <Rbt.Executable>
rbdock ($Id: //depot/dev/client3/rdock/2013.1/src/exe/rbdock.cxx#4 $)

>  <Rbt.Library>
libRbt.so (2013.1, Build901 2013/11/27)

>  <Rbt.Parameter_File>
/home/fstefaniak/progs/rDock//data/scripts/dock_solv.prm

>  <Rbt.Receptor>
4xnr.prm

>  <SCORE>
-45.4202

>  <SCORE.INTER>
-26.5501

>  <SCORE.INTER.CONST>
1

>  <SCORE.INTER.POLAR>
-3.07466

>  <SCORE.INTER.ROT>
2

>  <SCORE.INTER.SOLV>
10.7565

>  <SCORE.INTER.VDW>
-15.97

>  <SCORE.INTER.norm>
-2.41365

>  <SCORE.INTRA>
2.07169

>  <SCORE.INTRA.DIHEDRAL>
3.0401

>  <SCORE.INTRA.DIHEDRAL.0>
0.161203

>  <SCORE.INTRA.POLAR>
0

>  <SCORE.INTRA.POLAR.0>
0

>  <SCORE.INTRA.REPUL>
0

>  <SCORE.INTRA.REPUL.0>
0

>  <SCORE.INTRA.SOLV>
-0.0277149

>  <SCORE.INTRA.SOLV.lig_0>
-17.802

>  <SCORE.INTRA.VDW>
0.565498

>  <SCORE.INTRA.VDW.0>
-0.434368

>  <SCORE.INTRA.norm>
0.188335

>  <SCORE.RESTR>
0

>  <SCORE.RESTR.CAVITY>
0

>  <SCORE.RESTR.norm>
0

>  <SCORE.SYSTEM>
-20.9418

>  <SCORE.SYSTEM.CONST>
0

>  <SCORE.SYSTEM.DIHEDRAL>
4.2021

>  <SCORE.SYSTEM.POLAR>
-2.93975

>  <SCORE.SYSTEM.SOLV>
0.263611

>  <SCORE.SYSTEM.VDW>
-5.6506

>  <SCORE.SYSTEM.norm>
-1.9038

>  <SCORE.heavy>
11

>  <SCORE.norm>
-4.12911

$$$$
P41974730
 OpenBabel12072022113D
libRbt.so/2013.1/901 2013/11/27
 14 14  0  0  0  0  0  0  0  0999 V2000
    0.9662   13.6995    3.7418 C   0  0  0  0  0  0  0  0  0  0  0  0
    1.4473   14.9592    4.4746 C   0  0  0  0  0  0  0  0  0  0  0  0
    2.7481   15.2789    3.7699 C   0  0  0  0  0  0  0  0  0  0  0  0
    3.4320   16.4112    3.9751 C   0  0  0  0  0  0  0  0  0  0  0  0
    4.7390   16.6920    3.3262 C   0  0  0  0  0  0  0  0  0  0  0  0
    5.1677   16.1106    2.3344 O   0  0  0  0  0  0  0  0  0  0  0  0
    5.6090   17.7725    3.9879 C   0  0  0  0  0  0  0  0  0  0  0  0
    6.5014   18.3500    3.3893 O   0  0  0  0  0  0  0  0  0  0  0  0
    5.2893   18.0279    5.2938 N   0  0  0  0  0  0  0  0  0  0  0  0
    3.0711   14.2168    2.9604 N   0  0  0  0  0  0  0  0  0  0  0  0
    2.2452   13.0556    3.2035 C   0  0  0  0  0  0  0  0  0  0  0  0
    4.5272   17.5209    5.7315 H   0  0  0  0  0  0  0  0  0  0  0  0
    5.7992   18.7305    5.8086 H   0  0  0  0  0  0  0  0  0  0  0  0
    4.0509   14.1197    2.6894 H   0  0  0  0  0  0  0  0  0  0  0  0
  1  2  1  0  0  0  0
  1 11  1  0  0  0  0
  2  3  1  0  0  0  0
  3  4  2  0  0  0  0
  3 10  1  0  0  0  0
  4  5  1  0  0  0  0
  5  6  2  0  0  0  0
  5  7  1  0  0  0  0
  7  8  2  0  0  0  0
  7  9  1  0  0  0  0
  9 12  1  0  0  0  0
  9 13  1  0  0  0  0
 10 11  1  0  0  0  0
 10 14  1  0  0  0  0
M  END
>  <CHROM.0>
-56.38154785,-61.66824912,-73.25021019,-46.79144722,-177.59139363,-63.61971291
-171.18291474,-61.59679232,-168.11562789

>  <CHROM.1>
18.11737162,-159.66977493,3.79857494,15.89175231,3.67518811,2.58340715,-0.58041567
-2.34743271

>  <Name>
P41974730

>  <RI>
1.00763e+07

>  <Rbt.Current_Directory>
/home/fstefaniak/projects/zuza/docking/adenine/4XNR

>  <Rbt.Executable>
rbdock ($Id: //depot/dev/client3/rdock/2013.1/src/exe/rbdock.cxx#4 $)

>  <Rbt.Library>
libRbt.so (2013.1, Build901 2013/11/27)

>  <Rbt.Parameter_File>
/home/fstefaniak/progs/rDock//data/scripts/dock_solv.prm

>  <Rbt.Receptor>
4xnr.prm

>  <SCORE>
-44.9864

>  <SCORE.INTER>
-26.406

>  <SCORE.INTER.CONST>
1

>  <SCORE.INTER.POLAR>
-3.05647

>  <SCORE.INTER.ROT>
2

>  <SCORE.INTER.SOLV>
10.7615

>  <SCORE.INTER.VDW>
-15.9363

>  <SCORE.INTER.norm>
-2.40055

>  <SCORE.INTRA>
1.85145

>  <SCORE.INTRA.DIHEDRAL>
2.47843

>  <SCORE.INTRA.DIHEDRAL.0>
0.161203

>  <SCORE.INTRA.POLAR>
0

>  <SCORE.INTRA.POLAR.0>
0

>  <SCORE.INTRA.REPUL>
0

>  <SCORE.INTRA.REPUL.0>
0

>  <SCORE.INTRA.SOLV>
-0.0287272

>  <SCORE.INTRA.SOLV.lig_0>
-17.802

>  <SCORE.INTRA.VDW>
0.626597

>  <SCORE.INTRA.VDW.0>
-0.434368

>  <SCORE.INTRA.norm>
0.168314

>  <SCORE.RESTR>
0

>  <SCORE.RESTR.CAVITY>
0

>  <SCORE.RESTR.norm>
0

>  <SCORE.SYSTEM>
-20.4319

>  <SCORE.SYSTEM.CONST>
0

>  <SCORE.SYSTEM.DIHEDRAL>
4.85435

>  <SCORE.SYSTEM.POLAR>
-2.98522

>  <SCORE.SYSTEM.SOLV>
0.0529017

>  <SCORE.SYSTEM.VDW>
-5.30625

>  <SCORE.SYSTEM.norm>
-1.85744

>  <SCORE.heavy>
11

>  <SCORE.norm>
-4.08967

$$$$
P43850240
 OpenBabel12072022113D
libRbt.so/2013.1/901 2013/11/27
 16 16  0  0  0  0  0  0  0  0999 V2000
    5.3445   17.8684    4.0478 C   0  0  0  0  0  0  0  0  0  0  0  0
    4.7946   16.8381    3.0938 C   0  0  0  0  0  0  0  0  0  0  0  0
    5.2815   16.7200    1.9687 O   0  0  0  0  0  0  0  0  0  0  0  0
    3.7487   16.0360    3.5518 N   0  0  0  0  0  0  0  0  0  0  0  0
    2.4375   16.6704    3.6708 C   0  0  0  0  0  0  0  0  0  0  0  0
    1.2989   15.6676    3.5337 C   0  0  0  0  0  0  0  0  0  0  0  0
    1.4754   14.4875    4.4830 C   0  0  0  0  0  0  0  0  0  0  0  0
    2.8380   13.8224    4.2612 C   0  0  1  0  0  0  0  0  0  0  0  0
    3.9681   14.8505    4.3888 C   0  0  0  0  0  0  0  0  0  0  0  0
    3.0653   12.6822    5.2433 C   0  0  0  0  0  0  0  0  0  0  0  0
    3.2459   11.5163    4.8979 O   0  0  0  0  0  0  0  0  0  0  0  0
    3.0327   13.0702    6.5768 N   0  0  0  0  0  0  0  0  0  0  0  0
    3.2680   12.1141    7.5857 N   0  0  0  0  0  0  0  0  0  0  0  0
    2.9017   14.0433    6.8461 H   0  0  0  0  0  0  0  0  0  0  0  0
    2.6951   12.3832    8.3966 H   0  0  0  0  0  0  0  0  0  0  0  0
    4.2253   12.2539    7.9260 H   0  0  0  0  0  0  0  0  0  0  0  0
  1  2  1  0  0  0  0
  2  3  2  0  0  0  0
  2  4  1  0  0  0  0
  4  5  1  0  0  0  0
  4  9  1  0  0  0  0
  5  6  1  0  0  0  0
  6  7  1  0  0  0  0
  7  8  1  0  0  0  0
  8  9  1  0  0  0  0
  8 10  1  1  0  0  0
 10 11  2  0  0  0  0
 10 12  1  0  0  0  0
 12 13  1  0  0  0  0
 12 14  1  0  0  0  0
 13 15  1  0  0  0  0
 13 16  1  0  0  0  0
M  END
>  <CHROM.0>
-57.46644459,-175.16391733,-69.60538741,-44.28091487,-61.47002775,-54.90184834
-64.94003633,-61.09238433,-167.59402288

>  <CHROM.1>
73.37542659,119.44588308,-147.08013684,3.38810145,14.77332074,4.44484402
-1.30580022,0.19239985,2.50154542

>  <Name>
P43850240

>  <RI>
9.71178e+06

>  <Rbt.Current_Directory>
/home/fstefaniak/projects/zuza/docking/adenine/4XNR

>  <Rbt.Executable>
rbdock ($Id: //depot/dev/client3/rdock/2013.1/src/exe/rbdock.cxx#4 $)

>  <Rbt.Library>
libRbt.so (2013.1, Build901 2013/11/27)

>  <Rbt.Parameter_File>
/home/fstefaniak/progs/rDock//data/scripts/dock_solv.prm

>  <Rbt.Receptor>
4xnr.prm

>  <SCORE>
-49.1021

>  <SCORE.INTER>
-25.4655

>  <SCORE.INTER.CONST>
1

>  <SCORE.INTER.POLAR>
-3.06009

>  <SCORE.INTER.ROT>
3

>  <SCORE.INTER.SOLV>
14.2015

>  <SCORE.INTER.VDW>
-17.1105

>  <SCORE.INTER.norm>
-1.95888

>  <SCORE.INTRA>
-3.11241

>  <SCORE.INTRA.DIHEDRAL>
0.0253746

>  <SCORE.INTRA.DIHEDRAL.0>
1.53072

>  <SCORE.INTRA.POLAR>
0

>  <SCORE.INTRA.POLAR.0>
0

>  <SCORE.INTRA.REPUL>
0

>  <SCORE.INTRA.REPUL.0>
0

>  <SCORE.INTRA.SOLV>
-0.00885275

>  <SCORE.INTRA.SOLV.lig_0>
-21.8215

>  <SCORE.INTRA.VDW>
-3.12067

>  <SCORE.INTRA.VDW.0>
2.81377

>  <SCORE.INTRA.norm>
-0.239416

>  <SCORE.RESTR>
0

>  <SCORE.RESTR.CAVITY>
0

>  <SCORE.RESTR.norm>
0

>  <SCORE.SYSTEM>
-20.5242

>  <SCORE.SYSTEM.CONST>
0

>  <SCORE.SYSTEM.DIHEDRAL>
4.73241

>  <SCORE.SYSTEM.POLAR>
-3.04603

>  <SCORE.SYSTEM.SOLV>
0.275687

>  <SCORE.SYSTEM.VDW>
-5.19875

>  <SCORE.SYSTEM.norm>
-1.57879

>  <SCORE.heavy>
13

>  <SCORE.norm>
-3.77708

$$$$
P43850240
 OpenBabel12072022113D
libRbt.so/2013.1/901 2013/11/27
 16 16  0  0  0  0  0  0  0  0999 V2000
    3.2250   12.4122    6.0426 C   0  0  0  0  0  0  0  0  0  0  0  0
    3.2894   12.7683    4.5787 C   0  0  0  0  0  0  0  0  0  0  0  0
    3.2632   11.8786    3.7276 O   0  0  0  0  0  0  0  0  0  0  0  0
    3.3568   14.1234    4.2525 N   0  0  0  0  0  0  0  0  0  0  0  0
    2.1145   14.7567    3.8149 C   0  0  0  0  0  0  0  0  0  0  0  0
    2.0995   16.2527    4.1021 C   0  0  0  0  0  0  0  0  0  0  0  0
    3.3430   16.9410    3.5497 C   0  0  0  0  0  0  0  0  0  0  0  0
    4.6100   16.2772    4.0996 C   0  0  1  0  0  0  0  0  0  0  0  0
    4.5985   14.7711    3.8134 C   0  0  0  0  0  0  0  0  0  0  0  0
    5.8653   16.9042    3.5103 C   0  0  0  0  0  0  0  0  0  0  0  0
    6.3734   16.5375    2.4527 O   0  0  0  0  0  0  0  0  0  0  0  0
    6.4048   17.9234    4.2850 N   0  0  0  0  0  0  0  0  0  0  0  0
    7.5475   18.6126    3.8303 N   0  0  0  0  0  0  0  0  0  0  0  0
    5.9609   18.2289    5.1488 H   0  0  0  0  0  0  0  0  0  0  0  0
    8.3045   17.9210    3.7476 H   0  0  0  0  0  0  0  0  0  0  0  0
    7.8701   19.2138    4.5960 H   0  0  0  0  0  0  0  0  0  0  0  0
  1  2  1  0  0  0  0
  2  3  2  0  0  0  0
  2  4  1  0  0  0  0
  4  5  1  0  0  0  0
  4  9  1  0  0  0  0
  5  6  1  0  0  0  0
  6  7  1  0  0  0  0
  7  8  1  0  0  0  0
  8  9  1  0  0  0  0
  8 10  1  6  0  0  0
 10 11  2  0  0  0  0
 10 12  1  0  0  0  0
 12 13  1  0  0  0  0
 12 14  1  0  0  0  0
 13 15  1  0  0  0  0
 13 16  1  0  0  0  0
M  END
>  <CHROM.0>
-63.45209778,-65.54178032,-67.37520690,-48.21967991,-64.64711965,-65.06003793
-70.06013790,-61.25143970,-168.07123989

>  <CHROM.1>
-100.93524184,-87.14604535,-61.44751093,4.36169830,15.41212191,4.00280488
-2.20149864,0.03065168,-0.16362667

>  <Name>
P43850240

>  <RI>
9.71178e+06

>  <Rbt.Current_Directory>
/home/fstefaniak/projects/zuza/docking/adenine/4XNR

>  <Rbt.Executable>
rbdock ($Id: //depot/dev/client3/rdock/2013.1/src/exe/rbdock.cxx#4 $)

>  <Rbt.Library>
libRbt.so (2013.1, Build901 2013/11/27)

>  <Rbt.Parameter_File>
/home/fstefaniak/progs/rDock//data/scripts/dock_solv.prm

>  <Rbt.Receptor>
4xnr.prm

>  <SCORE>
-46.7351

>  <SCORE.INTER>
-23.0671

>  <SCORE.INTER.CONST>
1

>  <SCORE.INTER.POLAR>
-2.76721

>  <SCORE.INTER.ROT>
3

>  <SCORE.INTER.SOLV>
13.0388

>  <SCORE.INTER.VDW>
-16.1003

>  <SCORE.INTER.norm>
-1.77439

>  <SCORE.INTRA>
-2.7277

>  <SCORE.INTRA.DIHEDRAL>
2.03425

>  <SCORE.INTRA.DIHEDRAL.0>
1.53072

>  <SCORE.INTRA.POLAR>
0

>  <SCORE.INTRA.POLAR.0>
0

>  <SCORE.INTRA.REPUL>
0

>  <SCORE.INTRA.REPUL.0>
0

>  <SCORE.INTRA.SOLV>
-0.325425

>  <SCORE.INTRA.SOLV.lig_0>
-21.8215

>  <SCORE.INTRA.VDW>
-3.58211

>  <SCORE.INTRA.VDW.0>
2.81377

>  <SCORE.INTRA.norm>
-0.209823

>  <SCORE.RESTR>
0

>  <SCORE.RESTR.CAVITY>
0

>  <SCORE.RESTR.norm>
0

>  <SCORE.SYSTEM>
-20.9403

>  <SCORE.SYSTEM.CONST>
0

>  <SCORE.SYSTEM.DIHEDRAL>
4.52927

>  <SCORE.SYSTEM.POLAR>
-2.93499

>  <SCORE.SYSTEM.SOLV>
0.245645

>  <SCORE.SYSTEM.VDW>
-5.76853

>  <SCORE.SYSTEM.norm>
-1.61079

>  <SCORE.heavy>
13

>  <SCORE.norm>
-3.59501

$$$$
P43850240
 OpenBabel12072022113D
libRbt.so/2013.1/901 2013/11/27
 16 16  0  0  0  0  0  0  0  0999 V2000
    3.1912   11.8467    3.8340 C   0  0  0  0  0  0  0  0  0  0  0  0
    3.2055   12.9314    4.8815 C   0  0  0  0  0  0  0  0  0  0  0  0
    3.1643   12.6337    6.0758 O   0  0  0  0  0  0  0  0  0  0  0  0
    3.2872   14.2509    4.4348 N   0  0  0  0  0  0  0  0  0  0  0  0
    2.0655   14.8357    3.8860 C   0  0  0  0  0  0  0  0  0  0  0  0
    2.0374   16.3518    4.0328 C   0  0  0  0  0  0  0  0  0  0  0  0
    3.3041   16.9916    3.4748 C   0  0  0  0  0  0  0  0  0  0  0  0
    4.5455   16.3868    4.1392 C   0  0  1  0  0  0  0  0  0  0  0  0
    4.5471   14.8607    3.9931 C   0  0  0  0  0  0  0  0  0  0  0  0
    5.8256   16.9622    3.5507 C   0  0  0  0  0  0  0  0  0  0  0  0
    6.3256   16.5668    2.4994 O   0  0  0  0  0  0  0  0  0  0  0  0
    6.3976   17.9689    4.3182 N   0  0  0  0  0  0  0  0  0  0  0  0
    7.5668   18.6118    3.8630 N   0  0  0  0  0  0  0  0  0  0  0  0
    5.9607   18.2989    5.1765 H   0  0  0  0  0  0  0  0  0  0  0  0
    8.2962   17.8909    3.7824 H   0  0  0  0  0  0  0  0  0  0  0  0
    7.9122   19.2016    4.6276 H   0  0  0  0  0  0  0  0  0  0  0  0
  1  2  1  0  0  0  0
  2  3  2  0  0  0  0
  2  4  1  0  0  0  0
  4  5  1  0  0  0  0
  4  9  1  0  0  0  0
  5  6  1  0  0  0  0
  6  7  1  0  0  0  0
  7  8  1  0  0  0  0
  8  9  1  0  0  0  0
  8 10  1  6  0  0  0
 10 11  2  0  0  0  0
 10 12  1  0  0  0  0
 12 13  1  0  0  0  0
 12 14  1  0  0  0  0
 13 15  1  0  0  0  0
 13 16  1  0  0  0  0
M  END
>  <CHROM.0>
-58.75221322,-60.62411233,-73.66682045,-47.42249346,-59.21837364,-66.55205331
-172.12900964,-57.60537799,-168.11119074

>  <CHROM.1>
76.37249693,-81.46911366,-60.90604104,4.31431218,15.49328543,4.08279875,-2.21607258
-0.01814277,-0.22624265

>  <Name>
P43850240

>  <RI>
9.71178e+06

>  <Rbt.Current_Directory>
/home/fstefaniak/projects/zuza/docking/adenine/4XNR

>  <Rbt.Executable>
rbdock ($Id: //depot/dev/client3/rdock/2013.1/src/exe/rbdock.cxx#4 $)

>  <Rbt.Library>
libRbt.so (2013.1, Build901 2013/11/27)

>  <Rbt.Parameter_File>
/home/fstefaniak/progs/rDock//data/scripts/dock_solv.prm

>  <Rbt.Receptor>
4xnr.prm

>  <SCORE>
-46.1417

>  <SCORE.INTER>
-23.7918

>  <SCORE.INTER.CONST>
1

>  <SCORE.INTER.POLAR>
-2.76886

>  <SCORE.INTER.ROT>
3

>  <SCORE.INTER.SOLV>
13.4213

>  <SCORE.INTER.VDW>
-16.7054

>  <SCORE.INTER.norm>
-1.83014

>  <SCORE.INTRA>
-2.02917

>  <SCORE.INTRA.DIHEDRAL>
2.48794

>  <SCORE.INTRA.DIHEDRAL.0>
1.53072

>  <SCORE.INTRA.POLAR>
0

>  <SCORE.INTRA.POLAR.0>
0

>  <SCORE.INTRA.REPUL>
0

>  <SCORE.INTRA.REPUL.0>
0

>  <SCORE.INTRA.SOLV>
-0.36575

>  <SCORE.INTRA.SOLV.lig_0>
-21.8215

>  <SCORE.INTRA.VDW>
-3.09026

>  <SCORE.INTRA.VDW.0>
2.81377

>  <SCORE.INTRA.norm>
-0.15609

>  <SCORE.RESTR>
0.0141435

>  <SCORE.RESTR.CAVITY>
0.0141435

>  <SCORE.RESTR.norm>
0.00108796

>  <SCORE.SYSTEM>
-20.3349

>  <SCORE.SYSTEM.CONST>
0

>  <SCORE.SYSTEM.DIHEDRAL>
4.82037

>  <SCORE.SYSTEM.POLAR>
-2.95799

>  <SCORE.SYSTEM.SOLV>
0.219883

>  <SCORE.SYSTEM.VDW>
-5.37676

>  <SCORE.SYSTEM.norm>
-1.56423

>  <SCORE.heavy>
13

>  <SCORE.norm>
-3.54936

$$$$
P49788671
 OpenBabel12072022113D
libRbt.so/2013.1/901 2013/11/27
 16 16  0  0  0  0  0  0  0  0999 V2000
    3.4257   15.5671    3.2384 C   0  0  0  0  0  0  0  0  0  0  0  0
    4.2160   14.4207    3.8555 C   0  0  0  0  0  0  0  0  0  0  0  0
    3.4963   13.1093    4.1740 C   0  0  0  0  0  0  0  0  0  0  0  0
    2.5104   12.5416    3.1413 C   0  0  1  0  0  0  0  0  0  0  0  0
    1.0148   12.7944    3.4346 C   0  0  2  0  0  0  0  0  0  0  0  0
    0.5205   14.2612    3.3783 C   0  0  1  0  0  0  0  0  0  0  0  0
    1.1190   15.1965    4.4629 C   0  0  1  0  0  0  0  0  0  0  0  0
    2.2606   16.1271    4.0417 C   0  0  0  0  0  0  0  0  0  0  0  0
    0.0982   16.0850    4.9688 O   0  0  0  0  0  0  0  0  0  0  0  0
    0.6380   14.8120    2.0644 O   0  0  0  0  0  0  0  0  0  0  0  0
    0.6067   12.1492    4.6472 O   0  0  0  0  0  0  0  0  0  0  0  0
    2.8224   12.9651    1.8170 O   0  0  0  0  0  0  0  0  0  0  0  0
    0.3078   16.3091    5.8910 H   0  0  0  0  0  0  0  0  0  0  0  0
    0.1859   15.6813    2.0641 H   0  0  0  0  0  0  0  0  0  0  0  0
    0.7358   11.1901    4.5762 H   0  0  0  0  0  0  0  0  0  0  0  0
    3.7506   12.7206    1.6454 H   0  0  0  0  0  0  0  0  0  0  0  0
  1  2  1  0  0  0  0
  1  8  1  0  0  0  0
  2  3  1  0  0  0  0
  3  4  1  0  0  0  0
  4  5  1  0  0  0  0
  4 12  1  6  0  0  0
  5 11  1  1  0  0  0
  5  6  1  0  0  0  0
  6 10  1  6  0  0  0
  6  7  1  0  0  0  0
  7  8  1  0  0  0  0
  7  9  1  6  0  0  0
  9 13  1  0  0  0  0
 10 14  1  0  0  0  0
 11 15  1  0  0  0  0
 12 16  1  0  0  0  0
M  END
>  <CHROM.0>
-59.65044743,22.04819930,-175.83339558,-47.21965064,-60.50400640,58.93611659
176.38458217,53.18585016,-168.11868729

>  <CHROM.1>
54.72321256,-60.57868937,171.39218352,150.58622768,1.85480998,14.16799379
3.59042478,-0.90830454,0.25300323,0.20927184

>  <Name>
P49788671

>  <RI>
2.22087e+07

>  <Rbt.Current_Directory>
/home/fstefaniak/projects/zuza/docking/adenine/4XNR

>  <Rbt.Executable>
rbdock ($Id: //depot/dev/client3/rdock/2013.1/src/exe/rbdock.cxx#4 $)

>  <Rbt.Library>
libRbt.so (2013.1, Build901 2013/11/27)

>  <Rbt.Parameter_File>
/home/fstefaniak/progs/rDock//data/scripts/dock_solv.prm

>  <Rbt.Receptor>
4xnr.prm

>  <SCORE>
-23.745

>  <SCORE.INTER>
-11.4404

>  <SCORE.INTER.CONST>
1

>  <SCORE.INTER.POLAR>
-2.34773

>  <SCORE.INTER.ROT>
0

>  <SCORE.INTER.SOLV>
12.6141

>  <SCORE.INTER.VDW>
-7.60582

>  <SCORE.INTER.norm>
-0.953364

>  <SCORE.INTRA>
1.87085

>  <SCORE.INTRA.DIHEDRAL>
-1.7758

>  <SCORE.INTRA.DIHEDRAL.0>
6.94411

>  <SCORE.INTRA.POLAR>
0.890466

>  <SCORE.INTRA.POLAR.0>
-0.890466

>  <SCORE.INTRA.REPUL>
0.0027029

>  <SCORE.INTRA.REPUL.0>
0

>  <SCORE.INTRA.SOLV>
0.0437639

>  <SCORE.INTRA.SOLV.lig_0>
-17.6825

>  <SCORE.INTRA.VDW>
-0.304234

>  <SCORE.INTRA.VDW.0>
0.0281383

>  <SCORE.INTRA.norm>
0.155904

>  <SCORE.RESTR>
0

>  <SCORE.RESTR.CAVITY>
0

>  <SCORE.RESTR.norm>
0

>  <SCORE.SYSTEM>
-14.1755

>  <SCORE.SYSTEM.CONST>
0

>  <SCORE.SYSTEM.DIHEDRAL>
8.81085

>  <SCORE.SYSTEM.POLAR>
-2.70565

>  <SCORE.SYSTEM.SOLV>
0.0446593

>  <SCORE.SYSTEM.VDW>
-3.38334

>  <SCORE.SYSTEM.norm>
-1.18129

>  <SCORE.heavy>
12

>  <SCORE.norm>
-1.97875

$$$$
P49788671
 OpenBabel12072022113D
libRbt.so/2013.1/901 2013/11/27
 16 16  0  0  0  0  0  0  0  0999 V2000
    3.4310   15.4341    3.3003 C   0  0  0  0  0  0  0  0  0  0  0  0
    4.2172   14.2747    3.8981 C   0  0  0  0  0  0  0  0  0  0  0  0
    3.4922   12.9616    4.1973 C   0  0  0  0  0  0  0  0  0  0  0  0
    2.5020   12.4146    3.1576 C   0  0  1  0  0  0  0  0  0  0  0  0
    1.0080   12.6694    3.4574 C   0  0  2  0  0  0  0  0  0  0  0  0
    0.5202   14.1391    3.4249 C   0  0  1  0  0  0  0  0  0  0  0  0
    1.1248   15.0546    4.5229 C   0  0  1  0  0  0  0  0  0  0  0  0
    2.2698   15.9867    4.1143 C   0  0  0  0  0  0  0  0  0  0  0  0
    0.1088   15.9397    5.0444 O   0  0  0  0  0  0  0  0  0  0  0  0
    0.6379   14.7099    2.1196 O   0  0  0  0  0  0  0  0  0  0  0  0
    0.5991   12.0071    4.6605 O   0  0  0  0  0  0  0  0  0  0  0  0
    2.8136   12.8573    1.8395 O   0  0  0  0  0  0  0  0  0  0  0  0
    0.3575   16.2045    5.9459 H   0  0  0  0  0  0  0  0  0  0  0  0
    0.0432   14.2114    1.5215 H   0  0  0  0  0  0  0  0  0  0  0  0
    0.9942   12.4417    5.4330 H   0  0  0  0  0  0  0  0  0  0  0  0
    3.7527   12.6497    1.6782 H   0  0  0  0  0  0  0  0  0  0  0  0
  1  2  1  0  0  0  0
  1  8  1  0  0  0  0
  2  3  1  0  0  0  0
  3  4  1  0  0  0  0
  4  5  1  0  0  0  0
  4 12  1  6  0  0  0
  5 11  1  1  0  0  0
  5  6  1  0  0  0  0
  6 10  1  6  0  0  0
  6  7  1  0  0  0  0
  7  8  1  0  0  0  0
  7  9  1  6  0  0  0
  9 13  1  0  0  0  0
 10 14  1  0  0  0  0
 11 15  1  0  0  0  0
 12 16  1  0  0  0  0
M  END
>  <CHROM.0>
-58.79578396,-60.20837170,60.71720578,-47.50392075,-175.32857295,-176.06715455
-175.28790411,-59.21678235,-57.10156533

>  <CHROM.1>
52.06553922,70.60328228,63.68058052,155.00938329,1.85545375,14.03730073,3.63456344
-0.88330731,0.24717424,0.25125679

>  <Name>
P49788671

>  <RI>
2.22087e+07

>  <Rbt.Current_Directory>
/home/fstefaniak/projects/zuza/docking/adenine/4XNR

>  <Rbt.Executable>
rbdock ($Id: //depot/dev/client3/rdock/2013.1/src/exe/rbdock.cxx#4 $)

>  <Rbt.Library>
libRbt.so (2013.1, Build901 2013/11/27)

>  <Rbt.Parameter_File>
/home/fstefaniak/progs/rDock//data/scripts/dock_solv.prm

>  <Rbt.Receptor>
4xnr.prm

>  <SCORE>
-21.2492

>  <SCORE.INTER>
-12.5104

>  <SCORE.INTER.CONST>
1

>  <SCORE.INTER.POLAR>
-2.42375

>  <SCORE.INTER.ROT>
0

>  <SCORE.INTER.SOLV>
12.6521

>  <SCORE.INTER.VDW>
-8.07848

>  <SCORE.INTER.norm>
-1.04253

>  <SCORE.INTRA>
1.64658

>  <SCORE.INTRA.DIHEDRAL>
-2.20948

>  <SCORE.INTRA.DIHEDRAL.0>
6.94411

>  <SCORE.INTRA.POLAR>
0.890466

>  <SCORE.INTRA.POLAR.0>
-0.890466

>  <SCORE.INTRA.REPUL>
0

>  <SCORE.INTRA.REPUL.0>
0

>  <SCORE.INTRA.SOLV>
-0.0118757

>  <SCORE.INTRA.SOLV.lig_0>
-17.6825

>  <SCORE.INTRA.VDW>
-0.270323

>  <SCORE.INTRA.VDW.0>
0.0281383

>  <SCORE.INTRA.norm>
0.137215

>  <SCORE.RESTR>
0

>  <SCORE.RESTR.CAVITY>
0

>  <SCORE.RESTR.norm>
0

>  <SCORE.SYSTEM>
-10.3854

>  <SCORE.SYSTEM.CONST>
0

>  <SCORE.SYSTEM.DIHEDRAL>
3.18449

>  <SCORE.SYSTEM.POLAR>
-1.15311

>  <SCORE.SYSTEM.SOLV>
0.0250388

>  <SCORE.SYSTEM.VDW>
-4.14972

>  <SCORE.SYSTEM.norm>
-0.865448

>  <SCORE.heavy>
12

>  <SCORE.norm>
-1.77077

$$$$
P49788671
 OpenBabel12072022113D
libRbt.so/2013.1/901 2013/11/27
 16 16  0  0  0  0  0  0  0  0999 V2000
    5.2058   17.1200    5.5098 C   0  0  0  0  0  0  0  0  0  0  0  0
    4.3381   16.8748    4.2823 C   0  0  0  0  0  0  0  0  0  0  0  0
    4.8224   17.3718    2.9193 C   0  0  0  0  0  0  0  0  0  0  0  0
    6.2973   17.1642    2.5420 C   0  0  1  0  0  0  0  0  0  0  0  0
    7.2093   18.4008    2.7019 C   0  0  2  0  0  0  0  0  0  0  0  0
    7.4555   18.9175    4.1412 C   0  0  1  0  0  0  0  0  0  0  0  0
    6.1987   19.4759    4.8608 C   0  0  1  0  0  0  0  0  0  0  0  0
    5.5046   18.5659    5.8791 C   0  0  0  0  0  0  0  0  0  0  0  0
    6.5439   20.6602    5.6130 O   0  0  0  0  0  0  0  0  0  0  0  0
    8.1538   17.9583    4.9385 O   0  0  0  0  0  0  0  0  0  0  0  0
    6.8064   19.4605    1.8256 O   0  0  0  0  0  0  0  0  0  0  0  0
    6.8696   16.0495    3.2205 O   0  0  0  0  0  0  0  0  0  0  0  0
    7.0227   21.2727    5.0296 H   0  0  0  0  0  0  0  0  0  0  0  0
    8.8783   17.5879    4.3928 H   0  0  0  0  0  0  0  0  0  0  0  0
    6.7144   19.1284    0.9185 H   0  0  0  0  0  0  0  0  0  0  0  0
    6.3696   15.2573    2.9499 H   0  0  0  0  0  0  0  0  0  0  0  0
  1  2  1  0  0  0  0
  1  8  1  0  0  0  0
  2  3  1  0  0  0  0
  3  4  1  0  0  0  0
  4  5  1  0  0  0  0
  4 12  1  1  0  0  0
  5 11  1  6  0  0  0
  5  6  1  0  0  0  0
  6 10  1  1  0  0  0
  6  7  1  0  0  0  0
  7  8  1  0  0  0  0
  7  9  1  1  0  0  0
  9 13  1  0  0  0  0
 10 14  1  0  0  0  0
 11 15  1  0  0  0  0
 12 16  1  0  0  0  0
M  END
>  <CHROM.0>
-57.53650020,-58.76686941,-63.44675651,-46.33224378,-57.07904235,-60.84292202
-67.06181589,-58.90421568,-166.56091999

>  <CHROM.1>
61.26151381,-50.87794203,43.69221495,50.92063821,6.33047260,18.18049648,4.02457489
1.86751472,-0.88404811,-2.21906478

>  <Name>
P49788671

>  <RI>
2.22087e+07

>  <Rbt.Current_Directory>
/home/fstefaniak/projects/zuza/docking/adenine/4XNR

>  <Rbt.Executable>
rbdock ($Id: //depot/dev/client3/rdock/2013.1/src/exe/rbdock.cxx#4 $)

>  <Rbt.Library>
libRbt.so (2013.1, Build901 2013/11/27)

>  <Rbt.Parameter_File>
/home/fstefaniak/progs/rDock//data/scripts/dock_solv.prm

>  <Rbt.Receptor>
4xnr.prm

>  <SCORE>
-19.8748

>  <SCORE.INTER>
-0.228647

>  <SCORE.INTER.CONST>
1

>  <SCORE.INTER.POLAR>
-2.71552

>  <SCORE.INTER.ROT>
0

>  <SCORE.INTER.SOLV>
19.009

>  <SCORE.INTER.VDW>
-1.03702

>  <SCORE.INTER.norm>
-0.019054

>  <SCORE.INTRA>
1.02253

>  <SCORE.INTRA.DIHEDRAL>
-3.72407

>  <SCORE.INTRA.DIHEDRAL.0>
6.94411

>  <SCORE.INTRA.POLAR>
0.890466

>  <SCORE.INTRA.POLAR.0>
-0.890466

>  <SCORE.INTRA.REPUL>
0

>  <SCORE.INTRA.REPUL.0>
0

>  <SCORE.INTRA.SOLV>
0.0849428

>  <SCORE.INTRA.SOLV.lig_0>
-17.6825

>  <SCORE.INTRA.VDW>
-0.185493

>  <SCORE.INTRA.VDW.0>
0.0281383

>  <SCORE.INTRA.norm>
0.0852107

>  <SCORE.RESTR>
0

>  <SCORE.RESTR.CAVITY>
0

>  <SCORE.RESTR.norm>
0

>  <SCORE.SYSTEM>
-20.6687

>  <SCORE.SYSTEM.CONST>
0

>  <SCORE.SYSTEM.DIHEDRAL>
4.14631

>  <SCORE.SYSTEM.POLAR>
-3.01145

>  <SCORE.SYSTEM.SOLV>
0.300915

>  <SCORE.SYSTEM.VDW>
-5.22335

>  <SCORE.SYSTEM.norm>
-1.72239

>  <SCORE.heavy>
12

>  <SCORE.norm>
-1.65623

$$$$
P50742774
 OpenBabel12072022113D
libRbt.so/2013.1/901 2013/11/27
  9  9  0  0  0  0  0  0  0  0999 V2000
    5.2447   17.7697    4.4896 C   0  0  0  0  0  0  0  0  0  0  0  0
    5.0251   16.7711    3.3665 C   0  0  0  0  0  0  0  0  0  0  0  0
    5.4515   17.3271    2.1275 O   0  0  0  0  0  0  0  0  0  0  0  0
    6.8177   17.7131    2.1859 C   0  0  0  0  0  0  0  0  0  0  0  0
    7.0477   18.7083    3.1754 O   0  0  0  0  0  0  0  0  0  0  0  0
    6.7023   18.2300    4.4764 C   0  0  1  0  0  0  0  0  0  0  0  0
    6.9463   19.3494    5.4930 C   0  0  0  0  0  0  0  0  0  0  0  0
    8.3369   19.5418    5.7287 O   0  0  0  0  0  0  0  0  0  0  0  0
    8.4218   20.2292    6.4118 H   0  0  0  0  0  0  0  0  0  0  0  0
  1  2  1  0  0  0  0
  1  6  1  0  0  0  0
  2  3  1  0  0  0  0
  3  4  1  0  0  0  0
  4  5  1  0  0  0  0
  5  6  1  0  0  0  0
  6  7  1  1  0  0  0
  7  8  1  0  0  0  0
  8  9  1  0  0  0  0
M  END
>  <CHROM.0>
-56.07370314,-60.96989866,-64.60655754,-47.38522219,-58.99396472,-64.32015165
-67.27047555,-58.86158673,-167.89732559

>  <CHROM.1>
165.07933001,-177.16732307,6.48618731,18.21086453,3.88673091,2.22422064,-0.54611431
-1.83169222

>  <Name>
P50742774

>  <RI>
4.17015e+07

>  <Rbt.Current_Directory>
/home/fstefaniak/projects/zuza/docking/adenine/4XNR

>  <Rbt.Executable>
rbdock ($Id: //depot/dev/client3/rdock/2013.1/src/exe/rbdock.cxx#4 $)

>  <Rbt.Library>
libRbt.so (2013.1, Build901 2013/11/27)

>  <Rbt.Parameter_File>
/home/fstefaniak/progs/rDock//data/scripts/dock_solv.prm

>  <Rbt.Receptor>
4xnr.prm

>  <SCORE>
-50.1421

>  <SCORE.INTER>
-28.9446

>  <SCORE.INTER.CONST>
1

>  <SCORE.INTER.POLAR>
-3.92497

>  <SCORE.INTER.ROT>
1

>  <SCORE.INTER.SOLV>
9.09266

>  <SCORE.INTER.VDW>
-13.5107

>  <SCORE.INTER.norm>
-3.61807

>  <SCORE.INTRA>
-0.297323

>  <SCORE.INTRA.DIHEDRAL>
-0.284301

>  <SCORE.INTRA.DIHEDRAL.0>
1.0974

>  <SCORE.INTRA.POLAR>
0

>  <SCORE.INTRA.POLAR.0>
0

>  <SCORE.INTRA.REPUL>
0

>  <SCORE.INTRA.REPUL.0>
0

>  <SCORE.INTRA.SOLV>
0.0699148

>  <SCORE.INTRA.SOLV.lig_0>
-9.53581

>  <SCORE.INTRA.VDW>
-0.19013

>  <SCORE.INTRA.VDW.0>
-0.158617

>  <SCORE.INTRA.norm>
-0.0371654

>  <SCORE.RESTR>
0

>  <SCORE.RESTR.CAVITY>
0

>  <SCORE.RESTR.norm>
0

>  <SCORE.SYSTEM>
-20.9001

>  <SCORE.SYSTEM.CONST>
0

>  <SCORE.SYSTEM.DIHEDRAL>
4.02386

>  <SCORE.SYSTEM.POLAR>
-3.00267

>  <SCORE.SYSTEM.SOLV>
0.288676

>  <SCORE.SYSTEM.VDW>
-5.36205

>  <SCORE.SYSTEM.norm>
-2.61252

>  <SCORE.heavy>
8

>  <SCORE.norm>
-6.26776

$$$$
P50742774
 OpenBabel12072022113D
libRbt.so/2013.1/901 2013/11/27
  9  9  0  0  0  0  0  0  0  0999 V2000
    5.3147   17.7761    4.5026 C   0  0  0  0  0  0  0  0  0  0  0  0
    5.0844   16.7815    3.3781 C   0  0  0  0  0  0  0  0  0  0  0  0
    5.4732   17.3520    2.1334 O   0  0  0  0  0  0  0  0  0  0  0  0
    6.8343   17.7588    2.1628 C   0  0  0  0  0  0  0  0  0  0  0  0
    7.0719   18.7510    3.1535 O   0  0  0  0  0  0  0  0  0  0  0  0
    6.7643   18.2590    4.4589 C   0  0  1  0  0  0  0  0  0  0  0  0
    7.0146   19.3755    5.4772 C   0  0  0  0  0  0  0  0  0  0  0  0
    8.4046   19.5369    5.7385 O   0  0  0  0  0  0  0  0  0  0  0  0
    8.4919   20.2195    6.4260 H   0  0  0  0  0  0  0  0  0  0  0  0
  1  2  1  0  0  0  0
  1  6  1  0  0  0  0
  2  3  1  0  0  0  0
  3  4  1  0  0  0  0
  4  5  1  0  0  0  0
  5  6  1  0  0  0  0
  6  7  1  1  0  0  0
  7  8  1  0  0  0  0
  8  9  1  0  0  0  0
M  END
>  <CHROM.0>
-60.08578991,-59.92700558,-67.83861308,-49.50553282,-60.57503264,-64.81527170
-67.06063294,-61.98097925,-168.17750532

>  <CHROM.1>
161.78693654,-176.76683282,6.53444201,18.23300447,3.88234508,2.23981357,-0.56204146
-1.80640095

>  <Name>
P50742774

>  <RI>
4.17015e+07

>  <Rbt.Current_Directory>
/home/fstefaniak/projects/zuza/docking/adenine/4XNR

>  <Rbt.Executable>
rbdock ($Id: //depot/dev/client3/rdock/2013.1/src/exe/rbdock.cxx#4 $)

>  <Rbt.Library>
libRbt.so (2013.1, Build901 2013/11/27)

>  <Rbt.Parameter_File>
/home/fstefaniak/progs/rDock//data/scripts/dock_solv.prm

>  <Rbt.Receptor>
4xnr.prm

>  <SCORE>
-50.126

>  <SCORE.INTER>
-29.0617

>  <SCORE.INTER.CONST>
1

>  <SCORE.INTER.POLAR>
-3.9423

>  <SCORE.INTER.ROT>
1

>  <SCORE.INTER.SOLV>
9.18441

>  <SCORE.INTER.VDW>
-13.5616

>  <SCORE.INTER.norm>
-3.63272

>  <SCORE.INTRA>
-0.12618

>  <SCORE.INTRA.DIHEDRAL>
0.0746765

>  <SCORE.INTRA.DIHEDRAL.0>
1.0974

>  <SCORE.INTRA.POLAR>
0

>  <SCORE.INTRA.POLAR.0>
0

>  <SCORE.INTRA.REPUL>
0

>  <SCORE.INTRA.REPUL.0>
0

>  <SCORE.INTRA.SOLV>
0.0553496

>  <SCORE.INTRA.SOLV.lig_0>
-9.53581

>  <SCORE.INTRA.VDW>
-0.191193

>  <SCORE.INTRA.VDW.0>
-0.158617

>  <SCORE.INTRA.norm>
-0.0157725

>  <SCORE.RESTR>
0

>  <SCORE.RESTR.CAVITY>
0

>  <SCORE.RESTR.norm>
0

>  <SCORE.SYSTEM>
-20.9381

>  <SCORE.SYSTEM.CONST>
0

>  <SCORE.SYSTEM.DIHEDRAL>
3.8953

>  <SCORE.SYSTEM.POLAR>
-2.93

>  <SCORE.SYSTEM.SOLV>
0.266213

>  <SCORE.SYSTEM.VDW>
-5.57923

>  <SCORE.SYSTEM.norm>
-2.61726

>  <SCORE.heavy>
8

>  <SCORE.norm>
-6.26575

$$$$
P50742774
 OpenBabel12072022113D
libRbt.so/2013.1/901 2013/11/27
  9  9  0  0  0  0  0  0  0  0999 V2000
    5.2400   17.7557    4.4519 C   0  0  0  0  0  0  0  0  0  0  0  0
    5.0320   16.7618    3.3224 C   0  0  0  0  0  0  0  0  0  0  0  0
    5.4692   17.3238    2.0898 O   0  0  0  0  0  0  0  0  0  0  0  0
    6.8343   17.7111    2.1626 C   0  0  0  0  0  0  0  0  0  0  0  0
    7.0539   18.7022    3.1585 O   0  0  0  0  0  0  0  0  0  0  0  0
    6.6971   18.2178    4.4542 C   0  0  1  0  0  0  0  0  0  0  0  0
    6.9303   19.3330    5.4779 C   0  0  0  0  0  0  0  0  0  0  0  0
    8.3185   19.5276    5.7256 O   0  0  0  0  0  0  0  0  0  0  0  0
    8.3975   20.2386    6.3847 H   0  0  0  0  0  0  0  0  0  0  0  0
  1  2  1  0  0  0  0
  1  6  1  0  0  0  0
  2  3  1  0  0  0  0
  3  4  1  0  0  0  0
  4  5  1  0  0  0  0
  5  6  1  0  0  0  0
  6  7  1  1  0  0  0
  7  8  1  0  0  0  0
  8  9  1  0  0  0  0
M  END
>  <CHROM.0>
-60.32823382,-62.80030838,-67.60747726,-46.90274402,-65.42914110,-61.96823815
-69.69900056,-61.43182118,-168.02640149

>  <CHROM.1>
165.18490381,-179.54239666,6.48650588,18.20147461,3.86195768,2.21384149,-0.54524513
-1.83335038

>  <Name>
P50742774

>  <RI>
4.17015e+07

>  <Rbt.Current_Directory>
/home/fstefaniak/projects/zuza/docking/adenine/4XNR

>  <Rbt.Executable>
rbdock ($Id: //depot/dev/client3/rdock/2013.1/src/exe/rbdock.cxx#4 $)

>  <Rbt.Library>
libRbt.so (2013.1, Build901 2013/11/27)

>  <Rbt.Parameter_File>
/home/fstefaniak/progs/rDock//data/scripts/dock_solv.prm

>  <Rbt.Receptor>
4xnr.prm

>  <SCORE>
-50.0926

>  <SCORE.INTER>
-28.8492

>  <SCORE.INTER.CONST>
1

>  <SCORE.INTER.POLAR>
-3.92392

>  <SCORE.INTER.ROT>
1

>  <SCORE.INTER.SOLV>
9.09173

>  <SCORE.INTER.VDW>
-13.4503

>  <SCORE.INTER.norm>
-3.60615

>  <SCORE.INTRA>
-0.321314

>  <SCORE.INTRA.DIHEDRAL>
-0.333056

>  <SCORE.INTRA.DIHEDRAL.0>
1.0974

>  <SCORE.INTRA.POLAR>
0

>  <SCORE.INTRA.POLAR.0>
0

>  <SCORE.INTRA.REPUL>
0

>  <SCORE.INTRA.REPUL.0>
0

>  <SCORE.INTRA.SOLV>
0.0703984

>  <SCORE.INTRA.SOLV.lig_0>
-9.53581

>  <SCORE.INTRA.VDW>
-0.189985

>  <SCORE.INTRA.VDW.0>
-0.158617

>  <SCORE.INTRA.norm>
-0.0401642

>  <SCORE.RESTR>
0

>  <SCORE.RESTR.CAVITY>
0

>  <SCORE.RESTR.norm>
0

>  <SCORE.SYSTEM>
-20.9221

>  <SCORE.SYSTEM.CONST>
0

>  <SCORE.SYSTEM.DIHEDRAL>
4.44047

>  <SCORE.SYSTEM.POLAR>
-2.97252

>  <SCORE.SYSTEM.SOLV>
0.261451

>  <SCORE.SYSTEM.VDW>
-5.60698

>  <SCORE.SYSTEM.norm>
-2.61526

>  <SCORE.heavy>
8

>  <SCORE.norm>
-6.26158

$$$$
P51215067
 OpenBabel12072022113D
libRbt.so/2013.1/901 2013/11/27
 12 12  0  0  0  0  0  0  0  0999 V2000
    5.6076   18.0149    6.5519 C   0  0  0  0  0  0  0  0  0  0  0  0
    5.4876   17.4291    5.1554 C   0  0  0  0  0  0  0  0  0  0  0  0
    6.5564   18.1763    4.3746 C   0  0  2  0  0  0  0  0  0  0  0  0
    6.5447   19.5465    5.0116 N   0  3  0  0  0  0  0  0  0  0  0  0
    7.4222   20.0588    4.9209 H   0  0  0  0  0  0  0  0  0  0  0  0
    5.9044   20.0436    4.3179 H   0  0  0  0  0  0  0  0  0  0  0  0
    5.8653   19.4924    6.3176 C   0  0  0  0  0  0  0  0  0  0  0  0
    6.2840   18.2356    2.8640 C   0  0  0  0  0  0  0  0  0  0  0  0
    6.7952   19.1107    2.1641 O   0  0  0  0  0  0  0  0  0  0  0  0
    5.4152   17.3004    2.3262 N   0  0  0  0  0  0  0  0  0  0  0  0
    4.1436   17.6528    1.9124 O   0  5  0  0  0  0  0  0  0  0  0  0
    5.5096   16.3465    2.6746 H   0  0  0  0  0  0  0  0  0  0  0  0
  1  2  1  0  0  0  0
  1  7  1  0  0  0  0
  2  3  1  0  0  0  0
  3  4  1  0  0  0  0
  3  8  1  6  0  0  0
  4  5  1  0  0  0  0
  4  6  1  0  0  0  0
  4  7  1  0  0  0  0
  8  9  2  0  0  0  0
  8 10  1  0  0  0  0
 10 11  1  0  0  0  0
 10 12  1  0  0  0  0
M  CHG  2   4   1  11  -1
M  END
>  <CHROM.0>
-61.27655806,-63.41800487,-65.79233694,-46.66463969,-60.39058133,-60.15500490
-67.99615796,-176.11948954,-167.58633012

>  <CHROM.1>
157.70250794,107.25836553,5.84153028,18.34427889,4.02770349,1.36237917,0.80503868
1.50771480

>  <Name>
P51215067

>  <RI>
1.00763e+07

>  <Rbt.Current_Directory>
/home/fstefaniak/projects/zuza/docking/adenine/4XNR

>  <Rbt.Executable>
rbdock ($Id: //depot/dev/client3/rdock/2013.1/src/exe/rbdock.cxx#4 $)

>  <Rbt.Library>
libRbt.so (2013.1, Build901 2013/11/27)

>  <Rbt.Parameter_File>
/home/fstefaniak/progs/rDock//data/scripts/dock_solv.prm

>  <Rbt.Receptor>
4xnr.prm

>  <SCORE>
-52.0059

>  <SCORE.INTER>
-27.6514

>  <SCORE.INTER.CONST>
1

>  <SCORE.INTER.POLAR>
-5.23396

>  <SCORE.INTER.ROT>
2

>  <SCORE.INTER.SOLV>
26.4063

>  <SCORE.INTER.VDW>
-14.7232

>  <SCORE.INTER.norm>
-3.07238

>  <SCORE.INTRA>
-3.53457

>  <SCORE.INTRA.DIHEDRAL>
0.124002

>  <SCORE.INTRA.DIHEDRAL.0>
2.34042

>  <SCORE.INTRA.POLAR>
0

>  <SCORE.INTRA.POLAR.0>
0

>  <SCORE.INTRA.REPUL>
0

>  <SCORE.INTRA.REPUL.0>
0

>  <SCORE.INTRA.SOLV>
-7.50017

>  <SCORE.INTRA.SOLV.lig_0>
-47.5859

>  <SCORE.INTRA.VDW>
0.153515

>  <SCORE.INTRA.VDW.0>
-0.549349

>  <SCORE.INTRA.norm>
-0.39273

>  <SCORE.RESTR>
0

>  <SCORE.RESTR.CAVITY>
0

>  <SCORE.RESTR.norm>
0

>  <SCORE.SYSTEM>
-20.8198

>  <SCORE.SYSTEM.CONST>
0

>  <SCORE.SYSTEM.DIHEDRAL>
4.2064

>  <SCORE.SYSTEM.POLAR>
-2.97479

>  <SCORE.SYSTEM.SOLV>
0.145676

>  <SCORE.SYSTEM.VDW>
-5.41461

>  <SCORE.SYSTEM.norm>
-2.31332

>  <SCORE.heavy>
9

>  <SCORE.norm>
-5.77843

$$$$
P51215067
 OpenBabel12072022113D
libRbt.so/2013.1/901 2013/11/27
 12 12  0  0  0  0  0  0  0  0999 V2000
    5.6272   17.9987    6.5454 C   0  0  0  0  0  0  0  0  0  0  0  0
    5.5105   17.4129    5.1487 C   0  0  0  0  0  0  0  0  0  0  0  0
    6.5726   18.1689    4.3673 C   0  0  2  0  0  0  0  0  0  0  0  0
    6.5509   19.5385    5.0051 N   0  3  0  0  0  0  0  0  0  0  0  0
    7.4242   20.0577    4.9138 H   0  0  0  0  0  0  0  0  0  0  0  0
    5.9061   20.0310    4.3123 H   0  0  0  0  0  0  0  0  0  0  0  0
    5.8731   19.4783    6.3117 C   0  0  0  0  0  0  0  0  0  0  0  0
    6.2983   18.2269    2.8570 C   0  0  0  0  0  0  0  0  0  0  0  0
    6.7934   19.1127    2.1590 O   0  0  0  0  0  0  0  0  0  0  0  0
    5.4460   17.2776    2.3174 N   0  0  0  0  0  0  0  0  0  0  0  0
    4.1685   17.6085    1.9042 O   0  5  0  0  0  0  0  0  0  0  0  0
    5.5570   16.3249    2.6641 H   0  0  0  0  0  0  0  0  0  0  0  0
  1  2  1  0  0  0  0
  1  7  1  0  0  0  0
  2  3  1  0  0  0  0
  3  4  1  0  0  0  0
  3  8  1  6  0  0  0
  4  5  1  0  0  0  0
  4  6  1  0  0  0  0
  4  7  1  0  0  0  0
  8  9  2  0  0  0  0
  8 10  1  0  0  0  0
 10 11  1  0  0  0  0
 10 12  1  0  0  0  0
M  CHG  2   4   1  11  -1
M  END
>  <CHROM.0>
-57.63070957,57.91445640,-65.79731817,-47.63127763,-58.72069417,-60.18641335
-66.72844303,-58.70519203,-167.78324297

>  <CHROM.1>
157.11875195,107.31368097,5.85709446,18.32893258,4.02079893,1.36069087,0.81933275
1.50776849

>  <Name>
P51215067

>  <RI>
1.00763e+07

>  <Rbt.Current_Directory>
/home/fstefaniak/projects/zuza/docking/adenine/4XNR

>  <Rbt.Executable>
rbdock ($Id: //depot/dev/client3/rdock/2013.1/src/exe/rbdock.cxx#4 $)

>  <Rbt.Library>
libRbt.so (2013.1, Build901 2013/11/27)

>  <Rbt.Parameter_File>
/home/fstefaniak/progs/rDock//data/scripts/dock_solv.prm

>  <Rbt.Receptor>
4xnr.prm

>  <SCORE>
-51.0609

>  <SCORE.INTER>
-27.4826

>  <SCORE.INTER.CONST>
1

>  <SCORE.INTER.POLAR>
-5.23964

>  <SCORE.INTER.ROT>
2

>  <SCORE.INTER.SOLV>
26.503

>  <SCORE.INTER.VDW>
-14.6239

>  <SCORE.INTER.norm>
-3.05362

>  <SCORE.INTRA>
-3.56549

>  <SCORE.INTRA.DIHEDRAL>
0.10077

>  <SCORE.INTRA.DIHEDRAL.0>
2.34042

>  <SCORE.INTRA.POLAR>
0

>  <SCORE.INTRA.POLAR.0>
0

>  <SCORE.INTRA.REPUL>
0

>  <SCORE.INTRA.REPUL.0>
0

>  <SCORE.INTRA.SOLV>
-7.51904

>  <SCORE.INTRA.SOLV.lig_0>
-47.5859

>  <SCORE.INTRA.VDW>
0.143644

>  <SCORE.INTRA.VDW.0>
-0.549349

>  <SCORE.INTRA.norm>
-0.396166

>  <SCORE.RESTR>
0

>  <SCORE.RESTR.CAVITY>
0

>  <SCORE.RESTR.norm>
0

>  <SCORE.SYSTEM>
-20.0128

>  <SCORE.SYSTEM.CONST>
0

>  <SCORE.SYSTEM.DIHEDRAL>
3.92176

>  <SCORE.SYSTEM.POLAR>
-2.98473

>  <SCORE.SYSTEM.SOLV>
0.378155

>  <SCORE.SYSTEM.VDW>
-4.82611

>  <SCORE.SYSTEM.norm>
-2.22365

>  <SCORE.heavy>
9

>  <SCORE.norm>
-5.67343

$$$$
P51215067
 OpenBabel12072022113D
libRbt.so/2013.1/901 2013/11/27
 12 12  0  0  0  0  0  0  0  0999 V2000
    5.6212   18.0069    6.5547 C   0  0  0  0  0  0  0  0  0  0  0  0
    5.4968   17.4304    5.1548 C   0  0  0  0  0  0  0  0  0  0  0  0
    6.5634   18.1825    4.3756 C   0  0  2  0  0  0  0  0  0  0  0  0
    6.5540   19.5484    5.0216 N   0  3  0  0  0  0  0  0  0  0  0  0
    7.4312   20.0611    4.9316 H   0  0  0  0  0  0  0  0  0  0  0  0
    5.9117   20.0502    4.3332 H   0  0  0  0  0  0  0  0  0  0  0  0
    5.8785   19.4859    6.3294 C   0  0  0  0  0  0  0  0  0  0  0  0
    6.2863   18.2518    2.8663 C   0  0  0  0  0  0  0  0  0  0  0  0
    6.7445   19.1673    2.1817 O   0  0  0  0  0  0  0  0  0  0  0  0
    5.4732   17.2766    2.3124 N   0  0  0  0  0  0  0  0  0  0  0  0
    4.2117   17.5778    1.8327 O   0  5  0  0  0  0  0  0  0  0  0  0
    5.5815   16.3346    2.6879 H   0  0  0  0  0  0  0  0  0  0  0  0
  1  2  1  0  0  0  0
  1  7  1  0  0  0  0
  2  3  1  0  0  0  0
  3  4  1  0  0  0  0
  3  8  1  6  0  0  0
  4  5  1  0  0  0  0
  4  6  1  0  0  0  0
  4  7  1  0  0  0  0
  8  9  2  0  0  0  0
  8 10  1  0  0  0  0
 10 11  1  0  0  0  0
 10 12  1  0  0  0  0
M  CHG  2   4   1  11  -1
M  END
>  <CHROM.0>
-61.14933224,52.50427029,-64.60000119,-48.95420856,-177.19844651,-63.62775394
-69.94077737,-59.64990900,-168.20831101

>  <CHROM.1>
154.26758114,111.12293684,5.85639095,18.34032534,4.02177242,1.35187265,0.84924604
1.51598842

>  <Name>
P51215067

>  <RI>
1.00763e+07

>  <Rbt.Current_Directory>
/home/fstefaniak/projects/zuza/docking/adenine/4XNR

>  <Rbt.Executable>
rbdock ($Id: //depot/dev/client3/rdock/2013.1/src/exe/rbdock.cxx#4 $)

>  <Rbt.Library>
libRbt.so (2013.1, Build901 2013/11/27)

>  <Rbt.Parameter_File>
/home/fstefaniak/progs/rDock//data/scripts/dock_solv.prm

>  <Rbt.Receptor>
4xnr.prm

>  <SCORE>
-51.0362

>  <SCORE.INTER>
-27.1901

>  <SCORE.INTER.CONST>
1

>  <SCORE.INTER.POLAR>
-5.23748

>  <SCORE.INTER.ROT>
2

>  <SCORE.INTER.SOLV>
26.9177

>  <SCORE.INTER.VDW>
-14.5743

>  <SCORE.INTER.norm>
-3.02112

>  <SCORE.INTRA>
-3.70268

>  <SCORE.INTRA.DIHEDRAL>
-0.0177296

>  <SCORE.INTRA.DIHEDRAL.0>
2.34042

>  <SCORE.INTRA.POLAR>
0

>  <SCORE.INTRA.POLAR.0>
0

>  <SCORE.INTRA.REPUL>
0

>  <SCORE.INTRA.REPUL.0>
0

>  <SCORE.INTRA.SOLV>
-7.71313

>  <SCORE.INTRA.SOLV.lig_0>
-47.5859

>  <SCORE.INTRA.VDW>
0.162748

>  <SCORE.INTRA.VDW.0>
-0.549349

>  <SCORE.INTRA.norm>
-0.411409

>  <SCORE.RESTR>
0

>  <SCORE.RESTR.CAVITY>
0

>  <SCORE.RESTR.norm>
0

>  <SCORE.SYSTEM>
-20.1435

>  <SCORE.SYSTEM.CONST>
0

>  <SCORE.SYSTEM.DIHEDRAL>
4.2276

>  <SCORE.SYSTEM.POLAR>
-2.96288

>  <SCORE.SYSTEM.SOLV>
0.199175

>  <SCORE.SYSTEM.VDW>
-5.02829

>  <SCORE.SYSTEM.norm>
-2.23816

>  <SCORE.heavy>
9

>  <SCORE.norm>
-5.67069

$$$$
P51916455
 OpenBabel12072022113D
libRbt.so/2013.1/901 2013/11/27
 14 14  0  0  0  0  0  0  0  0999 V2000
    7.5193   18.2885    0.9724 C   0  0  0  0  0  0  0  0  0  0  0  0
    6.3810   18.2712    1.9823 C   0  0  2  0  0  0  0  0  0  0  0  0
    6.9159   18.3417    3.4218 C   0  0  0  0  0  0  0  0  0  0  0  0
    5.8429   18.1757    4.4063 N   0  0  0  0  0  0  0  0  0  0  0  0
    4.9574   17.0366    4.1334 C   0  0  0  0  0  0  0  0  0  0  0  0
    4.5088   17.0086    2.6698 C   0  0  0  0  0  0  0  0  0  0  0  0
    5.6311   17.0593    1.7798 O   0  0  0  0  0  0  0  0  0  0  0  0
    6.0935   18.6471    5.6878 C   0  0  0  0  0  0  0  0  0  0  0  0
    5.4321   18.3213    6.6732 O   0  0  0  0  0  0  0  0  0  0  0  0
    7.1644   19.5262    5.7884 N   0  0  0  0  0  0  0  0  0  0  0  0
    8.4353   18.9965    6.1466 N   0  0  0  0  0  0  0  0  0  0  0  0
    7.1770   20.2695    5.0965 H   0  0  0  0  0  0  0  0  0  0  0  0
    8.2483   18.1476    6.7006 H   0  0  0  0  0  0  0  0  0  0  0  0
    8.8383   19.6373    6.8367 H   0  0  0  0  0  0  0  0  0  0  0  0
  2  3  1  0  0  0  0
  2  7  1  0  0  0  0
  2  1  1  6  0  0  0
  3  4  1  0  0  0  0
  4  5  1  0  0  0  0
  4  8  1  0  0  0  0
  5  6  1  0  0  0  0
  6  7  1  0  0  0  0
  8  9  2  0  0  0  0
  8 10  1  0  0  0  0
 10 11  1  0  0  0  0
 10 12  1  0  0  0  0
 11 13  1  0  0  0  0
 11 14  1  0  0  0  0
M  END
>  <CHROM.0>
-52.17162759,-164.49267385,-56.57732477,-46.09841747,-173.79256880,-63.23272681
-69.63194808,-63.52586867,-168.56762336

>  <CHROM.1>
-163.22901308,-94.94173624,-27.06403609,6.28756821,18.15695248,3.98950966
-1.77539673,0.48549362,1.38378604

>  <Name>
P51916455

>  <RI>
9.71178e+06

>  <Rbt.Current_Directory>
/home/fstefaniak/projects/zuza/docking/adenine/4XNR

>  <Rbt.Executable>
rbdock ($Id: //depot/dev/client3/rdock/2013.1/src/exe/rbdock.cxx#4 $)

>  <Rbt.Library>
libRbt.so (2013.1, Build901 2013/11/27)

>  <Rbt.Parameter_File>
/home/fstefaniak/progs/rDock//data/scripts/dock_solv.prm

>  <Rbt.Receptor>
4xnr.prm

>  <SCORE>
-59.1022

>  <SCORE.INTER>
-39.1197

>  <SCORE.INTER.CONST>
1

>  <SCORE.INTER.POLAR>
-5.82722

>  <SCORE.INTER.ROT>
3

>  <SCORE.INTER.SOLV>
15.0949

>  <SCORE.INTER.VDW>
-17.2874

>  <SCORE.INTER.norm>
-3.55634

>  <SCORE.INTRA>
0.0780916

>  <SCORE.INTRA.DIHEDRAL>
-0.545444

>  <SCORE.INTRA.DIHEDRAL.0>
2.21107

>  <SCORE.INTRA.POLAR>
0

>  <SCORE.INTRA.POLAR.0>
0

>  <SCORE.INTRA.REPUL>
0

>  <SCORE.INTRA.REPUL.0>
0

>  <SCORE.INTRA.SOLV>
0.250863

>  <SCORE.INTRA.SOLV.lig_0>
-18.6906

>  <SCORE.INTRA.VDW>
0.225382

>  <SCORE.INTRA.VDW.0>
0.76819

>  <SCORE.INTRA.norm>
0.00709924

>  <SCORE.RESTR>
0

>  <SCORE.RESTR.CAVITY>
0

>  <SCORE.RESTR.norm>
0

>  <SCORE.SYSTEM>
-20.0606

>  <SCORE.SYSTEM.CONST>
0

>  <SCORE.SYSTEM.DIHEDRAL>
5.72278

>  <SCORE.SYSTEM.POLAR>
-3.06148

>  <SCORE.SYSTEM.SOLV>
0.0909781

>  <SCORE.SYSTEM.VDW>
-5.10672

>  <SCORE.SYSTEM.norm>
-1.82369

>  <SCORE.heavy>
11

>  <SCORE.norm>
-5.37293

$$$$
P51916455
 OpenBabel12072022113D
libRbt.so/2013.1/901 2013/11/27
 14 14  0  0  0  0  0  0  0  0999 V2000
    4.0377   15.1892    3.5174 C   0  0  0  0  0  0  0  0  0  0  0  0
    5.2633   16.0872    3.6034 C   0  0  2  0  0  0  0  0  0  0  0  0
    5.0718   17.1868    4.6605 C   0  0  0  0  0  0  0  0  0  0  0  0
    6.1797   18.1463    4.6497 N   0  0  0  0  0  0  0  0  0  0  0  0
    6.5297   18.6344    3.3098 C   0  0  0  0  0  0  0  0  0  0  0  0
    6.6530   17.4855    2.3052 C   0  0  0  0  0  0  0  0  0  0  0  0
    5.4766   16.6668    2.3031 O   0  0  0  0  0  0  0  0  0  0  0  0
    6.3617   18.9020    5.7999 C   0  0  0  0  0  0  0  0  0  0  0  0
    5.5434   18.9505    6.7179 O   0  0  0  0  0  0  0  0  0  0  0  0
    7.5546   19.6122    5.8502 N   0  0  0  0  0  0  0  0  0  0  0  0
    8.7347   18.9148    6.2311 N   0  0  0  0  0  0  0  0  0  0  0  0
    7.6717   20.3084    5.1201 H   0  0  0  0  0  0  0  0  0  0  0  0
    8.4226   18.0890    6.7633 H   0  0  0  0  0  0  0  0  0  0  0  0
    9.1981   19.4860    6.9439 H   0  0  0  0  0  0  0  0  0  0  0  0
  2  3  1  0  0  0  0
  2  7  1  0  0  0  0
  2  1  1  6  0  0  0
  3  4  1  0  0  0  0
  4  5  1  0  0  0  0
  4  8  1  0  0  0  0
  5  6  1  0  0  0  0
  6  7  1  0  0  0  0
  8  9  2  0  0  0  0
  8 10  1  0  0  0  0
 10 11  1  0  0  0  0
 10 12  1  0  0  0  0
 11 13  1  0  0  0  0
 11 14  1  0  0  0  0
M  END
>  <CHROM.0>
-60.82494808,-60.62520530,-66.50819488,-49.59968360,-59.13382120,-62.77752493
-66.15995426,-59.04089121,-167.98587949

>  <CHROM.1>
-11.23730680,-80.31376407,-22.41582398,6.14503870,17.80641181,4.46795995
2.20131447,-0.62036319,-1.93728596

>  <Name>
P51916455

>  <RI>
9.71178e+06

>  <Rbt.Current_Directory>
/home/fstefaniak/projects/zuza/docking/adenine/4XNR

>  <Rbt.Executable>
rbdock ($Id: //depot/dev/client3/rdock/2013.1/src/exe/rbdock.cxx#4 $)

>  <Rbt.Library>
libRbt.so (2013.1, Build901 2013/11/27)

>  <Rbt.Parameter_File>
/home/fstefaniak/progs/rDock//data/scripts/dock_solv.prm

>  <Rbt.Receptor>
4xnr.prm

>  <SCORE>
-55.7835

>  <SCORE.INTER>
-34.1718

>  <SCORE.INTER.CONST>
1

>  <SCORE.INTER.POLAR>
-4.54232

>  <SCORE.INTER.ROT>
3

>  <SCORE.INTER.SOLV>
15.0343

>  <SCORE.INTER.VDW>
-18.2516

>  <SCORE.INTER.norm>
-3.10653

>  <SCORE.INTRA>
-0.701464

>  <SCORE.INTRA.DIHEDRAL>
-0.388171

>  <SCORE.INTRA.DIHEDRAL.0>
2.21107

>  <SCORE.INTRA.POLAR>
0

>  <SCORE.INTRA.POLAR.0>
0

>  <SCORE.INTRA.REPUL>
0

>  <SCORE.INTRA.REPUL.0>
0

>  <SCORE.INTRA.SOLV>
0.135823

>  <SCORE.INTRA.SOLV.lig_0>
-18.6906

>  <SCORE.INTRA.VDW>
-0.57529

>  <SCORE.INTRA.VDW.0>
0.76819

>  <SCORE.INTRA.norm>
-0.0637694

>  <SCORE.RESTR>
0

>  <SCORE.RESTR.CAVITY>
0

>  <SCORE.RESTR.norm>
0

>  <SCORE.SYSTEM>
-20.9102

>  <SCORE.SYSTEM.CONST>
0

>  <SCORE.SYSTEM.DIHEDRAL>
3.69041

>  <SCORE.SYSTEM.POLAR>
-2.92984

>  <SCORE.SYSTEM.SOLV>
0.279497

>  <SCORE.SYSTEM.VDW>
-5.49732

>  <SCORE.SYSTEM.norm>
-1.90093

>  <SCORE.heavy>
11

>  <SCORE.norm>
-5.07122

$$$$
P51916455
 OpenBabel12072022113D
libRbt.so/2013.1/901 2013/11/27
 14 14  0  0  0  0  0  0  0  0999 V2000
    7.2767   18.2281    1.1125 C   0  0  0  0  0  0  0  0  0  0  0  0
    6.2081   18.1445    2.1928 C   0  0  2  0  0  0  0  0  0  0  0  0
    6.8123   18.3677    3.5886 C   0  0  0  0  0  0  0  0  0  0  0  0
    5.8246   18.1425    4.6478 N   0  0  0  0  0  0  0  0  0  0  0  0
    5.0663   16.8941    4.4973 C   0  0  0  0  0  0  0  0  0  0  0  0
    4.5413   16.7216    3.0694 C   0  0  0  0  0  0  0  0  0  0  0  0
    5.5969   16.8440    2.1077 O   0  0  0  0  0  0  0  0  0  0  0  0
    6.0904   18.7203    5.8818 C   0  0  0  0  0  0  0  0  0  0  0  0
    5.4146   18.5126    6.8892 O   0  0  0  0  0  0  0  0  0  0  0  0
    7.1944   19.5631    5.9072 N   0  0  0  0  0  0  0  0  0  0  0  0
    8.4700   18.9896    6.1679 N   0  0  0  0  0  0  0  0  0  0  0  0
    7.1806   20.3106    5.2198 H   0  0  0  0  0  0  0  0  0  0  0  0
    8.2949   18.1326    6.7134 H   0  0  0  0  0  0  0  0  0  0  0  0
    8.9361   19.6015    6.8442 H   0  0  0  0  0  0  0  0  0  0  0  0
  2  3  1  0  0  0  0
  2  7  1  0  0  0  0
  2  1  1  6  0  0  0
  3  4  1  0  0  0  0
  4  5  1  0  0  0  0
  4  8  1  0  0  0  0
  5  6  1  0  0  0  0
  6  7  1  0  0  0  0
  8  9  2  0  0  0  0
  8 10  1  0  0  0  0
 10 11  1  0  0  0  0
 10 12  1  0  0  0  0
 11 13  1  0  0  0  0
 11 14  1  0  0  0  0
M  END
>  <CHROM.0>
-56.16312104,50.59960241,-65.24050579,-47.03701056,-58.16915594,-173.42728414
-69.14222574,-61.57160675,-167.55222574

>  <CHROM.1>
-173.07451815,-87.73894411,-25.91698331,6.25341557,18.10810989,4.20571233
-1.80273829,0.54464204,1.35397970

>  <Name>
P51916455

>  <RI>
9.71178e+06

>  <Rbt.Current_Directory>
/home/fstefaniak/projects/zuza/docking/adenine/4XNR

>  <Rbt.Executable>
rbdock ($Id: //depot/dev/client3/rdock/2013.1/src/exe/rbdock.cxx#4 $)

>  <Rbt.Library>
libRbt.so (2013.1, Build901 2013/11/27)

>  <Rbt.Parameter_File>
/home/fstefaniak/progs/rDock//data/scripts/dock_solv.prm

>  <Rbt.Receptor>
4xnr.prm

>  <SCORE>
-55.738

>  <SCORE.INTER>
-36.2042

>  <SCORE.INTER.CONST>
1

>  <SCORE.INTER.POLAR>
-4.60274

>  <SCORE.INTER.ROT>
3

>  <SCORE.INTER.SOLV>
15.0997

>  <SCORE.INTER.VDW>
-19.427

>  <SCORE.INTER.norm>
-3.2913

>  <SCORE.INTRA>
0.285936

>  <SCORE.INTRA.DIHEDRAL>
-0.50723

>  <SCORE.INTRA.DIHEDRAL.0>
2.21107

>  <SCORE.INTRA.POLAR>
0

>  <SCORE.INTRA.POLAR.0>
0

>  <SCORE.INTRA.REPUL>
0

>  <SCORE.INTRA.REPUL.0>
0

>  <SCORE.INTRA.SOLV>
0.300885

>  <SCORE.INTRA.SOLV.lig_0>
-18.6906

>  <SCORE.INTRA.VDW>
0.389109

>  <SCORE.INTRA.VDW.0>
0.76819

>  <SCORE.INTRA.norm>
0.0259942

>  <SCORE.RESTR>
0

>  <SCORE.RESTR.CAVITY>
0

>  <SCORE.RESTR.norm>
0

>  <SCORE.SYSTEM>
-19.8196

>  <SCORE.SYSTEM.CONST>
0

>  <SCORE.SYSTEM.DIHEDRAL>
4.79996

>  <SCORE.SYSTEM.POLAR>
-3.04193

>  <SCORE.SYSTEM.SOLV>
0.28244

>  <SCORE.SYSTEM.VDW>
-4.76747

>  <SCORE.SYSTEM.norm>
-1.80179

>  <SCORE.heavy>
11

>  <SCORE.norm>
-5.06709

$$$$
P51916469
 OpenBabel12072022113D
libRbt.so/2013.1/901 2013/11/27
 17 17  0  0  0  0  0  0  0  0999 V2000
    0.1208   13.1642    2.6043 C   0  0  0  0  0  0  0  0  0  0  0  0
    1.5386   13.1125    3.1759 C   0  0  2  0  0  0  0  0  0  0  0  0
    1.5815   12.2128    4.4213 C   0  0  0  0  0  0  0  0  0  0  0  0
    2.9916   12.1006    4.9940 C   0  0  0  0  0  0  0  0  0  0  0  0
    3.6209   13.4652    5.2537 C   0  0  0  0  0  0  0  0  0  0  0  0
    3.5816   14.3503    4.0024 C   0  0  1  0  0  0  0  0  0  0  0  0
    2.1391   14.5174    3.4526 C   0  0  2  0  0  0  0  0  0  0  0  0
    1.2550   15.3815    4.3663 C   0  0  0  0  0  0  0  0  0  0  0  0
    4.2416   15.6208    4.2705 N   0  0  0  0  0  0  0  0  0  0  0  0
    5.0308   16.2294    3.3251 C   0  0  0  0  0  0  0  0  0  0  0  0
    6.2548   16.1800    3.2941 O   0  0  0  0  0  0  0  0  0  0  0  0
    4.2661   16.9261    2.3965 N   0  0  0  0  0  0  0  0  0  0  0  0
    4.9085   17.4343    1.2383 N   0  0  0  0  0  0  0  0  0  0  0  0
    3.8007   16.2437    4.9317 H   0  0  0  0  0  0  0  0  0  0  0  0
    3.5055   17.4816    2.7785 H   0  0  0  0  0  0  0  0  0  0  0  0
    4.9697   18.4503    1.3554 H   0  0  0  0  0  0  0  0  0  0  0  0
    4.2381   17.3330    0.4630 H   0  0  0  0  0  0  0  0  0  0  0  0
  2  3  1  0  0  0  0
  2  7  1  0  0  0  0
  2  1  1  1  0  0  0
  3  4  1  0  0  0  0
  4  5  1  0  0  0  0
  5  6  1  0  0  0  0
  6  9  1  1  0  0  0
  6  7  1  0  0  0  0
  7  8  1  1  0  0  0
  9 10  1  0  0  0  0
  9 14  1  0  0  0  0
 10 11  2  0  0  0  0
 10 12  1  0  0  0  0
 12 13  1  0  0  0  0
 12 15  1  0  0  0  0
 13 16  1  0  0  0  0
 13 17  1  0  0  0  0
M  END
>  <CHROM.0>
-61.29000102,-69.39304798,-62.14345397,-46.39320346,-174.79165299,-62.68962772
-74.13916781,-55.75981539,-168.10830308

>  <CHROM.1>
141.13187643,-99.42357876,-170.24273293,-107.28817282,3.21258033,14.73296968
3.57282952,2.35320903,0.37489961,2.43679847

>  <Name>
P51916469

>  <RI>
2.22087e+07

>  <Rbt.Current_Directory>
/home/fstefaniak/projects/zuza/docking/adenine/4XNR

>  <Rbt.Executable>
rbdock ($Id: //depot/dev/client3/rdock/2013.1/src/exe/rbdock.cxx#4 $)

>  <Rbt.Library>
libRbt.so (2013.1, Build901 2013/11/27)

>  <Rbt.Parameter_File>
/home/fstefaniak/progs/rDock//data/scripts/dock_solv.prm

>  <Rbt.Receptor>
4xnr.prm

>  <SCORE>
-48.3959

>  <SCORE.INTER>
-27.1512

>  <SCORE.INTER.CONST>
1

>  <SCORE.INTER.POLAR>
-4.30037

>  <SCORE.INTER.ROT>
4

>  <SCORE.INTER.SOLV>
13.7002

>  <SCORE.INTER.VDW>
-14.5996

>  <SCORE.INTER.norm>
-2.08855

>  <SCORE.INTRA>
-0.535967

>  <SCORE.INTRA.DIHEDRAL>
0.103461

>  <SCORE.INTRA.DIHEDRAL.0>
2.54793

>  <SCORE.INTRA.POLAR>
0

>  <SCORE.INTRA.POLAR.0>
0

>  <SCORE.INTRA.REPUL>
0

>  <SCORE.INTRA.REPUL.0>
0

>  <SCORE.INTRA.SOLV>
0.0851774

>  <SCORE.INTRA.SOLV.lig_0>
-15.8758

>  <SCORE.INTRA.VDW>
-0.630286

>  <SCORE.INTRA.VDW.0>
-0.861439

>  <SCORE.INTRA.norm>
-0.0412283

>  <SCORE.RESTR>
0

>  <SCORE.RESTR.CAVITY>
0

>  <SCORE.RESTR.norm>
0

>  <SCORE.SYSTEM>
-20.7087

>  <SCORE.SYSTEM.CONST>
0

>  <SCORE.SYSTEM.DIHEDRAL>
5.16821

>  <SCORE.SYSTEM.POLAR>
-2.99022

>  <SCORE.SYSTEM.SOLV>
0.0989754

>  <SCORE.SYSTEM.VDW>
-5.59414

>  <SCORE.SYSTEM.norm>
-1.59298

>  <SCORE.heavy>
13

>  <SCORE.norm>
-3.72276

$$$$
P51916469
 OpenBabel12072022113D
libRbt.so/2013.1/901 2013/11/27
 17 17  0  0  0  0  0  0  0  0999 V2000
    0.2084   13.2000    2.5265 C   0  0  0  0  0  0  0  0  0  0  0  0
    1.6025   13.1727    3.1553 C   0  0  2  0  0  0  0  0  0  0  0  0
    1.6120   12.2674    4.3975 C   0  0  0  0  0  0  0  0  0  0  0  0
    2.9995   12.1795    5.0268 C   0  0  0  0  0  0  0  0  0  0  0  0
    3.5910   13.5546    5.3181 C   0  0  0  0  0  0  0  0  0  0  0  0
    3.5855   14.4454    4.0702 C   0  0  1  0  0  0  0  0  0  0  0  0
    2.1636   14.5875    3.4627 C   0  0  2  0  0  0  0  0  0  0  0  0
    1.2262   15.4295    4.3434 C   0  0  0  0  0  0  0  0  0  0  0  0
    4.2091   15.7270    4.3708 N   0  0  0  0  0  0  0  0  0  0  0  0
    4.7208   16.5233    3.3754 C   0  0  0  0  0  0  0  0  0  0  0  0
    5.3621   16.1196    2.4123 O   0  0  0  0  0  0  0  0  0  0  0  0
    4.4280   17.8642    3.5961 N   0  0  0  0  0  0  0  0  0  0  0  0
    5.3010   18.6188    4.4212 N   0  0  0  0  0  0  0  0  0  0  0  0
    3.8938   16.2155    5.1963 H   0  0  0  0  0  0  0  0  0  0  0  0
    3.4402   18.0992    3.6403 H   0  0  0  0  0  0  0  0  0  0  0  0
    5.0549   18.3995    5.3913 H   0  0  0  0  0  0  0  0  0  0  0  0
    5.0135   19.6035    4.3290 H   0  0  0  0  0  0  0  0  0  0  0  0
  2  3  1  0  0  0  0
  2  7  1  0  0  0  0
  2  1  1  1  0  0  0
  3  4  1  0  0  0  0
  4  5  1  0  0  0  0
  5  6  1  0  0  0  0
  6  9  1  1  0  0  0
  6  7  1  0  0  0  0
  7  8  1  1  0  0  0
  9 10  1  0  0  0  0
  9 14  1  0  0  0  0
 10 11  2  0  0  0  0
 10 12  1  0  0  0  0
 12 13  1  0  0  0  0
 12 15  1  0  0  0  0
 13 16  1  0  0  0  0
 13 17  1  0  0  0  0
M  END
>  <CHROM.0>
-63.27782068,-68.40732116,-56.73764786,-45.73053922,-174.43843629,-175.14878073
-69.02659031,-57.28523989,-166.72955464

>  <CHROM.1>
158.63756914,-41.23415730,85.94585841,-80.21266402,3.17157653,14.97012172
3.88937900,2.29234010,0.45529025,2.74517288

>  <Name>
P51916469

>  <RI>
2.22087e+07

>  <Rbt.Current_Directory>
/home/fstefaniak/projects/zuza/docking/adenine/4XNR

>  <Rbt.Executable>
rbdock ($Id: //depot/dev/client3/rdock/2013.1/src/exe/rbdock.cxx#4 $)

>  <Rbt.Library>
libRbt.so (2013.1, Build901 2013/11/27)

>  <Rbt.Parameter_File>
/home/fstefaniak/progs/rDock//data/scripts/dock_solv.prm

>  <Rbt.Receptor>
4xnr.prm

>  <SCORE>
-43.4855

>  <SCORE.INTER>
-22.1527

>  <SCORE.INTER.CONST>
1

>  <SCORE.INTER.POLAR>
-3.09488

>  <SCORE.INTER.ROT>
4

>  <SCORE.INTER.SOLV>
12.4776

>  <SCORE.INTER.VDW>
-14.878

>  <SCORE.INTER.norm>
-1.70405

>  <SCORE.INTRA>
-1.01565

>  <SCORE.INTRA.DIHEDRAL>
-0.933398

>  <SCORE.INTRA.DIHEDRAL.0>
2.54793

>  <SCORE.INTRA.POLAR>
0

>  <SCORE.INTRA.POLAR.0>
0

>  <SCORE.INTRA.REPUL>
0

>  <SCORE.INTRA.REPUL.0>
0

>  <SCORE.INTRA.SOLV>
0.2109

>  <SCORE.INTRA.SOLV.lig_0>
-15.8758

>  <SCORE.INTRA.VDW>
-0.654399

>  <SCORE.INTRA.VDW.0>
-0.861439

>  <SCORE.INTRA.norm>
-0.0781267

>  <SCORE.RESTR>
0

>  <SCORE.RESTR.CAVITY>
0

>  <SCORE.RESTR.norm>
0

>  <SCORE.SYSTEM>
-20.3172

>  <SCORE.SYSTEM.CONST>
0

>  <SCORE.SYSTEM.DIHEDRAL>
4.9175

>  <SCORE.SYSTEM.POLAR>
-2.99869

>  <SCORE.SYSTEM.SOLV>
0.000958491

>  <SCORE.SYSTEM.VDW>
-5.18865

>  <SCORE.SYSTEM.norm>
-1.56286

>  <SCORE.heavy>
13

>  <SCORE.norm>
-3.34504

$$$$
P51916469
 OpenBabel12072022113D
libRbt.so/2013.1/901 2013/11/27
 17 17  0  0  0  0  0  0  0  0999 V2000
    0.0751   12.9678    2.6574 C   0  0  0  0  0  0  0  0  0  0  0  0
    1.4933   12.9547    3.2301 C   0  0  2  0  0  0  0  0  0  0  0  0
    1.5500   12.0909    4.5002 C   0  0  0  0  0  0  0  0  0  0  0  0
    2.9615   12.0172    5.0757 C   0  0  0  0  0  0  0  0  0  0  0  0
    3.5689   13.3983    5.2972 C   0  0  0  0  0  0  0  0  0  0  0  0
    3.5160   14.2475    4.0216 C   0  0  1  0  0  0  0  0  0  0  0  0
    2.0712   14.3761    3.4675 C   0  0  2  0  0  0  0  0  0  0  0  0
    1.1731   15.2512    4.3568 C   0  0  0  0  0  0  0  0  0  0  0  0
    4.1556   15.5353    4.2541 N   0  0  0  0  0  0  0  0  0  0  0  0
    4.5611   16.3304    3.2100 C   0  0  0  0  0  0  0  0  0  0  0  0
    3.8093   16.9155    2.4391 O   0  0  0  0  0  0  0  0  0  0  0  0
    5.9473   16.3885    3.1237 N   0  0  0  0  0  0  0  0  0  0  0  0
    6.5271   17.1068    2.0465 N   0  0  0  0  0  0  0  0  0  0  0  0
    3.9186   16.0257    5.1044 H   0  0  0  0  0  0  0  0  0  0  0  0
    6.4447   15.5612    3.4419 H   0  0  0  0  0  0  0  0  0  0  0  0
    7.4020   17.5095    2.3960 H   0  0  0  0  0  0  0  0  0  0  0  0
    5.9365   17.9371    1.8963 H   0  0  0  0  0  0  0  0  0  0  0  0
  2  3  1  0  0  0  0
  2  7  1  0  0  0  0
  2  1  1  1  0  0  0
  3  4  1  0  0  0  0
  4  5  1  0  0  0  0
  5  6  1  0  0  0  0
  6  9  1  1  0  0  0
  6  7  1  0  0  0  0
  7  8  1  1  0  0  0
  9 10  1  0  0  0  0
  9 14  1  0  0  0  0
 10 11  2  0  0  0  0
 10 12  1  0  0  0  0
 12 13  1  0  0  0  0
 12 15  1  0  0  0  0
 13 16  1  0  0  0  0
 13 17  1  0  0  0  0
M  END
>  <CHROM.0>
-54.11818577,-64.74736944,-175.48116809,177.44146120,-61.32484882,-176.58369333
-60.75100377,-59.05894450,-167.94993892

>  <CHROM.1>
162.37884809,69.42761132,176.31021710,147.38412018,3.22148091,14.64235656
3.64956713,2.39978420,0.30146841,2.51762775

>  <Name>
P51916469

>  <RI>
2.22087e+07

>  <Rbt.Current_Directory>
/home/fstefaniak/projects/zuza/docking/adenine/4XNR

>  <Rbt.Executable>
rbdock ($Id: //depot/dev/client3/rdock/2013.1/src/exe/rbdock.cxx#4 $)

>  <Rbt.Library>
libRbt.so (2013.1, Build901 2013/11/27)

>  <Rbt.Parameter_File>
/home/fstefaniak/progs/rDock//data/scripts/dock_solv.prm

>  <Rbt.Receptor>
4xnr.prm

>  <SCORE>
-42.7994

>  <SCORE.INTER>
-25.8776

>  <SCORE.INTER.CONST>
1

>  <SCORE.INTER.POLAR>
-3.44925

>  <SCORE.INTER.ROT>
4

>  <SCORE.INTER.SOLV>
12.9856

>  <SCORE.INTER.VDW>
-16.3494

>  <SCORE.INTER.norm>
-1.99059

>  <SCORE.INTRA>
-0.773716

>  <SCORE.INTRA.DIHEDRAL>
-0.806968

>  <SCORE.INTRA.DIHEDRAL.0>
2.54793

>  <SCORE.INTRA.POLAR>
0

>  <SCORE.INTRA.POLAR.0>
0

>  <SCORE.INTRA.REPUL>
0

>  <SCORE.INTRA.REPUL.0>
0

>  <SCORE.INTRA.SOLV>
-0.0400132

>  <SCORE.INTRA.SOLV.lig_0>
-15.8758

>  <SCORE.INTRA.VDW>
-0.350225

>  <SCORE.INTRA.VDW.0>
-0.861439

>  <SCORE.INTRA.norm>
-0.0595166

>  <SCORE.RESTR>
0

>  <SCORE.RESTR.CAVITY>
0

>  <SCORE.RESTR.norm>
0

>  <SCORE.SYSTEM>
-16.1481

>  <SCORE.SYSTEM.CONST>
0

>  <SCORE.SYSTEM.DIHEDRAL>
3.23253

>  <SCORE.SYSTEM.POLAR>
-1.98754

>  <SCORE.SYSTEM.SOLV>
-0.0485092

>  <SCORE.SYSTEM.VDW>
-5.20161

>  <SCORE.SYSTEM.norm>
-1.24216

>  <SCORE.heavy>
13

>  <SCORE.norm>
-3.29226

$$$$
P52025934
 OpenBabel12072022113D
libRbt.so/2013.1/901 2013/11/27
 18 18  0  0  0  0  0  0  0  0999 V2000
    5.0220   14.9929    3.6047 C   0  0  0  0  0  0  0  0  0  0  0  0
    3.9370   14.1605    3.8969 C   0  0  0  0  0  0  0  0  0  0  0  0
    2.6597   14.7161    4.0653 C   0  0  0  0  0  0  0  0  0  0  0  0
    2.4751   16.1004    3.9363 C   0  0  0  0  0  0  0  0  0  0  0  0
    3.5645   16.9271    3.6444 C   0  0  0  0  0  0  0  0  0  0  0  0
    4.8438   16.3792    3.4872 C   0  0  0  0  0  0  0  0  0  0  0  0
    6.0313   17.2156    3.1606 C   0  0  0  0  0  0  0  0  0  0  0  0
    6.5984   17.0878    2.0783 O   0  0  0  0  0  0  0  0  0  0  0  0
    6.4637   18.0994    4.1417 N   0  0  0  0  0  0  0  0  0  0  0  0
    7.6253   18.8675    3.9070 N   0  0  0  0  0  0  0  0  0  0  0  0
    1.2790   16.7529    4.0682 O   0  0  0  0  0  0  0  0  0  0  0  0
    1.5348   13.8269    4.3673 N   0  3  0  0  0  0  0  0  0  0  0  0
    1.7627   12.6154    4.4819 O   0  0  0  0  0  0  0  0  0  0  0  0
    0.4146   14.3479    4.4919 O   0  5  0  0  0  0  0  0  0  0  0  0
    6.1016   18.0579    5.0917 H   0  0  0  0  0  0  0  0  0  0  0  0
    8.4057   18.2110    3.7999 H   0  0  0  0  0  0  0  0  0  0  0  0
    7.8497   19.3451    4.7906 H   0  0  0  0  0  0  0  0  0  0  0  0
    1.4290   17.7184    4.1632 H   0  0  0  0  0  0  0  0  0  0  0  0
  1  2  2  0  0  0  0
  1  6  1  0  0  0  0
  2  3  1  0  0  0  0
  3  4  2  0  0  0  0
  3 12  1  0  0  0  0
  4  5  1  0  0  0  0
  4 11  1  0  0  0  0
  5  6  2  0  0  0  0
  6  7  1  0  0  0  0
  7  8  2  0  0  0  0
  7  9  1  0  0  0  0
  9 10  1  0  0  0  0
  9 15  1  0  0  0  0
 10 16  1  0  0  0  0
 10 17  1  0  0  0  0
 11 18  1  0  0  0  0
 12 13  2  0  0  0  0
 12 14  1  0  0  0  0
M  CHG  2  12   1  14  -1
M  END
>  <CHROM.0>
-59.33311364,-64.39704248,-66.08716281,-48.05467994,-60.18993864,-64.34188063
-68.02489869,-62.05074218,-168.45969393

>  <CHROM.1>
165.65142418,64.72480382,-62.40789253,3.84994367,15.88514253,3.82893095,-0.60255763
-0.18722015,-3.11511753

>  <Name>
P52025934

>  <RI>
2.22087e+07

>  <Rbt.Current_Directory>
/home/fstefaniak/projects/zuza/docking/adenine/4XNR

>  <Rbt.Executable>
rbdock ($Id: //depot/dev/client3/rdock/2013.1/src/exe/rbdock.cxx#4 $)

>  <Rbt.Library>
libRbt.so (2013.1, Build901 2013/11/27)

>  <Rbt.Parameter_File>
/home/fstefaniak/progs/rDock//data/scripts/dock_solv.prm

>  <Rbt.Receptor>
4xnr.prm

>  <SCORE>
-48.4368

>  <SCORE.INTER>
-31.9209

>  <SCORE.INTER.CONST>
1

>  <SCORE.INTER.POLAR>
-3.76066

>  <SCORE.INTER.ROT>
2

>  <SCORE.INTER.SOLV>
13.861

>  <SCORE.INTER.VDW>
-18.2988

>  <SCORE.INTER.norm>
-2.28007

>  <SCORE.INTRA>
4.40303

>  <SCORE.INTRA.DIHEDRAL>
8.96356

>  <SCORE.INTRA.DIHEDRAL.0>
2.58036

>  <SCORE.INTRA.POLAR>
0

>  <SCORE.INTRA.POLAR.0>
0

>  <SCORE.INTRA.REPUL>
0

>  <SCORE.INTRA.REPUL.0>
0

>  <SCORE.INTRA.SOLV>
-0.28252

>  <SCORE.INTRA.SOLV.lig_0>
-22.7505

>  <SCORE.INTRA.VDW>
0.0625142

>  <SCORE.INTRA.VDW.0>
-0.191695

>  <SCORE.INTRA.norm>
0.314502

>  <SCORE.RESTR>
0

>  <SCORE.RESTR.CAVITY>
0

>  <SCORE.RESTR.norm>
0

>  <SCORE.SYSTEM>
-20.9189

>  <SCORE.SYSTEM.CONST>
0

>  <SCORE.SYSTEM.DIHEDRAL>
4.04617

>  <SCORE.SYSTEM.POLAR>
-2.95417

>  <SCORE.SYSTEM.SOLV>
0.269361

>  <SCORE.SYSTEM.VDW>
-5.53722

>  <SCORE.SYSTEM.norm>
-1.49421

>  <SCORE.heavy>
14

>  <SCORE.norm>
-3.45977

$$$$
P52025934
 OpenBabel12072022113D
libRbt.so/2013.1/901 2013/11/27
 18 18  0  0  0  0  0  0  0  0999 V2000
    4.8832   14.9411    3.6650 C   0  0  0  0  0  0  0  0  0  0  0  0
    3.8373   14.0620    3.9635 C   0  0  0  0  0  0  0  0  0  0  0  0
    2.5229   14.5463    4.0429 C   0  0  0  0  0  0  0  0  0  0  0  0
    2.2625   15.9062    3.8193 C   0  0  0  0  0  0  0  0  0  0  0  0
    3.3131   16.7798    3.5217 C   0  0  0  0  0  0  0  0  0  0  0  0
    4.6284   16.3039    3.4530 C   0  0  0  0  0  0  0  0  0  0  0  0
    5.7779   17.1913    3.1243 C   0  0  0  0  0  0  0  0  0  0  0  0
    6.2087   17.2443    1.9751 O   0  0  0  0  0  0  0  0  0  0  0  0
    6.3360   17.9083    4.1755 N   0  0  0  0  0  0  0  0  0  0  0  0
    7.4699   18.7132    3.9289 N   0  0  0  0  0  0  0  0  0  0  0  0
    1.0249   16.4899    3.8596 O   0  0  0  0  0  0  0  0  0  0  0  0
    1.4402   13.6088    4.3529 N   0  3  0  0  0  0  0  0  0  0  0  0
    1.7342   12.4230    4.5532 O   0  0  0  0  0  0  0  0  0  0  0  0
    0.2866   14.0658    4.3975 O   0  5  0  0  0  0  0  0  0  0  0  0
    6.0906   17.7112    5.1431 H   0  0  0  0  0  0  0  0  0  0  0  0
    8.2685   18.0816    3.8067 H   0  0  0  0  0  0  0  0  0  0  0  0
    7.6923   19.1924    4.8122 H   0  0  0  0  0  0  0  0  0  0  0  0
    0.3263   15.8100    3.7444 H   0  0  0  0  0  0  0  0  0  0  0  0
  1  2  2  0  0  0  0
  1  6  1  0  0  0  0
  2  3  1  0  0  0  0
  3  4  2  0  0  0  0
  3 12  1  0  0  0  0
  4  5  1  0  0  0  0
  4 11  1  0  0  0  0
  5  6  2  0  0  0  0
  6  7  1  0  0  0  0
  7  8  2  0  0  0  0
  7  9  1  0  0  0  0
  9 10  1  0  0  0  0
  9 15  1  0  0  0  0
 10 16  1  0  0  0  0
 10 17  1  0  0  0  0
 11 18  1  0  0  0  0
 12 13  2  0  0  0  0
 12 14  1  0  0  0  0
M  CHG  2  12   1  14  -1
M  END
>  <CHROM.0>
-59.49936139,-176.77011013,60.53146737,-46.87927995,-59.89154670,-61.89489944
52.38164927,-60.36112500,-168.02695527

>  <CHROM.1>
-20.28270185,81.09278689,-73.44355980,3.66876810,15.73707543,3.79042688,-0.64524949
-0.08150382,3.02689964

>  <Name>
P52025934

>  <RI>
2.22087e+07

>  <Rbt.Current_Directory>
/home/fstefaniak/projects/zuza/docking/adenine/4XNR

>  <Rbt.Executable>
rbdock ($Id: //depot/dev/client3/rdock/2013.1/src/exe/rbdock.cxx#4 $)

>  <Rbt.Library>
libRbt.so (2013.1, Build901 2013/11/27)

>  <Rbt.Parameter_File>
/home/fstefaniak/progs/rDock//data/scripts/dock_solv.prm

>  <Rbt.Receptor>
4xnr.prm

>  <SCORE>
-46.2001

>  <SCORE.INTER>
-32.0724

>  <SCORE.INTER.CONST>
1

>  <SCORE.INTER.POLAR>
-3.69146

>  <SCORE.INTER.ROT>
2

>  <SCORE.INTER.SOLV>
13.1837

>  <SCORE.INTER.VDW>
-18.4047

>  <SCORE.INTER.norm>
-2.29089

>  <SCORE.INTRA>
4.68142

>  <SCORE.INTRA.DIHEDRAL>
11.1859

>  <SCORE.INTRA.DIHEDRAL.0>
2.58036

>  <SCORE.INTRA.POLAR>
0

>  <SCORE.INTRA.POLAR.0>
0

>  <SCORE.INTRA.REPUL>
0

>  <SCORE.INTRA.REPUL.0>
0

>  <SCORE.INTRA.SOLV>
-0.304349

>  <SCORE.INTRA.SOLV.lig_0>
-22.7505

>  <SCORE.INTRA.VDW>
-0.759334

>  <SCORE.INTRA.VDW.0>
-0.191695

>  <SCORE.INTRA.norm>
0.334387

>  <SCORE.RESTR>
0

>  <SCORE.RESTR.CAVITY>
0

>  <SCORE.RESTR.norm>
0

>  <SCORE.SYSTEM>
-18.8091

>  <SCORE.SYSTEM.CONST>
0

>  <SCORE.SYSTEM.DIHEDRAL>
3.895

>  <SCORE.SYSTEM.POLAR>
-2.95818

>  <SCORE.SYSTEM.SOLV>
0.165461

>  <SCORE.SYSTEM.VDW>
-4.03227

>  <SCORE.SYSTEM.norm>
-1.34351

>  <SCORE.heavy>
14

>  <SCORE.norm>
-3.30001

$$$$
P52025934
 OpenBabel12072022113D
libRbt.so/2013.1/901 2013/11/27
 18 18  0  0  0  0  0  0  0  0999 V2000
    4.8831   14.8981    3.5995 C   0  0  0  0  0  0  0  0  0  0  0  0
    3.8264   14.0253    3.8775 C   0  0  0  0  0  0  0  0  0  0  0  0
    2.5168   14.5222    3.9582 C   0  0  0  0  0  0  0  0  0  0  0  0
    2.2720   15.8883    3.7563 C   0  0  0  0  0  0  0  0  0  0  0  0
    3.3334   16.7556    3.4791 C   0  0  0  0  0  0  0  0  0  0  0  0
    4.6440   16.2670    3.4094 C   0  0  0  0  0  0  0  0  0  0  0  0
    5.8045   17.1474    3.1018 C   0  0  0  0  0  0  0  0  0  0  0  0
    6.2750   17.1761    1.9674 O   0  0  0  0  0  0  0  0  0  0  0  0
    6.3261   17.8869    4.1562 N   0  0  0  0  0  0  0  0  0  0  0  0
    7.4683   18.6867    3.9320 N   0  0  0  0  0  0  0  0  0  0  0  0
    1.0405   16.4845    3.7999 O   0  0  0  0  0  0  0  0  0  0  0  0
    1.4226   13.5912    4.2466 N   0  3  0  0  0  0  0  0  0  0  0  0
    1.7029   12.3991    4.4282 O   0  0  0  0  0  0  0  0  0  0  0  0
    0.2736   14.0597    4.2928 O   0  5  0  0  0  0  0  0  0  0  0  0
    6.0473   17.7104    5.1187 H   0  0  0  0  0  0  0  0  0  0  0  0
    8.2625   18.0508    3.8036 H   0  0  0  0  0  0  0  0  0  0  0  0
    7.6885   19.1479    4.8253 H   0  0  0  0  0  0  0  0  0  0  0  0
    0.3347   15.8116    3.6868 H   0  0  0  0  0  0  0  0  0  0  0  0
  1  2  2  0  0  0  0
  1  6  1  0  0  0  0
  2  3  1  0  0  0  0
  3  4  2  0  0  0  0
  3 12  1  0  0  0  0
  4  5  1  0  0  0  0
  4 11  1  0  0  0  0
  5  6  2  0  0  0  0
  6  7  1  0  0  0  0
  7  8  2  0  0  0  0
  7  9  1  0  0  0  0
  9 10  1  0  0  0  0
  9 15  1  0  0  0  0
 10 16  1  0  0  0  0
 10 17  1  0  0  0  0
 11 18  1  0  0  0  0
 12 13  2  0  0  0  0
 12 14  1  0  0  0  0
M  CHG  2  12   1  14  -1
M  END
>  <CHROM.0>
-56.93502053,43.39809497,-71.15175453,-45.87735540,-60.27054423,-63.80331219
-171.43791820,-56.99329620,-168.15489801

>  <CHROM.1>
-19.19821971,78.26588301,-70.62783692,3.67292074,15.70929226,3.73141205,-0.63708966
-0.08920978,3.06005350

>  <Name>
P52025934

>  <RI>
2.22087e+07

>  <Rbt.Current_Directory>
/home/fstefaniak/projects/zuza/docking/adenine/4XNR

>  <Rbt.Executable>
rbdock ($Id: //depot/dev/client3/rdock/2013.1/src/exe/rbdock.cxx#4 $)

>  <Rbt.Library>
libRbt.so (2013.1, Build901 2013/11/27)

>  <Rbt.Parameter_File>
/home/fstefaniak/progs/rDock//data/scripts/dock_solv.prm

>  <Rbt.Receptor>
4xnr.prm

>  <SCORE>
-45.308

>  <SCORE.INTER>
-30.5886

>  <SCORE.INTER.CONST>
1

>  <SCORE.INTER.POLAR>
-3.69642

>  <SCORE.INTER.ROT>
2

>  <SCORE.INTER.SOLV>
13.067

>  <SCORE.INTER.VDW>
-17.36

>  <SCORE.INTER.norm>
-2.1849

>  <SCORE.INTRA>
4.56614

>  <SCORE.INTRA.DIHEDRAL>
10.9203

>  <SCORE.INTRA.DIHEDRAL.0>
2.58036

>  <SCORE.INTRA.POLAR>
0

>  <SCORE.INTRA.POLAR.0>
0

>  <SCORE.INTRA.REPUL>
0

>  <SCORE.INTRA.REPUL.0>
0

>  <SCORE.INTRA.SOLV>
-0.298654

>  <SCORE.INTRA.SOLV.lig_0>
-22.7505

>  <SCORE.INTRA.VDW>
-0.744687

>  <SCORE.INTRA.VDW.0>
-0.191695

>  <SCORE.INTRA.norm>
0.326153

>  <SCORE.RESTR>
0

>  <SCORE.RESTR.CAVITY>
0

>  <SCORE.RESTR.norm>
0

>  <SCORE.SYSTEM>
-19.2855

>  <SCORE.SYSTEM.CONST>
0

>  <SCORE.SYSTEM.DIHEDRAL>
5.95021

>  <SCORE.SYSTEM.POLAR>
-3.09585

>  <SCORE.SYSTEM.SOLV>
0.366806

>  <SCORE.SYSTEM.VDW>
-4.64314

>  <SCORE.SYSTEM.norm>
-1.37753

>  <SCORE.heavy>
14

>  <SCORE.norm>
-3.23628

$$$$
P52893162
 OpenBabel12072022113D
libRbt.so/2013.1/901 2013/11/27
 17 17  0  0  0  0  0  0  0  0999 V2000
    5.4510   18.1368    5.6041 C   0  0  0  0  0  0  0  0  0  0  0  0
    5.3324   17.7042    4.1346 C   0  0  0  0  0  0  0  0  0  0  0  0
    6.6841   17.9512    3.4503 C   0  0  0  0  0  0  0  0  0  0  0  0
    4.8738   16.2218    4.0344 C   0  0  1  0  0  0  0  0  0  0  0  0
    3.3282   16.1067    3.8700 C   0  0  0  0  0  0  0  0  0  0  0  0
    2.7084   16.9259    3.1841 O   0  0  0  0  0  0  0  0  0  0  0  0
    2.6809   15.0375    4.4871 N   0  0  0  0  0  0  0  0  0  0  0  0
    1.2476   14.8653    4.2719 C   0  0  0  0  0  0  0  0  0  0  0  0
    0.9930   13.7220    3.2888 C   0  0  0  0  0  0  0  0  0  0  0  0
    1.6746   12.4340    3.7545 C   0  0  0  0  0  0  0  0  0  0  0  0
    3.1629   12.6556    4.0502 C   0  0  1  0  0  0  0  0  0  0  0  0
    3.3514   13.8433    5.0073 C   0  0  0  0  0  0  0  0  0  0  0  0
    3.7037   11.4738    4.6370 O   0  0  0  0  0  0  0  0  0  0  0  0
    5.4834   15.5345    2.8726 N   0  0  0  0  0  0  0  0  0  0  0  0
    3.2103   11.3113    5.4597 H   0  0  0  0  0  0  0  0  0  0  0  0
    4.8882   14.7624    2.5806 H   0  0  0  0  0  0  0  0  0  0  0  0
    6.3625   15.1143    3.1806 H   0  0  0  0  0  0  0  0  0  0  0  0
  1  2  1  0  0  0  0
  2  3  1  0  0  0  0
  4  2  1  6  0  0  0
  4  5  1  0  0  0  0
  4 14  1  0  0  0  0
  5  6  2  0  0  0  0
  5  7  1  0  0  0  0
  7  8  1  0  0  0  0
  7 12  1  0  0  0  0
  8  9  1  0  0  0  0
  9 10  1  0  0  0  0
 10 11  1  0  0  0  0
 11 12  1  0  0  0  0
 11 13  1  1  0  0  0
 13 15  1  0  0  0  0
 14 16  1  0  0  0  0
 14 17  1  0  0  0  0
M  END
>  <CHROM.0>
-63.38757737,-64.31799993,-71.01221464,-49.09557130,-57.70210725,-60.44560703
-64.27033157,-60.30949847,-166.85805970

>  <CHROM.1>
94.47260085,37.41190243,-154.51947731,-60.14302538,3.64450570,15.15950928
4.04520767,0.96264527,-0.10301673,-0.07875246

>  <Name>
P52893162

>  <RI>
9.71178e+06

>  <Rbt.Current_Directory>
/home/fstefaniak/projects/zuza/docking/adenine/4XNR

>  <Rbt.Executable>
rbdock ($Id: //depot/dev/client3/rdock/2013.1/src/exe/rbdock.cxx#4 $)

>  <Rbt.Library>
libRbt.so (2013.1, Build901 2013/11/27)

>  <Rbt.Parameter_File>
/home/fstefaniak/progs/rDock//data/scripts/dock_solv.prm

>  <Rbt.Receptor>
4xnr.prm

>  <SCORE>
-49.1251

>  <SCORE.INTER>
-30.7898

>  <SCORE.INTER.CONST>
1

>  <SCORE.INTER.POLAR>
-2.78947

>  <SCORE.INTER.ROT>
3

>  <SCORE.INTER.SOLV>
11.4051

>  <SCORE.INTER.VDW>
-20.63

>  <SCORE.INTER.norm>
-2.19927

>  <SCORE.INTRA>
2.36656

>  <SCORE.INTRA.DIHEDRAL>
4.11455

>  <SCORE.INTRA.DIHEDRAL.0>
1.61973

>  <SCORE.INTRA.POLAR>
0

>  <SCORE.INTRA.POLAR.0>
0

>  <SCORE.INTRA.REPUL>
0

>  <SCORE.INTRA.REPUL.0>
0

>  <SCORE.INTRA.SOLV>
-0.0515613

>  <SCORE.INTRA.SOLV.lig_0>
-13.328

>  <SCORE.INTRA.VDW>
0.33506

>  <SCORE.INTRA.VDW.0>
-0.33077

>  <SCORE.INTRA.norm>
0.16904

>  <SCORE.RESTR>
0.0287026

>  <SCORE.RESTR.CAVITY>
0.0287026

>  <SCORE.RESTR.norm>
0.00205019

>  <SCORE.SYSTEM>
-20.7306

>  <SCORE.SYSTEM.CONST>
0

>  <SCORE.SYSTEM.DIHEDRAL>
4.23596

>  <SCORE.SYSTEM.POLAR>
-2.91526

>  <SCORE.SYSTEM.SOLV>
0.273328

>  <SCORE.SYSTEM.VDW>
-5.60592

>  <SCORE.SYSTEM.norm>
-1.48075

>  <SCORE.heavy>
14

>  <SCORE.norm>
-3.50894

$$$$
P52893162
 OpenBabel12072022113D
libRbt.so/2013.1/901 2013/11/27
 17 17  0  0  0  0  0  0  0  0999 V2000
    5.5146   17.9542    5.7342 C   0  0  0  0  0  0  0  0  0  0  0  0
    5.1706   17.6915    4.2600 C   0  0  0  0  0  0  0  0  0  0  0  0
    6.3716   18.1153    3.4033 C   0  0  0  0  0  0  0  0  0  0  0  0
    4.7791   16.2020    4.0450 C   0  0  1  0  0  0  0  0  0  0  0  0
    3.2573   16.0433    3.7484 C   0  0  0  0  0  0  0  0  0  0  0  0
    2.7021   16.7684    2.9168 O   0  0  0  0  0  0  0  0  0  0  0  0
    2.5593   15.0409    4.4202 N   0  0  0  0  0  0  0  0  0  0  0  0
    1.1544   14.8216    4.0907 C   0  0  0  0  0  0  0  0  0  0  0  0
    1.0022   13.5695    3.2261 C   0  0  0  0  0  0  0  0  0  0  0  0
    1.6428   12.3545    3.9000 C   0  0  0  0  0  0  0  0  0  0  0  0
    3.0943   12.6331    4.3087 C   0  0  1  0  0  0  0  0  0  0  0  0
    3.1830   13.9253    5.1361 C   0  0  0  0  0  0  0  0  0  0  0  0
    3.5825   11.5351    5.0767 O   0  0  0  0  0  0  0  0  0  0  0  0
    5.5060   15.6013    2.9029 N   0  0  0  0  0  0  0  0  0  0  0  0
    3.0224   11.4692    5.8696 H   0  0  0  0  0  0  0  0  0  0  0  0
    5.0163   14.7674    2.5859 H   0  0  0  0  0  0  0  0  0  0  0  0
    6.4169   15.2843    3.2404 H   0  0  0  0  0  0  0  0  0  0  0  0
  1  2  1  0  0  0  0
  2  3  1  0  0  0  0
  4  2  1  6  0  0  0
  4  5  1  0  0  0  0
  4 14  1  0  0  0  0
  5  6  2  0  0  0  0
  5  7  1  0  0  0  0
  7  8  1  0  0  0  0
  7 12  1  0  0  0  0
  8  9  1  0  0  0  0
  9 10  1  0  0  0  0
 10 11  1  0  0  0  0
 11 12  1  0  0  0  0
 11 13  1  1  0  0  0
 13 15  1  0  0  0  0
 14 16  1  0  0  0  0
 14 17  1  0  0  0  0
M  END
>  <CHROM.0>
-55.60971231,-71.16588388,-64.63594584,-46.41317511,-175.31984198,57.64698200
-68.17733489,-60.82567089,-167.67088244

>  <CHROM.1>
109.35897052,47.24365280,-160.48662715,-61.10968545,3.56339306,15.13607053
4.08550604,-0.93542463,0.30376242,2.88399421

>  <Name>
P52893162

>  <RI>
9.71178e+06

>  <Rbt.Current_Directory>
/home/fstefaniak/projects/zuza/docking/adenine/4XNR

>  <Rbt.Executable>
rbdock ($Id: //depot/dev/client3/rdock/2013.1/src/exe/rbdock.cxx#4 $)

>  <Rbt.Library>
libRbt.so (2013.1, Build901 2013/11/27)

>  <Rbt.Parameter_File>
/home/fstefaniak/progs/rDock//data/scripts/dock_solv.prm

>  <Rbt.Receptor>
4xnr.prm

>  <SCORE>
-48.2461

>  <SCORE.INTER>
-31.991

>  <SCORE.INTER.CONST>
1

>  <SCORE.INTER.POLAR>
-3.19212

>  <SCORE.INTER.ROT>
3

>  <SCORE.INTER.SOLV>
11.4427

>  <SCORE.INTER.VDW>
-20.1012

>  <SCORE.INTER.norm>
-2.28507

>  <SCORE.INTRA>
3.38698

>  <SCORE.INTRA.DIHEDRAL>
5.50513

>  <SCORE.INTRA.DIHEDRAL.0>
1.61973

>  <SCORE.INTRA.POLAR>
0

>  <SCORE.INTRA.POLAR.0>
0

>  <SCORE.INTRA.REPUL>
0

>  <SCORE.INTRA.REPUL.0>
0

>  <SCORE.INTRA.SOLV>
-0.135968

>  <SCORE.INTRA.SOLV.lig_0>
-13.328

>  <SCORE.INTRA.VDW>
0.702399

>  <SCORE.INTRA.VDW.0>
-0.33077

>  <SCORE.INTRA.norm>
0.241927

>  <SCORE.RESTR>
0.032521

>  <SCORE.RESTR.CAVITY>
0.032521

>  <SCORE.RESTR.norm>
0.00232293

>  <SCORE.SYSTEM>
-19.6745

>  <SCORE.SYSTEM.CONST>
0

>  <SCORE.SYSTEM.DIHEDRAL>
4.85331

>  <SCORE.SYSTEM.POLAR>
-3.01954

>  <SCORE.SYSTEM.SOLV>
-0.0179529

>  <SCORE.SYSTEM.VDW>
-4.66302

>  <SCORE.SYSTEM.norm>
-1.40532

>  <SCORE.heavy>
14

>  <SCORE.norm>
-3.44615

$$$$
P52893162
 OpenBabel12072022113D
libRbt.so/2013.1/901 2013/11/27
 17 17  0  0  0  0  0  0  0  0999 V2000
    5.7553   18.4248    5.2038 C   0  0  0  0  0  0  0  0  0  0  0  0
    5.3846   17.8781    3.8165 C   0  0  0  0  0  0  0  0  0  0  0  0
    6.6017   18.0398    2.8954 C   0  0  0  0  0  0  0  0  0  0  0  0
    4.9042   16.4027    3.9188 C   0  0  1  0  0  0  0  0  0  0  0  0
    3.3544   16.2916    3.7964 C   0  0  0  0  0  0  0  0  0  0  0  0
    2.7203   17.1011    3.1120 O   0  0  0  0  0  0  0  0  0  0  0  0
    2.7191   15.2366    4.4495 N   0  0  0  0  0  0  0  0  0  0  0  0
    1.2799   15.0670    4.2745 C   0  0  0  0  0  0  0  0  0  0  0  0
    0.9954   13.9073    3.3192 C   0  0  0  0  0  0  0  0  0  0  0  0
    1.6836   12.6248    3.7905 C   0  0  0  0  0  0  0  0  0  0  0  0
    3.1800   12.8451    4.0437 C   0  0  1  0  0  0  0  0  0  0  0  0
    3.3980   14.0491    4.9738 C   0  0  0  0  0  0  0  0  0  0  0  0
    3.7311   11.6717    4.6377 O   0  0  0  0  0  0  0  0  0  0  0  0
    5.4829   15.5600    2.8470 N   0  0  0  0  0  0  0  0  0  0  0  0
    3.2349   11.5065    5.4583 H   0  0  0  0  0  0  0  0  0  0  0  0
    4.8227   14.8286    2.5925 H   0  0  0  0  0  0  0  0  0  0  0  0
    6.3020   15.0829    3.2286 H   0  0  0  0  0  0  0  0  0  0  0  0
  1  2  1  0  0  0  0
  2  3  1  0  0  0  0
  4  2  1  6  0  0  0
  4  5  1  0  0  0  0
  4 14  1  0  0  0  0
  5  6  2  0  0  0  0
  5  7  1  0  0  0  0
  7  8  1  0  0  0  0
  7 12  1  0  0  0  0
  8  9  1  0  0  0  0
  9 10  1  0  0  0  0
 10 11  1  0  0  0  0
 11 12  1  0  0  0  0
 11 13  1  1  0  0  0
 13 15  1  0  0  0  0
 14 16  1  0  0  0  0
 14 17  1  0  0  0  0
M  END
>  <CHROM.0>
-53.17609207,-176.45369578,-73.38529627,-47.80253405,-58.58509613,-60.55526789
-172.25557823,-174.84502710,-168.21469823

>  <CHROM.1>
103.68239941,30.89725418,-147.94124457,-57.96092334,3.68081684,15.33580632
3.93313647,-0.96049138,0.05736906,3.02323138

>  <Name>
P52893162

>  <RI>
9.71178e+06

>  <Rbt.Current_Directory>
/home/fstefaniak/projects/zuza/docking/adenine/4XNR

>  <Rbt.Executable>
rbdock ($Id: //depot/dev/client3/rdock/2013.1/src/exe/rbdock.cxx#4 $)

>  <Rbt.Library>
libRbt.so (2013.1, Build901 2013/11/27)

>  <Rbt.Parameter_File>
/home/fstefaniak/progs/rDock//data/scripts/dock_solv.prm

>  <Rbt.Receptor>
4xnr.prm

>  <SCORE>
-47.7159

>  <SCORE.INTER>
-30.9372

>  <SCORE.INTER.CONST>
1

>  <SCORE.INTER.POLAR>
-2.7292

>  <SCORE.INTER.ROT>
3

>  <SCORE.INTER.SOLV>
11.4656

>  <SCORE.INTER.VDW>
-20.9493

>  <SCORE.INTER.norm>
-2.2098

>  <SCORE.INTRA>
3.29218

>  <SCORE.INTRA.DIHEDRAL>
5.22164

>  <SCORE.INTRA.DIHEDRAL.0>
1.61973

>  <SCORE.INTRA.POLAR>
0

>  <SCORE.INTRA.POLAR.0>
0

>  <SCORE.INTRA.REPUL>
0

>  <SCORE.INTRA.REPUL.0>
0

>  <SCORE.INTRA.SOLV>
0.0242115

>  <SCORE.INTRA.SOLV.lig_0>
-13.328

>  <SCORE.INTRA.VDW>
0.669251

>  <SCORE.INTRA.VDW.0>
-0.33077

>  <SCORE.INTRA.norm>
0.235156

>  <SCORE.RESTR>
0

>  <SCORE.RESTR.CAVITY>
0

>  <SCORE.RESTR.norm>
0

>  <SCORE.SYSTEM>
-20.0708

>  <SCORE.SYSTEM.CONST>
0

>  <SCORE.SYSTEM.DIHEDRAL>
4.89693

>  <SCORE.SYSTEM.POLAR>
-2.99856

>  <SCORE.SYSTEM.SOLV>
0.0798333

>  <SCORE.SYSTEM.VDW>
-5.04428

>  <SCORE.SYSTEM.norm>
-1.43363

>  <SCORE.heavy>
14

>  <SCORE.norm>
-3.40828

$$$$
P53118001
 OpenBabel12072022113D
libRbt.so/2013.1/901 2013/11/27
 15 15  0  0  0  0  0  0  0  0999 V2000
    7.0881   18.9742    1.2424 C   0  0  0  0  0  0  0  0  0  0  0  0
    6.8723   17.5905    1.8539 C   0  0  1  0  0  0  0  0  0  0  0  0
    7.0116   17.5968    3.3843 C   0  0  0  0  0  0  0  0  0  0  0  0
    5.8348   18.1477    4.0637 N   0  0  0  0  0  0  0  0  0  0  0  0
    4.5368   17.6428    3.5665 C   0  0  1  0  0  0  0  0  0  0  0  0
    4.4904   17.6710    2.0279 C   0  0  0  0  0  0  0  0  0  0  0  0
    5.6202   17.0197    1.4373 O   0  0  0  0  0  0  0  0  0  0  0  0
    4.2594   16.2319    4.0994 C   0  0  0  0  0  0  0  0  0  0  0  0
    6.0275   18.6085    5.3604 C   0  0  0  0  0  0  0  0  0  0  0  0
    5.3339   18.2610    6.3159 O   0  0  0  0  0  0  0  0  0  0  0  0
    7.0737   19.5098    5.5132 N   0  0  0  0  0  0  0  0  0  0  0  0
    8.3104   19.0220    6.0206 N   0  0  0  0  0  0  0  0  0  0  0  0
    7.1459   20.2122    4.7835 H   0  0  0  0  0  0  0  0  0  0  0  0
    8.0959   18.1328    6.4965 H   0  0  0  0  0  0  0  0  0  0  0  0
    8.5781   19.6394    6.7926 H   0  0  0  0  0  0  0  0  0  0  0  0
  2  1  1  1  0  0  0
  2  3  1  0  0  0  0
  2  7  1  0  0  0  0
  3  4  1  0  0  0  0
  4  5  1  0  0  0  0
  4  9  1  0  0  0  0
  5  6  1  0  0  0  0
  5  8  1  6  0  0  0
  6  7  1  0  0  0  0
  9 10  2  0  0  0  0
  9 11  1  0  0  0  0
 11 12  1  0  0  0  0
 11 13  1  0  0  0  0
 12 14  1  0  0  0  0
 12 15  1  0  0  0  0
M  END
>  <CHROM.0>
-57.71909980,-155.77514798,-45.61449583,-46.12536124,-57.02256807,-57.30794021
-64.69451895,-57.78958696,-167.73838996

>  <CHROM.1>
-128.02697755,-100.13323626,-19.74876069,6.05808707,18.02978175,3.76362153
-1.90883807,0.52180433,1.42113877

>  <Name>
P53118001

>  <RI>
9.71178e+06

>  <Rbt.Current_Directory>
/home/fstefaniak/projects/zuza/docking/adenine/4XNR

>  <Rbt.Executable>
rbdock ($Id: //depot/dev/client3/rdock/2013.1/src/exe/rbdock.cxx#4 $)

>  <Rbt.Library>
libRbt.so (2013.1, Build901 2013/11/27)

>  <Rbt.Parameter_File>
/home/fstefaniak/progs/rDock//data/scripts/dock_solv.prm

>  <Rbt.Receptor>
4xnr.prm

>  <SCORE>
-45.2952

>  <SCORE.INTER>
-25.1775

>  <SCORE.INTER.CONST>
1

>  <SCORE.INTER.POLAR>
-5.43211

>  <SCORE.INTER.ROT>
3

>  <SCORE.INTER.SOLV>
15.6219

>  <SCORE.INTER.VDW>
-9.48525

>  <SCORE.INTER.norm>
-2.09812

>  <SCORE.INTRA>
-0.989758

>  <SCORE.INTRA.DIHEDRAL>
-0.364242

>  <SCORE.INTRA.DIHEDRAL.0>
2.27256

>  <SCORE.INTRA.POLAR>
0

>  <SCORE.INTRA.POLAR.0>
0

>  <SCORE.INTRA.REPUL>
0

>  <SCORE.INTRA.REPUL.0>
0

>  <SCORE.INTRA.SOLV>
0.11745

>  <SCORE.INTRA.SOLV.lig_0>
-17.6506

>  <SCORE.INTRA.VDW>
-0.866361

>  <SCORE.INTRA.VDW.0>
0.232713

>  <SCORE.INTRA.norm>
-0.0824798

>  <SCORE.RESTR>
0

>  <SCORE.RESTR.CAVITY>
0

>  <SCORE.RESTR.norm>
0

>  <SCORE.SYSTEM>
-19.128

>  <SCORE.SYSTEM.CONST>
0

>  <SCORE.SYSTEM.DIHEDRAL>
7.2742

>  <SCORE.SYSTEM.POLAR>
-3.13429

>  <SCORE.SYSTEM.SOLV>
0.304714

>  <SCORE.SYSTEM.VDW>
-4.83068

>  <SCORE.SYSTEM.norm>
-1.594

>  <SCORE.heavy>
12

>  <SCORE.norm>
-3.7746

$$$$
P53118001
 OpenBabel12072022113D
libRbt.so/2013.1/901 2013/11/27
 15 15  0  0  0  0  0  0  0  0999 V2000
    7.1142   18.9584    1.2479 C   0  0  0  0  0  0  0  0  0  0  0  0
    6.8786   17.5822    1.8689 C   0  0  1  0  0  0  0  0  0  0  0  0
    6.9953   17.6018    3.4012 C   0  0  0  0  0  0  0  0  0  0  0  0
    5.8129   18.1680    4.0578 N   0  0  0  0  0  0  0  0  0  0  0  0
    4.5185   17.6684    3.5461 C   0  0  1  0  0  0  0  0  0  0  0  0
    4.4951   17.6824    2.0068 C   0  0  0  0  0  0  0  0  0  0  0  0
    5.6284   17.0171    1.4391 O   0  0  0  0  0  0  0  0  0  0  0  0
    4.2223   16.2647    4.0879 C   0  0  0  0  0  0  0  0  0  0  0  0
    5.9899   18.6395    5.3529 C   0  0  0  0  0  0  0  0  0  0  0  0
    5.2747   18.3125    6.2996 O   0  0  0  0  0  0  0  0  0  0  0  0
    7.0468   19.5268    5.5147 N   0  0  0  0  0  0  0  0  0  0  0  0
    8.2717   19.0228    6.0347 N   0  0  0  0  0  0  0  0  0  0  0  0
    7.1356   20.2271    4.7849 H   0  0  0  0  0  0  0  0  0  0  0  0
    8.0379   18.1461    6.5243 H   0  0  0  0  0  0  0  0  0  0  0  0
    8.5491   19.6474    6.7974 H   0  0  0  0  0  0  0  0  0  0  0  0
  2  1  1  1  0  0  0
  2  3  1  0  0  0  0
  2  7  1  0  0  0  0
  3  4  1  0  0  0  0
  4  5  1  0  0  0  0
  4  9  1  0  0  0  0
  5  6  1  0  0  0  0
  5  8  1  6  0  0  0
  6  7  1  0  0  0  0
  9 10  2  0  0  0  0
  9 11  1  0  0  0  0
 11 12  1  0  0  0  0
 11 13  1  0  0  0  0
 12 14  1  0  0  0  0
 12 15  1  0  0  0  0
M  END
>  <CHROM.0>
-58.14098882,-159.64940026,-69.21684183,-44.99094594,-62.14256154,-61.28663730
-67.41457529,60.79947087,-168.20602218

>  <CHROM.1>
-128.47392244,-99.44133973,-20.75637661,6.04033696,18.04384685,3.76146911
-1.89325905,0.50875971,1.40473892

>  <Name>
P53118001

>  <RI>
9.71178e+06

>  <Rbt.Current_Directory>
/home/fstefaniak/projects/zuza/docking/adenine/4XNR

>  <Rbt.Executable>
rbdock ($Id: //depot/dev/client3/rdock/2013.1/src/exe/rbdock.cxx#4 $)

>  <Rbt.Library>
libRbt.so (2013.1, Build901 2013/11/27)

>  <Rbt.Parameter_File>
/home/fstefaniak/progs/rDock//data/scripts/dock_solv.prm

>  <Rbt.Receptor>
4xnr.prm

>  <SCORE>
-45.0735

>  <SCORE.INTER>
-25.0414

>  <SCORE.INTER.CONST>
1

>  <SCORE.INTER.POLAR>
-5.46299

>  <SCORE.INTER.ROT>
3

>  <SCORE.INTER.SOLV>
15.6573

>  <SCORE.INTER.VDW>
-9.30339

>  <SCORE.INTER.norm>
-2.08678

>  <SCORE.INTRA>
-0.99997

>  <SCORE.INTRA.DIHEDRAL>
-0.39755

>  <SCORE.INTRA.DIHEDRAL.0>
2.27256

>  <SCORE.INTRA.POLAR>
0

>  <SCORE.INTRA.POLAR.0>
0

>  <SCORE.INTRA.REPUL>
0

>  <SCORE.INTRA.REPUL.0>
0

>  <SCORE.INTRA.SOLV>
0.118694

>  <SCORE.INTRA.SOLV.lig_0>
-17.6506

>  <SCORE.INTRA.VDW>
-0.860542

>  <SCORE.INTRA.VDW.0>
0.232713

>  <SCORE.INTRA.norm>
-0.0833308

>  <SCORE.RESTR>
0

>  <SCORE.RESTR.CAVITY>
0

>  <SCORE.RESTR.norm>
0

>  <SCORE.SYSTEM>
-19.0321

>  <SCORE.SYSTEM.CONST>
0

>  <SCORE.SYSTEM.DIHEDRAL>
6.26985

>  <SCORE.SYSTEM.POLAR>
-3.01278

>  <SCORE.SYSTEM.SOLV>
0.0779637

>  <SCORE.SYSTEM.VDW>
-4.76139

>  <SCORE.SYSTEM.norm>
-1.58601

>  <SCORE.heavy>
12

>  <SCORE.norm>
-3.75612

$$$$
P53118001
 OpenBabel12072022113D
libRbt.so/2013.1/901 2013/11/27
 15 15  0  0  0  0  0  0  0  0999 V2000
    7.1192   18.9572    1.2537 C   0  0  0  0  0  0  0  0  0  0  0  0
    6.8861   17.5784    1.8700 C   0  0  1  0  0  0  0  0  0  0  0  0
    7.0112   17.5912    3.4017 C   0  0  0  0  0  0  0  0  0  0  0  0
    5.8328   18.1553    4.0672 N   0  0  0  0  0  0  0  0  0  0  0  0
    4.5353   17.6588    3.5604 C   0  0  1  0  0  0  0  0  0  0  0  0
    4.5035   17.6796    2.0213 C   0  0  0  0  0  0  0  0  0  0  0  0
    5.6332   17.0160    1.4446 O   0  0  0  0  0  0  0  0  0  0  0  0
    4.2411   16.2529    4.0977 C   0  0  0  0  0  0  0  0  0  0  0  0
    6.0172   18.6210    5.3634 C   0  0  0  0  0  0  0  0  0  0  0  0
    5.3179   18.2766    6.3159 O   0  0  0  0  0  0  0  0  0  0  0  0
    7.0618   19.5236    5.5192 N   0  0  0  0  0  0  0  0  0  0  0  0
    8.2954   19.0386    6.0369 N   0  0  0  0  0  0  0  0  0  0  0  0
    7.1385   20.2229    4.7871 H   0  0  0  0  0  0  0  0  0  0  0  0
    8.0782   18.1518    6.5157 H   0  0  0  0  0  0  0  0  0  0  0  0
    8.5580   19.6599    6.8075 H   0  0  0  0  0  0  0  0  0  0  0  0
  2  1  1  1  0  0  0
  2  3  1  0  0  0  0
  2  7  1  0  0  0  0
  3  4  1  0  0  0  0
  4  5  1  0  0  0  0
  4  9  1  0  0  0  0
  5  6  1  0  0  0  0
  5  8  1  6  0  0  0
  6  7  1  0  0  0  0
  9 10  2  0  0  0  0
  9 11  1  0  0  0  0
 11 12  1  0  0  0  0
 11 13  1  0  0  0  0
 12 14  1  0  0  0  0
 12 15  1  0  0  0  0
M  END
>  <CHROM.0>
-51.40597622,-158.46648728,-55.93372087,-47.02403044,-179.22312632,61.57978358
-66.46188174,-63.40820391,-168.05062705

>  <CHROM.1>
-127.47439383,-100.17407616,-19.79370673,6.05754548,18.03599170,3.76926008
-1.90051301,0.51530599,1.41070044

>  <Name>
P53118001

>  <RI>
9.71178e+06

>  <Rbt.Current_Directory>
/home/fstefaniak/projects/zuza/docking/adenine/4XNR

>  <Rbt.Executable>
rbdock ($Id: //depot/dev/client3/rdock/2013.1/src/exe/rbdock.cxx#4 $)

>  <Rbt.Library>
libRbt.so (2013.1, Build901 2013/11/27)

>  <Rbt.Parameter_File>
/home/fstefaniak/progs/rDock//data/scripts/dock_solv.prm

>  <Rbt.Receptor>
4xnr.prm

>  <SCORE>
-44.6427

>  <SCORE.INTER>
-25.113

>  <SCORE.INTER.CONST>
1

>  <SCORE.INTER.POLAR>
-5.45959

>  <SCORE.INTER.ROT>
3

>  <SCORE.INTER.SOLV>
15.6455

>  <SCORE.INTER.VDW>
-9.35854

>  <SCORE.INTER.norm>
-2.09275

>  <SCORE.INTRA>
-1.00583

>  <SCORE.INTRA.DIHEDRAL>
-0.365762

>  <SCORE.INTRA.DIHEDRAL.0>
2.27256

>  <SCORE.INTRA.POLAR>
0

>  <SCORE.INTRA.POLAR.0>
0

>  <SCORE.INTRA.REPUL>
0

>  <SCORE.INTRA.REPUL.0>
0

>  <SCORE.INTRA.SOLV>
0.115403

>  <SCORE.INTRA.SOLV.lig_0>
-17.6506

>  <SCORE.INTRA.VDW>
-0.880647

>  <SCORE.INTRA.VDW.0>
0.232713

>  <SCORE.INTRA.norm>
-0.0838189

>  <SCORE.RESTR>
0

>  <SCORE.RESTR.CAVITY>
0

>  <SCORE.RESTR.norm>
0

>  <SCORE.SYSTEM>
-18.5239

>  <SCORE.SYSTEM.CONST>
0

>  <SCORE.SYSTEM.DIHEDRAL>
6.21731

>  <SCORE.SYSTEM.POLAR>
-3.06601

>  <SCORE.SYSTEM.SOLV>
-0.0236201

>  <SCORE.SYSTEM.VDW>
-4.19379

>  <SCORE.SYSTEM.norm>
-1.54366

>  <SCORE.heavy>
12

>  <SCORE.norm>
-3.72023

$$$$
P53484841
 OpenBabel12072022113D
libRbt.so/2013.1/901 2013/11/27
 18 18  0  0  0  0  0  0  0  0999 V2000
    5.3880   16.0215    3.0650 C   0  0  0  0  0  0  0  0  0  0  0  0
    6.5695   16.7692    2.9895 C   0  0  0  0  0  0  0  0  0  0  0  0
    6.7625   17.8465    3.8518 C   0  0  0  0  0  0  0  0  0  0  0  0
    5.7623   18.1696    4.7705 C   0  0  0  0  0  0  0  0  0  0  0  0
    4.5789   17.4241    4.8669 C   0  0  0  0  0  0  0  0  0  0  0  0
    4.3986   16.3338    4.0114 C   0  0  0  0  0  0  0  0  0  0  0  0
    3.1648   15.5032    4.0420 C   0  0  0  0  0  0  0  0  0  0  0  0
    3.2209   14.3028    3.7900 O   0  0  0  0  0  0  0  0  0  0  0  0
    1.9889   16.1525    4.3981 N   0  0  0  0  0  0  0  0  0  0  0  0
    0.8047   15.3939    4.5280 N   0  0  0  0  0  0  0  0  0  0  0  0
    5.9218   19.3033    5.6594 N   0  3  0  0  0  0  0  0  0  0  0  0
    6.0530   20.4222    5.1468 O   0  0  0  0  0  0  0  0  0  0  0  0
    5.8277   19.0715    6.8736 O   0  5  0  0  0  0  0  0  0  0  0  0
    7.9272   18.5524    3.8059 O   0  0  0  0  0  0  0  0  0  0  0  0
    2.0047   17.0826    4.8116 H   0  0  0  0  0  0  0  0  0  0  0  0
    0.0698   15.8970    4.0105 H   0  0  0  0  0  0  0  0  0  0  0  0
    0.4953   15.4709    5.5020 H   0  0  0  0  0  0  0  0  0  0  0  0
    8.6758   17.9552    3.6333 H   0  0  0  0  0  0  0  0  0  0  0  0
  1  2  2  0  0  0  0
  1  6  1  0  0  0  0
  2  3  1  0  0  0  0
  3  4  2  0  0  0  0
  3 14  1  0  0  0  0
  4  5  1  0  0  0  0
  4 11  1  0  0  0  0
  5  6  2  0  0  0  0
  6  7  1  0  0  0  0
  7  8  2  0  0  0  0
  7  9  1  0  0  0  0
  9 10  1  0  0  0  0
  9 15  1  0  0  0  0
 10 16  1  0  0  0  0
 10 17  1  0  0  0  0
 11 12  2  0  0  0  0
 11 13  1  0  0  0  0
 14 18  1  0  0  0  0
M  CHG  2  11   1  13  -1
M  END
>  <CHROM.0>
-55.12790006,-62.89763376,-65.45585523,-45.91488120,-173.68280572,-59.90673263
-65.40293375,-56.33912834,-167.22293879

>  <CHROM.1>
-36.99515584,34.51891771,-132.22627116,4.86137469,17.27330476,4.45711970
-2.51800566,0.37269731,0.67113418

>  <Name>
P53484841

>  <RI>
2.22087e+07

>  <Rbt.Current_Directory>
/home/fstefaniak/projects/zuza/docking/adenine/4XNR

>  <Rbt.Executable>
rbdock ($Id: //depot/dev/client3/rdock/2013.1/src/exe/rbdock.cxx#4 $)

>  <Rbt.Library>
libRbt.so (2013.1, Build901 2013/11/27)

>  <Rbt.Parameter_File>
/home/fstefaniak/progs/rDock//data/scripts/dock_solv.prm

>  <Rbt.Receptor>
4xnr.prm

>  <SCORE>
-53.0191

>  <SCORE.INTER>
-33.1298

>  <SCORE.INTER.CONST>
1

>  <SCORE.INTER.POLAR>
-4.23459

>  <SCORE.INTER.ROT>
2

>  <SCORE.INTER.SOLV>
16.7091

>  <SCORE.INTER.VDW>
-18.4742

>  <SCORE.INTER.norm>
-2.36641

>  <SCORE.INTRA>
0.887178

>  <SCORE.INTRA.DIHEDRAL>
2.87835

>  <SCORE.INTRA.DIHEDRAL.0>
3.15569

>  <SCORE.INTRA.POLAR>
0

>  <SCORE.INTRA.POLAR.0>
0

>  <SCORE.INTRA.REPUL>
0

>  <SCORE.INTRA.REPUL.0>
0

>  <SCORE.INTRA.SOLV>
-0.195161

>  <SCORE.INTRA.SOLV.lig_0>
-22.6992

>  <SCORE.INTRA.VDW>
-0.454416

>  <SCORE.INTRA.VDW.0>
0.169747

>  <SCORE.INTRA.norm>
0.0633699

>  <SCORE.RESTR>
0

>  <SCORE.RESTR.CAVITY>
0

>  <SCORE.RESTR.norm>
0

>  <SCORE.SYSTEM>
-20.7765

>  <SCORE.SYSTEM.CONST>
0

>  <SCORE.SYSTEM.DIHEDRAL>
4.41849

>  <SCORE.SYSTEM.POLAR>
-3.03799

>  <SCORE.SYSTEM.SOLV>
0.131811

>  <SCORE.SYSTEM.VDW>
-5.24114

>  <SCORE.SYSTEM.norm>
-1.48404

>  <SCORE.heavy>
14

>  <SCORE.norm>
-3.78708

$$$$
P53484841
 OpenBabel12072022113D
libRbt.so/2013.1/901 2013/11/27
 18 18  0  0  0  0  0  0  0  0999 V2000
    5.4011   15.9881    3.0732 C   0  0  0  0  0  0  0  0  0  0  0  0
    6.5720   16.7505    2.9828 C   0  0  0  0  0  0  0  0  0  0  0  0
    6.7656   17.8259    3.8475 C   0  0  0  0  0  0  0  0  0  0  0  0
    5.7762   18.1321    4.7835 C   0  0  0  0  0  0  0  0  0  0  0  0
    4.6037   17.3717    4.8948 C   0  0  0  0  0  0  0  0  0  0  0  0
    4.4230   16.2835    4.0367 C   0  0  0  0  0  0  0  0  0  0  0  0
    3.2001   15.4378    4.0826 C   0  0  0  0  0  0  0  0  0  0  0  0
    3.2795   14.2254    3.9053 O   0  0  0  0  0  0  0  0  0  0  0  0
    2.0057   16.0894    4.3654 N   0  0  0  0  0  0  0  0  0  0  0  0
    0.8285   15.3222    4.5074 N   0  0  0  0  0  0  0  0  0  0  0  0
    5.9359   19.2634    5.6756 N   0  3  0  0  0  0  0  0  0  0  0  0
    6.0453   20.3863    5.1667 O   0  0  0  0  0  0  0  0  0  0  0  0
    5.8640   19.0244    6.8900 O   0  5  0  0  0  0  0  0  0  0  0  0
    7.9207   18.5462    3.7868 O   0  0  0  0  0  0  0  0  0  0  0  0
    1.9971   17.0428    4.7222 H   0  0  0  0  0  0  0  0  0  0  0  0
    0.0937   15.8004    3.9668 H   0  0  0  0  0  0  0  0  0  0  0  0
    0.5082   15.4266    5.4753 H   0  0  0  0  0  0  0  0  0  0  0  0
    8.6788   17.9542    3.6398 H   0  0  0  0  0  0  0  0  0  0  0  0
  1  2  2  0  0  0  0
  1  6  1  0  0  0  0
  2  3  1  0  0  0  0
  3  4  2  0  0  0  0
  3 14  1  0  0  0  0
  4  5  1  0  0  0  0
  4 11  1  0  0  0  0
  5  6  2  0  0  0  0
  6  7  1  0  0  0  0
  7  8  2  0  0  0  0
  7  9  1  0  0  0  0
  9 10  1  0  0  0  0
  9 15  1  0  0  0  0
 10 16  1  0  0  0  0
 10 17  1  0  0  0  0
 11 12  2  0  0  0  0
 11 13  1  0  0  0  0
 14 18  1  0  0  0  0
M  CHG  2  11   1  13  -1
M  END
>  <CHROM.0>
-58.35745165,-59.94650243,-64.74385318,-48.09063465,-174.43514557,-176.74107378
-69.78356987,-61.69288431,-167.90275189

>  <CHROM.1>
-39.57685176,39.04999292,-134.18230938,4.87932519,17.22895388,4.47092436
-2.51308417,0.38050982,0.66957808

>  <Name>
P53484841

>  <RI>
2.22087e+07

>  <Rbt.Current_Directory>
/home/fstefaniak/projects/zuza/docking/adenine/4XNR

>  <Rbt.Executable>
rbdock ($Id: //depot/dev/client3/rdock/2013.1/src/exe/rbdock.cxx#4 $)

>  <Rbt.Library>
libRbt.so (2013.1, Build901 2013/11/27)

>  <Rbt.Parameter_File>
/home/fstefaniak/progs/rDock//data/scripts/dock_solv.prm

>  <Rbt.Receptor>
4xnr.prm

>  <SCORE>
-52.9889

>  <SCORE.INTER>
-33.6269

>  <SCORE.INTER.CONST>
1

>  <SCORE.INTER.POLAR>
-4.30497

>  <SCORE.INTER.ROT>
2

>  <SCORE.INTER.SOLV>
16.5808

>  <SCORE.INTER.VDW>
-18.5283

>  <SCORE.INTER.norm>
-2.40192

>  <SCORE.INTRA>
1.35914

>  <SCORE.INTRA.DIHEDRAL>
4.06097

>  <SCORE.INTRA.DIHEDRAL.0>
3.15569

>  <SCORE.INTRA.POLAR>
0

>  <SCORE.INTRA.POLAR.0>
0

>  <SCORE.INTRA.REPUL>
0

>  <SCORE.INTRA.REPUL.0>
0

>  <SCORE.INTRA.SOLV>
-0.20279

>  <SCORE.INTRA.SOLV.lig_0>
-22.6992

>  <SCORE.INTRA.VDW>
-0.569948

>  <SCORE.INTRA.VDW.0>
0.169747

>  <SCORE.INTRA.norm>
0.0970816

>  <SCORE.RESTR>
0

>  <SCORE.RESTR.CAVITY>
0

>  <SCORE.RESTR.norm>
0

>  <SCORE.SYSTEM>
-20.7212

>  <SCORE.SYSTEM.CONST>
0

>  <SCORE.SYSTEM.DIHEDRAL>
4.18406

>  <SCORE.SYSTEM.POLAR>
-2.96857

>  <SCORE.SYSTEM.SOLV>
-0.00811109

>  <SCORE.SYSTEM.VDW>
-5.31089

>  <SCORE.SYSTEM.norm>
-1.48008

>  <SCORE.heavy>
14

>  <SCORE.norm>
-3.78492

$$$$
P53484841
 OpenBabel12072022113D
libRbt.so/2013.1/901 2013/11/27
 18 18  0  0  0  0  0  0  0  0999 V2000
    5.3929   15.9908    3.0641 C   0  0  0  0  0  0  0  0  0  0  0  0
    6.5641   16.7518    2.9654 C   0  0  0  0  0  0  0  0  0  0  0  0
    6.7616   17.8318    3.8233 C   0  0  0  0  0  0  0  0  0  0  0  0
    5.7758   18.1441    4.7610 C   0  0  0  0  0  0  0  0  0  0  0  0
    4.6030   17.3853    4.8807 C   0  0  0  0  0  0  0  0  0  0  0  0
    4.4185   16.2925    4.0294 C   0  0  0  0  0  0  0  0  0  0  0  0
    3.1951   15.4480    4.0843 C   0  0  0  0  0  0  0  0  0  0  0  0
    3.2706   14.2368    3.8972 O   0  0  0  0  0  0  0  0  0  0  0  0
    2.0052   16.0991    4.3867 N   0  0  0  0  0  0  0  0  0  0  0  0
    0.8287   15.3324    4.5377 N   0  0  0  0  0  0  0  0  0  0  0  0
    5.9396   19.2802    5.6462 N   0  3  0  0  0  0  0  0  0  0  0  0
    6.0481   20.4002    5.1306 O   0  0  0  0  0  0  0  0  0  0  0  0
    5.8717   19.0482    6.8621 O   0  5  0  0  0  0  0  0  0  0  0  0
    7.9171   18.5508    3.7545 O   0  0  0  0  0  0  0  0  0  0  0  0
    2.0023   17.0499    4.7505 H   0  0  0  0  0  0  0  0  0  0  0  0
    0.0936   15.8032    3.9911 H   0  0  0  0  0  0  0  0  0  0  0  0
    0.5081   15.4483    5.5042 H   0  0  0  0  0  0  0  0  0  0  0  0
    8.6772   17.9551    3.6360 H   0  0  0  0  0  0  0  0  0  0  0  0
  1  2  2  0  0  0  0
  1  6  1  0  0  0  0
  2  3  1  0  0  0  0
  3  4  2  0  0  0  0
  3 14  1  0  0  0  0
  4  5  1  0  0  0  0
  4 11  1  0  0  0  0
  5  6  2  0  0  0  0
  6  7  1  0  0  0  0
  7  8  2  0  0  0  0
  7  9  1  0  0  0  0
  9 10  1  0  0  0  0
  9 15  1  0  0  0  0
 10 16  1  0  0  0  0
 10 17  1  0  0  0  0
 11 12  2  0  0  0  0
 11 13  1  0  0  0  0
 14 18  1  0  0  0  0
M  CHG  2  11   1  13  -1
M  END
>  <CHROM.0>
-59.03637420,-62.78928978,-72.20734325,-48.54268021,-63.28335911,-63.79821966
-172.40576932,-61.63268506,-168.42314734

>  <CHROM.1>
-41.34415864,38.14988005,-132.83900293,4.87744525,17.23950910,4.45857500
-2.51702105,0.38484288,0.66620809

>  <Name>
P53484841

>  <RI>
2.22087e+07

>  <Rbt.Current_Directory>
/home/fstefaniak/projects/zuza/docking/adenine/4XNR

>  <Rbt.Executable>
rbdock ($Id: //depot/dev/client3/rdock/2013.1/src/exe/rbdock.cxx#4 $)

>  <Rbt.Library>
libRbt.so (2013.1, Build901 2013/11/27)

>  <Rbt.Parameter_File>
/home/fstefaniak/progs/rDock//data/scripts/dock_solv.prm

>  <Rbt.Receptor>
4xnr.prm

>  <SCORE>
-52.6002

>  <SCORE.INTER>
-33.5944

>  <SCORE.INTER.CONST>
1

>  <SCORE.INTER.POLAR>
-4.29794

>  <SCORE.INTER.ROT>
2

>  <SCORE.INTER.SOLV>
16.6383

>  <SCORE.INTER.VDW>
-18.5492

>  <SCORE.INTER.norm>
-2.3996

>  <SCORE.INTRA>
1.33341

>  <SCORE.INTRA.DIHEDRAL>
4.00077

>  <SCORE.INTRA.DIHEDRAL.0>
3.15569

>  <SCORE.INTRA.POLAR>
0

>  <SCORE.INTRA.POLAR.0>
0

>  <SCORE.INTRA.REPUL>
0

>  <SCORE.INTRA.REPUL.0>
0

>  <SCORE.INTRA.SOLV>
-0.200321

>  <SCORE.INTRA.SOLV.lig_0>
-22.6992

>  <SCORE.INTRA.VDW>
-0.56681

>  <SCORE.INTRA.VDW.0>
0.169747

>  <SCORE.INTRA.norm>
0.0952439

>  <SCORE.RESTR>
0

>  <SCORE.RESTR.CAVITY>
0

>  <SCORE.RESTR.norm>
0

>  <SCORE.SYSTEM>
-20.3392

>  <SCORE.SYSTEM.CONST>
0

>  <SCORE.SYSTEM.DIHEDRAL>
4.4264

>  <SCORE.SYSTEM.POLAR>
-2.93359

>  <SCORE.SYSTEM.SOLV>
0.214221

>  <SCORE.SYSTEM.VDW>
-5.32773

>  <SCORE.SYSTEM.norm>
-1.4528

>  <SCORE.heavy>
14

>  <SCORE.norm>
-3.75715

$$$$
P53731179
 OpenBabel12072022113D
libRbt.so/2013.1/901 2013/11/27
 15 15  0  0  0  0  0  0  0  0999 V2000
    2.6208   11.3827    5.3363 C   0  0  0  0  0  0  0  0  0  0  0  0
    3.1515   12.3236    4.2643 C   0  0  0  0  0  0  0  0  0  0  0  0
    2.8812   13.8113    4.5553 C   0  0  2  0  0  0  0  0  0  0  0  0
    1.4275   14.2086    4.2598 C   0  0  0  0  0  0  0  0  0  0  0  0
    1.2226   15.7044    4.4756 C   0  0  0  0  0  0  0  0  0  0  0  0
    2.2050   16.5246    3.6510 C   0  0  0  0  0  0  0  0  0  0  0  0
    3.5867   16.1168    3.8859 N   0  0  0  0  0  0  0  0  0  0  0  0
    3.8519   14.6824    3.7388 C   0  0  0  0  0  0  0  0  0  0  0  0
    4.5603   17.0786    3.6167 C   0  0  0  0  0  0  0  0  0  0  0  0
    4.9821   17.8781    4.4523 O   0  0  0  0  0  0  0  0  0  0  0  0
    5.0419   17.0717    2.3129 N   0  0  0  0  0  0  0  0  0  0  0  0
    4.2534   17.6929    1.3039 N   0  0  0  0  0  0  0  0  0  0  0  0
    6.0465   17.2015    2.2321 H   0  0  0  0  0  0  0  0  0  0  0  0
    4.3211   17.0862    0.4733 H   0  0  0  0  0  0  0  0  0  0  0  0
    4.7571   18.5362    1.0142 H   0  0  0  0  0  0  0  0  0  0  0  0
  1  2  1  0  0  0  0
  3  4  1  0  0  0  0
  3  8  1  0  0  0  0
  3  2  1  6  0  0  0
  4  5  1  0  0  0  0
  5  6  1  0  0  0  0
  6  7  1  0  0  0  0
  7  8  1  0  0  0  0
  7  9  1  0  0  0  0
  9 10  2  0  0  0  0
  9 11  1  0  0  0  0
 11 12  1  0  0  0  0
 11 13  1  0  0  0  0
 12 14  1  0  0  0  0
 12 15  1  0  0  0  0
M  END
>  <CHROM.0>
-62.26917192,-62.38660540,-73.48006450,-46.63216769,-64.20701160,-60.13069969
-173.07167456,-59.57674453,-167.80525150

>  <CHROM.1>
-77.19556610,90.69989743,79.46468550,-140.14996897,3.34855350,15.40636487
3.79022786,-1.96729659,0.28232689,-0.27218103

>  <Name>
P53731179

>  <RI>
9.71178e+06

>  <Rbt.Current_Directory>
/home/fstefaniak/projects/zuza/docking/adenine/4XNR

>  <Rbt.Executable>
rbdock ($Id: //depot/dev/client3/rdock/2013.1/src/exe/rbdock.cxx#4 $)

>  <Rbt.Library>
libRbt.so (2013.1, Build901 2013/11/27)

>  <Rbt.Parameter_File>
/home/fstefaniak/progs/rDock//data/scripts/dock_solv.prm

>  <Rbt.Receptor>
4xnr.prm

>  <SCORE>
-48.312

>  <SCORE.INTER>
-26.0577

>  <SCORE.INTER.CONST>
1

>  <SCORE.INTER.POLAR>
-3.64916

>  <SCORE.INTER.ROT>
4

>  <SCORE.INTER.SOLV>
11.9938

>  <SCORE.INTER.VDW>
-15.4725

>  <SCORE.INTER.norm>
-2.17147

>  <SCORE.INTRA>
-1.90281

>  <SCORE.INTRA.DIHEDRAL>
0.892297

>  <SCORE.INTRA.DIHEDRAL.0>
2.27848

>  <SCORE.INTRA.POLAR>
0

>  <SCORE.INTRA.POLAR.0>
0

>  <SCORE.INTRA.REPUL>
0

>  <SCORE.INTRA.REPUL.0>
0

>  <SCORE.INTRA.SOLV>
0.0803133

>  <SCORE.INTRA.SOLV.lig_0>
-15.8719

>  <SCORE.INTRA.VDW>
-2.38912

>  <SCORE.INTRA.VDW.0>
1.37703

>  <SCORE.INTRA.norm>
-0.158567

>  <SCORE.RESTR>
0

>  <SCORE.RESTR.CAVITY>
0

>  <SCORE.RESTR.norm>
0

>  <SCORE.SYSTEM>
-20.3515

>  <SCORE.SYSTEM.CONST>
0

>  <SCORE.SYSTEM.DIHEDRAL>
4.75953

>  <SCORE.SYSTEM.POLAR>
-2.94929

>  <SCORE.SYSTEM.SOLV>
0.219041

>  <SCORE.SYSTEM.VDW>
-5.39624

>  <SCORE.SYSTEM.norm>
-1.69596

>  <SCORE.heavy>
12

>  <SCORE.norm>
-4.026

$$$$
P53731179
 OpenBabel12072022113D
libRbt.so/2013.1/901 2013/11/27
 15 15  0  0  0  0  0  0  0  0999 V2000
    2.3395   16.0291    3.9349 C   0  0  0  0  0  0  0  0  0  0  0  0
    3.8341   15.8090    3.7510 C   0  0  0  0  0  0  0  0  0  0  0  0
    4.6628   17.1058    3.7989 C   0  0  2  0  0  0  0  0  0  0  0  0
    5.7461   17.1463    2.7111 C   0  0  0  0  0  0  0  0  0  0  0  0
    6.6002   18.4025    2.8468 C   0  0  0  0  0  0  0  0  0  0  0  0
    7.2026   18.5172    4.2402 C   0  0  0  0  0  0  0  0  0  0  0  0
    6.1850   18.4257    5.2828 N   0  0  0  0  0  0  0  0  0  0  0  0
    5.2960   17.2635    5.1925 C   0  0  0  0  0  0  0  0  0  0  0  0
    6.5107   19.0124    6.5055 C   0  0  0  0  0  0  0  0  0  0  0  0
    5.8897   19.9531    7.0004 O   0  0  0  0  0  0  0  0  0  0  0  0
    7.6050   18.4476    7.1502 N   0  0  0  0  0  0  0  0  0  0  0  0
    8.9058   18.7783    6.6768 N   0  0  0  0  0  0  0  0  0  0  0  0
    7.5077   18.3685    8.1586 H   0  0  0  0  0  0  0  0  0  0  0  0
    9.5683   18.2660    7.2778 H   0  0  0  0  0  0  0  0  0  0  0  0
    9.0724   19.7559    6.9324 H   0  0  0  0  0  0  0  0  0  0  0  0
  1  2  1  0  0  0  0
  3  4  1  0  0  0  0
  3  8  1  0  0  0  0
  3  2  1  1  0  0  0
  4  5  1  0  0  0  0
  5  6  1  0  0  0  0
  6  7  1  0  0  0  0
  7  8  1  0  0  0  0
  7  9  1  0  0  0  0
  9 10  2  0  0  0  0
  9 11  1  0  0  0  0
 11 12  1  0  0  0  0
 11 13  1  0  0  0  0
 12 14  1  0  0  0  0
 12 15  1  0  0  0  0
M  END
>  <CHROM.0>
-60.17094878,-61.76717947,-63.12398047,-47.08329180,-55.85592779,-60.46380069
-66.54522126,-58.20898037,-167.70154368

>  <CHROM.1>
-137.23093276,117.73212754,77.16399312,-179.99261034,5.92631650,17.92723894
4.97457467,2.40221699,-0.40002395,-1.86647505

>  <Name>
P53731179

>  <RI>
9.71178e+06

>  <Rbt.Current_Directory>
/home/fstefaniak/projects/zuza/docking/adenine/4XNR

>  <Rbt.Executable>
rbdock ($Id: //depot/dev/client3/rdock/2013.1/src/exe/rbdock.cxx#4 $)

>  <Rbt.Library>
libRbt.so (2013.1, Build901 2013/11/27)

>  <Rbt.Parameter_File>
/home/fstefaniak/progs/rDock//data/scripts/dock_solv.prm

>  <Rbt.Receptor>
4xnr.prm

>  <SCORE>
-45.7623

>  <SCORE.INTER>
-24.764

>  <SCORE.INTER.CONST>
1

>  <SCORE.INTER.POLAR>
-2.99777

>  <SCORE.INTER.ROT>
4

>  <SCORE.INTER.SOLV>
15.5919

>  <SCORE.INTER.VDW>
-17.9807

>  <SCORE.INTER.norm>
-2.06366

>  <SCORE.INTRA>
-0.224411

>  <SCORE.INTRA.DIHEDRAL>
4.06367

>  <SCORE.INTRA.DIHEDRAL.0>
2.27848

>  <SCORE.INTRA.POLAR>
0

>  <SCORE.INTRA.POLAR.0>
0

>  <SCORE.INTRA.REPUL>
0

>  <SCORE.INTRA.REPUL.0>
0

>  <SCORE.INTRA.SOLV>
0.227886

>  <SCORE.INTRA.SOLV.lig_0>
-15.8719

>  <SCORE.INTRA.VDW>
-2.37019

>  <SCORE.INTRA.VDW.0>
1.37703

>  <SCORE.INTRA.norm>
-0.0187009

>  <SCORE.RESTR>
0

>  <SCORE.RESTR.CAVITY>
0

>  <SCORE.RESTR.norm>
0

>  <SCORE.SYSTEM>
-20.774

>  <SCORE.SYSTEM.CONST>
0

>  <SCORE.SYSTEM.DIHEDRAL>
3.91975

>  <SCORE.SYSTEM.POLAR>
-2.98591

>  <SCORE.SYSTEM.SOLV>
0.298608

>  <SCORE.SYSTEM.VDW>
-5.30238

>  <SCORE.SYSTEM.norm>
-1.73116

>  <SCORE.heavy>
12

>  <SCORE.norm>
-3.81353

$$$$
P53731179
 OpenBabel12072022113D
libRbt.so/2013.1/901 2013/11/27
 15 15  0  0  0  0  0  0  0  0999 V2000
    2.3595   16.1348    3.9548 C   0  0  0  0  0  0  0  0  0  0  0  0
    3.8332   15.8908    3.6632 C   0  0  0  0  0  0  0  0  0  0  0  0
    4.6992   17.1618    3.7381 C   0  0  2  0  0  0  0  0  0  0  0  0
    5.8127   17.1720    2.6805 C   0  0  0  0  0  0  0  0  0  0  0  0
    6.7004   18.4013    2.8438 C   0  0  0  0  0  0  0  0  0  0  0  0
    7.2676   18.4940    4.2535 C   0  0  0  0  0  0  0  0  0  0  0  0
    6.2195   18.4309    5.2675 N   0  0  0  0  0  0  0  0  0  0  0  0
    5.2984   17.2965    5.1491 C   0  0  0  0  0  0  0  0  0  0  0  0
    6.5292   19.0044    6.5007 C   0  0  0  0  0  0  0  0  0  0  0  0
    5.8898   19.9267    7.0066 O   0  0  0  0  0  0  0  0  0  0  0  0
    7.6297   18.4485    7.1423 N   0  0  0  0  0  0  0  0  0  0  0  0
    8.9268   18.7999    6.6735 N   0  0  0  0  0  0  0  0  0  0  0  0
    7.5322   18.3600    8.1499 H   0  0  0  0  0  0  0  0  0  0  0  0
    9.5946   18.2764    7.2588 H   0  0  0  0  0  0  0  0  0  0  0  0
    9.0880   19.7716    6.9539 H   0  0  0  0  0  0  0  0  0  0  0  0
  1  2  1  0  0  0  0
  3  4  1  0  0  0  0
  3  8  1  0  0  0  0
  3  2  1  1  0  0  0
  4  5  1  0  0  0  0
  5  6  1  0  0  0  0
  6  7  1  0  0  0  0
  7  8  1  0  0  0  0
  7  9  1  0  0  0  0
  9 10  2  0  0  0  0
  9 11  1  0  0  0  0
 11 12  1  0  0  0  0
 11 13  1  0  0  0  0
 12 14  1  0  0  0  0
 12 15  1  0  0  0  0
M  END
>  <CHROM.0>
-60.12817452,-63.33418162,-71.38086788,-46.52280310,-57.38456378,-171.35389034
-172.13150121,-52.66848041,-167.72493877

>  <CHROM.1>
-143.42224021,120.82060601,76.65154645,-178.87307628,5.95819791,17.94962711
4.95734222,2.39480149,-0.37261697,-1.87636360

>  <Name>
P53731179

>  <RI>
9.71178e+06

>  <Rbt.Current_Directory>
/home/fstefaniak/projects/zuza/docking/adenine/4XNR

>  <Rbt.Executable>
rbdock ($Id: //depot/dev/client3/rdock/2013.1/src/exe/rbdock.cxx#4 $)

>  <Rbt.Library>
libRbt.so (2013.1, Build901 2013/11/27)

>  <Rbt.Parameter_File>
/home/fstefaniak/progs/rDock//data/scripts/dock_solv.prm

>  <Rbt.Receptor>
4xnr.prm

>  <SCORE>
-45.0409

>  <SCORE.INTER>
-24.6061

>  <SCORE.INTER.CONST>
1

>  <SCORE.INTER.POLAR>
-2.98098

>  <SCORE.INTER.ROT>
4

>  <SCORE.INTER.SOLV>
15.6139

>  <SCORE.INTER.VDW>
-17.9387

>  <SCORE.INTER.norm>
-2.0505

>  <SCORE.INTRA>
-0.518535

>  <SCORE.INTRA.DIHEDRAL>
3.14336

>  <SCORE.INTRA.DIHEDRAL.0>
2.27848

>  <SCORE.INTRA.POLAR>
0

>  <SCORE.INTRA.POLAR.0>
0

>  <SCORE.INTRA.REPUL>
0

>  <SCORE.INTRA.REPUL.0>
0

>  <SCORE.INTRA.SOLV>
0.247613

>  <SCORE.INTRA.SOLV.lig_0>
-15.8719

>  <SCORE.INTRA.VDW>
-2.21402

>  <SCORE.INTRA.VDW.0>
1.37703

>  <SCORE.INTRA.norm>
-0.0432113

>  <SCORE.RESTR>
0

>  <SCORE.RESTR.CAVITY>
0

>  <SCORE.RESTR.norm>
0

>  <SCORE.SYSTEM>
-19.9163

>  <SCORE.SYSTEM.CONST>
0

>  <SCORE.SYSTEM.DIHEDRAL>
5.14887

>  <SCORE.SYSTEM.POLAR>
-2.99314

>  <SCORE.SYSTEM.SOLV>
0.128903

>  <SCORE.SYSTEM.VDW>
-5.05964

>  <SCORE.SYSTEM.norm>
-1.65969

>  <SCORE.heavy>
12

>  <SCORE.norm>
-3.7534

$$$$
P53888216
 OpenBabel12072022113D
libRbt.so/2013.1/901 2013/11/27
 12 12  0  0  0  0  0  0  0  0999 V2000
    3.4786   14.5113    3.4881 C   0  0  0  0  0  0  0  0  0  0  0  0
    3.7109   15.7203    4.2112 O   0  0  0  0  0  0  0  0  0  0  0  0
    4.8211   16.3928    3.8140 C   0  0  0  0  0  0  0  0  0  0  0  0
    5.4253   16.2005    2.7691 O   0  0  0  0  0  0  0  0  0  0  0  0
    5.1556   17.3058    4.7723 N   0  0  0  0  0  0  0  0  0  0  0  0
    6.3316   18.1082    4.7133 C   0  0  1  0  0  0  0  0  0  0  0  0
    6.2582   19.6055    4.8324 C   0  0  0  0  0  0  0  0  0  0  0  0
    6.8522   18.8035    5.9495 C   0  0  2  0  0  0  0  0  0  0  0  0
    8.2900   18.8587    6.2059 N   0  0  0  0  0  0  0  0  0  0  0  0
    4.5974   17.2865    5.6145 H   0  0  0  0  0  0  0  0  0  0  0  0
    8.6025   18.0113    6.6801 H   0  0  0  0  0  0  0  0  0  0  0  0
    8.5309   19.6294    6.8289 H   0  0  0  0  0  0  0  0  0  0  0  0
  1  2  1  0  0  0  0
  2  3  1  0  0  0  0
  3  4  2  0  0  0  0
  3  5  1  0  0  0  0
  5 10  1  0  0  0  0
  6  5  1  1  0  0  0
  6  7  1  0  0  0  0
  6  8  1  0  0  0  0
  7  8  1  0  0  0  0
  8  9  1  6  0  0  0
  9 11  1  0  0  0  0
  9 12  1  0  0  0  0
M  END
>  <CHROM.0>
-59.18402674,62.89477261,-66.12761420,-48.93320707,-177.18221468,-63.62361890
-69.38994290,-63.24963826,-168.22910409

>  <CHROM.1>
15.83834975,126.49125441,-84.89491013,5.57858151,17.23629605,4.53010949,2.55551292
-0.73729503,-1.81531944

>  <Name>
P53888216

>  <RI>
1.00763e+07

>  <Rbt.Current_Directory>
/home/fstefaniak/projects/zuza/docking/adenine/4XNR

>  <Rbt.Executable>
rbdock ($Id: //depot/dev/client3/rdock/2013.1/src/exe/rbdock.cxx#4 $)

>  <Rbt.Library>
libRbt.so (2013.1, Build901 2013/11/27)

>  <Rbt.Parameter_File>
/home/fstefaniak/progs/rDock//data/scripts/dock_solv.prm

>  <Rbt.Receptor>
4xnr.prm

>  <SCORE>
-54.5312

>  <SCORE.INTER>
-35.0623

>  <SCORE.INTER.CONST>
1

>  <SCORE.INTER.POLAR>
-5.18579

>  <SCORE.INTER.ROT>
3

>  <SCORE.INTER.SOLV>
10.6925

>  <SCORE.INTER.VDW>
-15.2531

>  <SCORE.INTER.norm>
-3.89582

>  <SCORE.INTRA>
0.60267

>  <SCORE.INTRA.DIHEDRAL>
1.89872

>  <SCORE.INTRA.DIHEDRAL.0>
2.37912

>  <SCORE.INTRA.POLAR>
0

>  <SCORE.INTRA.POLAR.0>
0

>  <SCORE.INTRA.REPUL>
0

>  <SCORE.INTRA.REPUL.0>
0

>  <SCORE.INTRA.SOLV>
-0.100397

>  <SCORE.INTRA.SOLV.lig_0>
-13.6375

>  <SCORE.INTRA.VDW>
-0.296491

>  <SCORE.INTRA.VDW.0>
1.24314

>  <SCORE.INTRA.norm>
0.0669633

>  <SCORE.RESTR>
0

>  <SCORE.RESTR.CAVITY>
0

>  <SCORE.RESTR.norm>
0

>  <SCORE.SYSTEM>
-20.0715

>  <SCORE.SYSTEM.CONST>
0

>  <SCORE.SYSTEM.DIHEDRAL>
4.07184

>  <SCORE.SYSTEM.POLAR>
-2.94626

>  <SCORE.SYSTEM.SOLV>
0.156547

>  <SCORE.SYSTEM.VDW>
-4.96958

>  <SCORE.SYSTEM.norm>
-2.23017

>  <SCORE.heavy>
9

>  <SCORE.norm>
-6.05902

$$$$
P53888216
 OpenBabel12072022113D
libRbt.so/2013.1/901 2013/11/27
 12 12  0  0  0  0  0  0  0  0999 V2000
    3.4318   14.5442    3.4528 C   0  0  0  0  0  0  0  0  0  0  0  0
    3.6877   15.7281    4.2087 O   0  0  0  0  0  0  0  0  0  0  0  0
    4.7987   16.4014    3.8150 C   0  0  0  0  0  0  0  0  0  0  0  0
    5.4135   16.2009    2.7778 O   0  0  0  0  0  0  0  0  0  0  0  0
    5.1202   17.3257    4.7669 N   0  0  0  0  0  0  0  0  0  0  0  0
    6.2933   18.1325    4.7106 C   0  0  1  0  0  0  0  0  0  0  0  0
    6.2184   19.6258    4.8715 C   0  0  0  0  0  0  0  0  0  0  0  0
    6.8323   18.7954    5.9566 C   0  0  2  0  0  0  0  0  0  0  0  0
    8.2740   18.8476    6.1911 N   0  0  0  0  0  0  0  0  0  0  0  0
    4.5542   17.3126    5.6040 H   0  0  0  0  0  0  0  0  0  0  0  0
    8.5940   17.9943    6.6493 H   0  0  0  0  0  0  0  0  0  0  0  0
    8.5248   19.6103    6.8201 H   0  0  0  0  0  0  0  0  0  0  0  0
  1  2  1  0  0  0  0
  2  3  1  0  0  0  0
  3  4  2  0  0  0  0
  3  5  1  0  0  0  0
  5 10  1  0  0  0  0
  6  5  1  1  0  0  0
  6  7  1  0  0  0  0
  6  8  1  0  0  0  0
  7  8  1  0  0  0  0
  8  9  1  6  0  0  0
  9 11  1  0  0  0  0
  9 12  1  0  0  0  0
M  END
>  <CHROM.0>
-56.41323057,62.02906337,-63.99783219,-46.23705680,-56.80616603,-63.42847765
-68.08450380,-56.90552424,-168.40153679

>  <CHROM.1>
12.97752490,129.09588165,-85.72578967,5.55072317,17.24658618,4.52899071,2.42816903
-0.61447115,-2.01439381

>  <Name>
P53888216

>  <RI>
1.00763e+07

>  <Rbt.Current_Directory>
/home/fstefaniak/projects/zuza/docking/adenine/4XNR

>  <Rbt.Executable>
rbdock ($Id: //depot/dev/client3/rdock/2013.1/src/exe/rbdock.cxx#4 $)

>  <Rbt.Library>
libRbt.so (2013.1, Build901 2013/11/27)

>  <Rbt.Parameter_File>
/home/fstefaniak/progs/rDock//data/scripts/dock_solv.prm

>  <Rbt.Receptor>
4xnr.prm

>  <SCORE>
-54.515

>  <SCORE.INTER>
-34.9323

>  <SCORE.INTER.CONST>
1

>  <SCORE.INTER.POLAR>
-5.1867

>  <SCORE.INTER.ROT>
3

>  <SCORE.INTER.SOLV>
10.6747

>  <SCORE.INTER.VDW>
-15.1574

>  <SCORE.INTER.norm>
-3.88137

>  <SCORE.INTRA>
0.370028

>  <SCORE.INTRA.DIHEDRAL>
1.32997

>  <SCORE.INTRA.DIHEDRAL.0>
2.37912

>  <SCORE.INTRA.POLAR>
0

>  <SCORE.INTRA.POLAR.0>
0

>  <SCORE.INTRA.REPUL>
0

>  <SCORE.INTRA.REPUL.0>
0

>  <SCORE.INTRA.SOLV>
-0.103862

>  <SCORE.INTRA.SOLV.lig_0>
-13.6375

>  <SCORE.INTRA.VDW>
-0.243029

>  <SCORE.INTRA.VDW.0>
1.24314

>  <SCORE.INTRA.norm>
0.0411142

>  <SCORE.RESTR>
0

>  <SCORE.RESTR.CAVITY>
0

>  <SCORE.RESTR.norm>
0

>  <SCORE.SYSTEM>
-19.9527

>  <SCORE.SYSTEM.CONST>
0

>  <SCORE.SYSTEM.DIHEDRAL>
4.19078

>  <SCORE.SYSTEM.POLAR>
-3.02268

>  <SCORE.SYSTEM.SOLV>
0.36361

>  <SCORE.SYSTEM.VDW>
-4.7443

>  <SCORE.SYSTEM.norm>
-2.21696

>  <SCORE.heavy>
9

>  <SCORE.norm>
-6.05722

$$$$
P53888216
 OpenBabel12072022113D
libRbt.so/2013.1/901 2013/11/27
 12 12  0  0  0  0  0  0  0  0999 V2000
    3.4000   14.4954    3.4460 C   0  0  0  0  0  0  0  0  0  0  0  0
    3.6789   15.6460    4.2441 O   0  0  0  0  0  0  0  0  0  0  0  0
    4.7555   16.3578    3.8237 C   0  0  0  0  0  0  0  0  0  0  0  0
    5.3089   16.2255    2.7419 O   0  0  0  0  0  0  0  0  0  0  0  0
    5.1224   17.2324    4.8056 N   0  0  0  0  0  0  0  0  0  0  0  0
    6.2797   18.0598    4.7253 C   0  0  1  0  0  0  0  0  0  0  0  0
    6.1759   19.5555    4.8419 C   0  0  0  0  0  0  0  0  0  0  0  0
    6.8053   18.7697    5.9510 C   0  0  2  0  0  0  0  0  0  0  0  0
    8.2456   18.8566    6.1837 N   0  0  0  0  0  0  0  0  0  0  0  0
    4.6083   17.1635    5.6729 H   0  0  0  0  0  0  0  0  0  0  0  0
    8.5900   18.0030    6.6234 H   0  0  0  0  0  0  0  0  0  0  0  0
    8.4769   19.6126    6.8280 H   0  0  0  0  0  0  0  0  0  0  0  0
  1  2  1  0  0  0  0
  2  3  1  0  0  0  0
  3  4  2  0  0  0  0
  3  5  1  0  0  0  0
  5 10  1  0  0  0  0
  6  5  1  1  0  0  0
  6  7  1  0  0  0  0
  6  8  1  0  0  0  0
  7  8  1  0  0  0  0
  8  9  1  6  0  0  0
  9 11  1  0  0  0  0
  9 12  1  0  0  0  0
M  END
>  <CHROM.0>
-56.76281509,64.49628232,-67.21957771,-48.09930619,-58.71232427,-65.67272597
-69.27611257,-174.89489651,-168.08538730

>  <CHROM.1>
13.51645563,123.06618389,-82.79069938,5.51767979,17.20228786,4.53042115,2.65909412
-0.79747424,-1.66590439

>  <Name>
P53888216

>  <RI>
1.00763e+07

>  <Rbt.Current_Directory>
/home/fstefaniak/projects/zuza/docking/adenine/4XNR

>  <Rbt.Executable>
rbdock ($Id: //depot/dev/client3/rdock/2013.1/src/exe/rbdock.cxx#4 $)

>  <Rbt.Library>
libRbt.so (2013.1, Build901 2013/11/27)

>  <Rbt.Parameter_File>
/home/fstefaniak/progs/rDock//data/scripts/dock_solv.prm

>  <Rbt.Receptor>
4xnr.prm

>  <SCORE>
-54.2952

>  <SCORE.INTER>
-34.8244

>  <SCORE.INTER.CONST>
1

>  <SCORE.INTER.POLAR>
-5.26691

>  <SCORE.INTER.ROT>
3

>  <SCORE.INTER.SOLV>
10.6308

>  <SCORE.INTER.VDW>
-14.8035

>  <SCORE.INTER.norm>
-3.86938

>  <SCORE.INTRA>
0.429742

>  <SCORE.INTRA.DIHEDRAL>
1.44728

>  <SCORE.INTRA.DIHEDRAL.0>
2.37912

>  <SCORE.INTRA.POLAR>
0

>  <SCORE.INTRA.POLAR.0>
0

>  <SCORE.INTRA.REPUL>
0

>  <SCORE.INTRA.REPUL.0>
0

>  <SCORE.INTRA.SOLV>
-0.0967021

>  <SCORE.INTRA.SOLV.lig_0>
-13.6375

>  <SCORE.INTRA.VDW>
-0.245548

>  <SCORE.INTRA.VDW.0>
1.24314

>  <SCORE.INTRA.norm>
0.0477491

>  <SCORE.RESTR>
0

>  <SCORE.RESTR.CAVITY>
0

>  <SCORE.RESTR.norm>
0

>  <SCORE.SYSTEM>
-19.9005

>  <SCORE.SYSTEM.CONST>
0

>  <SCORE.SYSTEM.DIHEDRAL>
4.45724

>  <SCORE.SYSTEM.POLAR>
-2.98056

>  <SCORE.SYSTEM.SOLV>
0.193564

>  <SCORE.SYSTEM.VDW>
-4.88207

>  <SCORE.SYSTEM.norm>
-2.21117

>  <SCORE.heavy>
9

>  <SCORE.norm>
-6.0328

$$$$
P53976880
 OpenBabel12072022113D
libRbt.so/2013.1/901 2013/11/27
 15 15  0  0  0  0  0  0  0  0999 V2000
    5.4126   17.6124    5.7677 C   0  0  0  0  0  0  0  0  0  0  0  0
    5.8387   17.9808    4.4207 N   0  0  0  0  0  0  0  0  0  0  0  0
    5.2359   17.2970    3.2491 C   0  0  0  0  0  0  0  0  0  0  0  0
    5.5510   15.7936    3.2014 C   0  0  0  0  0  0  0  0  0  0  0  0
    4.5260   14.9495    3.9402 C   0  0  0  0  0  0  0  0  0  0  0  0
    3.2064   15.2447    3.4904 O   0  0  0  0  0  0  0  0  0  0  0  0
    2.8323   16.5913    3.7605 C   0  0  0  0  0  0  0  0  0  0  0  0
    3.7403   17.5686    3.0284 C   0  0  0  0  0  0  0  0  0  0  0  0
    6.9530   18.7846    4.1713 C   0  0  0  0  0  0  0  0  0  0  0  0
    7.5132   18.8509    3.0767 O   0  0  0  0  0  0  0  0  0  0  0  0
    7.3998   19.5310    5.2547 N   0  0  0  0  0  0  0  0  0  0  0  0
    8.4193   18.9754    6.0779 N   0  0  0  0  0  0  0  0  0  0  0  0
    7.4695   20.5307    5.0883 H   0  0  0  0  0  0  0  0  0  0  0  0
    7.9905   18.1767    6.5683 H   0  0  0  0  0  0  0  0  0  0  0  0
    8.5848   19.6459    6.8343 H   0  0  0  0  0  0  0  0  0  0  0  0
  1  2  1  0  0  0  0
  2  3  1  0  0  0  0
  2  9  1  0  0  0  0
  3  4  1  0  0  0  0
  3  8  1  0  0  0  0
  4  5  1  0  0  0  0
  5  6  1  0  0  0  0
  6  7  1  0  0  0  0
  7  8  1  0  0  0  0
  9 10  2  0  0  0  0
  9 11  1  0  0  0  0
 11 12  1  0  0  0  0
 11 13  1  0  0  0  0
 12 14  1  0  0  0  0
 12 15  1  0  0  0  0
M  END
>  <CHROM.0>
-59.35083571,-60.80470655,-67.52484344,-47.17511198,-57.40729446,-171.41642460
-65.94125067,-55.22491018,-167.52931069

>  <CHROM.1>
-63.92946461,93.05036549,-68.45413866,5.57512794,17.44377168,4.15021328,0.15488970
0.71917747,1.78390530

>  <Name>
P53976880

>  <RI>
9.71178e+06

>  <Rbt.Current_Directory>
/home/fstefaniak/projects/zuza/docking/adenine/4XNR

>  <Rbt.Executable>
rbdock ($Id: //depot/dev/client3/rdock/2013.1/src/exe/rbdock.cxx#4 $)

>  <Rbt.Library>
libRbt.so (2013.1, Build901 2013/11/27)

>  <Rbt.Parameter_File>
/home/fstefaniak/progs/rDock//data/scripts/dock_solv.prm

>  <Rbt.Receptor>
4xnr.prm

>  <SCORE>
-55.2123

>  <SCORE.INTER>
-32.9447

>  <SCORE.INTER.CONST>
1

>  <SCORE.INTER.POLAR>
-5.37904

>  <SCORE.INTER.ROT>
3

>  <SCORE.INTER.SOLV>
14.4435

>  <SCORE.INTER.VDW>
-14.4475

>  <SCORE.INTER.norm>
-2.7454

>  <SCORE.INTRA>
-1.71955

>  <SCORE.INTRA.DIHEDRAL>
-0.7358

>  <SCORE.INTRA.DIHEDRAL.0>
2.59116

>  <SCORE.INTRA.POLAR>
0

>  <SCORE.INTRA.POLAR.0>
0

>  <SCORE.INTRA.REPUL>
0

>  <SCORE.INTRA.REPUL.0>
0

>  <SCORE.INTRA.SOLV>
-0.0763944

>  <SCORE.INTRA.SOLV.lig_0>
-16.7261

>  <SCORE.INTRA.VDW>
-1.31345

>  <SCORE.INTRA.VDW.0>
1.29032

>  <SCORE.INTRA.norm>
-0.143296

>  <SCORE.RESTR>
0

>  <SCORE.RESTR.CAVITY>
0

>  <SCORE.RESTR.norm>
0

>  <SCORE.SYSTEM>
-20.548

>  <SCORE.SYSTEM.CONST>
0

>  <SCORE.SYSTEM.DIHEDRAL>
4.46395

>  <SCORE.SYSTEM.POLAR>
-2.98671

>  <SCORE.SYSTEM.SOLV>
0.18248

>  <SCORE.SYSTEM.VDW>
-5.29174

>  <SCORE.SYSTEM.norm>
-1.71233

>  <SCORE.heavy>
12

>  <SCORE.norm>
-4.60102

$$$$
P53976880
 OpenBabel12072022113D
libRbt.so/2013.1/901 2013/11/27
 15 15  0  0  0  0  0  0  0  0999 V2000
    5.3476   17.7103    5.7492 C   0  0  0  0  0  0  0  0  0  0  0  0
    5.8215   18.0247    4.4044 N   0  0  0  0  0  0  0  0  0  0  0  0
    5.2256   17.3286    3.2365 C   0  0  0  0  0  0  0  0  0  0  0  0
    5.5615   15.8296    3.1930 C   0  0  0  0  0  0  0  0  0  0  0  0
    4.5500   14.9738    3.9370 C   0  0  0  0  0  0  0  0  0  0  0  0
    3.2254   15.2491    3.4893 O   0  0  0  0  0  0  0  0  0  0  0  0
    2.8332   16.5913    3.7558 C   0  0  0  0  0  0  0  0  0  0  0  0
    3.7259   17.5786    3.0183 C   0  0  0  0  0  0  0  0  0  0  0  0
    6.9696   18.7818    4.1629 C   0  0  0  0  0  0  0  0  0  0  0  0
    7.5601   18.7971    3.0825 O   0  0  0  0  0  0  0  0  0  0  0  0
    7.4142   19.5433    5.2368 N   0  0  0  0  0  0  0  0  0  0  0  0
    8.4210   18.9927    6.0789 N   0  0  0  0  0  0  0  0  0  0  0  0
    7.4951   20.5391    5.0531 H   0  0  0  0  0  0  0  0  0  0  0  0
    7.9932   18.1796    6.5458 H   0  0  0  0  0  0  0  0  0  0  0  0
    8.5544   19.6545    6.8492 H   0  0  0  0  0  0  0  0  0  0  0  0
  1  2  1  0  0  0  0
  2  3  1  0  0  0  0
  2  9  1  0  0  0  0
  3  4  1  0  0  0  0
  3  8  1  0  0  0  0
  4  5  1  0  0  0  0
  5  6  1  0  0  0  0
  6  7  1  0  0  0  0
  7  8  1  0  0  0  0
  9 10  2  0  0  0  0
  9 11  1  0  0  0  0
 11 12  1  0  0  0  0
 11 13  1  0  0  0  0
 12 14  1  0  0  0  0
 12 15  1  0  0  0  0
M  END
>  <CHROM.0>
-57.94350739,-60.34617180,-62.78837659,-49.74112387,-178.12367621,-56.28293448
-72.75616251,-61.27983098,-168.78929704

>  <CHROM.1>
-67.48769273,94.91904520,-65.80919817,5.57755566,17.46164026,4.14241734,0.25206176
0.69249784,1.63513735

>  <Name>
P53976880

>  <RI>
9.71178e+06

>  <Rbt.Current_Directory>
/home/fstefaniak/projects/zuza/docking/adenine/4XNR

>  <Rbt.Executable>
rbdock ($Id: //depot/dev/client3/rdock/2013.1/src/exe/rbdock.cxx#4 $)

>  <Rbt.Library>
libRbt.so (2013.1, Build901 2013/11/27)

>  <Rbt.Parameter_File>
/home/fstefaniak/progs/rDock//data/scripts/dock_solv.prm

>  <Rbt.Receptor>
4xnr.prm

>  <SCORE>
-54.9218

>  <SCORE.INTER>
-32.3657

>  <SCORE.INTER.CONST>
1

>  <SCORE.INTER.POLAR>
-5.18169

>  <SCORE.INTER.ROT>
3

>  <SCORE.INTER.SOLV>
14.4631

>  <SCORE.INTER.VDW>
-14.7258

>  <SCORE.INTER.norm>
-2.69714

>  <SCORE.INTRA>
-1.83953

>  <SCORE.INTRA.DIHEDRAL>
-0.837509

>  <SCORE.INTRA.DIHEDRAL.0>
2.59116

>  <SCORE.INTRA.POLAR>
0

>  <SCORE.INTRA.POLAR.0>
0

>  <SCORE.INTRA.REPUL>
0

>  <SCORE.INTRA.REPUL.0>
0

>  <SCORE.INTRA.SOLV>
-0.0726399

>  <SCORE.INTRA.SOLV.lig_0>
-16.7261

>  <SCORE.INTRA.VDW>
-1.38446

>  <SCORE.INTRA.VDW.0>
1.29032

>  <SCORE.INTRA.norm>
-0.153294

>  <SCORE.RESTR>
0

>  <SCORE.RESTR.CAVITY>
0

>  <SCORE.RESTR.norm>
0

>  <SCORE.SYSTEM>
-20.7166

>  <SCORE.SYSTEM.CONST>
0

>  <SCORE.SYSTEM.DIHEDRAL>
4.04545

>  <SCORE.SYSTEM.POLAR>
-2.94227

>  <SCORE.SYSTEM.SOLV>
0.10809

>  <SCORE.SYSTEM.VDW>
-5.38798

>  <SCORE.SYSTEM.norm>
-1.72638

>  <SCORE.heavy>
12

>  <SCORE.norm>
-4.57681

$$$$
P53976880
 OpenBabel12072022113D
libRbt.so/2013.1/901 2013/11/27
 15 15  0  0  0  0  0  0  0  0999 V2000
    5.4518   17.6076    5.7705 C   0  0  0  0  0  0  0  0  0  0  0  0
    5.8703   17.9832    4.4230 N   0  0  0  0  0  0  0  0  0  0  0  0
    5.2685   17.2984    3.2516 C   0  0  0  0  0  0  0  0  0  0  0  0
    5.5818   15.7945    3.2067 C   0  0  0  0  0  0  0  0  0  0  0  0
    4.5545   14.9529    3.9451 C   0  0  0  0  0  0  0  0  0  0  0  0
    3.2360   15.2492    3.4927 O   0  0  0  0  0  0  0  0  0  0  0  0
    2.8632   16.5966    3.7601 C   0  0  0  0  0  0  0  0  0  0  0  0
    3.7737   17.5716    3.0279 C   0  0  0  0  0  0  0  0  0  0  0  0
    6.9777   18.7961    4.1722 C   0  0  0  0  0  0  0  0  0  0  0  0
    7.5334   18.8699    3.0759 O   0  0  0  0  0  0  0  0  0  0  0  0
    7.4227   19.5427    5.2563 N   0  0  0  0  0  0  0  0  0  0  0  0
    8.4306   18.9809    6.0897 N   0  0  0  0  0  0  0  0  0  0  0  0
    7.5028   20.5410    5.0867 H   0  0  0  0  0  0  0  0  0  0  0  0
    7.9956   18.1773    6.5663 H   0  0  0  0  0  0  0  0  0  0  0  0
    8.5836   19.6448    6.8546 H   0  0  0  0  0  0  0  0  0  0  0  0
  1  2  1  0  0  0  0
  2  3  1  0  0  0  0
  2  9  1  0  0  0  0
  3  4  1  0  0  0  0
  3  8  1  0  0  0  0
  4  5  1  0  0  0  0
  5  6  1  0  0  0  0
  6  7  1  0  0  0  0
  7  8  1  0  0  0  0
  9 10  2  0  0  0  0
  9 11  1  0  0  0  0
 11 12  1  0  0  0  0
 11 13  1  0  0  0  0
 12 14  1  0  0  0  0
 12 15  1  0  0  0  0
M  END
>  <CHROM.0>
-56.98044826,-64.08804538,-63.59953762,-47.28775755,-59.81061965,-63.23382961
-72.17713485,59.44886390,-167.72114260

>  <CHROM.1>
-63.28635124,91.82696033,-67.41177122,5.60283710,17.44908735,4.15295749,0.14063030
0.72442620,1.80554093

>  <Name>
P53976880

>  <RI>
9.71178e+06

>  <Rbt.Current_Directory>
/home/fstefaniak/projects/zuza/docking/adenine/4XNR

>  <Rbt.Executable>
rbdock ($Id: //depot/dev/client3/rdock/2013.1/src/exe/rbdock.cxx#4 $)

>  <Rbt.Library>
libRbt.so (2013.1, Build901 2013/11/27)

>  <Rbt.Parameter_File>
/home/fstefaniak/progs/rDock//data/scripts/dock_solv.prm

>  <Rbt.Receptor>
4xnr.prm

>  <SCORE>
-54.5704

>  <SCORE.INTER>
-32.9942

>  <SCORE.INTER.CONST>
1

>  <SCORE.INTER.POLAR>
-5.41503

>  <SCORE.INTER.ROT>
3

>  <SCORE.INTER.SOLV>
14.4981

>  <SCORE.INTER.VDW>
-14.3787

>  <SCORE.INTER.norm>
-2.74952

>  <SCORE.INTRA>
-1.67306

>  <SCORE.INTRA.DIHEDRAL>
-0.749797

>  <SCORE.INTRA.DIHEDRAL.0>
2.59116

>  <SCORE.INTRA.POLAR>
0

>  <SCORE.INTRA.POLAR.0>
0

>  <SCORE.INTRA.REPUL>
0

>  <SCORE.INTRA.REPUL.0>
0

>  <SCORE.INTRA.SOLV>
-0.06944

>  <SCORE.INTRA.SOLV.lig_0>
-16.7261

>  <SCORE.INTRA.VDW>
-1.26344

>  <SCORE.INTRA.VDW.0>
1.29032

>  <SCORE.INTRA.norm>
-0.139422

>  <SCORE.RESTR>
0

>  <SCORE.RESTR.CAVITY>
0

>  <SCORE.RESTR.norm>
0

>  <SCORE.SYSTEM>
-19.9032

>  <SCORE.SYSTEM.CONST>
0

>  <SCORE.SYSTEM.DIHEDRAL>
4.43363

>  <SCORE.SYSTEM.POLAR>
-2.9944

>  <SCORE.SYSTEM.SOLV>
0.0984777

>  <SCORE.SYSTEM.VDW>
-4.79815

>  <SCORE.SYSTEM.norm>
-1.6586

>  <SCORE.heavy>
12

>  <SCORE.norm>
-4.54753

$$$$
P54000040
 OpenBabel12072022113D
libRbt.so/2013.1/901 2013/11/27
 12 12  0  0  0  0  0  0  0  0999 V2000
    2.7408   13.2065    4.8000 C   0  0  0  0  0  0  0  0  0  0  0  0
    3.8693   13.8082    4.4035 C   0  0  0  0  0  0  0  0  0  0  0  0
    3.8546   15.2375    4.0008 C   0  0  0  0  0  0  0  0  0  0  0  0
    2.8336   15.9099    3.9706 O   0  0  0  0  0  0  0  0  0  0  0  0
    5.0985   15.7170    3.6652 N   0  0  0  0  0  0  0  0  0  0  0  0
    5.3212   17.1452    3.3097 C   0  0  0  0  0  0  0  0  0  0  0  0
    5.3390   18.0628    4.5735 C   0  0  0  0  0  0  0  0  0  0  0  0
    6.5363   18.8098    3.9567 C   0  0  0  0  0  0  0  0  0  0  0  0
    6.8128   17.5487    3.1165 C   0  0  0  0  0  0  0  0  0  0  0  0
    4.3985   17.5785    2.2664 C   0  0  0  0  0  0  0  0  0  0  0  0
    3.6336   17.9394    1.4706 N   0  0  0  0  0  0  0  0  0  0  0  0
    5.8968   15.1057    3.7761 H   0  0  0  0  0  0  0  0  0  0  0  0
  1  2  2  0  0  0  0
  2  3  1  0  0  0  0
  3  4  2  0  0  0  0
  3  5  1  0  0  0  0
  5  6  1  0  0  0  0
  5 12  1  0  0  0  0
  6  7  1  0  0  0  0
  6  9  1  0  0  0  0
  6 10  1  0  0  0  0
  7  8  1  0  0  0  0
  8  9  1  0  0  0  0
 10 11  3  0  0  0  0
M  END
>  <CHROM.0>
-58.64939932,-62.10796001,-67.02540528,-46.97219795,-177.06240950,-63.31029872
-68.50397184,-63.49717587,-167.88461543

>  <CHROM.1>
-2.29845903,76.86842313,4.57838708,16.44455861,3.61114430,-2.20720460,-0.51147475
-0.62535462

>  <Name>
P54000040

>  <RI>
4.17015e+07

>  <Rbt.Current_Directory>
/home/fstefaniak/projects/zuza/docking/adenine/4XNR

>  <Rbt.Executable>
rbdock ($Id: //depot/dev/client3/rdock/2013.1/src/exe/rbdock.cxx#4 $)

>  <Rbt.Library>
libRbt.so (2013.1, Build901 2013/11/27)

>  <Rbt.Parameter_File>
/home/fstefaniak/progs/rDock//data/scripts/dock_solv.prm

>  <Rbt.Receptor>
4xnr.prm

>  <SCORE>
-40.0389

>  <SCORE.INTER>
-19.1545

>  <SCORE.INTER.CONST>
1

>  <SCORE.INTER.POLAR>
-1.32248

>  <SCORE.INTER.ROT>
2

>  <SCORE.INTER.SOLV>
10.2257

>  <SCORE.INTER.VDW>
-16.7033

>  <SCORE.INTER.norm>
-1.74132

>  <SCORE.INTRA>
0.110235

>  <SCORE.INTRA.DIHEDRAL>
0.0987294

>  <SCORE.INTRA.DIHEDRAL.0>
1.01218

>  <SCORE.INTRA.POLAR>
0

>  <SCORE.INTRA.POLAR.0>
0

>  <SCORE.INTRA.REPUL>
0

>  <SCORE.INTRA.REPUL.0>
0

>  <SCORE.INTRA.SOLV>
0.209242

>  <SCORE.INTRA.SOLV.lig_0>
-11.3427

>  <SCORE.INTRA.VDW>
-0.0437501

>  <SCORE.INTRA.VDW.0>
-0.437131

>  <SCORE.INTRA.norm>
0.0100214

>  <SCORE.RESTR>
0

>  <SCORE.RESTR.CAVITY>
0

>  <SCORE.RESTR.norm>
0

>  <SCORE.SYSTEM>
-20.9946

>  <SCORE.SYSTEM.CONST>
0

>  <SCORE.SYSTEM.DIHEDRAL>
4.28899

>  <SCORE.SYSTEM.POLAR>
-2.98161

>  <SCORE.SYSTEM.SOLV>
0.0982461

>  <SCORE.SYSTEM.VDW>
-5.5201

>  <SCORE.SYSTEM.norm>
-1.9086

>  <SCORE.heavy>
11

>  <SCORE.norm>
-3.6399

$$$$
P54000040
 OpenBabel12072022113D
libRbt.so/2013.1/901 2013/11/27
 12 12  0  0  0  0  0  0  0  0999 V2000
    2.7109   13.1970    4.8008 C   0  0  0  0  0  0  0  0  0  0  0  0
    3.8364   13.7840    4.3747 C   0  0  0  0  0  0  0  0  0  0  0  0
    3.8327   15.2170    3.9851 C   0  0  0  0  0  0  0  0  0  0  0  0
    2.8152   15.8945    3.9499 O   0  0  0  0  0  0  0  0  0  0  0  0
    5.0823   15.6937    3.6677 N   0  0  0  0  0  0  0  0  0  0  0  0
    5.3156   17.1242    3.3280 C   0  0  0  0  0  0  0  0  0  0  0  0
    5.3164   18.0309    4.5997 C   0  0  0  0  0  0  0  0  0  0  0  0
    6.5259   18.7789    4.0082 C   0  0  0  0  0  0  0  0  0  0  0  0
    6.8113   17.5240    3.1618 C   0  0  0  0  0  0  0  0  0  0  0  0
    4.4110   17.5695    2.2739 C   0  0  0  0  0  0  0  0  0  0  0  0
    3.6600   17.9398    1.4692 N   0  0  0  0  0  0  0  0  0  0  0  0
    5.8765   15.0777    3.7817 H   0  0  0  0  0  0  0  0  0  0  0  0
  1  2  2  0  0  0  0
  2  3  1  0  0  0  0
  3  4  2  0  0  0  0
  3  5  1  0  0  0  0
  5  6  1  0  0  0  0
  5 12  1  0  0  0  0
  6  7  1  0  0  0  0
  6  9  1  0  0  0  0
  6 10  1  0  0  0  0
  7  8  1  0  0  0  0
  8  9  1  0  0  0  0
 10 11  3  0  0  0  0
M  END
>  <CHROM.0>
-59.85214699,-63.06202075,-73.67295704,-46.90913944,-62.76650057,-63.59567820
-174.69262171,-61.29712678,-168.21972246

>  <CHROM.1>
-4.79832284,76.58262546,4.56716053,16.42538658,3.61894995,-2.21808533,-0.52132828
-0.62942888

>  <Name>
P54000040

>  <RI>
4.17015e+07

>  <Rbt.Current_Directory>
/home/fstefaniak/projects/zuza/docking/adenine/4XNR

>  <Rbt.Executable>
rbdock ($Id: //depot/dev/client3/rdock/2013.1/src/exe/rbdock.cxx#4 $)

>  <Rbt.Library>
libRbt.so (2013.1, Build901 2013/11/27)

>  <Rbt.Parameter_File>
/home/fstefaniak/progs/rDock//data/scripts/dock_solv.prm

>  <Rbt.Receptor>
4xnr.prm

>  <SCORE>
-39.4529

>  <SCORE.INTER>
-19.1914

>  <SCORE.INTER.CONST>
1

>  <SCORE.INTER.POLAR>
-1.29769

>  <SCORE.INTER.ROT>
2

>  <SCORE.INTER.SOLV>
10.1912

>  <SCORE.INTER.VDW>
-16.7991

>  <SCORE.INTER.norm>
-1.74468

>  <SCORE.INTRA>
0.132321

>  <SCORE.INTRA.DIHEDRAL>
0.161226

>  <SCORE.INTRA.DIHEDRAL.0>
1.01218

>  <SCORE.INTRA.POLAR>
0

>  <SCORE.INTRA.POLAR.0>
0

>  <SCORE.INTRA.REPUL>
0

>  <SCORE.INTRA.REPUL.0>
0

>  <SCORE.INTRA.SOLV>
0.207643

>  <SCORE.INTRA.SOLV.lig_0>
-11.3427

>  <SCORE.INTRA.VDW>
-0.0521131

>  <SCORE.INTRA.VDW.0>
-0.437131

>  <SCORE.INTRA.norm>
0.0120292

>  <SCORE.RESTR>
0

>  <SCORE.RESTR.CAVITY>
0

>  <SCORE.RESTR.norm>
0

>  <SCORE.SYSTEM>
-20.3938

>  <SCORE.SYSTEM.CONST>
0

>  <SCORE.SYSTEM.DIHEDRAL>
4.63223

>  <SCORE.SYSTEM.POLAR>
-2.95493

>  <SCORE.SYSTEM.SOLV>
0.216377

>  <SCORE.SYSTEM.VDW>
-5.36232

>  <SCORE.SYSTEM.norm>
-1.85398

>  <SCORE.heavy>
11

>  <SCORE.norm>
-3.58663

$$$$
P54000040
 OpenBabel12072022113D
libRbt.so/2013.1/901 2013/11/27
 12 12  0  0  0  0  0  0  0  0999 V2000
    2.7333   13.0456    4.4177 C   0  0  0  0  0  0  0  0  0  0  0  0
    3.8737   13.6960    4.1546 C   0  0  0  0  0  0  0  0  0  0  0  0
    3.8502   15.1408    3.8123 C   0  0  0  0  0  0  0  0  0  0  0  0
    2.8186   15.7955    3.7589 O   0  0  0  0  0  0  0  0  0  0  0  0
    5.0993   15.6566    3.5603 N   0  0  0  0  0  0  0  0  0  0  0  0
    5.3106   17.1027    3.2771 C   0  0  0  0  0  0  0  0  0  0  0  0
    5.3316   17.9544    4.5861 C   0  0  0  0  0  0  0  0  0  0  0  0
    6.5198   18.7399    4.0003 C   0  0  0  0  0  0  0  0  0  0  0  0
    6.7981   17.5254    3.0947 C   0  0  0  0  0  0  0  0  0  0  0  0
    4.3778   17.5827    2.2635 C   0  0  0  0  0  0  0  0  0  0  0  0
    3.6050   17.9788    1.4924 N   0  0  0  0  0  0  0  0  0  0  0  0
    5.9032   15.0556    3.6855 H   0  0  0  0  0  0  0  0  0  0  0  0
  1  2  2  0  0  0  0
  2  3  1  0  0  0  0
  3  4  2  0  0  0  0
  3  5  1  0  0  0  0
  5  6  1  0  0  0  0
  5 12  1  0  0  0  0
  6  7  1  0  0  0  0
  6  9  1  0  0  0  0
  6 10  1  0  0  0  0
  7  8  1  0  0  0  0
  8  9  1  0  0  0  0
 10 11  3  0  0  0  0
M  END
>  <CHROM.0>
-59.06473679,54.15907622,-67.71570326,-48.29022349,-175.01073955,-62.96705863
-67.03358089,-59.73820479,-168.07178190

>  <CHROM.1>
0.27777010,80.24998021,4.56746166,16.37569776,3.50823829,-2.20966494,-0.51622148
-0.54806880

>  <Name>
P54000040

>  <RI>
4.17015e+07

>  <Rbt.Current_Directory>
/home/fstefaniak/projects/zuza/docking/adenine/4XNR

>  <Rbt.Executable>
rbdock ($Id: //depot/dev/client3/rdock/2013.1/src/exe/rbdock.cxx#4 $)

>  <Rbt.Library>
libRbt.so (2013.1, Build901 2013/11/27)

>  <Rbt.Parameter_File>
/home/fstefaniak/progs/rDock//data/scripts/dock_solv.prm

>  <Rbt.Receptor>
4xnr.prm

>  <SCORE>
-39.2237

>  <SCORE.INTER>
-19.2343

>  <SCORE.INTER.CONST>
1

>  <SCORE.INTER.POLAR>
-1.30592

>  <SCORE.INTER.ROT>
2

>  <SCORE.INTER.SOLV>
10.0167

>  <SCORE.INTER.VDW>
-16.742

>  <SCORE.INTER.norm>
-1.74857

>  <SCORE.INTRA>
0.163967

>  <SCORE.INTRA.DIHEDRAL>
0.0516763

>  <SCORE.INTRA.DIHEDRAL.0>
1.01218

>  <SCORE.INTRA.POLAR>
0

>  <SCORE.INTRA.POLAR.0>
0

>  <SCORE.INTRA.REPUL>
0

>  <SCORE.INTRA.REPUL.0>
0

>  <SCORE.INTRA.SOLV>
0.228771

>  <SCORE.INTRA.SOLV.lig_0>
-11.3427

>  <SCORE.INTRA.VDW>
0.0237437

>  <SCORE.INTRA.VDW.0>
-0.437131

>  <SCORE.INTRA.norm>
0.0149061

>  <SCORE.RESTR>
0

>  <SCORE.RESTR.CAVITY>
0

>  <SCORE.RESTR.norm>
0

>  <SCORE.SYSTEM>
-20.1534

>  <SCORE.SYSTEM.CONST>
0

>  <SCORE.SYSTEM.DIHEDRAL>
4.2137

>  <SCORE.SYSTEM.POLAR>
-2.97033

>  <SCORE.SYSTEM.SOLV>
0.202735

>  <SCORE.SYSTEM.VDW>
-5.00664

>  <SCORE.SYSTEM.norm>
-1.83213

>  <SCORE.heavy>
11

>  <SCORE.norm>
-3.56579

$$$$
P54927197
 OpenBabel12072022113D
libRbt.so/2013.1/901 2013/11/27
 14 14  0  0  0  0  0  0  0  0999 V2000
    1.1984   13.0281    3.2421 C   0  0  0  0  0  0  0  0  0  0  0  0
    1.6353   13.7265    4.5314 C   0  0  0  0  0  0  0  0  0  0  0  0
    3.1599   13.7268    4.6956 C   0  0  0  0  0  0  0  0  0  0  0  0
    3.8580   14.6893    3.7383 C   0  0  0  0  0  0  0  0  0  0  0  0
    3.2904   16.0346    3.7917 N   0  0  0  0  0  0  0  0  0  0  0  0
    1.8336   16.1133    3.6562 C   0  0  0  0  0  0  0  0  0  0  0  0
    1.1118   15.1656    4.6112 C   0  0  0  0  0  0  0  0  0  0  0  0
    4.1254   17.0668    3.3650 C   0  0  0  0  0  0  0  0  0  0  0  0
    5.0201   17.5541    4.0560 O   0  0  0  0  0  0  0  0  0  0  0  0
    3.8722   17.5251    2.0773 N   0  0  0  0  0  0  0  0  0  0  0  0
    4.9425   17.5176    1.1395 N   0  0  0  0  0  0  0  0  0  0  0  0
    3.2469   18.3246    2.0283 H   0  0  0  0  0  0  0  0  0  0  0  0
    5.2823   18.4813    1.0724 H   0  0  0  0  0  0  0  0  0  0  0  0
    4.5134   17.3577    0.2160 H   0  0  0  0  0  0  0  0  0  0  0  0
  1  2  1  0  0  0  0
  2  3  1  0  0  0  0
  2  7  1  0  0  0  0
  3  4  1  0  0  0  0
  4  5  1  0  0  0  0
  5  6  1  0  0  0  0
  5  8  1  0  0  0  0
  6  7  1  0  0  0  0
  8  9  2  0  0  0  0
  8 10  1  0  0  0  0
 10 11  1  0  0  0  0
 10 12  1  0  0  0  0
 11 13  1  0  0  0  0
 11 14  1  0  0  0  0
M  END
>  <CHROM.0>
-59.49907761,-61.39157070,-64.99468965,-47.01927694,-59.54694014,-176.12138899
-67.12576755,-61.08239654,-167.21674649

>  <CHROM.1>
-79.13424050,-124.25000709,-101.94319807,3.12710687,15.69677706,3.49089452
2.41204159,0.68192731,2.08338382

>  <Name>
P54927197

>  <RI>
1.00763e+07

>  <Rbt.Current_Directory>
/home/fstefaniak/projects/zuza/docking/adenine/4XNR

>  <Rbt.Executable>
rbdock ($Id: //depot/dev/client3/rdock/2013.1/src/exe/rbdock.cxx#4 $)

>  <Rbt.Library>
libRbt.so (2013.1, Build901 2013/11/27)

>  <Rbt.Parameter_File>
/home/fstefaniak/progs/rDock//data/scripts/dock_solv.prm

>  <Rbt.Receptor>
4xnr.prm

>  <SCORE>
-51.583

>  <SCORE.INTER>
-28.8751

>  <SCORE.INTER.CONST>
1

>  <SCORE.INTER.POLAR>
-3.8568

>  <SCORE.INTER.ROT>
3

>  <SCORE.INTER.SOLV>
12.119

>  <SCORE.INTER.VDW>
-16.0337

>  <SCORE.INTER.norm>
-2.62501

>  <SCORE.INTRA>
-2.05433

>  <SCORE.INTRA.DIHEDRAL>
-0.598579

>  <SCORE.INTRA.DIHEDRAL.0>
2.21904

>  <SCORE.INTRA.POLAR>
0

>  <SCORE.INTRA.POLAR.0>
0

>  <SCORE.INTRA.REPUL>
0

>  <SCORE.INTRA.REPUL.0>
0

>  <SCORE.INTRA.SOLV>
-0.137392

>  <SCORE.INTRA.SOLV.lig_0>
-15.9386

>  <SCORE.INTRA.VDW>
-1.68635

>  <SCORE.INTRA.VDW.0>
0.844764

>  <SCORE.INTRA.norm>
-0.186758

>  <SCORE.RESTR>
0

>  <SCORE.RESTR.CAVITY>
0

>  <SCORE.RESTR.norm>
0

>  <SCORE.SYSTEM>
-20.6536

>  <SCORE.SYSTEM.CONST>
0

>  <SCORE.SYSTEM.DIHEDRAL>
4.05942

>  <SCORE.SYSTEM.POLAR>
-2.97817

>  <SCORE.SYSTEM.SOLV>
0.173141

>  <SCORE.SYSTEM.VDW>
-5.25267

>  <SCORE.SYSTEM.norm>
-1.8776

>  <SCORE.heavy>
11

>  <SCORE.norm>
-4.68937

$$$$
P54927197
 OpenBabel12072022113D
libRbt.so/2013.1/901 2013/11/27
 14 14  0  0  0  0  0  0  0  0999 V2000
    1.1369   13.1341    3.3010 C   0  0  0  0  0  0  0  0  0  0  0  0
    1.6207   13.8445    4.5668 C   0  0  0  0  0  0  0  0  0  0  0  0
    3.1506   13.8585    4.6679 C   0  0  0  0  0  0  0  0  0  0  0  0
    3.8004   14.8203    3.6765 C   0  0  0  0  0  0  0  0  0  0  0  0
    3.2242   16.1612    3.7449 N   0  0  0  0  0  0  0  0  0  0  0  0
    1.7624   16.2271    3.6692 C   0  0  0  0  0  0  0  0  0  0  0  0
    1.0887   15.2798    4.6592 C   0  0  0  0  0  0  0  0  0  0  0  0
    4.0321   17.1974    3.2775 C   0  0  0  0  0  0  0  0  0  0  0  0
    4.8850   17.7628    3.9618 O   0  0  0  0  0  0  0  0  0  0  0  0
    3.8024   17.5634    1.9564 N   0  0  0  0  0  0  0  0  0  0  0  0
    4.9027   17.5459    1.0540 N   0  0  0  0  0  0  0  0  0  0  0  0
    3.1455   18.3294    1.8378 H   0  0  0  0  0  0  0  0  0  0  0  0
    5.2524   18.5068    0.9971 H   0  0  0  0  0  0  0  0  0  0  0  0
    4.5027   17.3883    0.1172 H   0  0  0  0  0  0  0  0  0  0  0  0
  1  2  1  0  0  0  0
  2  3  1  0  0  0  0
  2  7  1  0  0  0  0
  3  4  1  0  0  0  0
  4  5  1  0  0  0  0
  5  6  1  0  0  0  0
  5  8  1  0  0  0  0
  6  7  1  0  0  0  0
  8  9  2  0  0  0  0
  8 10  1  0  0  0  0
 10 11  1  0  0  0  0
 10 12  1  0  0  0  0
 11 13  1  0  0  0  0
 11 14  1  0  0  0  0
M  END
>  <CHROM.0>
-56.36516875,-61.48433977,-65.15262852,-47.63704116,59.99349052,-64.43637519
-68.07347170,-55.67407239,-168.01870991

>  <CHROM.1>
-84.68314076,-124.52762547,-97.32880311,3.06818874,15.80929782,3.45574290
2.58210550,0.83105768,1.79798095

>  <Name>
P54927197

>  <RI>
1.00763e+07

>  <Rbt.Current_Directory>
/home/fstefaniak/projects/zuza/docking/adenine/4XNR

>  <Rbt.Executable>
rbdock ($Id: //depot/dev/client3/rdock/2013.1/src/exe/rbdock.cxx#4 $)

>  <Rbt.Library>
libRbt.so (2013.1, Build901 2013/11/27)

>  <Rbt.Parameter_File>
/home/fstefaniak/progs/rDock//data/scripts/dock_solv.prm

>  <Rbt.Receptor>
4xnr.prm

>  <SCORE>
-50.8925

>  <SCORE.INTER>
-28.7502

>  <SCORE.INTER.CONST>
1

>  <SCORE.INTER.POLAR>
-3.83679

>  <SCORE.INTER.ROT>
3

>  <SCORE.INTER.SOLV>
12.5047

>  <SCORE.INTER.VDW>
-16.1457

>  <SCORE.INTER.norm>
-2.61366

>  <SCORE.INTRA>
-2.20231

>  <SCORE.INTRA.DIHEDRAL>
-0.746313

>  <SCORE.INTRA.DIHEDRAL.0>
2.21904

>  <SCORE.INTRA.POLAR>
0

>  <SCORE.INTRA.POLAR.0>
0

>  <SCORE.INTRA.REPUL>
0

>  <SCORE.INTRA.REPUL.0>
0

>  <SCORE.INTRA.SOLV>
-0.132703

>  <SCORE.INTRA.SOLV.lig_0>
-15.9386

>  <SCORE.INTRA.VDW>
-1.7628

>  <SCORE.INTRA.VDW.0>
0.844764

>  <SCORE.INTRA.norm>
-0.20021

>  <SCORE.RESTR>
0

>  <SCORE.RESTR.CAVITY>
0

>  <SCORE.RESTR.norm>
0

>  <SCORE.SYSTEM>
-19.94

>  <SCORE.SYSTEM.CONST>
0

>  <SCORE.SYSTEM.DIHEDRAL>
4.13676

>  <SCORE.SYSTEM.POLAR>
-3.00151

>  <SCORE.SYSTEM.SOLV>
0.0793334

>  <SCORE.SYSTEM.VDW>
-4.69368

>  <SCORE.SYSTEM.norm>
-1.81273

>  <SCORE.heavy>
11

>  <SCORE.norm>
-4.6266

$$$$
P54927197
 OpenBabel12072022113D
libRbt.so/2013.1/901 2013/11/27
 14 14  0  0  0  0  0  0  0  0999 V2000
    0.8799   13.2450    3.3391 C   0  0  0  0  0  0  0  0  0  0  0  0
    1.3688   13.9530    4.6043 C   0  0  0  0  0  0  0  0  0  0  0  0
    2.8895   13.8474    4.7699 C   0  0  0  0  0  0  0  0  0  0  0  0
    3.6547   14.7231    3.7809 C   0  0  0  0  0  0  0  0  0  0  0  0
    3.1871   16.1073    3.7879 N   0  0  0  0  0  0  0  0  0  0  0  0
    1.7398   16.2877    3.6485 C   0  0  0  0  0  0  0  0  0  0  0  0
    0.9520   15.4285    4.6346 C   0  0  0  0  0  0  0  0  0  0  0  0
    4.0948   17.0605    3.3270 C   0  0  0  0  0  0  0  0  0  0  0  0
    5.0504   17.4709    3.9854 O   0  0  0  0  0  0  0  0  0  0  0  0
    3.8408   17.5332    2.0447 N   0  0  0  0  0  0  0  0  0  0  0  0
    4.9021   17.5063    1.0970 N   0  0  0  0  0  0  0  0  0  0  0  0
    3.2344   18.3477    2.0066 H   0  0  0  0  0  0  0  0  0  0  0  0
    5.2554   18.4647    1.0230 H   0  0  0  0  0  0  0  0  0  0  0  0
    4.4620   17.3494    0.1782 H   0  0  0  0  0  0  0  0  0  0  0  0
  1  2  1  0  0  0  0
  2  3  1  0  0  0  0
  2  7  1  0  0  0  0
  3  4  1  0  0  0  0
  4  5  1  0  0  0  0
  5  6  1  0  0  0  0
  5  8  1  0  0  0  0
  6  7  1  0  0  0  0
  8  9  2  0  0  0  0
  8 10  1  0  0  0  0
 10 11  1  0  0  0  0
 10 12  1  0  0  0  0
 11 13  1  0  0  0  0
 11 14  1  0  0  0  0
M  END
>  <CHROM.0>
-57.79801065,-63.98503624,60.23090352,-47.73185498,-59.80683070,-177.30855621
53.22898256,-58.88061159,-168.10504381

>  <CHROM.1>
-76.56991262,-128.19262947,-102.72944210,2.99425634,15.78630952,3.50023495
2.37880542,0.53158903,2.15574619

>  <Name>
P54927197

>  <RI>
1.00763e+07

>  <Rbt.Current_Directory>
/home/fstefaniak/projects/zuza/docking/adenine/4XNR

>  <Rbt.Executable>
rbdock ($Id: //depot/dev/client3/rdock/2013.1/src/exe/rbdock.cxx#4 $)

>  <Rbt.Library>
libRbt.so (2013.1, Build901 2013/11/27)

>  <Rbt.Parameter_File>
/home/fstefaniak/progs/rDock//data/scripts/dock_solv.prm

>  <Rbt.Receptor>
4xnr.prm

>  <SCORE>
-49.4847

>  <SCORE.INTER>
-28.7114

>  <SCORE.INTER.CONST>
1

>  <SCORE.INTER.POLAR>
-3.83577

>  <SCORE.INTER.ROT>
3

>  <SCORE.INTER.SOLV>
12.4949

>  <SCORE.INTER.VDW>
-16.12

>  <SCORE.INTER.norm>
-2.61012

>  <SCORE.INTRA>
-1.99047

>  <SCORE.INTRA.DIHEDRAL>
-0.57203

>  <SCORE.INTRA.DIHEDRAL.0>
2.21904

>  <SCORE.INTRA.POLAR>
0

>  <SCORE.INTRA.POLAR.0>
0

>  <SCORE.INTRA.REPUL>
0

>  <SCORE.INTRA.REPUL.0>
0

>  <SCORE.INTRA.SOLV>
-0.149434

>  <SCORE.INTRA.SOLV.lig_0>
-15.9386

>  <SCORE.INTRA.VDW>
-1.62974

>  <SCORE.INTRA.VDW.0>
0.844764

>  <SCORE.INTRA.norm>
-0.180952

>  <SCORE.RESTR>
0

>  <SCORE.RESTR.CAVITY>
0

>  <SCORE.RESTR.norm>
0

>  <SCORE.SYSTEM>
-18.7829

>  <SCORE.SYSTEM.CONST>
0

>  <SCORE.SYSTEM.DIHEDRAL>
3.80397

>  <SCORE.SYSTEM.POLAR>
-2.96321

>  <SCORE.SYSTEM.SOLV>
0.0783493

>  <SCORE.SYSTEM.VDW>
-3.93866

>  <SCORE.SYSTEM.norm>
-1.70753

>  <SCORE.heavy>
11

>  <SCORE.norm>
-4.49861

$$$$
P54927198
 OpenBabel12072022113D
libRbt.so/2013.1/901 2013/11/27
 12 12  0  0  0  0  0  0  0  0999 V2000
    6.8621   18.8116    6.3652 C   0  0  0  0  0  0  0  0  0  0  0  0
    5.4155   18.3457    6.2713 C   0  0  0  0  0  0  0  0  0  0  0  0
    5.4155   17.4828    5.0176 C   0  0  0  0  0  0  0  0  0  0  0  0
    6.4471   18.0613    4.1743 N   0  0  0  0  0  0  0  0  0  0  0  0
    7.2445   19.0314    4.9084 C   0  0  0  0  0  0  0  0  0  0  0  0
    6.5157   17.7449    2.8396 C   0  0  0  0  0  0  0  0  0  0  0  0
    5.7389   16.9603    2.2952 O   0  0  0  0  0  0  0  0  0  0  0  0
    7.5133   18.3966    2.1295 N   0  0  0  0  0  0  0  0  0  0  0  0
    7.2654   18.7499    0.7764 N   0  0  0  0  0  0  0  0  0  0  0  0
    8.4742   18.1947    2.3801 H   0  0  0  0  0  0  0  0  0  0  0  0
    7.1322   17.8722    0.2648 H   0  0  0  0  0  0  0  0  0  0  0  0
    8.1599   19.0974    0.4018 H   0  0  0  0  0  0  0  0  0  0  0  0
  1  2  1  0  0  0  0
  1  5  1  0  0  0  0
  2  3  1  0  0  0  0
  3  4  1  0  0  0  0
  4  5  1  0  0  0  0
  4  6  1  0  0  0  0
  6  7  2  0  0  0  0
  6  8  1  0  0  0  0
  8  9  1  0  0  0  0
  8 10  1  0  0  0  0
  9 11  1  0  0  0  0
  9 12  1  0  0  0  0
M  END
>  <CHROM.0>
-58.13877395,-64.74389582,-68.94559136,-44.79482692,-59.78445747,-63.52183486
-69.46353471,-178.61101416,-168.32212504

>  <CHROM.1>
-145.67368296,-63.37523655,6.51224920,18.16907007,3.79020247,-1.82766786
-0.70456121,-1.79451494

>  <Name>
P54927198

>  <RI>
1.00763e+07

>  <Rbt.Current_Directory>
/home/fstefaniak/projects/zuza/docking/adenine/4XNR

>  <Rbt.Executable>
rbdock ($Id: //depot/dev/client3/rdock/2013.1/src/exe/rbdock.cxx#4 $)

>  <Rbt.Library>
libRbt.so (2013.1, Build901 2013/11/27)

>  <Rbt.Parameter_File>
/home/fstefaniak/progs/rDock//data/scripts/dock_solv.prm

>  <Rbt.Receptor>
4xnr.prm

>  <SCORE>
-56.3715

>  <SCORE.INTER>
-34.4757

>  <SCORE.INTER.CONST>
1

>  <SCORE.INTER.POLAR>
-4.34441

>  <SCORE.INTER.ROT>
2

>  <SCORE.INTER.SOLV>
13.1329

>  <SCORE.INTER.VDW>
-17.8134

>  <SCORE.INTER.norm>
-3.83064

>  <SCORE.INTRA>
-1.07213

>  <SCORE.INTRA.DIHEDRAL>
-0.74048

>  <SCORE.INTRA.DIHEDRAL.0>
1.66949

>  <SCORE.INTRA.POLAR>
0

>  <SCORE.INTRA.POLAR.0>
0

>  <SCORE.INTRA.REPUL>
0

>  <SCORE.INTRA.REPUL.0>
0

>  <SCORE.INTRA.SOLV>
-0.128019

>  <SCORE.INTRA.SOLV.lig_0>
-15.2558

>  <SCORE.INTRA.VDW>
-0.637877

>  <SCORE.INTRA.VDW.0>
0.11491

>  <SCORE.INTRA.norm>
-0.119125

>  <SCORE.RESTR>
0

>  <SCORE.RESTR.CAVITY>
0

>  <SCORE.RESTR.norm>
0

>  <SCORE.SYSTEM>
-20.8236

>  <SCORE.SYSTEM.CONST>
0

>  <SCORE.SYSTEM.DIHEDRAL>
4.74146

>  <SCORE.SYSTEM.POLAR>
-3.01448

>  <SCORE.SYSTEM.SOLV>
0.138363

>  <SCORE.SYSTEM.VDW>
-5.46078

>  <SCORE.SYSTEM.norm>
-2.31374

>  <SCORE.heavy>
9

>  <SCORE.norm>
-6.2635

$$$$
P54927198
 OpenBabel12072022113D
libRbt.so/2013.1/901 2013/11/27
 12 12  0  0  0  0  0  0  0  0999 V2000
    6.8632   18.7919    6.3898 C   0  0  0  0  0  0  0  0  0  0  0  0
    5.4135   18.3370    6.2895 C   0  0  0  0  0  0  0  0  0  0  0  0
    5.4100   17.4839    5.0292 C   0  0  0  0  0  0  0  0  0  0  0  0
    6.4473   18.0614    4.1924 N   0  0  0  0  0  0  0  0  0  0  0  0
    7.2501   19.0201    4.9354 C   0  0  0  0  0  0  0  0  0  0  0  0
    6.5164   17.7549    2.8554 C   0  0  0  0  0  0  0  0  0  0  0  0
    5.7351   16.9800    2.3034 O   0  0  0  0  0  0  0  0  0  0  0  0
    7.5200   18.4048    2.1522 N   0  0  0  0  0  0  0  0  0  0  0  0
    7.2794   18.7652    0.7997 N   0  0  0  0  0  0  0  0  0  0  0  0
    8.4789   18.1973    2.4060 H   0  0  0  0  0  0  0  0  0  0  0  0
    7.1422   17.8904    0.2841 H   0  0  0  0  0  0  0  0  0  0  0  0
    8.1776   19.1082    0.4298 H   0  0  0  0  0  0  0  0  0  0  0  0
  1  2  1  0  0  0  0
  1  5  1  0  0  0  0
  2  3  1  0  0  0  0
  3  4  1  0  0  0  0
  4  5  1  0  0  0  0
  4  6  1  0  0  0  0
  6  7  2  0  0  0  0
  6  8  1  0  0  0  0
  8  9  1  0  0  0  0
  8 10  1  0  0  0  0
  9 11  1  0  0  0  0
  9 12  1  0  0  0  0
M  END
>  <CHROM.0>
-54.82846241,-64.32290126,-62.81757689,-46.62577721,-50.35986984,-66.18880021
-65.73313562,-56.67214538,-167.64490883

>  <CHROM.1>
-145.94240863,-63.26033105,6.51428168,18.17107010,3.80903505,-1.82821744
-0.69644393,-1.78757075

>  <Name>
P54927198

>  <RI>
1.00763e+07

>  <Rbt.Current_Directory>
/home/fstefaniak/projects/zuza/docking/adenine/4XNR

>  <Rbt.Executable>
rbdock ($Id: //depot/dev/client3/rdock/2013.1/src/exe/rbdock.cxx#4 $)

>  <Rbt.Library>
libRbt.so (2013.1, Build901 2013/11/27)

>  <Rbt.Parameter_File>
/home/fstefaniak/progs/rDock//data/scripts/dock_solv.prm

>  <Rbt.Receptor>
4xnr.prm

>  <SCORE>
-56.1243

>  <SCORE.INTER>
-34.4699

>  <SCORE.INTER.CONST>
1

>  <SCORE.INTER.POLAR>
-4.35655

>  <SCORE.INTER.ROT>
2

>  <SCORE.INTER.SOLV>
13.1278

>  <SCORE.INTER.VDW>
-17.7674

>  <SCORE.INTER.norm>
-3.82999

>  <SCORE.INTRA>
-1.06897

>  <SCORE.INTRA.DIHEDRAL>
-0.737834

>  <SCORE.INTRA.DIHEDRAL.0>
1.66949

>  <SCORE.INTRA.POLAR>
0

>  <SCORE.INTRA.POLAR.0>
0

>  <SCORE.INTRA.REPUL>
0

>  <SCORE.INTRA.REPUL.0>
0

>  <SCORE.INTRA.SOLV>
-0.128014

>  <SCORE.INTRA.SOLV.lig_0>
-15.2558

>  <SCORE.INTRA.VDW>
-0.636048

>  <SCORE.INTRA.VDW.0>
0.11491

>  <SCORE.INTRA.norm>
-0.118775

>  <SCORE.RESTR>
0

>  <SCORE.RESTR.CAVITY>
0

>  <SCORE.RESTR.norm>
0

>  <SCORE.SYSTEM>
-20.5854

>  <SCORE.SYSTEM.CONST>
0

>  <SCORE.SYSTEM.DIHEDRAL>
4.66431

>  <SCORE.SYSTEM.POLAR>
-3.05754

>  <SCORE.SYSTEM.SOLV>
0.302102

>  <SCORE.SYSTEM.VDW>
-5.18728

>  <SCORE.SYSTEM.norm>
-2.28727

>  <SCORE.heavy>
9

>  <SCORE.norm>
-6.23603

$$$$
P54927198
 OpenBabel12072022113D
libRbt.so/2013.1/901 2013/11/27
 12 12  0  0  0  0  0  0  0  0999 V2000
    6.8763   18.7939    6.3768 C   0  0  0  0  0  0  0  0  0  0  0  0
    5.4209   18.3560    6.2847 C   0  0  0  0  0  0  0  0  0  0  0  0
    5.4017   17.4978    5.0280 C   0  0  0  0  0  0  0  0  0  0  0  0
    6.4421   18.0595    4.1843 N   0  0  0  0  0  0  0  0  0  0  0  0
    7.2595   19.0116    4.9199 C   0  0  0  0  0  0  0  0  0  0  0  0
    6.5017   17.7466    2.8483 C   0  0  0  0  0  0  0  0  0  0  0  0
    5.7088   16.9789    2.3030 O   0  0  0  0  0  0  0  0  0  0  0  0
    7.5098   18.3817    2.1381 N   0  0  0  0  0  0  0  0  0  0  0  0
    7.2638   18.7493    0.7885 N   0  0  0  0  0  0  0  0  0  0  0  0
    8.4673   18.1578    2.3832 H   0  0  0  0  0  0  0  0  0  0  0  0
    7.1094   17.8781    0.2717 H   0  0  0  0  0  0  0  0  0  0  0  0
    8.1639   19.0799    0.4122 H   0  0  0  0  0  0  0  0  0  0  0  0
  1  2  1  0  0  0  0
  1  5  1  0  0  0  0
  2  3  1  0  0  0  0
  3  4  1  0  0  0  0
  4  5  1  0  0  0  0
  4  6  1  0  0  0  0
  6  7  2  0  0  0  0
  6  8  1  0  0  0  0
  8  9  1  0  0  0  0
  8 10  1  0  0  0  0
  9 11  1  0  0  0  0
  9 12  1  0  0  0  0
M  END
>  <CHROM.0>
-58.46887296,-62.89905973,-72.93798629,-44.53079160,-58.43254184,-63.46272789
-171.91206133,-174.42567390,-167.94502056

>  <CHROM.1>
-145.42828949,-63.35734312,6.50817836,18.16794860,3.80055826,-1.81923478
-0.68709536,-1.78519748

>  <Name>
P54927198

>  <RI>
1.00763e+07

>  <Rbt.Current_Directory>
/home/fstefaniak/projects/zuza/docking/adenine/4XNR

>  <Rbt.Executable>
rbdock ($Id: //depot/dev/client3/rdock/2013.1/src/exe/rbdock.cxx#4 $)

>  <Rbt.Library>
libRbt.so (2013.1, Build901 2013/11/27)

>  <Rbt.Parameter_File>
/home/fstefaniak/progs/rDock//data/scripts/dock_solv.prm

>  <Rbt.Receptor>
4xnr.prm

>  <SCORE>
-55.7576

>  <SCORE.INTER>
-34.4142

>  <SCORE.INTER.CONST>
1

>  <SCORE.INTER.POLAR>
-4.34104

>  <SCORE.INTER.ROT>
2

>  <SCORE.INTER.SOLV>
13.1038

>  <SCORE.INTER.VDW>
-17.774

>  <SCORE.INTER.norm>
-3.8238

>  <SCORE.INTRA>
-1.07308

>  <SCORE.INTRA.DIHEDRAL>
-0.740162

>  <SCORE.INTRA.DIHEDRAL.0>
1.66949

>  <SCORE.INTRA.POLAR>
0

>  <SCORE.INTRA.POLAR.0>
0

>  <SCORE.INTRA.REPUL>
0

>  <SCORE.INTRA.REPUL.0>
0

>  <SCORE.INTRA.SOLV>
-0.127788

>  <SCORE.INTRA.SOLV.lig_0>
-15.2558

>  <SCORE.INTRA.VDW>
-0.6391

>  <SCORE.INTRA.VDW.0>
0.11491

>  <SCORE.INTRA.norm>
-0.119231

>  <SCORE.RESTR>
0

>  <SCORE.RESTR.CAVITY>
0

>  <SCORE.RESTR.norm>
0

>  <SCORE.SYSTEM>
-20.2703

>  <SCORE.SYSTEM.CONST>
0

>  <SCORE.SYSTEM.DIHEDRAL>
5.15139

>  <SCORE.SYSTEM.POLAR>
-3.00689

>  <SCORE.SYSTEM.SOLV>
0.0952442

>  <SCORE.SYSTEM.VDW>
-5.23947

>  <SCORE.SYSTEM.norm>
-2.25226

>  <SCORE.heavy>
9

>  <SCORE.norm>
-6.19529

$$$$
P54927225
 OpenBabel12072022113D
libRbt.so/2013.1/901 2013/11/27
 14 14  0  0  0  0  0  0  0  0999 V2000
    0.4856   12.4161    2.0235 C   0  0  0  0  0  0  0  0  0  0  0  0
    0.7663   12.3326    3.5268 C   0  0  1  0  0  0  0  0  0  0  0  0
    2.0748   11.5886    3.8253 C   0  0  0  0  0  0  0  0  0  0  0  0
    3.3021   12.4151    3.4514 C   0  0  0  0  0  0  0  0  0  0  0  0
    3.2551   13.8044    4.0788 C   0  0  0  0  0  0  0  0  0  0  0  0
    1.9915   14.4868    3.8108 N   0  0  0  0  0  0  0  0  0  0  0  0
    0.7851   13.7300    4.1589 C   0  0  0  0  0  0  0  0  0  0  0  0
    2.0237   15.8795    3.8210 C   0  0  0  0  0  0  0  0  0  0  0  0
    2.8182   16.5515    3.1637 O   0  0  0  0  0  0  0  0  0  0  0  0
    1.0684   16.4763    4.6359 N   0  0  0  0  0  0  0  0  0  0  0  0
    0.0069   17.1908    4.0145 N   0  0  0  0  0  0  0  0  0  0  0  0
    0.8174   15.9354    5.4587 H   0  0  0  0  0  0  0  0  0  0  0  0
   -0.6152   17.5003    4.7757 H   0  0  0  0  0  0  0  0  0  0  0  0
   -0.5626   16.4979    3.5198 H   0  0  0  0  0  0  0  0  0  0  0  0
  2  1  1  6  0  0  0
  2  3  1  0  0  0  0
  2  7  1  0  0  0  0
  3  4  1  0  0  0  0
  4  5  1  0  0  0  0
  5  6  1  0  0  0  0
  6  7  1  0  0  0  0
  6  8  1  0  0  0  0
  8  9  2  0  0  0  0
  8 10  1  0  0  0  0
 10 11  1  0  0  0  0
 10 12  1  0  0  0  0
 11 13  1  0  0  0  0
 11 14  1  0  0  0  0
M  END
>  <CHROM.0>
-62.95474380,64.01035660,-66.61333723,-47.33433938,58.87970528,-62.66229918
-68.39931910,-58.12665285,-167.39247498

>  <CHROM.1>
52.41827523,-110.80642519,176.53856432,1.66242134,14.31473999,3.68202675
1.43296501,0.07833865,-2.98391653

>  <Name>
P54927225

>  <RI>
3.51561e+07

>  <Rbt.Current_Directory>
/home/fstefaniak/projects/zuza/docking/adenine/4XNR

>  <Rbt.Executable>
rbdock ($Id: //depot/dev/client3/rdock/2013.1/src/exe/rbdock.cxx#4 $)

>  <Rbt.Library>
libRbt.so (2013.1, Build901 2013/11/27)

>  <Rbt.Parameter_File>
/home/fstefaniak/progs/rDock//data/scripts/dock_solv.prm

>  <Rbt.Receptor>
4xnr.prm

>  <SCORE>
-45.5484

>  <SCORE.INTER>
-25.6188

>  <SCORE.INTER.CONST>
1

>  <SCORE.INTER.POLAR>
-4.08072

>  <SCORE.INTER.ROT>
3

>  <SCORE.INTER.SOLV>
11.1174

>  <SCORE.INTER.VDW>
-12.7826

>  <SCORE.INTER.norm>
-2.32898

>  <SCORE.INTRA>
-1.39341

>  <SCORE.INTRA.DIHEDRAL>
-0.994988

>  <SCORE.INTRA.DIHEDRAL.0>
2.17921

>  <SCORE.INTRA.POLAR>
0

>  <SCORE.INTRA.POLAR.0>
0

>  <SCORE.INTRA.REPUL>
0

>  <SCORE.INTRA.REPUL.0>
0

>  <SCORE.INTRA.SOLV>
-0.0642665

>  <SCORE.INTRA.SOLV.lig_0>
-15.7169

>  <SCORE.INTRA.VDW>
-0.863782

>  <SCORE.INTRA.VDW.0>
0.6324

>  <SCORE.INTRA.norm>
-0.126674

>  <SCORE.RESTR>
0.469088

>  <SCORE.RESTR.CAVITY>
0.469088

>  <SCORE.RESTR.norm>
0.0426444

>  <SCORE.SYSTEM>
-19.0052

>  <SCORE.SYSTEM.CONST>
0

>  <SCORE.SYSTEM.DIHEDRAL>
4.26309

>  <SCORE.SYSTEM.POLAR>
-2.95667

>  <SCORE.SYSTEM.SOLV>
0.125574

>  <SCORE.SYSTEM.VDW>
-4.27747

>  <SCORE.SYSTEM.norm>
-1.72775

>  <SCORE.heavy>
11

>  <SCORE.norm>
-4.14076

$$$$
P54927225
 OpenBabel12072022113D
libRbt.so/2013.1/901 2013/11/27
 14 14  0  0  0  0  0  0  0  0999 V2000
    3.2013   13.3584    5.5602 C   0  0  0  0  0  0  0  0  0  0  0  0
    2.8132   13.6088    4.0999 C   0  0  1  0  0  0  0  0  0  0  0  0
    1.3923   14.1743    3.9733 C   0  0  0  0  0  0  0  0  0  0  0  0
    1.3090   15.6248    4.4405 C   0  0  0  0  0  0  0  0  0  0  0  0
    2.3558   16.4961    3.7542 C   0  0  0  0  0  0  0  0  0  0  0  0
    3.6979   15.9285    3.8579 N   0  0  0  0  0  0  0  0  0  0  0  0
    3.8249   14.5365    3.4157 C   0  0  0  0  0  0  0  0  0  0  0  0
    4.7593   16.8285    3.7930 C   0  0  0  0  0  0  0  0  0  0  0  0
    5.1473   17.5006    4.7484 O   0  0  0  0  0  0  0  0  0  0  0  0
    5.3737   16.9129    2.5488 N   0  0  0  0  0  0  0  0  0  0  0  0
    4.6516   17.5169    1.4825 N   0  0  0  0  0  0  0  0  0  0  0  0
    6.3689   17.1157    2.5819 H   0  0  0  0  0  0  0  0  0  0  0  0
    5.1276   18.4088    1.2822 H   0  0  0  0  0  0  0  0  0  0  0  0
    3.7530   17.8184    1.8708 H   0  0  0  0  0  0  0  0  0  0  0  0
  2  1  1  1  0  0  0
  2  3  1  0  0  0  0
  2  7  1  0  0  0  0
  3  4  1  0  0  0  0
  4  5  1  0  0  0  0
  5  6  1  0  0  0  0
  6  7  1  0  0  0  0
  6  8  1  0  0  0  0
  8  9  2  0  0  0  0
  8 10  1  0  0  0  0
 10 11  1  0  0  0  0
 10 12  1  0  0  0  0
 11 13  1  0  0  0  0
 11 14  1  0  0  0  0
M  END
>  <CHROM.0>
-57.63032854,-68.92517763,-64.98498630,-48.66516061,59.02612241,-63.53047781
-67.70689466,-61.53307089,-168.34941329

>  <CHROM.1>
81.06074261,69.93505694,110.67776925,3.53940021,15.72705879,3.77426740,-2.24089041
-0.25823639,-0.67977176

>  <Name>
P54927225

>  <RI>
3.51561e+07

>  <Rbt.Current_Directory>
/home/fstefaniak/projects/zuza/docking/adenine/4XNR

>  <Rbt.Executable>
rbdock ($Id: //depot/dev/client3/rdock/2013.1/src/exe/rbdock.cxx#4 $)

>  <Rbt.Library>
libRbt.so (2013.1, Build901 2013/11/27)

>  <Rbt.Parameter_File>
/home/fstefaniak/progs/rDock//data/scripts/dock_solv.prm

>  <Rbt.Receptor>
4xnr.prm

>  <SCORE>
-43.7653

>  <SCORE.INTER>
-22.6705

>  <SCORE.INTER.CONST>
1

>  <SCORE.INTER.POLAR>
-2.90155

>  <SCORE.INTER.ROT>
3

>  <SCORE.INTER.SOLV>
11.766

>  <SCORE.INTER.VDW>
-14.9638

>  <SCORE.INTER.norm>
-2.06096

>  <SCORE.INTRA>
-1.20947

>  <SCORE.INTRA.DIHEDRAL>
0.0357844

>  <SCORE.INTRA.DIHEDRAL.0>
2.17921

>  <SCORE.INTRA.POLAR>
0

>  <SCORE.INTRA.POLAR.0>
0

>  <SCORE.INTRA.REPUL>
0

>  <SCORE.INTRA.REPUL.0>
0

>  <SCORE.INTRA.SOLV>
0.26166

>  <SCORE.INTRA.SOLV.lig_0>
-15.7169

>  <SCORE.INTRA.VDW>
-1.3582

>  <SCORE.INTRA.VDW.0>
0.6324

>  <SCORE.INTRA.norm>
-0.109952

>  <SCORE.RESTR>
0

>  <SCORE.RESTR.CAVITY>
0

>  <SCORE.RESTR.norm>
0

>  <SCORE.SYSTEM>
-19.8853

>  <SCORE.SYSTEM.CONST>
0

>  <SCORE.SYSTEM.DIHEDRAL>
4.19069

>  <SCORE.SYSTEM.POLAR>
-2.9619

>  <SCORE.SYSTEM.SOLV>
0.0656237

>  <SCORE.SYSTEM.VDW>
-4.80267

>  <SCORE.SYSTEM.norm>
-1.80776

>  <SCORE.heavy>
11

>  <SCORE.norm>
-3.97867

$$$$
P54927225
 OpenBabel12072022113D
libRbt.so/2013.1/901 2013/11/27
 14 14  0  0  0  0  0  0  0  0999 V2000
    3.0402   13.0519    5.4529 C   0  0  0  0  0  0  0  0  0  0  0  0
    2.7311   13.3679    3.9865 C   0  0  1  0  0  0  0  0  0  0  0  0
    1.2851   13.8446    3.7953 C   0  0  0  0  0  0  0  0  0  0  0  0
    1.0695   15.2540    4.3398 C   0  0  0  0  0  0  0  0  0  0  0  0
    2.0947   16.2345    3.7799 C   0  0  0  0  0  0  0  0  0  0  0  0
    3.4639   15.7518    3.9427 N   0  0  0  0  0  0  0  0  0  0  0  0
    3.7173   14.4021    3.4295 C   0  0  0  0  0  0  0  0  0  0  0  0
    4.4612   16.7227    4.0044 C   0  0  0  0  0  0  0  0  0  0  0  0
    4.7611   17.3328    5.0304 O   0  0  0  0  0  0  0  0  0  0  0  0
    5.1192   16.9561    2.8022 N   0  0  0  0  0  0  0  0  0  0  0  0
    6.3657   16.3073    2.5815 N   0  0  0  0  0  0  0  0  0  0  0  0
    4.5082   17.0306    1.9937 H   0  0  0  0  0  0  0  0  0  0  0  0
    6.4613   15.6063    3.3310 H   0  0  0  0  0  0  0  0  0  0  0  0
    7.0954   16.9888    2.8102 H   0  0  0  0  0  0  0  0  0  0  0  0
  2  1  1  1  0  0  0
  2  3  1  0  0  0  0
  2  7  1  0  0  0  0
  3  4  1  0  0  0  0
  4  5  1  0  0  0  0
  5  6  1  0  0  0  0
  6  7  1  0  0  0  0
  6  8  1  0  0  0  0
  8  9  2  0  0  0  0
  8 10  1  0  0  0  0
 10 11  1  0  0  0  0
 10 12  1  0  0  0  0
 11 13  1  0  0  0  0
 11 14  1  0  0  0  0
M  END
>  <CHROM.0>
-57.26282669,-172.57238406,-74.14554343,-49.26112458,56.26131239,-176.54750894
-172.15769808,-61.95957592,-168.13772510

>  <CHROM.1>
83.00055617,-97.55759528,11.06227950,3.51853059,15.41132195,3.92156930,-2.45622173
0.23132458,-0.04683659

>  <Name>
P54927225

>  <RI>
3.51561e+07

>  <Rbt.Current_Directory>
/home/fstefaniak/projects/zuza/docking/adenine/4XNR

>  <Rbt.Executable>
rbdock ($Id: //depot/dev/client3/rdock/2013.1/src/exe/rbdock.cxx#4 $)

>  <Rbt.Library>
libRbt.so (2013.1, Build901 2013/11/27)

>  <Rbt.Parameter_File>
/home/fstefaniak/progs/rDock//data/scripts/dock_solv.prm

>  <Rbt.Receptor>
4xnr.prm

>  <SCORE>
-43.6605

>  <SCORE.INTER>
-23.3235

>  <SCORE.INTER.CONST>
1

>  <SCORE.INTER.POLAR>
-2.60849

>  <SCORE.INTER.ROT>
3

>  <SCORE.INTER.SOLV>
12.1182

>  <SCORE.INTER.VDW>
-16.4935

>  <SCORE.INTER.norm>
-2.12032

>  <SCORE.INTRA>
-1.34557

>  <SCORE.INTRA.DIHEDRAL>
0.202512

>  <SCORE.INTRA.DIHEDRAL.0>
2.17921

>  <SCORE.INTRA.POLAR>
0

>  <SCORE.INTRA.POLAR.0>
0

>  <SCORE.INTRA.REPUL>
0

>  <SCORE.INTRA.REPUL.0>
0

>  <SCORE.INTRA.SOLV>
0.139732

>  <SCORE.INTRA.SOLV.lig_0>
-15.7169

>  <SCORE.INTRA.VDW>
-1.51669

>  <SCORE.INTRA.VDW.0>
0.6324

>  <SCORE.INTRA.norm>
-0.122324

>  <SCORE.RESTR>
0

>  <SCORE.RESTR.CAVITY>
0

>  <SCORE.RESTR.norm>
0

>  <SCORE.SYSTEM>
-18.9914

>  <SCORE.SYSTEM.CONST>
0

>  <SCORE.SYSTEM.DIHEDRAL>
4.87812

>  <SCORE.SYSTEM.POLAR>
-2.93262

>  <SCORE.SYSTEM.SOLV>
-0.126231

>  <SCORE.SYSTEM.VDW>
-4.46947

>  <SCORE.SYSTEM.norm>
-1.72649

>  <SCORE.heavy>
11

>  <SCORE.norm>
-3.96913

$$$$
P55398921
 OpenBabel12072022113D
libRbt.so/2013.1/901 2013/11/27
 16 16  0  0  0  0  0  0  0  0999 V2000
    0.5498   16.8706    4.2265 C   0  0  0  0  0  0  0  0  0  0  0  0
    1.5976   15.9229    3.6455 C   0  0  2  0  0  0  0  0  0  0  0  0
    1.4381   14.5140    4.2313 C   0  0  0  0  0  0  0  0  0  0  0  0
    2.5108   13.5603    3.7113 C   0  0  0  0  0  0  0  0  0  0  0  0
    3.9166   14.1046    3.9495 C   0  0  0  0  0  0  0  0  0  0  0  0
    4.0838   15.5082    3.3534 C   0  0  1  0  0  0  0  0  0  0  0  0
    3.0125   16.4616    3.8958 C   0  0  0  0  0  0  0  0  0  0  0  0
    5.4103   16.0424    3.6277 N   0  0  0  0  0  0  0  0  0  0  0  0
    5.7353   17.3350    3.2923 C   0  0  0  0  0  0  0  0  0  0  0  0
    5.4033   18.3298    3.9265 O   0  0  0  0  0  0  0  0  0  0  0  0
    6.5015   17.3828    2.1339 N   0  0  0  0  0  0  0  0  0  0  0  0
    5.8758   17.7899    0.9279 N   0  0  0  0  0  0  0  0  0  0  0  0
    6.1812   15.3902    3.6116 H   0  0  0  0  0  0  0  0  0  0  0  0
    7.4735   17.6520    2.2595 H   0  0  0  0  0  0  0  0  0  0  0  0
    6.6239   17.8762    0.2253 H   0  0  0  0  0  0  0  0  0  0  0  0
    5.5762   18.7606    1.0626 H   0  0  0  0  0  0  0  0  0  0  0  0
  2  3  1  0  0  0  0
  2  7  1  0  0  0  0
  2  1  1  1  0  0  0
  3  4  1  0  0  0  0
  4  5  1  0  0  0  0
  5  6  1  0  0  0  0
  6  7  1  0  0  0  0
  6  8  1  1  0  0  0
  8  9  1  0  0  0  0
  8 13  1  0  0  0  0
  9 10  2  0  0  0  0
  9 11  1  0  0  0  0
 11 12  1  0  0  0  0
 11 14  1  0  0  0  0
 12 15  1  0  0  0  0
 12 16  1  0  0  0  0
M  END
>  <CHROM.0>
-55.04414387,-60.97042727,-74.19987045,-45.78731763,62.55100981,-175.69197090
-174.64341939,-62.19407052,-168.23797768

>  <CHROM.1>
-173.96399993,77.98249867,104.07279212,172.90383854,3.88550043,16.20190846
3.38347303,2.60597396,-0.30317193,3.03075118

>  <Name>
P55398921

>  <RI>
2.22087e+07

>  <Rbt.Current_Directory>
/home/fstefaniak/projects/zuza/docking/adenine/4XNR

>  <Rbt.Executable>
rbdock ($Id: //depot/dev/client3/rdock/2013.1/src/exe/rbdock.cxx#4 $)

>  <Rbt.Library>
libRbt.so (2013.1, Build901 2013/11/27)

>  <Rbt.Parameter_File>
/home/fstefaniak/progs/rDock//data/scripts/dock_solv.prm

>  <Rbt.Receptor>
4xnr.prm

>  <SCORE>
-51.9381

>  <SCORE.INTER>
-32.5481

>  <SCORE.INTER.CONST>
1

>  <SCORE.INTER.POLAR>
-3.90868

>  <SCORE.INTER.ROT>
4

>  <SCORE.INTER.SOLV>
13.6738

>  <SCORE.INTER.VDW>
-19.4944

>  <SCORE.INTER.norm>
-2.71234

>  <SCORE.INTRA>
-0.247714

>  <SCORE.INTRA.DIHEDRAL>
-0.72095

>  <SCORE.INTRA.DIHEDRAL.0>
2.47612

>  <SCORE.INTRA.POLAR>
0

>  <SCORE.INTRA.POLAR.0>
0

>  <SCORE.INTRA.REPUL>
0

>  <SCORE.INTRA.REPUL.0>
0

>  <SCORE.INTRA.SOLV>
0.25947

>  <SCORE.INTRA.SOLV.lig_0>
-16.4729

>  <SCORE.INTRA.VDW>
-0.0169741

>  <SCORE.INTRA.VDW.0>
-0.530937

>  <SCORE.INTRA.norm>
-0.0206428

>  <SCORE.RESTR>
0

>  <SCORE.RESTR.CAVITY>
0

>  <SCORE.RESTR.norm>
0

>  <SCORE.SYSTEM>
-19.1423

>  <SCORE.SYSTEM.CONST>
0

>  <SCORE.SYSTEM.DIHEDRAL>
4.93454

>  <SCORE.SYSTEM.POLAR>
-3.00843

>  <SCORE.SYSTEM.SOLV>
-0.0863712

>  <SCORE.SYSTEM.VDW>
-4.34947

>  <SCORE.SYSTEM.norm>
-1.59519

>  <SCORE.heavy>
12

>  <SCORE.norm>
-4.32818

$$$$
P55398921
 OpenBabel12072022113D
libRbt.so/2013.1/901 2013/11/27
 16 16  0  0  0  0  0  0  0  0999 V2000
    1.7420   11.9341    4.4078 C   0  0  0  0  0  0  0  0  0  0  0  0
    2.1391   13.3849    4.6736 C   0  0  2  0  0  0  0  0  0  0  0  0
    1.0543   14.3450    4.1683 C   0  0  0  0  0  0  0  0  0  0  0  0
    1.4530   15.8050    4.3685 C   0  0  0  0  0  0  0  0  0  0  0  0
    2.8068   16.1147    3.7357 C   0  0  0  0  0  0  0  0  0  0  0  0
    3.8969   15.1649    4.2487 C   0  0  1  0  0  0  0  0  0  0  0  0
    3.4939   13.7024    4.0266 C   0  0  0  0  0  0  0  0  0  0  0  0
    5.1747   15.4324    3.6039 N   0  0  0  0  0  0  0  0  0  0  0  0
    5.6628   16.7135    3.5059 C   0  0  0  0  0  0  0  0  0  0  0  0
    5.6730   17.5327    4.4173 O   0  0  0  0  0  0  0  0  0  0  0  0
    6.1564   16.9740    2.2333 N   0  0  0  0  0  0  0  0  0  0  0  0
    5.2691   17.5017    1.2607 N   0  0  0  0  0  0  0  0  0  0  0  0
    5.4523   14.8113    2.8575 H   0  0  0  0  0  0  0  0  0  0  0  0
    7.1220   17.2884    2.1912 H   0  0  0  0  0  0  0  0  0  0  0  0
    5.4660   18.5109    1.2025 H   0  0  0  0  0  0  0  0  0  0  0  0
    4.3304   17.4756    1.6709 H   0  0  0  0  0  0  0  0  0  0  0  0
  2  3  1  0  0  0  0
  2  7  1  0  0  0  0
  2  1  1  6  0  0  0
  3  4  1  0  0  0  0
  4  5  1  0  0  0  0
  5  6  1  0  0  0  0
  6  7  1  0  0  0  0
  6  8  1  6  0  0  0
  8  9  1  0  0  0  0
  8 13  1  0  0  0  0
  9 10  2  0  0  0  0
  9 11  1  0  0  0  0
 11 12  1  0  0  0  0
 11 14  1  0  0  0  0
 12 15  1  0  0  0  0
 12 16  1  0  0  0  0
M  END
>  <CHROM.0>
-53.68176847,-170.53748045,-65.27661575,-46.25267919,-174.69303219,-174.30899178
-65.22461282,-56.11105441,-167.03269471

>  <CHROM.1>
48.02393530,45.33618200,89.95669588,101.52621444,3.75002108,15.42375019,3.68622905
-2.35643808,0.20117228,-0.22162922

>  <Name>
P55398921

>  <RI>
2.22087e+07

>  <Rbt.Current_Directory>
/home/fstefaniak/projects/zuza/docking/adenine/4XNR

>  <Rbt.Executable>
rbdock ($Id: //depot/dev/client3/rdock/2013.1/src/exe/rbdock.cxx#4 $)

>  <Rbt.Library>
libRbt.so (2013.1, Build901 2013/11/27)

>  <Rbt.Parameter_File>
/home/fstefaniak/progs/rDock//data/scripts/dock_solv.prm

>  <Rbt.Receptor>
4xnr.prm

>  <SCORE>
-50.963

>  <SCORE.INTER>
-31.465

>  <SCORE.INTER.CONST>
1

>  <SCORE.INTER.POLAR>
-3.94926

>  <SCORE.INTER.ROT>
4

>  <SCORE.INTER.SOLV>
13.7766

>  <SCORE.INTER.VDW>
-18.6714

>  <SCORE.INTER.norm>
-2.62209

>  <SCORE.INTRA>
0.777295

>  <SCORE.INTRA.DIHEDRAL>
0.46153

>  <SCORE.INTRA.DIHEDRAL.0>
2.47612

>  <SCORE.INTRA.POLAR>
0

>  <SCORE.INTRA.POLAR.0>
0

>  <SCORE.INTRA.REPUL>
0

>  <SCORE.INTRA.REPUL.0>
0

>  <SCORE.INTRA.SOLV>
0.624618

>  <SCORE.INTRA.SOLV.lig_0>
-16.4729

>  <SCORE.INTRA.VDW>
0.234221

>  <SCORE.INTRA.VDW.0>
-0.530937

>  <SCORE.INTRA.norm>
0.0647746

>  <SCORE.RESTR>
0.00983651

>  <SCORE.RESTR.CAVITY>
0.00983651

>  <SCORE.RESTR.norm>
0.00081971

>  <SCORE.SYSTEM>
-20.2851

>  <SCORE.SYSTEM.CONST>
0

>  <SCORE.SYSTEM.DIHEDRAL>
4.93806

>  <SCORE.SYSTEM.POLAR>
-3.04629

>  <SCORE.SYSTEM.SOLV>
-0.0085908

>  <SCORE.SYSTEM.VDW>
-5.01221

>  <SCORE.SYSTEM.norm>
-1.69042

>  <SCORE.heavy>
12

>  <SCORE.norm>
-4.24691

$$$$
P55398921
 OpenBabel12072022113D
libRbt.so/2013.1/901 2013/11/27
 16 16  0  0  0  0  0  0  0  0999 V2000
    7.0730   18.1217    1.5265 C   0  0  0  0  0  0  0  0  0  0  0  0
    6.0877   18.1298    2.6937 C   0  0  2  0  0  0  0  0  0  0  0  0
    6.7170   18.7855    3.9297 C   0  0  0  0  0  0  0  0  0  0  0  0
    5.7734   18.7536    5.1293 C   0  0  0  0  0  0  0  0  0  0  0  0
    5.2940   17.3376    5.4358 C   0  0  0  0  0  0  0  0  0  0  0  0
    4.6520   16.6834    4.2055 C   0  0  1  0  0  0  0  0  0  0  0  0
    5.6146   16.7051    3.0124 C   0  0  0  0  0  0  0  0  0  0  0  0
    4.2426   15.3152    4.4898 N   0  0  0  0  0  0  0  0  0  0  0  0
    3.1828   14.7425    3.8283 C   0  0  0  0  0  0  0  0  0  0  0  0
    3.1905   14.4034    2.6506 O   0  0  0  0  0  0  0  0  0  0  0  0
    2.0852   14.5850    4.6658 N   0  0  0  0  0  0  0  0  0  0  0  0
    1.0878   15.5934    4.6671 N   0  0  0  0  0  0  0  0  0  0  0  0
    4.3942   14.9754    5.4286 H   0  0  0  0  0  0  0  0  0  0  0  0
    1.7702   13.6286    4.8040 H   0  0  0  0  0  0  0  0  0  0  0  0
    0.6561   15.5761    5.6020 H   0  0  0  0  0  0  0  0  0  0  0  0
    0.3312   15.2625    4.0602 H   0  0  0  0  0  0  0  0  0  0  0  0
  2  3  1  0  0  0  0
  2  7  1  0  0  0  0
  2  1  1  6  0  0  0
  3  4  1  0  0  0  0
  4  5  1  0  0  0  0
  5  6  1  0  0  0  0
  6  7  1  0  0  0  0
  6  8  1  1  0  0  0
  8  9  1  0  0  0  0
  8 13  1  0  0  0  0
  9 10  2  0  0  0  0
  9 11  1  0  0  0  0
 11 12  1  0  0  0  0
 11 14  1  0  0  0  0
 12 15  1  0  0  0  0
 12 16  1  0  0  0  0
M  END
>  <CHROM.0>
-55.85397500,62.99040507,-70.98168061,-46.81651500,-58.13147675,-59.76152817
-66.67037921,-58.06481898,-167.09499227

>  <CHROM.1>
151.15763707,71.39420227,95.00350374,-152.04929581,4.52413342,16.55199128
3.85648870,-0.16850799,-0.68354879,-2.09803182

>  <Name>
P55398921

>  <RI>
2.22087e+07

>  <Rbt.Current_Directory>
/home/fstefaniak/projects/zuza/docking/adenine/4XNR

>  <Rbt.Executable>
rbdock ($Id: //depot/dev/client3/rdock/2013.1/src/exe/rbdock.cxx#4 $)

>  <Rbt.Library>
libRbt.so (2013.1, Build901 2013/11/27)

>  <Rbt.Parameter_File>
/home/fstefaniak/progs/rDock//data/scripts/dock_solv.prm

>  <Rbt.Receptor>
4xnr.prm

>  <SCORE>
-48.8837

>  <SCORE.INTER>
-28.9906

>  <SCORE.INTER.CONST>
1

>  <SCORE.INTER.POLAR>
-3.47316

>  <SCORE.INTER.ROT>
4

>  <SCORE.INTER.SOLV>
14.1288

>  <SCORE.INTER.VDW>
-18.7262

>  <SCORE.INTER.norm>
-2.41588

>  <SCORE.INTRA>
-0.0657379

>  <SCORE.INTRA.DIHEDRAL>
0.747705

>  <SCORE.INTRA.DIHEDRAL.0>
2.47612

>  <SCORE.INTRA.POLAR>
0

>  <SCORE.INTRA.POLAR.0>
0

>  <SCORE.INTRA.REPUL>
0

>  <SCORE.INTRA.REPUL.0>
0

>  <SCORE.INTRA.SOLV>
0.0570013

>  <SCORE.INTRA.SOLV.lig_0>
-16.4729

>  <SCORE.INTRA.VDW>
-0.468091

>  <SCORE.INTRA.VDW.0>
-0.530937

>  <SCORE.INTRA.norm>
-0.00547816

>  <SCORE.RESTR>
0

>  <SCORE.RESTR.CAVITY>
0

>  <SCORE.RESTR.norm>
0

>  <SCORE.SYSTEM>
-19.8273

>  <SCORE.SYSTEM.CONST>
0

>  <SCORE.SYSTEM.DIHEDRAL>
4.55958

>  <SCORE.SYSTEM.POLAR>
-3.00412

>  <SCORE.SYSTEM.SOLV>
0.354095

>  <SCORE.SYSTEM.VDW>
-4.84239

>  <SCORE.SYSTEM.norm>
-1.65228

>  <SCORE.heavy>
12

>  <SCORE.norm>
-4.07364

$$$$
P55709751
 OpenBabel12072022113D
libRbt.so/2013.1/901 2013/11/27
 14 14  0  0  0  0  0  0  0  0999 V2000
    1.1806   14.5084    3.7880 C   0  0  0  0  0  0  0  0  0  0  0  0
    1.6220   15.9444    3.5156 C   0  0  0  0  0  0  0  0  0  0  0  0
    0.5492   16.9329    3.9616 C   0  0  0  0  0  0  0  0  0  0  0  0
    2.8777   16.2277    4.1921 N   0  0  0  0  0  0  0  0  0  0  0  0
    3.9004   16.9125    3.5847 C   0  0  0  0  0  0  0  0  0  0  0  0
    3.8237   17.3853    2.4578 O   0  0  0  0  0  0  0  0  0  0  0  0
    5.1753   17.0722    4.3388 C   0  0  2  0  0  0  0  0  0  0  0  0
    5.7350   18.4123    4.7447 C   0  0  0  0  0  0  0  0  0  0  0  0
    6.4681   17.5677    3.7269 C   0  0  2  0  0  0  0  0  0  0  0  0
    6.5592   17.9977    2.3211 C   0  0  0  0  0  0  0  0  0  0  0  0
    6.1287   17.3580    1.3749 O   0  0  0  0  0  0  0  0  0  0  0  0
    7.1835   19.1778    2.1706 O   0  0  0  0  0  0  0  0  0  0  0  0
    2.9960   15.8860    5.1414 H   0  0  0  0  0  0  0  0  0  0  0  0
    7.1690   19.3436    1.2054 H   0  0  0  0  0  0  0  0  0  0  0  0
  1  2  1  0  0  0  0
  2  3  1  0  0  0  0
  2  4  1  0  0  0  0
  4  5  1  0  0  0  0
  4 13  1  0  0  0  0
  5  6  2  0  0  0  0
  7  8  1  0  0  0  0
  7  9  1  0  0  0  0
  7  5  1  6  0  0  0
  8  9  1  0  0  0  0
  9 10  1  6  0  0  0
 10 11  2  0  0  0  0
 10 12  1  0  0  0  0
 12 14  1  0  0  0  0
M  END
>  <CHROM.0>
-52.91539065,-65.46223364,-74.67285431,-52.32692254,-62.71863451,-60.79988540
-172.46140765,-57.01042929,-168.28433153

>  <CHROM.1>
136.74961924,-117.77546224,-48.59133299,-179.63067907,4.26118712,17.14031742
3.30579042,2.97589707,0.45652380,1.46956281

>  <Name>
P55709751

>  <RI>
3.4169e+07

>  <Rbt.Current_Directory>
/home/fstefaniak/projects/zuza/docking/adenine/4XNR

>  <Rbt.Executable>
rbdock ($Id: //depot/dev/client3/rdock/2013.1/src/exe/rbdock.cxx#4 $)

>  <Rbt.Library>
libRbt.so (2013.1, Build901 2013/11/27)

>  <Rbt.Parameter_File>
/home/fstefaniak/progs/rDock//data/scripts/dock_solv.prm

>  <Rbt.Receptor>
4xnr.prm

>  <SCORE>
-53.1921

>  <SCORE.INTER>
-33.4523

>  <SCORE.INTER.CONST>
1

>  <SCORE.INTER.POLAR>
-3.83825

>  <SCORE.INTER.ROT>
3

>  <SCORE.INTER.SOLV>
11.9304

>  <SCORE.INTER.VDW>
-19.0842

>  <SCORE.INTER.norm>
-2.78769

>  <SCORE.INTRA>
0.421551

>  <SCORE.INTRA.DIHEDRAL>
0.567145

>  <SCORE.INTRA.DIHEDRAL.0>
5.04993

>  <SCORE.INTRA.POLAR>
0.0315301

>  <SCORE.INTRA.POLAR.0>
-0.0315301

>  <SCORE.INTRA.REPUL>
0

>  <SCORE.INTRA.REPUL.0>
0

>  <SCORE.INTRA.SOLV>
-0.899482

>  <SCORE.INTRA.SOLV.lig_0>
-12.8999

>  <SCORE.INTRA.VDW>
0.480517

>  <SCORE.INTRA.VDW.0>
-1.33916

>  <SCORE.INTRA.norm>
0.0351293

>  <SCORE.RESTR>
0

>  <SCORE.RESTR.CAVITY>
0

>  <SCORE.RESTR.norm>
0

>  <SCORE.SYSTEM>
-20.1614

>  <SCORE.SYSTEM.CONST>
0

>  <SCORE.SYSTEM.DIHEDRAL>
4.65995

>  <SCORE.SYSTEM.POLAR>
-2.91948

>  <SCORE.SYSTEM.SOLV>
0.220158

>  <SCORE.SYSTEM.VDW>
-5.33603

>  <SCORE.SYSTEM.norm>
-1.68011

>  <SCORE.heavy>
12

>  <SCORE.norm>
-4.43268

$$$$
P55709751
 OpenBabel12072022113D
libRbt.so/2013.1/901 2013/11/27
 14 14  0  0  0  0  0  0  0  0999 V2000
    1.0607   14.5713    4.0678 C   0  0  0  0  0  0  0  0  0  0  0  0
    1.6685   15.8559    3.5097 C   0  0  0  0  0  0  0  0  0  0  0  0
    0.6979   17.0229    3.6616 C   0  0  0  0  0  0  0  0  0  0  0  0
    2.9240   16.1572    4.1788 N   0  0  0  0  0  0  0  0  0  0  0  0
    3.9431   16.8344    3.5568 C   0  0  0  0  0  0  0  0  0  0  0  0
    3.8629   17.2851    2.4211 O   0  0  0  0  0  0  0  0  0  0  0  0
    5.2184   17.0137    4.3057 C   0  0  2  0  0  0  0  0  0  0  0  0
    5.7280   18.3571    4.7635 C   0  0  0  0  0  0  0  0  0  0  0  0
    6.4837   17.5867    3.7042 C   0  0  2  0  0  0  0  0  0  0  0  0
    6.5427   18.0791    2.3173 C   0  0  0  0  0  0  0  0  0  0  0  0
    6.1268   17.4637    1.3487 O   0  0  0  0  0  0  0  0  0  0  0  0
    7.1192   19.2880    2.2115 O   0  0  0  0  0  0  0  0  0  0  0  0
    3.0451   15.8343    5.1343 H   0  0  0  0  0  0  0  0  0  0  0  0
    7.0906   19.4924    1.2541 H   0  0  0  0  0  0  0  0  0  0  0  0
  1  2  1  0  0  0  0
  2  3  1  0  0  0  0
  2  4  1  0  0  0  0
  4  5  1  0  0  0  0
  4 13  1  0  0  0  0
  5  6  2  0  0  0  0
  7  8  1  0  0  0  0
  7  9  1  0  0  0  0
  7  5  1  6  0  0  0
  8  9  1  0  0  0  0
  9 10  1  6  0  0  0
 10 11  2  0  0  0  0
 10 12  1  0  0  0  0
 12 14  1  0  0  0  0
M  END
>  <CHROM.0>
-63.72025576,-66.92447757,-65.79245980,-48.33331548,-171.99036266,-68.25055454
-67.38262856,-55.96498364,-167.98824433

>  <CHROM.1>
150.54010245,-113.64587706,-48.49852700,-179.82999749,4.27408613,17.14532607
3.29574964,-2.87917589,-0.43191218,-1.45273643

>  <Name>
P55709751

>  <RI>
3.4169e+07

>  <Rbt.Current_Directory>
/home/fstefaniak/projects/zuza/docking/adenine/4XNR

>  <Rbt.Executable>
rbdock ($Id: //depot/dev/client3/rdock/2013.1/src/exe/rbdock.cxx#4 $)

>  <Rbt.Library>
libRbt.so (2013.1, Build901 2013/11/27)

>  <Rbt.Parameter_File>
/home/fstefaniak/progs/rDock//data/scripts/dock_solv.prm

>  <Rbt.Receptor>
4xnr.prm

>  <SCORE>
-53.1811

>  <SCORE.INTER>
-33.1172

>  <SCORE.INTER.CONST>
1

>  <SCORE.INTER.POLAR>
-3.83572

>  <SCORE.INTER.ROT>
3

>  <SCORE.INTER.SOLV>
11.9548

>  <SCORE.INTER.VDW>
-18.8773

>  <SCORE.INTER.norm>
-2.75977

>  <SCORE.INTRA>
0.722429

>  <SCORE.INTRA.DIHEDRAL>
0.443076

>  <SCORE.INTRA.DIHEDRAL.0>
5.04993

>  <SCORE.INTRA.POLAR>
0.0315301

>  <SCORE.INTRA.POLAR.0>
-0.0315301

>  <SCORE.INTRA.REPUL>
0

>  <SCORE.INTRA.REPUL.0>
0

>  <SCORE.INTRA.SOLV>
-0.874875

>  <SCORE.INTRA.SOLV.lig_0>
-12.8999

>  <SCORE.INTRA.VDW>
0.831125

>  <SCORE.INTRA.VDW.0>
-1.33916

>  <SCORE.INTRA.norm>
0.0602024

>  <SCORE.RESTR>
0

>  <SCORE.RESTR.CAVITY>
0

>  <SCORE.RESTR.norm>
0

>  <SCORE.SYSTEM>
-20.7863

>  <SCORE.SYSTEM.CONST>
0

>  <SCORE.SYSTEM.DIHEDRAL>
4.76134

>  <SCORE.SYSTEM.POLAR>
-2.94186

>  <SCORE.SYSTEM.SOLV>
0.0860073

>  <SCORE.SYSTEM.VDW>
-5.66715

>  <SCORE.SYSTEM.norm>
-1.7322

>  <SCORE.heavy>
12

>  <SCORE.norm>
-4.43176

$$$$
P55709751
 OpenBabel12072022113D
libRbt.so/2013.1/901 2013/11/27
 14 14  0  0  0  0  0  0  0  0999 V2000
    1.5514   14.4887    3.9741 C   0  0  0  0  0  0  0  0  0  0  0  0
    1.8877   15.9036    3.5092 C   0  0  0  0  0  0  0  0  0  0  0  0
    0.7394   16.8599    3.8158 C   0  0  0  0  0  0  0  0  0  0  0  0
    3.1113   16.3697    4.1418 N   0  0  0  0  0  0  0  0  0  0  0  0
    4.2907   16.4997    3.4519 C   0  0  0  0  0  0  0  0  0  0  0  0
    4.3992   16.2910    2.2502 O   0  0  0  0  0  0  0  0  0  0  0  0
    5.5038   16.9027    4.2170 C   0  0  2  0  0  0  0  0  0  0  0  0
    5.7791   18.3222    4.6450 C   0  0  0  0  0  0  0  0  0  0  0  0
    6.6722   17.6583    3.6212 C   0  0  2  0  0  0  0  0  0  0  0  0
    6.6803   18.1185    2.2220 C   0  0  0  0  0  0  0  0  0  0  0  0
    6.2863   17.4558    1.2757 O   0  0  0  0  0  0  0  0  0  0  0  0
    7.1831   19.3559    2.0773 O   0  0  0  0  0  0  0  0  0  0  0  0
    3.0830   16.5867    5.1338 H   0  0  0  0  0  0  0  0  0  0  0  0
    7.1752   19.5143    1.1108 H   0  0  0  0  0  0  0  0  0  0  0  0
  1  2  1  0  0  0  0
  2  3  1  0  0  0  0
  2  4  1  0  0  0  0
  4  5  1  0  0  0  0
  4 13  1  0  0  0  0
  5  6  2  0  0  0  0
  7  8  1  0  0  0  0
  7  9  1  0  0  0  0
  7  5  1  6  0  0  0
  8  9  1  0  0  0  0
  9 10  1  6  0  0  0
 10 11  2  0  0  0  0
 10 12  1  0  0  0  0
 12 14  1  0  0  0  0
M  END
>  <CHROM.0>
-62.42690685,-64.17825099,-66.58740779,-45.81436817,-61.04323078,-64.31252211
-69.41790035,-56.45013041,-168.37161108

>  <CHROM.1>
107.87625092,-78.04257734,-42.17857806,177.02958871,4.49880114,17.03544844
3.22500678,3.01323340,0.50857865,1.34657079

>  <Name>
P55709751

>  <RI>
3.4169e+07

>  <Rbt.Current_Directory>
/home/fstefaniak/projects/zuza/docking/adenine/4XNR

>  <Rbt.Executable>
rbdock ($Id: //depot/dev/client3/rdock/2013.1/src/exe/rbdock.cxx#4 $)

>  <Rbt.Library>
libRbt.so (2013.1, Build901 2013/11/27)

>  <Rbt.Parameter_File>
/home/fstefaniak/progs/rDock//data/scripts/dock_solv.prm

>  <Rbt.Receptor>
4xnr.prm

>  <SCORE>
-53.1254

>  <SCORE.INTER>
-32.4465

>  <SCORE.INTER.CONST>
1

>  <SCORE.INTER.POLAR>
-3.6757

>  <SCORE.INTER.ROT>
3

>  <SCORE.INTER.SOLV>
12.369

>  <SCORE.INTER.VDW>
-19.1017

>  <SCORE.INTER.norm>
-2.70387

>  <SCORE.INTRA>
0.222653

>  <SCORE.INTRA.DIHEDRAL>
-0.270043

>  <SCORE.INTRA.DIHEDRAL.0>
5.04993

>  <SCORE.INTRA.POLAR>
0.0315301

>  <SCORE.INTRA.POLAR.0>
-0.0315301

>  <SCORE.INTRA.REPUL>
0

>  <SCORE.INTRA.REPUL.0>
0

>  <SCORE.INTRA.SOLV>
-0.893111

>  <SCORE.INTRA.SOLV.lig_0>
-12.8999

>  <SCORE.INTRA.VDW>
0.697028

>  <SCORE.INTRA.VDW.0>
-1.33916

>  <SCORE.INTRA.norm>
0.0185544

>  <SCORE.RESTR>
0

>  <SCORE.RESTR.CAVITY>
0

>  <SCORE.RESTR.norm>
0

>  <SCORE.SYSTEM>
-20.9015

>  <SCORE.SYSTEM.CONST>
0

>  <SCORE.SYSTEM.DIHEDRAL>
4.50778

>  <SCORE.SYSTEM.POLAR>
-2.98448

>  <SCORE.SYSTEM.SOLV>
0.27054

>  <SCORE.SYSTEM.VDW>
-5.57886

>  <SCORE.SYSTEM.norm>
-1.74179

>  <SCORE.heavy>
12

>  <SCORE.norm>
-4.42711

$$$$
P56031139
 OpenBabel12072022113D
libRbt.so/2013.1/901 2013/11/27
 14 14  0  0  0  0  0  0  0  0999 V2000
    4.4306   15.9356    2.9556 C   0  0  0  0  0  0  0  0  0  0  0  0
    5.2926   17.1134    3.1963 C   0  0  0  0  0  0  0  0  0  0  0  0
    6.0982   17.8086    2.2664 C   0  0  0  0  0  0  0  0  0  0  0  0
    6.7426   18.8434    2.8120 N   0  0  0  0  0  0  0  0  0  0  0  0
    6.3615   18.8045    4.1081 N   0  0  0  0  0  0  0  0  0  0  0  0
    5.4923   17.7881    4.3823 C   0  0  0  0  0  0  0  0  0  0  0  0
    6.8646   19.7969    5.0389 C   0  0  0  0  0  0  0  0  0  0  0  0
    7.5421   19.1161    6.2132 C   0  0  0  0  0  0  0  0  0  0  0  0
    8.8441   19.0876    6.2355 N   0  0  0  0  0  0  0  0  0  0  0  0
    9.3041   18.3879    7.3634 O   0  0  0  0  0  0  0  0  0  0  0  0
    6.7494   18.5441    7.1845 N   0  0  0  0  0  0  0  0  0  0  0  0
    9.0760   17.4661    7.1406 H   0  0  0  0  0  0  0  0  0  0  0  0
    6.8438   17.5288    7.2451 H   0  0  0  0  0  0  0  0  0  0  0  0
    6.8818   19.0088    8.0782 H   0  0  0  0  0  0  0  0  0  0  0  0
  1  2  1  0  0  0  0
  2  3  1  0  0  0  0
  2  6  2  0  0  0  0
  3  4  2  0  0  0  0
  4  5  1  0  0  0  0
  5  6  1  0  0  0  0
  5  7  1  0  0  0  0
  7  8  1  0  0  0  0
  8  9  2  0  0  0  0
  8 11  1  0  0  0  0
  9 10  1  0  0  0  0
 10 12  1  0  0  0  0
 11 13  1  0  0  0  0
 11 14  1  0  0  0  0
M  END
>  <CHROM.0>
-50.87803681,-172.52439357,-69.07785424,-47.64831994,-173.78996748,-60.79646664
-67.55259095,-175.56189487,-167.50837274

>  <CHROM.1>
-124.21287543,102.60725101,115.15676039,71.44387205,6.75713092,18.28422872
4.80014359,2.53551118,-0.78520553,-1.16311706

>  <Name>
P56031139

>  <RI>
3.51561e+07

>  <Rbt.Current_Directory>
/home/fstefaniak/projects/zuza/docking/adenine/4XNR

>  <Rbt.Executable>
rbdock ($Id: //depot/dev/client3/rdock/2013.1/src/exe/rbdock.cxx#4 $)

>  <Rbt.Library>
libRbt.so (2013.1, Build901 2013/11/27)

>  <Rbt.Parameter_File>
/home/fstefaniak/progs/rDock//data/scripts/dock_solv.prm

>  <Rbt.Receptor>
4xnr.prm

>  <SCORE>
-57.072

>  <SCORE.INTER>
-36.6946

>  <SCORE.INTER.CONST>
1

>  <SCORE.INTER.POLAR>
-5.22694

>  <SCORE.INTER.ROT>
3

>  <SCORE.INTER.SOLV>
12.4761

>  <SCORE.INTER.VDW>
-16.7986

>  <SCORE.INTER.norm>
-3.33587

>  <SCORE.INTRA>
0.129189

>  <SCORE.INTRA.DIHEDRAL>
-1.81786

>  <SCORE.INTRA.DIHEDRAL.0>
6.22911

>  <SCORE.INTRA.POLAR>
0.281449

>  <SCORE.INTRA.POLAR.0>
-0.281449

>  <SCORE.INTRA.REPUL>
0

>  <SCORE.INTRA.REPUL.0>
0

>  <SCORE.INTRA.SOLV>
-0.0988375

>  <SCORE.INTRA.SOLV.lig_0>
-10.5997

>  <SCORE.INTRA.VDW>
0.130612

>  <SCORE.INTRA.VDW.0>
-0.93

>  <SCORE.INTRA.norm>
0.0117444

>  <SCORE.RESTR>
0

>  <SCORE.RESTR.CAVITY>
0

>  <SCORE.RESTR.norm>
0

>  <SCORE.SYSTEM>
-20.5065

>  <SCORE.SYSTEM.CONST>
0

>  <SCORE.SYSTEM.DIHEDRAL>
5.0608

>  <SCORE.SYSTEM.POLAR>
-3.03444

>  <SCORE.SYSTEM.SOLV>
-0.0456028

>  <SCORE.SYSTEM.VDW>
-5.22795

>  <SCORE.SYSTEM.norm>
-1.86423

>  <SCORE.heavy>
11

>  <SCORE.norm>
-5.18836

$$$$
P56031139
 OpenBabel12072022113D
libRbt.so/2013.1/901 2013/11/27
 14 14  0  0  0  0  0  0  0  0999 V2000
    6.9197   19.2072    5.0068 C   0  0  0  0  0  0  0  0  0  0  0  0
    6.0875   18.2514    4.2438 C   0  0  0  0  0  0  0  0  0  0  0  0
    6.2374   17.8457    2.8985 C   0  0  0  0  0  0  0  0  0  0  0  0
    5.3194   16.9517    2.5223 N   0  0  0  0  0  0  0  0  0  0  0  0
    4.5616   16.7924    3.6300 N   0  0  0  0  0  0  0  0  0  0  0  0
    4.9865   17.5479    4.6848 C   0  0  0  0  0  0  0  0  0  0  0  0
    3.4387   15.8743    3.6110 C   0  0  0  0  0  0  0  0  0  0  0  0
    2.1329   16.6460    3.5792 C   0  0  0  0  0  0  0  0  0  0  0  0
    1.2286   16.3548    4.4703 N   0  0  0  0  0  0  0  0  0  0  0  0
    0.0732   17.1291    4.2734 O   0  0  0  0  0  0  0  0  0  0  0  0
    1.9596   17.5989    2.5990 N   0  0  0  0  0  0  0  0  0  0  0  0
   -0.1278   17.4324    5.1784 H   0  0  0  0  0  0  0  0  0  0  0  0
    0.9897   17.7033    2.2959 H   0  0  0  0  0  0  0  0  0  0  0  0
    2.3868   18.4794    2.8721 H   0  0  0  0  0  0  0  0  0  0  0  0
  1  2  1  0  0  0  0
  2  3  1  0  0  0  0
  2  6  2  0  0  0  0
  3  4  2  0  0  0  0
  4  5  1  0  0  0  0
  5  6  1  0  0  0  0
  5  7  1  0  0  0  0
  7  8  1  0  0  0  0
  8  9  2  0  0  0  0
  8 11  1  0  0  0  0
  9 10  1  0  0  0  0
 10 12  1  0  0  0  0
 11 13  1  0  0  0  0
 11 14  1  0  0  0  0
M  END
>  <CHROM.0>
-54.74576682,60.95682496,-58.44519241,-48.31829558,-55.51888518,-61.92049726
-67.10874042,-174.98389028,-167.97229156

>  <CHROM.1>
-106.69690014,-127.81429056,148.17021081,-133.86719423,3.79207077,17.30345177
3.77894771,0.16090452,0.19744029,0.97345631

>  <Name>
P56031139

>  <RI>
3.51561e+07

>  <Rbt.Current_Directory>
/home/fstefaniak/projects/zuza/docking/adenine/4XNR

>  <Rbt.Executable>
rbdock ($Id: //depot/dev/client3/rdock/2013.1/src/exe/rbdock.cxx#4 $)

>  <Rbt.Library>
libRbt.so (2013.1, Build901 2013/11/27)

>  <Rbt.Parameter_File>
/home/fstefaniak/progs/rDock//data/scripts/dock_solv.prm

>  <Rbt.Receptor>
4xnr.prm

>  <SCORE>
-56.4359

>  <SCORE.INTER>
-36.9535

>  <SCORE.INTER.CONST>
1

>  <SCORE.INTER.POLAR>
-4.4666

>  <SCORE.INTER.ROT>
3

>  <SCORE.INTER.SOLV>
9.83514

>  <SCORE.INTER.VDW>
-18.6254

>  <SCORE.INTER.norm>
-3.35941

>  <SCORE.INTRA>
0.235735

>  <SCORE.INTRA.DIHEDRAL>
-1.11028

>  <SCORE.INTRA.DIHEDRAL.0>
6.22911

>  <SCORE.INTRA.POLAR>
0.281449

>  <SCORE.INTRA.POLAR.0>
-0.281449

>  <SCORE.INTRA.REPUL>
0

>  <SCORE.INTRA.REPUL.0>
0

>  <SCORE.INTRA.SOLV>
0.0593669

>  <SCORE.INTRA.SOLV.lig_0>
-10.5997

>  <SCORE.INTRA.VDW>
-0.195737

>  <SCORE.INTRA.VDW.0>
-0.93

>  <SCORE.INTRA.norm>
0.0214305

>  <SCORE.RESTR>
0

>  <SCORE.RESTR.CAVITY>
0

>  <SCORE.RESTR.norm>
0

>  <SCORE.SYSTEM>
-19.7181

>  <SCORE.SYSTEM.CONST>
0

>  <SCORE.SYSTEM.DIHEDRAL>
3.9991

>  <SCORE.SYSTEM.POLAR>
-3.01021

>  <SCORE.SYSTEM.SOLV>
0.241424

>  <SCORE.SYSTEM.VDW>
-4.52487

>  <SCORE.SYSTEM.norm>
-1.79256

>  <SCORE.heavy>
11

>  <SCORE.norm>
-5.13054

$$$$
P56031139
 OpenBabel12072022113D
libRbt.so/2013.1/901 2013/11/27
 14 14  0  0  0  0  0  0  0  0999 V2000
    6.9944   19.1864    5.0043 C   0  0  0  0  0  0  0  0  0  0  0  0
    6.1479   18.2511    4.2316 C   0  0  0  0  0  0  0  0  0  0  0  0
    6.2788   17.8741    2.8759 C   0  0  0  0  0  0  0  0  0  0  0  0
    5.3516   16.9926    2.4923 N   0  0  0  0  0  0  0  0  0  0  0  0
    4.6073   16.8128    3.6060 N   0  0  0  0  0  0  0  0  0  0  0  0
    5.0492   17.5433    4.6713 C   0  0  0  0  0  0  0  0  0  0  0  0
    3.4798   15.9004    3.5815 C   0  0  0  0  0  0  0  0  0  0  0  0
    2.1781   16.6788    3.5469 C   0  0  0  0  0  0  0  0  0  0  0  0
    1.2715   16.3942    4.4377 N   0  0  0  0  0  0  0  0  0  0  0  0
    0.1202   17.1740    4.2380 O   0  0  0  0  0  0  0  0  0  0  0  0
    2.0106   17.6305    2.5644 N   0  0  0  0  0  0  0  0  0  0  0  0
   -0.1323   17.4053    5.1512 H   0  0  0  0  0  0  0  0  0  0  0  0
    1.0543   17.6903    2.2105 H   0  0  0  0  0  0  0  0  0  0  0  0
    2.3791   18.5283    2.8652 H   0  0  0  0  0  0  0  0  0  0  0  0
  1  2  1  0  0  0  0
  2  3  1  0  0  0  0
  2  6  2  0  0  0  0
  3  4  2  0  0  0  0
  4  5  1  0  0  0  0
  5  6  1  0  0  0  0
  5  7  1  0  0  0  0
  7  8  1  0  0  0  0
  8  9  2  0  0  0  0
  8 11  1  0  0  0  0
  9 10  1  0  0  0  0
 10 12  1  0  0  0  0
 11 13  1  0  0  0  0
 11 14  1  0  0  0  0
M  END
>  <CHROM.0>
-58.69766898,62.61517385,-72.30740322,-46.62064191,-59.93081111,-63.82009080
-170.88255337,-61.90360806,-167.58213580

>  <CHROM.1>
-105.23342380,-127.54972704,143.82677841,-139.38474481,3.84093999,17.32507503
3.75404597,0.15518586,0.19436903,1.00678028

>  <Name>
P56031139

>  <RI>
3.51561e+07

>  <Rbt.Current_Directory>
/home/fstefaniak/projects/zuza/docking/adenine/4XNR

>  <Rbt.Executable>
rbdock ($Id: //depot/dev/client3/rdock/2013.1/src/exe/rbdock.cxx#4 $)

>  <Rbt.Library>
libRbt.so (2013.1, Build901 2013/11/27)

>  <Rbt.Parameter_File>
/home/fstefaniak/progs/rDock//data/scripts/dock_solv.prm

>  <Rbt.Receptor>
4xnr.prm

>  <SCORE>
-56.1268

>  <SCORE.INTER>
-37.0371

>  <SCORE.INTER.CONST>
1

>  <SCORE.INTER.POLAR>
-4.5195

>  <SCORE.INTER.ROT>
3

>  <SCORE.INTER.SOLV>
9.80489

>  <SCORE.INTER.VDW>
-18.4947

>  <SCORE.INTER.norm>
-3.36701

>  <SCORE.INTRA>
0.324913

>  <SCORE.INTRA.DIHEDRAL>
-0.921122

>  <SCORE.INTRA.DIHEDRAL.0>
6.22911

>  <SCORE.INTRA.POLAR>
0.281449

>  <SCORE.INTRA.POLAR.0>
-0.281449

>  <SCORE.INTRA.REPUL>
0

>  <SCORE.INTRA.REPUL.0>
0

>  <SCORE.INTRA.SOLV>
0.0501448

>  <SCORE.INTRA.SOLV.lig_0>
-10.5997

>  <SCORE.INTRA.VDW>
-0.196525

>  <SCORE.INTRA.VDW.0>
-0.93

>  <SCORE.INTRA.norm>
0.0295375

>  <SCORE.RESTR>
0

>  <SCORE.RESTR.CAVITY>
0

>  <SCORE.RESTR.norm>
0

>  <SCORE.SYSTEM>
-19.4147

>  <SCORE.SYSTEM.CONST>
0

>  <SCORE.SYSTEM.DIHEDRAL>
4.8039

>  <SCORE.SYSTEM.POLAR>
-2.97242

>  <SCORE.SYSTEM.SOLV>
0.289052

>  <SCORE.SYSTEM.VDW>
-4.73269

>  <SCORE.SYSTEM.norm>
-1.76497

>  <SCORE.heavy>
11

>  <SCORE.norm>
-5.10244

$$$$
P56076031
 OpenBabel12072022113D
libRbt.so/2013.1/901 2013/11/27
 15 15  0  0  0  0  0  0  0  0999 V2000
    5.3617   17.9628    5.3551 C   0  0  0  0  0  0  0  0  0  0  0  0
    6.4292   18.5935    5.9990 C   0  0  0  0  0  0  0  0  0  0  0  0
    7.6283   18.7705    5.3164 C   0  0  0  0  0  0  0  0  0  0  0  0
    7.7794   18.3231    4.0082 C   0  0  0  0  0  0  0  0  0  0  0  0
    6.7136   17.6929    3.3616 C   0  0  0  0  0  0  0  0  0  0  0  0
    5.4944   17.5218    4.0309 C   0  0  0  0  0  0  0  0  0  0  0  0
    4.3283   16.8566    3.3877 C   0  0  0  0  0  0  0  0  0  0  0  0
    4.3886   16.4752    2.2248 O   0  0  0  0  0  0  0  0  0  0  0  0
    3.2151   16.6659    4.1751 N   0  0  0  0  0  0  0  0  0  0  0  0
    2.0732   15.9435    3.6430 C   0  0  0  0  0  0  0  0  0  0  0  0
    0.8043   16.4430    4.1921 C   0  0  0  0  0  0  0  0  0  0  0  0
   -0.1803   16.8516    4.6529 N   0  0  0  0  0  0  0  0  0  0  0  0
    8.6972   19.3786    5.9035 O   0  0  0  0  0  0  0  0  0  0  0  0
    3.2883   16.7804    5.1782 H   0  0  0  0  0  0  0  0  0  0  0  0
    8.4543   19.6353    6.8085 H   0  0  0  0  0  0  0  0  0  0  0  0
  1  2  2  0  0  0  0
  1  6  1  0  0  0  0
  2  3  1  0  0  0  0
  3  4  2  0  0  0  0
  3 13  1  0  0  0  0
  4  5  1  0  0  0  0
  5  6  2  0  0  0  0
  6  7  1  0  0  0  0
  7  8  2  0  0  0  0
  7  9  1  0  0  0  0
  9 10  1  0  0  0  0
  9 14  1  0  0  0  0
 10 11  1  0  0  0  0
 11 12  3  0  0  0  0
 13 15  1  0  0  0  0
M  END
>  <CHROM.0>
-59.00860606,-61.28789670,-62.98970873,-46.60546994,-175.38444668,-57.91976717
-67.44990232,-57.27033328,-168.18622746

>  <CHROM.1>
-0.19764974,178.72247287,-147.49487162,4.84883372,17.50610739,4.33637048
0.30995454,0.23412086,1.10971831

>  <Name>
P56076031

>  <RI>
3.4169e+07

>  <Rbt.Current_Directory>
/home/fstefaniak/projects/zuza/docking/adenine/4XNR

>  <Rbt.Executable>
rbdock ($Id: //depot/dev/client3/rdock/2013.1/src/exe/rbdock.cxx#4 $)

>  <Rbt.Library>
libRbt.so (2013.1, Build901 2013/11/27)

>  <Rbt.Parameter_File>
/home/fstefaniak/progs/rDock//data/scripts/dock_solv.prm

>  <Rbt.Receptor>
4xnr.prm

>  <SCORE>
-58.1324

>  <SCORE.INTER>
-36.5887

>  <SCORE.INTER.CONST>
1

>  <SCORE.INTER.POLAR>
-4.18284

>  <SCORE.INTER.ROT>
2

>  <SCORE.INTER.SOLV>
15.3103

>  <SCORE.INTER.VDW>
-20.4864

>  <SCORE.INTER.norm>
-2.81451

>  <SCORE.INTRA>
-0.73698

>  <SCORE.INTRA.DIHEDRAL>
-2.67458

>  <SCORE.INTRA.DIHEDRAL.0>
3.46659

>  <SCORE.INTRA.POLAR>
0

>  <SCORE.INTRA.POLAR.0>
0

>  <SCORE.INTRA.REPUL>
0

>  <SCORE.INTRA.REPUL.0>
0

>  <SCORE.INTRA.SOLV>
0.0337273

>  <SCORE.INTRA.SOLV.lig_0>
-19.1899

>  <SCORE.INTRA.VDW>
0.583445

>  <SCORE.INTRA.VDW.0>
-0.0507619

>  <SCORE.INTRA.norm>
-0.0566908

>  <SCORE.RESTR>
0

>  <SCORE.RESTR.CAVITY>
0

>  <SCORE.RESTR.norm>
0

>  <SCORE.SYSTEM>
-20.8068

>  <SCORE.SYSTEM.CONST>
0

>  <SCORE.SYSTEM.DIHEDRAL>
4.03277

>  <SCORE.SYSTEM.POLAR>
-2.99821

>  <SCORE.SYSTEM.SOLV>
0.127648

>  <SCORE.SYSTEM.VDW>
-5.26395

>  <SCORE.SYSTEM.norm>
-1.60052

>  <SCORE.heavy>
13

>  <SCORE.norm>
-4.47172

$$$$
P56076031
 OpenBabel12072022113D
libRbt.so/2013.1/901 2013/11/27
 15 15  0  0  0  0  0  0  0  0999 V2000
    5.2187   18.0450    5.4491 C   0  0  0  0  0  0  0  0  0  0  0  0
    6.3666   18.4929    6.1077 C   0  0  0  0  0  0  0  0  0  0  0  0
    7.5427   18.6665    5.3854 C   0  0  0  0  0  0  0  0  0  0  0  0
    7.5917   18.3944    4.0223 C   0  0  0  0  0  0  0  0  0  0  0  0
    6.4455   17.9473    3.3610 C   0  0  0  0  0  0  0  0  0  0  0  0
    5.2493   17.7830    4.0721 C   0  0  0  0  0  0  0  0  0  0  0  0
    4.0003   17.3088    3.4154 C   0  0  0  0  0  0  0  0  0  0  0  0
    3.7936   17.5328    2.2287 O   0  0  0  0  0  0  0  0  0  0  0  0
    3.1282   16.5855    4.1977 N   0  0  0  0  0  0  0  0  0  0  0  0
    1.9333   16.0138    3.6024 C   0  0  0  0  0  0  0  0  0  0  0  0
    0.7108   16.4769    4.2748 C   0  0  0  0  0  0  0  0  0  0  0  0
   -0.2356   16.8511    4.8343 N   0  0  0  0  0  0  0  0  0  0  0  0
    8.6874   19.0999    5.9847 O   0  0  0  0  0  0  0  0  0  0  0  0
    3.4399   16.2276    5.0918 H   0  0  0  0  0  0  0  0  0  0  0  0
    8.4534   19.5947    6.7874 H   0  0  0  0  0  0  0  0  0  0  0  0
  1  2  2  0  0  0  0
  1  6  1  0  0  0  0
  2  3  1  0  0  0  0
  3  4  2  0  0  0  0
  3 13  1  0  0  0  0
  4  5  1  0  0  0  0
  5  6  2  0  0  0  0
  6  7  1  0  0  0  0
  7  8  2  0  0  0  0
  7  9  1  0  0  0  0
  9 10  1  0  0  0  0
  9 14  1  0  0  0  0
 10 11  1  0  0  0  0
 11 12  3  0  0  0  0
 13 15  1  0  0  0  0
M  END
>  <CHROM.0>
-56.82773984,-62.48388976,-66.06120185,-48.37721461,-58.29568097,-60.43881705
-65.19736832,-59.44375750,-167.21681783

>  <CHROM.1>
-24.03875430,152.46766304,-122.78774530,4.67215841,17.63918606,4.38747555
0.23220654,0.28058638,1.39547680

>  <Name>
P56076031

>  <RI>
3.4169e+07

>  <Rbt.Current_Directory>
/home/fstefaniak/projects/zuza/docking/adenine/4XNR

>  <Rbt.Executable>
rbdock ($Id: //depot/dev/client3/rdock/2013.1/src/exe/rbdock.cxx#4 $)

>  <Rbt.Library>
libRbt.so (2013.1, Build901 2013/11/27)

>  <Rbt.Parameter_File>
/home/fstefaniak/progs/rDock//data/scripts/dock_solv.prm

>  <Rbt.Receptor>
4xnr.prm

>  <SCORE>
-57.6655

>  <SCORE.INTER>
-37.4914

>  <SCORE.INTER.CONST>
1

>  <SCORE.INTER.POLAR>
-4.26254

>  <SCORE.INTER.ROT>
2

>  <SCORE.INTER.SOLV>
15.2705

>  <SCORE.INTER.VDW>
-20.8093

>  <SCORE.INTER.norm>
-2.88396

>  <SCORE.INTRA>
0.638097

>  <SCORE.INTRA.DIHEDRAL>
1.69776

>  <SCORE.INTRA.DIHEDRAL.0>
3.46659

>  <SCORE.INTRA.POLAR>
0

>  <SCORE.INTRA.POLAR.0>
0

>  <SCORE.INTRA.REPUL>
0

>  <SCORE.INTRA.REPUL.0>
0

>  <SCORE.INTRA.SOLV>
0.0186018

>  <SCORE.INTRA.SOLV.lig_0>
-19.1899

>  <SCORE.INTRA.VDW>
-0.220084

>  <SCORE.INTRA.VDW.0>
-0.0507619

>  <SCORE.INTRA.norm>
0.0490844

>  <SCORE.RESTR>
0

>  <SCORE.RESTR.CAVITY>
0

>  <SCORE.RESTR.norm>
0

>  <SCORE.SYSTEM>
-20.8122

>  <SCORE.SYSTEM.CONST>
0

>  <SCORE.SYSTEM.DIHEDRAL>
3.862

>  <SCORE.SYSTEM.POLAR>
-2.9785

>  <SCORE.SYSTEM.SOLV>
0.295323

>  <SCORE.SYSTEM.VDW>
-5.3322

>  <SCORE.SYSTEM.norm>
-1.60093

>  <SCORE.heavy>
13

>  <SCORE.norm>
-4.43581

$$$$
P56076031
 OpenBabel12072022113D
libRbt.so/2013.1/901 2013/11/27
 15 15  0  0  0  0  0  0  0  0999 V2000
    5.1952   18.0638    5.4054 C   0  0  0  0  0  0  0  0  0  0  0  0
    6.3463   18.5240    6.0498 C   0  0  0  0  0  0  0  0  0  0  0  0
    7.5212   18.6752    5.3204 C   0  0  0  0  0  0  0  0  0  0  0  0
    7.5658   18.3688    3.9644 C   0  0  0  0  0  0  0  0  0  0  0  0
    6.4163   17.9094    3.3174 C   0  0  0  0  0  0  0  0  0  0  0  0
    5.2213   17.7673    4.0353 C   0  0  0  0  0  0  0  0  0  0  0  0
    3.9690   17.2812    3.3939 C   0  0  0  0  0  0  0  0  0  0  0  0
    3.7513   17.4928    2.2068 O   0  0  0  0  0  0  0  0  0  0  0  0
    3.1067   16.5617    4.1904 N   0  0  0  0  0  0  0  0  0  0  0  0
    1.9094   15.9791    3.6108 C   0  0  0  0  0  0  0  0  0  0  0  0
    0.6868   16.5019    4.2378 C   0  0  0  0  0  0  0  0  0  0  0  0
   -0.2598   16.9245    4.7611 N   0  0  0  0  0  0  0  0  0  0  0  0
    8.6689   19.1193    5.9058 O   0  0  0  0  0  0  0  0  0  0  0  0
    3.4275   16.2139    5.0853 H   0  0  0  0  0  0  0  0  0  0  0  0
    8.4469   19.5386    6.7537 H   0  0  0  0  0  0  0  0  0  0  0  0
  1  2  2  0  0  0  0
  1  6  1  0  0  0  0
  2  3  1  0  0  0  0
  3  4  2  0  0  0  0
  3 13  1  0  0  0  0
  4  5  1  0  0  0  0
  5  6  2  0  0  0  0
  6  7  1  0  0  0  0
  7  8  2  0  0  0  0
  7  9  1  0  0  0  0
  9 10  1  0  0  0  0
  9 14  1  0  0  0  0
 10 11  1  0  0  0  0
 11 12  3  0  0  0  0
 13 15  1  0  0  0  0
M  END
>  <CHROM.0>
-55.31088759,-57.64471594,-61.78525205,-46.06177728,-59.04134954,-61.96709105
-66.28970062,-59.16798042,-168.30389998

>  <CHROM.1>
-17.02625775,151.41925768,-119.51808578,4.64655245,17.63643832,4.34642234
0.23567068,0.27368809,1.36899008

>  <Name>
P56076031

>  <RI>
3.4169e+07

>  <Rbt.Current_Directory>
/home/fstefaniak/projects/zuza/docking/adenine/4XNR

>  <Rbt.Executable>
rbdock ($Id: //depot/dev/client3/rdock/2013.1/src/exe/rbdock.cxx#4 $)

>  <Rbt.Library>
libRbt.so (2013.1, Build901 2013/11/27)

>  <Rbt.Parameter_File>
/home/fstefaniak/progs/rDock//data/scripts/dock_solv.prm

>  <Rbt.Receptor>
4xnr.prm

>  <SCORE>
-57.5447

>  <SCORE.INTER>
-37.4884

>  <SCORE.INTER.CONST>
1

>  <SCORE.INTER.POLAR>
-4.26076

>  <SCORE.INTER.ROT>
2

>  <SCORE.INTER.SOLV>
15.2107

>  <SCORE.INTER.VDW>
-20.7933

>  <SCORE.INTER.norm>
-2.88372

>  <SCORE.INTRA>
0.609651

>  <SCORE.INTRA.DIHEDRAL>
1.60046

>  <SCORE.INTRA.DIHEDRAL.0>
3.46659

>  <SCORE.INTRA.POLAR>
0

>  <SCORE.INTRA.POLAR.0>
0

>  <SCORE.INTRA.REPUL>
0

>  <SCORE.INTRA.REPUL.0>
0

>  <SCORE.INTRA.SOLV>
0.0209838

>  <SCORE.INTRA.SOLV.lig_0>
-19.1899

>  <SCORE.INTRA.VDW>
-0.20107

>  <SCORE.INTRA.VDW.0>
-0.0507619

>  <SCORE.INTRA.norm>
0.0468962

>  <SCORE.RESTR>
0

>  <SCORE.RESTR.CAVITY>
0

>  <SCORE.RESTR.norm>
0

>  <SCORE.SYSTEM>
-20.666

>  <SCORE.SYSTEM.CONST>
0

>  <SCORE.SYSTEM.DIHEDRAL>
3.97885

>  <SCORE.SYSTEM.POLAR>
-3.02965

>  <SCORE.SYSTEM.SOLV>
0.306244

>  <SCORE.SYSTEM.VDW>
-5.10687

>  <SCORE.SYSTEM.norm>
-1.58969

>  <SCORE.heavy>
13

>  <SCORE.norm>
-4.42652

$$$$
P56550642
 OpenBabel12072022113D
libRbt.so/2013.1/901 2013/11/27
 14 13  0  0  0  0  0  0  0  0999 V2000
    3.3216   13.5331    4.9611 C   0  0  0  0  0  0  0  0  0  0  0  0
    3.6886   14.2342    3.6600 C   0  0  0  0  0  0  0  0  0  0  0  0
    3.5592   15.7343    3.7639 C   0  0  0  0  0  0  0  0  0  0  0  0
    2.4060   16.4050    3.9662 C   0  0  0  0  0  0  0  0  0  0  0  0
    1.0437   15.8061    4.1337 C   0  0  0  0  0  0  0  0  0  0  0  0
    4.8511   16.4842    3.5940 C   0  0  0  0  0  0  0  0  0  0  0  0
    5.5687   16.2840    2.6175 O   0  0  0  0  0  0  0  0  0  0  0  0
    5.1875   17.2931    4.6597 N   0  0  0  0  0  0  0  0  0  0  0  0
    6.2662   18.1198    4.7854 C   0  0  0  0  0  0  0  0  0  0  0  0
    6.4560   18.7645    5.8113 O   0  0  0  0  0  0  0  0  0  0  0  0
    7.0998   18.2086    3.7288 N   0  0  0  0  0  0  0  0  0  0  0  0
    4.6007   17.2946    5.4789 H   0  0  0  0  0  0  0  0  0  0  0  0
    6.7324   18.5227    2.8342 H   0  0  0  0  0  0  0  0  0  0  0  0
    7.9429   17.6537    3.7383 H   0  0  0  0  0  0  0  0  0  0  0  0
  1  2  1  0  0  0  0
  2  3  1  0  0  0  0
  3  4  2  0  0  0  0
  3  6  1  0  0  0  0
  4  5  1  0  0  0  0
  6  7  2  0  0  0  0
  6  8  1  0  0  0  0
  8  9  1  0  0  0  0
  8 12  1  0  0  0  0
  9 10  2  0  0  0  0
  9 11  1  0  0  0  0
 11 13  1  0  0  0  0
 11 14  1  0  0  0  0
M  END
>  <CHROM.0>
-59.87001969,-64.23235466,-68.98170339,-48.79490191,-55.90045500,-63.53878872
-69.17620220,-61.51429953,-168.03023623

>  <CHROM.1>
-64.64059667,52.31827026,58.92975745,4.53885586,16.46049048,4.16216011,-2.50125929
0.28298169,0.48599315

>  <Name>
P56550642

>  <RI>
3.51561e+07

>  <Rbt.Current_Directory>
/home/fstefaniak/projects/zuza/docking/adenine/4XNR

>  <Rbt.Executable>
rbdock ($Id: //depot/dev/client3/rdock/2013.1/src/exe/rbdock.cxx#4 $)

>  <Rbt.Library>
libRbt.so (2013.1, Build901 2013/11/27)

>  <Rbt.Parameter_File>
/home/fstefaniak/progs/rDock//data/scripts/dock_solv.prm

>  <Rbt.Receptor>
4xnr.prm

>  <SCORE>
-44.8074

>  <SCORE.INTER>
-25.5669

>  <SCORE.INTER.CONST>
1

>  <SCORE.INTER.POLAR>
-2.56129

>  <SCORE.INTER.ROT>
3

>  <SCORE.INTER.SOLV>
11.6354

>  <SCORE.INTER.VDW>
-17.9854

>  <SCORE.INTER.norm>
-2.32426

>  <SCORE.INTRA>
1.6734

>  <SCORE.INTRA.DIHEDRAL>
3.5148

>  <SCORE.INTRA.DIHEDRAL.0>
6.03137

>  <SCORE.INTRA.POLAR>
0

>  <SCORE.INTRA.POLAR.0>
0

>  <SCORE.INTRA.REPUL>
0

>  <SCORE.INTRA.REPUL.0>
0

>  <SCORE.INTRA.SOLV>
-0.0295287

>  <SCORE.INTRA.SOLV.lig_0>
-16.2901

>  <SCORE.INTRA.VDW>
-0.069237

>  <SCORE.INTRA.VDW.0>
-0.228239

>  <SCORE.INTRA.norm>
0.152127

>  <SCORE.RESTR>
0

>  <SCORE.RESTR.CAVITY>
0

>  <SCORE.RESTR.norm>
0

>  <SCORE.SYSTEM>
-20.914

>  <SCORE.SYSTEM.CONST>
0

>  <SCORE.SYSTEM.DIHEDRAL>
4.32263

>  <SCORE.SYSTEM.POLAR>
-2.94822

>  <SCORE.SYSTEM.SOLV>
0.266181

>  <SCORE.SYSTEM.VDW>
-5.64485

>  <SCORE.SYSTEM.norm>
-1.90127

>  <SCORE.heavy>
11

>  <SCORE.norm>
-4.0734

$$$$
P56550642
 OpenBabel12072022113D
libRbt.so/2013.1/901 2013/11/27
 14 13  0  0  0  0  0  0  0  0999 V2000
    6.7740   18.3838    1.6080 C   0  0  0  0  0  0  0  0  0  0  0  0
    7.1104   17.8793    3.0048 C   0  0  0  0  0  0  0  0  0  0  0  0
    5.8739   17.6018    3.8245 C   0  0  0  0  0  0  0  0  0  0  0  0
    5.5260   18.2516    4.9548 C   0  0  0  0  0  0  0  0  0  0  0  0
    6.2802   19.3669    5.6103 C   0  0  0  0  0  0  0  0  0  0  0  0
    5.0171   16.4833    3.3002 C   0  0  0  0  0  0  0  0  0  0  0  0
    5.0577   16.1650    2.1147 O   0  0  0  0  0  0  0  0  0  0  0  0
    4.1347   15.9583    4.2217 N   0  0  0  0  0  0  0  0  0  0  0  0
    3.2634   14.9202    4.0608 C   0  0  0  0  0  0  0  0  0  0  0  0
    2.5107   14.5768    4.9661 O   0  0  0  0  0  0  0  0  0  0  0  0
    3.2802   14.2812    2.8731 N   0  0  0  0  0  0  0  0  0  0  0  0
    4.0794   16.3720    5.1389 H   0  0  0  0  0  0  0  0  0  0  0  0
    2.5846   13.5629    2.6882 H   0  0  0  0  0  0  0  0  0  0  0  0
    4.1452   14.2630    2.3533 H   0  0  0  0  0  0  0  0  0  0  0  0
  1  2  1  0  0  0  0
  2  3  1  0  0  0  0
  3  4  2  0  0  0  0
  3  6  1  0  0  0  0
  4  5  1  0  0  0  0
  6  7  2  0  0  0  0
  6  8  1  0  0  0  0
  8  9  1  0  0  0  0
  8 12  1  0  0  0  0
  9 10  2  0  0  0  0
  9 11  1  0  0  0  0
 11 13  1  0  0  0  0
 11 14  1  0  0  0  0
M  END
>  <CHROM.0>
-62.84851121,24.68341616,-65.53618452,-48.15945807,-58.38581449,-59.83691854
-66.44946111,-57.69070008,-167.85752128

>  <CHROM.1>
-116.18820382,-23.92928179,-174.20794825,4.95437626,16.67602830,3.66524964
-0.30065452,-0.80216418,-2.04582327

>  <Name>
P56550642

>  <RI>
3.51561e+07

>  <Rbt.Current_Directory>
/home/fstefaniak/projects/zuza/docking/adenine/4XNR

>  <Rbt.Executable>
rbdock ($Id: //depot/dev/client3/rdock/2013.1/src/exe/rbdock.cxx#4 $)

>  <Rbt.Library>
libRbt.so (2013.1, Build901 2013/11/27)

>  <Rbt.Parameter_File>
/home/fstefaniak/progs/rDock//data/scripts/dock_solv.prm

>  <Rbt.Receptor>
4xnr.prm

>  <SCORE>
-44.4192

>  <SCORE.INTER>
-26.1762

>  <SCORE.INTER.CONST>
1

>  <SCORE.INTER.POLAR>
-3.19144

>  <SCORE.INTER.ROT>
3

>  <SCORE.INTER.SOLV>
12.1129

>  <SCORE.INTER.VDW>
-16.4503

>  <SCORE.INTER.norm>
-2.37965

>  <SCORE.INTRA>
0.27066

>  <SCORE.INTRA.DIHEDRAL>
-2.77746

>  <SCORE.INTRA.DIHEDRAL.0>
6.03137

>  <SCORE.INTRA.POLAR>
0

>  <SCORE.INTRA.POLAR.0>
0

>  <SCORE.INTRA.REPUL>
0

>  <SCORE.INTRA.REPUL.0>
0

>  <SCORE.INTRA.SOLV>
0.135585

>  <SCORE.INTRA.SOLV.lig_0>
-16.2901

>  <SCORE.INTRA.VDW>
1.5916

>  <SCORE.INTRA.VDW.0>
-0.228239

>  <SCORE.INTRA.norm>
0.0246055

>  <SCORE.RESTR>
0

>  <SCORE.RESTR.CAVITY>
0

>  <SCORE.RESTR.norm>
0

>  <SCORE.SYSTEM>
-18.5137

>  <SCORE.SYSTEM.CONST>
0

>  <SCORE.SYSTEM.DIHEDRAL>
8.32493

>  <SCORE.SYSTEM.POLAR>
-3.14477

>  <SCORE.SYSTEM.SOLV>
0.446099

>  <SCORE.SYSTEM.VDW>
-4.78357

>  <SCORE.SYSTEM.norm>
-1.68306

>  <SCORE.heavy>
11

>  <SCORE.norm>
-4.03811

$$$$
P56550642
 OpenBabel12072022113D
libRbt.so/2013.1/901 2013/11/27
 14 13  0  0  0  0  0  0  0  0999 V2000
    4.5461   15.8597    3.4300 C   0  0  0  0  0  0  0  0  0  0  0  0
    4.5818   17.3142    2.9808 C   0  0  0  0  0  0  0  0  0  0  0  0
    5.8972   17.9795    3.3048 C   0  0  0  0  0  0  0  0  0  0  0  0
    6.7954   18.4140    2.3964 C   0  0  0  0  0  0  0  0  0  0  0  0
    6.6678   18.3325    0.9066 C   0  0  0  0  0  0  0  0  0  0  0  0
    6.1810   18.1156    4.7749 C   0  0  0  0  0  0  0  0  0  0  0  0
    5.3056   17.8894    5.6061 O   0  0  0  0  0  0  0  0  0  0  0  0
    7.4325   18.6142    5.0722 N   0  0  0  0  0  0  0  0  0  0  0  0
    7.9929   18.8124    6.3007 C   0  0  0  0  0  0  0  0  0  0  0  0
    9.1146   19.2947    6.4166 O   0  0  0  0  0  0  0  0  0  0  0  0
    7.2681   18.4393    7.3752 N   0  0  0  0  0  0  0  0  0  0  0  0
    8.0396   18.8968    4.3191 H   0  0  0  0  0  0  0  0  0  0  0  0
    7.2238   19.0581    8.1808 H   0  0  0  0  0  0  0  0  0  0  0  0
    7.0854   17.4557    7.5093 H   0  0  0  0  0  0  0  0  0  0  0  0
  1  2  1  0  0  0  0
  2  3  1  0  0  0  0
  3  4  2  0  0  0  0
  3  6  1  0  0  0  0
  4  5  1  0  0  0  0
  6  7  2  0  0  0  0
  6  8  1  0  0  0  0
  8  9  1  0  0  0  0
  8 12  1  0  0  0  0
  9 10  2  0  0  0  0
  9 11  1  0  0  0  0
 11 13  1  0  0  0  0
 11 14  1  0  0  0  0
M  END
>  <CHROM.0>
-55.61819443,178.95685475,-63.58078774,-46.51604824,-176.09890108,-170.50438459
-66.41996840,60.84174978,-166.92339355

>  <CHROM.1>
113.66877484,-10.80724587,-136.27412673,6.54070474,18.09358445,4.46783108
2.18579378,-0.56629618,-1.52727219

>  <Name>
P56550642

>  <RI>
3.51561e+07

>  <Rbt.Current_Directory>
/home/fstefaniak/projects/zuza/docking/adenine/4XNR

>  <Rbt.Executable>
rbdock ($Id: //depot/dev/client3/rdock/2013.1/src/exe/rbdock.cxx#4 $)

>  <Rbt.Library>
libRbt.so (2013.1, Build901 2013/11/27)

>  <Rbt.Parameter_File>
/home/fstefaniak/progs/rDock//data/scripts/dock_solv.prm

>  <Rbt.Receptor>
4xnr.prm

>  <SCORE>
-43.3488

>  <SCORE.INTER>
-23.3832

>  <SCORE.INTER.CONST>
1

>  <SCORE.INTER.POLAR>
-3.61332

>  <SCORE.INTER.ROT>
3

>  <SCORE.INTER.SOLV>
14.2074

>  <SCORE.INTER.VDW>
-13.8802

>  <SCORE.INTER.norm>
-2.12575

>  <SCORE.INTRA>
-0.623068

>  <SCORE.INTRA.DIHEDRAL>
-3.96595

>  <SCORE.INTRA.DIHEDRAL.0>
6.03137

>  <SCORE.INTRA.POLAR>
0

>  <SCORE.INTRA.POLAR.0>
0

>  <SCORE.INTRA.REPUL>
0

>  <SCORE.INTRA.REPUL.0>
0

>  <SCORE.INTRA.SOLV>
0.100308

>  <SCORE.INTRA.SOLV.lig_0>
-16.2901

>  <SCORE.INTRA.VDW>
1.30975

>  <SCORE.INTRA.VDW.0>
-0.228239

>  <SCORE.INTRA.norm>
-0.0566425

>  <SCORE.RESTR>
0

>  <SCORE.RESTR.CAVITY>
0

>  <SCORE.RESTR.norm>
0

>  <SCORE.SYSTEM>
-19.3425

>  <SCORE.SYSTEM.CONST>
0

>  <SCORE.SYSTEM.DIHEDRAL>
4.5346

>  <SCORE.SYSTEM.POLAR>
-3.01855

>  <SCORE.SYSTEM.SOLV>
-0.179727

>  <SCORE.SYSTEM.VDW>
-4.2848

>  <SCORE.SYSTEM.norm>
-1.75841

>  <SCORE.heavy>
11

>  <SCORE.norm>
-3.9408

$$$$
P59171232
 OpenBabel12072022113D
libRbt.so/2013.1/901 2013/11/27
 16 16  0  0  0  0  0  0  0  0999 V2000
    3.4969   14.1475    3.8084 H   0  0  0  0  0  0  0  0  0  0  0  0
    3.2834   15.1135    4.1053 N   0  0  0  0  0  0  0  0  0  0  0  0
    4.2599   15.8733    3.7243 C   0  0  0  0  0  0  0  0  0  0  0  0
    5.3401   15.4184    3.0641 N   0  0  0  0  0  0  0  0  0  0  0  0
    4.2940   17.2077    3.9890 N   0  0  0  0  0  0  0  0  0  0  0  0
    5.4056   17.8100    4.5930 C   0  0  0  0  0  0  0  0  0  0  0  0
    6.4930   18.3256    3.8677 C   0  0  0  0  0  0  0  0  0  0  0  0
    7.5271   18.9616    4.5700 C   0  0  0  0  0  0  0  0  0  0  0  0
    7.4614   19.0917    5.9545 C   0  0  0  0  0  0  0  0  0  0  0  0
    6.3547   18.5906    6.6201 C   0  0  0  0  0  0  0  0  0  0  0  0
    5.3870   17.9892    5.9259 N   0  3  0  0  0  0  0  0  0  0  0  0
    4.5400   17.6220    6.3940 H   0  0  0  0  0  0  0  0  0  0  0  0
    6.5637   18.2223    2.3701 C   0  0  0  0  0  0  0  0  0  0  0  0
    6.2313   15.4517    3.5513 H   0  0  0  0  0  0  0  0  0  0  0  0
    5.2380   14.5260    2.5880 H   0  0  0  0  0  0  0  0  0  0  0  0
    3.8455   17.7845    3.2864 H   0  0  0  0  0  0  0  0  0  0  0  0
  1  2  1  0  0  0  0
  2  3  2  0  0  0  0
  3  4  1  0  0  0  0
  3  5  1  0  0  0  0
  4 14  1  0  0  0  0
  4 15  1  0  0  0  0
  5  6  1  0  0  0  0
  5 16  1  0  0  0  0
  6  7  2  0  0  0  0
  6 11  1  0  0  0  0
  7  8  1  0  0  0  0
  7 13  1  0  0  0  0
  8  9  2  0  0  0  0
  9 10  1  0  0  0  0
 10 11  2  0  0  0  0
 11 12  1  0  0  0  0
M  CHG  1  11   1
M  END
>  <CHROM.0>
-62.77099914,52.34306896,-70.24985696,-44.09080841,-176.36474410,-61.77123515
-67.26420906,-62.18036982,-168.34274777

>  <CHROM.1>
-112.77009892,127.97663996,89.21786123,5.62566568,17.44081319,4.39358626
2.51104489,-0.72913280,-1.90299885

>  <Name>
P59171232

>  <RI>
2.22087e+07

>  <Rbt.Current_Directory>
/home/fstefaniak/projects/zuza/docking/adenine/4XNR

>  <Rbt.Executable>
rbdock ($Id: //depot/dev/client3/rdock/2013.1/src/exe/rbdock.cxx#4 $)

>  <Rbt.Library>
libRbt.so (2013.1, Build901 2013/11/27)

>  <Rbt.Parameter_File>
/home/fstefaniak/progs/rDock//data/scripts/dock_solv.prm

>  <Rbt.Receptor>
4xnr.prm

>  <SCORE>
-53.3072

>  <SCORE.INTER>
-31.6617

>  <SCORE.INTER.CONST>
1

>  <SCORE.INTER.POLAR>
-4.11255

>  <SCORE.INTER.ROT>
3

>  <SCORE.INTER.SOLV>
22.9287

>  <SCORE.INTER.VDW>
-20.6422

>  <SCORE.INTER.norm>
-2.87834

>  <SCORE.INTRA>
-1.59763

>  <SCORE.INTRA.DIHEDRAL>
-0.0741907

>  <SCORE.INTRA.DIHEDRAL.0>
1.47642

>  <SCORE.INTRA.POLAR>
0.830087

>  <SCORE.INTRA.POLAR.0>
-0.830087

>  <SCORE.INTRA.REPUL>
0

>  <SCORE.INTRA.REPUL.0>
0

>  <SCORE.INTRA.SOLV>
-4.50354

>  <SCORE.INTRA.SOLV.lig_0>
-27.9088

>  <SCORE.INTRA.VDW>
-2.13106

>  <SCORE.INTRA.VDW.0>
0.900282

>  <SCORE.INTRA.norm>
-0.145239

>  <SCORE.RESTR>
0

>  <SCORE.RESTR.CAVITY>
0

>  <SCORE.RESTR.norm>
0

>  <SCORE.SYSTEM>
-20.0479

>  <SCORE.SYSTEM.CONST>
0

>  <SCORE.SYSTEM.DIHEDRAL>
5.00047

>  <SCORE.SYSTEM.POLAR>
-3.01978

>  <SCORE.SYSTEM.SOLV>
0.203584

>  <SCORE.SYSTEM.VDW>
-5.03399

>  <SCORE.SYSTEM.norm>
-1.82253

>  <SCORE.heavy>
11

>  <SCORE.norm>
-4.84611

$$$$
P59171232
 OpenBabel12072022113D
libRbt.so/2013.1/901 2013/11/27
 16 16  0  0  0  0  0  0  0  0999 V2000
    1.5483   16.2319    3.4697 H   0  0  0  0  0  0  0  0  0  0  0  0
    2.4222   15.8708    3.8854 N   0  0  0  0  0  0  0  0  0  0  0  0
    3.3906   16.6462    3.5153 C   0  0  0  0  0  0  0  0  0  0  0  0
    3.2206   17.7180    2.7203 N   0  0  0  0  0  0  0  0  0  0  0  0
    4.6837   16.4241    3.8762 N   0  0  0  0  0  0  0  0  0  0  0  0
    5.4635   17.4238    4.4725 C   0  0  0  0  0  0  0  0  0  0  0  0
    6.3522   18.2410    3.7535 C   0  0  0  0  0  0  0  0  0  0  0  0
    7.0403   19.2515    4.4409 C   0  0  0  0  0  0  0  0  0  0  0  0
    6.8282   19.4462    5.8030 C   0  0  0  0  0  0  0  0  0  0  0  0
    5.9211   18.6315    6.4603 C   0  0  0  0  0  0  0  0  0  0  0  0
    5.2820   17.6776    5.7809 N   0  3  0  0  0  0  0  0  0  0  0  0
    4.5852   17.0663    6.2414 H   0  0  0  0  0  0  0  0  0  0  0  0
    6.5680   18.0651    2.2767 C   0  0  0  0  0  0  0  0  0  0  0  0
    2.9589   18.5921    3.1674 H   0  0  0  0  0  0  0  0  0  0  0  0
    3.9433   17.8864    2.0255 H   0  0  0  0  0  0  0  0  0  0  0  0
    4.8628   15.4938    4.2367 H   0  0  0  0  0  0  0  0  0  0  0  0
  1  2  1  0  0  0  0
  2  3  2  0  0  0  0
  3  4  1  0  0  0  0
  3  5  1  0  0  0  0
  4 14  1  0  0  0  0
  4 15  1  0  0  0  0
  5  6  1  0  0  0  0
  5 16  1  0  0  0  0
  6  7  2  0  0  0  0
  6 11  1  0  0  0  0
  7  8  1  0  0  0  0
  7 13  1  0  0  0  0
  8  9  2  0  0  0  0
  9 10  1  0  0  0  0
 10 11  2  0  0  0  0
 11 12  1  0  0  0  0
M  CHG  1  11   1
M  END
>  <CHROM.0>
-59.21307825,69.96688457,60.92826991,-48.14248514,-61.43825924,-58.41769980
53.48410461,-65.15101114,-168.14212794

>  <CHROM.1>
85.68385383,-127.79498100,-96.60799176,5.13055697,17.72819137,4.23177022
2.71722371,-0.56513562,-1.63939546

>  <Name>
P59171232

>  <RI>
2.22087e+07

>  <Rbt.Current_Directory>
/home/fstefaniak/projects/zuza/docking/adenine/4XNR

>  <Rbt.Executable>
rbdock ($Id: //depot/dev/client3/rdock/2013.1/src/exe/rbdock.cxx#4 $)

>  <Rbt.Library>
libRbt.so (2013.1, Build901 2013/11/27)

>  <Rbt.Parameter_File>
/home/fstefaniak/progs/rDock//data/scripts/dock_solv.prm

>  <Rbt.Receptor>
4xnr.prm

>  <SCORE>
-51.9089

>  <SCORE.INTER>
-33.3147

>  <SCORE.INTER.CONST>
1

>  <SCORE.INTER.POLAR>
-4.28706

>  <SCORE.INTER.ROT>
3

>  <SCORE.INTER.SOLV>
21.0035

>  <SCORE.INTER.VDW>
-20.5207

>  <SCORE.INTER.norm>
-3.02861

>  <SCORE.INTRA>
-0.950916

>  <SCORE.INTRA.DIHEDRAL>
-0.0342095

>  <SCORE.INTRA.DIHEDRAL.0>
1.47642

>  <SCORE.INTRA.POLAR>
0.830087

>  <SCORE.INTRA.POLAR.0>
-0.830087

>  <SCORE.INTRA.REPUL>
0

>  <SCORE.INTRA.REPUL.0>
0

>  <SCORE.INTRA.SOLV>
-3.18933

>  <SCORE.INTRA.SOLV.lig_0>
-27.9088

>  <SCORE.INTRA.VDW>
-2.16144

>  <SCORE.INTRA.VDW.0>
0.900282

>  <SCORE.INTRA.norm>
-0.0864469

>  <SCORE.RESTR>
0

>  <SCORE.RESTR.CAVITY>
0

>  <SCORE.RESTR.norm>
0

>  <SCORE.SYSTEM>
-17.6433

>  <SCORE.SYSTEM.CONST>
0

>  <SCORE.SYSTEM.DIHEDRAL>
4.21819

>  <SCORE.SYSTEM.POLAR>
-2.94747

>  <SCORE.SYSTEM.SOLV>
0.21435

>  <SCORE.SYSTEM.VDW>
-3.41481

>  <SCORE.SYSTEM.norm>
-1.60394

>  <SCORE.heavy>
11

>  <SCORE.norm>
-4.71899

$$$$
P59171232
 OpenBabel12072022113D
libRbt.so/2013.1/901 2013/11/27
 16 16  0  0  0  0  0  0  0  0999 V2000
    3.4429   14.2257    3.7241 H   0  0  0  0  0  0  0  0  0  0  0  0
    3.2526   15.1857    4.0539 N   0  0  0  0  0  0  0  0  0  0  0  0
    4.2483   15.9340    3.7009 C   0  0  0  0  0  0  0  0  0  0  0  0
    5.3186   15.4756    3.0271 N   0  0  0  0  0  0  0  0  0  0  0  0
    4.3146   17.2572    4.0115 N   0  0  0  0  0  0  0  0  0  0  0  0
    5.4463   17.8141    4.6217 C   0  0  0  0  0  0  0  0  0  0  0  0
    6.5424   18.3178    3.9011 C   0  0  0  0  0  0  0  0  0  0  0  0
    7.5982   18.9081    4.6110 C   0  0  0  0  0  0  0  0  0  0  0  0
    7.5455   19.0057    5.9988 C   0  0  0  0  0  0  0  0  0  0  0  0
    6.4302   18.5185    6.6601 C   0  0  0  0  0  0  0  0  0  0  0  0
    5.4417   17.9608    5.9588 N   0  3  0  0  0  0  0  0  0  0  0  0
    4.5883   17.6052    6.4240 H   0  0  0  0  0  0  0  0  0  0  0  0
    6.6000   18.2497    2.4010 C   0  0  0  0  0  0  0  0  0  0  0  0
    6.2095   15.4718    3.5158 H   0  0  0  0  0  0  0  0  0  0  0  0
    5.1963   14.6020    2.5218 H   0  0  0  0  0  0  0  0  0  0  0  0
    3.8702   17.8677    3.3354 H   0  0  0  0  0  0  0  0  0  0  0  0
  1  2  1  0  0  0  0
  2  3  2  0  0  0  0
  3  4  1  0  0  0  0
  3  5  1  0  0  0  0
  4 14  1  0  0  0  0
  4 15  1  0  0  0  0
  5  6  1  0  0  0  0
  5 16  1  0  0  0  0
  6  7  2  0  0  0  0
  6 11  1  0  0  0  0
  7  8  1  0  0  0  0
  7 13  1  0  0  0  0
  8  9  2  0  0  0  0
  9 10  1  0  0  0  0
 10 11  2  0  0  0  0
 11 12  1  0  0  0  0
M  CHG  1  11   1
M  END
>  <CHROM.0>
-58.14974767,53.53762701,60.21219363,-49.25692224,-58.75318622,-67.51340878
52.76533779,-58.65403260,-168.29051931

>  <CHROM.1>
-112.89176892,128.83083815,88.46797952,5.65722066,17.44540378,4.40675460
2.52490894,-0.70384407,-1.86657722

>  <Name>
P59171232

>  <RI>
2.22087e+07

>  <Rbt.Current_Directory>
/home/fstefaniak/projects/zuza/docking/adenine/4XNR

>  <Rbt.Executable>
rbdock ($Id: //depot/dev/client3/rdock/2013.1/src/exe/rbdock.cxx#4 $)

>  <Rbt.Library>
libRbt.so (2013.1, Build901 2013/11/27)

>  <Rbt.Parameter_File>
/home/fstefaniak/progs/rDock//data/scripts/dock_solv.prm

>  <Rbt.Receptor>
4xnr.prm

>  <SCORE>
-51.3754

>  <SCORE.INTER>
-31.6974

>  <SCORE.INTER.CONST>
1

>  <SCORE.INTER.POLAR>
-4.23359

>  <SCORE.INTER.ROT>
3

>  <SCORE.INTER.SOLV>
22.8468

>  <SCORE.INTER.VDW>
-20.2353

>  <SCORE.INTER.norm>
-2.88158

>  <SCORE.INTRA>
-1.58431

>  <SCORE.INTRA.DIHEDRAL>
-0.0731707

>  <SCORE.INTRA.DIHEDRAL.0>
1.47642

>  <SCORE.INTRA.POLAR>
0.830087

>  <SCORE.INTRA.POLAR.0>
-0.830087

>  <SCORE.INTRA.REPUL>
0

>  <SCORE.INTRA.REPUL.0>
0

>  <SCORE.INTRA.SOLV>
-4.52632

>  <SCORE.INTRA.SOLV.lig_0>
-27.9088

>  <SCORE.INTRA.VDW>
-2.10686

>  <SCORE.INTRA.VDW.0>
0.900282

>  <SCORE.INTRA.norm>
-0.144028

>  <SCORE.RESTR>
0

>  <SCORE.RESTR.CAVITY>
0

>  <SCORE.RESTR.norm>
0

>  <SCORE.SYSTEM>
-18.0936

>  <SCORE.SYSTEM.CONST>
0

>  <SCORE.SYSTEM.DIHEDRAL>
4.00291

>  <SCORE.SYSTEM.POLAR>
-2.95096

>  <SCORE.SYSTEM.SOLV>
0.276708

>  <SCORE.SYSTEM.VDW>
-3.65242

>  <SCORE.SYSTEM.norm>
-1.64488

>  <SCORE.heavy>
11

>  <SCORE.norm>
-4.67049

$$$$
P59176407
 OpenBabel12072022113D
libRbt.so/2013.1/901 2013/11/27
 12 13  0  0  0  0  0  0  0  0999 V2000
    4.3471   16.3973    3.8270 C   0  0  0  0  0  0  0  0  0  0  0  0
    4.5528   14.8750    3.6773 C   0  0  0  0  0  0  0  0  0  0  0  0
    3.4160   14.2723    4.4948 C   0  0  2  0  0  0  0  0  0  0  0  0
    2.7183   13.0097    3.9967 C   0  0  0  0  0  0  0  0  0  0  0  0
    1.2281   13.3097    4.2036 C   0  0  1  0  0  0  0  0  0  0  0  0
    1.2246   14.7990    4.1433 N   0  3  0  0  0  0  0  0  0  0  0  0
    0.3906   15.2222    3.7014 H   0  0  0  0  0  0  0  0  0  0  0  0
    2.3885   15.2961    4.2057 C   0  0  0  0  0  0  0  0  0  0  0  0
    2.8271   16.6276    3.7669 C   0  0  0  0  0  0  0  0  0  0  0  0
    0.2562   12.9011    3.0883 C   0  0  0  0  0  0  0  0  0  0  0  0
    0.5672   13.4131    1.9664 O   0  0  0  0  0  0  0  0  0  0  0  0
   -0.6433   12.0923    3.4101 O   0  5  0  0  0  0  0  0  0  0  0  0
  1  2  1  0  0  0  0
  1  9  1  0  0  0  0
  3  2  1  6  0  0  0
  3  4  1  0  0  0  0
  3  8  1  0  0  0  0
  4  5  1  0  0  0  0
  5  6  1  0  0  0  0
  5 10  1  6  0  0  0
  6  7  1  0  0  0  0
  6  8  2  0  0  0  0
  8  9  1  0  0  0  0
 10 11  2  0  0  0  0
 10 12  1  0  0  0  0
M  CHG  2   6   1  12  -1
M  END
>  <CHROM.0>
-55.93590901,-64.50798378,-65.03909752,-46.65848101,-175.25140774,-65.63177288
-69.52002010,-175.97674208,-168.10545081

>  <CHROM.1>
-56.34049441,2.03141651,14.25004236,3.67406863,0.64151667,-0.29030600,-0.11254518

>  <Name>
P59176407

>  <RI>
4.17015e+07

>  <Rbt.Current_Directory>
/home/fstefaniak/projects/zuza/docking/adenine/4XNR

>  <Rbt.Executable>
rbdock ($Id: //depot/dev/client3/rdock/2013.1/src/exe/rbdock.cxx#4 $)

>  <Rbt.Library>
libRbt.so (2013.1, Build901 2013/11/27)

>  <Rbt.Parameter_File>
/home/fstefaniak/progs/rDock//data/scripts/dock_solv.prm

>  <Rbt.Receptor>
4xnr.prm

>  <SCORE>
-41.4837

>  <SCORE.INTER>
-19.5159

>  <SCORE.INTER.CONST>
1

>  <SCORE.INTER.POLAR>
-2.55277

>  <SCORE.INTER.ROT>
1

>  <SCORE.INTER.SOLV>
13.282

>  <SCORE.INTER.VDW>
-13.1954

>  <SCORE.INTER.norm>
-1.77417

>  <SCORE.INTRA>
-1.06166

>  <SCORE.INTRA.DIHEDRAL>
0.0287466

>  <SCORE.INTRA.DIHEDRAL.0>
1.04839

>  <SCORE.INTRA.POLAR>
0

>  <SCORE.INTRA.POLAR.0>
0

>  <SCORE.INTRA.REPUL>
0

>  <SCORE.INTRA.REPUL.0>
0

>  <SCORE.INTRA.SOLV>
-0.403956

>  <SCORE.INTRA.SOLV.lig_0>
-44.9961

>  <SCORE.INTRA.VDW>
-0.874054

>  <SCORE.INTRA.VDW.0>
0.527518

>  <SCORE.INTRA.norm>
-0.0965144

>  <SCORE.RESTR>
0

>  <SCORE.RESTR.CAVITY>
0

>  <SCORE.RESTR.norm>
0

>  <SCORE.SYSTEM>
-20.9062

>  <SCORE.SYSTEM.CONST>
0

>  <SCORE.SYSTEM.DIHEDRAL>
4.59367

>  <SCORE.SYSTEM.POLAR>
-3.01236

>  <SCORE.SYSTEM.SOLV>
-0.0336095

>  <SCORE.SYSTEM.VDW>
-5.41624

>  <SCORE.SYSTEM.norm>
-1.90056

>  <SCORE.heavy>
11

>  <SCORE.norm>
-3.77125

$$$$
P59176407
 OpenBabel12072022113D
libRbt.so/2013.1/901 2013/11/27
 12 13  0  0  0  0  0  0  0  0999 V2000
    4.3195   16.3206    3.9059 C   0  0  0  0  0  0  0  0  0  0  0  0
    4.5062   14.8067    3.6712 C   0  0  0  0  0  0  0  0  0  0  0  0
    3.3593   14.1736    4.4507 C   0  0  2  0  0  0  0  0  0  0  0  0
    2.6472   12.9501    3.8807 C   0  0  0  0  0  0  0  0  0  0  0  0
    1.1603   13.2572    4.1006 C   0  0  1  0  0  0  0  0  0  0  0  0
    1.1759   14.7474    4.1243 N   0  3  0  0  0  0  0  0  0  0  0  0
    0.3487   15.2055    3.7050 H   0  0  0  0  0  0  0  0  0  0  0  0
    2.3458   15.2252    4.2174 C   0  0  0  0  0  0  0  0  0  0  0  0
    2.8026   16.5735    3.8552 C   0  0  0  0  0  0  0  0  0  0  0  0
    0.1867   12.9245    2.9619 C   0  0  0  0  0  0  0  0  0  0  0  0
    0.6254   13.2982    1.8280 O   0  0  0  0  0  0  0  0  0  0  0  0
   -0.8438   12.2915    3.2849 O   0  5  0  0  0  0  0  0  0  0  0  0
  1  2  1  0  0  0  0
  1  9  1  0  0  0  0
  3  2  1  6  0  0  0
  3  4  1  0  0  0  0
  3  8  1  0  0  0  0
  4  5  1  0  0  0  0
  5  6  1  0  0  0  0
  5 10  1  6  0  0  0
  6  7  1  0  0  0  0
  6  8  2  0  0  0  0
  8  9  1  0  0  0  0
 10 11  2  0  0  0  0
 10 12  1  0  0  0  0
M  CHG  2   6   1  12  -1
M  END
>  <CHROM.0>
-55.68917152,-60.20729447,-67.87709295,-44.45850389,-57.73363507,-62.73141677
-67.19468952,-58.08573514,-168.29111792

>  <CHROM.1>
-44.97071590,1.97689829,14.21378105,3.62745570,0.64284273,-0.22248897,0.03342942

>  <Name>
P59176407

>  <RI>
4.17015e+07

>  <Rbt.Current_Directory>
/home/fstefaniak/projects/zuza/docking/adenine/4XNR

>  <Rbt.Executable>
rbdock ($Id: //depot/dev/client3/rdock/2013.1/src/exe/rbdock.cxx#4 $)

>  <Rbt.Library>
libRbt.so (2013.1, Build901 2013/11/27)

>  <Rbt.Parameter_File>
/home/fstefaniak/progs/rDock//data/scripts/dock_solv.prm

>  <Rbt.Receptor>
4xnr.prm

>  <SCORE>
-41.2144

>  <SCORE.INTER>
-19.2883

>  <SCORE.INTER.CONST>
1

>  <SCORE.INTER.POLAR>
-2.55233

>  <SCORE.INTER.ROT>
1

>  <SCORE.INTER.SOLV>
13.7636

>  <SCORE.INTER.VDW>
-13.2056

>  <SCORE.INTER.norm>
-1.75348

>  <SCORE.INTRA>
-1.07974

>  <SCORE.INTRA.DIHEDRAL>
0.0457624

>  <SCORE.INTRA.DIHEDRAL.0>
1.04839

>  <SCORE.INTRA.POLAR>
0

>  <SCORE.INTRA.POLAR.0>
0

>  <SCORE.INTRA.REPUL>
0

>  <SCORE.INTRA.REPUL.0>
0

>  <SCORE.INTRA.SOLV>
-0.512855

>  <SCORE.INTRA.SOLV.lig_0>
-44.9961

>  <SCORE.INTRA.VDW>
-0.846192

>  <SCORE.INTRA.VDW.0>
0.527518

>  <SCORE.INTRA.norm>
-0.098158

>  <SCORE.RESTR>
0

>  <SCORE.RESTR.CAVITY>
0

>  <SCORE.RESTR.norm>
0

>  <SCORE.SYSTEM>
-20.8464

>  <SCORE.SYSTEM.CONST>
0

>  <SCORE.SYSTEM.DIHEDRAL>
4.51166

>  <SCORE.SYSTEM.POLAR>
-3.05021

>  <SCORE.SYSTEM.SOLV>
0.296283

>  <SCORE.SYSTEM.VDW>
-5.33289

>  <SCORE.SYSTEM.norm>
-1.89513

>  <SCORE.heavy>
11

>  <SCORE.norm>
-3.74677

$$$$
P59176407
 OpenBabel12072022113D
libRbt.so/2013.1/901 2013/11/27
 12 13  0  0  0  0  0  0  0  0999 V2000
    6.4713   19.7979    6.0466 C   0  0  0  0  0  0  0  0  0  0  0  0
    6.6141   19.7309    4.5113 C   0  0  0  0  0  0  0  0  0  0  0  0
    6.7853   18.2431    4.2265 C   0  0  2  0  0  0  0  0  0  0  0  0
    6.1374   17.6351    2.9858 C   0  0  0  0  0  0  0  0  0  0  0  0
    5.5104   16.3335    3.5015 C   0  0  1  0  0  0  0  0  0  0  0  0
    5.2973   16.6676    4.9384 N   0  3  0  0  0  0  0  0  0  0  0  0
    4.4454   16.2649    5.3650 H   0  0  0  0  0  0  0  0  0  0  0  0
    5.8986   17.7257    5.2912 C   0  0  0  0  0  0  0  0  0  0  0  0
    5.6096   18.5872    6.4454 C   0  0  0  0  0  0  0  0  0  0  0  0
    4.1047   15.9717    3.0029 C   0  0  0  0  0  0  0  0  0  0  0  0
    3.5625   16.9237    2.3570 O   0  0  0  0  0  0  0  0  0  0  0  0
    3.7214   14.8029    3.2351 O   0  5  0  0  0  0  0  0  0  0  0  0
  1  2  1  0  0  0  0
  1  9  1  0  0  0  0
  3  2  1  6  0  0  0
  3  4  1  0  0  0  0
  3  8  1  0  0  0  0
  4  5  1  0  0  0  0
  5  6  1  0  0  0  0
  5 10  1  6  0  0  0
  6  7  1  0  0  0  0
  6  8  2  0  0  0  0
  8  9  1  0  0  0  0
 10 11  2  0  0  0  0
 10 12  1  0  0  0  0
M  CHG  2   6   1  12  -1
M  END
>  <CHROM.0>
-57.06230996,-60.73677131,-67.30929723,-47.84417341,-176.25885923,-63.26978615
-68.07208054,-59.96259463,-169.23514351

>  <CHROM.1>
-9.51497750,5.37772030,17.46236093,4.20849569,0.53624931,0.96823319,1.58485571

>  <Name>
P59176407

>  <RI>
4.17015e+07

>  <Rbt.Current_Directory>
/home/fstefaniak/projects/zuza/docking/adenine/4XNR

>  <Rbt.Executable>
rbdock ($Id: //depot/dev/client3/rdock/2013.1/src/exe/rbdock.cxx#4 $)

>  <Rbt.Library>
libRbt.so (2013.1, Build901 2013/11/27)

>  <Rbt.Parameter_File>
/home/fstefaniak/progs/rDock//data/scripts/dock_solv.prm

>  <Rbt.Receptor>
4xnr.prm

>  <SCORE>
-40.6492

>  <SCORE.INTER>
-19.0153

>  <SCORE.INTER.CONST>
1

>  <SCORE.INTER.POLAR>
-2.26075

>  <SCORE.INTER.ROT>
1

>  <SCORE.INTER.SOLV>
22.9439

>  <SCORE.INTER.VDW>
-17.0557

>  <SCORE.INTER.norm>
-1.72867

>  <SCORE.INTRA>
-0.729251

>  <SCORE.INTRA.DIHEDRAL>
-0.0104742

>  <SCORE.INTRA.DIHEDRAL.0>
1.04839

>  <SCORE.INTRA.POLAR>
0

>  <SCORE.INTRA.POLAR.0>
0

>  <SCORE.INTRA.REPUL>
0

>  <SCORE.INTRA.REPUL.0>
0

>  <SCORE.INTRA.SOLV>
-0.749309

>  <SCORE.INTRA.SOLV.lig_0>
-44.9961

>  <SCORE.INTRA.VDW>
-0.34936

>  <SCORE.INTRA.VDW.0>
0.527518

>  <SCORE.INTRA.norm>
-0.0662956

>  <SCORE.RESTR>
0

>  <SCORE.RESTR.CAVITY>
0

>  <SCORE.RESTR.norm>
0

>  <SCORE.SYSTEM>
-20.9046

>  <SCORE.SYSTEM.CONST>
0

>  <SCORE.SYSTEM.DIHEDRAL>
4.02601

>  <SCORE.SYSTEM.POLAR>
-2.95385

>  <SCORE.SYSTEM.SOLV>
0.107115

>  <SCORE.SYSTEM.VDW>
-5.46793

>  <SCORE.SYSTEM.norm>
-1.90042

>  <SCORE.heavy>
11

>  <SCORE.norm>
-3.69538

$$$$
P59177695
 OpenBabel12072022113D
libRbt.so/2013.1/901 2013/11/27
 13 13  0  0  0  0  0  0  0  0999 V2000
    2.0757   15.7465    3.7603 C   0  0  0  0  0  0  0  0  0  0  0  0
    3.4891   16.2692    3.9336 C   0  0  2  0  0  0  0  0  0  0  0  0
    3.8810   17.3256    2.9178 C   0  0  0  0  0  0  0  0  0  0  0  0
    5.4047   17.2939    2.9514 C   0  0  2  0  0  0  0  0  0  0  0  0
    5.7771   15.8454    3.2691 C   0  0  0  0  0  0  0  0  0  0  0  0
    4.4691   15.1667    3.6432 N   0  3  0  0  0  0  0  0  0  0  0  0
    4.6133   14.5878    4.4791 H   0  0  0  0  0  0  0  0  0  0  0  0
    4.1579   14.5671    2.8731 H   0  0  0  0  0  0  0  0  0  0  0  0
    6.0504   18.0164    4.1641 C   0  0  0  0  0  0  0  0  0  0  0  0
    7.0822   18.6931    3.9121 O   0  0  0  0  0  0  0  0  0  0  0  0
    5.5473   17.6959    5.2791 O   0  5  0  0  0  0  0  0  0  0  0  0
    5.9526   17.7241    1.6941 O   0  0  0  0  0  0  0  0  0  0  0  0
    5.5999   18.5907    1.4445 H   0  0  0  0  0  0  0  0  0  0  0  0
  2  1  1  6  0  0  0
  2  3  1  0  0  0  0
  2  6  1  0  0  0  0
  3  4  1  0  0  0  0
  4  5  1  0  0  0  0
  4 12  1  6  0  0  0
  4  9  1  0  0  0  0
  5  6  1  0  0  0  0
  6  7  1  0  0  0  0
  6  8  1  0  0  0  0
  9 10  2  0  0  0  0
  9 11  1  0  0  0  0
 12 13  1  0  0  0  0
M  CHG  2   6   1  11  -1
M  END
>  <CHROM.0>
-59.26525847,-177.25241228,-64.10570346,-46.12845508,-175.91668816,-62.12364031
-70.24760035,-59.37087011,-166.60844413

>  <CHROM.1>
53.94943718,-139.38039729,4.98820973,16.97656753,3.54129422,3.09668859,-0.62163749
-1.68553638

>  <Name>
P59177695

>  <RI>
1.00763e+07

>  <Rbt.Current_Directory>
/home/fstefaniak/projects/zuza/docking/adenine/4XNR

>  <Rbt.Executable>
rbdock ($Id: //depot/dev/client3/rdock/2013.1/src/exe/rbdock.cxx#4 $)

>  <Rbt.Library>
libRbt.so (2013.1, Build901 2013/11/27)

>  <Rbt.Parameter_File>
/home/fstefaniak/progs/rDock//data/scripts/dock_solv.prm

>  <Rbt.Receptor>
4xnr.prm

>  <SCORE>
-43.4511

>  <SCORE.INTER>
-21.6084

>  <SCORE.INTER.CONST>
1

>  <SCORE.INTER.POLAR>
-4.09847

>  <SCORE.INTER.ROT>
1

>  <SCORE.INTER.SOLV>
21.5812

>  <SCORE.INTER.VDW>
-12.2045

>  <SCORE.INTER.norm>
-2.16084

>  <SCORE.INTRA>
-1.18479

>  <SCORE.INTRA.DIHEDRAL>
-1.89242

>  <SCORE.INTRA.DIHEDRAL.0>
3.19685

>  <SCORE.INTRA.POLAR>
0

>  <SCORE.INTRA.POLAR.0>
0

>  <SCORE.INTRA.REPUL>
0

>  <SCORE.INTRA.REPUL.0>
0

>  <SCORE.INTRA.SOLV>
0.810038

>  <SCORE.INTRA.SOLV.lig_0>
-47.9083

>  <SCORE.INTRA.VDW>
-0.643597

>  <SCORE.INTRA.VDW.0>
1.3151

>  <SCORE.INTRA.norm>
-0.118479

>  <SCORE.RESTR>
0

>  <SCORE.RESTR.CAVITY>
0

>  <SCORE.RESTR.norm>
0

>  <SCORE.SYSTEM>
-20.6579

>  <SCORE.SYSTEM.CONST>
0

>  <SCORE.SYSTEM.DIHEDRAL>
4.48595

>  <SCORE.SYSTEM.POLAR>
-2.99429

>  <SCORE.SYSTEM.SOLV>
0.0850419

>  <SCORE.SYSTEM.VDW>
-5.31464

>  <SCORE.SYSTEM.norm>
-2.06579

>  <SCORE.heavy>
10

>  <SCORE.norm>
-4.34511

$$$$
P59177695
 OpenBabel12072022113D
libRbt.so/2013.1/901 2013/11/27
 13 13  0  0  0  0  0  0  0  0999 V2000
    2.0590   15.7077    3.7727 C   0  0  0  0  0  0  0  0  0  0  0  0
    3.4691   16.2401    3.9439 C   0  0  2  0  0  0  0  0  0  0  0  0
    3.8537   17.2962    2.9251 C   0  0  0  0  0  0  0  0  0  0  0  0
    5.3776   17.2744    2.9581 C   0  0  2  0  0  0  0  0  0  0  0  0
    5.7596   15.8293    3.2795 C   0  0  0  0  0  0  0  0  0  0  0  0
    4.4561   15.1431    3.6560 N   0  3  0  0  0  0  0  0  0  0  0  0
    4.6044   14.5674    4.4934 H   0  0  0  0  0  0  0  0  0  0  0  0
    4.1484   14.5395    2.8877 H   0  0  0  0  0  0  0  0  0  0  0  0
    6.0191   18.0044    4.1685 C   0  0  0  0  0  0  0  0  0  0  0  0
    5.5339   17.7244    5.2965 O   0  0  0  0  0  0  0  0  0  0  0  0
    6.8388   18.9112    3.8447 O   0  5  0  0  0  0  0  0  0  0  0  0
    5.9221   17.7048    1.6993 O   0  0  0  0  0  0  0  0  0  0  0  0
    5.6122   18.5951    1.4777 H   0  0  0  0  0  0  0  0  0  0  0  0
  2  1  1  6  0  0  0
  2  3  1  0  0  0  0
  2  6  1  0  0  0  0
  3  4  1  0  0  0  0
  4  5  1  0  0  0  0
  4 12  1  6  0  0  0
  4  9  1  0  0  0  0
  5  6  1  0  0  0  0
  6  7  1  0  0  0  0
  6  8  1  0  0  0  0
  9 10  2  0  0  0  0
  9 11  1  0  0  0  0
 12 13  1  0  0  0  0
M  CHG  2   6   1  11  -1
M  END
>  <CHROM.0>
-56.71343398,-173.60965976,-66.66496694,-45.65964265,60.02111655,-61.44195156
-68.94453831,-61.94186333,-168.89756271

>  <CHROM.1>
57.92971585,47.94391356,4.94256761,16.98541999,3.54284952,3.05812630,-0.66588280
-1.75440170

>  <Name>
P59177695

>  <RI>
1.00763e+07

>  <Rbt.Current_Directory>
/home/fstefaniak/projects/zuza/docking/adenine/4XNR

>  <Rbt.Executable>
rbdock ($Id: //depot/dev/client3/rdock/2013.1/src/exe/rbdock.cxx#4 $)

>  <Rbt.Library>
libRbt.so (2013.1, Build901 2013/11/27)

>  <Rbt.Parameter_File>
/home/fstefaniak/progs/rDock//data/scripts/dock_solv.prm

>  <Rbt.Receptor>
4xnr.prm

>  <SCORE>
-42.2823

>  <SCORE.INTER>
-20.9846

>  <SCORE.INTER.CONST>
1

>  <SCORE.INTER.POLAR>
-4.00298

>  <SCORE.INTER.ROT>
1

>  <SCORE.INTER.SOLV>
21.6912

>  <SCORE.INTER.VDW>
-12.1435

>  <SCORE.INTER.norm>
-2.09846

>  <SCORE.INTRA>
-1.59712

>  <SCORE.INTRA.DIHEDRAL>
-2.13542

>  <SCORE.INTRA.DIHEDRAL.0>
3.19685

>  <SCORE.INTRA.POLAR>
0

>  <SCORE.INTRA.POLAR.0>
0

>  <SCORE.INTRA.REPUL>
0

>  <SCORE.INTRA.REPUL.0>
0

>  <SCORE.INTRA.SOLV>
0.751961

>  <SCORE.INTRA.SOLV.lig_0>
-47.9083

>  <SCORE.INTRA.VDW>
-0.905388

>  <SCORE.INTRA.VDW.0>
1.3151

>  <SCORE.INTRA.norm>
-0.159712

>  <SCORE.RESTR>
0

>  <SCORE.RESTR.CAVITY>
0

>  <SCORE.RESTR.norm>
0

>  <SCORE.SYSTEM>
-19.7006

>  <SCORE.SYSTEM.CONST>
0

>  <SCORE.SYSTEM.DIHEDRAL>
4.45658

>  <SCORE.SYSTEM.POLAR>
-3.00212

>  <SCORE.SYSTEM.SOLV>
0.0502222

>  <SCORE.SYSTEM.VDW>
-4.62892

>  <SCORE.SYSTEM.norm>
-1.97006

>  <SCORE.heavy>
10

>  <SCORE.norm>
-4.22823

$$$$
P59177695
 OpenBabel12072022113D
libRbt.so/2013.1/901 2013/11/27
 13 13  0  0  0  0  0  0  0  0999 V2000
    3.8425   14.9687    3.5627 C   0  0  0  0  0  0  0  0  0  0  0  0
    4.5492   16.2548    3.1786 C   0  0  2  0  0  0  0  0  0  0  0  0
    6.0579   16.1923    3.3237 C   0  0  0  0  0  0  0  0  0  0  0  0
    6.4621   17.6601    3.4029 C   0  0  2  0  0  0  0  0  0  0  0  0
    5.2942   18.3699    4.0884 C   0  0  0  0  0  0  0  0  0  0  0  0
    4.1785   17.3390    4.1520 N   0  3  0  0  0  0  0  0  0  0  0  0
    3.2927   17.7791    3.8761 H   0  0  0  0  0  0  0  0  0  0  0  0
    4.0896   16.9841    5.1089 H   0  0  0  0  0  0  0  0  0  0  0  0
    6.4810   18.4106    2.0442 C   0  0  0  0  0  0  0  0  0  0  0  0
    6.0155   17.7753    1.0615 O   0  0  0  0  0  0  0  0  0  0  0  0
    7.1146   19.5046    2.0716 O   0  5  0  0  0  0  0  0  0  0  0  0
    7.6877   17.8137    4.1379 O   0  0  0  0  0  0  0  0  0  0  0  0
    8.4204   17.3779    3.6785 H   0  0  0  0  0  0  0  0  0  0  0  0
  2  1  1  1  0  0  0
  2  3  1  0  0  0  0
  2  6  1  0  0  0  0
  3  4  1  0  0  0  0
  4  5  1  0  0  0  0
  4 12  1  1  0  0  0
  4  9  1  0  0  0  0
  5  6  1  0  0  0  0
  6  7  1  0  0  0  0
  6  8  1  0  0  0  0
  9 10  2  0  0  0  0
  9 11  1  0  0  0  0
 12 13  1  0  0  0  0
M  CHG  2   6   1  11  -1
M  END
>  <CHROM.0>
-62.25328814,50.44096584,-72.08432222,-47.11329908,-56.36443027,-63.76773436
-66.10165633,-62.12859841,-168.27357638

>  <CHROM.1>
63.98518093,7.92655163,5.78141901,17.44027032,3.11103123,2.70171482,0.73384258
1.75749476

>  <Name>
P59177695

>  <RI>
1.00763e+07

>  <Rbt.Current_Directory>
/home/fstefaniak/projects/zuza/docking/adenine/4XNR

>  <Rbt.Executable>
rbdock ($Id: //depot/dev/client3/rdock/2013.1/src/exe/rbdock.cxx#4 $)

>  <Rbt.Library>
libRbt.so (2013.1, Build901 2013/11/27)

>  <Rbt.Parameter_File>
/home/fstefaniak/progs/rDock//data/scripts/dock_solv.prm

>  <Rbt.Receptor>
4xnr.prm

>  <SCORE>
-42.2234

>  <SCORE.INTER>
-20.1142

>  <SCORE.INTER.CONST>
1

>  <SCORE.INTER.POLAR>
-4.18757

>  <SCORE.INTER.ROT>
1

>  <SCORE.INTER.SOLV>
25.4953

>  <SCORE.INTER.VDW>
-12.216

>  <SCORE.INTER.norm>
-2.01142

>  <SCORE.INTRA>
-2.11837

>  <SCORE.INTRA.DIHEDRAL>
-2.32097

>  <SCORE.INTRA.DIHEDRAL.0>
3.19685

>  <SCORE.INTRA.POLAR>
0

>  <SCORE.INTRA.POLAR.0>
0

>  <SCORE.INTRA.REPUL>
0

>  <SCORE.INTRA.REPUL.0>
0

>  <SCORE.INTRA.SOLV>
0.260425

>  <SCORE.INTRA.SOLV.lig_0>
-47.9083

>  <SCORE.INTRA.VDW>
-1.0881

>  <SCORE.INTRA.VDW.0>
1.3151

>  <SCORE.INTRA.norm>
-0.211837

>  <SCORE.RESTR>
0

>  <SCORE.RESTR.CAVITY>
0

>  <SCORE.RESTR.norm>
0

>  <SCORE.SYSTEM>
-19.9908

>  <SCORE.SYSTEM.CONST>
0

>  <SCORE.SYSTEM.DIHEDRAL>
4.92462

>  <SCORE.SYSTEM.POLAR>
-2.98886

>  <SCORE.SYSTEM.SOLV>
0.376283

>  <SCORE.SYSTEM.VDW>
-5.13131

>  <SCORE.SYSTEM.norm>
-1.99908

>  <SCORE.heavy>
10

>  <SCORE.norm>
-4.22234

$$$$
P59177859
 OpenBabel12072022113D
libRbt.so/2013.1/901 2013/11/27
 11 11  0  0  0  0  0  0  0  0999 V2000
    5.2276   17.8685    5.2951 C   0  0  0  0  0  0  0  0  0  0  0  0
    6.2446   18.8212    5.9200 C   0  0  0  0  0  0  0  0  0  0  0  0
    7.6239   18.6366    5.2878 C   0  0  1  0  0  0  0  0  0  0  0  0
    7.5563   18.8121    3.8771 O   0  0  0  0  0  0  0  0  0  0  0  0
    6.7083   17.8360    3.2568 C   0  0  0  0  0  0  0  0  0  0  0  0
    5.2844   17.9772    3.7728 C   0  0  1  0  0  0  0  0  0  0  0  0
    4.4359   16.9084    3.1519 N   0  3  0  0  0  0  0  0  0  0  0  0
    4.8425   15.7410    3.2144 O   0  0  0  0  0  0  0  0  0  0  0  0
    3.3806   17.2735    2.6205 O   0  5  0  0  0  0  0  0  0  0  0  0
    8.5203   19.5961    5.8066 O   0  0  0  0  0  0  0  0  0  0  0  0
    8.2057   20.4507    5.4689 H   0  0  0  0  0  0  0  0  0  0  0  0
  1  2  1  0  0  0  0
  1  6  1  0  0  0  0
  2  3  1  0  0  0  0
  3  4  1  0  0  0  0
  3 10  1  1  0  0  0
  4  5  1  0  0  0  0
  5  6  1  0  0  0  0
  6  7  1  6  0  0  0
  7  8  2  0  0  0  0
  7  9  1  0  0  0  0
 10 11  1  0  0  0  0
M  CHG  2   7   1   9  -1
M  END
>  <CHROM.0>
-57.10535626,-61.37055385,-67.29792890,-46.41673535,-177.59358590,-62.76511909
-68.55402296,-60.49853970,-168.38424308

>  <CHROM.1>
-67.69166776,-71.50197457,5.99636200,17.95453369,4.20648062,2.45678036,-0.33589282
-1.98262090

>  <Name>
P59177859

>  <RI>
4.17015e+07

>  <Rbt.Current_Directory>
/home/fstefaniak/projects/zuza/docking/adenine/4XNR

>  <Rbt.Executable>
rbdock ($Id: //depot/dev/client3/rdock/2013.1/src/exe/rbdock.cxx#4 $)

>  <Rbt.Library>
libRbt.so (2013.1, Build901 2013/11/27)

>  <Rbt.Parameter_File>
/home/fstefaniak/progs/rDock//data/scripts/dock_solv.prm

>  <Rbt.Receptor>
4xnr.prm

>  <SCORE>
-45.6585

>  <SCORE.INTER>
-24.7754

>  <SCORE.INTER.CONST>
1

>  <SCORE.INTER.POLAR>
-2.84966

>  <SCORE.INTER.ROT>
1

>  <SCORE.INTER.SOLV>
10.0102

>  <SCORE.INTER.VDW>
-14.6215

>  <SCORE.INTER.norm>
-2.47754

>  <SCORE.INTRA>
0.0881109

>  <SCORE.INTRA.DIHEDRAL>
-0.0282755

>  <SCORE.INTRA.DIHEDRAL.0>
2.72381

>  <SCORE.INTRA.POLAR>
0

>  <SCORE.INTRA.POLAR.0>
0

>  <SCORE.INTRA.REPUL>
0

>  <SCORE.INTRA.REPUL.0>
0

>  <SCORE.INTRA.SOLV>
0.00260366

>  <SCORE.INTRA.SOLV.lig_0>
-10.8276

>  <SCORE.INTRA.VDW>
0.100947

>  <SCORE.INTRA.VDW.0>
0.156365

>  <SCORE.INTRA.norm>
0.00881109

>  <SCORE.RESTR>
0

>  <SCORE.RESTR.CAVITY>
0

>  <SCORE.RESTR.norm>
0

>  <SCORE.SYSTEM>
-20.9713

>  <SCORE.SYSTEM.CONST>
0

>  <SCORE.SYSTEM.DIHEDRAL>
4.26113

>  <SCORE.SYSTEM.POLAR>
-2.99917

>  <SCORE.SYSTEM.SOLV>
0.1082

>  <SCORE.SYSTEM.VDW>
-5.44007

>  <SCORE.SYSTEM.norm>
-2.09713

>  <SCORE.heavy>
10

>  <SCORE.norm>
-4.56585

$$$$
P59177859
 OpenBabel12072022113D
libRbt.so/2013.1/901 2013/11/27
 11 11  0  0  0  0  0  0  0  0999 V2000
    5.2233   17.8611    5.2775 C   0  0  0  0  0  0  0  0  0  0  0  0
    6.2395   18.8100    5.9094 C   0  0  0  0  0  0  0  0  0  0  0  0
    7.6090   18.6609    5.2473 C   0  0  1  0  0  0  0  0  0  0  0  0
    7.5129   18.8734    3.8433 O   0  0  0  0  0  0  0  0  0  0  0  0
    6.6660   17.9033    3.2122 C   0  0  0  0  0  0  0  0  0  0  0  0
    5.2503   18.0117    3.7578 C   0  0  1  0  0  0  0  0  0  0  0  0
    4.4040   16.9488    3.1237 N   0  3  0  0  0  0  0  0  0  0  0  0
    4.7889   15.7759    3.2137 O   0  0  0  0  0  0  0  0  0  0  0  0
    3.3724   17.3242    2.5545 O   0  5  0  0  0  0  0  0  0  0  0  0
    8.5026   19.6178    5.7755 O   0  0  0  0  0  0  0  0  0  0  0  0
    8.1836   20.4750    5.4489 H   0  0  0  0  0  0  0  0  0  0  0  0
  1  2  1  0  0  0  0
  1  6  1  0  0  0  0
  2  3  1  0  0  0  0
  3  4  1  0  0  0  0
  3 10  1  1  0  0  0
  4  5  1  0  0  0  0
  5  6  1  0  0  0  0
  6  7  1  6  0  0  0
  7  8  2  0  0  0  0
  7  9  1  0  0  0  0
 10 11  1  0  0  0  0
M  CHG  2   7   1   9  -1
M  END
>  <CHROM.0>
-56.91391109,-62.62169565,-66.11443529,-48.46809996,-57.71276534,-63.57721375
-68.14180193,-61.37310557,-168.10379752

>  <CHROM.1>
-69.05058689,-67.45661198,5.97055256,17.98670858,4.17749333,2.48360276,-0.38563805
-1.90877424

>  <Name>
P59177859

>  <RI>
4.17015e+07

>  <Rbt.Current_Directory>
/home/fstefaniak/projects/zuza/docking/adenine/4XNR

>  <Rbt.Executable>
rbdock ($Id: //depot/dev/client3/rdock/2013.1/src/exe/rbdock.cxx#4 $)

>  <Rbt.Library>
libRbt.so (2013.1, Build901 2013/11/27)

>  <Rbt.Parameter_File>
/home/fstefaniak/progs/rDock//data/scripts/dock_solv.prm

>  <Rbt.Receptor>
4xnr.prm

>  <SCORE>
-45.6193

>  <SCORE.INTER>
-24.7236

>  <SCORE.INTER.CONST>
1

>  <SCORE.INTER.POLAR>
-2.83002

>  <SCORE.INTER.ROT>
1

>  <SCORE.INTER.SOLV>
10.0254

>  <SCORE.INTER.VDW>
-14.6575

>  <SCORE.INTER.norm>
-2.47236

>  <SCORE.INTRA>
0.0610542

>  <SCORE.INTRA.DIHEDRAL>
0.0784979

>  <SCORE.INTRA.DIHEDRAL.0>
2.72381

>  <SCORE.INTRA.POLAR>
0

>  <SCORE.INTRA.POLAR.0>
0

>  <SCORE.INTRA.REPUL>
0

>  <SCORE.INTRA.REPUL.0>
0

>  <SCORE.INTRA.SOLV>
0.00181213

>  <SCORE.INTRA.SOLV.lig_0>
-10.8276

>  <SCORE.INTRA.VDW>
0.0208992

>  <SCORE.INTRA.VDW.0>
0.156365

>  <SCORE.INTRA.norm>
0.00610542

>  <SCORE.RESTR>
0

>  <SCORE.RESTR.CAVITY>
0

>  <SCORE.RESTR.norm>
0

>  <SCORE.SYSTEM>
-20.9567

>  <SCORE.SYSTEM.CONST>
0

>  <SCORE.SYSTEM.DIHEDRAL>
4.01501

>  <SCORE.SYSTEM.POLAR>
-2.97667

>  <SCORE.SYSTEM.SOLV>
0.278864

>  <SCORE.SYSTEM.VDW>
-5.48019

>  <SCORE.SYSTEM.norm>
-2.09567

>  <SCORE.heavy>
10

>  <SCORE.norm>
-4.56193

$$$$
P59177859
 OpenBabel12072022113D
libRbt.so/2013.1/901 2013/11/27
 11 11  0  0  0  0  0  0  0  0999 V2000
    5.1974   17.8476    5.3024 C   0  0  0  0  0  0  0  0  0  0  0  0
    6.2044   18.8169    5.9178 C   0  0  0  0  0  0  0  0  0  0  0  0
    7.5834   18.6467    5.2808 C   0  0  1  0  0  0  0  0  0  0  0  0
    7.5078   18.8133    3.8695 O   0  0  0  0  0  0  0  0  0  0  0  0
    6.6700   17.8229    3.2581 C   0  0  0  0  0  0  0  0  0  0  0  0
    5.2465   17.9485    3.7792 C   0  0  1  0  0  0  0  0  0  0  0  0
    4.4094   16.8653    3.1679 N   0  3  0  0  0  0  0  0  0  0  0  0
    4.8395   15.7058    3.2203 O   0  0  0  0  0  0  0  0  0  0  0  0
    3.3393   17.2114    2.6539 O   0  5  0  0  0  0  0  0  0  0  0  0
    8.4694   19.6206    5.7905 O   0  0  0  0  0  0  0  0  0  0  0  0
    8.1545   20.4668    5.4326 H   0  0  0  0  0  0  0  0  0  0  0  0
  1  2  1  0  0  0  0
  1  6  1  0  0  0  0
  2  3  1  0  0  0  0
  3  4  1  0  0  0  0
  3 10  1  1  0  0  0
  4  5  1  0  0  0  0
  5  6  1  0  0  0  0
  6  7  1  6  0  0  0
  7  8  2  0  0  0  0
  7  9  1  0  0  0  0
 10 11  1  0  0  0  0
M  CHG  2   7   1   9  -1
M  END
>  <CHROM.0>
-56.23776623,-63.63986366,-68.95497133,-47.59838321,-60.21235142,-62.36426538
-67.06340082,-59.99928893,-168.27893087

>  <CHROM.1>
-68.96752142,-72.39527666,5.96056419,17.93744404,4.21000981,2.45304822,-0.34358059
-1.99648287

>  <Name>
P59177859

>  <RI>
4.17015e+07

>  <Rbt.Current_Directory>
/home/fstefaniak/projects/zuza/docking/adenine/4XNR

>  <Rbt.Executable>
rbdock ($Id: //depot/dev/client3/rdock/2013.1/src/exe/rbdock.cxx#4 $)

>  <Rbt.Library>
libRbt.so (2013.1, Build901 2013/11/27)

>  <Rbt.Parameter_File>
/home/fstefaniak/progs/rDock//data/scripts/dock_solv.prm

>  <Rbt.Receptor>
4xnr.prm

>  <SCORE>
-45.6044

>  <SCORE.INTER>
-24.8452

>  <SCORE.INTER.CONST>
1

>  <SCORE.INTER.POLAR>
-2.86227

>  <SCORE.INTER.ROT>
1

>  <SCORE.INTER.SOLV>
9.98656

>  <SCORE.INTER.VDW>
-14.6181

>  <SCORE.INTER.norm>
-2.48452

>  <SCORE.INTRA>
0.137537

>  <SCORE.INTRA.DIHEDRAL>
0.073623

>  <SCORE.INTRA.DIHEDRAL.0>
2.72381

>  <SCORE.INTRA.POLAR>
0

>  <SCORE.INTRA.POLAR.0>
0

>  <SCORE.INTRA.REPUL>
0

>  <SCORE.INTRA.REPUL.0>
0

>  <SCORE.INTRA.SOLV>
0.0034904

>  <SCORE.INTRA.SOLV.lig_0>
-10.8276

>  <SCORE.INTRA.VDW>
0.09898

>  <SCORE.INTRA.VDW.0>
0.156365

>  <SCORE.INTRA.norm>
0.0137537

>  <SCORE.RESTR>
0

>  <SCORE.RESTR.CAVITY>
0

>  <SCORE.RESTR.norm>
0

>  <SCORE.SYSTEM>
-20.8967

>  <SCORE.SYSTEM.CONST>
0

>  <SCORE.SYSTEM.DIHEDRAL>
4.19524

>  <SCORE.SYSTEM.POLAR>
-2.98682

>  <SCORE.SYSTEM.SOLV>
0.280801

>  <SCORE.SYSTEM.VDW>
-5.46706

>  <SCORE.SYSTEM.norm>
-2.08967

>  <SCORE.heavy>
10

>  <SCORE.norm>
-4.56044

$$$$
P59177909
 OpenBabel12072022113D
libRbt.so/2013.1/901 2013/11/27
 11 11  0  0  0  0  0  0  0  0999 V2000
    5.4955   15.5461    3.2593 C   0  0  0  0  0  0  0  0  0  0  0  0
    5.3956   17.0389    3.5949 C   0  0  2  0  0  0  0  0  0  0  0  0
    6.5323   17.8102    2.8203 C   0  0  2  0  0  0  0  0  0  0  0  0
    6.6344   19.1772    3.2359 O   0  0  0  0  0  0  0  0  0  0  0  0
    6.8302   19.2451    4.6506 C   0  0  0  0  0  0  0  0  0  0  0  0
    5.6769   18.5678    5.3849 C   0  0  0  0  0  0  0  0  0  0  0  0
    5.5723   17.1862    5.0154 O   0  0  0  0  0  0  0  0  0  0  0  0
    6.2930   17.8028    1.4172 O   0  0  0  0  0  0  0  0  0  0  0  0
    4.1327   17.5788    3.1513 O   0  0  0  0  0  0  0  0  0  0  0  0
    2.9896   16.8567    3.5868 C   0  0  0  0  0  0  0  0  0  0  0  0
    5.6315   18.5104    1.2983 H   0  0  0  0  0  0  0  0  0  0  0  0
  2  3  1  0  0  0  0
  2  7  1  0  0  0  0
  2  9  1  0  0  0  0
  2  1  1  6  0  0  0
  3  4  1  0  0  0  0
  3  8  1  6  0  0  0
  4  5  1  0  0  0  0
  5  6  1  0  0  0  0
  6  7  1  0  0  0  0
  8 11  1  0  0  0  0
  9 10  1  0  0  0  0
M  END
>  <CHROM.0>
-61.36991778,-175.40597940,-65.99306841,-46.61559637,-59.32572290,-63.56459233
-69.36424978,-56.91403979,-168.51490913

>  <CHROM.1>
51.88666126,80.03098006,5.53889962,17.68794101,3.57729946,-2.78062793,0.67856026
1.24383875

>  <Name>
P59177909

>  <RI>
4.17015e+07

>  <Rbt.Current_Directory>
/home/fstefaniak/projects/zuza/docking/adenine/4XNR

>  <Rbt.Executable>
rbdock ($Id: //depot/dev/client3/rdock/2013.1/src/exe/rbdock.cxx#4 $)

>  <Rbt.Library>
libRbt.so (2013.1, Build901 2013/11/27)

>  <Rbt.Parameter_File>
/home/fstefaniak/progs/rDock//data/scripts/dock_solv.prm

>  <Rbt.Receptor>
4xnr.prm

>  <SCORE>
-41.7452

>  <SCORE.INTER>
-23.668

>  <SCORE.INTER.CONST>
1

>  <SCORE.INTER.POLAR>
-3.81665

>  <SCORE.INTER.ROT>
1

>  <SCORE.INTER.SOLV>
9.44555

>  <SCORE.INTER.VDW>
-10.4717

>  <SCORE.INTER.norm>
-2.3668

>  <SCORE.INTRA>
2.63265

>  <SCORE.INTRA.DIHEDRAL>
1.49654

>  <SCORE.INTRA.DIHEDRAL.0>
0.69592

>  <SCORE.INTRA.POLAR>
0.212985

>  <SCORE.INTRA.POLAR.0>
-0.212985

>  <SCORE.INTRA.REPUL>
0

>  <SCORE.INTRA.REPUL.0>
0

>  <SCORE.INTRA.SOLV>
0.0310905

>  <SCORE.INTRA.SOLV.lig_0>
-9.12406

>  <SCORE.INTRA.VDW>
1.14469

>  <SCORE.INTRA.VDW.0>
3.19282

>  <SCORE.INTRA.norm>
0.263265

>  <SCORE.RESTR>
0

>  <SCORE.RESTR.CAVITY>
0

>  <SCORE.RESTR.norm>
0

>  <SCORE.SYSTEM>
-20.7098

>  <SCORE.SYSTEM.CONST>
0

>  <SCORE.SYSTEM.DIHEDRAL>
4.3143

>  <SCORE.SYSTEM.POLAR>
-2.97399

>  <SCORE.SYSTEM.SOLV>
0.253405

>  <SCORE.SYSTEM.VDW>
-5.41582

>  <SCORE.SYSTEM.norm>
-2.07098

>  <SCORE.heavy>
10

>  <SCORE.norm>
-4.17452

$$$$
P59177909
 OpenBabel12072022113D
libRbt.so/2013.1/901 2013/11/27
 11 11  0  0  0  0  0  0  0  0999 V2000
    5.4551   15.5384    3.2735 C   0  0  0  0  0  0  0  0  0  0  0  0
    5.3716   17.0288    3.6237 C   0  0  2  0  0  0  0  0  0  0  0  0
    6.4896   17.8014    2.8236 C   0  0  2  0  0  0  0  0  0  0  0  0
    6.6097   19.1645    3.2472 O   0  0  0  0  0  0  0  0  0  0  0  0
    6.8456   19.2200    4.6562 C   0  0  0  0  0  0  0  0  0  0  0  0
    5.7103   18.5418    5.4173 C   0  0  0  0  0  0  0  0  0  0  0  0
    5.5890   17.1637    5.0398 O   0  0  0  0  0  0  0  0  0  0  0  0
    6.2108   17.8065    1.4278 O   0  0  0  0  0  0  0  0  0  0  0  0
    4.0992   17.5778    3.2203 O   0  0  0  0  0  0  0  0  0  0  0  0
    2.9668   16.8326    3.6444 C   0  0  0  0  0  0  0  0  0  0  0  0
    5.5342   18.5038    1.3363 H   0  0  0  0  0  0  0  0  0  0  0  0
  2  3  1  0  0  0  0
  2  7  1  0  0  0  0
  2  9  1  0  0  0  0
  2  1  1  6  0  0  0
  3  4  1  0  0  0  0
  3  8  1  6  0  0  0
  4  5  1  0  0  0  0
  5  6  1  0  0  0  0
  6  7  1  0  0  0  0
  8 11  1  0  0  0  0
  9 10  1  0  0  0  0
M  END
>  <CHROM.0>
-62.64685645,-174.81012858,-67.21564925,-46.89862017,-61.70651658,-63.95701515
-69.61108920,-172.50489076,-168.34528704

>  <CHROM.1>
49.88757671,78.76024779,5.51740725,17.67473172,3.60353449,-2.80704430,0.68504614
1.28167118

>  <Name>
P59177909

>  <RI>
4.17015e+07

>  <Rbt.Current_Directory>
/home/fstefaniak/projects/zuza/docking/adenine/4XNR

>  <Rbt.Executable>
rbdock ($Id: //depot/dev/client3/rdock/2013.1/src/exe/rbdock.cxx#4 $)

>  <Rbt.Library>
libRbt.so (2013.1, Build901 2013/11/27)

>  <Rbt.Parameter_File>
/home/fstefaniak/progs/rDock//data/scripts/dock_solv.prm

>  <Rbt.Receptor>
4xnr.prm

>  <SCORE>
-41.7004

>  <SCORE.INTER>
-24.0093

>  <SCORE.INTER.CONST>
1

>  <SCORE.INTER.POLAR>
-3.80894

>  <SCORE.INTER.ROT>
1

>  <SCORE.INTER.SOLV>
9.3829

>  <SCORE.INTER.VDW>
-10.704

>  <SCORE.INTER.norm>
-2.40093

>  <SCORE.INTRA>
3.00614

>  <SCORE.INTRA.DIHEDRAL>
1.47854

>  <SCORE.INTRA.DIHEDRAL.0>
0.69592

>  <SCORE.INTRA.POLAR>
0.212985

>  <SCORE.INTRA.POLAR.0>
-0.212985

>  <SCORE.INTRA.REPUL>
0

>  <SCORE.INTRA.REPUL.0>
0

>  <SCORE.INTRA.SOLV>
0.0307781

>  <SCORE.INTRA.SOLV.lig_0>
-9.12406

>  <SCORE.INTRA.VDW>
1.52733

>  <SCORE.INTRA.VDW.0>
3.19282

>  <SCORE.INTRA.norm>
0.300614

>  <SCORE.RESTR>
0

>  <SCORE.RESTR.CAVITY>
0

>  <SCORE.RESTR.norm>
0

>  <SCORE.SYSTEM>
-20.6973

>  <SCORE.SYSTEM.CONST>
0

>  <SCORE.SYSTEM.DIHEDRAL>
4.67401

>  <SCORE.SYSTEM.POLAR>
-2.9588

>  <SCORE.SYSTEM.SOLV>
0.103332

>  <SCORE.SYSTEM.VDW>
-5.52797

>  <SCORE.SYSTEM.norm>
-2.06973

>  <SCORE.heavy>
10

>  <SCORE.norm>
-4.17004

$$$$
P59177909
 OpenBabel12072022113D
libRbt.so/2013.1/901 2013/11/27
 11 11  0  0  0  0  0  0  0  0999 V2000
    5.4807   15.5414    3.2768 C   0  0  0  0  0  0  0  0  0  0  0  0
    5.3855   17.0335    3.6166 C   0  0  2  0  0  0  0  0  0  0  0  0
    6.5141   17.8057    2.8312 C   0  0  2  0  0  0  0  0  0  0  0  0
    6.6217   19.1718    3.2486 O   0  0  0  0  0  0  0  0  0  0  0  0
    6.8331   19.2365    4.6612 C   0  0  0  0  0  0  0  0  0  0  0  0
    5.6874   18.5584    5.4066 C   0  0  0  0  0  0  0  0  0  0  0  0
    5.5779   17.1777    5.0353 O   0  0  0  0  0  0  0  0  0  0  0  0
    6.2595   17.8015    1.4308 O   0  0  0  0  0  0  0  0  0  0  0  0
    4.1181   17.5751    3.1880 O   0  0  0  0  0  0  0  0  0  0  0  0
    2.9809   16.8334    3.6054 C   0  0  0  0  0  0  0  0  0  0  0  0
    5.5912   18.5043    1.3217 H   0  0  0  0  0  0  0  0  0  0  0  0
  2  3  1  0  0  0  0
  2  7  1  0  0  0  0
  2  9  1  0  0  0  0
  2  1  1  6  0  0  0
  3  4  1  0  0  0  0
  3  8  1  6  0  0  0
  4  5  1  0  0  0  0
  5  6  1  0  0  0  0
  6  7  1  0  0  0  0
  8 11  1  0  0  0  0
  9 10  1  0  0  0  0
M  END
>  <CHROM.0>
-58.74696805,-174.43494485,-67.25316533,-46.64162995,-56.32397618,-174.65300520
-65.62473727,-174.90728254,-167.98467365

>  <CHROM.1>
50.33371715,79.53894122,5.52915034,17.68047996,3.59584909,-2.78673711,0.68321083
1.25984796

>  <Name>
P59177909

>  <RI>
4.17015e+07

>  <Rbt.Current_Directory>
/home/fstefaniak/projects/zuza/docking/adenine/4XNR

>  <Rbt.Executable>
rbdock ($Id: //depot/dev/client3/rdock/2013.1/src/exe/rbdock.cxx#4 $)

>  <Rbt.Library>
libRbt.so (2013.1, Build901 2013/11/27)

>  <Rbt.Parameter_File>
/home/fstefaniak/progs/rDock//data/scripts/dock_solv.prm

>  <Rbt.Receptor>
4xnr.prm

>  <SCORE>
-41.4692

>  <SCORE.INTER>
-24.0171

>  <SCORE.INTER.CONST>
1

>  <SCORE.INTER.POLAR>
-3.80063

>  <SCORE.INTER.ROT>
1

>  <SCORE.INTER.SOLV>
9.41338

>  <SCORE.INTER.VDW>
-10.7471

>  <SCORE.INTER.norm>
-2.40171

>  <SCORE.INTRA>
2.95727

>  <SCORE.INTRA.DIHEDRAL>
1.55722

>  <SCORE.INTRA.DIHEDRAL.0>
0.69592

>  <SCORE.INTRA.POLAR>
0.212985

>  <SCORE.INTRA.POLAR.0>
-0.212985

>  <SCORE.INTRA.REPUL>
0

>  <SCORE.INTRA.REPUL.0>
0

>  <SCORE.INTRA.SOLV>
0.0312959

>  <SCORE.INTRA.SOLV.lig_0>
-9.12406

>  <SCORE.INTRA.VDW>
1.43886

>  <SCORE.INTRA.VDW.0>
3.19282

>  <SCORE.INTRA.norm>
0.295727

>  <SCORE.RESTR>
0

>  <SCORE.RESTR.CAVITY>
0

>  <SCORE.RESTR.norm>
0

>  <SCORE.SYSTEM>
-20.4094

>  <SCORE.SYSTEM.CONST>
0

>  <SCORE.SYSTEM.DIHEDRAL>
4.43899

>  <SCORE.SYSTEM.POLAR>
-2.99257

>  <SCORE.SYSTEM.SOLV>
0.0208318

>  <SCORE.SYSTEM.VDW>
-5.11762

>  <SCORE.SYSTEM.norm>
-2.04094

>  <SCORE.heavy>
10

>  <SCORE.norm>
-4.14692

$$$$
P59178709
 OpenBabel12072022113D
libRbt.so/2013.1/901 2013/11/27
 12 12  0  0  0  0  0  0  0  0999 V2000
    7.3368   18.1529   -0.0434 H   0  0  0  0  0  0  0  0  0  0  0  0
    7.7793   18.3939    0.8452 N   0  0  0  0  0  0  0  0  0  0  0  0
    6.9717   18.1293    1.7937 C   0  0  0  0  0  0  0  0  0  0  0  0
    5.7139   17.6234    1.6916 N   0  0  0  0  0  0  0  0  0  0  0  0
    5.0377   17.5983    2.9865 C   0  0  0  0  0  0  0  0  0  0  0  0
    6.2249   17.6837    3.9673 C   0  0  1  0  0  0  0  0  0  0  0  0
    7.2420   18.2977    3.1118 N   0  0  0  0  0  0  0  0  0  0  0  0
    5.8613   18.4936    5.2006 C   0  0  0  0  0  0  0  0  0  0  0  0
    5.2549   17.9922    6.1467 O   0  0  0  0  0  0  0  0  0  0  0  0
    6.5193   20.1095    5.1887 Cl  0  0  0  0  0  0  0  0  0  0  0  0
    5.1775   17.8221    0.8577 H   0  0  0  0  0  0  0  0  0  0  0  0
    8.2168   18.3353    3.3818 H   0  0  0  0  0  0  0  0  0  0  0  0
  1  2  1  0  0  0  0
  2  3  2  0  0  0  0
  3  4  1  0  0  0  0
  3  7  1  0  0  0  0
  4  5  1  0  0  0  0
  4 11  1  0  0  0  0
  5  6  1  0  0  0  0
  6  7  1  0  0  0  0
  6  8  1  1  0  0  0
  7 12  1  0  0  0  0
  8  9  2  0  0  0  0
  8 10  1  0  0  0  0
M  END
>  <CHROM.0>
-58.52284108,-171.30220587,-65.07303158,-48.95773141,-59.25672360,-63.72788672
-69.33019711,-61.37755562,-167.76875169

>  <CHROM.1>
82.57197601,6.31841787,18.52257708,3.68108029,-1.29354826,0.79054792,1.09390467

>  <Name>
P59178709

>  <RI>
3.51561e+07

>  <Rbt.Current_Directory>
/home/fstefaniak/projects/zuza/docking/adenine/4XNR

>  <Rbt.Executable>
rbdock ($Id: //depot/dev/client3/rdock/2013.1/src/exe/rbdock.cxx#4 $)

>  <Rbt.Library>
libRbt.so (2013.1, Build901 2013/11/27)

>  <Rbt.Parameter_File>
/home/fstefaniak/progs/rDock//data/scripts/dock_solv.prm

>  <Rbt.Receptor>
4xnr.prm

>  <SCORE>
-55.4358

>  <SCORE.INTER>
-34.6742

>  <SCORE.INTER.CONST>
1

>  <SCORE.INTER.POLAR>
-4.00252

>  <SCORE.INTER.ROT>
1

>  <SCORE.INTER.SOLV>
13.4147

>  <SCORE.INTER.VDW>
-18.5126

>  <SCORE.INTER.norm>
-3.85269

>  <SCORE.INTRA>
-0.0826453

>  <SCORE.INTRA.DIHEDRAL>
0.5422

>  <SCORE.INTRA.DIHEDRAL.0>
1.47355

>  <SCORE.INTRA.POLAR>
0

>  <SCORE.INTRA.POLAR.0>
0

>  <SCORE.INTRA.REPUL>
0

>  <SCORE.INTRA.REPUL.0>
0

>  <SCORE.INTRA.SOLV>
0.00926992

>  <SCORE.INTRA.SOLV.lig_0>
-16.4933

>  <SCORE.INTRA.VDW>
-0.35838

>  <SCORE.INTRA.VDW.0>
-0.167551

>  <SCORE.INTRA.norm>
-0.00918281

>  <SCORE.RESTR>
0

>  <SCORE.RESTR.CAVITY>
0

>  <SCORE.RESTR.norm>
0

>  <SCORE.SYSTEM>
-20.679

>  <SCORE.SYSTEM.CONST>
0

>  <SCORE.SYSTEM.DIHEDRAL>
4.31437

>  <SCORE.SYSTEM.POLAR>
-2.95342

>  <SCORE.SYSTEM.SOLV>
0.243705

>  <SCORE.SYSTEM.VDW>
-5.46062

>  <SCORE.SYSTEM.norm>
-2.29767

>  <SCORE.heavy>
9

>  <SCORE.norm>
-6.15954

$$$$
P59178709
 OpenBabel12072022113D
libRbt.so/2013.1/901 2013/11/27
 12 12  0  0  0  0  0  0  0  0999 V2000
    7.3054   18.1493   -0.0100 H   0  0  0  0  0  0  0  0  0  0  0  0
    7.7552   18.3837    0.8768 N   0  0  0  0  0  0  0  0  0  0  0  0
    6.9464   18.1348    1.8285 C   0  0  0  0  0  0  0  0  0  0  0  0
    5.6794   17.6514    1.7315 N   0  0  0  0  0  0  0  0  0  0  0  0
    5.0074   17.6402    3.0288 C   0  0  0  0  0  0  0  0  0  0  0  0
    6.1994   17.7057    4.0053 C   0  0  1  0  0  0  0  0  0  0  0  0
    7.2243   18.3002    3.1453 N   0  0  0  0  0  0  0  0  0  0  0  0
    5.8546   18.5237    5.2387 C   0  0  0  0  0  0  0  0  0  0  0  0
    5.2460   18.0335    6.1892 O   0  0  0  0  0  0  0  0  0  0  0  0
    6.5365   20.1296    5.2194 Cl  0  0  0  0  0  0  0  0  0  0  0  0
    5.1438   17.8584    0.8991 H   0  0  0  0  0  0  0  0  0  0  0  0
    8.2005   18.3208    3.4119 H   0  0  0  0  0  0  0  0  0  0  0  0
  1  2  1  0  0  0  0
  2  3  2  0  0  0  0
  3  4  1  0  0  0  0
  3  7  1  0  0  0  0
  4  5  1  0  0  0  0
  4 11  1  0  0  0  0
  5  6  1  0  0  0  0
  6  7  1  0  0  0  0
  6  8  1  1  0  0  0
  7 12  1  0  0  0  0
  8  9  2  0  0  0  0
  8 10  1  0  0  0  0
M  END
>  <CHROM.0>
-56.49869089,-173.18228020,-73.33554484,-48.90037798,-59.65400585,-62.23389261
-172.05343843,-58.68636568,-168.09137932

>  <CHROM.1>
82.78101220,6.30606552,18.54277561,3.71704589,-1.30811821,0.77823743,1.10226550

>  <Name>
P59178709

>  <RI>
3.51561e+07

>  <Rbt.Current_Directory>
/home/fstefaniak/projects/zuza/docking/adenine/4XNR

>  <Rbt.Executable>
rbdock ($Id: //depot/dev/client3/rdock/2013.1/src/exe/rbdock.cxx#4 $)

>  <Rbt.Library>
libRbt.so (2013.1, Build901 2013/11/27)

>  <Rbt.Parameter_File>
/home/fstefaniak/progs/rDock//data/scripts/dock_solv.prm

>  <Rbt.Receptor>
4xnr.prm

>  <SCORE>
-54.9167

>  <SCORE.INTER>
-34.6827

>  <SCORE.INTER.CONST>
1

>  <SCORE.INTER.POLAR>
-3.98393

>  <SCORE.INTER.ROT>
1

>  <SCORE.INTER.SOLV>
13.3952

>  <SCORE.INTER.VDW>
-18.5738

>  <SCORE.INTER.norm>
-3.85364

>  <SCORE.INTRA>
-0.0885931

>  <SCORE.INTRA.DIHEDRAL>
0.53389

>  <SCORE.INTRA.DIHEDRAL.0>
1.47355

>  <SCORE.INTRA.POLAR>
0

>  <SCORE.INTRA.POLAR.0>
0

>  <SCORE.INTRA.REPUL>
0

>  <SCORE.INTRA.REPUL.0>
0

>  <SCORE.INTRA.SOLV>
0.00947517

>  <SCORE.INTRA.SOLV.lig_0>
-16.4933

>  <SCORE.INTRA.VDW>
-0.360276

>  <SCORE.INTRA.VDW.0>
-0.167551

>  <SCORE.INTRA.norm>
-0.00984368

>  <SCORE.RESTR>
0

>  <SCORE.RESTR.CAVITY>
0

>  <SCORE.RESTR.norm>
0

>  <SCORE.SYSTEM>
-20.1454

>  <SCORE.SYSTEM.CONST>
0

>  <SCORE.SYSTEM.DIHEDRAL>
4.71006

>  <SCORE.SYSTEM.POLAR>
-2.95136

>  <SCORE.SYSTEM.SOLV>
0.201837

>  <SCORE.SYSTEM.VDW>
-5.22972

>  <SCORE.SYSTEM.norm>
-2.23838

>  <SCORE.heavy>
9

>  <SCORE.norm>
-6.10186

$$$$
P59178709
 OpenBabel12072022113D
libRbt.so/2013.1/901 2013/11/27
 12 12  0  0  0  0  0  0  0  0999 V2000
    7.2898   18.1607   -0.0342 H   0  0  0  0  0  0  0  0  0  0  0  0
    7.7409   18.3976    0.8512 N   0  0  0  0  0  0  0  0  0  0  0  0
    6.9391   18.1370    1.8057 C   0  0  0  0  0  0  0  0  0  0  0  0
    5.6772   17.6395    1.7129 N   0  0  0  0  0  0  0  0  0  0  0  0
    5.0112   17.6171    3.0131 C   0  0  0  0  0  0  0  0  0  0  0  0
    6.2067   17.6933    3.9845 C   0  0  1  0  0  0  0  0  0  0  0  0
    7.2210   18.3018    3.1218 N   0  0  0  0  0  0  0  0  0  0  0  0
    5.8582   18.5038    5.2218 C   0  0  0  0  0  0  0  0  0  0  0  0
    5.2443   18.0087    6.1663 O   0  0  0  0  0  0  0  0  0  0  0  0
    6.5438   20.1082    5.2163 Cl  0  0  0  0  0  0  0  0  0  0  0  0
    5.1356   17.8429    0.8835 H   0  0  0  0  0  0  0  0  0  0  0  0
    8.1981   18.3326    3.3841 H   0  0  0  0  0  0  0  0  0  0  0  0
  1  2  1  0  0  0  0
  2  3  2  0  0  0  0
  3  4  1  0  0  0  0
  3  7  1  0  0  0  0
  4  5  1  0  0  0  0
  4 11  1  0  0  0  0
  5  6  1  0  0  0  0
  6  7  1  0  0  0  0
  6  8  1  1  0  0  0
  7 12  1  0  0  0  0
  8  9  2  0  0  0  0
  8 10  1  0  0  0  0
M  END
>  <CHROM.0>
-57.30669335,-173.12460004,-72.90805252,-46.53845440,-177.39458209,-63.08384417
-171.81186848,-63.88470124,-168.69688792

>  <CHROM.1>
81.82817183,6.30628864,18.53061713,3.70039135,-1.31244049,0.78109989,1.11033699

>  <Name>
P59178709

>  <RI>
3.51561e+07

>  <Rbt.Current_Directory>
/home/fstefaniak/projects/zuza/docking/adenine/4XNR

>  <Rbt.Executable>
rbdock ($Id: //depot/dev/client3/rdock/2013.1/src/exe/rbdock.cxx#4 $)

>  <Rbt.Library>
libRbt.so (2013.1, Build901 2013/11/27)

>  <Rbt.Parameter_File>
/home/fstefaniak/progs/rDock//data/scripts/dock_solv.prm

>  <Rbt.Receptor>
4xnr.prm

>  <SCORE>
-54.9144

>  <SCORE.INTER>
-34.686

>  <SCORE.INTER.CONST>
1

>  <SCORE.INTER.POLAR>
-3.97918

>  <SCORE.INTER.ROT>
1

>  <SCORE.INTER.SOLV>
13.3912

>  <SCORE.INTER.VDW>
-18.5905

>  <SCORE.INTER.norm>
-3.854

>  <SCORE.INTRA>
-0.0617276

>  <SCORE.INTRA.DIHEDRAL>
0.571373

>  <SCORE.INTRA.DIHEDRAL.0>
1.47355

>  <SCORE.INTRA.POLAR>
0

>  <SCORE.INTRA.POLAR.0>
0

>  <SCORE.INTRA.REPUL>
0

>  <SCORE.INTRA.REPUL.0>
0

>  <SCORE.INTRA.SOLV>
0.00852538

>  <SCORE.INTRA.SOLV.lig_0>
-16.4933

>  <SCORE.INTRA.VDW>
-0.351677

>  <SCORE.INTRA.VDW.0>
-0.167551

>  <SCORE.INTRA.norm>
-0.00685862

>  <SCORE.RESTR>
0

>  <SCORE.RESTR.CAVITY>
0

>  <SCORE.RESTR.norm>
0

>  <SCORE.SYSTEM>
-20.1666

>  <SCORE.SYSTEM.CONST>
0

>  <SCORE.SYSTEM.DIHEDRAL>
4.97209

>  <SCORE.SYSTEM.POLAR>
-2.97073

>  <SCORE.SYSTEM.SOLV>
0.0237321

>  <SCORE.SYSTEM.VDW>
-5.20728

>  <SCORE.SYSTEM.norm>
-2.24074

>  <SCORE.heavy>
9

>  <SCORE.norm>
-6.1016

$$$$
P59182810
 OpenBabel12072022113D
libRbt.so/2013.1/901 2013/11/27
 13 13  0  0  0  0  0  0  0  0999 V2000
    4.4831   16.6124    4.2327 C   0  0  0  0  0  0  0  0  0  0  0  0
    5.0468   17.3821    5.2502 C   0  0  0  0  0  0  0  0  0  0  0  0
    6.1934   18.1544    5.0133 C   0  0  0  0  0  0  0  0  0  0  0  0
    6.7674   18.1317    3.7299 C   0  0  0  0  0  0  0  0  0  0  0  0
    6.2135   17.3512    2.6905 C   0  0  0  0  0  0  0  0  0  0  0  0
    5.0619   16.6009    2.9619 C   0  0  0  0  0  0  0  0  0  0  0  0
    6.7092   17.3120    1.3986 N   0  0  0  0  0  0  0  0  0  0  0  0
    7.6085   18.1339    1.1846 O   0  0  0  0  0  0  0  0  0  0  0  0
    7.8778   18.9273    3.5418 O   0  0  0  0  0  0  0  0  0  0  0  0
    6.7950   18.9660    6.1320 C   0  0  0  0  0  0  0  0  0  0  0  0
    8.2137   18.9652    6.0539 O   0  0  0  0  0  0  0  0  0  0  0  0
    8.3160   19.0352    4.4100 H   0  0  0  0  0  0  0  0  0  0  0  0
    8.5111   19.5775    6.7547 H   0  0  0  0  0  0  0  0  0  0  0  0
  1  2  2  0  0  0  0
  1  6  1  0  0  0  0
  2  3  1  0  0  0  0
  3  4  2  0  0  0  0
  3 10  1  0  0  0  0
  4  5  1  0  0  0  0
  4  9  1  0  0  0  0
  5  6  2  0  0  0  0
  5  7  1  0  0  0  0
  7  8  2  0  0  0  0
  9 12  1  0  0  0  0
 10 11  1  0  0  0  0
 11 13  1  0  0  0  0
M  END
>  <CHROM.0>
-64.28332385,-62.02912313,-68.33534484,-43.46688955,-56.28565815,-61.38752502
-68.17945394,-178.26793087,-168.31093762

>  <CHROM.1>
143.03995374,26.59968521,-7.17801248,174.68539914,6.56736153,17.93658814
3.84414037,1.74905636,-0.55917257,-1.79317530

>  <Name>
P59182810

>  <RI>
3.4169e+07

>  <Rbt.Current_Directory>
/home/fstefaniak/projects/zuza/docking/adenine/4XNR

>  <Rbt.Executable>
rbdock ($Id: //depot/dev/client3/rdock/2013.1/src/exe/rbdock.cxx#4 $)

>  <Rbt.Library>
libRbt.so (2013.1, Build901 2013/11/27)

>  <Rbt.Parameter_File>
/home/fstefaniak/progs/rDock//data/scripts/dock_solv.prm

>  <Rbt.Receptor>
4xnr.prm

>  <SCORE>
-52.1763

>  <SCORE.INTER>
-32.794

>  <SCORE.INTER.CONST>
1

>  <SCORE.INTER.POLAR>
-4.04628

>  <SCORE.INTER.ROT>
2

>  <SCORE.INTER.SOLV>
10.7918

>  <SCORE.INTER.VDW>
-16.9057

>  <SCORE.INTER.norm>
-2.98127

>  <SCORE.INTRA>
1.31145

>  <SCORE.INTRA.DIHEDRAL>
-1.44257

>  <SCORE.INTRA.DIHEDRAL.0>
3.34367

>  <SCORE.INTRA.POLAR>
-0.274237

>  <SCORE.INTRA.POLAR.0>
-0.691028

>  <SCORE.INTRA.REPUL>
0

>  <SCORE.INTRA.REPUL.0>
0

>  <SCORE.INTRA.SOLV>
0.36759

>  <SCORE.INTRA.SOLV.lig_0>
-10.199

>  <SCORE.INTRA.VDW>
2.78135

>  <SCORE.INTRA.VDW.0>
-0.343007

>  <SCORE.INTRA.norm>
0.119223

>  <SCORE.RESTR>
0

>  <SCORE.RESTR.CAVITY>
0

>  <SCORE.RESTR.norm>
0

>  <SCORE.SYSTEM>
-20.6938

>  <SCORE.SYSTEM.CONST>
0

>  <SCORE.SYSTEM.DIHEDRAL>
4.77503

>  <SCORE.SYSTEM.POLAR>
-3.00797

>  <SCORE.SYSTEM.SOLV>
0.145002

>  <SCORE.SYSTEM.VDW>
-5.40929

>  <SCORE.SYSTEM.norm>
-1.88125

>  <SCORE.heavy>
11

>  <SCORE.norm>
-4.7433

$$$$
P59182810
 OpenBabel12072022113D
libRbt.so/2013.1/901 2013/11/27
 13 13  0  0  0  0  0  0  0  0999 V2000
    4.3913   16.8608    4.2438 C   0  0  0  0  0  0  0  0  0  0  0  0
    4.9806   17.6604    5.2230 C   0  0  0  0  0  0  0  0  0  0  0  0
    6.2028   18.3050    4.9819 C   0  0  0  0  0  0  0  0  0  0  0  0
    6.8257   18.1232    3.7345 C   0  0  0  0  0  0  0  0  0  0  0  0
    6.2461   17.3100    2.7350 C   0  0  0  0  0  0  0  0  0  0  0  0
    5.0195   16.6907    3.0083 C   0  0  0  0  0  0  0  0  0  0  0  0
    6.7899   17.1180    1.4765 N   0  0  0  0  0  0  0  0  0  0  0  0
    7.5177   18.0451    1.1013 O   0  0  0  0  0  0  0  0  0  0  0  0
    8.0120   18.7981    3.5384 O   0  0  0  0  0  0  0  0  0  0  0  0
    6.8295   19.1516    6.0604 C   0  0  0  0  0  0  0  0  0  0  0  0
    8.2385   18.9714    6.0927 O   0  0  0  0  0  0  0  0  0  0  0  0
    8.5436   18.2837    2.8979 H   0  0  0  0  0  0  0  0  0  0  0  0
    8.5615   19.5866    6.7795 H   0  0  0  0  0  0  0  0  0  0  0  0
  1  2  2  0  0  0  0
  1  6  1  0  0  0  0
  2  3  1  0  0  0  0
  3  4  2  0  0  0  0
  3 10  1  0  0  0  0
  4  5  1  0  0  0  0
  4  9  1  0  0  0  0
  5  6  2  0  0  0  0
  5  7  1  0  0  0  0
  7  8  2  0  0  0  0
  9 12  1  0  0  0  0
 10 11  1  0  0  0  0
 11 13  1  0  0  0  0
M  END
>  <CHROM.0>
-59.00491634,-63.41119396,-64.06939101,-48.07788493,178.42164354,-63.56643791
-67.52641068,-59.69508255,-167.80166771

>  <CHROM.1>
140.38374870,152.12432398,-25.30249484,177.04013045,6.57766997,17.96914744
3.83388249,1.72755761,-0.47917702,-1.84690684

>  <Name>
P59182810

>  <RI>
3.4169e+07

>  <Rbt.Current_Directory>
/home/fstefaniak/projects/zuza/docking/adenine/4XNR

>  <Rbt.Executable>
rbdock ($Id: //depot/dev/client3/rdock/2013.1/src/exe/rbdock.cxx#4 $)

>  <Rbt.Library>
libRbt.so (2013.1, Build901 2013/11/27)

>  <Rbt.Parameter_File>
/home/fstefaniak/progs/rDock//data/scripts/dock_solv.prm

>  <Rbt.Receptor>
4xnr.prm

>  <SCORE>
-51.3791

>  <SCORE.INTER>
-33.2429

>  <SCORE.INTER.CONST>
1

>  <SCORE.INTER.POLAR>
-3.97674

>  <SCORE.INTER.ROT>
2

>  <SCORE.INTER.SOLV>
10.9841

>  <SCORE.INTER.VDW>
-17.5008

>  <SCORE.INTER.norm>
-3.02208

>  <SCORE.INTRA>
2.75424

>  <SCORE.INTRA.DIHEDRAL>
-0.239289

>  <SCORE.INTRA.DIHEDRAL.0>
3.34367

>  <SCORE.INTRA.POLAR>
0.691028

>  <SCORE.INTRA.POLAR.0>
-0.691028

>  <SCORE.INTRA.REPUL>
0

>  <SCORE.INTRA.REPUL.0>
0

>  <SCORE.INTRA.SOLV>
0.199856

>  <SCORE.INTRA.SOLV.lig_0>
-10.199

>  <SCORE.INTRA.VDW>
0.424464

>  <SCORE.INTRA.VDW.0>
-0.343007

>  <SCORE.INTRA.norm>
0.250386

>  <SCORE.RESTR>
0

>  <SCORE.RESTR.CAVITY>
0

>  <SCORE.RESTR.norm>
0

>  <SCORE.SYSTEM>
-20.8905

>  <SCORE.SYSTEM.CONST>
0

>  <SCORE.SYSTEM.DIHEDRAL>
3.91333

>  <SCORE.SYSTEM.POLAR>
-2.96428

>  <SCORE.SYSTEM.SOLV>
0.108137

>  <SCORE.SYSTEM.VDW>
-5.38656

>  <SCORE.SYSTEM.norm>
-1.89914

>  <SCORE.heavy>
11

>  <SCORE.norm>
-4.67083

$$$$
P59182810
 OpenBabel12072022113D
libRbt.so/2013.1/901 2013/11/27
 13 13  0  0  0  0  0  0  0  0999 V2000
    4.3689   16.8814    4.2054 C   0  0  0  0  0  0  0  0  0  0  0  0
    4.9680   17.6552    5.1993 C   0  0  0  0  0  0  0  0  0  0  0  0
    6.1923   18.2985    4.9664 C   0  0  0  0  0  0  0  0  0  0  0  0
    6.8076   18.1418    3.7117 C   0  0  0  0  0  0  0  0  0  0  0  0
    6.2180   17.3550    2.6971 C   0  0  0  0  0  0  0  0  0  0  0  0
    4.9895   16.7362    2.9629 C   0  0  0  0  0  0  0  0  0  0  0  0
    6.7539   17.1888    1.4316 N   0  0  0  0  0  0  0  0  0  0  0  0
    7.5209   18.0979    1.0918 O   0  0  0  0  0  0  0  0  0  0  0  0
    7.9965   18.8146    3.5246 O   0  0  0  0  0  0  0  0  0  0  0  0
    6.8296   19.1167    6.0604 C   0  0  0  0  0  0  0  0  0  0  0  0
    8.2384   18.9332    6.0767 O   0  0  0  0  0  0  0  0  0  0  0  0
    8.5462   18.2816    2.9153 H   0  0  0  0  0  0  0  0  0  0  0  0
    8.5707   19.5478    6.7596 H   0  0  0  0  0  0  0  0  0  0  0  0
  1  2  2  0  0  0  0
  1  6  1  0  0  0  0
  2  3  1  0  0  0  0
  3  4  2  0  0  0  0
  3 10  1  0  0  0  0
  4  5  1  0  0  0  0
  4  9  1  0  0  0  0
  5  6  2  0  0  0  0
  5  7  1  0  0  0  0
  7  8  2  0  0  0  0
  9 12  1  0  0  0  0
 10 11  1  0  0  0  0
 11 13  1  0  0  0  0
M  END
>  <CHROM.0>
-60.37863240,-62.94700659,-64.82238268,-45.87234663,-60.53044020,-62.63387691
-68.49214407,-174.05358717,-167.81925381

>  <CHROM.1>
140.66741572,148.42299150,-22.96659527,175.58656177,6.56320369,17.98504837
3.81052957,1.73241339,-0.47261704,-1.82578558

>  <Name>
P59182810

>  <RI>
3.4169e+07

>  <Rbt.Current_Directory>
/home/fstefaniak/projects/zuza/docking/adenine/4XNR

>  <Rbt.Executable>
rbdock ($Id: //depot/dev/client3/rdock/2013.1/src/exe/rbdock.cxx#4 $)

>  <Rbt.Library>
libRbt.so (2013.1, Build901 2013/11/27)

>  <Rbt.Parameter_File>
/home/fstefaniak/progs/rDock//data/scripts/dock_solv.prm

>  <Rbt.Receptor>
4xnr.prm

>  <SCORE>
-51.2878

>  <SCORE.INTER>
-33.3129

>  <SCORE.INTER.CONST>
1

>  <SCORE.INTER.POLAR>
-3.9626

>  <SCORE.INTER.ROT>
2

>  <SCORE.INTER.SOLV>
10.9222

>  <SCORE.INTER.VDW>
-17.574

>  <SCORE.INTER.norm>
-3.02845

>  <SCORE.INTRA>
2.87573

>  <SCORE.INTRA.DIHEDRAL>
-0.118277

>  <SCORE.INTRA.DIHEDRAL.0>
3.34367

>  <SCORE.INTRA.POLAR>
0.691028

>  <SCORE.INTRA.POLAR.0>
-0.691028

>  <SCORE.INTRA.REPUL>
0

>  <SCORE.INTRA.REPUL.0>
0

>  <SCORE.INTRA.SOLV>
0.212784

>  <SCORE.INTRA.SOLV.lig_0>
-10.199

>  <SCORE.INTRA.VDW>
0.478977

>  <SCORE.INTRA.VDW.0>
-0.343007

>  <SCORE.INTRA.norm>
0.26143

>  <SCORE.RESTR>
0

>  <SCORE.RESTR.CAVITY>
0

>  <SCORE.RESTR.norm>
0

>  <SCORE.SYSTEM>
-20.8506

>  <SCORE.SYSTEM.CONST>
0

>  <SCORE.SYSTEM.DIHEDRAL>
4.3695

>  <SCORE.SYSTEM.POLAR>
-2.99262

>  <SCORE.SYSTEM.SOLV>
0.144066

>  <SCORE.SYSTEM.VDW>
-5.42954

>  <SCORE.SYSTEM.norm>
-1.89551

>  <SCORE.heavy>
11

>  <SCORE.norm>
-4.66253

$$$$
P59185642
 OpenBabel12072022113D
libRbt.so/2013.1/901 2013/11/27
 13 13  0  0  0  0  0  0  0  0999 V2000
    4.7900   15.8421    3.7773 C   0  0  0  0  0  0  0  0  0  0  0  0
    3.9357   14.6308    3.6107 C   0  0  1  0  0  0  0  0  0  0  0  0
    3.1711   14.0842    4.7827 C   0  0  0  0  0  0  0  0  0  0  0  0
    2.4192   14.7095    3.6261 C   0  0  1  0  0  0  0  0  0  0  0  0
    1.7278   16.0279    3.7714 C   0  0  0  0  0  0  0  0  0  0  0  0
    1.9005   16.9431    2.9777 O   0  0  0  0  0  0  0  0  0  0  0  0
    0.8537   16.1192    4.8153 N   0  0  0  0  0  0  0  0  0  0  0  0
    1.7709   13.7874    2.7148 O   0  0  0  0  0  0  0  0  0  0  0  0
    0.5849   13.2481    3.1110 C   0  0  0  0  0  0  0  0  0  0  0  0
    0.0823   13.3810    4.2207 O   0  0  0  0  0  0  0  0  0  0  0  0
    0.0002   12.4093    2.0165 C   0  0  0  0  0  0  0  0  0  0  0  0
    1.1818   15.8370    5.7364 H   0  0  0  0  0  0  0  0  0  0  0  0
   -0.1196   15.9526    4.6008 H   0  0  0  0  0  0  0  0  0  0  0  0
  2  1  1  1  0  0  0
  2  3  1  0  0  0  0
  2  4  1  0  0  0  0
  3  4  1  0  0  0  0
  4  5  1  1  0  0  0
  4  8  1  0  0  0  0
  5  6  2  0  0  0  0
  5  7  1  0  0  0  0
  7 12  1  0  0  0  0
  7 13  1  0  0  0  0
  8  9  1  0  0  0  0
  9 10  2  0  0  0  0
  9 11  1  0  0  0  0
M  END
>  <CHROM.0>
-54.54774506,-171.40510157,-65.15807375,-45.31583449,-56.34846362,-64.29166812
-66.01840455,-171.54978167,-167.13653692

>  <CHROM.1>
58.74532195,145.06348459,50.65698156,-7.11206467,1.89386751,14.66365545,3.58780741
-0.73132426,0.01172901,-2.85381042

>  <Name>
P59185642

>  <RI>
3.4169e+07

>  <Rbt.Current_Directory>
/home/fstefaniak/projects/zuza/docking/adenine/4XNR

>  <Rbt.Executable>
rbdock ($Id: //depot/dev/client3/rdock/2013.1/src/exe/rbdock.cxx#4 $)

>  <Rbt.Library>
libRbt.so (2013.1, Build901 2013/11/27)

>  <Rbt.Parameter_File>
/home/fstefaniak/progs/rDock//data/scripts/dock_solv.prm

>  <Rbt.Receptor>
4xnr.prm

>  <SCORE>
-44.6757

>  <SCORE.INTER>
-26.1326

>  <SCORE.INTER.CONST>
1

>  <SCORE.INTER.POLAR>
-3.41216

>  <SCORE.INTER.ROT>
4

>  <SCORE.INTER.SOLV>
9.18618

>  <SCORE.INTER.VDW>
-15.3766

>  <SCORE.INTER.norm>
-2.37569

>  <SCORE.INTRA>
1.916

>  <SCORE.INTRA.DIHEDRAL>
0.360604

>  <SCORE.INTRA.DIHEDRAL.0>
4.59859

>  <SCORE.INTRA.POLAR>
0.5561

>  <SCORE.INTRA.POLAR.0>
-0.5561

>  <SCORE.INTRA.REPUL>
0

>  <SCORE.INTRA.REPUL.0>
0

>  <SCORE.INTRA.SOLV>
-0.0442805

>  <SCORE.INTRA.SOLV.lig_0>
-9.29848

>  <SCORE.INTRA.VDW>
-0.132906

>  <SCORE.INTRA.VDW.0>
-1.69037

>  <SCORE.INTRA.norm>
0.174182

>  <SCORE.RESTR>
0

>  <SCORE.RESTR.CAVITY>
0

>  <SCORE.RESTR.norm>
0

>  <SCORE.SYSTEM>
-20.4591

>  <SCORE.SYSTEM.CONST>
0

>  <SCORE.SYSTEM.DIHEDRAL>
5.07923

>  <SCORE.SYSTEM.POLAR>
-3.0526

>  <SCORE.SYSTEM.SOLV>
0.133616

>  <SCORE.SYSTEM.VDW>
-5.20171

>  <SCORE.SYSTEM.norm>
-1.85992

>  <SCORE.heavy>
11

>  <SCORE.norm>
-4.06143

$$$$
P59185642
 OpenBabel12072022113D
libRbt.so/2013.1/901 2013/11/27
 13 13  0  0  0  0  0  0  0  0999 V2000
    3.3326   14.8747    3.5314 C   0  0  0  0  0  0  0  0  0  0  0  0
    4.4405   15.6881    4.1106 C   0  0  1  0  0  0  0  0  0  0  0  0
    5.7390   15.8255    3.3675 C   0  0  0  0  0  0  0  0  0  0  0  0
    4.8386   17.0328    3.5279 C   0  0  1  0  0  0  0  0  0  0  0  0
    4.0952   17.6072    2.3640 C   0  0  0  0  0  0  0  0  0  0  0  0
    2.9590   18.0485    2.4725 O   0  0  0  0  0  0  0  0  0  0  0  0
    4.7899   17.6540    1.1903 N   0  0  0  0  0  0  0  0  0  0  0  0
    5.2501   18.0072    4.5191 O   0  0  0  0  0  0  0  0  0  0  0  0
    6.2926   18.8225    4.1980 C   0  0  0  0  0  0  0  0  0  0  0  0
    6.8547   18.8577    3.1098 O   0  0  0  0  0  0  0  0  0  0  0  0
    6.7056   19.6357    5.3862 C   0  0  0  0  0  0  0  0  0  0  0  0
    5.2785   18.5168    0.9611 H   0  0  0  0  0  0  0  0  0  0  0  0
    4.4072   17.1218    0.4214 H   0  0  0  0  0  0  0  0  0  0  0  0
  2  1  1  6  0  0  0
  2  3  1  0  0  0  0
  2  4  1  0  0  0  0
  3  4  1  0  0  0  0
  4  5  1  6  0  0  0
  4  8  1  0  0  0  0
  5  6  2  0  0  0  0
  5  7  1  0  0  0  0
  7 12  1  0  0  0  0
  7 13  1  0  0  0  0
  8  9  1  0  0  0  0
  9 10  2  0  0  0  0
  9 11  1  0  0  0  0
M  END
>  <CHROM.0>
-57.46410537,-62.29564278,-64.47113142,-47.33881508,59.37132380,59.29420344
-66.20811188,-59.85447207,-167.96762608

>  <CHROM.1>
71.79250951,141.42377695,-94.42610420,4.94053689,5.02632477,17.49070537,3.40838573
-2.83881339,-0.84890736,-0.73512114

>  <Name>
P59185642

>  <RI>
3.4169e+07

>  <Rbt.Current_Directory>
/home/fstefaniak/projects/zuza/docking/adenine/4XNR

>  <Rbt.Executable>
rbdock ($Id: //depot/dev/client3/rdock/2013.1/src/exe/rbdock.cxx#4 $)

>  <Rbt.Library>
libRbt.so (2013.1, Build901 2013/11/27)

>  <Rbt.Parameter_File>
/home/fstefaniak/progs/rDock//data/scripts/dock_solv.prm

>  <Rbt.Receptor>
4xnr.prm

>  <SCORE>
-41.9793

>  <SCORE.INTER>
-25.2086

>  <SCORE.INTER.CONST>
1

>  <SCORE.INTER.POLAR>
-3.7405

>  <SCORE.INTER.ROT>
4

>  <SCORE.INTER.SOLV>
11.264

>  <SCORE.INTER.VDW>
-14.3587

>  <SCORE.INTER.norm>
-2.29169

>  <SCORE.INTRA>
2.09064

>  <SCORE.INTRA.DIHEDRAL>
0.81302

>  <SCORE.INTRA.DIHEDRAL.0>
4.59859

>  <SCORE.INTRA.POLAR>
0.5561

>  <SCORE.INTRA.POLAR.0>
-0.5561

>  <SCORE.INTRA.REPUL>
0

>  <SCORE.INTRA.REPUL.0>
0

>  <SCORE.INTRA.SOLV>
-0.177905

>  <SCORE.INTRA.SOLV.lig_0>
-9.29848

>  <SCORE.INTRA.VDW>
-0.117655

>  <SCORE.INTRA.VDW.0>
-1.69037

>  <SCORE.INTRA.norm>
0.190058

>  <SCORE.RESTR>
0

>  <SCORE.RESTR.CAVITY>
0

>  <SCORE.RESTR.norm>
0

>  <SCORE.SYSTEM>
-18.8614

>  <SCORE.SYSTEM.CONST>
0

>  <SCORE.SYSTEM.DIHEDRAL>
3.84115

>  <SCORE.SYSTEM.POLAR>
-2.98872

>  <SCORE.SYSTEM.SOLV>
-0.0423767

>  <SCORE.SYSTEM.VDW>
-3.87813

>  <SCORE.SYSTEM.norm>
-1.71467

>  <SCORE.heavy>
11

>  <SCORE.norm>
-3.8163

$$$$
P59185642
 OpenBabel12072022113D
libRbt.so/2013.1/901 2013/11/27
 13 13  0  0  0  0  0  0  0  0999 V2000
    3.3432   14.8752    3.4818 C   0  0  0  0  0  0  0  0  0  0  0  0
    4.4440   15.6856    4.0788 C   0  0  1  0  0  0  0  0  0  0  0  0
    5.7482   15.8344    3.3481 C   0  0  0  0  0  0  0  0  0  0  0  0
    4.8431   17.0375    3.5137 C   0  0  1  0  0  0  0  0  0  0  0  0
    4.1077   17.6221    2.3498 C   0  0  0  0  0  0  0  0  0  0  0  0
    2.9765   18.0763    2.4576 O   0  0  0  0  0  0  0  0  0  0  0  0
    4.8043   17.6626    1.1770 N   0  0  0  0  0  0  0  0  0  0  0  0
    5.2435   18.0025    4.5185 O   0  0  0  0  0  0  0  0  0  0  0  0
    6.2710   18.8397    4.2058 C   0  0  0  0  0  0  0  0  0  0  0  0
    6.8770   18.8497    3.1408 O   0  0  0  0  0  0  0  0  0  0  0  0
    6.6064   19.7149    5.3742 C   0  0  0  0  0  0  0  0  0  0  0  0
    5.2835   18.5280    0.9382 H   0  0  0  0  0  0  0  0  0  0  0  0
    4.4293   17.1167    0.4139 H   0  0  0  0  0  0  0  0  0  0  0  0
  2  1  1  6  0  0  0
  2  3  1  0  0  0  0
  2  4  1  0  0  0  0
  3  4  1  0  0  0  0
  4  5  1  6  0  0  0
  4  8  1  0  0  0  0
  5  6  2  0  0  0  0
  5  7  1  0  0  0  0
  7 12  1  0  0  0  0
  7 13  1  0  0  0  0
  8  9  1  0  0  0  0
  9 10  2  0  0  0  0
  9 11  1  0  0  0  0
M  END
>  <CHROM.0>
-58.90352811,60.13588741,-65.41957910,-47.19692601,56.99238956,-62.32005748
-67.22425167,58.04917626,-168.37169853

>  <CHROM.1>
72.85095859,142.54552681,-95.95601077,0.57880320,5.02344871,17.50406533,3.39678209
-2.82135041,-0.86625499,-0.71802638

>  <Name>
P59185642

>  <RI>
3.4169e+07

>  <Rbt.Current_Directory>
/home/fstefaniak/projects/zuza/docking/adenine/4XNR

>  <Rbt.Executable>
rbdock ($Id: //depot/dev/client3/rdock/2013.1/src/exe/rbdock.cxx#4 $)

>  <Rbt.Library>
libRbt.so (2013.1, Build901 2013/11/27)

>  <Rbt.Parameter_File>
/home/fstefaniak/progs/rDock//data/scripts/dock_solv.prm

>  <Rbt.Receptor>
4xnr.prm

>  <SCORE>
-41.0356

>  <SCORE.INTER>
-24.8975

>  <SCORE.INTER.CONST>
1

>  <SCORE.INTER.POLAR>
-3.74264

>  <SCORE.INTER.ROT>
4

>  <SCORE.INTER.SOLV>
11.2417

>  <SCORE.INTER.VDW>
-14.1367

>  <SCORE.INTER.norm>
-2.26341

>  <SCORE.INTRA>
1.94401

>  <SCORE.INTRA.DIHEDRAL>
0.51858

>  <SCORE.INTRA.DIHEDRAL.0>
4.59859

>  <SCORE.INTRA.POLAR>
0.5561

>  <SCORE.INTRA.POLAR.0>
-0.5561

>  <SCORE.INTRA.REPUL>
0

>  <SCORE.INTRA.REPUL.0>
0

>  <SCORE.INTRA.SOLV>
-0.180904

>  <SCORE.INTRA.SOLV.lig_0>
-9.29848

>  <SCORE.INTRA.VDW>
-0.115573

>  <SCORE.INTRA.VDW.0>
-1.69037

>  <SCORE.INTRA.norm>
0.176728

>  <SCORE.RESTR>
0

>  <SCORE.RESTR.CAVITY>
0

>  <SCORE.RESTR.norm>
0

>  <SCORE.SYSTEM>
-18.0822

>  <SCORE.SYSTEM.CONST>
0

>  <SCORE.SYSTEM.DIHEDRAL>
3.94952

>  <SCORE.SYSTEM.POLAR>
-2.9745

>  <SCORE.SYSTEM.SOLV>
-0.0211352

>  <SCORE.SYSTEM.VDW>
-3.44924

>  <SCORE.SYSTEM.norm>
-1.64383

>  <SCORE.heavy>
11

>  <SCORE.norm>
-3.73051

$$$$
P59188741
 OpenBabel12072022113D
libRbt.so/2013.1/901 2013/11/27
 12 12  0  0  0  0  0  0  0  0999 V2000
    5.6813   17.5801    5.9705 C   0  0  0  0  0  0  0  0  0  0  0  0
    6.5027   18.8401    6.2160 C   0  0  2  0  0  0  0  0  0  0  0  0
    7.0285   19.2625    4.9313 N   0  3  0  0  0  0  0  0  0  0  0  0
    7.4385   20.1930    4.8955 H   0  0  0  0  0  0  0  0  0  0  0  0
    7.8243   18.6175    4.6972 H   0  0  0  0  0  0  0  0  0  0  0  0
    6.1154   18.9554    3.7621 C   0  0  2  0  0  0  0  0  0  0  0  0
    4.7625   17.9849    4.4787 S   0  0  0  0  0  0  0  0  0  0  0  0
    6.8663   18.0221    2.7517 C   0  0  0  0  0  0  0  0  0  0  0  0
    6.3433   16.9252    2.4567 O   0  0  0  0  0  0  0  0  0  0  0  0
    7.8968   18.6325    2.3009 O   0  5  0  0  0  0  0  0  0  0  0  0
    7.5419   18.6363    7.1394 O   0  0  0  0  0  0  0  0  0  0  0  0
    7.1438   18.5441    8.0227 H   0  0  0  0  0  0  0  0  0  0  0  0
  1  2  1  0  0  0  0
  1  7  1  0  0  0  0
  2  3  1  0  0  0  0
  2 11  1  1  0  0  0
  3  4  1  0  0  0  0
  3  5  1  0  0  0  0
  3  6  1  0  0  0  0
  6  7  1  0  0  0  0
  6  8  1  6  0  0  0
  8  9  2  0  0  0  0
  8 10  1  0  0  0  0
 11 12  1  0  0  0  0
M  CHG  2   3   1  10  -1
M  END
>  <CHROM.0>
-49.02128503,-61.90632653,-64.31525493,-47.03450568,-58.93977645,-60.38109295
-66.97086930,-57.73210014,-167.55149915

>  <CHROM.1>
-72.03315471,123.25002179,6.35979286,18.27778888,4.47466333,1.60197096,0.38566759
1.40295482

>  <Name>
P59188741

>  <RI>
1.00763e+07

>  <Rbt.Current_Directory>
/home/fstefaniak/projects/zuza/docking/adenine/4XNR

>  <Rbt.Executable>
rbdock ($Id: //depot/dev/client3/rdock/2013.1/src/exe/rbdock.cxx#4 $)

>  <Rbt.Library>
libRbt.so (2013.1, Build901 2013/11/27)

>  <Rbt.Parameter_File>
/home/fstefaniak/progs/rDock//data/scripts/dock_solv.prm

>  <Rbt.Receptor>
4xnr.prm

>  <SCORE>
-42.2133

>  <SCORE.INTER>
-21.6959

>  <SCORE.INTER.CONST>
1

>  <SCORE.INTER.POLAR>
-4.75366

>  <SCORE.INTER.ROT>
1

>  <SCORE.INTER.SOLV>
25.563

>  <SCORE.INTER.VDW>
-11.4061

>  <SCORE.INTER.norm>
-2.41066

>  <SCORE.INTRA>
0.105047

>  <SCORE.INTRA.DIHEDRAL>
0.603829

>  <SCORE.INTRA.DIHEDRAL.0>
1.15482

>  <SCORE.INTRA.POLAR>
0

>  <SCORE.INTRA.POLAR.0>
0

>  <SCORE.INTRA.REPUL>
0

>  <SCORE.INTRA.REPUL.0>
0

>  <SCORE.INTRA.SOLV>
-0.546863

>  <SCORE.INTRA.SOLV.lig_0>
-48.7836

>  <SCORE.INTRA.VDW>
0.0765643

>  <SCORE.INTRA.VDW.0>
-0.120055

>  <SCORE.INTRA.norm>
0.0116719

>  <SCORE.RESTR>
0

>  <SCORE.RESTR.CAVITY>
0

>  <SCORE.RESTR.norm>
0

>  <SCORE.SYSTEM>
-20.6224

>  <SCORE.SYSTEM.CONST>
0

>  <SCORE.SYSTEM.DIHEDRAL>
4.48192

>  <SCORE.SYSTEM.POLAR>
-3.07309

>  <SCORE.SYSTEM.SOLV>
0.309309

>  <SCORE.SYSTEM.VDW>
-5.10172

>  <SCORE.SYSTEM.norm>
-2.29138

>  <SCORE.heavy>
9

>  <SCORE.norm>
-4.69036

$$$$
P59188741
 OpenBabel12072022113D
libRbt.so/2013.1/901 2013/11/27
 12 12  0  0  0  0  0  0  0  0999 V2000
    5.7192   17.5599    5.9863 C   0  0  0  0  0  0  0  0  0  0  0  0
    6.5557   18.8097    6.2330 C   0  0  2  0  0  0  0  0  0  0  0  0
    7.0575   19.2473    4.9437 N   0  3  0  0  0  0  0  0  0  0  0  0
    7.4740   20.1750    4.9129 H   0  0  0  0  0  0  0  0  0  0  0  0
    7.8429   18.5998    4.6830 H   0  0  0  0  0  0  0  0  0  0  0  0
    6.1172   18.9649    3.7899 C   0  0  2  0  0  0  0  0  0  0  0  0
    4.7721   17.9942    4.5208 S   0  0  0  0  0  0  0  0  0  0  0  0
    6.8390   18.0410    2.7499 C   0  0  0  0  0  0  0  0  0  0  0  0
    6.2660   16.9879    2.3944 O   0  0  0  0  0  0  0  0  0  0  0  0
    7.9083   18.6167    2.3464 O   0  5  0  0  0  0  0  0  0  0  0  0
    7.6126   18.5841    7.1307 O   0  0  0  0  0  0  0  0  0  0  0  0
    7.2278   18.3818    8.0015 H   0  0  0  0  0  0  0  0  0  0  0  0
  1  2  1  0  0  0  0
  1  7  1  0  0  0  0
  2  3  1  0  0  0  0
  2 11  1  1  0  0  0
  3  4  1  0  0  0  0
  3  5  1  0  0  0  0
  3  6  1  0  0  0  0
  6  7  1  0  0  0  0
  6  8  1  6  0  0  0
  8  9  2  0  0  0  0
  8 10  1  0  0  0  0
 11 12  1  0  0  0  0
M  CHG  2   3   1  10  -1
M  END
>  <CHROM.0>
-48.86330299,-62.35759606,-62.47165033,-47.55156141,-59.94718395,-61.89237974
-68.54041693,-175.28038095,-167.93514008

>  <CHROM.1>
-65.72729220,127.11864461,6.37216405,18.27424206,4.48726294,1.57180711,0.36985842
1.42554220

>  <Name>
P59188741

>  <RI>
1.00763e+07

>  <Rbt.Current_Directory>
/home/fstefaniak/projects/zuza/docking/adenine/4XNR

>  <Rbt.Executable>
rbdock ($Id: //depot/dev/client3/rdock/2013.1/src/exe/rbdock.cxx#4 $)

>  <Rbt.Library>
libRbt.so (2013.1, Build901 2013/11/27)

>  <Rbt.Parameter_File>
/home/fstefaniak/progs/rDock//data/scripts/dock_solv.prm

>  <Rbt.Receptor>
4xnr.prm

>  <SCORE>
-42.0286

>  <SCORE.INTER>
-21.3317

>  <SCORE.INTER.CONST>
1

>  <SCORE.INTER.POLAR>
-4.95882

>  <SCORE.INTER.ROT>
1

>  <SCORE.INTER.SOLV>
25.4404

>  <SCORE.INTER.VDW>
-10.4385

>  <SCORE.INTER.norm>
-2.37019

>  <SCORE.INTRA>
-0.112207

>  <SCORE.INTRA.DIHEDRAL>
0.070928

>  <SCORE.INTRA.DIHEDRAL.0>
1.15482

>  <SCORE.INTRA.POLAR>
0

>  <SCORE.INTRA.POLAR.0>
0

>  <SCORE.INTRA.REPUL>
0

>  <SCORE.INTRA.REPUL.0>
0

>  <SCORE.INTRA.SOLV>
-0.503465

>  <SCORE.INTRA.SOLV.lig_0>
-48.7836

>  <SCORE.INTRA.VDW>
0.104061

>  <SCORE.INTRA.VDW.0>
-0.120055

>  <SCORE.INTRA.norm>
-0.0124675

>  <SCORE.RESTR>
0

>  <SCORE.RESTR.CAVITY>
0

>  <SCORE.RESTR.norm>
0

>  <SCORE.SYSTEM>
-20.5847

>  <SCORE.SYSTEM.CONST>
0

>  <SCORE.SYSTEM.DIHEDRAL>
4.54712

>  <SCORE.SYSTEM.POLAR>
-3.06183

>  <SCORE.SYSTEM.SOLV>
0.164017

>  <SCORE.SYSTEM.VDW>
-5.08744

>  <SCORE.SYSTEM.norm>
-2.28719

>  <SCORE.heavy>
9

>  <SCORE.norm>
-4.66985

$$$$
P59188741
 OpenBabel12072022113D
libRbt.so/2013.1/901 2013/11/27
 12 12  0  0  0  0  0  0  0  0999 V2000
    6.6396   18.3692    3.4289 C   0  0  0  0  0  0  0  0  0  0  0  0
    6.3214   18.4592    4.9166 C   0  0  2  0  0  0  0  0  0  0  0  0
    5.1157   17.6838    5.1416 N   0  3  0  0  0  0  0  0  0  0  0  0
    4.8804   17.4870    6.1117 H   0  0  0  0  0  0  0  0  0  0  0  0
    4.3098   18.2584    4.7889 H   0  0  0  0  0  0  0  0  0  0  0  0
    4.9767   16.4840    4.2272 C   0  0  2  0  0  0  0  0  0  0  0  0
    6.3584   16.6312    3.0632 S   0  0  0  0  0  0  0  0  0  0  0  0
    3.6565   16.6201    3.3939 C   0  0  0  0  0  0  0  0  0  0  0  0
    3.7368   17.0482    2.2217 O   0  0  0  0  0  0  0  0  0  0  0  0
    2.6808   16.1415    4.0698 O   0  5  0  0  0  0  0  0  0  0  0  0
    6.1533   19.7837    5.3542 O   0  0  0  0  0  0  0  0  0  0  0  0
    5.5345   20.2239    4.7454 H   0  0  0  0  0  0  0  0  0  0  0  0
  1  2  1  0  0  0  0
  1  7  1  0  0  0  0
  2  3  1  0  0  0  0
  2 11  1  6  0  0  0
  3  4  1  0  0  0  0
  3  5  1  0  0  0  0
  3  6  1  0  0  0  0
  6  7  1  0  0  0  0
  6  8  1  6  0  0  0
  8  9  2  0  0  0  0
  8 10  1  0  0  0  0
 11 12  1  0  0  0  0
M  CHG  2   3   1  10  -1
M  END
>  <CHROM.0>
-56.66945101,71.10295241,-67.85700015,-47.11475342,-172.89417009,-60.35312001
-68.02599387,-57.84031030,-168.20667383

>  <CHROM.1>
49.58701018,99.17825747,5.19970625,17.41068856,3.88980147,-0.73646991,-0.29844260
-2.29898436

>  <Name>
P59188741

>  <RI>
1.00763e+07

>  <Rbt.Current_Directory>
/home/fstefaniak/projects/zuza/docking/adenine/4XNR

>  <Rbt.Executable>
rbdock ($Id: //depot/dev/client3/rdock/2013.1/src/exe/rbdock.cxx#4 $)

>  <Rbt.Library>
libRbt.so (2013.1, Build901 2013/11/27)

>  <Rbt.Parameter_File>
/home/fstefaniak/progs/rDock//data/scripts/dock_solv.prm

>  <Rbt.Receptor>
4xnr.prm

>  <SCORE>
-42.0275

>  <SCORE.INTER>
-22.6198

>  <SCORE.INTER.CONST>
1

>  <SCORE.INTER.POLAR>
-3.52983

>  <SCORE.INTER.ROT>
1

>  <SCORE.INTER.SOLV>
23.7668

>  <SCORE.INTER.VDW>
-15.5027

>  <SCORE.INTER.norm>
-2.51331

>  <SCORE.INTRA>
0.174362

>  <SCORE.INTRA.DIHEDRAL>
0.414497

>  <SCORE.INTRA.DIHEDRAL.0>
1.15482

>  <SCORE.INTRA.POLAR>
0

>  <SCORE.INTRA.POLAR.0>
0

>  <SCORE.INTRA.REPUL>
0

>  <SCORE.INTRA.REPUL.0>
0

>  <SCORE.INTRA.SOLV>
-0.390745

>  <SCORE.INTRA.SOLV.lig_0>
-48.7836

>  <SCORE.INTRA.VDW>
0.162486

>  <SCORE.INTRA.VDW.0>
-0.120055

>  <SCORE.INTRA.norm>
0.0193735

>  <SCORE.RESTR>
0

>  <SCORE.RESTR.CAVITY>
0

>  <SCORE.RESTR.norm>
0

>  <SCORE.SYSTEM>
-19.5821

>  <SCORE.SYSTEM.CONST>
0

>  <SCORE.SYSTEM.DIHEDRAL>
4.96291

>  <SCORE.SYSTEM.POLAR>
-2.99798

>  <SCORE.SYSTEM.SOLV>
0.142729

>  <SCORE.SYSTEM.VDW>
-4.76333

>  <SCORE.SYSTEM.norm>
-2.17579

>  <SCORE.heavy>
9

>  <SCORE.norm>
-4.66972

$$$$
P59189263
 OpenBabel12072022113D
libRbt.so/2013.1/901 2013/11/27
 14 14  0  0  0  0  0  0  0  0999 V2000
    4.8930   17.3964    4.6933 C   0  0  0  0  0  0  0  0  0  0  0  0
    5.5712   18.7148    4.3241 C   0  0  0  0  0  0  0  0  0  0  0  0
    6.8888   18.4856    3.5793 C   0  0  2  0  0  0  0  0  0  0  0  0
    6.7398   17.4687    2.4299 C   0  0  1  0  0  0  0  0  0  0  0  0
    6.0525   16.2040    2.8387 N   0  0  0  0  0  0  0  0  0  0  0  0
    4.7634   16.4751    3.4840 C   0  0  0  0  0  0  0  0  0  0  0  0
    6.0453   18.0824    1.1986 C   0  0  0  0  0  0  0  0  0  0  0  0
    4.8353   18.0937    1.0063 O   0  0  0  0  0  0  0  0  0  0  0  0
    6.9056   18.6852    0.3188 N   0  0  0  0  0  0  0  0  0  0  0  0
    7.8843   18.0241    4.5071 O   0  0  0  0  0  0  0  0  0  0  0  0
    6.6608   15.7187    3.4981 H   0  0  0  0  0  0  0  0  0  0  0  0
    7.8144   18.9552    0.6814 H   0  0  0  0  0  0  0  0  0  0  0  0
    6.8238   18.4341   -0.6562 H   0  0  0  0  0  0  0  0  0  0  0  0
    8.6776   17.7777    4.0055 H   0  0  0  0  0  0  0  0  0  0  0  0
  1  2  1  0  0  0  0
  1  6  1  0  0  0  0
  2  3  1  0  0  0  0
  3 10  1  1  0  0  0
  3  4  1  0  0  0  0
  4  5  1  0  0  0  0
  4  7  1  6  0  0  0
  5  6  1  0  0  0  0
  5 11  1  0  0  0  0
  7  8  2  0  0  0  0
  7  9  1  0  0  0  0
  9 12  1  0  0  0  0
  9 13  1  0  0  0  0
 10 14  1  0  0  0  0
M  END
>  <CHROM.0>
-55.04357953,-59.65851368,-64.71455199,-46.07969091,-58.67145221,-57.63347794
-65.06141354,-58.70487581,-167.93720051

>  <CHROM.1>
173.00280030,-89.26061136,-20.41347872,6.09583600,17.76257465,2.82998912
1.58962454,0.45840913,1.73488320

>  <Name>
P59189263

>  <RI>
2.22087e+07

>  <Rbt.Current_Directory>
/home/fstefaniak/projects/zuza/docking/adenine/4XNR

>  <Rbt.Executable>
rbdock ($Id: //depot/dev/client3/rdock/2013.1/src/exe/rbdock.cxx#4 $)

>  <Rbt.Library>
libRbt.so (2013.1, Build901 2013/11/27)

>  <Rbt.Parameter_File>
/home/fstefaniak/progs/rDock//data/scripts/dock_solv.prm

>  <Rbt.Receptor>
4xnr.prm

>  <SCORE>
-50.0678

>  <SCORE.INTER>
-29.6106

>  <SCORE.INTER.CONST>
1

>  <SCORE.INTER.POLAR>
-4.86695

>  <SCORE.INTER.ROT>
2

>  <SCORE.INTER.SOLV>
14.8787

>  <SCORE.INTER.VDW>
-13.4101

>  <SCORE.INTER.norm>
-2.96106

>  <SCORE.INTRA>
0.262886

>  <SCORE.INTRA.DIHEDRAL>
0.819301

>  <SCORE.INTRA.DIHEDRAL.0>
1.54121

>  <SCORE.INTRA.POLAR>
0.073828

>  <SCORE.INTRA.POLAR.0>
-0.073828

>  <SCORE.INTRA.REPUL>
0

>  <SCORE.INTRA.REPUL.0>
0

>  <SCORE.INTRA.SOLV>
-0.293548

>  <SCORE.INTRA.SOLV.lig_0>
-15.9899

>  <SCORE.INTRA.VDW>
-0.251006

>  <SCORE.INTRA.VDW.0>
-0.353284

>  <SCORE.INTRA.norm>
0.0262886

>  <SCORE.RESTR>
0

>  <SCORE.RESTR.CAVITY>
0

>  <SCORE.RESTR.norm>
0

>  <SCORE.SYSTEM>
-20.7201

>  <SCORE.SYSTEM.CONST>
0

>  <SCORE.SYSTEM.DIHEDRAL>
4.03875

>  <SCORE.SYSTEM.POLAR>
-3.03943

>  <SCORE.SYSTEM.SOLV>
0.313015

>  <SCORE.SYSTEM.VDW>
-5.13259

>  <SCORE.SYSTEM.norm>
-2.07201

>  <SCORE.heavy>
10

>  <SCORE.norm>
-5.00678

$$$$
P59189263
 OpenBabel12072022113D
libRbt.so/2013.1/901 2013/11/27
 14 14  0  0  0  0  0  0  0  0999 V2000
    4.8670   17.3703    4.6704 C   0  0  0  0  0  0  0  0  0  0  0  0
    5.5253   18.7041    4.3211 C   0  0  0  0  0  0  0  0  0  0  0  0
    6.8614   18.5056    3.6008 C   0  0  2  0  0  0  0  0  0  0  0  0
    6.7552   17.4922    2.4436 C   0  0  1  0  0  0  0  0  0  0  0  0
    6.0859   16.2117    2.8326 N   0  0  0  0  0  0  0  0  0  0  0  0
    4.7794   16.4532    3.4541 C   0  0  0  0  0  0  0  0  0  0  0  0
    6.0723   18.0985    1.2022 C   0  0  0  0  0  0  0  0  0  0  0  0
    4.8637   18.1132    1.0010 O   0  0  0  0  0  0  0  0  0  0  0  0
    6.9415   18.6903    0.3238 N   0  0  0  0  0  0  0  0  0  0  0  0
    7.8480   18.0592    4.5454 O   0  0  0  0  0  0  0  0  0  0  0  0
    6.6912   15.7351    3.5012 H   0  0  0  0  0  0  0  0  0  0  0  0
    7.8366   18.9884    0.6982 H   0  0  0  0  0  0  0  0  0  0  0  0
    6.8868   18.4080   -0.6446 H   0  0  0  0  0  0  0  0  0  0  0  0
    8.6649   17.8592    4.0614 H   0  0  0  0  0  0  0  0  0  0  0  0
  1  2  1  0  0  0  0
  1  6  1  0  0  0  0
  2  3  1  0  0  0  0
  3 10  1  1  0  0  0
  3  4  1  0  0  0  0
  4  5  1  0  0  0  0
  4  7  1  6  0  0  0
  5  6  1  0  0  0  0
  5 11  1  0  0  0  0
  7  8  2  0  0  0  0
  7  9  1  0  0  0  0
  9 12  1  0  0  0  0
  9 13  1  0  0  0  0
 10 14  1  0  0  0  0
M  END
>  <CHROM.0>
-58.69655816,55.80010386,-65.39038822,-48.35760492,-59.18665441,-62.58676506
-68.68112490,59.83900523,-168.14441472

>  <CHROM.1>
174.82643095,-87.51605427,-22.44796489,6.09813265,17.77016706,2.83222152
1.60950354,0.47314090,1.72882503

>  <Name>
P59189263

>  <RI>
2.22087e+07

>  <Rbt.Current_Directory>
/home/fstefaniak/projects/zuza/docking/adenine/4XNR

>  <Rbt.Executable>
rbdock ($Id: //depot/dev/client3/rdock/2013.1/src/exe/rbdock.cxx#4 $)

>  <Rbt.Library>
libRbt.so (2013.1, Build901 2013/11/27)

>  <Rbt.Parameter_File>
/home/fstefaniak/progs/rDock//data/scripts/dock_solv.prm

>  <Rbt.Receptor>
4xnr.prm

>  <SCORE>
-48.6005

>  <SCORE.INTER>
-29.6882

>  <SCORE.INTER.CONST>
1

>  <SCORE.INTER.POLAR>
-4.87853

>  <SCORE.INTER.ROT>
2

>  <SCORE.INTER.SOLV>
14.8247

>  <SCORE.INTER.VDW>
-13.4053

>  <SCORE.INTER.norm>
-2.96882

>  <SCORE.INTRA>
0.208052

>  <SCORE.INTRA.DIHEDRAL>
0.784281

>  <SCORE.INTRA.DIHEDRAL.0>
1.54121

>  <SCORE.INTRA.POLAR>
0.073828

>  <SCORE.INTRA.POLAR.0>
-0.073828

>  <SCORE.INTRA.REPUL>
0

>  <SCORE.INTRA.REPUL.0>
0

>  <SCORE.INTRA.SOLV>
-0.297173

>  <SCORE.INTRA.SOLV.lig_0>
-15.9899

>  <SCORE.INTRA.VDW>
-0.286517

>  <SCORE.INTRA.VDW.0>
-0.353284

>  <SCORE.INTRA.norm>
0.0208052

>  <SCORE.RESTR>
0

>  <SCORE.RESTR.CAVITY>
0

>  <SCORE.RESTR.norm>
0

>  <SCORE.SYSTEM>
-19.1203

>  <SCORE.SYSTEM.CONST>
0

>  <SCORE.SYSTEM.DIHEDRAL>
3.98439

>  <SCORE.SYSTEM.POLAR>
-2.96898

>  <SCORE.SYSTEM.SOLV>
0.197536

>  <SCORE.SYSTEM.VDW>
-4.24424

>  <SCORE.SYSTEM.norm>
-1.91203

>  <SCORE.heavy>
10

>  <SCORE.norm>
-4.86005

$$$$
P59189263
 OpenBabel12072022113D
libRbt.so/2013.1/901 2013/11/27
 14 14  0  0  0  0  0  0  0  0999 V2000
    4.8683   17.3729    4.6658 C   0  0  0  0  0  0  0  0  0  0  0  0
    5.5393   18.6987    4.3104 C   0  0  0  0  0  0  0  0  0  0  0  0
    6.8715   18.4841    3.5874 C   0  0  2  0  0  0  0  0  0  0  0  0
    6.7521   17.4680    2.4340 C   0  0  1  0  0  0  0  0  0  0  0  0
    6.0707   16.1956    2.8290 N   0  0  0  0  0  0  0  0  0  0  0  0
    4.7683   16.4527    3.4529 C   0  0  0  0  0  0  0  0  0  0  0  0
    6.0723   18.0770    1.1922 C   0  0  0  0  0  0  0  0  0  0  0  0
    4.8647   18.0861    0.9847 O   0  0  0  0  0  0  0  0  0  0  0  0
    6.9428   18.6782    0.3214 N   0  0  0  0  0  0  0  0  0  0  0  0
    7.8559   18.0308    4.5312 O   0  0  0  0  0  0  0  0  0  0  0  0
    6.6727   15.7152    3.4977 H   0  0  0  0  0  0  0  0  0  0  0  0
    7.8223   19.0055    0.7082 H   0  0  0  0  0  0  0  0  0  0  0  0
    6.9145   18.3798   -0.6433 H   0  0  0  0  0  0  0  0  0  0  0  0
    8.6532   17.7751    4.0408 H   0  0  0  0  0  0  0  0  0  0  0  0
  1  2  1  0  0  0  0
  1  6  1  0  0  0  0
  2  3  1  0  0  0  0
  3 10  1  1  0  0  0
  3  4  1  0  0  0  0
  4  5  1  0  0  0  0
  4  7  1  6  0  0  0
  5  6  1  0  0  0  0
  5 11  1  0  0  0  0
  7  8  2  0  0  0  0
  7  9  1  0  0  0  0
  9 12  1  0  0  0  0
  9 13  1  0  0  0  0
 10 14  1  0  0  0  0
M  END
>  <CHROM.0>
-57.50513764,-64.38793697,59.87474158,-46.90150050,-59.84497186,-67.55751754
53.41637742,-58.89217249,-167.75080601

>  <CHROM.1>
171.79016138,-88.63404489,-24.31671302,6.09870187,17.75421975,2.82364225
1.60764655,0.46827423,1.72790395

>  <Name>
P59189263

>  <RI>
2.22087e+07

>  <Rbt.Current_Directory>
/home/fstefaniak/projects/zuza/docking/adenine/4XNR

>  <Rbt.Executable>
rbdock ($Id: //depot/dev/client3/rdock/2013.1/src/exe/rbdock.cxx#4 $)

>  <Rbt.Library>
libRbt.so (2013.1, Build901 2013/11/27)

>  <Rbt.Parameter_File>
/home/fstefaniak/progs/rDock//data/scripts/dock_solv.prm

>  <Rbt.Receptor>
4xnr.prm

>  <SCORE>
-48.3435

>  <SCORE.INTER>
-29.7186

>  <SCORE.INTER.CONST>
1

>  <SCORE.INTER.POLAR>
-4.86077

>  <SCORE.INTER.ROT>
2

>  <SCORE.INTER.SOLV>
14.8796

>  <SCORE.INTER.VDW>
-13.503

>  <SCORE.INTER.norm>
-2.97186

>  <SCORE.INTRA>
0.30784

>  <SCORE.INTRA.DIHEDRAL>
0.929644

>  <SCORE.INTRA.DIHEDRAL.0>
1.54121

>  <SCORE.INTRA.POLAR>
0.073828

>  <SCORE.INTRA.POLAR.0>
-0.073828

>  <SCORE.INTRA.REPUL>
0

>  <SCORE.INTRA.REPUL.0>
0

>  <SCORE.INTRA.SOLV>
-0.294351

>  <SCORE.INTRA.SOLV.lig_0>
-15.9899

>  <SCORE.INTRA.VDW>
-0.260821

>  <SCORE.INTRA.VDW.0>
-0.353284

>  <SCORE.INTRA.norm>
0.030784

>  <SCORE.RESTR>
0

>  <SCORE.RESTR.CAVITY>
0

>  <SCORE.RESTR.norm>
0

>  <SCORE.SYSTEM>
-18.9327

>  <SCORE.SYSTEM.CONST>
0

>  <SCORE.SYSTEM.DIHEDRAL>
4.16888

>  <SCORE.SYSTEM.POLAR>
-2.98002

>  <SCORE.SYSTEM.SOLV>
0.177928

>  <SCORE.SYSTEM.VDW>
-4.13735

>  <SCORE.SYSTEM.norm>
-1.89327

>  <SCORE.heavy>
10

>  <SCORE.norm>
-4.83435

$$$$
P59189804
 OpenBabel12072022113D
libRbt.so/2013.1/901 2013/11/27
 13 13  0  0  0  0  0  0  0  0999 V2000
    4.5550   17.4617    2.3330 C   0  0  0  0  0  0  0  0  0  0  0  0
    4.2068   16.6927    3.6210 C   0  0  0  0  0  0  0  0  0  0  0  0
    5.6149   17.0942    4.1569 C   0  0  1  0  0  0  0  0  0  0  0  0
    6.0409   17.1745    2.6513 C   0  0  2  0  0  0  0  0  0  0  0  0
    7.1313   18.1804    2.2810 C   0  0  0  0  0  0  0  0  0  0  0  0
    7.7929   18.7910    3.1256 O   0  0  0  0  0  0  0  0  0  0  0  0
    7.3438   18.3918    0.9516 N   0  0  0  0  0  0  0  0  0  0  0  0
    5.6608   18.3645    5.0596 C   0  0  0  0  0  0  0  0  0  0  0  0
    6.0271   19.4769    4.6880 O   0  0  0  0  0  0  0  0  0  0  0  0
    5.2191   18.1936    6.3332 O   0  0  0  0  0  0  0  0  0  0  0  0
    6.8165   17.9310    0.2225 H   0  0  0  0  0  0  0  0  0  0  0  0
    8.0470   19.0684    0.6809 H   0  0  0  0  0  0  0  0  0  0  0  0
    4.8394   17.3029    6.5273 H   0  0  0  0  0  0  0  0  0  0  0  0
  1  2  1  0  0  0  0
  1  4  1  0  0  0  0
  2  3  1  0  0  0  0
  3  8  1  6  0  0  0
  3  4  1  0  0  0  0
  4  5  1  1  0  0  0
  5  6  2  0  0  0  0
  5  7  1  0  0  0  0
  7 11  1  0  0  0  0
  7 12  1  0  0  0  0
  8  9  2  0  0  0  0
  8 10  1  0  0  0  0
 10 13  1  0  0  0  0
M  END
>  <CHROM.0>
-56.60316579,-45.23647267,-67.95345658,-46.39150770,-175.28443762,58.65215768
-69.69231796,-63.10293555,-168.21246695

>  <CHROM.1>
-101.68952922,113.34448152,-5.30704210,5.97747994,18.02300900,3.54528959
0.97153583,-0.62119307,-1.89695678

>  <Name>
P59189804

>  <RI>
1.00763e+07

>  <Rbt.Current_Directory>
/home/fstefaniak/projects/zuza/docking/adenine/4XNR

>  <Rbt.Executable>
rbdock ($Id: //depot/dev/client3/rdock/2013.1/src/exe/rbdock.cxx#4 $)

>  <Rbt.Library>
libRbt.so (2013.1, Build901 2013/11/27)

>  <Rbt.Parameter_File>
/home/fstefaniak/progs/rDock//data/scripts/dock_solv.prm

>  <Rbt.Receptor>
4xnr.prm

>  <SCORE>
-50.3928

>  <SCORE.INTER>
-31.7558

>  <SCORE.INTER.CONST>
1

>  <SCORE.INTER.POLAR>
-4.13485

>  <SCORE.INTER.ROT>
2

>  <SCORE.INTER.SOLV>
12.8299

>  <SCORE.INTER.VDW>
-16.5976

>  <SCORE.INTER.norm>
-3.17558

>  <SCORE.INTRA>
0.390048

>  <SCORE.INTRA.DIHEDRAL>
-1.96593

>  <SCORE.INTRA.DIHEDRAL.0>
3.79962

>  <SCORE.INTRA.POLAR>
0.357849

>  <SCORE.INTRA.POLAR.0>
-0.357849

>  <SCORE.INTRA.REPUL>
0

>  <SCORE.INTRA.REPUL.0>
0

>  <SCORE.INTRA.SOLV>
-0.0983087

>  <SCORE.INTRA.SOLV.lig_0>
-13.5001

>  <SCORE.INTRA.VDW>
0.205482

>  <SCORE.INTRA.VDW.0>
-0.644389

>  <SCORE.INTRA.norm>
0.0390048

>  <SCORE.RESTR>
0

>  <SCORE.RESTR.CAVITY>
0

>  <SCORE.RESTR.norm>
0

>  <SCORE.SYSTEM>
-19.027

>  <SCORE.SYSTEM.CONST>
0

>  <SCORE.SYSTEM.DIHEDRAL>
5.51253

>  <SCORE.SYSTEM.POLAR>
-3.00657

>  <SCORE.SYSTEM.SOLV>
0.0309083

>  <SCORE.SYSTEM.VDW>
-4.51059

>  <SCORE.SYSTEM.norm>
-1.9027

>  <SCORE.heavy>
10

>  <SCORE.norm>
-5.03928

$$$$
P59189804
 OpenBabel12072022113D
libRbt.so/2013.1/901 2013/11/27
 13 13  0  0  0  0  0  0  0  0999 V2000
    5.5669   18.8013    4.9625 C   0  0  0  0  0  0  0  0  0  0  0  0
    7.0717   18.5841    4.7175 C   0  0  0  0  0  0  0  0  0  0  0  0
    6.6717   17.6347    3.5471 C   0  0  1  0  0  0  0  0  0  0  0  0
    5.3391   17.4049    4.3382 C   0  0  2  0  0  0  0  0  0  0  0  0
    4.0799   17.1053    3.5241 C   0  0  0  0  0  0  0  0  0  0  0  0
    3.9077   17.5297    2.3778 O   0  0  0  0  0  0  0  0  0  0  0  0
    3.1261   16.3430    4.1294 N   0  0  0  0  0  0  0  0  0  0  0  0
    6.6466   18.2799    2.1280 C   0  0  0  0  0  0  0  0  0  0  0  0
    7.1257   19.3757    1.8465 O   0  0  0  0  0  0  0  0  0  0  0  0
    6.0773   17.5251    1.1520 O   0  0  0  0  0  0  0  0  0  0  0  0
    3.2117   15.9875    5.0719 H   0  0  0  0  0  0  0  0  0  0  0  0
    2.2741   16.1474    3.6181 H   0  0  0  0  0  0  0  0  0  0  0  0
    6.1174   17.9155    0.2457 H   0  0  0  0  0  0  0  0  0  0  0  0
  1  2  1  0  0  0  0
  1  4  1  0  0  0  0
  2  3  1  0  0  0  0
  3  8  1  6  0  0  0
  3  4  1  0  0  0  0
  4  5  1  6  0  0  0
  5  6  2  0  0  0  0
  5  7  1  0  0  0  0
  7 11  1  0  0  0  0
  7 12  1  0  0  0  0
  8  9  2  0  0  0  0
  8 10  1  0  0  0  0
 10 13  1  0  0  0  0
M  END
>  <CHROM.0>
-56.49583184,-67.32382562,-64.35971603,-46.67259862,-64.33503560,-62.49617667
-72.77375573,56.66960739,-167.62005707

>  <CHROM.1>
13.00633233,74.47159220,-176.23017659,5.53104841,17.85498725,3.20790011,-2.77833546
-0.52435174,-1.62877966

>  <Name>
P59189804

>  <RI>
1.00763e+07

>  <Rbt.Current_Directory>
/home/fstefaniak/projects/zuza/docking/adenine/4XNR

>  <Rbt.Executable>
rbdock ($Id: //depot/dev/client3/rdock/2013.1/src/exe/rbdock.cxx#4 $)

>  <Rbt.Library>
libRbt.so (2013.1, Build901 2013/11/27)

>  <Rbt.Parameter_File>
/home/fstefaniak/progs/rDock//data/scripts/dock_solv.prm

>  <Rbt.Receptor>
4xnr.prm

>  <SCORE>
-48.2076

>  <SCORE.INTER>
-29.3997

>  <SCORE.INTER.CONST>
1

>  <SCORE.INTER.POLAR>
-3.77537

>  <SCORE.INTER.ROT>
2

>  <SCORE.INTER.SOLV>
11.1961

>  <SCORE.INTER.VDW>
-15.6806

>  <SCORE.INTER.norm>
-2.93997

>  <SCORE.INTRA>
1.03607

>  <SCORE.INTRA.DIHEDRAL>
-0.227718

>  <SCORE.INTRA.DIHEDRAL.0>
3.79962

>  <SCORE.INTRA.POLAR>
0.357849

>  <SCORE.INTRA.POLAR.0>
-0.357849

>  <SCORE.INTRA.REPUL>
0

>  <SCORE.INTRA.REPUL.0>
0

>  <SCORE.INTRA.SOLV>
-0.00282509

>  <SCORE.INTRA.SOLV.lig_0>
-13.5001

>  <SCORE.INTRA.VDW>
-0.0653475

>  <SCORE.INTRA.VDW.0>
-0.644389

>  <SCORE.INTRA.norm>
0.103607

>  <SCORE.RESTR>
0

>  <SCORE.RESTR.CAVITY>
0

>  <SCORE.RESTR.norm>
0

>  <SCORE.SYSTEM>
-19.8439

>  <SCORE.SYSTEM.CONST>
0

>  <SCORE.SYSTEM.DIHEDRAL>
4.90988

>  <SCORE.SYSTEM.POLAR>
-3.00785

>  <SCORE.SYSTEM.SOLV>
0.0916483

>  <SCORE.SYSTEM.VDW>
-4.87029

>  <SCORE.SYSTEM.norm>
-1.98439

>  <SCORE.heavy>
10

>  <SCORE.norm>
-4.82076

$$$$
P59189804
 OpenBabel12072022113D
libRbt.so/2013.1/901 2013/11/27
 13 13  0  0  0  0  0  0  0  0999 V2000
    4.5858   17.4850    2.4847 C   0  0  0  0  0  0  0  0  0  0  0  0
    4.2308   16.7889    3.8118 C   0  0  0  0  0  0  0  0  0  0  0  0
    5.6486   17.1919    4.3204 C   0  0  1  0  0  0  0  0  0  0  0  0
    6.0680   17.1877    2.8108 C   0  0  2  0  0  0  0  0  0  0  0  0
    7.1741   18.1538    2.3849 C   0  0  0  0  0  0  0  0  0  0  0  0
    7.8553   18.7895    3.1946 O   0  0  0  0  0  0  0  0  0  0  0  0
    7.3780   18.2993    1.0453 N   0  0  0  0  0  0  0  0  0  0  0  0
    5.7217   18.5054    5.1568 C   0  0  0  0  0  0  0  0  0  0  0  0
    5.6006   19.6383    4.6968 O   0  0  0  0  0  0  0  0  0  0  0  0
    5.8955   18.3387    6.4942 O   0  0  0  0  0  0  0  0  0  0  0  0
    6.8350   17.8158    0.3429 H   0  0  0  0  0  0  0  0  0  0  0  0
    8.0915   18.9487    0.7376 H   0  0  0  0  0  0  0  0  0  0  0  0
    6.1895   17.4364    6.7675 H   0  0  0  0  0  0  0  0  0  0  0  0
  1  2  1  0  0  0  0
  1  4  1  0  0  0  0
  2  3  1  0  0  0  0
  3  8  1  6  0  0  0
  3  4  1  0  0  0  0
  4  5  1  1  0  0  0
  5  6  2  0  0  0  0
  5  7  1  0  0  0  0
  7 11  1  0  0  0  0
  7 12  1  0  0  0  0
  8  9  2  0  0  0  0
  8 10  1  0  0  0  0
 10 13  1  0  0  0  0
M  END
>  <CHROM.0>
-60.14597595,-65.96966514,-75.64934249,-47.60777482,-60.00863565,-63.82170150
-173.83615440,-59.74892920,-168.31956891

>  <CHROM.1>
-72.49852434,113.72013870,15.19832945,6.04528523,18.07872089,3.66388613,1.09466894
-0.57979263,-1.88072274

>  <Name>
P59189804

>  <RI>
1.00763e+07

>  <Rbt.Current_Directory>
/home/fstefaniak/projects/zuza/docking/adenine/4XNR

>  <Rbt.Executable>
rbdock ($Id: //depot/dev/client3/rdock/2013.1/src/exe/rbdock.cxx#4 $)

>  <Rbt.Library>
libRbt.so (2013.1, Build901 2013/11/27)

>  <Rbt.Parameter_File>
/home/fstefaniak/progs/rDock//data/scripts/dock_solv.prm

>  <Rbt.Receptor>
4xnr.prm

>  <SCORE>
-47.4841

>  <SCORE.INTER>
-28.2257

>  <SCORE.INTER.CONST>
1

>  <SCORE.INTER.POLAR>
-3.4498

>  <SCORE.INTER.ROT>
2

>  <SCORE.INTER.SOLV>
12.9609

>  <SCORE.INTER.VDW>
-16.5714

>  <SCORE.INTER.norm>
-2.82257

>  <SCORE.INTRA>
1.0708

>  <SCORE.INTRA.DIHEDRAL>
1.0929

>  <SCORE.INTRA.DIHEDRAL.0>
3.79962

>  <SCORE.INTRA.POLAR>
0.357849

>  <SCORE.INTRA.POLAR.0>
-0.357849

>  <SCORE.INTRA.REPUL>
0

>  <SCORE.INTRA.REPUL.0>
0

>  <SCORE.INTRA.SOLV>
-0.149601

>  <SCORE.INTRA.SOLV.lig_0>
-13.5001

>  <SCORE.INTRA.VDW>
-0.617536

>  <SCORE.INTRA.VDW.0>
-0.644389

>  <SCORE.INTRA.norm>
0.10708

>  <SCORE.RESTR>
0

>  <SCORE.RESTR.CAVITY>
0

>  <SCORE.RESTR.norm>
0

>  <SCORE.SYSTEM>
-20.3291

>  <SCORE.SYSTEM.CONST>
0

>  <SCORE.SYSTEM.DIHEDRAL>
4.91747

>  <SCORE.SYSTEM.POLAR>
-2.92837

>  <SCORE.SYSTEM.SOLV>
0.212202

>  <SCORE.SYSTEM.VDW>
-5.50142

>  <SCORE.SYSTEM.norm>
-2.03291

>  <SCORE.heavy>
10

>  <SCORE.norm>
-4.74841

$$$$
P59190002
 OpenBabel12072022113D
libRbt.so/2013.1/901 2013/11/27
 12 13  0  0  0  0  0  0  0  0999 V2000
    3.7093   16.6751    3.7268 C   0  0  0  0  0  0  0  0  0  0  0  0
    4.1622   17.6371    2.6064 C   0  0  0  0  0  0  0  0  0  0  0  0
    5.6916   17.7187    2.8078 C   0  0  2  0  0  0  0  0  0  0  0  0
    6.0232   16.2927    3.2743 C   0  0  0  0  0  0  0  0  0  0  0  0
    5.0237   16.3141    4.4272 C   0  0  1  0  0  0  0  0  0  0  0  0
    5.4883   17.5786    5.1176 C   0  0  0  0  0  0  0  0  0  0  0  0
    5.4141   17.7940    6.3161 O   0  0  0  0  0  0  0  0  0  0  0  0
    5.9998   18.5505    4.0811 C   0  0  0  0  0  0  0  0  0  0  0  0
    6.4640   18.2001    1.6030 C   0  0  0  0  0  0  0  0  0  0  0  0
    5.9690   18.3486    0.4961 O   0  0  0  0  0  0  0  0  0  0  0  0
    7.7729   18.4348    1.8319 O   0  0  0  0  0  0  0  0  0  0  0  0
    8.3039   18.6782    1.0521 H   0  0  0  0  0  0  0  0  0  0  0  0
  1  2  1  0  0  0  0
  2  3  1  0  0  0  0
  3  4  1  0  0  0  0
  3  8  1  0  0  0  0
  3  9  1  6  0  0  0
  4  5  1  0  0  0  0
  5  1  1  6  0  0  0
  5  6  1  0  0  0  0
  6  8  1  0  0  0  0
  6  7  2  0  0  0  0
  9 10  2  0  0  0  0
  9 11  1  0  0  0  0
 11 12  1  0  0  0  0
M  END
>  <CHROM.0>
-55.29136697,53.98121653,-64.53590443,-47.22119720,-59.41457926,-63.87739009
-66.25412129,-59.24211351,-167.69367127

>  <CHROM.1>
-9.41224550,175.34061644,5.65129872,17.62401711,3.26565120,2.00081267,0.48559779
1.62014611

>  <Name>
P59190002

>  <RI>
4.17015e+07

>  <Rbt.Current_Directory>
/home/fstefaniak/projects/zuza/docking/adenine/4XNR

>  <Rbt.Executable>
rbdock ($Id: //depot/dev/client3/rdock/2013.1/src/exe/rbdock.cxx#4 $)

>  <Rbt.Library>
libRbt.so (2013.1, Build901 2013/11/27)

>  <Rbt.Parameter_File>
/home/fstefaniak/progs/rDock//data/scripts/dock_solv.prm

>  <Rbt.Receptor>
4xnr.prm

>  <SCORE>
-38.0078

>  <SCORE.INTER>
-17.9808

>  <SCORE.INTER.CONST>
1

>  <SCORE.INTER.POLAR>
-1.49839

>  <SCORE.INTER.ROT>
1

>  <SCORE.INTER.SOLV>
11.2615

>  <SCORE.INTER.VDW>
-15.013

>  <SCORE.INTER.norm>
-1.63462

>  <SCORE.INTRA>
0.017237

>  <SCORE.INTRA.DIHEDRAL>
0.271752

>  <SCORE.INTRA.DIHEDRAL.0>
0.328475

>  <SCORE.INTRA.POLAR>
0

>  <SCORE.INTRA.POLAR.0>
0

>  <SCORE.INTRA.REPUL>
0

>  <SCORE.INTRA.REPUL.0>
0

>  <SCORE.INTRA.SOLV>
0.175463

>  <SCORE.INTRA.SOLV.lig_0>
-9.35988

>  <SCORE.INTRA.VDW>
-0.206371

>  <SCORE.INTRA.VDW.0>
0.0780325

>  <SCORE.INTRA.norm>
0.001567

>  <SCORE.RESTR>
0

>  <SCORE.RESTR.CAVITY>
0

>  <SCORE.RESTR.norm>
0

>  <SCORE.SYSTEM>
-20.0443

>  <SCORE.SYSTEM.CONST>
0

>  <SCORE.SYSTEM.DIHEDRAL>
4.17563

>  <SCORE.SYSTEM.POLAR>
-3.02665

>  <SCORE.SYSTEM.SOLV>
0.391278

>  <SCORE.SYSTEM.VDW>
-4.79634

>  <SCORE.SYSTEM.norm>
-1.82221

>  <SCORE.heavy>
11

>  <SCORE.norm>
-3.45526

$$$$
P59190002
 OpenBabel12072022113D
libRbt.so/2013.1/901 2013/11/27
 12 13  0  0  0  0  0  0  0  0999 V2000
    3.7154   16.6640    3.7366 C   0  0  0  0  0  0  0  0  0  0  0  0
    4.1662   17.6407    2.6282 C   0  0  0  0  0  0  0  0  0  0  0  0
    5.6979   17.7074    2.8178 C   0  0  2  0  0  0  0  0  0  0  0  0
    6.0224   16.2715    3.2581 C   0  0  0  0  0  0  0  0  0  0  0  0
    5.0329   16.2816    4.4198 C   0  0  1  0  0  0  0  0  0  0  0  0
    5.5130   17.5311    5.1266 C   0  0  0  0  0  0  0  0  0  0  0  0
    5.4506   17.7274    6.3291 O   0  0  0  0  0  0  0  0  0  0  0  0
    6.0232   18.5159    4.1019 C   0  0  0  0  0  0  0  0  0  0  0  0
    6.4638   18.2026    1.6144 C   0  0  0  0  0  0  0  0  0  0  0  0
    5.9603   18.3746    0.5148 O   0  0  0  0  0  0  0  0  0  0  0  0
    7.7768   18.4215    1.8354 O   0  0  0  0  0  0  0  0  0  0  0  0
    8.3060   18.6583    1.0523 H   0  0  0  0  0  0  0  0  0  0  0  0
  1  2  1  0  0  0  0
  2  3  1  0  0  0  0
  3  4  1  0  0  0  0
  3  8  1  0  0  0  0
  3  9  1  6  0  0  0
  4  5  1  0  0  0  0
  5  1  1  6  0  0  0
  5  6  1  0  0  0  0
  6  8  1  0  0  0  0
  6  7  2  0  0  0  0
  9 10  2  0  0  0  0
  9 11  1  0  0  0  0
 11 12  1  0  0  0  0
M  END
>  <CHROM.0>
-58.46782465,50.40064894,-72.26037298,-48.46669791,-61.81381025,-63.93480413
-172.91708554,-61.81726127,-168.04807667

>  <CHROM.1>
-9.30847268,174.30777335,5.66076396,17.60539319,3.27434894,1.99161859,0.47670624
1.64088562

>  <Name>
P59190002

>  <RI>
4.17015e+07

>  <Rbt.Current_Directory>
/home/fstefaniak/projects/zuza/docking/adenine/4XNR

>  <Rbt.Executable>
rbdock ($Id: //depot/dev/client3/rdock/2013.1/src/exe/rbdock.cxx#4 $)

>  <Rbt.Library>
libRbt.so (2013.1, Build901 2013/11/27)

>  <Rbt.Parameter_File>
/home/fstefaniak/progs/rDock//data/scripts/dock_solv.prm

>  <Rbt.Receptor>
4xnr.prm

>  <SCORE>
-37.5853

>  <SCORE.INTER>
-18.1139

>  <SCORE.INTER.CONST>
1

>  <SCORE.INTER.POLAR>
-1.50292

>  <SCORE.INTER.ROT>
1

>  <SCORE.INTER.SOLV>
11.2752

>  <SCORE.INTER.VDW>
-15.0913

>  <SCORE.INTER.norm>
-1.64672

>  <SCORE.INTRA>
0.045121

>  <SCORE.INTRA.DIHEDRAL>
0.330143

>  <SCORE.INTRA.DIHEDRAL.0>
0.328475

>  <SCORE.INTRA.POLAR>
0

>  <SCORE.INTRA.POLAR.0>
0

>  <SCORE.INTRA.REPUL>
0

>  <SCORE.INTRA.REPUL.0>
0

>  <SCORE.INTRA.SOLV>
0.175316

>  <SCORE.INTRA.SOLV.lig_0>
-9.35988

>  <SCORE.INTRA.VDW>
-0.207609

>  <SCORE.INTRA.VDW.0>
0.0780325

>  <SCORE.INTRA.norm>
0.00410191

>  <SCORE.RESTR>
0

>  <SCORE.RESTR.CAVITY>
0

>  <SCORE.RESTR.norm>
0

>  <SCORE.SYSTEM>
-19.5165

>  <SCORE.SYSTEM.CONST>
0

>  <SCORE.SYSTEM.DIHEDRAL>
4.82187

>  <SCORE.SYSTEM.POLAR>
-2.98059

>  <SCORE.SYSTEM.SOLV>
0.327673

>  <SCORE.SYSTEM.VDW>
-4.79223

>  <SCORE.SYSTEM.norm>
-1.77423

>  <SCORE.heavy>
11

>  <SCORE.norm>
-3.41684

$$$$
P59190002
 OpenBabel12072022113D
libRbt.so/2013.1/901 2013/11/27
 12 13  0  0  0  0  0  0  0  0999 V2000
    3.6066   16.6537    3.9041 C   0  0  0  0  0  0  0  0  0  0  0  0
    4.0657   17.6905    2.8554 C   0  0  0  0  0  0  0  0  0  0  0  0
    5.5975   17.7352    3.0501 C   0  0  2  0  0  0  0  0  0  0  0  0
    5.9114   16.2738    3.4060 C   0  0  0  0  0  0  0  0  0  0  0  0
    4.9203   16.2228    4.5651 C   0  0  1  0  0  0  0  0  0  0  0  0
    5.4081   17.4253    5.3445 C   0  0  0  0  0  0  0  0  0  0  0  0
    5.3452   17.5513    6.5563 O   0  0  0  0  0  0  0  0  0  0  0  0
    5.9266   18.4648    4.3796 C   0  0  0  0  0  0  0  0  0  0  0  0
    6.3686   18.2946    1.8786 C   0  0  0  0  0  0  0  0  0  0  0  0
    7.3273   19.0428    1.9939 O   0  0  0  0  0  0  0  0  0  0  0  0
    5.8993   17.9243    0.6689 O   0  0  0  0  0  0  0  0  0  0  0  0
    6.4483   18.1767   -0.0955 H   0  0  0  0  0  0  0  0  0  0  0  0
  1  2  1  0  0  0  0
  2  3  1  0  0  0  0
  3  4  1  0  0  0  0
  3  8  1  0  0  0  0
  3  9  1  6  0  0  0
  4  5  1  0  0  0  0
  5  1  1  6  0  0  0
  5  6  1  0  0  0  0
  6  8  1  0  0  0  0
  6  7  2  0  0  0  0
  9 10  2  0  0  0  0
  9 11  1  0  0  0  0
 11 12  1  0  0  0  0
M  END
>  <CHROM.0>
-55.41466568,45.82240833,-67.82850403,-46.77777965,-57.14333246,-173.22686332
-67.11988453,-57.18678643,-168.02465151

>  <CHROM.1>
139.60023464,-172.28505380,5.51383671,17.59700925,3.46542248,1.97999064,0.64392549
1.60849540

>  <Name>
P59190002

>  <RI>
4.17015e+07

>  <Rbt.Current_Directory>
/home/fstefaniak/projects/zuza/docking/adenine/4XNR

>  <Rbt.Executable>
rbdock ($Id: //depot/dev/client3/rdock/2013.1/src/exe/rbdock.cxx#4 $)

>  <Rbt.Library>
libRbt.so (2013.1, Build901 2013/11/27)

>  <Rbt.Parameter_File>
/home/fstefaniak/progs/rDock//data/scripts/dock_solv.prm

>  <Rbt.Receptor>
4xnr.prm

>  <SCORE>
-37.285

>  <SCORE.INTER>
-18.0837

>  <SCORE.INTER.CONST>
1

>  <SCORE.INTER.POLAR>
-1.85292

>  <SCORE.INTER.ROT>
1

>  <SCORE.INTER.SOLV>
11.4873

>  <SCORE.INTER.VDW>
-13.9752

>  <SCORE.INTER.norm>
-1.64397

>  <SCORE.INTRA>
0.524938

>  <SCORE.INTRA.DIHEDRAL>
1.10533

>  <SCORE.INTRA.DIHEDRAL.0>
0.328475

>  <SCORE.INTRA.POLAR>
0

>  <SCORE.INTRA.POLAR.0>
0

>  <SCORE.INTRA.REPUL>
0

>  <SCORE.INTRA.REPUL.0>
0

>  <SCORE.INTRA.SOLV>
0.168515

>  <SCORE.INTRA.SOLV.lig_0>
-9.35988

>  <SCORE.INTRA.VDW>
-0.111987

>  <SCORE.INTRA.VDW.0>
0.0780325

>  <SCORE.INTRA.norm>
0.0477216

>  <SCORE.RESTR>
0

>  <SCORE.RESTR.CAVITY>
0

>  <SCORE.RESTR.norm>
0

>  <SCORE.SYSTEM>
-19.7263

>  <SCORE.SYSTEM.CONST>
0

>  <SCORE.SYSTEM.DIHEDRAL>
5.38182

>  <SCORE.SYSTEM.POLAR>
-3.08943

>  <SCORE.SYSTEM.SOLV>
0.305958

>  <SCORE.SYSTEM.VDW>
-4.74866

>  <SCORE.SYSTEM.norm>
-1.7933

>  <SCORE.heavy>
11

>  <SCORE.norm>
-3.38954

$$$$
P59191345
 OpenBabel12072022113D
libRbt.so/2013.1/901 2013/11/27
 11 10  0  0  0  0  0  0  0  0999 V2000
    6.1085   18.6822    5.5306 C   0  0  0  0  0  0  0  0  0  0  0  0
    6.3001   18.1605    4.1265 C   0  0  0  0  0  0  0  0  0  0  0  0
    7.1225   18.6994    3.3766 O   0  0  0  0  0  0  0  0  0  0  0  0
    5.4039   16.9512    3.7003 C   0  0  2  0  0  0  0  0  0  0  0  0
    4.0624   17.4458    3.1681 C   0  0  0  0  0  0  0  0  0  0  0  0
    5.1594   16.0761    4.8535 N   0  0  0  0  0  0  0  0  0  0  0  0
    4.3856   14.9380    4.3679 O   0  0  0  0  0  0  0  0  0  0  0  0
    6.0343   16.1796    2.7028 O   0  0  0  0  0  0  0  0  0  0  0  0
    4.5060   16.5386    5.4884 H   0  0  0  0  0  0  0  0  0  0  0  0
    3.6460   14.9213    5.0155 H   0  0  0  0  0  0  0  0  0  0  0  0
    6.5760   15.5604    3.2282 H   0  0  0  0  0  0  0  0  0  0  0  0
  1  2  1  0  0  0  0
  2  3  2  0  0  0  0
  4  6  1  0  0  0  0
  4  8  1  0  0  0  0
  4  5  1  6  0  0  0
  4  2  1  0  0  0  0
  6  7  1  0  0  0  0
  6  9  1  0  0  0  0
  7 10  1  0  0  0  0
  8 11  1  0  0  0  0
M  END
>  <CHROM.0>
-54.66011644,-61.07038819,-54.02831845,-46.73224794,-174.91735542,-62.42328275
-65.07597531,-57.37954565,-169.27211448

>  <CHROM.1>
-176.87318730,86.77137880,86.22976377,-129.46035032,5.55130428,17.07947755
3.97717000,0.41787708,0.93384034,1.09531646

>  <Name>
P59191345

>  <RI>
1.00763e+07

>  <Rbt.Current_Directory>
/home/fstefaniak/projects/zuza/docking/adenine/4XNR

>  <Rbt.Executable>
rbdock ($Id: //depot/dev/client3/rdock/2013.1/src/exe/rbdock.cxx#4 $)

>  <Rbt.Library>
libRbt.so (2013.1, Build901 2013/11/27)

>  <Rbt.Parameter_File>
/home/fstefaniak/progs/rDock//data/scripts/dock_solv.prm

>  <Rbt.Receptor>
4xnr.prm

>  <SCORE>
-45.4618

>  <SCORE.INTER>
-27.9129

>  <SCORE.INTER.CONST>
1

>  <SCORE.INTER.POLAR>
-4.62994

>  <SCORE.INTER.ROT>
2

>  <SCORE.INTER.SOLV>
12.0196

>  <SCORE.INTER.VDW>
-12.1154

>  <SCORE.INTER.norm>
-3.48912

>  <SCORE.INTRA>
2.91488

>  <SCORE.INTRA.DIHEDRAL>
1.7189

>  <SCORE.INTRA.DIHEDRAL.0>
3.39686

>  <SCORE.INTRA.POLAR>
0.278763

>  <SCORE.INTRA.POLAR.0>
-0.278763

>  <SCORE.INTRA.REPUL>
0

>  <SCORE.INTRA.REPUL.0>
0

>  <SCORE.INTRA.SOLV>
-0.672109

>  <SCORE.INTRA.SOLV.lig_0>
-16.9221

>  <SCORE.INTRA.VDW>
1.44369

>  <SCORE.INTRA.VDW.0>
0.64514

>  <SCORE.INTRA.norm>
0.364359

>  <SCORE.RESTR>
0

>  <SCORE.RESTR.CAVITY>
0

>  <SCORE.RESTR.norm>
0

>  <SCORE.SYSTEM>
-20.4637

>  <SCORE.SYSTEM.CONST>
0

>  <SCORE.SYSTEM.DIHEDRAL>
4.04802

>  <SCORE.SYSTEM.POLAR>
-3.03191

>  <SCORE.SYSTEM.SOLV>
0.144316

>  <SCORE.SYSTEM.VDW>
-4.93359

>  <SCORE.SYSTEM.norm>
-2.55797

>  <SCORE.heavy>
8

>  <SCORE.norm>
-5.68273

$$$$
P59191345
 OpenBabel12072022113D
libRbt.so/2013.1/901 2013/11/27
 11 10  0  0  0  0  0  0  0  0999 V2000
    6.2480   18.9776    5.1675 C   0  0  0  0  0  0  0  0  0  0  0  0
    6.4282   18.2512    3.8560 C   0  0  0  0  0  0  0  0  0  0  0  0
    7.2833   18.6378    3.0507 O   0  0  0  0  0  0  0  0  0  0  0  0
    5.4788   17.0362    3.5921 C   0  0  2  0  0  0  0  0  0  0  0  0
    4.1336   17.5192    3.0588 C   0  0  0  0  0  0  0  0  0  0  0  0
    5.2524   16.2954    4.8394 N   0  0  0  0  0  0  0  0  0  0  0  0
    4.6107   15.0361    4.4761 O   0  0  0  0  0  0  0  0  0  0  0  0
    6.0453   16.1430    2.6600 O   0  0  0  0  0  0  0  0  0  0  0  0
    4.5272   16.7703    5.3804 H   0  0  0  0  0  0  0  0  0  0  0  0
    4.1878   14.7861    5.3279 H   0  0  0  0  0  0  0  0  0  0  0  0
    6.5542   15.5377    3.2326 H   0  0  0  0  0  0  0  0  0  0  0  0
  1  2  1  0  0  0  0
  2  3  2  0  0  0  0
  4  6  1  0  0  0  0
  4  8  1  0  0  0  0
  4  5  1  6  0  0  0
  4  2  1  0  0  0  0
  6  7  1  0  0  0  0
  6  9  1  0  0  0  0
  7 10  1  0  0  0  0
  8 11  1  0  0  0  0
M  END
>  <CHROM.0>
-58.85489960,61.21049354,-68.54352901,-46.64445430,-176.41757102,-60.48376746
-67.88181345,-55.62729329,-168.12185126

>  <CHROM.1>
-168.04200800,89.31745569,82.47287056,-158.65785978,5.66717939,17.17013026
3.84452055,0.42301455,0.95000495,0.97776150

>  <Name>
P59191345

>  <RI>
1.00763e+07

>  <Rbt.Current_Directory>
/home/fstefaniak/projects/zuza/docking/adenine/4XNR

>  <Rbt.Executable>
rbdock ($Id: //depot/dev/client3/rdock/2013.1/src/exe/rbdock.cxx#4 $)

>  <Rbt.Library>
libRbt.so (2013.1, Build901 2013/11/27)

>  <Rbt.Parameter_File>
/home/fstefaniak/progs/rDock//data/scripts/dock_solv.prm

>  <Rbt.Receptor>
4xnr.prm

>  <SCORE>
-44.1031

>  <SCORE.INTER>
-26.674

>  <SCORE.INTER.CONST>
1

>  <SCORE.INTER.POLAR>
-4.35049

>  <SCORE.INTER.ROT>
2

>  <SCORE.INTER.SOLV>
12.4414

>  <SCORE.INTER.VDW>
-12.3614

>  <SCORE.INTER.norm>
-3.33424

>  <SCORE.INTRA>
2.60379

>  <SCORE.INTRA.DIHEDRAL>
1.82068

>  <SCORE.INTRA.DIHEDRAL.0>
3.39686

>  <SCORE.INTRA.POLAR>
0.278763

>  <SCORE.INTRA.POLAR.0>
-0.278763

>  <SCORE.INTRA.REPUL>
0

>  <SCORE.INTRA.REPUL.0>
0

>  <SCORE.INTRA.SOLV>
-0.624821

>  <SCORE.INTRA.SOLV.lig_0>
-16.9221

>  <SCORE.INTRA.VDW>
1.05807

>  <SCORE.INTRA.VDW.0>
0.64514

>  <SCORE.INTRA.norm>
0.325474

>  <SCORE.RESTR>
0

>  <SCORE.RESTR.CAVITY>
0

>  <SCORE.RESTR.norm>
0

>  <SCORE.SYSTEM>
-20.033

>  <SCORE.SYSTEM.CONST>
0

>  <SCORE.SYSTEM.DIHEDRAL>
4.34735

>  <SCORE.SYSTEM.POLAR>
-2.99134

>  <SCORE.SYSTEM.SOLV>
0.186176

>  <SCORE.SYSTEM.VDW>
-4.89535

>  <SCORE.SYSTEM.norm>
-2.50412

>  <SCORE.heavy>
8

>  <SCORE.norm>
-5.51289

$$$$
P59191345
 OpenBabel12072022113D
libRbt.so/2013.1/901 2013/11/27
 11 10  0  0  0  0  0  0  0  0999 V2000
    6.1768   18.8011    5.3194 C   0  0  0  0  0  0  0  0  0  0  0  0
    6.3895   18.1419    3.9775 C   0  0  0  0  0  0  0  0  0  0  0  0
    7.2822   18.5506    3.2257 O   0  0  0  0  0  0  0  0  0  0  0  0
    5.4239   16.9661    3.6140 C   0  0  2  0  0  0  0  0  0  0  0  0
    4.1124   17.5091    3.0551 C   0  0  0  0  0  0  0  0  0  0  0  0
    5.1312   16.1680    4.8110 N   0  0  0  0  0  0  0  0  0  0  0  0
    4.3672   15.0050    4.3711 O   0  0  0  0  0  0  0  0  0  0  0  0
    6.0067   16.1082    2.6589 O   0  0  0  0  0  0  0  0  0  0  0  0
    4.4586   16.6736    5.3906 H   0  0  0  0  0  0  0  0  0  0  0  0
    3.6653   14.9680    5.0586 H   0  0  0  0  0  0  0  0  0  0  0  0
    6.5630   15.5266    3.2117 H   0  0  0  0  0  0  0  0  0  0  0  0
  1  2  1  0  0  0  0
  2  3  2  0  0  0  0
  4  6  1  0  0  0  0
  4  8  1  0  0  0  0
  4  5  1  6  0  0  0
  4  2  1  0  0  0  0
  6  7  1  0  0  0  0
  6  9  1  0  0  0  0
  7 10  1  0  0  0  0
  8 11  1  0  0  0  0
M  END
>  <CHROM.0>
-57.16073432,-64.01411143,58.61286578,-47.15453926,-58.59616752,-176.84793716
53.35017165,-59.20282965,-167.37962871

>  <CHROM.1>
-173.16579650,82.89887973,82.68011140,-136.13217704,5.58890338,17.09356541
3.88120716,0.44606514,0.87777600,0.99883757

>  <Name>
P59191345

>  <RI>
1.00763e+07

>  <Rbt.Current_Directory>
/home/fstefaniak/projects/zuza/docking/adenine/4XNR

>  <Rbt.Executable>
rbdock ($Id: //depot/dev/client3/rdock/2013.1/src/exe/rbdock.cxx#4 $)

>  <Rbt.Library>
libRbt.so (2013.1, Build901 2013/11/27)

>  <Rbt.Parameter_File>
/home/fstefaniak/progs/rDock//data/scripts/dock_solv.prm

>  <Rbt.Receptor>
4xnr.prm

>  <SCORE>
-44.055

>  <SCORE.INTER>
-27.6588

>  <SCORE.INTER.CONST>
1

>  <SCORE.INTER.POLAR>
-4.47915

>  <SCORE.INTER.ROT>
2

>  <SCORE.INTER.SOLV>
11.9713

>  <SCORE.INTER.VDW>
-12.4325

>  <SCORE.INTER.norm>
-3.45736

>  <SCORE.INTRA>
2.31283

>  <SCORE.INTRA.DIHEDRAL>
0.875942

>  <SCORE.INTRA.DIHEDRAL.0>
3.39686

>  <SCORE.INTRA.POLAR>
0.278763

>  <SCORE.INTRA.POLAR.0>
-0.278763

>  <SCORE.INTRA.REPUL>
0

>  <SCORE.INTRA.REPUL.0>
0

>  <SCORE.INTRA.SOLV>
-0.666802

>  <SCORE.INTRA.SOLV.lig_0>
-16.9221

>  <SCORE.INTRA.VDW>
1.26046

>  <SCORE.INTRA.VDW.0>
0.64514

>  <SCORE.INTRA.norm>
0.289104

>  <SCORE.RESTR>
0

>  <SCORE.RESTR.CAVITY>
0

>  <SCORE.RESTR.norm>
0

>  <SCORE.SYSTEM>
-18.709

>  <SCORE.SYSTEM.CONST>
0

>  <SCORE.SYSTEM.DIHEDRAL>
3.97893

>  <SCORE.SYSTEM.POLAR>
-2.97991

>  <SCORE.SYSTEM.SOLV>
0.0816801

>  <SCORE.SYSTEM.VDW>
-3.89318

>  <SCORE.SYSTEM.norm>
-2.33862

>  <SCORE.heavy>
8

>  <SCORE.norm>
-5.50688

$$$$
P59192640
 OpenBabel12072022113D
libRbt.so/2013.1/901 2013/11/27
 11 11  0  0  0  0  0  0  0  0999 V2000
    2.6369   16.2864    3.6996 C   0  0  0  0  0  0  0  0  0  0  0  0
    3.9247   17.0576    3.4599 C   0  0  1  0  0  0  0  0  0  0  0  0
    5.0820   16.5865    4.3093 C   0  0  0  0  0  0  0  0  0  0  0  0
    6.2797   17.0915    3.5283 C   0  0  1  0  0  0  0  0  0  0  0  0
    5.8332   17.3243    2.1930 O   0  0  0  0  0  0  0  0  0  0  0  0
    4.4547   16.8514    2.1058 N   0  0  0  0  0  0  0  0  0  0  0  0
    3.7210   17.7715    1.2578 O   0  0  0  0  0  0  0  0  0  0  0  0
    6.8614   18.3587    4.1444 C   0  0  0  0  0  0  0  0  0  0  0  0
    7.7269   19.0104    3.5527 O   0  0  0  0  0  0  0  0  0  0  0  0
    6.4203   18.7513    5.5311 C   0  0  0  0  0  0  0  0  0  0  0  0
    4.3888   18.4716    1.1382 H   0  0  0  0  0  0  0  0  0  0  0  0
  2  1  1  6  0  0  0
  2  3  1  0  0  0  0
  2  6  1  0  0  0  0
  3  4  1  0  0  0  0
  4  5  1  0  0  0  0
  4  8  1  1  0  0  0
  5  6  1  0  0  0  0
  6  7  1  0  0  0  0
  7 11  1  0  0  0  0
  8  9  2  0  0  0  0
  8 10  1  0  0  0  0
M  END
>  <CHROM.0>
-57.07387109,-62.20240865,-59.55248373,-49.27761227,-61.06715317,-64.17365922
-67.72840827,-56.81856295,-167.94916073

>  <CHROM.1>
-170.50711021,102.87565656,5.27719100,17.53158243,3.32518105,2.77494301,-0.48293768
-1.47366497

>  <Name>
P59192640

>  <RI>
3.1908e+07

>  <Rbt.Current_Directory>
/home/fstefaniak/projects/zuza/docking/adenine/4XNR

>  <Rbt.Executable>
rbdock ($Id: //depot/dev/client3/rdock/2013.1/src/exe/rbdock.cxx#4 $)

>  <Rbt.Library>
libRbt.so (2013.1, Build901 2013/11/27)

>  <Rbt.Parameter_File>
/home/fstefaniak/progs/rDock//data/scripts/dock_solv.prm

>  <Rbt.Receptor>
4xnr.prm

>  <SCORE>
-48.0741

>  <SCORE.INTER>
-30.0622

>  <SCORE.INTER.CONST>
1

>  <SCORE.INTER.POLAR>
-4.66238

>  <SCORE.INTER.ROT>
1

>  <SCORE.INTER.SOLV>
12.5891

>  <SCORE.INTER.VDW>
-12.9633

>  <SCORE.INTER.norm>
-3.00622

>  <SCORE.INTRA>
2.73027

>  <SCORE.INTRA.DIHEDRAL>
0.30592

>  <SCORE.INTRA.DIHEDRAL.0>
2.70884

>  <SCORE.INTRA.POLAR>
0

>  <SCORE.INTRA.POLAR.0>
0

>  <SCORE.INTRA.REPUL>
0

>  <SCORE.INTRA.REPUL.0>
0

>  <SCORE.INTRA.SOLV>
-0.329134

>  <SCORE.INTRA.SOLV.lig_0>
-16.511

>  <SCORE.INTRA.VDW>
2.74188

>  <SCORE.INTRA.VDW.0>
0.150243

>  <SCORE.INTRA.norm>
0.273027

>  <SCORE.RESTR>
0

>  <SCORE.RESTR.CAVITY>
0

>  <SCORE.RESTR.norm>
0

>  <SCORE.SYSTEM>
-20.7422

>  <SCORE.SYSTEM.CONST>
0

>  <SCORE.SYSTEM.DIHEDRAL>
3.77683

>  <SCORE.SYSTEM.POLAR>
-2.96661

>  <SCORE.SYSTEM.SOLV>
0.288575

>  <SCORE.SYSTEM.VDW>
-5.29454

>  <SCORE.SYSTEM.norm>
-2.07422

>  <SCORE.heavy>
10

>  <SCORE.norm>
-4.80741

$$$$
P59192640
 OpenBabel12072022113D
libRbt.so/2013.1/901 2013/11/27
 11 11  0  0  0  0  0  0  0  0999 V2000
    2.6076   16.3097    3.6300 C   0  0  0  0  0  0  0  0  0  0  0  0
    3.8928   17.0943    3.4221 C   0  0  1  0  0  0  0  0  0  0  0  0
    5.0095   16.6890    4.3556 C   0  0  0  0  0  0  0  0  0  0  0  0
    6.2395   17.1794    3.6165 C   0  0  1  0  0  0  0  0  0  0  0  0
    5.8633   17.3374    2.2489 O   0  0  0  0  0  0  0  0  0  0  0  0
    4.5002   16.8328    2.1108 N   0  0  0  0  0  0  0  0  0  0  0  0
    3.7983   17.6951    1.1793 O   0  0  0  0  0  0  0  0  0  0  0  0
    6.7638   18.4868    4.1990 C   0  0  0  0  0  0  0  0  0  0  0  0
    7.2648   19.3484    3.4705 O   0  0  0  0  0  0  0  0  0  0  0  0
    6.7373   18.6687    5.6950 C   0  0  0  0  0  0  0  0  0  0  0  0
    4.4427   18.4214    1.0916 H   0  0  0  0  0  0  0  0  0  0  0  0
  2  1  1  1  0  0  0
  2  3  1  0  0  0  0
  2  6  1  0  0  0  0
  3  4  1  0  0  0  0
  4  5  1  0  0  0  0
  4  8  1  1  0  0  0
  5  6  1  0  0  0  0
  6  7  1  0  0  0  0
  7 11  1  0  0  0  0
  8  9  2  0  0  0  0
  8 10  1  0  0  0  0
M  END
>  <CHROM.0>
-56.56328738,-61.17280448,-72.71722825,-48.26325065,-58.35815958,-60.67522068
-172.43688004,-58.05578024,-167.91447703

>  <CHROM.1>
-144.92030536,100.50129743,5.25112561,17.58525133,3.33706344,2.74330106,-0.55043921
-1.42629988

>  <Name>
P59192640

>  <RI>
3.1908e+07

>  <Rbt.Current_Directory>
/home/fstefaniak/projects/zuza/docking/adenine/4XNR

>  <Rbt.Executable>
rbdock ($Id: //depot/dev/client3/rdock/2013.1/src/exe/rbdock.cxx#4 $)

>  <Rbt.Library>
libRbt.so (2013.1, Build901 2013/11/27)

>  <Rbt.Parameter_File>
/home/fstefaniak/progs/rDock//data/scripts/dock_solv.prm

>  <Rbt.Receptor>
4xnr.prm

>  <SCORE>
-47.8219

>  <SCORE.INTER>
-28.0992

>  <SCORE.INTER.CONST>
1

>  <SCORE.INTER.POLAR>
-4.52256

>  <SCORE.INTER.ROT>
1

>  <SCORE.INTER.SOLV>
12.6292

>  <SCORE.INTER.VDW>
-12.134

>  <SCORE.INTER.norm>
-2.80992

>  <SCORE.INTRA>
0.58097

>  <SCORE.INTRA.DIHEDRAL>
-0.685811

>  <SCORE.INTRA.DIHEDRAL.0>
2.70884

>  <SCORE.INTRA.POLAR>
0

>  <SCORE.INTRA.POLAR.0>
0

>  <SCORE.INTRA.REPUL>
0

>  <SCORE.INTRA.REPUL.0>
0

>  <SCORE.INTRA.SOLV>
-0.265323

>  <SCORE.INTRA.SOLV.lig_0>
-16.511

>  <SCORE.INTRA.VDW>
1.05654

>  <SCORE.INTRA.VDW.0>
0.150243

>  <SCORE.INTRA.norm>
0.058097

>  <SCORE.RESTR>
0

>  <SCORE.RESTR.CAVITY>
0

>  <SCORE.RESTR.norm>
0

>  <SCORE.SYSTEM>
-20.3037

>  <SCORE.SYSTEM.CONST>
0

>  <SCORE.SYSTEM.DIHEDRAL>
4.48243

>  <SCORE.SYSTEM.POLAR>
-2.96733

>  <SCORE.SYSTEM.SOLV>
0.236828

>  <SCORE.SYSTEM.VDW>
-5.21779

>  <SCORE.SYSTEM.norm>
-2.03037

>  <SCORE.heavy>
10

>  <SCORE.norm>
-4.78219

$$$$
P59192640
 OpenBabel12072022113D
libRbt.so/2013.1/901 2013/11/27
 11 11  0  0  0  0  0  0  0  0999 V2000
    2.5203   16.4430    3.6035 C   0  0  0  0  0  0  0  0  0  0  0  0
    3.8330   17.1809    3.3964 C   0  0  1  0  0  0  0  0  0  0  0  0
    4.9190   16.7717    4.3638 C   0  0  0  0  0  0  0  0  0  0  0  0
    6.1772   17.2005    3.6340 C   0  0  1  0  0  0  0  0  0  0  0  0
    5.8317   17.3261    2.2550 O   0  0  0  0  0  0  0  0  0  0  0  0
    4.4564   16.8593    2.1061 N   0  0  0  0  0  0  0  0  0  0  0  0
    3.7992   17.7124    1.1344 O   0  0  0  0  0  0  0  0  0  0  0  0
    6.7310   18.5093    4.1854 C   0  0  0  0  0  0  0  0  0  0  0  0
    7.2458   19.3444    3.4360 O   0  0  0  0  0  0  0  0  0  0  0  0
    6.7158   18.7241    5.6771 C   0  0  0  0  0  0  0  0  0  0  0  0
    4.4413   18.4437    1.0791 H   0  0  0  0  0  0  0  0  0  0  0  0
  2  1  1  1  0  0  0
  2  3  1  0  0  0  0
  2  6  1  0  0  0  0
  3  4  1  0  0  0  0
  4  5  1  0  0  0  0
  4  8  1  1  0  0  0
  5  6  1  0  0  0  0
  6  7  1  0  0  0  0
  7 11  1  0  0  0  0
  8  9  2  0  0  0  0
  8 10  1  0  0  0  0
M  END
>  <CHROM.0>
-57.45841565,47.05967885,-65.49479457,-47.34884156,-175.17020711,-63.18364057
-68.82184891,-59.02536503,-167.49980574

>  <CHROM.1>
-143.32029071,97.07819727,5.20771976,17.62721963,3.32277082,2.71940618,-0.52466394
-1.46286137

>  <Name>
P59192640

>  <RI>
3.1908e+07

>  <Rbt.Current_Directory>
/home/fstefaniak/projects/zuza/docking/adenine/4XNR

>  <Rbt.Executable>
rbdock ($Id: //depot/dev/client3/rdock/2013.1/src/exe/rbdock.cxx#4 $)

>  <Rbt.Library>
libRbt.so (2013.1, Build901 2013/11/27)

>  <Rbt.Parameter_File>
/home/fstefaniak/progs/rDock//data/scripts/dock_solv.prm

>  <Rbt.Receptor>
4xnr.prm

>  <SCORE>
-47.0429

>  <SCORE.INTER>
-27.4181

>  <SCORE.INTER.CONST>
1

>  <SCORE.INTER.POLAR>
-4.59351

>  <SCORE.INTER.ROT>
1

>  <SCORE.INTER.SOLV>
12.6031

>  <SCORE.INTER.VDW>
-11.4347

>  <SCORE.INTER.norm>
-2.74181

>  <SCORE.INTRA>
0.427108

>  <SCORE.INTRA.DIHEDRAL>
-0.802422

>  <SCORE.INTRA.DIHEDRAL.0>
2.70884

>  <SCORE.INTRA.POLAR>
0

>  <SCORE.INTRA.POLAR.0>
0

>  <SCORE.INTRA.REPUL>
0

>  <SCORE.INTRA.REPUL.0>
0

>  <SCORE.INTRA.SOLV>
-0.262754

>  <SCORE.INTRA.SOLV.lig_0>
-16.511

>  <SCORE.INTRA.VDW>
0.959696

>  <SCORE.INTRA.VDW.0>
0.150243

>  <SCORE.INTRA.norm>
0.0427108

>  <SCORE.RESTR>
0

>  <SCORE.RESTR.CAVITY>
0

>  <SCORE.RESTR.norm>
0

>  <SCORE.SYSTEM>
-20.0519

>  <SCORE.SYSTEM.CONST>
0

>  <SCORE.SYSTEM.DIHEDRAL>
5.01305

>  <SCORE.SYSTEM.POLAR>
-3.0483

>  <SCORE.SYSTEM.SOLV>
0.226652

>  <SCORE.SYSTEM.VDW>
-4.95348

>  <SCORE.SYSTEM.norm>
-2.00519

>  <SCORE.heavy>
10

>  <SCORE.norm>
-4.70429

$$$$
P59196469
 OpenBabel12072022113D
libRbt.so/2013.1/901 2013/11/27
 10 10  0  0  0  0  0  0  0  0999 V2000
    4.2852   16.0576    3.4669 C   0  0  0  0  0  0  0  0  0  0  0  0
    5.2509   17.1144    3.9321 C   0  0  0  0  0  0  0  0  0  0  0  0
    5.3649   17.3494    5.2069 N   0  0  0  0  0  0  0  0  0  0  0  0
    6.2634   18.3193    5.5360 N   0  0  0  0  0  0  0  0  0  0  0  0
    6.5726   19.3736    4.5654 C   0  0  0  0  0  0  0  0  0  0  0  0
    6.9899   18.8119    3.3253 O   0  0  0  0  0  0  0  0  0  0  0  0
    6.0194   17.9055    2.8551 C   0  0  1  0  0  0  0  0  0  0  0  0
    6.6691   17.0216    1.9615 O   0  0  0  0  0  0  0  0  0  0  0  0
    6.1049   18.8803    6.8770 C   0  0  0  0  0  0  0  0  0  0  0  0
    7.1605   17.6144    1.3665 H   0  0  0  0  0  0  0  0  0  0  0  0
  1  2  1  0  0  0  0
  2  3  2  0  0  0  0
  2  7  1  0  0  0  0
  3  4  1  0  0  0  0
  4  5  1  0  0  0  0
  4  9  1  0  0  0  0
  5  6  1  0  0  0  0
  6  7  1  0  0  0  0
  7  8  1  6  0  0  0
  8 10  1  0  0  0  0
M  END
>  <CHROM.0>
-57.52905896,-174.44219904,-73.49944822,-46.84124618,-175.17537036,-62.64153447
-172.39727572,-60.55805874,-167.63318468

>  <CHROM.1>
-176.64716152,5.98147469,17.87506374,4.15216403,1.69616623,-0.80985935,-1.95194126

>  <Name>
P59196469

>  <RI>
4.17015e+07

>  <Rbt.Current_Directory>
/home/fstefaniak/projects/zuza/docking/adenine/4XNR

>  <Rbt.Executable>
rbdock ($Id: //depot/dev/client3/rdock/2013.1/src/exe/rbdock.cxx#4 $)

>  <Rbt.Library>
libRbt.so (2013.1, Build901 2013/11/27)

>  <Rbt.Parameter_File>
/home/fstefaniak/progs/rDock//data/scripts/dock_solv.prm

>  <Rbt.Receptor>
4xnr.prm

>  <SCORE>
-50.7923

>  <SCORE.INTER>
-30.3217

>  <SCORE.INTER.CONST>
1

>  <SCORE.INTER.POLAR>
-3.13366

>  <SCORE.INTER.ROT>
0

>  <SCORE.INTER.SOLV>
10.4267

>  <SCORE.INTER.VDW>
-16.8445

>  <SCORE.INTER.norm>
-3.36908

>  <SCORE.INTRA>
-0.244398

>  <SCORE.INTRA.DIHEDRAL>
-0.506731

>  <SCORE.INTRA.DIHEDRAL.0>
0.739456

>  <SCORE.INTRA.POLAR>
0

>  <SCORE.INTRA.POLAR.0>
0

>  <SCORE.INTRA.REPUL>
0

>  <SCORE.INTRA.REPUL.0>
0

>  <SCORE.INTRA.SOLV>
0.0026077

>  <SCORE.INTRA.SOLV.lig_0>
-12.3365

>  <SCORE.INTRA.VDW>
0.00766423

>  <SCORE.INTRA.VDW.0>
-0.132811

>  <SCORE.INTRA.norm>
-0.0271553

>  <SCORE.RESTR>
0

>  <SCORE.RESTR.CAVITY>
0

>  <SCORE.RESTR.norm>
0

>  <SCORE.SYSTEM>
-20.2261

>  <SCORE.SYSTEM.CONST>
0

>  <SCORE.SYSTEM.DIHEDRAL>
4.98096

>  <SCORE.SYSTEM.POLAR>
-2.97342

>  <SCORE.SYSTEM.SOLV>
0.0279448

>  <SCORE.SYSTEM.VDW>
-5.24231

>  <SCORE.SYSTEM.norm>
-2.24735

>  <SCORE.heavy>
9

>  <SCORE.norm>
-5.64358

$$$$
P59196469
 OpenBabel12072022113D
libRbt.so/2013.1/901 2013/11/27
 10 10  0  0  0  0  0  0  0  0999 V2000
    4.1419   16.1794    3.4710 C   0  0  0  0  0  0  0  0  0  0  0  0
    5.1511   17.1938    3.9384 C   0  0  0  0  0  0  0  0  0  0  0  0
    5.2865   17.4091    5.2146 N   0  0  0  0  0  0  0  0  0  0  0  0
    6.2239   18.3408    5.5456 N   0  0  0  0  0  0  0  0  0  0  0  0
    6.5625   19.3944    4.5842 C   0  0  0  0  0  0  0  0  0  0  0  0
    6.9461   18.8326    3.3333 O   0  0  0  0  0  0  0  0  0  0  0  0
    5.9378   17.9687    2.8628 C   0  0  1  0  0  0  0  0  0  0  0  0
    6.5450   17.0721    1.9522 O   0  0  0  0  0  0  0  0  0  0  0  0
    6.0998   18.8910    6.8946 C   0  0  0  0  0  0  0  0  0  0  0  0
    7.0761   16.4886    2.5218 H   0  0  0  0  0  0  0  0  0  0  0  0
  1  2  1  0  0  0  0
  2  3  2  0  0  0  0
  2  7  1  0  0  0  0
  3  4  1  0  0  0  0
  4  5  1  0  0  0  0
  4  9  1  0  0  0  0
  5  6  1  0  0  0  0
  6  7  1  0  0  0  0
  7  8  1  6  0  0  0
  8 10  1  0  0  0  0
M  END
>  <CHROM.0>
-61.16847641,-174.42755635,-66.79043963,-47.62766447,-57.75268555,-61.65163626
-68.94029542,-176.09912163,-167.91717885

>  <CHROM.1>
-55.59005912,5.91189849,17.91501874,4.16870566,1.74209465,-0.77752262,-1.92609587

>  <Name>
P59196469

>  <RI>
4.17015e+07

>  <Rbt.Current_Directory>
/home/fstefaniak/projects/zuza/docking/adenine/4XNR

>  <Rbt.Executable>
rbdock ($Id: //depot/dev/client3/rdock/2013.1/src/exe/rbdock.cxx#4 $)

>  <Rbt.Library>
libRbt.so (2013.1, Build901 2013/11/27)

>  <Rbt.Parameter_File>
/home/fstefaniak/progs/rDock//data/scripts/dock_solv.prm

>  <Rbt.Receptor>
4xnr.prm

>  <SCORE>
-50.3618

>  <SCORE.INTER>
-29.5595

>  <SCORE.INTER.CONST>
1

>  <SCORE.INTER.POLAR>
-3.13607

>  <SCORE.INTER.ROT>
0

>  <SCORE.INTER.SOLV>
10.3445

>  <SCORE.INTER.VDW>
-16.301

>  <SCORE.INTER.norm>
-3.28439

>  <SCORE.INTRA>
-0.131888

>  <SCORE.INTRA.DIHEDRAL>
-0.468532

>  <SCORE.INTRA.DIHEDRAL.0>
0.739456

>  <SCORE.INTRA.POLAR>
0

>  <SCORE.INTRA.POLAR.0>
0

>  <SCORE.INTRA.REPUL>
0

>  <SCORE.INTRA.REPUL.0>
0

>  <SCORE.INTRA.SOLV>
-0.00692498

>  <SCORE.INTRA.SOLV.lig_0>
-12.3365

>  <SCORE.INTRA.VDW>
0.10584

>  <SCORE.INTRA.VDW.0>
-0.132811

>  <SCORE.INTRA.norm>
-0.0146542

>  <SCORE.RESTR>
0

>  <SCORE.RESTR.CAVITY>
0

>  <SCORE.RESTR.norm>
0

>  <SCORE.SYSTEM>
-20.6704

>  <SCORE.SYSTEM.CONST>
0

>  <SCORE.SYSTEM.DIHEDRAL>
4.31563

>  <SCORE.SYSTEM.POLAR>
-2.96186

>  <SCORE.SYSTEM.SOLV>
0.116531

>  <SCORE.SYSTEM.VDW>
-5.38482

>  <SCORE.SYSTEM.norm>
-2.29672

>  <SCORE.heavy>
9

>  <SCORE.norm>
-5.59576

$$$$
P59196469
 OpenBabel12072022113D
libRbt.so/2013.1/901 2013/11/27
 10 10  0  0  0  0  0  0  0  0999 V2000
    4.1389   16.1796    3.4532 C   0  0  0  0  0  0  0  0  0  0  0  0
    5.1577   17.1857    3.9176 C   0  0  0  0  0  0  0  0  0  0  0  0
    5.2985   17.4000    5.1935 N   0  0  0  0  0  0  0  0  0  0  0  0
    6.2444   18.3240    5.5216 N   0  0  0  0  0  0  0  0  0  0  0  0
    6.5891   19.3747    4.5591 C   0  0  0  0  0  0  0  0  0  0  0  0
    6.9645   18.8095    3.3072 O   0  0  0  0  0  0  0  0  0  0  0  0
    5.9477   17.9539    2.8397 C   0  0  1  0  0  0  0  0  0  0  0  0
    6.5450   17.0521    1.9275 O   0  0  0  0  0  0  0  0  0  0  0  0
    6.1288   18.8754    6.8709 C   0  0  0  0  0  0  0  0  0  0  0  0
    7.0547   16.4504    2.4976 H   0  0  0  0  0  0  0  0  0  0  0  0
  1  2  1  0  0  0  0
  2  3  2  0  0  0  0
  2  7  1  0  0  0  0
  3  4  1  0  0  0  0
  4  5  1  0  0  0  0
  4  9  1  0  0  0  0
  5  6  1  0  0  0  0
  6  7  1  0  0  0  0
  7  8  1  6  0  0  0
  8 10  1  0  0  0  0
M  END
>  <CHROM.0>
-57.07462490,-174.91283621,-66.54188313,-46.36403901,-60.00363333,-63.58281926
-66.76370348,-175.24346889,-167.92579871

>  <CHROM.1>
-54.19504714,5.92496255,17.90051238,4.14568419,1.75004023,-0.77096078,-1.92085232

>  <Name>
P59196469

>  <RI>
4.17015e+07

>  <Rbt.Current_Directory>
/home/fstefaniak/projects/zuza/docking/adenine/4XNR

>  <Rbt.Executable>
rbdock ($Id: //depot/dev/client3/rdock/2013.1/src/exe/rbdock.cxx#4 $)

>  <Rbt.Library>
libRbt.so (2013.1, Build901 2013/11/27)

>  <Rbt.Parameter_File>
/home/fstefaniak/progs/rDock//data/scripts/dock_solv.prm

>  <Rbt.Receptor>
4xnr.prm

>  <SCORE>
-50.3412

>  <SCORE.INTER>
-29.5574

>  <SCORE.INTER.CONST>
1

>  <SCORE.INTER.POLAR>
-3.13607

>  <SCORE.INTER.ROT>
0

>  <SCORE.INTER.SOLV>
10.3174

>  <SCORE.INTER.VDW>
-16.2905

>  <SCORE.INTER.norm>
-3.28416

>  <SCORE.INTRA>
-0.0839825

>  <SCORE.INTRA.DIHEDRAL>
-0.402539

>  <SCORE.INTRA.DIHEDRAL.0>
0.739456

>  <SCORE.INTRA.POLAR>
0

>  <SCORE.INTRA.POLAR.0>
0

>  <SCORE.INTRA.REPUL>
0

>  <SCORE.INTRA.REPUL.0>
0

>  <SCORE.INTRA.SOLV>
-0.00783765

>  <SCORE.INTRA.SOLV.lig_0>
-12.3365

>  <SCORE.INTRA.VDW>
0.121206

>  <SCORE.INTRA.VDW.0>
-0.132811

>  <SCORE.INTRA.norm>
-0.00933139

>  <SCORE.RESTR>
0

>  <SCORE.RESTR.CAVITY>
0

>  <SCORE.RESTR.norm>
0

>  <SCORE.SYSTEM>
-20.6998

>  <SCORE.SYSTEM.CONST>
0

>  <SCORE.SYSTEM.DIHEDRAL>
4.35841

>  <SCORE.SYSTEM.POLAR>
-3.0054

>  <SCORE.SYSTEM.SOLV>
0.126018

>  <SCORE.SYSTEM.VDW>
-5.27668

>  <SCORE.SYSTEM.norm>
-2.29997

>  <SCORE.heavy>
9

>  <SCORE.norm>
-5.59346

$$$$
P59198805
 OpenBabel12072022113D
libRbt.so/2013.1/901 2013/11/27
 14 14  0  0  0  0  0  0  0  0999 V2000
    3.2389   16.2254    4.0236 C   0  0  0  0  0  0  0  0  0  0  0  0
    4.1902   17.1023    3.2502 C   0  0  0  0  0  0  0  0  0  0  0  0
    4.0233   17.3046    2.0480 O   0  0  0  0  0  0  0  0  0  0  0  0
    5.2397   17.6518    3.9521 N   0  0  0  0  0  0  0  0  0  0  0  0
    5.3944   17.6065    5.4011 C   0  0  0  0  0  0  0  0  0  0  0  0
    6.3151   18.7905    5.7276 C   0  0  2  0  0  0  0  0  0  0  0  0
    7.2070   18.8485    4.4902 C   0  0  0  0  0  0  0  0  0  0  0  0
    6.2258   18.5651    3.3437 C   0  0  1  0  0  0  0  0  0  0  0  0
    6.9660   17.9981    2.1206 C   0  0  0  0  0  0  0  0  0  0  0  0
    6.1199   17.9231    0.9777 O   0  0  0  0  0  0  0  0  0  0  0  0
    7.0823   18.6663    6.9598 N   0  0  0  0  0  0  0  0  0  0  0  0
    5.8949   18.8493    0.7329 H   0  0  0  0  0  0  0  0  0  0  0  0
    7.4391   17.7170    7.0668 H   0  0  0  0  0  0  0  0  0  0  0  0
    6.4835   18.8405    7.7665 H   0  0  0  0  0  0  0  0  0  0  0  0
  1  2  1  0  0  0  0
  2  3  2  0  0  0  0
  2  4  1  0  0  0  0
  4  5  1  0  0  0  0
  4  8  1  0  0  0  0
  5  6  1  0  0  0  0
  6  7  1  0  0  0  0
  6 11  1  1  0  0  0
  7  8  1  0  0  0  0
  8  9  1  6  0  0  0
  9 10  1  0  0  0  0
 10 12  1  0  0  0  0
 11 13  1  0  0  0  0
 11 14  1  0  0  0  0
M  END
>  <CHROM.0>
-42.71773989,-64.36791830,-65.83124904,-46.70669110,-57.87650469,-66.56099893
-68.62852053,-57.70010410,-168.28976721

>  <CHROM.1>
41.02729042,72.34306374,65.74100798,5.63596964,17.87394335,3.81198666,2.04767533
-0.51185461,-1.60816074

>  <Name>
P59198805

>  <RI>
9.71178e+06

>  <Rbt.Current_Directory>
/home/fstefaniak/projects/zuza/docking/adenine/4XNR

>  <Rbt.Executable>
rbdock ($Id: //depot/dev/client3/rdock/2013.1/src/exe/rbdock.cxx#4 $)

>  <Rbt.Library>
libRbt.so (2013.1, Build901 2013/11/27)

>  <Rbt.Parameter_File>
/home/fstefaniak/progs/rDock//data/scripts/dock_solv.prm

>  <Rbt.Receptor>
4xnr.prm

>  <SCORE>
-51.0851

>  <SCORE.INTER>
-34.2807

>  <SCORE.INTER.CONST>
1

>  <SCORE.INTER.POLAR>
-4.43881

>  <SCORE.INTER.ROT>
2

>  <SCORE.INTER.SOLV>
12.6958

>  <SCORE.INTER.VDW>
-17.223

>  <SCORE.INTER.norm>
-3.11643

>  <SCORE.INTRA>
3.44457

>  <SCORE.INTRA.DIHEDRAL>
-1.11118

>  <SCORE.INTRA.DIHEDRAL.0>
2.32319

>  <SCORE.INTRA.POLAR>
1

>  <SCORE.INTRA.POLAR.0>
-1

>  <SCORE.INTRA.REPUL>
0

>  <SCORE.INTRA.REPUL.0>
0

>  <SCORE.INTRA.SOLV>
0.156381

>  <SCORE.INTRA.SOLV.lig_0>
-14.8997

>  <SCORE.INTRA.VDW>
0.521973

>  <SCORE.INTRA.VDW.0>
-0.276693

>  <SCORE.INTRA.norm>
0.313143

>  <SCORE.RESTR>
0

>  <SCORE.RESTR.CAVITY>
0

>  <SCORE.RESTR.norm>
0

>  <SCORE.SYSTEM>
-20.249

>  <SCORE.SYSTEM.CONST>
0

>  <SCORE.SYSTEM.DIHEDRAL>
5.65249

>  <SCORE.SYSTEM.POLAR>
-3.1249

>  <SCORE.SYSTEM.SOLV>
0.296957

>  <SCORE.SYSTEM.VDW>
-5.06614

>  <SCORE.SYSTEM.norm>
-1.84082

>  <SCORE.heavy>
11

>  <SCORE.norm>
-4.6441

$$$$
P59198805
 OpenBabel12072022113D
libRbt.so/2013.1/901 2013/11/27
 14 14  0  0  0  0  0  0  0  0999 V2000
    3.2205   16.2501    4.0283 C   0  0  0  0  0  0  0  0  0  0  0  0
    4.1723   17.1259    3.2544 C   0  0  0  0  0  0  0  0  0  0  0  0
    4.0035   17.3304    2.0528 O   0  0  0  0  0  0  0  0  0  0  0  0
    5.2244   17.6720    3.9550 N   0  0  0  0  0  0  0  0  0  0  0  0
    5.3818   17.6242    5.4037 C   0  0  0  0  0  0  0  0  0  0  0  0
    6.3058   18.8056    5.7302 C   0  0  2  0  0  0  0  0  0  0  0  0
    7.1955   18.8634    4.4912 C   0  0  0  0  0  0  0  0  0  0  0  0
    6.2114   18.5840    3.3461 C   0  0  1  0  0  0  0  0  0  0  0  0
    6.9480   18.0171    2.1208 C   0  0  0  0  0  0  0  0  0  0  0  0
    6.0840   17.8897    0.9960 O   0  0  0  0  0  0  0  0  0  0  0  0
    7.0750   18.6778    6.9607 N   0  0  0  0  0  0  0  0  0  0  0  0
    5.8436   18.8034    0.7210 H   0  0  0  0  0  0  0  0  0  0  0  0
    7.4246   17.7259    7.0688 H   0  0  0  0  0  0  0  0  0  0  0  0
    6.4797   18.8583    7.7686 H   0  0  0  0  0  0  0  0  0  0  0  0
  1  2  1  0  0  0  0
  2  3  2  0  0  0  0
  2  4  1  0  0  0  0
  4  5  1  0  0  0  0
  4  8  1  0  0  0  0
  5  6  1  0  0  0  0
  6  7  1  0  0  0  0
  6 11  1  1  0  0  0
  7  8  1  0  0  0  0
  8  9  1  6  0  0  0
  9 10  1  0  0  0  0
 10 12  1  0  0  0  0
 11 13  1  0  0  0  0
 11 14  1  0  0  0  0
M  END
>  <CHROM.0>
-40.33992758,-64.26298780,-67.04339498,-48.63527054,-176.36641750,-62.68299013
-69.20936935,-176.69559438,-167.87202662

>  <CHROM.1>
40.64456741,69.72049721,67.33165334,5.61911152,17.88737072,3.81613549,2.05266829
-0.50712295,-1.61096790

>  <Name>
P59198805

>  <RI>
9.71178e+06

>  <Rbt.Current_Directory>
/home/fstefaniak/projects/zuza/docking/adenine/4XNR

>  <Rbt.Executable>
rbdock ($Id: //depot/dev/client3/rdock/2013.1/src/exe/rbdock.cxx#4 $)

>  <Rbt.Library>
libRbt.so (2013.1, Build901 2013/11/27)

>  <Rbt.Parameter_File>
/home/fstefaniak/progs/rDock//data/scripts/dock_solv.prm

>  <Rbt.Receptor>
4xnr.prm

>  <SCORE>
-51.0427

>  <SCORE.INTER>
-34.5478

>  <SCORE.INTER.CONST>
1

>  <SCORE.INTER.POLAR>
-4.50935

>  <SCORE.INTER.ROT>
2

>  <SCORE.INTER.SOLV>
12.673

>  <SCORE.INTER.VDW>
-17.1584

>  <SCORE.INTER.norm>
-3.14071

>  <SCORE.INTRA>
3.65465

>  <SCORE.INTRA.DIHEDRAL>
-1.18975

>  <SCORE.INTRA.DIHEDRAL.0>
2.32319

>  <SCORE.INTRA.POLAR>
1

>  <SCORE.INTRA.POLAR.0>
-1

>  <SCORE.INTRA.REPUL>
0

>  <SCORE.INTRA.REPUL.0>
0

>  <SCORE.INTRA.SOLV>
0.203018

>  <SCORE.INTRA.SOLV.lig_0>
-14.8997

>  <SCORE.INTRA.VDW>
0.748017

>  <SCORE.INTRA.VDW.0>
-0.276693

>  <SCORE.INTRA.norm>
0.332241

>  <SCORE.RESTR>
0

>  <SCORE.RESTR.CAVITY>
0

>  <SCORE.RESTR.norm>
0

>  <SCORE.SYSTEM>
-20.1495

>  <SCORE.SYSTEM.CONST>
0

>  <SCORE.SYSTEM.DIHEDRAL>
5.83802

>  <SCORE.SYSTEM.POLAR>
-3.09924

>  <SCORE.SYSTEM.SOLV>
-0.014321

>  <SCORE.SYSTEM.VDW>
-5.04346

>  <SCORE.SYSTEM.norm>
-1.83178

>  <SCORE.heavy>
11

>  <SCORE.norm>
-4.64024

$$$$
P59198805
 OpenBabel12072022113D
libRbt.so/2013.1/901 2013/11/27
 14 14  0  0  0  0  0  0  0  0999 V2000
    3.2283   16.2258    4.0114 C   0  0  0  0  0  0  0  0  0  0  0  0
    4.1902   17.0992    3.2473 C   0  0  0  0  0  0  0  0  0  0  0  0
    4.0395   17.2967    2.0422 O   0  0  0  0  0  0  0  0  0  0  0  0
    5.2303   17.6513    3.9609 N   0  0  0  0  0  0  0  0  0  0  0  0
    5.3656   17.6120    5.4121 C   0  0  0  0  0  0  0  0  0  0  0  0
    6.2821   18.7971    5.7461 C   0  0  2  0  0  0  0  0  0  0  0  0
    7.1906   18.8497    4.5205 C   0  0  0  0  0  0  0  0  0  0  0  0
    6.2248   18.5619    3.3621 C   0  0  1  0  0  0  0  0  0  0  0  0
    6.9812   17.9897    2.1514 C   0  0  0  0  0  0  0  0  0  0  0  0
    6.1533   17.9195    0.9949 O   0  0  0  0  0  0  0  0  0  0  0  0
    7.0327   18.6777    6.9889 N   0  0  0  0  0  0  0  0  0  0  0  0
    5.9283   18.8465    0.7534 H   0  0  0  0  0  0  0  0  0  0  0  0
    7.3823   17.7271    7.1077 H   0  0  0  0  0  0  0  0  0  0  0  0
    6.4247   18.8617    7.7865 H   0  0  0  0  0  0  0  0  0  0  0  0
  1  2  1  0  0  0  0
  2  3  2  0  0  0  0
  2  4  1  0  0  0  0
  4  5  1  0  0  0  0
  4  8  1  0  0  0  0
  5  6  1  0  0  0  0
  6  7  1  0  0  0  0
  6 11  1  1  0  0  0
  7  8  1  0  0  0  0
  8  9  1  6  0  0  0
  9 10  1  0  0  0  0
 10 12  1  0  0  0  0
 11 13  1  0  0  0  0
 11 14  1  0  0  0  0
M  END
>  <CHROM.0>
-45.35100487,-63.22886509,-65.86284413,-46.30502212,-60.98701712,-61.14965896
-67.66349995,-59.87496809,-166.67109859

>  <CHROM.1>
40.63745702,72.77729513,64.99859410,5.62877616,17.87386584,3.82506962,2.03186537
-0.51144266,-1.61894331

>  <Name>
P59198805

>  <RI>
9.71178e+06

>  <Rbt.Current_Directory>
/home/fstefaniak/projects/zuza/docking/adenine/4XNR

>  <Rbt.Executable>
rbdock ($Id: //depot/dev/client3/rdock/2013.1/src/exe/rbdock.cxx#4 $)

>  <Rbt.Library>
libRbt.so (2013.1, Build901 2013/11/27)

>  <Rbt.Parameter_File>
/home/fstefaniak/progs/rDock//data/scripts/dock_solv.prm

>  <Rbt.Receptor>
4xnr.prm

>  <SCORE>
-50.9692

>  <SCORE.INTER>
-33.966

>  <SCORE.INTER.CONST>
1

>  <SCORE.INTER.POLAR>
-4.28564

>  <SCORE.INTER.ROT>
2

>  <SCORE.INTER.SOLV>
12.7475

>  <SCORE.INTER.VDW>
-17.541

>  <SCORE.INTER.norm>
-3.08782

>  <SCORE.INTRA>
3.41903

>  <SCORE.INTRA.DIHEDRAL>
-1.0939

>  <SCORE.INTRA.DIHEDRAL.0>
2.32319

>  <SCORE.INTRA.POLAR>
1

>  <SCORE.INTRA.POLAR.0>
-1

>  <SCORE.INTRA.REPUL>
0

>  <SCORE.INTRA.REPUL.0>
0

>  <SCORE.INTRA.SOLV>
0.148844

>  <SCORE.INTRA.SOLV.lig_0>
-14.8997

>  <SCORE.INTRA.VDW>
0.49156

>  <SCORE.INTRA.VDW.0>
-0.276693

>  <SCORE.INTRA.norm>
0.310821

>  <SCORE.RESTR>
0

>  <SCORE.RESTR.CAVITY>
0

>  <SCORE.RESTR.norm>
0

>  <SCORE.SYSTEM>
-20.4223

>  <SCORE.SYSTEM.CONST>
0

>  <SCORE.SYSTEM.DIHEDRAL>
5.19177

>  <SCORE.SYSTEM.POLAR>
-3.10762

>  <SCORE.SYSTEM.SOLV>
0.302382

>  <SCORE.SYSTEM.VDW>
-5.0875

>  <SCORE.SYSTEM.norm>
-1.85657

>  <SCORE.heavy>
11

>  <SCORE.norm>
-4.63357

$$$$
P59199259
 OpenBabel12072022113D
libRbt.so/2013.1/901 2013/11/27
 10 10  0  0  0  0  0  0  0  0999 V2000
    4.2063   15.7937    3.5034 C   0  0  0  0  0  0  0  0  0  0  0  0
    5.1927   16.7430    4.1164 C   0  0  0  0  0  0  0  0  0  0  0  0
    5.0211   17.2957    5.1981 O   0  0  0  0  0  0  0  0  0  0  0  0
    6.4144   17.0353    3.3244 C   0  0  1  0  0  0  0  0  0  0  0  0
    6.4832   18.2899    2.4815 C   0  0  0  0  0  0  0  0  0  0  0  0
    7.3761   18.1448    3.6885 C   0  0  1  0  0  0  0  0  0  0  0  0
    7.2725   19.0454    4.8682 C   0  0  0  0  0  0  0  0  0  0  0  0
    6.3412   19.8305    4.9538 O   0  0  0  0  0  0  0  0  0  0  0  0
    8.2100   18.9258    5.8311 O   0  0  0  0  0  0  0  0  0  0  0  0
    8.1204   19.5546    6.5847 H   0  0  0  0  0  0  0  0  0  0  0  0
  1  2  1  0  0  0  0
  2  3  2  0  0  0  0
  4  2  1  1  0  0  0
  4  5  1  0  0  0  0
  4  6  1  0  0  0  0
  5  6  1  0  0  0  0
  6  7  1  1  0  0  0
  7  8  2  0  0  0  0
  7  9  1  0  0  0  0
  9 10  1  0  0  0  0
M  END
>  <CHROM.0>
-57.26208886,-174.26642048,-72.40185283,-47.73127288,-57.40178415,-60.11145209
-173.24486638,-58.50375365,-168.17604278

>  <CHROM.1>
97.72113410,-65.47581270,178.52164123,6.28097995,17.93817114,4.28519239,2.56686173
-0.68993959,-1.87692160

>  <Name>
P59199259

>  <RI>
3.1908e+07

>  <Rbt.Current_Directory>
/home/fstefaniak/projects/zuza/docking/adenine/4XNR

>  <Rbt.Executable>
rbdock ($Id: //depot/dev/client3/rdock/2013.1/src/exe/rbdock.cxx#4 $)

>  <Rbt.Library>
libRbt.so (2013.1, Build901 2013/11/27)

>  <Rbt.Parameter_File>
/home/fstefaniak/progs/rDock//data/scripts/dock_solv.prm

>  <Rbt.Receptor>
4xnr.prm

>  <SCORE>
-46.2942

>  <SCORE.INTER>
-26.4963

>  <SCORE.INTER.CONST>
1

>  <SCORE.INTER.POLAR>
-3.19364

>  <SCORE.INTER.ROT>
2

>  <SCORE.INTER.SOLV>
9.24679

>  <SCORE.INTER.VDW>
-15.0344

>  <SCORE.INTER.norm>
-2.94404

>  <SCORE.INTRA>
0.318581

>  <SCORE.INTRA.DIHEDRAL>
-0.886226

>  <SCORE.INTRA.DIHEDRAL.0>
5.08957

>  <SCORE.INTRA.POLAR>
0.46549

>  <SCORE.INTRA.POLAR.0>
-0.46549

>  <SCORE.INTRA.REPUL>
0

>  <SCORE.INTRA.REPUL.0>
0

>  <SCORE.INTRA.SOLV>
0.126294

>  <SCORE.INTRA.SOLV.lig_0>
-9.25289

>  <SCORE.INTRA.VDW>
-0.884117

>  <SCORE.INTRA.VDW.0>
0.104697

>  <SCORE.INTRA.norm>
0.0353979

>  <SCORE.RESTR>
0

>  <SCORE.RESTR.CAVITY>
0

>  <SCORE.RESTR.norm>
0

>  <SCORE.SYSTEM>
-20.1165

>  <SCORE.SYSTEM.CONST>
0

>  <SCORE.SYSTEM.DIHEDRAL>
4.56855

>  <SCORE.SYSTEM.POLAR>
-2.97241

>  <SCORE.SYSTEM.SOLV>
0.214753

>  <SCORE.SYSTEM.VDW>
-5.09738

>  <SCORE.SYSTEM.norm>
-2.23516

>  <SCORE.heavy>
9

>  <SCORE.norm>
-5.1438

$$$$
P59199259
 OpenBabel12072022113D
libRbt.so/2013.1/901 2013/11/27
 10 10  0  0  0  0  0  0  0  0999 V2000
    4.6376   15.5350    3.6927 C   0  0  0  0  0  0  0  0  0  0  0  0
    5.2376   16.8786    3.4018 C   0  0  0  0  0  0  0  0  0  0  0  0
    5.9704   17.1019    2.4436 O   0  0  0  0  0  0  0  0  0  0  0  0
    4.9370   17.9644    4.3693 C   0  0  1  0  0  0  0  0  0  0  0  0
    5.3765   17.8315    5.8109 C   0  0  0  0  0  0  0  0  0  0  0  0
    6.0055   18.8789    4.9263 C   0  0  1  0  0  0  0  0  0  0  0  0
    7.4505   18.8592    4.5731 C   0  0  0  0  0  0  0  0  0  0  0  0
    8.2929   18.9091    5.4557 O   0  0  0  0  0  0  0  0  0  0  0  0
    7.7743   18.7451    3.2683 O   0  0  0  0  0  0  0  0  0  0  0  0
    7.0190   18.5597    2.6628 H   0  0  0  0  0  0  0  0  0  0  0  0
  1  2  1  0  0  0  0
  2  3  2  0  0  0  0
  4  2  1  6  0  0  0
  4  5  1  0  0  0  0
  4  6  1  0  0  0  0
  5  6  1  0  0  0  0
  6  7  1  6  0  0  0
  7  8  2  0  0  0  0
  7  9  1  0  0  0  0
  9 10  1  0  0  0  0
M  END
>  <CHROM.0>
-56.40984472,61.23653704,-68.05607835,-48.16747968,-56.37782150,-60.75090215
-67.07681608,-56.57086399,-167.95969940

>  <CHROM.1>
61.49610071,-133.76603416,-8.02361387,6.24112694,17.85222435,4.17699375,2.56926122
-0.57995254,-1.97175586

>  <Name>
P59199259

>  <RI>
3.1908e+07

>  <Rbt.Current_Directory>
/home/fstefaniak/projects/zuza/docking/adenine/4XNR

>  <Rbt.Executable>
rbdock ($Id: //depot/dev/client3/rdock/2013.1/src/exe/rbdock.cxx#4 $)

>  <Rbt.Library>
libRbt.so (2013.1, Build901 2013/11/27)

>  <Rbt.Parameter_File>
/home/fstefaniak/progs/rDock//data/scripts/dock_solv.prm

>  <Rbt.Receptor>
4xnr.prm

>  <SCORE>
-45.0922

>  <SCORE.INTER>
-24.7541

>  <SCORE.INTER.CONST>
1

>  <SCORE.INTER.POLAR>
-2.82973

>  <SCORE.INTER.ROT>
2

>  <SCORE.INTER.SOLV>
9.25423

>  <SCORE.INTER.VDW>
-15.0884

>  <SCORE.INTER.norm>
-2.75045

>  <SCORE.INTRA>
-0.364995

>  <SCORE.INTRA.DIHEDRAL>
-0.145619

>  <SCORE.INTRA.DIHEDRAL.0>
5.08957

>  <SCORE.INTRA.POLAR>
0.0354094

>  <SCORE.INTRA.POLAR.0>
-0.46549

>  <SCORE.INTRA.REPUL>
0

>  <SCORE.INTRA.REPUL.0>
0

>  <SCORE.INTRA.SOLV>
-0.0259884

>  <SCORE.INTRA.SOLV.lig_0>
-9.25289

>  <SCORE.INTRA.VDW>
-0.399584

>  <SCORE.INTRA.VDW.0>
0.104697

>  <SCORE.INTRA.norm>
-0.040555

>  <SCORE.RESTR>
0

>  <SCORE.RESTR.CAVITY>
0

>  <SCORE.RESTR.norm>
0

>  <SCORE.SYSTEM>
-19.9732

>  <SCORE.SYSTEM.CONST>
0

>  <SCORE.SYSTEM.DIHEDRAL>
4.12585

>  <SCORE.SYSTEM.POLAR>
-2.9922

>  <SCORE.SYSTEM.SOLV>
0.365361

>  <SCORE.SYSTEM.VDW>
-4.83851

>  <SCORE.SYSTEM.norm>
-2.21924

>  <SCORE.heavy>
9

>  <SCORE.norm>
-5.01025

$$$$
P59199259
 OpenBabel12072022113D
libRbt.so/2013.1/901 2013/11/27
 10 10  0  0  0  0  0  0  0  0999 V2000
    4.6662   15.6137    3.8352 C   0  0  0  0  0  0  0  0  0  0  0  0
    5.2617   16.9358    3.4515 C   0  0  0  0  0  0  0  0  0  0  0  0
    5.9470   17.1064    2.4484 O   0  0  0  0  0  0  0  0  0  0  0  0
    5.0194   18.0687    4.3806 C   0  0  1  0  0  0  0  0  0  0  0  0
    5.4442   17.9593    5.8286 C   0  0  0  0  0  0  0  0  0  0  0  0
    6.1359   18.9391    4.9138 C   0  0  1  0  0  0  0  0  0  0  0  0
    7.5789   18.8253    4.5705 C   0  0  0  0  0  0  0  0  0  0  0  0
    7.9117   18.5132    3.4378 O   0  0  0  0  0  0  0  0  0  0  0  0
    8.4766   19.1163    5.5348 O   0  0  0  0  0  0  0  0  0  0  0  0
    8.0934   19.4617    6.3746 H   0  0  0  0  0  0  0  0  0  0  0  0
  1  2  1  0  0  0  0
  2  3  2  0  0  0  0
  4  2  1  6  0  0  0
  4  5  1  0  0  0  0
  4  6  1  0  0  0  0
  5  6  1  0  0  0  0
  6  7  1  6  0  0  0
  7  8  2  0  0  0  0
  7  9  1  0  0  0  0
  9 10  1  0  0  0  0
M  END
>  <CHROM.0>
-54.98754130,-62.70830515,-74.31868229,-48.97218224,-59.21196035,-62.68936631
-172.05901343,-59.87359973,-167.52167217

>  <CHROM.1>
57.22541158,35.88758855,-5.24863594,6.33344383,17.89892257,4.26080599,2.52367370
-0.51051732,-2.01872636

>  <Name>
P59199259

>  <RI>
3.1908e+07

>  <Rbt.Current_Directory>
/home/fstefaniak/projects/zuza/docking/adenine/4XNR

>  <Rbt.Executable>
rbdock ($Id: //depot/dev/client3/rdock/2013.1/src/exe/rbdock.cxx#4 $)

>  <Rbt.Library>
libRbt.so (2013.1, Build901 2013/11/27)

>  <Rbt.Parameter_File>
/home/fstefaniak/progs/rDock//data/scripts/dock_solv.prm

>  <Rbt.Receptor>
4xnr.prm

>  <SCORE>
-44.7202

>  <SCORE.INTER>
-25.0766

>  <SCORE.INTER.CONST>
1

>  <SCORE.INTER.POLAR>
-2.99533

>  <SCORE.INTER.ROT>
2

>  <SCORE.INTER.SOLV>
9.43777

>  <SCORE.INTER.VDW>
-14.8126

>  <SCORE.INTER.norm>
-2.78629

>  <SCORE.INTRA>
0.694537

>  <SCORE.INTRA.DIHEDRAL>
-0.98433

>  <SCORE.INTRA.DIHEDRAL.0>
5.08957

>  <SCORE.INTRA.POLAR>
0.46549

>  <SCORE.INTRA.POLAR.0>
-0.46549

>  <SCORE.INTRA.REPUL>
0

>  <SCORE.INTRA.REPUL.0>
0

>  <SCORE.INTRA.SOLV>
-0.0798483

>  <SCORE.INTRA.SOLV.lig_0>
-9.25289

>  <SCORE.INTRA.VDW>
-0.356038

>  <SCORE.INTRA.VDW.0>
0.104697

>  <SCORE.INTRA.norm>
0.0771708

>  <SCORE.RESTR>
0

>  <SCORE.RESTR.CAVITY>
0

>  <SCORE.RESTR.norm>
0

>  <SCORE.SYSTEM>
-20.3381

>  <SCORE.SYSTEM.CONST>
0

>  <SCORE.SYSTEM.DIHEDRAL>
4.75117

>  <SCORE.SYSTEM.POLAR>
-2.95753

>  <SCORE.SYSTEM.SOLV>
0.224571

>  <SCORE.SYSTEM.VDW>
-5.35891

>  <SCORE.SYSTEM.norm>
-2.25979

>  <SCORE.heavy>
9

>  <SCORE.norm>
-4.96891

$$$$
P59204138
 OpenBabel12072022113D
libRbt.so/2013.1/901 2013/11/27
 10 10  0  0  0  0  0  0  0  0999 V2000
    7.1983   18.5890    0.7949 C   0  0  0  0  0  0  0  0  0  0  0  0
    7.1747   18.6418    2.2207 O   0  0  0  0  0  0  0  0  0  0  0  0
    6.6238   17.5459    2.8078 C   0  0  0  0  0  0  0  0  0  0  0  0
    6.2265   16.5566    2.2035 O   0  0  0  0  0  0  0  0  0  0  0  0
    6.5711   17.7276    4.1812 N   0  0  0  0  0  0  0  0  0  0  0  0
    5.3231   17.6202    4.8902 C   0  0  0  0  0  0  0  0  0  0  0  0
    6.0101   18.9305    4.7309 C   0  0  1  0  0  0  0  0  0  0  0  0
    6.7110   19.6054    5.8635 C   0  0  0  0  0  0  0  0  0  0  0  0
    8.1147   19.3750    5.8177 O   0  0  0  0  0  0  0  0  0  0  0  0
    8.4930   19.8627    6.5726 H   0  0  0  0  0  0  0  0  0  0  0  0
  1  2  1  0  0  0  0
  2  3  1  0  0  0  0
  3  4  2  0  0  0  0
  3  5  1  0  0  0  0
  5  6  1  0  0  0  0
  5  7  1  0  0  0  0
  6  7  1  0  0  0  0
  7  8  1  1  0  0  0
  8  9  1  0  0  0  0
  9 10  1  0  0  0  0
M  END
>  <CHROM.0>
-56.82478842,-61.20291925,-69.96217600,-46.84415774,-54.44215283,-61.27241296
-67.57255650,-57.49018000,-168.13231422

>  <CHROM.1>
3.11053852,123.92305518,29.21259585,178.73214030,6.70832301,18.30462594,3.71503262
-1.64378988,0.81574326,1.29093983

>  <Name>
P59204138

>  <RI>
3.1908e+07

>  <Rbt.Current_Directory>
/home/fstefaniak/projects/zuza/docking/adenine/4XNR

>  <Rbt.Executable>
rbdock ($Id: //depot/dev/client3/rdock/2013.1/src/exe/rbdock.cxx#4 $)

>  <Rbt.Library>
libRbt.so (2013.1, Build901 2013/11/27)

>  <Rbt.Parameter_File>
/home/fstefaniak/progs/rDock//data/scripts/dock_solv.prm

>  <Rbt.Receptor>
4xnr.prm

>  <SCORE>
-49.2335

>  <SCORE.INTER>
-27.542

>  <SCORE.INTER.CONST>
1

>  <SCORE.INTER.POLAR>
-4.06651

>  <SCORE.INTER.ROT>
3

>  <SCORE.INTER.SOLV>
11.0578

>  <SCORE.INTER.VDW>
-14.0922

>  <SCORE.INTER.norm>
-3.06022

>  <SCORE.INTRA>
-0.877822

>  <SCORE.INTRA.DIHEDRAL>
-0.998089

>  <SCORE.INTRA.DIHEDRAL.0>
4.1172

>  <SCORE.INTRA.POLAR>
0.109623

>  <SCORE.INTRA.POLAR.0>
-0.109623

>  <SCORE.INTRA.REPUL>
0

>  <SCORE.INTRA.REPUL.0>
0

>  <SCORE.INTRA.SOLV>
-0.23984

>  <SCORE.INTRA.SOLV.lig_0>
-13.1019

>  <SCORE.INTRA.VDW>
-0.631574

>  <SCORE.INTRA.VDW.0>
1.99582

>  <SCORE.INTRA.norm>
-0.0975358

>  <SCORE.RESTR>
0

>  <SCORE.RESTR.CAVITY>
0

>  <SCORE.RESTR.norm>
0

>  <SCORE.SYSTEM>
-20.8137

>  <SCORE.SYSTEM.CONST>
0

>  <SCORE.SYSTEM.DIHEDRAL>
4.48639

>  <SCORE.SYSTEM.POLAR>
-3.00881

>  <SCORE.SYSTEM.SOLV>
0.291313

>  <SCORE.SYSTEM.VDW>
-5.43899

>  <SCORE.SYSTEM.norm>
-2.31263

>  <SCORE.heavy>
9

>  <SCORE.norm>
-5.47039

$$$$
P59204138
 OpenBabel12072022113D
libRbt.so/2013.1/901 2013/11/27
 10 10  0  0  0  0  0  0  0  0999 V2000
    7.1860   18.5850    0.7962 C   0  0  0  0  0  0  0  0  0  0  0  0
    7.2039   18.6029    2.2230 O   0  0  0  0  0  0  0  0  0  0  0  0
    6.6056   17.5263    2.7993 C   0  0  0  0  0  0  0  0  0  0  0  0
    6.1762   16.5560    2.1862 O   0  0  0  0  0  0  0  0  0  0  0  0
    6.5469   17.7034    4.1731 N   0  0  0  0  0  0  0  0  0  0  0  0
    5.2924   17.6147    4.8734 C   0  0  0  0  0  0  0  0  0  0  0  0
    6.0029   18.9136    4.7240 C   0  0  1  0  0  0  0  0  0  0  0  0
    6.7077   19.5717    5.8640 C   0  0  0  0  0  0  0  0  0  0  0  0
    8.1099   19.3333    5.8158 O   0  0  0  0  0  0  0  0  0  0  0  0
    8.4904   19.8058    6.5793 H   0  0  0  0  0  0  0  0  0  0  0  0
  1  2  1  0  0  0  0
  2  3  1  0  0  0  0
  3  4  2  0  0  0  0
  3  5  1  0  0  0  0
  5  6  1  0  0  0  0
  5  7  1  0  0  0  0
  6  7  1  0  0  0  0
  7  8  1  1  0  0  0
  8  9  1  0  0  0  0
  9 10  1  0  0  0  0
M  END
>  <CHROM.0>
-54.24271895,-64.91570788,-66.61770199,-45.47673149,-176.90295736,-175.01628796
-68.92829719,-58.79430842,-167.81292619

>  <CHROM.1>
5.77460638,125.16252832,30.04415821,179.07583502,6.69512586,18.28355017,3.70912927
-1.64645035,0.79614441,1.29591790

>  <Name>
P59204138

>  <RI>
3.1908e+07

>  <Rbt.Current_Directory>
/home/fstefaniak/projects/zuza/docking/adenine/4XNR

>  <Rbt.Executable>
rbdock ($Id: //depot/dev/client3/rdock/2013.1/src/exe/rbdock.cxx#4 $)

>  <Rbt.Library>
libRbt.so (2013.1, Build901 2013/11/27)

>  <Rbt.Parameter_File>
/home/fstefaniak/progs/rDock//data/scripts/dock_solv.prm

>  <Rbt.Receptor>
4xnr.prm

>  <SCORE>
-49.1345

>  <SCORE.INTER>
-27.6225

>  <SCORE.INTER.CONST>
1

>  <SCORE.INTER.POLAR>
-4.05836

>  <SCORE.INTER.ROT>
3

>  <SCORE.INTER.SOLV>
10.9914

>  <SCORE.INTER.VDW>
-14.151

>  <SCORE.INTER.norm>
-3.06917

>  <SCORE.INTRA>
-0.818135

>  <SCORE.INTRA.DIHEDRAL>
-0.79266

>  <SCORE.INTRA.DIHEDRAL.0>
4.1172

>  <SCORE.INTRA.POLAR>
0.109623

>  <SCORE.INTRA.POLAR.0>
-0.109623

>  <SCORE.INTRA.REPUL>
0

>  <SCORE.INTRA.REPUL.0>
0

>  <SCORE.INTRA.SOLV>
-0.238541

>  <SCORE.INTRA.SOLV.lig_0>
-13.1019

>  <SCORE.INTRA.VDW>
-0.675251

>  <SCORE.INTRA.VDW.0>
1.99582

>  <SCORE.INTRA.norm>
-0.0909038

>  <SCORE.RESTR>
0

>  <SCORE.RESTR.CAVITY>
0

>  <SCORE.RESTR.norm>
0

>  <SCORE.SYSTEM>
-20.6939

>  <SCORE.SYSTEM.CONST>
0

>  <SCORE.SYSTEM.DIHEDRAL>
4.74073

>  <SCORE.SYSTEM.POLAR>
-3.04588

>  <SCORE.SYSTEM.SOLV>
0.00405439

>  <SCORE.SYSTEM.VDW>
-5.22456

>  <SCORE.SYSTEM.norm>
-2.29932

>  <SCORE.heavy>
9

>  <SCORE.norm>
-5.45939

$$$$
P59204138
 OpenBabel12072022113D
libRbt.so/2013.1/901 2013/11/27
 10 10  0  0  0  0  0  0  0  0999 V2000
    7.1655   18.6019    0.7938 C   0  0  0  0  0  0  0  0  0  0  0  0
    7.2100   18.6103    2.2200 O   0  0  0  0  0  0  0  0  0  0  0  0
    6.5582   17.5684    2.8020 C   0  0  0  0  0  0  0  0  0  0  0  0
    6.0470   16.6370    2.1913 O   0  0  0  0  0  0  0  0  0  0  0  0
    6.5518   17.7308    4.1789 N   0  0  0  0  0  0  0  0  0  0  0  0
    5.3322   17.5914    4.9304 C   0  0  0  0  0  0  0  0  0  0  0  0
    5.9898   18.9159    4.7649 C   0  0  1  0  0  0  0  0  0  0  0  0
    6.7191   19.5881    5.8811 C   0  0  0  0  0  0  0  0  0  0  0  0
    8.1156   19.3192    5.8264 O   0  0  0  0  0  0  0  0  0  0  0  0
    8.5124   19.7986    6.5770 H   0  0  0  0  0  0  0  0  0  0  0  0
  1  2  1  0  0  0  0
  2  3  1  0  0  0  0
  3  4  2  0  0  0  0
  3  5  1  0  0  0  0
  5  6  1  0  0  0  0
  5  7  1  0  0  0  0
  6  7  1  0  0  0  0
  7  8  1  1  0  0  0
  8  9  1  0  0  0  0
  9 10  1  0  0  0  0
M  END
>  <CHROM.0>
-58.38046768,-63.18977822,-73.19856497,-48.27639527,-62.57507450,-61.28005349
-171.89488235,-59.93734928,-168.75939158

>  <CHROM.1>
4.91314057,131.04851328,25.79964182,179.41138897,6.67898162,18.30077041,3.72323077
-1.66246936,0.78296730,1.32097653

>  <Name>
P59204138

>  <RI>
3.1908e+07

>  <Rbt.Current_Directory>
/home/fstefaniak/projects/zuza/docking/adenine/4XNR

>  <Rbt.Executable>
rbdock ($Id: //depot/dev/client3/rdock/2013.1/src/exe/rbdock.cxx#4 $)

>  <Rbt.Library>
libRbt.so (2013.1, Build901 2013/11/27)

>  <Rbt.Parameter_File>
/home/fstefaniak/progs/rDock//data/scripts/dock_solv.prm

>  <Rbt.Receptor>
4xnr.prm

>  <SCORE>
-48.6971

>  <SCORE.INTER>
-27.4475

>  <SCORE.INTER.CONST>
1

>  <SCORE.INTER.POLAR>
-4.03681

>  <SCORE.INTER.ROT>
3

>  <SCORE.INTER.SOLV>
10.8566

>  <SCORE.INTER.VDW>
-14.0612

>  <SCORE.INTER.norm>
-3.04972

>  <SCORE.INTRA>
-0.954872

>  <SCORE.INTRA.DIHEDRAL>
-1.02385

>  <SCORE.INTRA.DIHEDRAL.0>
4.1172

>  <SCORE.INTRA.POLAR>
0.109623

>  <SCORE.INTRA.POLAR.0>
-0.109623

>  <SCORE.INTRA.REPUL>
0

>  <SCORE.INTRA.REPUL.0>
0

>  <SCORE.INTRA.SOLV>
-0.208238

>  <SCORE.INTRA.SOLV.lig_0>
-13.1019

>  <SCORE.INTRA.VDW>
-0.711543

>  <SCORE.INTRA.VDW.0>
1.99582

>  <SCORE.INTRA.norm>
-0.106097

>  <SCORE.RESTR>
0

>  <SCORE.RESTR.CAVITY>
0

>  <SCORE.RESTR.norm>
0

>  <SCORE.SYSTEM>
-20.2947

>  <SCORE.SYSTEM.CONST>
0

>  <SCORE.SYSTEM.DIHEDRAL>
4.49441

>  <SCORE.SYSTEM.POLAR>
-2.93039

>  <SCORE.SYSTEM.SOLV>
0.222361

>  <SCORE.SYSTEM.VDW>
-5.33411

>  <SCORE.SYSTEM.norm>
-2.25497

>  <SCORE.heavy>
9

>  <SCORE.norm>
-5.41079

$$$$
P59204206
 OpenBabel12072022113D
libRbt.so/2013.1/901 2013/11/27
 10 10  0  0  0  0  0  0  0  0999 V2000
    6.1389   19.4745    5.0099 C   0  0  0  0  0  0  0  0  0  0  0  0
    7.4991   18.9594    5.3017 C   0  0  0  0  0  0  0  0  0  0  0  0
    6.5209   18.1409    4.6428 N   0  0  0  0  0  0  0  0  0  0  0  0
    6.6820   17.8001    3.3000 C   0  0  0  0  0  0  0  0  0  0  0  0
    7.2627   18.4757    2.4575 O   0  0  0  0  0  0  0  0  0  0  0  0
    6.0972   16.5841    3.0298 N   0  0  0  0  0  0  0  0  0  0  0  0
    4.6592   16.4599    2.8913 C   0  0  0  0  0  0  0  0  0  0  0  0
    4.0800   15.3443    3.7517 C   0  0  0  0  0  0  0  0  0  0  0  0
    2.7335   15.2824    3.5450 F   0  0  0  0  0  0  0  0  0  0  0  0
    6.6224   15.7809    3.3491 H   0  0  0  0  0  0  0  0  0  0  0  0
  1  2  1  0  0  0  0
  1  3  1  0  0  0  0
  2  3  1  0  0  0  0
  3  4  1  0  0  0  0
  4  5  2  0  0  0  0
  4  6  1  0  0  0  0
  6  7  1  0  0  0  0
  6 10  1  0  0  0  0
  7  8  1  0  0  0  0
  8  9  1  0  0  0  0
M  END
>  <CHROM.0>
-53.69090134,-60.65863260,-65.27613198,-46.92619035,-57.36018230,-61.50108848
-66.97460112,-173.62477241,-168.05722380

>  <CHROM.1>
44.21863787,76.61413802,-129.12909061,-178.99066438,5.64325118,17.30961372
3.74583415,0.52559975,0.60069342,1.02904429

>  <Name>
P59204206

>  <RI>
3.1908e+07

>  <Rbt.Current_Directory>
/home/fstefaniak/projects/zuza/docking/adenine/4XNR

>  <Rbt.Executable>
rbdock ($Id: //depot/dev/client3/rdock/2013.1/src/exe/rbdock.cxx#4 $)

>  <Rbt.Library>
libRbt.so (2013.1, Build901 2013/11/27)

>  <Rbt.Parameter_File>
/home/fstefaniak/progs/rDock//data/scripts/dock_solv.prm

>  <Rbt.Receptor>
4xnr.prm

>  <SCORE>
-40.2616

>  <SCORE.INTER>
-19.8642

>  <SCORE.INTER.CONST>
1

>  <SCORE.INTER.POLAR>
-2.42632

>  <SCORE.INTER.ROT>
4

>  <SCORE.INTER.SOLV>
9.92273

>  <SCORE.INTER.VDW>
-14.7293

>  <SCORE.INTER.norm>
-2.20714

>  <SCORE.INTRA>
0.364578

>  <SCORE.INTRA.DIHEDRAL>
1.45446

>  <SCORE.INTRA.DIHEDRAL.0>
1.45854

>  <SCORE.INTRA.POLAR>
0

>  <SCORE.INTRA.POLAR.0>
0

>  <SCORE.INTRA.REPUL>
0

>  <SCORE.INTRA.REPUL.0>
0

>  <SCORE.INTRA.SOLV>
-0.202679

>  <SCORE.INTRA.SOLV.lig_0>
-12.7666

>  <SCORE.INTRA.VDW>
-0.26131

>  <SCORE.INTRA.VDW.0>
-0.17083

>  <SCORE.INTRA.norm>
0.0405087

>  <SCORE.RESTR>
0

>  <SCORE.RESTR.CAVITY>
0

>  <SCORE.RESTR.norm>
0

>  <SCORE.SYSTEM>
-20.762

>  <SCORE.SYSTEM.CONST>
0

>  <SCORE.SYSTEM.DIHEDRAL>
4.30755

>  <SCORE.SYSTEM.POLAR>
-3.0321

>  <SCORE.SYSTEM.SOLV>
0.163785

>  <SCORE.SYSTEM.VDW>
-5.22476

>  <SCORE.SYSTEM.norm>
-2.30689

>  <SCORE.heavy>
9

>  <SCORE.norm>
-4.47352

$$$$
P59204206
 OpenBabel12072022113D
libRbt.so/2013.1/901 2013/11/27
 10 10  0  0  0  0  0  0  0  0999 V2000
    6.2259   19.5453    4.8626 C   0  0  0  0  0  0  0  0  0  0  0  0
    7.5115   18.9152    5.2506 C   0  0  0  0  0  0  0  0  0  0  0  0
    6.5049   18.1743    4.5443 N   0  0  0  0  0  0  0  0  0  0  0  0
    6.7178   17.7889    3.2208 C   0  0  0  0  0  0  0  0  0  0  0  0
    7.3519   18.4249    2.3861 O   0  0  0  0  0  0  0  0  0  0  0  0
    6.1161   16.5790    2.9603 N   0  0  0  0  0  0  0  0  0  0  0  0
    4.6773   16.4750    2.8140 C   0  0  0  0  0  0  0  0  0  0  0  0
    4.1079   15.2266    3.4754 C   0  0  0  0  0  0  0  0  0  0  0  0
    4.5475   15.1720    4.7653 F   0  0  0  0  0  0  0  0  0  0  0  0
    6.6271   15.7715    3.2918 H   0  0  0  0  0  0  0  0  0  0  0  0
  1  2  1  0  0  0  0
  1  3  1  0  0  0  0
  2  3  1  0  0  0  0
  3  4  1  0  0  0  0
  4  5  2  0  0  0  0
  4  6  1  0  0  0  0
  6  7  1  0  0  0  0
  6 10  1  0  0  0  0
  7  8  1  0  0  0  0
  8  9  1  0  0  0  0
M  END
>  <CHROM.0>
-58.43752114,-64.00984757,-62.81513691,-49.04957734,-58.14813057,-63.31815770
-69.88602107,-54.94832717,-167.85130411

>  <CHROM.1>
40.11495683,74.08723066,-139.69789213,52.04077799,5.93388666,17.28140101
3.82859197,0.35602067,0.88721283,1.24360761

>  <Name>
P59204206

>  <RI>
3.1908e+07

>  <Rbt.Current_Directory>
/home/fstefaniak/projects/zuza/docking/adenine/4XNR

>  <Rbt.Executable>
rbdock ($Id: //depot/dev/client3/rdock/2013.1/src/exe/rbdock.cxx#4 $)

>  <Rbt.Library>
libRbt.so (2013.1, Build901 2013/11/27)

>  <Rbt.Parameter_File>
/home/fstefaniak/progs/rDock//data/scripts/dock_solv.prm

>  <Rbt.Receptor>
4xnr.prm

>  <SCORE>
-40.0996

>  <SCORE.INTER>
-19.8068

>  <SCORE.INTER.CONST>
1

>  <SCORE.INTER.POLAR>
-2.49381

>  <SCORE.INTER.ROT>
4

>  <SCORE.INTER.SOLV>
10.1498

>  <SCORE.INTER.VDW>
-14.5418

>  <SCORE.INTER.norm>
-2.20075

>  <SCORE.INTRA>
0.516448

>  <SCORE.INTRA.DIHEDRAL>
1.72414

>  <SCORE.INTRA.DIHEDRAL.0>
1.45854

>  <SCORE.INTRA.POLAR>
0

>  <SCORE.INTRA.POLAR.0>
0

>  <SCORE.INTRA.REPUL>
0

>  <SCORE.INTRA.REPUL.0>
0

>  <SCORE.INTRA.SOLV>
0.0786949

>  <SCORE.INTRA.SOLV.lig_0>
-12.7666

>  <SCORE.INTRA.VDW>
-0.384971

>  <SCORE.INTRA.VDW.0>
-0.17083

>  <SCORE.INTRA.norm>
0.0573831

>  <SCORE.RESTR>
0

>  <SCORE.RESTR.CAVITY>
0

>  <SCORE.RESTR.norm>
0

>  <SCORE.SYSTEM>
-20.8093

>  <SCORE.SYSTEM.CONST>
0

>  <SCORE.SYSTEM.DIHEDRAL>
4.08865

>  <SCORE.SYSTEM.POLAR>
-2.96706

>  <SCORE.SYSTEM.SOLV>
0.282515

>  <SCORE.SYSTEM.VDW>
-5.43971

>  <SCORE.SYSTEM.norm>
-2.31214

>  <SCORE.heavy>
9

>  <SCORE.norm>
-4.45551

$$$$
P59204206
 OpenBabel12072022113D
libRbt.so/2013.1/901 2013/11/27
 10 10  0  0  0  0  0  0  0  0999 V2000
    4.6213   17.3212    2.5681 C   0  0  0  0  0  0  0  0  0  0  0  0
    5.4079   16.3499    3.3669 C   0  0  0  0  0  0  0  0  0  0  0  0
    6.0432   17.2115    2.4103 N   0  0  0  0  0  0  0  0  0  0  0  0
    6.8800   18.2407    2.8414 C   0  0  0  0  0  0  0  0  0  0  0  0
    7.0596   19.3050    2.2596 O   0  0  0  0  0  0  0  0  0  0  0  0
    7.4932   17.9088    4.0279 N   0  0  0  0  0  0  0  0  0  0  0  0
    7.2762   18.6940    5.2274 C   0  0  0  0  0  0  0  0  0  0  0  0
    5.8749   18.5195    5.7987 C   0  0  0  0  0  0  0  0  0  0  0  0
    5.7611   19.2782    6.9261 F   0  0  0  0  0  0  0  0  0  0  0  0
    8.3685   17.4120    3.9281 H   0  0  0  0  0  0  0  0  0  0  0  0
  1  2  1  0  0  0  0
  1  3  1  0  0  0  0
  2  3  1  0  0  0  0
  3  4  1  0  0  0  0
  4  5  2  0  0  0  0
  4  6  1  0  0  0  0
  6  7  1  0  0  0  0
  6 10  1  0  0  0  0
  7  8  1  0  0  0  0
  8  9  1  0  0  0  0
M  END
>  <CHROM.0>
-56.78059768,-63.06359727,-66.86553574,-47.53248078,-59.79198559,-176.97730246
-67.06018160,-61.46429434,-167.93084504

>  <CHROM.1>
-76.64238253,-118.49328167,70.94286159,179.41457738,6.26785325,18.14752368
4.04056399,1.62174230,-0.64865758,-1.89411470

>  <Name>
P59204206

>  <RI>
3.1908e+07

>  <Rbt.Current_Directory>
/home/fstefaniak/projects/zuza/docking/adenine/4XNR

>  <Rbt.Executable>
rbdock ($Id: //depot/dev/client3/rdock/2013.1/src/exe/rbdock.cxx#4 $)

>  <Rbt.Library>
libRbt.so (2013.1, Build901 2013/11/27)

>  <Rbt.Parameter_File>
/home/fstefaniak/progs/rDock//data/scripts/dock_solv.prm

>  <Rbt.Receptor>
4xnr.prm

>  <SCORE>
-40.0511

>  <SCORE.INTER>
-20.0044

>  <SCORE.INTER.CONST>
1

>  <SCORE.INTER.POLAR>
-2.75579

>  <SCORE.INTER.ROT>
4

>  <SCORE.INTER.SOLV>
11.3072

>  <SCORE.INTER.VDW>
-14.1861

>  <SCORE.INTER.norm>
-2.22271

>  <SCORE.INTRA>
0.683086

>  <SCORE.INTRA.DIHEDRAL>
0.576355

>  <SCORE.INTRA.DIHEDRAL.0>
1.45854

>  <SCORE.INTRA.POLAR>
0

>  <SCORE.INTRA.POLAR.0>
0

>  <SCORE.INTRA.REPUL>
0

>  <SCORE.INTRA.REPUL.0>
0

>  <SCORE.INTRA.SOLV>
0.060821

>  <SCORE.INTRA.SOLV.lig_0>
-12.7666

>  <SCORE.INTRA.VDW>
0.364498

>  <SCORE.INTRA.VDW.0>
-0.17083

>  <SCORE.INTRA.norm>
0.0758985

>  <SCORE.RESTR>
0

>  <SCORE.RESTR.CAVITY>
0

>  <SCORE.RESTR.norm>
0

>  <SCORE.SYSTEM>
-20.7298

>  <SCORE.SYSTEM.CONST>
0

>  <SCORE.SYSTEM.DIHEDRAL>
4.08088

>  <SCORE.SYSTEM.POLAR>
-2.98873

>  <SCORE.SYSTEM.SOLV>
0.172064

>  <SCORE.SYSTEM.VDW>
-5.27509

>  <SCORE.SYSTEM.norm>
-2.30331

>  <SCORE.heavy>
9

>  <SCORE.norm>
-4.45013

$$$$
P59205821
 OpenBabel12072022113D
libRbt.so/2013.1/901 2013/11/27
 11 11  0  0  0  0  0  0  0  0999 V2000
    7.2491   18.0859    1.7746 C   0  0  0  0  0  0  0  0  0  0  0  0
    6.2513   18.5436    2.8234 C   0  0  1  0  0  0  0  0  0  0  0  0
    6.1162   17.5806    3.9936 C   0  0  1  0  0  0  0  0  0  0  0  0
    5.8532   18.5025    5.0700 N   0  0  0  0  0  0  0  0  0  0  0  0
    6.3847   19.7338    4.7527 C   0  0  0  0  0  0  0  0  0  0  0  0
    6.5729   20.6669    5.5146 O   0  0  0  0  0  0  0  0  0  0  0  0
    6.7225   19.7598    3.4257 O   0  0  0  0  0  0  0  0  0  0  0  0
    5.6762   18.0745    6.4393 C   0  0  0  0  0  0  0  0  0  0  0  0
    5.0422   16.5155    3.7597 C   0  0  0  0  0  0  0  0  0  0  0  0
    5.4830   15.5233    2.8339 O   0  0  0  0  0  0  0  0  0  0  0  0
    6.2349   15.0501    3.2295 H   0  0  0  0  0  0  0  0  0  0  0  0
  2  1  1  6  0  0  0
  2  3  1  0  0  0  0
  2  7  1  0  0  0  0
  3  4  1  0  0  0  0
  3  9  1  6  0  0  0
  4  5  1  0  0  0  0
  4  8  1  0  0  0  0
  5  6  2  0  0  0  0
  5  7  1  0  0  0  0
  9 10  1  0  0  0  0
 10 11  1  0  0  0  0
M  END
>  <CHROM.0>
-55.21359240,56.05531070,-67.20336425,-48.51209726,-59.70153611,-62.03598706
-67.07054050,-58.53261846,-168.07538094

>  <CHROM.1>
74.64787996,64.46857374,6.14133708,18.27070193,4.02812521,-1.88800598,1.11197772
0.88469967

>  <Name>
P59205821

>  <RI>
3.1908e+07

>  <Rbt.Current_Directory>
/home/fstefaniak/projects/zuza/docking/adenine/4XNR

>  <Rbt.Executable>
rbdock ($Id: //depot/dev/client3/rdock/2013.1/src/exe/rbdock.cxx#4 $)

>  <Rbt.Library>
libRbt.so (2013.1, Build901 2013/11/27)

>  <Rbt.Parameter_File>
/home/fstefaniak/progs/rDock//data/scripts/dock_solv.prm

>  <Rbt.Receptor>
4xnr.prm

>  <SCORE>
-43.179

>  <SCORE.INTER>
-23.212

>  <SCORE.INTER.CONST>
1

>  <SCORE.INTER.POLAR>
-2.6954

>  <SCORE.INTER.ROT>
1

>  <SCORE.INTER.SOLV>
12.9276

>  <SCORE.INTER.VDW>
-15.0659

>  <SCORE.INTER.norm>
-2.3212

>  <SCORE.INTRA>
0.0969706

>  <SCORE.INTRA.DIHEDRAL>
0.529739

>  <SCORE.INTRA.DIHEDRAL.0>
0.373337

>  <SCORE.INTRA.POLAR>
0

>  <SCORE.INTRA.POLAR.0>
0

>  <SCORE.INTRA.REPUL>
0

>  <SCORE.INTRA.REPUL.0>
0

>  <SCORE.INTRA.SOLV>
-0.132734

>  <SCORE.INTRA.SOLV.lig_0>
-12.361

>  <SCORE.INTRA.VDW>
-0.101532

>  <SCORE.INTRA.VDW.0>
-0.312399

>  <SCORE.INTRA.norm>
0.00969706

>  <SCORE.RESTR>
0

>  <SCORE.RESTR.CAVITY>
0

>  <SCORE.RESTR.norm>
0

>  <SCORE.SYSTEM>
-20.064

>  <SCORE.SYSTEM.CONST>
0

>  <SCORE.SYSTEM.DIHEDRAL>
4.0467

>  <SCORE.SYSTEM.POLAR>
-2.99408

>  <SCORE.SYSTEM.SOLV>
0.379367

>  <SCORE.SYSTEM.VDW>
-4.87107

>  <SCORE.SYSTEM.norm>
-2.0064

>  <SCORE.heavy>
10

>  <SCORE.norm>
-4.3179

$$$$
P59205821
 OpenBabel12072022113D
libRbt.so/2013.1/901 2013/11/27
 11 11  0  0  0  0  0  0  0  0999 V2000
    7.2459   18.0932    1.8272 C   0  0  0  0  0  0  0  0  0  0  0  0
    6.2329   18.5360    2.8678 C   0  0  1  0  0  0  0  0  0  0  0  0
    6.1055   17.5730    4.0389 C   0  0  1  0  0  0  0  0  0  0  0  0
    5.8193   18.4922    5.1116 N   0  0  0  0  0  0  0  0  0  0  0  0
    6.3324   19.7316    4.7958 C   0  0  0  0  0  0  0  0  0  0  0  0
    6.4994   20.6691    5.5572 O   0  0  0  0  0  0  0  0  0  0  0  0
    6.6793   19.7610    3.4712 O   0  0  0  0  0  0  0  0  0  0  0  0
    5.6396   18.0637    6.4804 C   0  0  0  0  0  0  0  0  0  0  0  0
    5.0512   16.4896    3.7992 C   0  0  0  0  0  0  0  0  0  0  0  0
    5.4971   15.5288    2.8432 O   0  0  0  0  0  0  0  0  0  0  0  0
    6.2419   15.0372    3.2298 H   0  0  0  0  0  0  0  0  0  0  0  0
  2  1  1  6  0  0  0
  2  3  1  0  0  0  0
  2  7  1  0  0  0  0
  3  4  1  0  0  0  0
  3  9  1  6  0  0  0
  4  5  1  0  0  0  0
  4  8  1  0  0  0  0
  5  6  2  0  0  0  0
  5  7  1  0  0  0  0
  9 10  1  0  0  0  0
 10 11  1  0  0  0  0
M  END
>  <CHROM.0>
-58.76621223,60.61921096,-66.08254560,-45.43014360,-58.21184213,-62.94554743
-69.70374586,-58.32235141,-168.23948342

>  <CHROM.1>
72.60743403,66.89026077,6.11660431,18.26617217,4.06801910,-1.85057213,1.11708206
0.85748338

>  <Name>
P59205821

>  <RI>
3.1908e+07

>  <Rbt.Current_Directory>
/home/fstefaniak/projects/zuza/docking/adenine/4XNR

>  <Rbt.Executable>
rbdock ($Id: //depot/dev/client3/rdock/2013.1/src/exe/rbdock.cxx#4 $)

>  <Rbt.Library>
libRbt.so (2013.1, Build901 2013/11/27)

>  <Rbt.Parameter_File>
/home/fstefaniak/progs/rDock//data/scripts/dock_solv.prm

>  <Rbt.Receptor>
4xnr.prm

>  <SCORE>
-43.129

>  <SCORE.INTER>
-23.1481

>  <SCORE.INTER.CONST>
1

>  <SCORE.INTER.POLAR>
-2.67109

>  <SCORE.INTER.ROT>
1

>  <SCORE.INTER.SOLV>
12.9862

>  <SCORE.INTER.VDW>
-15.1238

>  <SCORE.INTER.norm>
-2.31481

>  <SCORE.INTRA>
0.0777775

>  <SCORE.INTRA.DIHEDRAL>
0.480669

>  <SCORE.INTRA.DIHEDRAL.0>
0.373337

>  <SCORE.INTRA.POLAR>
0

>  <SCORE.INTRA.POLAR.0>
0

>  <SCORE.INTRA.REPUL>
0

>  <SCORE.INTRA.REPUL.0>
0

>  <SCORE.INTRA.SOLV>
-0.125312

>  <SCORE.INTRA.SOLV.lig_0>
-12.361

>  <SCORE.INTRA.VDW>
-0.0999009

>  <SCORE.INTRA.VDW.0>
-0.312399

>  <SCORE.INTRA.norm>
0.00777775

>  <SCORE.RESTR>
0

>  <SCORE.RESTR.CAVITY>
0

>  <SCORE.RESTR.norm>
0

>  <SCORE.SYSTEM>
-20.0587

>  <SCORE.SYSTEM.CONST>
0

>  <SCORE.SYSTEM.DIHEDRAL>
4.38299

>  <SCORE.SYSTEM.POLAR>
-3.01175

>  <SCORE.SYSTEM.SOLV>
0.356879

>  <SCORE.SYSTEM.VDW>
-4.91325

>  <SCORE.SYSTEM.norm>
-2.00587

>  <SCORE.heavy>
10

>  <SCORE.norm>
-4.3129

$$$$
P59205821
 OpenBabel12072022113D
libRbt.so/2013.1/901 2013/11/27
 11 11  0  0  0  0  0  0  0  0999 V2000
    7.2604   18.0839    1.7948 C   0  0  0  0  0  0  0  0  0  0  0  0
    6.2509   18.5439    2.8314 C   0  0  1  0  0  0  0  0  0  0  0  0
    6.1112   17.5891    4.0078 C   0  0  1  0  0  0  0  0  0  0  0  0
    5.8335   18.5177    5.0748 N   0  0  0  0  0  0  0  0  0  0  0  0
    6.3607   19.7495    4.7526 C   0  0  0  0  0  0  0  0  0  0  0  0
    6.5369   20.6895    5.5088 O   0  0  0  0  0  0  0  0  0  0  0  0
    6.7099   19.7673    3.4284 O   0  0  0  0  0  0  0  0  0  0  0  0
    5.6470   18.0991    6.4457 C   0  0  0  0  0  0  0  0  0  0  0  0
    5.0453   16.5160    3.7727 C   0  0  0  0  0  0  0  0  0  0  0  0
    5.4886   15.5354    2.8359 O   0  0  0  0  0  0  0  0  0  0  0  0
    6.2237   15.0410    3.2372 H   0  0  0  0  0  0  0  0  0  0  0  0
  2  1  1  6  0  0  0
  2  3  1  0  0  0  0
  2  7  1  0  0  0  0
  3  4  1  0  0  0  0
  3  9  1  6  0  0  0
  4  5  1  0  0  0  0
  4  8  1  0  0  0  0
  5  6  2  0  0  0  0
  5  7  1  0  0  0  0
  9 10  1  0  0  0  0
 10 11  1  0  0  0  0
M  END
>  <CHROM.0>
-55.35548628,58.83639827,-63.60617292,-47.13704856,-62.84422882,-63.98505676
-69.79899714,-57.30734775,-167.80402555

>  <CHROM.1>
73.35690591,66.79934524,6.13059333,18.28121900,4.03452234,-1.86459820,1.10889481
0.86111225

>  <Name>
P59205821

>  <RI>
3.1908e+07

>  <Rbt.Current_Directory>
/home/fstefaniak/projects/zuza/docking/adenine/4XNR

>  <Rbt.Executable>
rbdock ($Id: //depot/dev/client3/rdock/2013.1/src/exe/rbdock.cxx#4 $)

>  <Rbt.Library>
libRbt.so (2013.1, Build901 2013/11/27)

>  <Rbt.Parameter_File>
/home/fstefaniak/progs/rDock//data/scripts/dock_solv.prm

>  <Rbt.Receptor>
4xnr.prm

>  <SCORE>
-43.0957

>  <SCORE.INTER>
-23.1823

>  <SCORE.INTER.CONST>
1

>  <SCORE.INTER.POLAR>
-2.69474

>  <SCORE.INTER.ROT>
1

>  <SCORE.INTER.SOLV>
12.9755

>  <SCORE.INTER.VDW>
-15.0642

>  <SCORE.INTER.norm>
-2.31823

>  <SCORE.INTRA>
0.102148

>  <SCORE.INTRA.DIHEDRAL>
0.539208

>  <SCORE.INTRA.DIHEDRAL.0>
0.373337

>  <SCORE.INTRA.POLAR>
0

>  <SCORE.INTRA.POLAR.0>
0

>  <SCORE.INTRA.REPUL>
0

>  <SCORE.INTRA.REPUL.0>
0

>  <SCORE.INTRA.SOLV>
-0.127246

>  <SCORE.INTRA.SOLV.lig_0>
-12.361

>  <SCORE.INTRA.VDW>
-0.103833

>  <SCORE.INTRA.VDW.0>
-0.312399

>  <SCORE.INTRA.norm>
0.0102148

>  <SCORE.RESTR>
0

>  <SCORE.RESTR.CAVITY>
0

>  <SCORE.RESTR.norm>
0

>  <SCORE.SYSTEM>
-20.0155

>  <SCORE.SYSTEM.CONST>
0

>  <SCORE.SYSTEM.DIHEDRAL>
4.29152

>  <SCORE.SYSTEM.POLAR>
-3.01545

>  <SCORE.SYSTEM.SOLV>
0.36195

>  <SCORE.SYSTEM.VDW>
-4.84336

>  <SCORE.SYSTEM.norm>
-2.00155

>  <SCORE.heavy>
10

>  <SCORE.norm>
-4.30957

$$$$
P59226121
 OpenBabel12072022113D
libRbt.so/2013.1/901 2013/11/27
 13 13  0  0  0  0  0  0  0  0999 V2000
    3.6095   14.6433    4.5094 C   0  0  0  0  0  0  0  0  0  0  0  0
    4.0382   15.3208    3.2159 C   0  0  2  0  0  0  0  0  0  0  0  0
    5.5314   15.6230    3.1465 C   0  0  0  0  0  0  0  0  0  0  0  0
    5.6254   17.0806    3.5719 C   0  0  2  0  0  0  0  0  0  0  0  0
    4.3168   17.6251    2.9936 C   0  0  0  0  0  0  0  0  0  0  0  0
    3.3424   16.5721    3.0992 O   0  0  0  0  0  0  0  0  0  0  0  0
    6.8249   17.8390    3.0085 C   0  0  0  0  0  0  0  0  0  0  0  0
    5.5399   17.2458    5.0098 O   0  0  0  0  0  0  0  0  0  0  0  0
    5.6809   18.4724    5.5507 C   0  0  0  0  0  0  0  0  0  0  0  0
    5.5710   19.5442    4.9810 O   0  0  0  0  0  0  0  0  0  0  0  0
    5.9854   18.3561    6.8614 N   0  0  0  0  0  0  0  0  0  0  0  0
    6.1214   17.4422    7.2642 H   0  0  0  0  0  0  0  0  0  0  0  0
    6.1682   19.1903    7.3978 H   0  0  0  0  0  0  0  0  0  0  0  0
  2  3  1  0  0  0  0
  2  6  1  0  0  0  0
  2  1  1  1  0  0  0
  3  4  1  0  0  0  0
  4  5  1  0  0  0  0
  4  7  1  6  0  0  0
  4  8  1  0  0  0  0
  5  6  1  0  0  0  0
  8  9  1  0  0  0  0
  9 10  2  0  0  0  0
  9 11  1  0  0  0  0
 11 12  1  0  0  0  0
 11 13  1  0  0  0  0
M  END
>  <CHROM.0>
-58.59582876,-176.61140727,-66.31727078,-46.22095288,-174.89286949,-64.02040256
-66.47791150,-58.24674076,-168.05777016

>  <CHROM.1>
176.37112065,18.50955657,5.09380457,17.14367393,4.21466515,2.47134829,-0.96770909
-1.72699974

>  <Name>
P59226121

>  <RI>
3.4169e+07

>  <Rbt.Current_Directory>
/home/fstefaniak/projects/zuza/docking/adenine/4XNR

>  <Rbt.Executable>
rbdock ($Id: //depot/dev/client3/rdock/2013.1/src/exe/rbdock.cxx#4 $)

>  <Rbt.Library>
libRbt.so (2013.1, Build901 2013/11/27)

>  <Rbt.Parameter_File>
/home/fstefaniak/progs/rDock//data/scripts/dock_solv.prm

>  <Rbt.Receptor>
4xnr.prm

>  <SCORE>
-38.0167

>  <SCORE.INTER>
-20.0052

>  <SCORE.INTER.CONST>
1

>  <SCORE.INTER.POLAR>
-1.91038

>  <SCORE.INTER.ROT>
2

>  <SCORE.INTER.SOLV>
11.675

>  <SCORE.INTER.VDW>
-15.7939

>  <SCORE.INTER.norm>
-1.81866

>  <SCORE.INTRA>
2.78076

>  <SCORE.INTRA.DIHEDRAL>
2.91407

>  <SCORE.INTRA.DIHEDRAL.0>
0.14723

>  <SCORE.INTRA.POLAR>
0

>  <SCORE.INTRA.POLAR.0>
0

>  <SCORE.INTRA.REPUL>
0

>  <SCORE.INTRA.REPUL.0>
0

>  <SCORE.INTRA.SOLV>
-0.12468

>  <SCORE.INTRA.SOLV.lig_0>
-9.19001

>  <SCORE.INTRA.VDW>
1.38607

>  <SCORE.INTRA.VDW.0>
-0.00896957

>  <SCORE.INTRA.norm>
0.252796

>  <SCORE.RESTR>
0

>  <SCORE.RESTR.CAVITY>
0

>  <SCORE.RESTR.norm>
0

>  <SCORE.SYSTEM>
-20.7922

>  <SCORE.SYSTEM.CONST>
0

>  <SCORE.SYSTEM.DIHEDRAL>
4.27815

>  <SCORE.SYSTEM.POLAR>
-2.99787

>  <SCORE.SYSTEM.SOLV>
0.0904768

>  <SCORE.SYSTEM.VDW>
-5.3248

>  <SCORE.SYSTEM.norm>
-1.8902

>  <SCORE.heavy>
11

>  <SCORE.norm>
-3.45607

$$$$
P59226121
 OpenBabel12072022113D
libRbt.so/2013.1/901 2013/11/27
 13 13  0  0  0  0  0  0  0  0999 V2000
    3.6606   14.5828    4.5412 C   0  0  0  0  0  0  0  0  0  0  0  0
    4.0519   15.2724    3.2423 C   0  0  2  0  0  0  0  0  0  0  0  0
    5.5354   15.6145    3.1513 C   0  0  0  0  0  0  0  0  0  0  0  0
    5.5966   17.0738    3.5768 C   0  0  2  0  0  0  0  0  0  0  0  0
    4.2655   17.5835    3.0184 C   0  0  0  0  0  0  0  0  0  0  0  0
    3.3213   16.5047    3.1371 O   0  0  0  0  0  0  0  0  0  0  0  0
    6.7669   17.8643    2.9967 C   0  0  0  0  0  0  0  0  0  0  0  0
    5.5279   17.2356    5.0161 O   0  0  0  0  0  0  0  0  0  0  0  0
    5.6650   18.4624    5.5575 C   0  0  0  0  0  0  0  0  0  0  0  0
    5.5484   19.5341    4.9889 O   0  0  0  0  0  0  0  0  0  0  0  0
    5.9742   18.3465    6.8670 N   0  0  0  0  0  0  0  0  0  0  0  0
    6.1157   17.4329    7.2687 H   0  0  0  0  0  0  0  0  0  0  0  0
    6.1550   19.1811    7.4035 H   0  0  0  0  0  0  0  0  0  0  0  0
  2  3  1  0  0  0  0
  2  6  1  0  0  0  0
  2  1  1  1  0  0  0
  3  4  1  0  0  0  0
  4  5  1  0  0  0  0
  4  7  1  6  0  0  0
  4  8  1  0  0  0  0
  5  6  1  0  0  0  0
  8  9  1  0  0  0  0
  9 10  2  0  0  0  0
  9 11  1  0  0  0  0
 11 12  1  0  0  0  0
 11 13  1  0  0  0  0
M  END
>  <CHROM.0>
-58.80452907,-174.30915247,-65.79028757,-45.76637656,-176.70408025,-64.53153167
-66.47198271,-174.98359200,-167.52011750

>  <CHROM.1>
175.33222565,17.91378812,5.08003921,17.12092173,4.22801088,2.50120721,-0.99432819
-1.69973616

>  <Name>
P59226121

>  <RI>
3.4169e+07

>  <Rbt.Current_Directory>
/home/fstefaniak/projects/zuza/docking/adenine/4XNR

>  <Rbt.Executable>
rbdock ($Id: //depot/dev/client3/rdock/2013.1/src/exe/rbdock.cxx#4 $)

>  <Rbt.Library>
libRbt.so (2013.1, Build901 2013/11/27)

>  <Rbt.Parameter_File>
/home/fstefaniak/progs/rDock//data/scripts/dock_solv.prm

>  <Rbt.Receptor>
4xnr.prm

>  <SCORE>
-37.8426

>  <SCORE.INTER>
-20.0155

>  <SCORE.INTER.CONST>
1

>  <SCORE.INTER.POLAR>
-1.85423

>  <SCORE.INTER.ROT>
2

>  <SCORE.INTER.SOLV>
11.6949

>  <SCORE.INTER.VDW>
-15.9945

>  <SCORE.INTER.norm>
-1.81959

>  <SCORE.INTRA>
2.86067

>  <SCORE.INTRA.DIHEDRAL>
2.8736

>  <SCORE.INTRA.DIHEDRAL.0>
0.14723

>  <SCORE.INTRA.POLAR>
0

>  <SCORE.INTRA.POLAR.0>
0

>  <SCORE.INTRA.REPUL>
0

>  <SCORE.INTRA.REPUL.0>
0

>  <SCORE.INTRA.SOLV>
-0.133574

>  <SCORE.INTRA.SOLV.lig_0>
-9.19001

>  <SCORE.INTRA.VDW>
1.49065

>  <SCORE.INTRA.VDW.0>
-0.00896957

>  <SCORE.INTRA.norm>
0.260061

>  <SCORE.RESTR>
0

>  <SCORE.RESTR.CAVITY>
0

>  <SCORE.RESTR.norm>
0

>  <SCORE.SYSTEM>
-20.6878

>  <SCORE.SYSTEM.CONST>
0

>  <SCORE.SYSTEM.DIHEDRAL>
4.50835

>  <SCORE.SYSTEM.POLAR>
-3.00143

>  <SCORE.SYSTEM.SOLV>
-0.049756

>  <SCORE.SYSTEM.VDW>
-5.27329

>  <SCORE.SYSTEM.norm>
-1.88071

>  <SCORE.heavy>
11

>  <SCORE.norm>
-3.44024

$$$$
P59226121
 OpenBabel12072022113D
libRbt.so/2013.1/901 2013/11/27
 13 13  0  0  0  0  0  0  0  0999 V2000
    4.5514   15.7887    4.1290 C   0  0  0  0  0  0  0  0  0  0  0  0
    4.2266   14.3142    3.9384 C   0  0  2  0  0  0  0  0  0  0  0  0
    2.9113   14.0645    3.2080 C   0  0  0  0  0  0  0  0  0  0  0  0
    1.9159   13.8147    4.3310 C   0  0  2  0  0  0  0  0  0  0  0  0
    2.8148   13.1081    5.3488 C   0  0  0  0  0  0  0  0  0  0  0  0
    4.1229   13.6950    5.2304 O   0  0  0  0  0  0  0  0  0  0  0  0
    0.7273   12.9341    3.9529 C   0  0  0  0  0  0  0  0  0  0  0  0
    1.4687   15.0424    4.9596 O   0  0  0  0  0  0  0  0  0  0  0  0
    0.7733   15.9460    4.2407 C   0  0  0  0  0  0  0  0  0  0  0  0
    0.8037   16.1050    3.0328 O   0  0  0  0  0  0  0  0  0  0  0  0
    0.0135   16.6946    5.0692 N   0  0  0  0  0  0  0  0  0  0  0  0
    0.0746   16.5562    6.0658 H   0  0  0  0  0  0  0  0  0  0  0  0
   -0.5334   17.4494    4.6843 H   0  0  0  0  0  0  0  0  0  0  0  0
  2  3  1  0  0  0  0
  2  6  1  0  0  0  0
  2  1  1  1  0  0  0
  3  4  1  0  0  0  0
  4  5  1  0  0  0  0
  4  7  1  6  0  0  0
  4  8  1  0  0  0  0
  5  6  1  0  0  0  0
  8  9  1  0  0  0  0
  9 10  2  0  0  0  0
  9 11  1  0  0  0  0
 11 12  1  0  0  0  0
 11 13  1  0  0  0  0
M  END
>  <CHROM.0>
-58.35119509,51.81203102,-70.09893671,-47.35365471,-57.68506062,-64.71896304
-69.04847097,-59.30220946,-167.81740192

>  <CHROM.1>
63.67526551,-25.40199704,2.19276188,14.71471254,4.32929632,-0.51960264,0.00970092
-0.13461184

>  <Name>
P59226121

>  <RI>
3.4169e+07

>  <Rbt.Current_Directory>
/home/fstefaniak/projects/zuza/docking/adenine/4XNR

>  <Rbt.Executable>
rbdock ($Id: //depot/dev/client3/rdock/2013.1/src/exe/rbdock.cxx#4 $)

>  <Rbt.Library>
libRbt.so (2013.1, Build901 2013/11/27)

>  <Rbt.Parameter_File>
/home/fstefaniak/progs/rDock//data/scripts/dock_solv.prm

>  <Rbt.Receptor>
4xnr.prm

>  <SCORE>
-37.2013

>  <SCORE.INTER>
-19.149

>  <SCORE.INTER.CONST>
1

>  <SCORE.INTER.POLAR>
-2.48619

>  <SCORE.INTER.ROT>
2

>  <SCORE.INTER.SOLV>
11.5576

>  <SCORE.INTER.VDW>
-13.2645

>  <SCORE.INTER.norm>
-1.74082

>  <SCORE.INTRA>
1.9967

>  <SCORE.INTRA.DIHEDRAL>
4.20561

>  <SCORE.INTRA.DIHEDRAL.0>
0.14723

>  <SCORE.INTRA.POLAR>
0

>  <SCORE.INTRA.POLAR.0>
0

>  <SCORE.INTRA.REPUL>
0

>  <SCORE.INTRA.REPUL.0>
0

>  <SCORE.INTRA.SOLV>
0.0202997

>  <SCORE.INTRA.SOLV.lig_0>
-9.19001

>  <SCORE.INTRA.VDW>
-0.11626

>  <SCORE.INTRA.VDW.0>
-0.00896957

>  <SCORE.INTRA.norm>
0.181518

>  <SCORE.RESTR>
0

>  <SCORE.RESTR.CAVITY>
0

>  <SCORE.RESTR.norm>
0

>  <SCORE.SYSTEM>
-20.049

>  <SCORE.SYSTEM.CONST>
0

>  <SCORE.SYSTEM.DIHEDRAL>
4.8112

>  <SCORE.SYSTEM.POLAR>
-3.00309

>  <SCORE.SYSTEM.SOLV>
0.375791

>  <SCORE.SYSTEM.VDW>
-5.08467

>  <SCORE.SYSTEM.norm>
-1.82263

>  <SCORE.heavy>
11

>  <SCORE.norm>
-3.38193

$$$$
P59255515
 OpenBabel12072022113D
libRbt.so/2013.1/901 2013/11/27
 12 13  0  0  0  0  0  0  0  0999 V2000
    1.0300   17.5622    3.0753 C   0  0  0  0  0  0  0  0  0  0  0  0
    1.0828   16.8505    4.2094 C   0  0  0  0  0  0  0  0  0  0  0  0
    0.6720   15.4137    4.3455 C   0  0  0  0  0  0  0  0  0  0  0  0
    1.8467   14.5765    4.7293 N   0  3  2  0  0  0  0  0  0  0  0  0
    2.0515   14.7248    5.7167 H   0  0  0  0  0  0  0  0  0  0  0  0
    3.0989   14.7778    3.8694 C   0  0  0  0  0  0  0  0  0  0  0  0
    3.3759   13.3520    3.3470 C   0  0  1  0  0  0  0  0  0  0  0  0
    2.9701   12.4899    4.5280 C   0  0  0  0  0  0  0  0  0  0  0  0
    1.5743   13.0727    4.5191 C   0  0  2  0  0  0  0  0  0  0  0  0
    1.2648   12.8591    3.0240 C   0  0  0  0  0  0  0  0  0  0  0  0
    2.3511   13.0308    2.3091 N   0  0  0  0  0  0  0  0  0  0  0  0
    0.0994   12.6394    2.6649 O   0  5  0  0  0  0  0  0  0  0  0  0
  1  2  2  0  0  0  0
  2  3  1  0  0  0  0
  3  4  1  0  0  0  0
  4  5  1  1  0  0  0
  4  6  1  0  0  0  0
  4  9  1  0  0  0  0
  7  6  1  1  0  0  0
  7  8  1  0  0  0  0
  7 11  1  0  0  0  0
  9  8  1  6  0  0  0
  9 10  1  0  0  0  0
 10 11  2  0  0  0  0
 10 12  1  0  0  0  0
M  CHG  2   4   1  12  -1
M  END
>  <CHROM.0>
-57.83739388,-77.17611981,-73.29367948,-46.55695572,-59.01678496,-178.70138726
-173.44061950,-61.82854245,-167.89544238

>  <CHROM.1>
116.96413954,75.73271358,1.74243684,14.23577727,3.69519833,1.82706355,-0.43226605
0.20700474

>  <Name>
P59255515

>  <RI>
3.1908e+07

>  <Rbt.Current_Directory>
/home/fstefaniak/projects/zuza/docking/adenine/4XNR

>  <Rbt.Executable>
rbdock ($Id: //depot/dev/client3/rdock/2013.1/src/exe/rbdock.cxx#4 $)

>  <Rbt.Library>
libRbt.so (2013.1, Build901 2013/11/27)

>  <Rbt.Parameter_File>
/home/fstefaniak/progs/rDock//data/scripts/dock_solv.prm

>  <Rbt.Receptor>
4xnr.prm

>  <SCORE>
-34.3272

>  <SCORE.INTER>
-14.1769

>  <SCORE.INTER.CONST>
1

>  <SCORE.INTER.POLAR>
-2.65481

>  <SCORE.INTER.ROT>
2

>  <SCORE.INTER.SOLV>
15.4117

>  <SCORE.INTER.VDW>
-10.6725

>  <SCORE.INTER.norm>
-1.28881

>  <SCORE.INTRA>
-0.561937

>  <SCORE.INTRA.DIHEDRAL>
-1.28522

>  <SCORE.INTRA.DIHEDRAL.0>
1.7566

>  <SCORE.INTRA.POLAR>
0

>  <SCORE.INTRA.POLAR.0>
0

>  <SCORE.INTRA.REPUL>
0

>  <SCORE.INTRA.REPUL.0>
0

>  <SCORE.INTRA.SOLV>
-1.01288

>  <SCORE.INTRA.SOLV.lig_0>
-41.4675

>  <SCORE.INTRA.VDW>
0.58711

>  <SCORE.INTRA.VDW.0>
-0.355475

>  <SCORE.INTRA.norm>
-0.0510852

>  <SCORE.RESTR>
0.0669371

>  <SCORE.RESTR.CAVITY>
0.0669371

>  <SCORE.RESTR.norm>
0.00608519

>  <SCORE.SYSTEM>
-19.6552

>  <SCORE.SYSTEM.CONST>
0

>  <SCORE.SYSTEM.DIHEDRAL>
5.96269

>  <SCORE.SYSTEM.POLAR>
-2.97767

>  <SCORE.SYSTEM.SOLV>
0.105732

>  <SCORE.SYSTEM.VDW>
-5.20073

>  <SCORE.SYSTEM.norm>
-1.78684

>  <SCORE.heavy>
11

>  <SCORE.norm>
-3.12065

$$$$
P59255515
 OpenBabel12072022113D
libRbt.so/2013.1/901 2013/11/27
 12 13  0  0  0  0  0  0  0  0999 V2000
    0.5756   16.8937    4.3299 C   0  0  0  0  0  0  0  0  0  0  0  0
    1.2257   15.9024    3.7052 C   0  0  0  0  0  0  0  0  0  0  0  0
    2.4611   15.2233    4.2193 C   0  0  0  0  0  0  0  0  0  0  0  0
    2.0975   13.9609    4.9279 N   0  3  2  0  0  0  0  0  0  0  0  0
    1.4029   14.1703    5.6439 H   0  0  0  0  0  0  0  0  0  0  0  0
    3.2780   13.1803    5.5154 C   0  0  0  0  0  0  0  0  0  0  0  0
    3.1319   11.7996    4.8412 C   0  0  1  0  0  0  0  0  0  0  0  0
    1.6254   11.6358    4.7619 C   0  0  0  0  0  0  0  0  0  0  0  0
    1.4925   12.9161    3.9675 C   0  0  2  0  0  0  0  0  0  0  0  0
    2.5494   12.6070    2.8886 C   0  0  0  0  0  0  0  0  0  0  0  0
    3.5462   11.9344    3.4127 N   0  0  0  0  0  0  0  0  0  0  0  0
    2.4032   13.0534    1.7420 O   0  5  0  0  0  0  0  0  0  0  0  0
  1  2  2  0  0  0  0
  2  3  1  0  0  0  0
  3  4  1  0  0  0  0
  4  5  1  1  0  0  0
  4  6  1  0  0  0  0
  4  9  1  0  0  0  0
  7  6  1  1  0  0  0
  7  8  1  0  0  0  0
  7 11  1  0  0  0  0
  9  8  1  1  0  0  0
  9 10  1  0  0  0  0
 10 11  2  0  0  0  0
 10 12  1  0  0  0  0
M  CHG  2   4   1  12  -1
M  END
>  <CHROM.0>
-58.23146007,-177.71952816,60.06742160,-48.08411324,-177.23691084,-63.44419698
52.50272008,-61.48711489,-168.18891996

>  <CHROM.1>
96.58535570,-53.67936551,2.21471642,13.56576909,4.02161811,-3.00373514,1.19034546
-1.67027225

>  <Name>
P59255515

>  <RI>
3.1908e+07

>  <Rbt.Current_Directory>
/home/fstefaniak/projects/zuza/docking/adenine/4XNR

>  <Rbt.Executable>
rbdock ($Id: //depot/dev/client3/rdock/2013.1/src/exe/rbdock.cxx#4 $)

>  <Rbt.Library>
libRbt.so (2013.1, Build901 2013/11/27)

>  <Rbt.Parameter_File>
/home/fstefaniak/progs/rDock//data/scripts/dock_solv.prm

>  <Rbt.Receptor>
4xnr.prm

>  <SCORE>
-31.8951

>  <SCORE.INTER>
-12.974

>  <SCORE.INTER.CONST>
1

>  <SCORE.INTER.POLAR>
-2.13214

>  <SCORE.INTER.ROT>
2

>  <SCORE.INTER.SOLV>
18.7567

>  <SCORE.INTER.VDW>
-12.7278

>  <SCORE.INTER.norm>
-1.17946

>  <SCORE.INTRA>
-0.0891736

>  <SCORE.INTRA.DIHEDRAL>
-0.708009

>  <SCORE.INTRA.DIHEDRAL.0>
1.7566

>  <SCORE.INTRA.POLAR>
0

>  <SCORE.INTRA.POLAR.0>
0

>  <SCORE.INTRA.REPUL>
0

>  <SCORE.INTRA.REPUL.0>
0

>  <SCORE.INTRA.SOLV>
0.730227

>  <SCORE.INTRA.SOLV.lig_0>
-41.4675

>  <SCORE.INTRA.VDW>
-0.100282

>  <SCORE.INTRA.VDW.0>
-0.355475

>  <SCORE.INTRA.norm>
-0.00810669

>  <SCORE.RESTR>
0.0734604

>  <SCORE.RESTR.CAVITY>
0.0734604

>  <SCORE.RESTR.norm>
0.00667822

>  <SCORE.SYSTEM>
-18.9054

>  <SCORE.SYSTEM.CONST>
0

>  <SCORE.SYSTEM.DIHEDRAL>
3.80389

>  <SCORE.SYSTEM.POLAR>
-2.94836

>  <SCORE.SYSTEM.SOLV>
-0.0116546

>  <SCORE.SYSTEM.VDW>
-4.03982

>  <SCORE.SYSTEM.norm>
-1.71867

>  <SCORE.heavy>
11

>  <SCORE.norm>
-2.89956

$$$$
P59255515
 OpenBabel12072022113D
libRbt.so/2013.1/901 2013/11/27
 12 13  0  0  0  0  0  0  0  0999 V2000
    0.1904   17.2558    4.0641 C   0  0  0  0  0  0  0  0  0  0  0  0
    1.0380   16.3130    4.4979 C   0  0  0  0  0  0  0  0  0  0  0  0
    2.1939   15.7658    3.7130 C   0  0  0  0  0  0  0  0  0  0  0  0
    2.7884   14.5940    4.4211 N   0  3  2  0  0  0  0  0  0  0  0  0
    2.9420   14.8397    5.3984 H   0  0  0  0  0  0  0  0  0  0  0  0
    4.0633   14.0277    3.7871 C   0  0  0  0  0  0  0  0  0  0  0  0
    3.6811   12.5543    3.5317 C   0  0  1  0  0  0  0  0  0  0  0  0
    2.8029   12.2355    4.7274 C   0  0  0  0  0  0  0  0  0  0  0  0
    1.8581   13.3641    4.3791 C   0  0  2  0  0  0  0  0  0  0  0  0
    1.6311   13.0012    2.8980 C   0  0  0  0  0  0  0  0  0  0  0  0
    2.7327   12.5140    2.3787 N   0  0  0  0  0  0  0  0  0  0  0  0
    0.5418   13.2553    2.3649 O   0  5  0  0  0  0  0  0  0  0  0  0
  1  2  2  0  0  0  0
  2  3  1  0  0  0  0
  3  4  1  0  0  0  0
  4  5  1  1  0  0  0
  4  6  1  0  0  0  0
  4  9  1  0  0  0  0
  7  6  1  1  0  0  0
  7  8  1  0  0  0  0
  7 11  1  0  0  0  0
  9  8  1  1  0  0  0
  9 10  1  0  0  0  0
 10 11  2  0  0  0  0
 10 12  1  0  0  0  0
M  CHG  2   4   1  12  -1
M  END
>  <CHROM.0>
-58.00665548,-67.30002914,-63.54423419,-47.51607097,-57.16430986,-63.03310859
-64.70195754,-176.00936534,-167.60396476

>  <CHROM.1>
-171.45022260,-48.71019906,2.12844369,14.08889552,3.70178775,2.11126320,-0.46283953
0.42533454

>  <Name>
P59255515

>  <RI>
3.1908e+07

>  <Rbt.Current_Directory>
/home/fstefaniak/projects/zuza/docking/adenine/4XNR

>  <Rbt.Executable>
rbdock ($Id: //depot/dev/client3/rdock/2013.1/src/exe/rbdock.cxx#4 $)

>  <Rbt.Library>
libRbt.so (2013.1, Build901 2013/11/27)

>  <Rbt.Parameter_File>
/home/fstefaniak/progs/rDock//data/scripts/dock_solv.prm

>  <Rbt.Receptor>
4xnr.prm

>  <SCORE>
-31.43

>  <SCORE.INTER>
-11.4625

>  <SCORE.INTER.CONST>
1

>  <SCORE.INTER.POLAR>
-1.61555

>  <SCORE.INTER.ROT>
2

>  <SCORE.INTER.SOLV>
15.1248

>  <SCORE.INTER.VDW>
-12.2314

>  <SCORE.INTER.norm>
-1.04204

>  <SCORE.INTRA>
0.653383

>  <SCORE.INTRA.DIHEDRAL>
1.30341

>  <SCORE.INTRA.DIHEDRAL.0>
1.7566

>  <SCORE.INTRA.POLAR>
0

>  <SCORE.INTRA.POLAR.0>
0

>  <SCORE.INTRA.REPUL>
0

>  <SCORE.INTRA.REPUL.0>
0

>  <SCORE.INTRA.SOLV>
0.219884

>  <SCORE.INTRA.SOLV.lig_0>
-41.4675

>  <SCORE.INTRA.VDW>
-0.108264

>  <SCORE.INTRA.VDW.0>
-0.355475

>  <SCORE.INTRA.norm>
0.0593984

>  <SCORE.RESTR>
0.0967655

>  <SCORE.RESTR.CAVITY>
0.0967655

>  <SCORE.RESTR.norm>
0.00879687

>  <SCORE.SYSTEM>
-20.7176

>  <SCORE.SYSTEM.CONST>
0

>  <SCORE.SYSTEM.DIHEDRAL>
4.11401

>  <SCORE.SYSTEM.POLAR>
-2.98661

>  <SCORE.SYSTEM.SOLV>
0.157159

>  <SCORE.SYSTEM.VDW>
-5.28011

>  <SCORE.SYSTEM.norm>
-1.88342

>  <SCORE.heavy>
11

>  <SCORE.norm>
-2.85727

$$$$
P59273005
 OpenBabel12072022113D
libRbt.so/2013.1/901 2013/11/27
 18 19  0  0  0  0  0  0  0  0999 V2000
    1.4465   15.9518    3.9176 C   0  0  0  0  0  0  0  0  0  0  0  0
    2.9391   16.2678    3.9203 C   0  0  0  0  0  0  0  0  0  0  0  0
    3.7485   14.9911    3.7130 C   0  0  0  0  0  0  0  0  0  0  0  0
    3.2718   17.1459    2.8377 O   0  0  0  0  0  0  0  0  0  0  0  0
    4.5481   17.6886    3.0420 N   0  0  0  0  0  0  0  0  0  0  0  0
    5.5130   17.8631    2.0448 C   0  0  0  0  0  0  0  0  0  0  0  0
    6.6697   18.3481    2.6559 C   0  0  0  0  0  0  0  0  0  0  0  0
    6.3774   18.4114    4.0059 C   0  0  0  0  0  0  0  0  0  0  0  0
    5.1199   18.0060    4.2260 C   0  0  0  0  0  0  0  0  0  0  0  0
    4.8008   18.0547    5.5316 O   0  0  0  0  0  0  0  0  0  0  0  0
    5.9541   18.5191    6.1364 C   0  0  0  0  0  0  0  0  0  0  0  0
    6.9653   18.7556    5.2068 C   0  0  0  0  0  0  0  0  0  0  0  0
    7.8123   18.6694    2.0225 N   0  0  0  0  0  0  0  0  0  0  0  0
    5.2592   17.5639    0.7427 N   0  0  0  0  0  0  0  0  0  0  0  0
    8.6790   18.2356    2.3255 H   0  0  0  0  0  0  0  0  0  0  0  0
    7.8027   18.8843    1.0306 H   0  0  0  0  0  0  0  0  0  0  0  0
    5.8024   18.0544    0.0328 H   0  0  0  0  0  0  0  0  0  0  0  0
    4.2870   17.4471    0.4701 H   0  0  0  0  0  0  0  0  0  0  0  0
  1  2  1  0  0  0  0
  2  3  1  0  0  0  0
  2  4  1  0  0  0  0
  4  5  1  0  0  0  0
  5  6  1  0  0  0  0
  5  9  1  0  0  0  0
  6  7  2  0  0  0  0
  6 14  1  0  0  0  0
  7  8  1  0  0  0  0
  7 13  1  0  0  0  0
  8  9  2  0  0  0  0
  8 12  1  0  0  0  0
  9 10  1  0  0  0  0
 10 11  1  0  0  0  0
 11 12  2  0  0  0  0
 13 15  1  0  0  0  0
 13 16  1  0  0  0  0
 14 17  1  0  0  0  0
 14 18  1  0  0  0  0
M  END
>  <CHROM.0>
-59.02282055,-175.87654026,61.24930549,-47.35971059,-176.23136702,-174.16565864
54.44620545,-57.87032106,-168.33792512

>  <CHROM.1>
165.31806156,138.91952340,154.56517112,-125.06411356,4.97752898,17.55078074
3.52372921,-3.12645068,-0.53098076,-1.69732505

>  <Name>
P59273005

>  <RI>
2.22087e+07

>  <Rbt.Current_Directory>
/home/fstefaniak/projects/zuza/docking/adenine/4XNR

>  <Rbt.Executable>
rbdock ($Id: //depot/dev/client3/rdock/2013.1/src/exe/rbdock.cxx#4 $)

>  <Rbt.Library>
libRbt.so (2013.1, Build901 2013/11/27)

>  <Rbt.Parameter_File>
/home/fstefaniak/progs/rDock//data/scripts/dock_solv.prm

>  <Rbt.Receptor>
4xnr.prm

>  <SCORE>
-58.957

>  <SCORE.INTER>
-39.8338

>  <SCORE.INTER.CONST>
1

>  <SCORE.INTER.POLAR>
-4.28591

>  <SCORE.INTER.ROT>
4

>  <SCORE.INTER.SOLV>
15.9026

>  <SCORE.INTER.VDW>
-23.837

>  <SCORE.INTER.norm>
-2.84527

>  <SCORE.INTRA>
-0.544266

>  <SCORE.INTRA.DIHEDRAL>
-3.11834

>  <SCORE.INTRA.DIHEDRAL.0>
6.58378

>  <SCORE.INTRA.POLAR>
0

>  <SCORE.INTRA.POLAR.0>
0

>  <SCORE.INTRA.REPUL>
0

>  <SCORE.INTRA.REPUL.0>
0

>  <SCORE.INTRA.SOLV>
0.0260383

>  <SCORE.INTRA.SOLV.lig_0>
-15.0499

>  <SCORE.INTRA.VDW>
1.00188

>  <SCORE.INTRA.VDW.0>
-1.72639

>  <SCORE.INTRA.norm>
-0.0388761

>  <SCORE.RESTR>
0

>  <SCORE.RESTR.CAVITY>
0

>  <SCORE.RESTR.norm>
0

>  <SCORE.SYSTEM>
-18.5789

>  <SCORE.SYSTEM.CONST>
0

>  <SCORE.SYSTEM.DIHEDRAL>
3.94892

>  <SCORE.SYSTEM.POLAR>
-2.96306

>  <SCORE.SYSTEM.SOLV>
-0.1174

>  <SCORE.SYSTEM.VDW>
-3.78625

>  <SCORE.SYSTEM.norm>
-1.32707

>  <SCORE.heavy>
14

>  <SCORE.norm>
-4.21121

$$$$
P59273005
 OpenBabel12072022113D
libRbt.so/2013.1/901 2013/11/27
 18 19  0  0  0  0  0  0  0  0999 V2000
    1.4423   15.8824    3.9225 C   0  0  0  0  0  0  0  0  0  0  0  0
    2.9318   16.2130    3.9157 C   0  0  0  0  0  0  0  0  0  0  0  0
    3.7526   14.9429    3.7127 C   0  0  0  0  0  0  0  0  0  0  0  0
    3.2505   17.0871    2.8257 O   0  0  0  0  0  0  0  0  0  0  0  0
    4.5190   17.6498    3.0241 N   0  0  0  0  0  0  0  0  0  0  0  0
    5.4688   17.8581    2.0189 C   0  0  0  0  0  0  0  0  0  0  0  0
    6.6236   18.3543    2.6245 C   0  0  0  0  0  0  0  0  0  0  0  0
    6.3461   18.3905    3.9786 C   0  0  0  0  0  0  0  0  0  0  0  0
    5.0989   17.9586    4.2065 C   0  0  0  0  0  0  0  0  0  0  0  0
    4.7944   17.9804    5.5164 O   0  0  0  0  0  0  0  0  0  0  0  0
    5.9461   18.4562    6.1153 C   0  0  0  0  0  0  0  0  0  0  0  0
    6.9419   18.7261    5.1781 C   0  0  0  0  0  0  0  0  0  0  0  0
    7.7526   18.7068    1.9833 N   0  0  0  0  0  0  0  0  0  0  0  0
    5.2051   17.5752    0.7151 N   0  0  0  0  0  0  0  0  0  0  0  0
    8.6266   18.2644    2.2513 H   0  0  0  0  0  0  0  0  0  0  0  0
    7.7231   18.9627    1.0015 H   0  0  0  0  0  0  0  0  0  0  0  0
    5.7508   18.0663    0.0075 H   0  0  0  0  0  0  0  0  0  0  0  0
    4.2302   17.4729    0.4461 H   0  0  0  0  0  0  0  0  0  0  0  0
  1  2  1  0  0  0  0
  2  3  1  0  0  0  0
  2  4  1  0  0  0  0
  4  5  1  0  0  0  0
  5  6  1  0  0  0  0
  5  9  1  0  0  0  0
  6  7  2  0  0  0  0
  6 14  1  0  0  0  0
  7  8  1  0  0  0  0
  7 13  1  0  0  0  0
  8  9  2  0  0  0  0
  8 12  1  0  0  0  0
  9 10  1  0  0  0  0
 10 11  1  0  0  0  0
 11 12  2  0  0  0  0
 13 15  1  0  0  0  0
 13 16  1  0  0  0  0
 14 17  1  0  0  0  0
 14 18  1  0  0  0  0
M  END
>  <CHROM.0>
-58.65652366,-173.55820343,-63.39557333,54.83345529,-173.77527582,-62.70238249
-70.82747897,-57.85651231,-167.72253973

>  <CHROM.1>
164.96489534,140.44349398,156.38008962,-123.33100936,4.95239991,17.51834517
3.50495001,-3.10248970,-0.54518008,-1.67217152

>  <Name>
P59273005

>  <RI>
2.22087e+07

>  <Rbt.Current_Directory>
/home/fstefaniak/projects/zuza/docking/adenine/4XNR

>  <Rbt.Executable>
rbdock ($Id: //depot/dev/client3/rdock/2013.1/src/exe/rbdock.cxx#4 $)

>  <Rbt.Library>
libRbt.so (2013.1, Build901 2013/11/27)

>  <Rbt.Parameter_File>
/home/fstefaniak/progs/rDock//data/scripts/dock_solv.prm

>  <Rbt.Receptor>
4xnr.prm

>  <SCORE>
-57.9503

>  <SCORE.INTER>
-39.9314

>  <SCORE.INTER.CONST>
1

>  <SCORE.INTER.POLAR>
-4.23912

>  <SCORE.INTER.ROT>
4

>  <SCORE.INTER.SOLV>
15.9049

>  <SCORE.INTER.VDW>
-24.0588

>  <SCORE.INTER.norm>
-2.85225

>  <SCORE.INTRA>
-0.532923

>  <SCORE.INTRA.DIHEDRAL>
-3.1723

>  <SCORE.INTRA.DIHEDRAL.0>
6.58378

>  <SCORE.INTRA.POLAR>
0

>  <SCORE.INTRA.POLAR.0>
0

>  <SCORE.INTRA.REPUL>
0

>  <SCORE.INTRA.REPUL.0>
0

>  <SCORE.INTRA.SOLV>
0.0223161

>  <SCORE.INTRA.SOLV.lig_0>
-15.0499

>  <SCORE.INTRA.VDW>
1.04207

>  <SCORE.INTRA.VDW.0>
-1.72639

>  <SCORE.INTRA.norm>
-0.0380659

>  <SCORE.RESTR>
0

>  <SCORE.RESTR.CAVITY>
0

>  <SCORE.RESTR.norm>
0

>  <SCORE.SYSTEM>
-17.4859

>  <SCORE.SYSTEM.CONST>
0

>  <SCORE.SYSTEM.DIHEDRAL>
3.93581

>  <SCORE.SYSTEM.POLAR>
-2.42302

>  <SCORE.SYSTEM.SOLV>
0.0162555

>  <SCORE.SYSTEM.VDW>
-4.89788

>  <SCORE.SYSTEM.norm>
-1.24899

>  <SCORE.heavy>
14

>  <SCORE.norm>
-4.1393

$$$$
P59273005
 OpenBabel12072022113D
libRbt.so/2013.1/901 2013/11/27
 18 19  0  0  0  0  0  0  0  0999 V2000
    1.3539   16.3033    3.6848 C   0  0  0  0  0  0  0  0  0  0  0  0
    2.8640   16.5201    3.7099 C   0  0  0  0  0  0  0  0  0  0  0  0
    3.5903   15.1952    3.4970 C   0  0  0  0  0  0  0  0  0  0  0  0
    3.2680   17.3866    2.6422 O   0  0  0  0  0  0  0  0  0  0  0  0
    4.5711   17.8486    2.8735 N   0  0  0  0  0  0  0  0  0  0  0  0
    5.5267   18.0807    1.8790 C   0  0  0  0  0  0  0  0  0  0  0  0
    6.7143   18.4493    2.5116 C   0  0  0  0  0  0  0  0  0  0  0  0
    6.4473   18.3881    3.8669 C   0  0  0  0  0  0  0  0  0  0  0  0
    5.1761   18.0185    4.0713 C   0  0  0  0  0  0  0  0  0  0  0  0
    4.8810   17.9484    5.3815 O   0  0  0  0  0  0  0  0  0  0  0  0
    6.0642   18.2975    6.0058 C   0  0  0  0  0  0  0  0  0  0  0  0
    7.0700   18.5821    5.0838 C   0  0  0  0  0  0  0  0  0  0  0  0
    7.8600   18.7824    1.8901 N   0  0  0  0  0  0  0  0  0  0  0  0
    5.2381   17.9268    0.5590 N   0  0  0  0  0  0  0  0  0  0  0  0
    8.7242   18.3377    2.1846 H   0  0  0  0  0  0  0  0  0  0  0  0
    7.8544   19.0226    0.9039 H   0  0  0  0  0  0  0  0  0  0  0  0
    4.5224   17.2443    0.3104 H   0  0  0  0  0  0  0  0  0  0  0  0
    6.0177   17.9211   -0.0931 H   0  0  0  0  0  0  0  0  0  0  0  0
  1  2  1  0  0  0  0
  2  3  1  0  0  0  0
  2  4  1  0  0  0  0
  4  5  1  0  0  0  0
  5  6  1  0  0  0  0
  5  9  1  0  0  0  0
  6  7  2  0  0  0  0
  6 14  1  0  0  0  0
  7  8  1  0  0  0  0
  7 13  1  0  0  0  0
  8  9  2  0  0  0  0
  8 12  1  0  0  0  0
  9 10  1  0  0  0  0
 10 11  1  0  0  0  0
 11 12  2  0  0  0  0
 13 15  1  0  0  0  0
 13 16  1  0  0  0  0
 14 17  1  0  0  0  0
 14 18  1  0  0  0  0
M  END
>  <CHROM.0>
-55.11768036,-179.68944114,-73.10509406,-51.55452067,-60.53472433,-63.38194500
-172.38449114,-60.46067956,-168.16123685

>  <CHROM.1>
164.92561549,144.60187613,-28.94649413,-130.17071708,4.99151171,17.65914529
3.35512790,-3.06527438,-0.46697377,-1.58417827

>  <Name>
P59273005

>  <RI>
2.22087e+07

>  <Rbt.Current_Directory>
/home/fstefaniak/projects/zuza/docking/adenine/4XNR

>  <Rbt.Executable>
rbdock ($Id: //depot/dev/client3/rdock/2013.1/src/exe/rbdock.cxx#4 $)

>  <Rbt.Library>
libRbt.so (2013.1, Build901 2013/11/27)

>  <Rbt.Parameter_File>
/home/fstefaniak/progs/rDock//data/scripts/dock_solv.prm

>  <Rbt.Receptor>
4xnr.prm

>  <SCORE>
-57.3103

>  <SCORE.INTER>
-36.6522

>  <SCORE.INTER.CONST>
1

>  <SCORE.INTER.POLAR>
-4.58207

>  <SCORE.INTER.ROT>
4

>  <SCORE.INTER.SOLV>
15.8827

>  <SCORE.INTER.VDW>
-20.7221

>  <SCORE.INTER.norm>
-2.61801

>  <SCORE.INTRA>
-0.536033

>  <SCORE.INTRA.DIHEDRAL>
-3.45195

>  <SCORE.INTRA.DIHEDRAL.0>
6.58378

>  <SCORE.INTRA.POLAR>
0

>  <SCORE.INTRA.POLAR.0>
0

>  <SCORE.INTRA.REPUL>
0

>  <SCORE.INTRA.REPUL.0>
0

>  <SCORE.INTRA.SOLV>
0.0178484

>  <SCORE.INTRA.SOLV.lig_0>
-15.0499

>  <SCORE.INTRA.VDW>
1.18102

>  <SCORE.INTRA.VDW.0>
-1.72639

>  <SCORE.INTRA.norm>
-0.0382881

>  <SCORE.RESTR>
0

>  <SCORE.RESTR.CAVITY>
0

>  <SCORE.RESTR.norm>
0

>  <SCORE.SYSTEM>
-20.1221

>  <SCORE.SYSTEM.CONST>
0

>  <SCORE.SYSTEM.DIHEDRAL>
4.27033

>  <SCORE.SYSTEM.POLAR>
-2.9169

>  <SCORE.SYSTEM.SOLV>
0.200068

>  <SCORE.SYSTEM.VDW>
-5.18182

>  <SCORE.SYSTEM.norm>
-1.43729

>  <SCORE.heavy>
14

>  <SCORE.norm>
-4.09359

$$$$
P59283247
 OpenBabel12072022113D
libRbt.so/2013.1/901 2013/11/27
 14 14  0  0  0  0  0  0  0  0999 V2000
    6.2115   17.7030    3.5505 C   0  0  0  0  0  0  0  0  0  0  0  0
    4.7149   17.6066    3.8315 C   0  0  0  0  0  0  0  0  0  0  0  0
    4.0904   16.2475    3.4611 C   0  0  1  0  0  0  0  0  0  0  0  0
    4.5873   15.1365    4.3832 C   0  0  0  0  0  0  0  0  0  0  0  0
    3.3756   14.2253    4.5389 C   0  0  1  0  0  0  0  0  0  0  0  0
    2.2861   15.2037    4.5576 N   0  0  0  0  0  0  0  0  0  0  0  0
    2.6310   16.2289    3.5854 N   0  0  0  0  0  0  0  0  0  0  0  0
    0.9731   14.6545    4.2247 C   0  0  0  0  0  0  0  0  0  0  0  0
    3.3333   13.1323    3.4662 C   0  0  0  0  0  0  0  0  0  0  0  0
    3.4472   13.5894    5.8050 O   0  0  0  0  0  0  0  0  0  0  0  0
    4.4397   15.9274    2.1209 O   0  0  0  0  0  0  0  0  0  0  0  0
    2.2832   17.1414    3.8794 H   0  0  0  0  0  0  0  0  0  0  0  0
    3.4302   14.3373    6.4268 H   0  0  0  0  0  0  0  0  0  0  0  0
    4.1810   15.0057    1.9620 H   0  0  0  0  0  0  0  0  0  0  0  0
  1  2  1  0  0  0  0
  3  2  1  1  0  0  0
  3  4  1  0  0  0  0
  3  7  1  0  0  0  0
  3 11  1  0  0  0  0
  4  5  1  0  0  0  0
  5  6  1  0  0  0  0
  5 10  1  0  0  0  0
  5  9  1  6  0  0  0
  6  7  1  0  0  0  0
  6  8  1  0  0  0  0
  7 12  1  0  0  0  0
 10 13  1  0  0  0  0
 11 14  1  0  0  0  0
M  END
>  <CHROM.0>
-53.89466074,-172.52143549,-67.11556800,-48.16346125,-62.91331870,-66.69831436
-71.95828178,-54.37396185,-167.34307072

>  <CHROM.1>
68.51827909,169.68144316,60.67853517,3.64084114,15.40789412,3.95439465,-0.88708728
0.11952053,2.66413906

>  <Name>
P59283247

>  <RI>
3.51561e+07

>  <Rbt.Current_Directory>
/home/fstefaniak/projects/zuza/docking/adenine/4XNR

>  <Rbt.Executable>
rbdock ($Id: //depot/dev/client3/rdock/2013.1/src/exe/rbdock.cxx#4 $)

>  <Rbt.Library>
libRbt.so (2013.1, Build901 2013/11/27)

>  <Rbt.Parameter_File>
/home/fstefaniak/progs/rDock//data/scripts/dock_solv.prm

>  <Rbt.Receptor>
4xnr.prm

>  <SCORE>
-43.2255

>  <SCORE.INTER>
-22.1925

>  <SCORE.INTER.CONST>
1

>  <SCORE.INTER.POLAR>
-2.60387

>  <SCORE.INTER.ROT>
1

>  <SCORE.INTER.SOLV>
12.3128

>  <SCORE.INTER.VDW>
-14.4864

>  <SCORE.INTER.norm>
-2.0175

>  <SCORE.INTRA>
-0.47461

>  <SCORE.INTRA.DIHEDRAL>
-3.96196

>  <SCORE.INTRA.DIHEDRAL.0>
4.89001

>  <SCORE.INTRA.POLAR>
0

>  <SCORE.INTRA.POLAR.0>
0

>  <SCORE.INTRA.REPUL>
0

>  <SCORE.INTRA.REPUL.0>
0

>  <SCORE.INTRA.SOLV>
-0.125098

>  <SCORE.INTRA.SOLV.lig_0>
-14.1239

>  <SCORE.INTRA.VDW>
1.56892

>  <SCORE.INTRA.VDW.0>
0.411473

>  <SCORE.INTRA.norm>
-0.0431464

>  <SCORE.RESTR>
0

>  <SCORE.RESTR.CAVITY>
0

>  <SCORE.RESTR.norm>
0

>  <SCORE.SYSTEM>
-20.5584

>  <SCORE.SYSTEM.CONST>
0

>  <SCORE.SYSTEM.DIHEDRAL>
5.17111

>  <SCORE.SYSTEM.POLAR>
-3.01617

>  <SCORE.SYSTEM.SOLV>
0.238718

>  <SCORE.SYSTEM.VDW>
-5.45495

>  <SCORE.SYSTEM.norm>
-1.86894

>  <SCORE.heavy>
11

>  <SCORE.norm>
-3.92959

$$$$
P59283247
 OpenBabel12072022113D
libRbt.so/2013.1/901 2013/11/27
 14 14  0  0  0  0  0  0  0  0999 V2000
    0.6361   17.1720    3.6340 C   0  0  0  0  0  0  0  0  0  0  0  0
    1.1688   16.0819    4.5591 C   0  0  0  0  0  0  0  0  0  0  0  0
    1.8499   14.9103    3.8257 C   0  0  1  0  0  0  0  0  0  0  0  0
    2.2709   13.8127    4.8002 C   0  0  0  0  0  0  0  0  0  0  0  0
    2.0541   12.5260    4.0128 C   0  0  1  0  0  0  0  0  0  0  0  0
    0.8456   12.8577    3.2553 N   0  0  0  0  0  0  0  0  0  0  0  0
    0.9750   14.2497    2.8543 N   0  0  0  0  0  0  0  0  0  0  0  0
    0.6328   12.0372    2.0645 C   0  0  0  0  0  0  0  0  0  0  0  0
    3.3005   12.1159    3.2220 C   0  0  0  0  0  0  0  0  0  0  0  0
    1.7552   11.4818    4.9254 O   0  0  0  0  0  0  0  0  0  0  0  0
    3.0020   15.3950    3.1487 O   0  0  0  0  0  0  0  0  0  0  0  0
    0.0634   14.7059    2.8224 H   0  0  0  0  0  0  0  0  0  0  0  0
    1.0309   11.8556    5.4562 H   0  0  0  0  0  0  0  0  0  0  0  0
    3.6008   15.7658    3.8163 H   0  0  0  0  0  0  0  0  0  0  0  0
  1  2  1  0  0  0  0
  3  2  1  1  0  0  0
  3  4  1  0  0  0  0
  3  7  1  0  0  0  0
  3 11  1  0  0  0  0
  4  5  1  0  0  0  0
  5  6  1  0  0  0  0
  5 10  1  0  0  0  0
  5  9  1  6  0  0  0
  6  7  1  0  0  0  0
  6  8  1  0  0  0  0
  7 12  1  0  0  0  0
 10 13  1  0  0  0  0
 11 14  1  0  0  0  0
M  END
>  <CHROM.0>
-57.12499537,-61.64232737,-73.80734289,-48.13001996,-58.73137231,-62.58484722
-173.15576090,-175.34598705,-168.45728429

>  <CHROM.1>
-176.01002378,60.49447313,51.70292718,1.68636803,13.87212941,3.66064390,1.71451418
-0.66114528,0.11690207

>  <Name>
P59283247

>  <RI>
3.51561e+07

>  <Rbt.Current_Directory>
/home/fstefaniak/projects/zuza/docking/adenine/4XNR

>  <Rbt.Executable>
rbdock ($Id: //depot/dev/client3/rdock/2013.1/src/exe/rbdock.cxx#4 $)

>  <Rbt.Library>
libRbt.so (2013.1, Build901 2013/11/27)

>  <Rbt.Parameter_File>
/home/fstefaniak/progs/rDock//data/scripts/dock_solv.prm

>  <Rbt.Receptor>
4xnr.prm

>  <SCORE>
-41.7092

>  <SCORE.INTER>
-20.3538

>  <SCORE.INTER.CONST>
1

>  <SCORE.INTER.POLAR>
-2.39522

>  <SCORE.INTER.ROT>
1

>  <SCORE.INTER.SOLV>
6.88644

>  <SCORE.INTER.VDW>
-12.1473

>  <SCORE.INTER.norm>
-1.85034

>  <SCORE.INTRA>
-1.50881

>  <SCORE.INTRA.DIHEDRAL>
-4.61771

>  <SCORE.INTRA.DIHEDRAL.0>
4.89001

>  <SCORE.INTRA.POLAR>
0

>  <SCORE.INTRA.POLAR.0>
0

>  <SCORE.INTRA.REPUL>
0

>  <SCORE.INTRA.REPUL.0>
0

>  <SCORE.INTRA.SOLV>
-0.00701557

>  <SCORE.INTRA.SOLV.lig_0>
-14.1239

>  <SCORE.INTRA.VDW>
0.803555

>  <SCORE.INTRA.VDW.0>
0.411473

>  <SCORE.INTRA.norm>
-0.137165

>  <SCORE.RESTR>
0.45035

>  <SCORE.RESTR.CAVITY>
0.45035

>  <SCORE.RESTR.norm>
0.0409409

>  <SCORE.SYSTEM>
-20.2969

>  <SCORE.SYSTEM.CONST>
0

>  <SCORE.SYSTEM.DIHEDRAL>
4.61156

>  <SCORE.SYSTEM.POLAR>
-2.95031

>  <SCORE.SYSTEM.SOLV>
0.0917797

>  <SCORE.SYSTEM.VDW>
-5.2647

>  <SCORE.SYSTEM.norm>
-1.84517

>  <SCORE.heavy>
11

>  <SCORE.norm>
-3.79174

$$$$
P59283247
 OpenBabel12072022113D
libRbt.so/2013.1/901 2013/11/27
 14 14  0  0  0  0  0  0  0  0999 V2000
    6.3965   17.9016    3.4940 C   0  0  0  0  0  0  0  0  0  0  0  0
    4.9332   17.8210    3.9187 C   0  0  0  0  0  0  0  0  0  0  0  0
    4.2113   16.5418    3.4532 C   0  0  1  0  0  0  0  0  0  0  0  0
    4.6513   15.3267    4.2665 C   0  0  0  0  0  0  0  0  0  0  0  0
    3.3846   14.4867    4.3776 C   0  0  1  0  0  0  0  0  0  0  0  0
    2.3639   15.5289    4.5059 N   0  0  0  0  0  0  0  0  0  0  0  0
    2.7569   16.6080    3.6135 N   0  0  0  0  0  0  0  0  0  0  0  0
    1.0104   15.0967    4.1629 C   0  0  0  0  0  0  0  0  0  0  0  0
    3.2470   13.4934    3.2194 C   0  0  0  0  0  0  0  0  0  0  0  0
    3.4393   13.7426    5.5843 O   0  0  0  0  0  0  0  0  0  0  0  0
    4.5107   16.3142    2.0823 O   0  0  0  0  0  0  0  0  0  0  0  0
    2.4773   17.5131    3.9912 H   0  0  0  0  0  0  0  0  0  0  0  0
    3.4235   14.4338    6.2685 H   0  0  0  0  0  0  0  0  0  0  0  0
    4.3876   17.1537    1.6114 H   0  0  0  0  0  0  0  0  0  0  0  0
  1  2  1  0  0  0  0
  3  2  1  1  0  0  0
  3  4  1  0  0  0  0
  3  7  1  0  0  0  0
  3 11  1  0  0  0  0
  4  5  1  0  0  0  0
  5  6  1  0  0  0  0
  5 10  1  0  0  0  0
  5  9  1  6  0  0  0
  6  7  1  0  0  0  0
  6  8  1  0  0  0  0
  7 12  1  0  0  0  0
 10 13  1  0  0  0  0
 11 14  1  0  0  0  0
M  END
>  <CHROM.0>
-54.42461323,-173.93016710,-63.62159497,-46.55420040,-59.23946042,61.53179670
-67.57609352,62.50908179,-167.80705783

>  <CHROM.1>
73.92843160,-47.33746342,64.42024153,3.71465912,15.71094403,3.87441883,-0.85285706
0.06271560,2.73164030

>  <Name>
P59283247

>  <RI>
3.51561e+07

>  <Rbt.Current_Directory>
/home/fstefaniak/projects/zuza/docking/adenine/4XNR

>  <Rbt.Executable>
rbdock ($Id: //depot/dev/client3/rdock/2013.1/src/exe/rbdock.cxx#4 $)

>  <Rbt.Library>
libRbt.so (2013.1, Build901 2013/11/27)

>  <Rbt.Parameter_File>
/home/fstefaniak/progs/rDock//data/scripts/dock_solv.prm

>  <Rbt.Receptor>
4xnr.prm

>  <SCORE>
-40.4359

>  <SCORE.INTER>
-21.4243

>  <SCORE.INTER.CONST>
1

>  <SCORE.INTER.POLAR>
-2.40008

>  <SCORE.INTER.ROT>
1

>  <SCORE.INTER.SOLV>
12.322

>  <SCORE.INTER.VDW>
-14.6566

>  <SCORE.INTER.norm>
-1.94766

>  <SCORE.INTRA>
-0.498631

>  <SCORE.INTRA.DIHEDRAL>
-2.90889

>  <SCORE.INTRA.DIHEDRAL.0>
4.89001

>  <SCORE.INTRA.POLAR>
0

>  <SCORE.INTRA.POLAR.0>
0

>  <SCORE.INTRA.REPUL>
0

>  <SCORE.INTRA.REPUL.0>
0

>  <SCORE.INTRA.SOLV>
-0.123247

>  <SCORE.INTRA.SOLV.lig_0>
-14.1239

>  <SCORE.INTRA.VDW>
1.01744

>  <SCORE.INTRA.VDW.0>
0.411473

>  <SCORE.INTRA.norm>
-0.0453301

>  <SCORE.RESTR>
0

>  <SCORE.RESTR.CAVITY>
0

>  <SCORE.RESTR.norm>
0

>  <SCORE.SYSTEM>
-18.513

>  <SCORE.SYSTEM.CONST>
0

>  <SCORE.SYSTEM.DIHEDRAL>
4.30213

>  <SCORE.SYSTEM.POLAR>
-3.02948

>  <SCORE.SYSTEM.SOLV>
-0.0302695

>  <SCORE.SYSTEM.VDW>
-3.66769

>  <SCORE.SYSTEM.norm>
-1.683

>  <SCORE.heavy>
11

>  <SCORE.norm>
-3.67599

$$$$
P59287310
 OpenBabel12072022113D
libRbt.so/2013.1/901 2013/11/27
 17 17  0  0  0  0  0  0  0  0999 V2000
    1.9050   12.1270    2.5672 C   0  0  0  0  0  0  0  0  0  0  0  0
    3.3751   12.0992    2.9671 C   0  0  0  0  0  0  0  0  0  0  0  0
    3.7637   13.3425    3.7629 C   0  0  0  0  0  0  0  0  0  0  0  0
    2.8416   13.6092    4.9610 C   0  0  1  0  0  0  0  0  0  0  0  0
    1.3396   13.5413    4.6128 C   0  0  2  0  0  0  0  0  0  0  0  0
    0.9933   12.2969    3.7802 C   0  0  0  0  0  0  0  0  0  0  0  0
    0.9382   14.8415    3.9197 C   0  0  0  0  0  0  0  0  0  0  0  0
    0.8452   14.9195    2.6965 O   0  0  0  0  0  0  0  0  0  0  0  0
    0.7503   15.9266    4.7592 N   0  0  0  0  0  0  0  0  0  0  0  0
    0.2747   17.1365    4.2179 N   0  0  0  0  0  0  0  0  0  0  0  0
    3.1572   12.5874    6.0199 N   0  3  0  0  0  0  0  0  0  0  0  0
    3.3828   11.6610    5.6350 H   0  0  0  0  0  0  0  0  0  0  0  0
    3.9706   12.8879    6.5762 H   0  0  0  0  0  0  0  0  0  0  0  0
    2.3782   12.4745    6.6826 H   0  0  0  0  0  0  0  0  0  0  0  0
    0.7403   15.8346    5.7739 H   0  0  0  0  0  0  0  0  0  0  0  0
    0.9739   17.8707    4.4003 H   0  0  0  0  0  0  0  0  0  0  0  0
   -0.5463   17.4402    4.7507 H   0  0  0  0  0  0  0  0  0  0  0  0
  1  2  1  0  0  0  0
  1  6  1  0  0  0  0
  2  3  1  0  0  0  0
  3  4  1  0  0  0  0
  4  5  1  0  0  0  0
  4 11  1  1  0  0  0
  5  6  1  0  0  0  0
  5  7  1  6  0  0  0
  7  8  2  0  0  0  0
  7  9  1  0  0  0  0
  9 10  1  0  0  0  0
  9 15  1  0  0  0  0
 10 16  1  0  0  0  0
 10 17  1  0  0  0  0
 11 12  1  0  0  0  0
 11 13  1  0  0  0  0
 11 14  1  0  0  0  0
M  CHG  1  11   1
M  END
>  <CHROM.0>
-55.24653163,-62.84191124,-67.32668923,-46.27218075,-58.77346178,-60.18122062
-68.83407085,-63.15873919,-168.09955612

>  <CHROM.1>
-36.79048624,99.05068749,-120.47560243,1.83018874,13.89286410,4.06035049
0.57624891,0.88527247,-2.23437339

>  <Name>
P59287310

>  <RI>
3.02409e+07

>  <Rbt.Current_Directory>
/home/fstefaniak/projects/zuza/docking/adenine/4XNR

>  <Rbt.Executable>
rbdock ($Id: //depot/dev/client3/rdock/2013.1/src/exe/rbdock.cxx#4 $)

>  <Rbt.Library>
libRbt.so (2013.1, Build901 2013/11/27)

>  <Rbt.Parameter_File>
/home/fstefaniak/progs/rDock//data/scripts/dock_solv.prm

>  <Rbt.Receptor>
4xnr.prm

>  <SCORE>
-53.0333

>  <SCORE.INTER>
-33.5108

>  <SCORE.INTER.CONST>
1

>  <SCORE.INTER.POLAR>
-5.20125

>  <SCORE.INTER.ROT>
2

>  <SCORE.INTER.SOLV>
17.9425

>  <SCORE.INTER.VDW>
-15.9172

>  <SCORE.INTER.norm>
-3.04643

>  <SCORE.INTRA>
0.739785

>  <SCORE.INTRA.DIHEDRAL>
2.13535

>  <SCORE.INTRA.DIHEDRAL.0>
0.966352

>  <SCORE.INTRA.POLAR>
0

>  <SCORE.INTRA.POLAR.0>
0

>  <SCORE.INTRA.REPUL>
0

>  <SCORE.INTRA.REPUL.0>
0

>  <SCORE.INTRA.SOLV>
-0.185154

>  <SCORE.INTRA.SOLV.lig_0>
-34.6387

>  <SCORE.INTRA.VDW>
-0.235313

>  <SCORE.INTRA.VDW.0>
-0.482853

>  <SCORE.INTRA.norm>
0.0672532

>  <SCORE.RESTR>
0.630551

>  <SCORE.RESTR.CAVITY>
0.630551

>  <SCORE.RESTR.norm>
0.0573229

>  <SCORE.SYSTEM>
-20.8929

>  <SCORE.SYSTEM.CONST>
0

>  <SCORE.SYSTEM.DIHEDRAL>
4.4146

>  <SCORE.SYSTEM.POLAR>
-3.02326

>  <SCORE.SYSTEM.SOLV>
0.284439

>  <SCORE.SYSTEM.VDW>
-5.41742

>  <SCORE.SYSTEM.norm>
-1.89935

>  <SCORE.heavy>
11

>  <SCORE.norm>
-4.82121

$$$$
P59287310
 OpenBabel12072022113D
libRbt.so/2013.1/901 2013/11/27
 17 17  0  0  0  0  0  0  0  0999 V2000
    1.9098   12.0843    2.5606 C   0  0  0  0  0  0  0  0  0  0  0  0
    3.3832   12.0662    2.9485 C   0  0  0  0  0  0  0  0  0  0  0  0
    3.7738   13.3196    3.7274 C   0  0  0  0  0  0  0  0  0  0  0  0
    2.8606   13.5960    4.9301 C   0  0  1  0  0  0  0  0  0  0  0  0
    1.3560   13.5188    4.5953 C   0  0  2  0  0  0  0  0  0  0  0  0
    1.0074   12.2641    3.7792 C   0  0  0  0  0  0  0  0  0  0  0  0
    0.9440   14.8099    3.8914 C   0  0  0  0  0  0  0  0  0  0  0  0
    0.8586   14.8793    2.6671 O   0  0  0  0  0  0  0  0  0  0  0  0
    0.7375   15.8978    4.7228 N   0  0  0  0  0  0  0  0  0  0  0  0
    0.2514   17.0987    4.1708 N   0  0  0  0  0  0  0  0  0  0  0  0
    3.1888   12.5869    5.9975 N   0  3  0  0  0  0  0  0  0  0  0  0
    3.9941   12.8570    6.5770 H   0  0  0  0  0  0  0  0  0  0  0  0
    2.3877   12.4658    6.6340 H   0  0  0  0  0  0  0  0  0  0  0  0
    3.3833   11.6596    5.5962 H   0  0  0  0  0  0  0  0  0  0  0  0
    0.7217   15.8119    5.7380 H   0  0  0  0  0  0  0  0  0  0  0  0
    0.9591   17.8328    4.3169 H   0  0  0  0  0  0  0  0  0  0  0  0
   -0.5518   17.4175    4.7215 H   0  0  0  0  0  0  0  0  0  0  0  0
  1  2  1  0  0  0  0
  1  6  1  0  0  0  0
  2  3  1  0  0  0  0
  3  4  1  0  0  0  0
  4  5  1  0  0  0  0
  4 11  1  1  0  0  0
  5  6  1  0  0  0  0
  5  7  1  6  0  0  0
  7  8  2  0  0  0  0
  7  9  1  0  0  0  0
  9 10  1  0  0  0  0
  9 15  1  0  0  0  0
 10 16  1  0  0  0  0
 10 17  1  0  0  0  0
 11 12  1  0  0  0  0
 11 13  1  0  0  0  0
 11 14  1  0  0  0  0
M  CHG  1  11   1
M  END
>  <CHROM.0>
-57.69710780,-63.03065882,-74.49618798,-48.22348194,-59.84345098,-64.60640285
-173.73102267,-63.40100517,-167.49438356

>  <CHROM.1>
83.61148304,98.02607446,-118.01055310,1.83775495,13.86506614,4.03490874,0.57299519
0.87863449,-2.23862067

>  <Name>
P59287310

>  <RI>
3.02409e+07

>  <Rbt.Current_Directory>
/home/fstefaniak/projects/zuza/docking/adenine/4XNR

>  <Rbt.Executable>
rbdock ($Id: //depot/dev/client3/rdock/2013.1/src/exe/rbdock.cxx#4 $)

>  <Rbt.Library>
libRbt.so (2013.1, Build901 2013/11/27)

>  <Rbt.Parameter_File>
/home/fstefaniak/progs/rDock//data/scripts/dock_solv.prm

>  <Rbt.Receptor>
4xnr.prm

>  <SCORE>
-52.6086

>  <SCORE.INTER>
-33.8437

>  <SCORE.INTER.CONST>
1

>  <SCORE.INTER.POLAR>
-5.25748

>  <SCORE.INTER.ROT>
2

>  <SCORE.INTER.SOLV>
17.6869

>  <SCORE.INTER.VDW>
-15.8665

>  <SCORE.INTER.norm>
-3.0767

>  <SCORE.INTRA>
0.926462

>  <SCORE.INTRA.DIHEDRAL>
2.23381

>  <SCORE.INTRA.DIHEDRAL.0>
0.966352

>  <SCORE.INTRA.POLAR>
0

>  <SCORE.INTRA.POLAR.0>
0

>  <SCORE.INTRA.REPUL>
0

>  <SCORE.INTRA.REPUL.0>
0

>  <SCORE.INTRA.SOLV>
-0.10219

>  <SCORE.INTRA.SOLV.lig_0>
-34.6387

>  <SCORE.INTRA.VDW>
-0.139349

>  <SCORE.INTRA.VDW.0>
-0.482853

>  <SCORE.INTRA.norm>
0.0842239

>  <SCORE.RESTR>
0.669229

>  <SCORE.RESTR.CAVITY>
0.669229

>  <SCORE.RESTR.norm>
0.060839

>  <SCORE.SYSTEM>
-20.3606

>  <SCORE.SYSTEM.CONST>
0

>  <SCORE.SYSTEM.DIHEDRAL>
4.77778

>  <SCORE.SYSTEM.POLAR>
-2.94465

>  <SCORE.SYSTEM.SOLV>
0.212079

>  <SCORE.SYSTEM.VDW>
-5.42155

>  <SCORE.SYSTEM.norm>
-1.85097

>  <SCORE.heavy>
11

>  <SCORE.norm>
-4.7826

$$$$
P59287310
 OpenBabel12072022113D
libRbt.so/2013.1/901 2013/11/27
 17 17  0  0  0  0  0  0  0  0999 V2000
    1.9639   12.1449    2.5684 C   0  0  0  0  0  0  0  0  0  0  0  0
    3.4248   12.1292    3.0015 C   0  0  0  0  0  0  0  0  0  0  0  0
    3.7832   13.3725    3.8115 C   0  0  0  0  0  0  0  0  0  0  0  0
    2.8316   13.6248    4.9894 C   0  0  1  0  0  0  0  0  0  0  0  0
    1.3385   13.5441    4.6069 C   0  0  2  0  0  0  0  0  0  0  0  0
    1.0232   12.3004    3.7610 C   0  0  0  0  0  0  0  0  0  0  0  0
    0.9404   14.8437    3.9107 C   0  0  0  0  0  0  0  0  0  0  0  0
    0.8373   14.9161    2.6879 O   0  0  0  0  0  0  0  0  0  0  0  0
    0.7677   15.9343    4.7462 N   0  0  0  0  0  0  0  0  0  0  0  0
    0.2961   17.1449    4.2028 N   0  0  0  0  0  0  0  0  0  0  0  0
    3.1328   12.6010    6.0507 N   0  3  0  0  0  0  0  0  0  0  0  0
    3.9426   12.8481    6.6342 H   0  0  0  0  0  0  0  0  0  0  0  0
    2.3273   12.4943    6.6841 H   0  0  0  0  0  0  0  0  0  0  0  0
    3.3068   11.6722    5.6436 H   0  0  0  0  0  0  0  0  0  0  0  0
    0.7659   15.8476    5.7614 H   0  0  0  0  0  0  0  0  0  0  0  0
    0.9968   17.8775    4.3859 H   0  0  0  0  0  0  0  0  0  0  0  0
   -0.5251   17.4510    4.7338 H   0  0  0  0  0  0  0  0  0  0  0  0
  1  2  1  0  0  0  0
  1  6  1  0  0  0  0
  2  3  1  0  0  0  0
  3  4  1  0  0  0  0
  4  5  1  0  0  0  0
  4 11  1  1  0  0  0
  5  6  1  0  0  0  0
  5  7  1  6  0  0  0
  7  8  2  0  0  0  0
  7  9  1  0  0  0  0
  9 10  1  0  0  0  0
  9 15  1  0  0  0  0
 10 16  1  0  0  0  0
 10 17  1  0  0  0  0
 11 12  1  0  0  0  0
 11 13  1  0  0  0  0
 11 14  1  0  0  0  0
M  CHG  1  11   1
M  END
>  <CHROM.0>
-54.51458143,-60.39892349,-67.73747252,-52.82067615,-57.42310385,-62.54213749
-71.66857608,61.69573816,-167.34229459

>  <CHROM.1>
81.22405743,101.16739472,-121.18105364,1.84338658,13.90417848,4.06681159
0.55788753,0.89138667,-2.22260219

>  <Name>
P59287310

>  <RI>
3.02409e+07

>  <Rbt.Current_Directory>
/home/fstefaniak/projects/zuza/docking/adenine/4XNR

>  <Rbt.Executable>
rbdock ($Id: //depot/dev/client3/rdock/2013.1/src/exe/rbdock.cxx#4 $)

>  <Rbt.Library>
libRbt.so (2013.1, Build901 2013/11/27)

>  <Rbt.Parameter_File>
/home/fstefaniak/progs/rDock//data/scripts/dock_solv.prm

>  <Rbt.Receptor>
4xnr.prm

>  <SCORE>
-52.1429

>  <SCORE.INTER>
-33.7017

>  <SCORE.INTER.CONST>
1

>  <SCORE.INTER.POLAR>
-5.2256

>  <SCORE.INTER.ROT>
2

>  <SCORE.INTER.SOLV>
17.8608

>  <SCORE.INTER.VDW>
-15.9361

>  <SCORE.INTER.norm>
-3.06379

>  <SCORE.INTRA>
0.681068

>  <SCORE.INTRA.DIHEDRAL>
1.81278

>  <SCORE.INTRA.DIHEDRAL.0>
0.966352

>  <SCORE.INTRA.POLAR>
0

>  <SCORE.INTRA.POLAR.0>
0

>  <SCORE.INTRA.REPUL>
0

>  <SCORE.INTRA.REPUL.0>
0

>  <SCORE.INTRA.SOLV>
-0.0922589

>  <SCORE.INTRA.SOLV.lig_0>
-34.6387

>  <SCORE.INTRA.VDW>
-0.179192

>  <SCORE.INTRA.VDW.0>
-0.482853

>  <SCORE.INTRA.norm>
0.0619153

>  <SCORE.RESTR>
0.634861

>  <SCORE.RESTR.CAVITY>
0.634861

>  <SCORE.RESTR.norm>
0.0577147

>  <SCORE.SYSTEM>
-19.7572

>  <SCORE.SYSTEM.CONST>
0

>  <SCORE.SYSTEM.DIHEDRAL>
4.1672

>  <SCORE.SYSTEM.POLAR>
-2.92093

>  <SCORE.SYSTEM.SOLV>
0.091779

>  <SCORE.SYSTEM.VDW>
-4.85467

>  <SCORE.SYSTEM.norm>
-1.7961

>  <SCORE.heavy>
11

>  <SCORE.norm>
-4.74026

$$$$
P59289755
 OpenBabel12072022113D
libRbt.so/2013.1/901 2013/11/27
 14 14  0  0  0  0  0  0  0  0999 V2000
    3.6201   13.8131    5.2038 C   0  0  0  0  0  0  0  0  0  0  0  0
    3.4063   14.1141    3.7820 N   0  0  0  0  0  0  0  0  0  0  0  0
    2.1425   13.5224    3.3054 C   0  0  0  0  0  0  0  0  0  0  0  0
    0.8824   14.2047    3.8493 C   0  0  0  0  0  0  0  0  0  0  0  0
    0.9044   15.7106    3.6067 C   0  0  0  0  0  0  0  0  0  0  0  0
    2.2186   16.3320    4.0722 C   0  0  0  0  0  0  0  0  0  0  0  0
    3.4159   15.5767    3.4818 C   0  0  1  0  0  0  0  0  0  0  0  0
    4.7645   16.2211    3.8581 C   0  0  0  0  0  0  0  0  0  0  0  0
    4.9420   16.9389    4.8405 O   0  0  0  0  0  0  0  0  0  0  0  0
    5.7622   15.9574    2.9196 N   0  0  0  0  0  0  0  0  0  0  0  0
    6.1674   16.9785    2.0305 N   0  0  0  0  0  0  0  0  0  0  0  0
    6.4155   15.2072    3.1571 H   0  0  0  0  0  0  0  0  0  0  0  0
    6.8788   17.5364    2.5222 H   0  0  0  0  0  0  0  0  0  0  0  0
    5.3808   17.6275    1.9369 H   0  0  0  0  0  0  0  0  0  0  0  0
  1  2  1  0  0  0  0
  2  3  1  0  0  0  0
  2  7  1  0  0  0  0
  3  4  1  0  0  0  0
  4  5  1  0  0  0  0
  5  6  1  0  0  0  0
  6  7  1  0  0  0  0
  7  8  1  1  0  0  0
  8  9  2  0  0  0  0
  8 10  1  0  0  0  0
 10 11  1  0  0  0  0
 10 12  1  0  0  0  0
 11 13  1  0  0  0  0
 11 14  1  0  0  0  0
M  END
>  <CHROM.0>
-54.34263511,177.29998447,-73.53251313,-48.80913071,-173.08838928,61.79237190
-172.71830259,-177.43769665,-167.63652113

>  <CHROM.1>
-105.50358054,105.22253394,85.05523714,3.53056956,15.42138645,3.72357081
-2.62522728,0.04200470,-0.25776219

>  <Name>
P59289755

>  <RI>
1.00763e+07

>  <Rbt.Current_Directory>
/home/fstefaniak/projects/zuza/docking/adenine/4XNR

>  <Rbt.Executable>
rbdock ($Id: //depot/dev/client3/rdock/2013.1/src/exe/rbdock.cxx#4 $)

>  <Rbt.Library>
libRbt.so (2013.1, Build901 2013/11/27)

>  <Rbt.Parameter_File>
/home/fstefaniak/progs/rDock//data/scripts/dock_solv.prm

>  <Rbt.Receptor>
4xnr.prm

>  <SCORE>
-43.5629

>  <SCORE.INTER>
-23.9794

>  <SCORE.INTER.CONST>
1

>  <SCORE.INTER.POLAR>
-3.52145

>  <SCORE.INTER.ROT>
3

>  <SCORE.INTER.SOLV>
12.7093

>  <SCORE.INTER.VDW>
-14.0845

>  <SCORE.INTER.norm>
-2.17994

>  <SCORE.INTRA>
-0.678805

>  <SCORE.INTRA.DIHEDRAL>
-0.296407

>  <SCORE.INTRA.DIHEDRAL.0>
2.54896

>  <SCORE.INTRA.POLAR>
0.0497922

>  <SCORE.INTRA.POLAR.0>
-0.0497922

>  <SCORE.INTRA.REPUL>
0

>  <SCORE.INTRA.REPUL.0>
0

>  <SCORE.INTRA.SOLV>
-0.387374

>  <SCORE.INTRA.SOLV.lig_0>
-15.5506

>  <SCORE.INTRA.VDW>
-0.506207

>  <SCORE.INTRA.VDW.0>
-0.426824

>  <SCORE.INTRA.norm>
-0.0617095

>  <SCORE.RESTR>
0

>  <SCORE.RESTR.CAVITY>
0

>  <SCORE.RESTR.norm>
0

>  <SCORE.SYSTEM>
-18.9048

>  <SCORE.SYSTEM.CONST>
0

>  <SCORE.SYSTEM.DIHEDRAL>
4.873

>  <SCORE.SYSTEM.POLAR>
-2.96873

>  <SCORE.SYSTEM.SOLV>
-0.222446

>  <SCORE.SYSTEM.VDW>
-4.25759

>  <SCORE.SYSTEM.norm>
-1.71861

>  <SCORE.heavy>
11

>  <SCORE.norm>
-3.96027

$$$$
P59289755
 OpenBabel12072022113D
libRbt.so/2013.1/901 2013/11/27
 14 14  0  0  0  0  0  0  0  0999 V2000
    3.5877   13.8039    5.2872 C   0  0  0  0  0  0  0  0  0  0  0  0
    3.4342   14.0467    3.8467 N   0  0  0  0  0  0  0  0  0  0  0  0
    2.1958   13.4269    3.3399 C   0  0  0  0  0  0  0  0  0  0  0  0
    0.9093   14.1204    3.8012 C   0  0  0  0  0  0  0  0  0  0  0  0
    0.9327   15.6157    3.4999 C   0  0  0  0  0  0  0  0  0  0  0  0
    2.2217   16.2652    3.9967 C   0  0  0  0  0  0  0  0  0  0  0  0
    3.4480   15.4964    3.4891 C   0  0  1  0  0  0  0  0  0  0  0  0
    4.7751   16.1655    3.8974 C   0  0  0  0  0  0  0  0  0  0  0  0
    4.9404   16.8072    4.9331 O   0  0  0  0  0  0  0  0  0  0  0  0
    5.7655   16.0233    2.9255 N   0  0  0  0  0  0  0  0  0  0  0  0
    5.9771   17.0626    1.9915 N   0  0  0  0  0  0  0  0  0  0  0  0
    6.5339   15.3889    3.1565 H   0  0  0  0  0  0  0  0  0  0  0  0
    6.5811   17.7575    2.4510 H   0  0  0  0  0  0  0  0  0  0  0  0
    5.0870   17.5574    1.8832 H   0  0  0  0  0  0  0  0  0  0  0  0
  1  2  1  0  0  0  0
  2  3  1  0  0  0  0
  2  7  1  0  0  0  0
  3  4  1  0  0  0  0
  4  5  1  0  0  0  0
  5  6  1  0  0  0  0
  6  7  1  0  0  0  0
  7  8  1  1  0  0  0
  8  9  2  0  0  0  0
  8 10  1  0  0  0  0
 10 11  1  0  0  0  0
 10 12  1  0  0  0  0
 11 13  1  0  0  0  0
 11 14  1  0  0  0  0
M  END
>  <CHROM.0>
-56.17080372,179.78691906,59.61449718,-45.29989808,-61.31225457,-64.04933307
53.23919438,-60.65207600,-168.15491591

>  <CHROM.1>
-97.42979102,96.06125423,82.72897476,3.52353235,15.37522303,3.72913099,-2.60171614
-0.12043358,-0.50116803

>  <Name>
P59289755

>  <RI>
1.00763e+07

>  <Rbt.Current_Directory>
/home/fstefaniak/projects/zuza/docking/adenine/4XNR

>  <Rbt.Executable>
rbdock ($Id: //depot/dev/client3/rdock/2013.1/src/exe/rbdock.cxx#4 $)

>  <Rbt.Library>
libRbt.so (2013.1, Build901 2013/11/27)

>  <Rbt.Parameter_File>
/home/fstefaniak/progs/rDock//data/scripts/dock_solv.prm

>  <Rbt.Receptor>
4xnr.prm

>  <SCORE>
-43.289

>  <SCORE.INTER>
-23.9054

>  <SCORE.INTER.CONST>
1

>  <SCORE.INTER.POLAR>
-3.57501

>  <SCORE.INTER.ROT>
3

>  <SCORE.INTER.SOLV>
12.5409

>  <SCORE.INTER.VDW>
-13.8006

>  <SCORE.INTER.norm>
-2.17322

>  <SCORE.INTRA>
-0.585499

>  <SCORE.INTRA.DIHEDRAL>
0.0358788

>  <SCORE.INTRA.DIHEDRAL.0>
2.54896

>  <SCORE.INTRA.POLAR>
0.0497922

>  <SCORE.INTRA.POLAR.0>
-0.0497922

>  <SCORE.INTRA.REPUL>
0

>  <SCORE.INTRA.REPUL.0>
0

>  <SCORE.INTRA.SOLV>
-0.425795

>  <SCORE.INTRA.SOLV.lig_0>
-15.5506

>  <SCORE.INTRA.VDW>
-0.559835

>  <SCORE.INTRA.VDW.0>
-0.426824

>  <SCORE.INTRA.norm>
-0.0532272

>  <SCORE.RESTR>
0

>  <SCORE.RESTR.CAVITY>
0

>  <SCORE.RESTR.norm>
0

>  <SCORE.SYSTEM>
-18.7981

>  <SCORE.SYSTEM.CONST>
0

>  <SCORE.SYSTEM.DIHEDRAL>
4.10229

>  <SCORE.SYSTEM.POLAR>
-3.01458

>  <SCORE.SYSTEM.SOLV>
0.170745

>  <SCORE.SYSTEM.VDW>
-3.90781

>  <SCORE.SYSTEM.norm>
-1.70892

>  <SCORE.heavy>
11

>  <SCORE.norm>
-3.93536

$$$$
P59289755
 OpenBabel12072022113D
libRbt.so/2013.1/901 2013/11/27
 14 14  0  0  0  0  0  0  0  0999 V2000
    6.9814   17.9069    2.1827 C   0  0  0  0  0  0  0  0  0  0  0  0
    5.6880   18.3888    2.6849 N   0  0  0  0  0  0  0  0  0  0  0  0
    4.5871   17.5347    2.2019 C   0  0  0  0  0  0  0  0  0  0  0  0
    4.5454   16.1407    2.8375 C   0  0  0  0  0  0  0  0  0  0  0  0
    4.5505   16.2127    4.3613 C   0  0  0  0  0  0  0  0  0  0  0  0
    5.6700   17.1150    4.8738 C   0  0  0  0  0  0  0  0  0  0  0  0
    5.6313   18.4794    4.1743 C   0  0  1  0  0  0  0  0  0  0  0  0
    6.6931   19.4537    4.7210 C   0  0  0  0  0  0  0  0  0  0  0  0
    6.4893   20.6429    4.9575 O   0  0  0  0  0  0  0  0  0  0  0  0
    7.9456   18.8554    4.8589 N   0  0  0  0  0  0  0  0  0  0  0  0
    8.5659   18.8259    6.1285 N   0  0  0  0  0  0  0  0  0  0  0  0
    8.1808   18.1405    4.1662 H   0  0  0  0  0  0  0  0  0  0  0  0
    8.1566   18.0332    6.6414 H   0  0  0  0  0  0  0  0  0  0  0  0
    8.2304   19.6424    6.6477 H   0  0  0  0  0  0  0  0  0  0  0  0
  1  2  1  0  0  0  0
  2  3  1  0  0  0  0
  2  7  1  0  0  0  0
  3  4  1  0  0  0  0
  4  5  1  0  0  0  0
  5  6  1  0  0  0  0
  6  7  1  0  0  0  0
  7  8  1  1  0  0  0
  8  9  2  0  0  0  0
  8 10  1  0  0  0  0
 10 11  1  0  0  0  0
 10 12  1  0  0  0  0
 11 13  1  0  0  0  0
 11 14  1  0  0  0  0
M  END
>  <CHROM.0>
-58.57598274,-62.44976840,-71.70391370,-49.14959515,-64.21075895,-65.33988408
-172.23207078,-60.53201418,-167.84372783

>  <CHROM.1>
93.72529682,-121.44394868,81.74192433,6.16771609,18.16108286,4.02317112,-3.03299202
0.89321804,2.18301313

>  <Name>
P59289755

>  <RI>
1.00763e+07

>  <Rbt.Current_Directory>
/home/fstefaniak/projects/zuza/docking/adenine/4XNR

>  <Rbt.Executable>
rbdock ($Id: //depot/dev/client3/rdock/2013.1/src/exe/rbdock.cxx#4 $)

>  <Rbt.Library>
libRbt.so (2013.1, Build901 2013/11/27)

>  <Rbt.Parameter_File>
/home/fstefaniak/progs/rDock//data/scripts/dock_solv.prm

>  <Rbt.Receptor>
4xnr.prm

>  <SCORE>
-40.0619

>  <SCORE.INTER>
-21.6104

>  <SCORE.INTER.CONST>
1

>  <SCORE.INTER.POLAR>
-3.8341

>  <SCORE.INTER.ROT>
3

>  <SCORE.INTER.SOLV>
14.7006

>  <SCORE.INTER.VDW>
-12.1268

>  <SCORE.INTER.norm>
-1.96459

>  <SCORE.INTRA>
1.89345

>  <SCORE.INTRA.DIHEDRAL>
-0.646647

>  <SCORE.INTRA.DIHEDRAL.0>
2.54896

>  <SCORE.INTRA.POLAR>
0.0497922

>  <SCORE.INTRA.POLAR.0>
-0.0497922

>  <SCORE.INTRA.REPUL>
0

>  <SCORE.INTRA.REPUL.0>
0

>  <SCORE.INTRA.SOLV>
0.172832

>  <SCORE.INTRA.SOLV.lig_0>
-15.5506

>  <SCORE.INTRA.VDW>
1.96107

>  <SCORE.INTRA.VDW.0>
-0.426824

>  <SCORE.INTRA.norm>
0.172132

>  <SCORE.RESTR>
0

>  <SCORE.RESTR.CAVITY>
0

>  <SCORE.RESTR.norm>
0

>  <SCORE.SYSTEM>
-20.345

>  <SCORE.SYSTEM.CONST>
0

>  <SCORE.SYSTEM.DIHEDRAL>
4.46422

>  <SCORE.SYSTEM.POLAR>
-2.93403

>  <SCORE.SYSTEM.SOLV>
0.211395

>  <SCORE.SYSTEM.VDW>
-5.34174

>  <SCORE.SYSTEM.norm>
-1.84954

>  <SCORE.heavy>
11

>  <SCORE.norm>
-3.642

$$$$
P59419231
 OpenBabel12072022113D
libRbt.so/2013.1/901 2013/11/27
 14 14  0  0  0  0  0  0  0  0999 V2000
    3.1704   11.5307    3.1193 C   0  0  0  0  0  0  0  0  0  0  0  0
    2.2808   12.7675    3.0293 C   0  0  1  0  0  0  0  0  0  0  0  0
    0.7770   12.5383    3.3186 C   0  0  0  0  0  0  0  0  0  0  0  0
    0.3363   13.8181    3.8322 O   0  0  0  0  0  0  0  0  0  0  0  0
    1.4364   14.4885    4.3007 C   0  0  0  0  0  0  0  0  0  0  0  0
    1.3865   15.5705    4.8678 O   0  0  0  0  0  0  0  0  0  0  0  0
    2.5959   13.7701    4.0091 N   0  0  0  0  0  0  0  0  0  0  0  0
    3.8650   14.4160    4.0392 N   0  0  0  0  0  0  0  0  0  0  0  0
   -0.0531   12.2247    2.0740 C   0  0  0  0  0  0  0  0  0  0  0  0
    0.4925   11.4993    4.4121 C   0  0  0  0  0  0  0  0  0  0  0  0
    2.4898   13.3830    1.7512 O   0  0  0  0  0  0  0  0  0  0  0  0
    4.3475   14.1482    3.1722 H   0  0  0  0  0  0  0  0  0  0  0  0
    4.4006   13.9485    4.7789 H   0  0  0  0  0  0  0  0  0  0  0  0
    2.1983   12.7556    1.0695 H   0  0  0  0  0  0  0  0  0  0  0  0
  2  1  1  1  0  0  0
  2  3  1  0  0  0  0
  2  7  1  0  0  0  0
  2 11  1  0  0  0  0
  3  4  1  0  0  0  0
  3  9  1  0  0  0  0
  3 10  1  0  0  0  0
  4  5  1  0  0  0  0
  5  6  2  0  0  0  0
  5  7  1  0  0  0  0
  7  8  1  0  0  0  0
  8 12  1  0  0  0  0
  8 13  1  0  0  0  0
 11 14  1  0  0  0  0
M  END
>  <CHROM.0>
-59.03114725,70.76181069,-66.73276489,-45.25120491,-64.73646855,-173.67907303
-66.74502475,-179.22179262,-167.90033977

>  <CHROM.1>
63.50363147,10.25902544,1.73050360,13.28756713,3.50465508,-2.06477984,0.17307362
0.56502573

>  <Name>
P59419231

>  <RI>
3.51561e+07

>  <Rbt.Current_Directory>
/home/fstefaniak/projects/zuza/docking/adenine/4XNR

>  <Rbt.Executable>
rbdock ($Id: //depot/dev/client3/rdock/2013.1/src/exe/rbdock.cxx#4 $)

>  <Rbt.Library>
libRbt.so (2013.1, Build901 2013/11/27)

>  <Rbt.Parameter_File>
/home/fstefaniak/progs/rDock//data/scripts/dock_solv.prm

>  <Rbt.Receptor>
4xnr.prm

>  <SCORE>
-38.588

>  <SCORE.INTER>
-19.5949

>  <SCORE.INTER.CONST>
1

>  <SCORE.INTER.POLAR>
-3.3023

>  <SCORE.INTER.ROT>
1

>  <SCORE.INTER.SOLV>
8.37439

>  <SCORE.INTER.VDW>
-9.11375

>  <SCORE.INTER.norm>
-1.78136

>  <SCORE.INTRA>
-0.379833

>  <SCORE.INTRA.DIHEDRAL>
-0.272978

>  <SCORE.INTRA.DIHEDRAL.0>
1.82137

>  <SCORE.INTRA.POLAR>
-0.0024891

>  <SCORE.INTRA.POLAR.0>
-0.00100246

>  <SCORE.INTRA.REPUL>
0

>  <SCORE.INTRA.REPUL.0>
0

>  <SCORE.INTRA.SOLV>
-0.199865

>  <SCORE.INTRA.SOLV.lig_0>
-13.2113

>  <SCORE.INTRA.VDW>
-0.134949

>  <SCORE.INTRA.VDW.0>
0.813101

>  <SCORE.INTRA.norm>
-0.0345303

>  <SCORE.RESTR>
0.702098

>  <SCORE.RESTR.CAVITY>
0.702098

>  <SCORE.RESTR.norm>
0.0638271

>  <SCORE.SYSTEM>
-19.3154

>  <SCORE.SYSTEM.CONST>
0

>  <SCORE.SYSTEM.DIHEDRAL>
5.01892

>  <SCORE.SYSTEM.POLAR>
-3.0064

>  <SCORE.SYSTEM.SOLV>
0.0632145

>  <SCORE.SYSTEM.VDW>
-4.5496

>  <SCORE.SYSTEM.norm>
-1.75594

>  <SCORE.heavy>
11

>  <SCORE.norm>
-3.508

$$$$
P59419231
 OpenBabel12072022113D
libRbt.so/2013.1/901 2013/11/27
 14 14  0  0  0  0  0  0  0  0999 V2000
    0.0698   13.2617    2.5040 C   0  0  0  0  0  0  0  0  0  0  0  0
    1.0578   13.7515    3.5590 C   0  0  1  0  0  0  0  0  0  0  0  0
    2.3744   12.9448    3.6752 C   0  0  0  0  0  0  0  0  0  0  0  0
    3.3251   13.9238    4.1586 O   0  0  0  0  0  0  0  0  0  0  0  0
    2.8457   15.1698    3.8473 C   0  0  0  0  0  0  0  0  0  0  0  0
    3.4569   16.2082    4.0550 O   0  0  0  0  0  0  0  0  0  0  0  0
    1.5689   15.0682    3.2952 N   0  0  0  0  0  0  0  0  0  0  0  0
    0.7159   16.2080    3.2494 N   0  0  0  0  0  0  0  0  0  0  0  0
    2.3169   11.8078    4.6954 C   0  0  0  0  0  0  0  0  0  0  0  0
    2.9174   12.4207    2.3387 C   0  0  0  0  0  0  0  0  0  0  0  0
    0.3724   13.8368    4.8156 O   0  0  0  0  0  0  0  0  0  0  0  0
   -0.1930   15.9054    3.6217 H   0  0  0  0  0  0  0  0  0  0  0  0
    0.5340   16.3829    2.2550 H   0  0  0  0  0  0  0  0  0  0  0  0
    0.9522   14.3060    5.4376 H   0  0  0  0  0  0  0  0  0  0  0  0
  2  1  1  6  0  0  0
  2  3  1  0  0  0  0
  2  7  1  0  0  0  0
  2 11  1  0  0  0  0
  3  4  1  0  0  0  0
  3  9  1  0  0  0  0
  3 10  1  0  0  0  0
  4  5  1  0  0  0  0
  5  6  2  0  0  0  0
  5  7  1  0  0  0  0
  7  8  1  0  0  0  0
  8 12  1  0  0  0  0
  8 13  1  0  0  0  0
 11 14  1  0  0  0  0
M  END
>  <CHROM.0>
-58.46516083,-62.08406175,56.47680360,-47.11957786,-60.20903859,-173.06486377
-59.17957107,-59.36920500,-167.87158563

>  <CHROM.1>
-169.32314780,11.47238794,1.89122773,14.07872237,3.67126010,1.57769521,0.17423873
-3.13317188

>  <Name>
P59419231

>  <RI>
3.51561e+07

>  <Rbt.Current_Directory>
/home/fstefaniak/projects/zuza/docking/adenine/4XNR

>  <Rbt.Executable>
rbdock ($Id: //depot/dev/client3/rdock/2013.1/src/exe/rbdock.cxx#4 $)

>  <Rbt.Library>
libRbt.so (2013.1, Build901 2013/11/27)

>  <Rbt.Parameter_File>
/home/fstefaniak/progs/rDock//data/scripts/dock_solv.prm

>  <Rbt.Receptor>
4xnr.prm

>  <SCORE>
-35.6762

>  <SCORE.INTER>
-16.8481

>  <SCORE.INTER.CONST>
1

>  <SCORE.INTER.POLAR>
-2.66032

>  <SCORE.INTER.ROT>
1

>  <SCORE.INTER.SOLV>
8.88118

>  <SCORE.INTER.VDW>
-9.59142

>  <SCORE.INTER.norm>
-1.53165

>  <SCORE.INTRA>
-1.23476

>  <SCORE.INTRA.DIHEDRAL>
0.0470096

>  <SCORE.INTRA.DIHEDRAL.0>
1.82137

>  <SCORE.INTRA.POLAR>
0.00100246

>  <SCORE.INTRA.POLAR.0>
-0.00100246

>  <SCORE.INTRA.REPUL>
0

>  <SCORE.INTRA.REPUL.0>
0

>  <SCORE.INTRA.SOLV>
-0.00160236

>  <SCORE.INTRA.SOLV.lig_0>
-13.2113

>  <SCORE.INTRA.VDW>
-1.26088

>  <SCORE.INTRA.VDW.0>
0.813101

>  <SCORE.INTRA.norm>
-0.112251

>  <SCORE.RESTR>
0.0299937

>  <SCORE.RESTR.CAVITY>
0.0299937

>  <SCORE.RESTR.norm>
0.0027267

>  <SCORE.SYSTEM>
-17.6233

>  <SCORE.SYSTEM.CONST>
0

>  <SCORE.SYSTEM.DIHEDRAL>
3.86135

>  <SCORE.SYSTEM.POLAR>
-2.51712

>  <SCORE.SYSTEM.SOLV>
0.129885

>  <SCORE.SYSTEM.VDW>
-4.68892

>  <SCORE.SYSTEM.norm>
-1.60212

>  <SCORE.heavy>
11

>  <SCORE.norm>
-3.24329

$$$$
P59419231
 OpenBabel12072022113D
libRbt.so/2013.1/901 2013/11/27
 14 14  0  0  0  0  0  0  0  0999 V2000
    0.5924   12.4505    2.0710 C   0  0  0  0  0  0  0  0  0  0  0  0
    1.2080   13.1102    3.3018 C   0  0  1  0  0  0  0  0  0  0  0  0
    2.4941   12.4452    3.8505 C   0  0  0  0  0  0  0  0  0  0  0  0
    3.1985   13.5445    4.4761 O   0  0  0  0  0  0  0  0  0  0  0  0
    2.7367   14.7119    3.9255 C   0  0  0  0  0  0  0  0  0  0  0  0
    3.1888   15.8169    4.1889 O   0  0  0  0  0  0  0  0  0  0  0  0
    1.6760   14.4469    3.0594 N   0  0  0  0  0  0  0  0  0  0  0  0
    0.7899   15.4925    2.6716 N   0  0  0  0  0  0  0  0  0  0  0  0
    2.2358   11.3868    4.9229 C   0  0  0  0  0  0  0  0  0  0  0  0
    3.4256   11.8782    2.7703 C   0  0  0  0  0  0  0  0  0  0  0  0
    0.1942   13.2220    4.3097 O   0  0  0  0  0  0  0  0  0  0  0  0
    1.2066   16.3677    3.0134 H   0  0  0  0  0  0  0  0  0  0  0  0
   -0.0520   15.3746    3.2459 H   0  0  0  0  0  0  0  0  0  0  0  0
   -0.5628   13.6872    3.9176 H   0  0  0  0  0  0  0  0  0  0  0  0
  2  1  1  6  0  0  0
  2  3  1  0  0  0  0
  2  7  1  0  0  0  0
  2 11  1  0  0  0  0
  3  4  1  0  0  0  0
  3  9  1  0  0  0  0
  3 10  1  0  0  0  0
  4  5  1  0  0  0  0
  5  6  2  0  0  0  0
  5  7  1  0  0  0  0
  7  8  1  0  0  0  0
  8 12  1  0  0  0  0
  8 13  1  0  0  0  0
 11 14  1  0  0  0  0
M  END
>  <CHROM.0>
-60.11560918,-174.29924845,60.30739275,-45.26987560,-61.03192343,-60.79541590
52.13903964,-60.78630079,-167.45793918

>  <CHROM.1>
-54.17492723,151.89115737,1.94663033,13.52963749,3.60844561,1.50465389,0.42536276
3.10113936

>  <Name>
P59419231

>  <RI>
3.51561e+07

>  <Rbt.Current_Directory>
/home/fstefaniak/projects/zuza/docking/adenine/4XNR

>  <Rbt.Executable>
rbdock ($Id: //depot/dev/client3/rdock/2013.1/src/exe/rbdock.cxx#4 $)

>  <Rbt.Library>
libRbt.so (2013.1, Build901 2013/11/27)

>  <Rbt.Parameter_File>
/home/fstefaniak/progs/rDock//data/scripts/dock_solv.prm

>  <Rbt.Receptor>
4xnr.prm

>  <SCORE>
-35.5589

>  <SCORE.INTER>
-16.8013

>  <SCORE.INTER.CONST>
1

>  <SCORE.INTER.POLAR>
-2.66765

>  <SCORE.INTER.ROT>
1

>  <SCORE.INTER.SOLV>
7.14781

>  <SCORE.INTER.VDW>
-8.95793

>  <SCORE.INTER.norm>
-1.52739

>  <SCORE.INTRA>
-0.201863

>  <SCORE.INTRA.DIHEDRAL>
-0.695103

>  <SCORE.INTRA.DIHEDRAL.0>
1.82137

>  <SCORE.INTRA.POLAR>
0.00100246

>  <SCORE.INTRA.POLAR.0>
-0.00100246

>  <SCORE.INTRA.REPUL>
0

>  <SCORE.INTRA.REPUL.0>
0

>  <SCORE.INTRA.SOLV>
0.21545

>  <SCORE.INTRA.SOLV.lig_0>
-13.2113

>  <SCORE.INTRA.VDW>
0.0345555

>  <SCORE.INTRA.VDW.0>
0.813101

>  <SCORE.INTRA.norm>
-0.0183512

>  <SCORE.RESTR>
0.180421

>  <SCORE.RESTR.CAVITY>
0.180421

>  <SCORE.RESTR.norm>
0.0164019

>  <SCORE.SYSTEM>
-18.7362

>  <SCORE.SYSTEM.CONST>
0

>  <SCORE.SYSTEM.DIHEDRAL>
4.26435

>  <SCORE.SYSTEM.POLAR>
-2.97987

>  <SCORE.SYSTEM.SOLV>
0.164213

>  <SCORE.SYSTEM.VDW>
-4.03409

>  <SCORE.SYSTEM.norm>
-1.70329

>  <SCORE.heavy>
11

>  <SCORE.norm>
-3.23263

$$$$
P59419233
 OpenBabel12072022113D
libRbt.so/2013.1/901 2013/11/27
 14 14  0  0  0  0  0  0  0  0999 V2000
    3.9421   14.5242    3.7465 C   0  0  0  0  0  0  0  0  0  0  0  0
    2.8683   13.6850    4.4435 C   0  0  2  0  0  0  0  0  0  0  0  0
    2.7117   12.2433    3.9090 C   0  0  0  0  0  0  0  0  0  0  0  0
    1.7235   12.3887    2.8537 O   0  0  0  0  0  0  0  0  0  0  0  0
    0.9721   13.5011    3.1312 C   0  0  0  0  0  0  0  0  0  0  0  0
   -0.0482   13.8129    2.5378 O   0  0  0  0  0  0  0  0  0  0  0  0
    1.5611   14.2040    4.1703 N   0  0  0  0  0  0  0  0  0  0  0  0
    1.0736   15.4266    4.6798 N   0  0  0  0  0  0  0  0  0  0  0  0
    3.9711   11.6334    3.2946 C   0  0  0  0  0  0  0  0  0  0  0  0
    2.1373   11.2725    4.9535 C   0  0  0  0  0  0  0  0  0  0  0  0
    3.0660   13.7715    5.8407 O   0  0  0  0  0  0  0  0  0  0  0  0
    0.7203   15.2293    5.6250 H   0  0  0  0  0  0  0  0  0  0  0  0
    0.2179   15.6495    4.1582 H   0  0  0  0  0  0  0  0  0  0  0  0
    2.2534   13.3442    6.1809 H   0  0  0  0  0  0  0  0  0  0  0  0
  2  3  1  0  0  0  0
  2  7  1  0  0  0  0
  2 11  1  0  0  0  0
  2  1  1  6  0  0  0
  3  4  1  0  0  0  0
  3  9  1  0  0  0  0
  3 10  1  0  0  0  0
  4  5  1  0  0  0  0
  5  6  2  0  0  0  0
  5  7  1  0  0  0  0
  7  8  1  0  0  0  0
  8 12  1  0  0  0  0
  8 13  1  0  0  0  0
 11 14  1  0  0  0  0
M  END
>  <CHROM.0>
-59.03740050,46.87987079,60.02353628,-47.11566681,-175.91435921,-62.20979483
52.74011329,-60.75483321,-167.31385040

>  <CHROM.1>
170.44236883,-83.45694426,2.15879627,13.33240248,3.98336975,-0.52107825,-0.54079537
0.48749144

>  <Name>
P59419233

>  <RI>
3.51561e+07

>  <Rbt.Current_Directory>
/home/fstefaniak/projects/zuza/docking/adenine/4XNR

>  <Rbt.Executable>
rbdock ($Id: //depot/dev/client3/rdock/2013.1/src/exe/rbdock.cxx#4 $)

>  <Rbt.Library>
libRbt.so (2013.1, Build901 2013/11/27)

>  <Rbt.Parameter_File>
/home/fstefaniak/progs/rDock//data/scripts/dock_solv.prm

>  <Rbt.Receptor>
4xnr.prm

>  <SCORE>
-38.5907

>  <SCORE.INTER>
-21.0764

>  <SCORE.INTER.CONST>
1

>  <SCORE.INTER.POLAR>
-3.54639

>  <SCORE.INTER.ROT>
1

>  <SCORE.INTER.SOLV>
8.92786

>  <SCORE.INTER.VDW>
-9.47227

>  <SCORE.INTER.norm>
-1.91604

>  <SCORE.INTRA>
0.122255

>  <SCORE.INTRA.DIHEDRAL>
-4.44281

>  <SCORE.INTRA.DIHEDRAL.0>
5.68199

>  <SCORE.INTRA.POLAR>
0.473783

>  <SCORE.INTRA.POLAR.0>
-0.473783

>  <SCORE.INTRA.REPUL>
0

>  <SCORE.INTRA.REPUL.0>
0

>  <SCORE.INTRA.SOLV>
-0.058287

>  <SCORE.INTRA.SOLV.lig_0>
-11.6346

>  <SCORE.INTRA.VDW>
0.761942

>  <SCORE.INTRA.VDW.0>
0.279213

>  <SCORE.INTRA.norm>
0.0111141

>  <SCORE.RESTR>
0.439317

>  <SCORE.RESTR.CAVITY>
0.439317

>  <SCORE.RESTR.norm>
0.0399379

>  <SCORE.SYSTEM>
-18.0758

>  <SCORE.SYSTEM.CONST>
0

>  <SCORE.SYSTEM.DIHEDRAL>
4.75106

>  <SCORE.SYSTEM.POLAR>
-3.01969

>  <SCORE.SYSTEM.SOLV>
0.132318

>  <SCORE.SYSTEM.VDW>
-3.6127

>  <SCORE.SYSTEM.norm>
-1.64326

>  <SCORE.heavy>
11

>  <SCORE.norm>
-3.50824

$$$$
P59419233
 OpenBabel12072022113D
libRbt.so/2013.1/901 2013/11/27
 14 14  0  0  0  0  0  0  0  0999 V2000
    4.1466   14.4064    3.8168 C   0  0  0  0  0  0  0  0  0  0  0  0
    3.0374   13.6112    4.5100 C   0  0  2  0  0  0  0  0  0  0  0  0
    2.7885   12.1966    3.9394 C   0  0  0  0  0  0  0  0  0  0  0  0
    1.7933   12.4282    2.9063 O   0  0  0  0  0  0  0  0  0  0  0  0
    1.1125   13.5740    3.2274 C   0  0  0  0  0  0  0  0  0  0  0  0
    0.1024   13.9606    2.6611 O   0  0  0  0  0  0  0  0  0  0  0  0
    1.7582   14.2122    4.2745 N   0  0  0  0  0  0  0  0  0  0  0  0
    1.3511   15.4460    4.8257 N   0  0  0  0  0  0  0  0  0  0  0  0
    4.0001   11.5326    3.2862 C   0  0  0  0  0  0  0  0  0  0  0  0
    2.1758   11.2315    4.9673 C   0  0  0  0  0  0  0  0  0  0  0  0
    3.2626   13.6468    5.9052 O   0  0  0  0  0  0  0  0  0  0  0  0
    2.2019   15.9047    5.1760 H   0  0  0  0  0  0  0  0  0  0  0  0
    0.8347   15.2341    5.6874 H   0  0  0  0  0  0  0  0  0  0  0  0
    2.4198   13.2865    6.2495 H   0  0  0  0  0  0  0  0  0  0  0  0
  2  3  1  0  0  0  0
  2  7  1  0  0  0  0
  2 11  1  0  0  0  0
  2  1  1  6  0  0  0
  3  4  1  0  0  0  0
  3  9  1  0  0  0  0
  3 10  1  0  0  0  0
  4  5  1  0  0  0  0
  5  6  2  0  0  0  0
  5  7  1  0  0  0  0
  7  8  1  0  0  0  0
  8 12  1  0  0  0  0
  8 13  1  0  0  0  0
 11 14  1  0  0  0  0
M  END
>  <CHROM.0>
-54.95687063,-41.24357125,-67.71644263,-46.93013974,-58.12304653,-63.11455303
-66.69957717,-61.65643056,-166.91561847

>  <CHROM.1>
168.56138533,15.06724760,2.31069569,13.31438609,4.05807802,-0.61214230,-0.55234903
0.47359694

>  <Name>
P59419233

>  <RI>
3.51561e+07

>  <Rbt.Current_Directory>
/home/fstefaniak/projects/zuza/docking/adenine/4XNR

>  <Rbt.Executable>
rbdock ($Id: //depot/dev/client3/rdock/2013.1/src/exe/rbdock.cxx#4 $)

>  <Rbt.Library>
libRbt.so (2013.1, Build901 2013/11/27)

>  <Rbt.Parameter_File>
/home/fstefaniak/progs/rDock//data/scripts/dock_solv.prm

>  <Rbt.Receptor>
4xnr.prm

>  <SCORE>
-35.4825

>  <SCORE.INTER>
-16.4349

>  <SCORE.INTER.CONST>
1

>  <SCORE.INTER.POLAR>
-2.7485

>  <SCORE.INTER.ROT>
1

>  <SCORE.INTER.SOLV>
9.2203

>  <SCORE.INTER.VDW>
-9.13503

>  <SCORE.INTER.norm>
-1.49408

>  <SCORE.INTRA>
0.088173

>  <SCORE.INTRA.DIHEDRAL>
-4.18907

>  <SCORE.INTRA.DIHEDRAL.0>
5.68199

>  <SCORE.INTRA.POLAR>
0.473783

>  <SCORE.INTRA.POLAR.0>
-0.473783

>  <SCORE.INTRA.REPUL>
0

>  <SCORE.INTRA.REPUL.0>
0

>  <SCORE.INTRA.SOLV>
-0.0367454

>  <SCORE.INTRA.SOLV.lig_0>
-11.6346

>  <SCORE.INTRA.VDW>
0.59022

>  <SCORE.INTRA.VDW.0>
0.279213

>  <SCORE.INTRA.norm>
0.00801573

>  <SCORE.RESTR>
0.473005

>  <SCORE.RESTR.CAVITY>
0.473005

>  <SCORE.RESTR.norm>
0.0430004

>  <SCORE.SYSTEM>
-19.6088

>  <SCORE.SYSTEM.CONST>
0

>  <SCORE.SYSTEM.DIHEDRAL>
5.89918

>  <SCORE.SYSTEM.POLAR>
-3.01566

>  <SCORE.SYSTEM.SOLV>
0.361602

>  <SCORE.SYSTEM.VDW>
-5.10725

>  <SCORE.SYSTEM.norm>
-1.78262

>  <SCORE.heavy>
11

>  <SCORE.norm>
-3.22568

$$$$
P59419233
 OpenBabel12072022113D
libRbt.so/2013.1/901 2013/11/27
 14 14  0  0  0  0  0  0  0  0999 V2000
    3.9345   14.6020    4.1060 C   0  0  0  0  0  0  0  0  0  0  0  0
    2.5156   14.1120    4.4060 C   0  0  2  0  0  0  0  0  0  0  0  0
    1.9392   13.1044    3.3856 C   0  0  0  0  0  0  0  0  0  0  0  0
    1.2928   13.9610    2.4058 O   0  0  0  0  0  0  0  0  0  0  0  0
    0.9698   15.1401    3.0258 C   0  0  0  0  0  0  0  0  0  0  0  0
    0.2690   16.0109    2.5349 O   0  0  0  0  0  0  0  0  0  0  0  0
    1.5706   15.1808    4.2741 N   0  0  0  0  0  0  0  0  0  0  0  0
    1.4847   16.2741    5.1623 N   0  0  0  0  0  0  0  0  0  0  0  0
    2.9740   12.2498    2.6547 C   0  0  0  0  0  0  0  0  0  0  0  0
    0.8603   12.1889    3.9865 C   0  0  0  0  0  0  0  0  0  0  0  0
    2.4647   13.6759    5.7498 O   0  0  0  0  0  0  0  0  0  0  0  0
    0.4872   16.5114    5.2384 H   0  0  0  0  0  0  0  0  0  0  0  0
    1.8764   17.0885    4.6750 H   0  0  0  0  0  0  0  0  0  0  0  0
    2.4397   14.5277    6.2320 H   0  0  0  0  0  0  0  0  0  0  0  0
  2  3  1  0  0  0  0
  2  7  1  0  0  0  0
  2 11  1  0  0  0  0
  2  1  1  6  0  0  0
  3  4  1  0  0  0  0
  3  9  1  0  0  0  0
  3 10  1  0  0  0  0
  4  5  1  0  0  0  0
  5  6  2  0  0  0  0
  5  7  1  0  0  0  0
  7  8  1  0  0  0  0
  8 12  1  0  0  0  0
  8 13  1  0  0  0  0
 11 14  1  0  0  0  0
M  END
>  <CHROM.0>
-59.62522664,-176.37998485,60.40419392,54.67987483,-173.99915437,59.85575031
54.44199971,-172.68644425,-168.20297310

>  <CHROM.1>
76.15339450,-144.42066195,1.83560307,14.25423527,3.81461889,-0.92963684,-0.85091810
0.56856811

>  <Name>
P59419233

>  <RI>
3.51561e+07

>  <Rbt.Current_Directory>
/home/fstefaniak/projects/zuza/docking/adenine/4XNR

>  <Rbt.Executable>
rbdock ($Id: //depot/dev/client3/rdock/2013.1/src/exe/rbdock.cxx#4 $)

>  <Rbt.Library>
libRbt.so (2013.1, Build901 2013/11/27)

>  <Rbt.Parameter_File>
/home/fstefaniak/progs/rDock//data/scripts/dock_solv.prm

>  <Rbt.Receptor>
4xnr.prm

>  <SCORE>
-27.3448

>  <SCORE.INTER>
-11.9118

>  <SCORE.INTER.CONST>
1

>  <SCORE.INTER.POLAR>
-3.30448

>  <SCORE.INTER.ROT>
1

>  <SCORE.INTER.SOLV>
10.8134

>  <SCORE.INTER.VDW>
-4.79737

>  <SCORE.INTER.norm>
-1.08289

>  <SCORE.INTRA>
-1.11617

>  <SCORE.INTRA.DIHEDRAL>
-3.25517

>  <SCORE.INTRA.DIHEDRAL.0>
5.68199

>  <SCORE.INTRA.POLAR>
0.196016

>  <SCORE.INTRA.POLAR.0>
-0.473783

>  <SCORE.INTRA.REPUL>
0

>  <SCORE.INTRA.REPUL.0>
0

>  <SCORE.INTRA.SOLV>
-0.00733829

>  <SCORE.INTRA.SOLV.lig_0>
-11.6346

>  <SCORE.INTRA.VDW>
-0.151371

>  <SCORE.INTRA.VDW.0>
0.279213

>  <SCORE.INTRA.norm>
-0.10147

>  <SCORE.RESTR>
0.162927

>  <SCORE.RESTR.CAVITY>
0.162927

>  <SCORE.RESTR.norm>
0.0148116

>  <SCORE.SYSTEM>
-14.4798

>  <SCORE.SYSTEM.CONST>
0

>  <SCORE.SYSTEM.DIHEDRAL>
3.49068

>  <SCORE.SYSTEM.POLAR>
-2.39978

>  <SCORE.SYSTEM.SOLV>
-0.335142

>  <SCORE.SYSTEM.VDW>
-2.70579

>  <SCORE.SYSTEM.norm>
-1.31635

>  <SCORE.heavy>
11

>  <SCORE.norm>
-2.48589

$$$$
P60589159
 OpenBabel12072022113D
libRbt.so/2013.1/901 2013/11/27
 12 11  0  0  0  0  0  0  0  0999 V2000
    6.1034   18.6371    6.7125 C   0  0  0  0  0  0  0  0  0  0  0  0
    6.6160   19.0506    5.0575 S   0  0  0  0  0  0  0  0  0  0  0  0
    6.4165   20.4675    4.8076 O   0  0  0  0  0  0  0  0  0  0  0  0
    7.9575   18.5123    4.8709 O   0  0  0  0  0  0  0  0  0  0  0  0
    5.6083   18.1544    3.8938 C   0  0  1  0  0  0  0  0  0  0  0  0
    6.3977   17.8719    2.6217 C   0  0  0  0  0  0  0  0  0  0  0  0
    7.1674   18.7606    2.2020 O   0  0  0  0  0  0  0  0  0  0  0  0
    6.0108   16.7713    2.1063 O   0  5  0  0  0  0  0  0  0  0  0  0
    5.0394   16.8190    4.4430 N   0  3  0  0  0  0  0  0  0  0  0  0
    5.7909   16.1212    4.4754 H   0  0  0  0  0  0  0  0  0  0  0  0
    4.5334   16.9121    5.3203 H   0  0  0  0  0  0  0  0  0  0  0  0
    4.4114   16.5287    3.6551 H   0  0  0  0  0  0  0  0  0  0  0  0
  1  2  1  0  0  0  0
  2  3  2  0  0  0  0
  2  4  2  0  0  0  0
  2  5  1  0  0  0  0
  5  6  1  6  0  0  0
  5  9  1  0  0  0  0
  6  7  2  0  0  0  0
  6  8  1  0  0  0  0
  9 10  1  0  0  0  0
  9 11  1  0  0  0  0
  9 12  1  0  0  0  0
M  CHG  2   8  -1   9   1
M  END
>  <CHROM.0>
-54.28661253,-65.15120601,-65.73108458,-49.15959987,-55.70334077,-62.71678931
-67.54389816,-61.65592920,-168.77661059

>  <CHROM.1>
-150.10815556,-38.46697418,-74.73557814,6.39875137,18.41072777,4.21026512
1.38452185,0.92347571,1.19078677

>  <Name>
P60589159

>  <RI>
9.71178e+06

>  <Rbt.Current_Directory>
/home/fstefaniak/projects/zuza/docking/adenine/4XNR

>  <Rbt.Executable>
rbdock ($Id: //depot/dev/client3/rdock/2013.1/src/exe/rbdock.cxx#4 $)

>  <Rbt.Library>
libRbt.so (2013.1, Build901 2013/11/27)

>  <Rbt.Parameter_File>
/home/fstefaniak/progs/rDock//data/scripts/dock_solv.prm

>  <Rbt.Receptor>
4xnr.prm

>  <SCORE>
-50.0887

>  <SCORE.INTER>
-27.551

>  <SCORE.INTER.CONST>
1

>  <SCORE.INTER.POLAR>
-4.09658

>  <SCORE.INTER.ROT>
2

>  <SCORE.INTER.SOLV>
23.7273

>  <SCORE.INTER.VDW>
-17.5545

>  <SCORE.INTER.norm>
-3.06122

>  <SCORE.INTRA>
-1.71865

>  <SCORE.INTRA.DIHEDRAL>
-1.19421

>  <SCORE.INTRA.DIHEDRAL.0>
4.09112

>  <SCORE.INTRA.POLAR>
0

>  <SCORE.INTRA.POLAR.0>
0

>  <SCORE.INTRA.REPUL>
0

>  <SCORE.INTRA.REPUL.0>
0

>  <SCORE.INTRA.SOLV>
0.112052

>  <SCORE.INTRA.SOLV.lig_0>
-50.6397

>  <SCORE.INTRA.VDW>
-1.17757

>  <SCORE.INTRA.VDW.0>
0.539372

>  <SCORE.INTRA.norm>
-0.190961

>  <SCORE.RESTR>
0

>  <SCORE.RESTR.CAVITY>
0

>  <SCORE.RESTR.norm>
0

>  <SCORE.SYSTEM>
-20.8191

>  <SCORE.SYSTEM.CONST>
0

>  <SCORE.SYSTEM.DIHEDRAL>
4.05446

>  <SCORE.SYSTEM.POLAR>
-2.9792

>  <SCORE.SYSTEM.SOLV>
0.285562

>  <SCORE.SYSTEM.VDW>
-5.39539

>  <SCORE.SYSTEM.norm>
-2.31323

>  <SCORE.heavy>
9

>  <SCORE.norm>
-5.56541

$$$$
P60589159
 OpenBabel12072022113D
libRbt.so/2013.1/901 2013/11/27
 12 11  0  0  0  0  0  0  0  0999 V2000
    6.1217   18.7177    6.6305 C   0  0  0  0  0  0  0  0  0  0  0  0
    6.6272   19.0003    4.9460 S   0  0  0  0  0  0  0  0  0  0  0  0
    6.5019   20.4083    4.6120 O   0  0  0  0  0  0  0  0  0  0  0  0
    7.9334   18.3770    4.7739 O   0  0  0  0  0  0  0  0  0  0  0  0
    5.5512   18.0931    3.8543 C   0  0  1  0  0  0  0  0  0  0  0  0
    6.1820   17.9736    2.4725 C   0  0  0  0  0  0  0  0  0  0  0  0
    7.0060   18.8462    2.1289 O   0  0  0  0  0  0  0  0  0  0  0  0
    5.6258   17.0282    1.8219 O   0  5  0  0  0  0  0  0  0  0  0  0
    5.1780   16.6755    4.3641 N   0  3  0  0  0  0  0  0  0  0  0  0
    5.9660   16.0399    4.1974 H   0  0  0  0  0  0  0  0  0  0  0  0
    4.8348   16.6549    5.3212 H   0  0  0  0  0  0  0  0  0  0  0  0
    4.4373   16.4022    3.6740 H   0  0  0  0  0  0  0  0  0  0  0  0
  1  2  1  0  0  0  0
  2  3  2  0  0  0  0
  2  4  2  0  0  0  0
  2  5  1  0  0  0  0
  5  6  1  6  0  0  0
  5  9  1  0  0  0  0
  6  7  2  0  0  0  0
  6  8  1  0  0  0  0
  9 10  1  0  0  0  0
  9 11  1  0  0  0  0
  9 12  1  0  0  0  0
M  CHG  2   8  -1   9   1
M  END
>  <CHROM.0>
-60.47978798,54.90073155,-65.72388334,-47.39676775,-60.06081648,-67.96342791
-69.91155819,-59.22187594,-168.42015027

>  <CHROM.1>
-163.35779264,-25.58799285,-77.74371547,6.34642580,18.41015292,4.08698976
1.21841263,0.97764669,1.39317221

>  <Name>
P60589159

>  <RI>
9.71178e+06

>  <Rbt.Current_Directory>
/home/fstefaniak/projects/zuza/docking/adenine/4XNR

>  <Rbt.Executable>
rbdock ($Id: //depot/dev/client3/rdock/2013.1/src/exe/rbdock.cxx#4 $)

>  <Rbt.Library>
libRbt.so (2013.1, Build901 2013/11/27)

>  <Rbt.Parameter_File>
/home/fstefaniak/progs/rDock//data/scripts/dock_solv.prm

>  <Rbt.Receptor>
4xnr.prm

>  <SCORE>
-49.6163

>  <SCORE.INTER>
-27.0111

>  <SCORE.INTER.CONST>
1

>  <SCORE.INTER.POLAR>
-4.20267

>  <SCORE.INTER.ROT>
2

>  <SCORE.INTER.SOLV>
23.6264

>  <SCORE.INTER.VDW>
-16.8073

>  <SCORE.INTER.norm>
-3.00123

>  <SCORE.INTRA>
-2.58

>  <SCORE.INTRA.DIHEDRAL>
-2.10769

>  <SCORE.INTRA.DIHEDRAL.0>
4.09112

>  <SCORE.INTRA.POLAR>
0

>  <SCORE.INTRA.POLAR.0>
0

>  <SCORE.INTRA.REPUL>
0

>  <SCORE.INTRA.REPUL.0>
0

>  <SCORE.INTRA.SOLV>
0.0398695

>  <SCORE.INTRA.SOLV.lig_0>
-50.6397

>  <SCORE.INTRA.VDW>
-1.54609

>  <SCORE.INTRA.VDW.0>
0.539372

>  <SCORE.INTRA.norm>
-0.286667

>  <SCORE.RESTR>
0

>  <SCORE.RESTR.CAVITY>
0

>  <SCORE.RESTR.norm>
0

>  <SCORE.SYSTEM>
-20.0252

>  <SCORE.SYSTEM.CONST>
0

>  <SCORE.SYSTEM.DIHEDRAL>
4.46614

>  <SCORE.SYSTEM.POLAR>
-2.97396

>  <SCORE.SYSTEM.SOLV>
0.357274

>  <SCORE.SYSTEM.VDW>
-5.04474

>  <SCORE.SYSTEM.norm>
-2.22502

>  <SCORE.heavy>
9

>  <SCORE.norm>
-5.51292

$$$$
P60589159
 OpenBabel12072022113D
libRbt.so/2013.1/901 2013/11/27
 12 11  0  0  0  0  0  0  0  0999 V2000
    6.0872   18.6593    6.7040 C   0  0  0  0  0  0  0  0  0  0  0  0
    6.6097   19.0435    5.0449 S   0  0  0  0  0  0  0  0  0  0  0  0
    6.4362   20.4605    4.7776 O   0  0  0  0  0  0  0  0  0  0  0  0
    7.9416   18.4788    4.8672 O   0  0  0  0  0  0  0  0  0  0  0  0
    5.5878   18.1515    3.8904 C   0  0  1  0  0  0  0  0  0  0  0  0
    6.3580   17.8832    2.6035 C   0  0  0  0  0  0  0  0  0  0  0  0
    7.1288   18.7726    2.1875 O   0  0  0  0  0  0  0  0  0  0  0  0
    5.9557   16.7938    2.0762 O   0  5  0  0  0  0  0  0  0  0  0  0
    5.0344   16.8089    4.4379 N   0  3  0  0  0  0  0  0  0  0  0  0
    5.7823   16.1065    4.4249 H   0  0  0  0  0  0  0  0  0  0  0  0
    4.5668   16.8878    5.3375 H   0  0  0  0  0  0  0  0  0  0  0  0
    4.3717   16.5373    3.6720 H   0  0  0  0  0  0  0  0  0  0  0  0
  1  2  1  0  0  0  0
  2  3  2  0  0  0  0
  2  4  2  0  0  0  0
  2  5  1  0  0  0  0
  5  6  1  6  0  0  0
  5  9  1  0  0  0  0
  6  7  2  0  0  0  0
  6  8  1  0  0  0  0
  9 10  1  0  0  0  0
  9 11  1  0  0  0  0
  9 12  1  0  0  0  0
M  CHG  2   8  -1   9   1
M  END
>  <CHROM.0>
-57.59967546,-63.52402899,-73.58864530,-45.20142262,-62.77398776,-62.31911795
-170.43835992,-59.85080081,-167.45272043

>  <CHROM.1>
-152.13558695,-37.60872942,-76.49372095,6.38104256,18.41029573,4.19632758
1.36377325,0.92872293,1.21443977

>  <Name>
P60589159

>  <RI>
9.71178e+06

>  <Rbt.Current_Directory>
/home/fstefaniak/projects/zuza/docking/adenine/4XNR

>  <Rbt.Executable>
rbdock ($Id: //depot/dev/client3/rdock/2013.1/src/exe/rbdock.cxx#4 $)

>  <Rbt.Library>
libRbt.so (2013.1, Build901 2013/11/27)

>  <Rbt.Parameter_File>
/home/fstefaniak/progs/rDock//data/scripts/dock_solv.prm

>  <Rbt.Receptor>
4xnr.prm

>  <SCORE>
-49.4884

>  <SCORE.INTER>
-27.4252

>  <SCORE.INTER.CONST>
1

>  <SCORE.INTER.POLAR>
-4.08042

>  <SCORE.INTER.ROT>
2

>  <SCORE.INTER.SOLV>
23.6528

>  <SCORE.INTER.VDW>
-17.4997

>  <SCORE.INTER.norm>
-3.04724

>  <SCORE.INTRA>
-1.80901

>  <SCORE.INTRA.DIHEDRAL>
-1.29821

>  <SCORE.INTRA.DIHEDRAL.0>
4.09112

>  <SCORE.INTRA.POLAR>
0

>  <SCORE.INTRA.POLAR.0>
0

>  <SCORE.INTRA.REPUL>
0

>  <SCORE.INTRA.REPUL.0>
0

>  <SCORE.INTRA.SOLV>
0.108858

>  <SCORE.INTRA.SOLV.lig_0>
-50.6397

>  <SCORE.INTRA.VDW>
-1.21433

>  <SCORE.INTRA.VDW.0>
0.539372

>  <SCORE.INTRA.norm>
-0.201001

>  <SCORE.RESTR>
0

>  <SCORE.RESTR.CAVITY>
0

>  <SCORE.RESTR.norm>
0

>  <SCORE.SYSTEM>
-20.2542

>  <SCORE.SYSTEM.CONST>
0

>  <SCORE.SYSTEM.DIHEDRAL>
5.19139

>  <SCORE.SYSTEM.POLAR>
-2.99859

>  <SCORE.SYSTEM.SOLV>
0.225865

>  <SCORE.SYSTEM.VDW>
-5.3133

>  <SCORE.SYSTEM.norm>
-2.25047

>  <SCORE.heavy>
9

>  <SCORE.norm>
-5.49871

$$$$
P60619143
 OpenBabel12072022113D
libRbt.so/2013.1/901 2013/11/27
 13 12  0  0  0  0  0  0  0  0999 V2000
    3.1389   12.3231    3.1206 C   0  0  0  0  0  0  0  0  0  0  0  0
    3.5583   13.6954    3.2134 N   0  0  0  0  0  0  0  0  0  0  0  0
    3.2917   14.4629    4.3051 C   0  0  0  0  0  0  0  0  0  0  0  0
    2.6097   14.0942    5.2569 O   0  0  0  0  0  0  0  0  0  0  0  0
    3.8204   15.7286    4.2987 N   0  0  0  0  0  0  0  0  0  0  0  0
    4.6191   16.3312    3.3413 C   0  0  0  0  0  0  0  0  0  0  0  0
    5.0772   15.7521    2.3600 O   0  0  0  0  0  0  0  0  0  0  0  0
    4.9191   17.7826    3.6677 C   0  0  0  0  0  0  0  0  0  0  0  0
    6.3947   17.9979    4.0069 C   0  0  0  0  0  0  0  0  0  0  0  0
    6.6386   19.2010    4.9096 C   0  0  0  0  0  0  0  0  0  0  0  0
    6.0485   18.9234    6.5640 Cl  0  0  0  0  0  0  0  0  0  0  0  0
    4.2696   14.0426    2.5729 H   0  0  0  0  0  0  0  0  0  0  0  0
    3.5438   16.2604    5.1109 H   0  0  0  0  0  0  0  0  0  0  0  0
  1  2  1  0  0  0  0
  2  3  1  0  0  0  0
  2 12  1  0  0  0  0
  3  4  2  0  0  0  0
  3  5  1  0  0  0  0
  5  6  1  0  0  0  0
  5 13  1  0  0  0  0
  6  7  2  0  0  0  0
  6  8  1  0  0  0  0
  8  9  1  0  0  0  0
  9 10  1  0  0  0  0
 10 11  1  0  0  0  0
M  END
>  <CHROM.0>
-59.82461553,-63.06438865,-64.11737470,-48.17291467,-60.43574625,-63.24610192
-69.89190871,-61.49123300,-168.47321759

>  <CHROM.1>
112.06256992,-154.11107268,70.46050903,4.71772422,16.33341245,4.38262022
2.44597330,-0.92899181,-2.00760307

>  <Name>
P60619143

>  <RI>
3.4169e+07

>  <Rbt.Current_Directory>
/home/fstefaniak/projects/zuza/docking/adenine/4XNR

>  <Rbt.Executable>
rbdock ($Id: //depot/dev/client3/rdock/2013.1/src/exe/rbdock.cxx#4 $)

>  <Rbt.Library>
libRbt.so (2013.1, Build901 2013/11/27)

>  <Rbt.Parameter_File>
/home/fstefaniak/progs/rDock//data/scripts/dock_solv.prm

>  <Rbt.Receptor>
4xnr.prm

>  <SCORE>
-44.2309

>  <SCORE.INTER>
-24.5277

>  <SCORE.INTER.CONST>
1

>  <SCORE.INTER.POLAR>
-2.3946

>  <SCORE.INTER.ROT>
3

>  <SCORE.INTER.SOLV>
11.6695

>  <SCORE.INTER.VDW>
-17.8597

>  <SCORE.INTER.norm>
-2.22979

>  <SCORE.INTRA>
1.19894

>  <SCORE.INTRA.DIHEDRAL>
3.87994

>  <SCORE.INTRA.DIHEDRAL.0>
1.32037

>  <SCORE.INTRA.POLAR>
0

>  <SCORE.INTRA.POLAR.0>
0

>  <SCORE.INTRA.REPUL>
0

>  <SCORE.INTRA.REPUL.0>
0

>  <SCORE.INTRA.SOLV>
0.0840342

>  <SCORE.INTRA.SOLV.lig_0>
-18.6908

>  <SCORE.INTRA.VDW>
-0.783043

>  <SCORE.INTRA.VDW.0>
0.151225

>  <SCORE.INTRA.norm>
0.108995

>  <SCORE.RESTR>
0

>  <SCORE.RESTR.CAVITY>
0

>  <SCORE.RESTR.norm>
0

>  <SCORE.SYSTEM>
-20.9021

>  <SCORE.SYSTEM.CONST>
0

>  <SCORE.SYSTEM.DIHEDRAL>
3.99362

>  <SCORE.SYSTEM.POLAR>
-2.95194

>  <SCORE.SYSTEM.SOLV>
0.269915

>  <SCORE.SYSTEM.VDW>
-5.51612

>  <SCORE.SYSTEM.norm>
-1.90019

>  <SCORE.heavy>
11

>  <SCORE.norm>
-4.02099

$$$$
P60619143
 OpenBabel12072022113D
libRbt.so/2013.1/901 2013/11/27
 13 12  0  0  0  0  0  0  0  0999 V2000
    3.1232   12.3390    3.0845 C   0  0  0  0  0  0  0  0  0  0  0  0
    3.5463   13.7094    3.1879 N   0  0  0  0  0  0  0  0  0  0  0  0
    3.2738   14.4720    4.2816 C   0  0  0  0  0  0  0  0  0  0  0  0
    2.5832   14.1004    5.2261 O   0  0  0  0  0  0  0  0  0  0  0  0
    3.8066   15.7359    4.2861 N   0  0  0  0  0  0  0  0  0  0  0  0
    4.6148   16.3410    3.3381 C   0  0  0  0  0  0  0  0  0  0  0  0
    5.0785   15.7656    2.3573 O   0  0  0  0  0  0  0  0  0  0  0  0
    4.9169   17.7896    3.6746 C   0  0  0  0  0  0  0  0  0  0  0  0
    6.3979   18.0053    3.9893 C   0  0  0  0  0  0  0  0  0  0  0  0
    6.6572   19.2141    4.8798 C   0  0  0  0  0  0  0  0  0  0  0  0
    5.9801   18.9985    6.5100 Cl  0  0  0  0  0  0  0  0  0  0  0  0
    4.2637   14.0576    2.5548 H   0  0  0  0  0  0  0  0  0  0  0  0
    3.5255   16.2643    5.0990 H   0  0  0  0  0  0  0  0  0  0  0  0
  1  2  1  0  0  0  0
  2  3  1  0  0  0  0
  2 12  1  0  0  0  0
  3  4  2  0  0  0  0
  3  5  1  0  0  0  0
  5  6  1  0  0  0  0
  5 13  1  0  0  0  0
  6  7  2  0  0  0  0
  6  8  1  0  0  0  0
  8  9  1  0  0  0  0
  9 10  1  0  0  0  0
 10 11  1  0  0  0  0
M  END
>  <CHROM.0>
-59.03586811,-63.08223082,-65.21889500,-44.17381096,-62.92988370,-60.77260357
-66.75105782,-60.14657433,-167.08263495

>  <CHROM.1>
113.61556831,-155.14825854,66.00840661,4.69846336,16.35663749,4.35773408
-2.41403999,0.91485937,1.09091171

>  <Name>
P60619143

>  <RI>
3.4169e+07

>  <Rbt.Current_Directory>
/home/fstefaniak/projects/zuza/docking/adenine/4XNR

>  <Rbt.Executable>
rbdock ($Id: //depot/dev/client3/rdock/2013.1/src/exe/rbdock.cxx#4 $)

>  <Rbt.Library>
libRbt.so (2013.1, Build901 2013/11/27)

>  <Rbt.Parameter_File>
/home/fstefaniak/progs/rDock//data/scripts/dock_solv.prm

>  <Rbt.Receptor>
4xnr.prm

>  <SCORE>
-44.0846

>  <SCORE.INTER>
-24.3708

>  <SCORE.INTER.CONST>
1

>  <SCORE.INTER.POLAR>
-2.38863

>  <SCORE.INTER.ROT>
3

>  <SCORE.INTER.SOLV>
11.6665

>  <SCORE.INTER.VDW>
-17.7739

>  <SCORE.INTER.norm>
-2.21553

>  <SCORE.INTRA>
1.06986

>  <SCORE.INTRA.DIHEDRAL>
3.49319

>  <SCORE.INTRA.DIHEDRAL.0>
1.32037

>  <SCORE.INTRA.POLAR>
0

>  <SCORE.INTRA.POLAR.0>
0

>  <SCORE.INTRA.REPUL>
0

>  <SCORE.INTRA.REPUL.0>
0

>  <SCORE.INTRA.SOLV>
0.0793275

>  <SCORE.INTRA.SOLV.lig_0>
-18.6908

>  <SCORE.INTRA.VDW>
-0.716393

>  <SCORE.INTRA.VDW.0>
0.151225

>  <SCORE.INTRA.norm>
0.0972604

>  <SCORE.RESTR>
0.000827123

>  <SCORE.RESTR.CAVITY>
0.000827123

>  <SCORE.RESTR.norm>
7.5193e-05

>  <SCORE.SYSTEM>
-20.7845

>  <SCORE.SYSTEM.CONST>
0

>  <SCORE.SYSTEM.DIHEDRAL>
4.42491

>  <SCORE.SYSTEM.POLAR>
-3.02499

>  <SCORE.SYSTEM.SOLV>
0.288299

>  <SCORE.SYSTEM.VDW>
-5.34413

>  <SCORE.SYSTEM.norm>
-1.8895

>  <SCORE.heavy>
11

>  <SCORE.norm>
-4.00769

$$$$
P60619143
 OpenBabel12072022113D
libRbt.so/2013.1/901 2013/11/27
 13 12  0  0  0  0  0  0  0  0999 V2000
    3.1066   12.3390    3.1283 C   0  0  0  0  0  0  0  0  0  0  0  0
    3.5356   13.7086    3.2162 N   0  0  0  0  0  0  0  0  0  0  0  0
    3.2813   14.4796    4.3083 C   0  0  0  0  0  0  0  0  0  0  0  0
    2.6031   14.1169    5.2651 O   0  0  0  0  0  0  0  0  0  0  0  0
    3.8182   15.7418    4.2964 N   0  0  0  0  0  0  0  0  0  0  0  0
    4.6146   16.3376    3.3328 C   0  0  0  0  0  0  0  0  0  0  0  0
    5.0624   15.7539    2.3495 O   0  0  0  0  0  0  0  0  0  0  0  0
    4.9263   17.7875    3.6549 C   0  0  0  0  0  0  0  0  0  0  0  0
    6.3947   17.9848    4.0341 C   0  0  0  0  0  0  0  0  0  0  0  0
    6.6216   19.1510    4.9880 C   0  0  0  0  0  0  0  0  0  0  0  0
    5.9602   18.8267    6.6065 Cl  0  0  0  0  0  0  0  0  0  0  0  0
    4.2450   14.0501    2.5704 H   0  0  0  0  0  0  0  0  0  0  0  0
    3.5504   16.2767    5.1096 H   0  0  0  0  0  0  0  0  0  0  0  0
  1  2  1  0  0  0  0
  2  3  1  0  0  0  0
  2 12  1  0  0  0  0
  3  4  2  0  0  0  0
  3  5  1  0  0  0  0
  5  6  1  0  0  0  0
  5 13  1  0  0  0  0
  6  7  2  0  0  0  0
  6  8  1  0  0  0  0
  8  9  1  0  0  0  0
  9 10  1  0  0  0  0
 10 11  1  0  0  0  0
M  END
>  <CHROM.0>
-63.87575763,-63.12519465,-64.88809050,-44.73340922,-65.19339093,-62.82756688
-67.91450342,59.26055202,-167.61561697

>  <CHROM.1>
109.96695804,-151.26075099,69.08740296,4.69172832,16.31692858,4.39845362
2.44182075,-0.92744175,-2.00063491

>  <Name>
P60619143

>  <RI>
3.4169e+07

>  <Rbt.Current_Directory>
/home/fstefaniak/projects/zuza/docking/adenine/4XNR

>  <Rbt.Executable>
rbdock ($Id: //depot/dev/client3/rdock/2013.1/src/exe/rbdock.cxx#4 $)

>  <Rbt.Library>
libRbt.so (2013.1, Build901 2013/11/27)

>  <Rbt.Parameter_File>
/home/fstefaniak/progs/rDock//data/scripts/dock_solv.prm

>  <Rbt.Receptor>
4xnr.prm

>  <SCORE>
-43.1079

>  <SCORE.INTER>
-24.5577

>  <SCORE.INTER.CONST>
1

>  <SCORE.INTER.POLAR>
-2.38434

>  <SCORE.INTER.ROT>
3

>  <SCORE.INTER.SOLV>
11.6311

>  <SCORE.INTER.VDW>
-17.901

>  <SCORE.INTER.norm>
-2.23252

>  <SCORE.INTRA>
1.32955

>  <SCORE.INTRA.DIHEDRAL>
4.14019

>  <SCORE.INTRA.DIHEDRAL.0>
1.32037

>  <SCORE.INTRA.POLAR>
0

>  <SCORE.INTRA.POLAR.0>
0

>  <SCORE.INTRA.REPUL>
0

>  <SCORE.INTRA.REPUL.0>
0

>  <SCORE.INTRA.SOLV>
0.122365

>  <SCORE.INTRA.SOLV.lig_0>
-18.6908

>  <SCORE.INTRA.VDW>
-0.801722

>  <SCORE.INTRA.VDW.0>
0.151225

>  <SCORE.INTRA.norm>
0.120869

>  <SCORE.RESTR>
0

>  <SCORE.RESTR.CAVITY>
0

>  <SCORE.RESTR.norm>
0

>  <SCORE.SYSTEM>
-19.8798

>  <SCORE.SYSTEM.CONST>
0

>  <SCORE.SYSTEM.DIHEDRAL>
4.53891

>  <SCORE.SYSTEM.POLAR>
-2.99159

>  <SCORE.SYSTEM.SOLV>
0.0949347

>  <SCORE.SYSTEM.VDW>
-4.82584

>  <SCORE.SYSTEM.norm>
-1.80725

>  <SCORE.heavy>
11

>  <SCORE.norm>
-3.9189

$$$$
P61273721
 OpenBabel12072022113D
libRbt.so/2013.1/901 2013/11/27
 13 12  0  0  0  0  0  0  0  0999 V2000
    3.3911   14.8807    4.1610 C   0  0  0  0  0  0  0  0  0  0  0  0
    4.8370   15.2085    3.7966 C   0  0  0  0  0  0  0  0  0  0  0  0
    5.1455   16.7143    3.5733 C   0  0  2  0  0  0  0  0  0  0  0  0
    5.1880   17.4959    4.8985 C   0  0  0  0  0  0  0  0  0  0  0  0
    4.0733   17.3066    2.7209 C   0  0  0  0  0  0  0  0  0  0  0  0
    3.2649   17.7861    2.0382 N   0  0  0  0  0  0  0  0  0  0  0  0
    6.4232   16.8730    2.8450 N   0  0  0  0  0  0  0  0  0  0  0  0
    6.7562   17.9787    2.1286 C   0  0  0  0  0  0  0  0  0  0  0  0
    7.4833   18.8858    2.4966 O   0  0  0  0  0  0  0  0  0  0  0  0
    6.1721   17.9876    0.9044 N   0  0  0  0  0  0  0  0  0  0  0  0
    6.8668   16.0242    2.5197 H   0  0  0  0  0  0  0  0  0  0  0  0
    6.7777   17.8534    0.1071 H   0  0  0  0  0  0  0  0  0  0  0  0
    5.4985   18.7364    0.7926 H   0  0  0  0  0  0  0  0  0  0  0  0
  1  2  1  0  0  0  0
  3  5  1  0  0  0  0
  3  7  1  0  0  0  0
  3  4  1  1  0  0  0
  3  2  1  0  0  0  0
  5  6  3  0  0  0  0
  7  8  1  0  0  0  0
  7 11  1  0  0  0  0
  8  9  2  0  0  0  0
  8 10  1  0  0  0  0
 10 12  1  0  0  0  0
 10 13  1  0  0  0  0
M  END
>  <CHROM.0>
-59.02704943,-64.00727270,60.34439549,-48.36129363,-59.40986752,-62.72273819
54.46057052,-60.27185134,-168.28773392

>  <CHROM.1>
157.67971529,73.94964164,99.94919414,-110.15281251,5.31179764,17.12278543
2.94024999,-2.33533765,-0.33389615,-0.95739782

>  <Name>
P61273721

>  <RI>
3.51561e+07

>  <Rbt.Current_Directory>
/home/fstefaniak/projects/zuza/docking/adenine/4XNR

>  <Rbt.Executable>
rbdock ($Id: //depot/dev/client3/rdock/2013.1/src/exe/rbdock.cxx#4 $)

>  <Rbt.Library>
libRbt.so (2013.1, Build901 2013/11/27)

>  <Rbt.Parameter_File>
/home/fstefaniak/progs/rDock//data/scripts/dock_solv.prm

>  <Rbt.Receptor>
4xnr.prm

>  <SCORE>
-46.2979

>  <SCORE.INTER>
-28.0919

>  <SCORE.INTER.CONST>
1

>  <SCORE.INTER.POLAR>
-4.20613

>  <SCORE.INTER.ROT>
4

>  <SCORE.INTER.SOLV>
12.5602

>  <SCORE.INTER.VDW>
-15.1609

>  <SCORE.INTER.norm>
-2.80919

>  <SCORE.INTRA>
0.755951

>  <SCORE.INTRA.DIHEDRAL>
1.58763

>  <SCORE.INTRA.DIHEDRAL.0>
1.67245

>  <SCORE.INTRA.POLAR>
0

>  <SCORE.INTRA.POLAR.0>
0

>  <SCORE.INTRA.REPUL>
0

>  <SCORE.INTRA.REPUL.0>
0

>  <SCORE.INTRA.SOLV>
0.744147

>  <SCORE.INTRA.SOLV.lig_0>
-14.2068

>  <SCORE.INTRA.VDW>
-0.40994

>  <SCORE.INTRA.VDW.0>
1.31633

>  <SCORE.INTRA.norm>
0.0755951

>  <SCORE.RESTR>
0

>  <SCORE.RESTR.CAVITY>
0

>  <SCORE.RESTR.norm>
0

>  <SCORE.SYSTEM>
-18.962

>  <SCORE.SYSTEM.CONST>
0

>  <SCORE.SYSTEM.DIHEDRAL>
3.62996

>  <SCORE.SYSTEM.POLAR>
-2.94524

>  <SCORE.SYSTEM.SOLV>
0.182233

>  <SCORE.SYSTEM.VDW>
-4.09462

>  <SCORE.SYSTEM.norm>
-1.8962

>  <SCORE.heavy>
10

>  <SCORE.norm>
-4.62979

$$$$
P61273721
 OpenBabel12072022113D
libRbt.so/2013.1/901 2013/11/27
 13 12  0  0  0  0  0  0  0  0999 V2000
    4.0810   14.8681    3.8528 C   0  0  0  0  0  0  0  0  0  0  0  0
    5.3482   15.6421    3.4979 C   0  0  0  0  0  0  0  0  0  0  0  0
    5.2047   17.1885    3.4813 C   0  0  2  0  0  0  0  0  0  0  0  0
    4.1914   17.6613    2.4237 C   0  0  0  0  0  0  0  0  0  0  0  0
    6.5295   17.7938    3.1560 C   0  0  0  0  0  0  0  0  0  0  0  0
    7.5548   18.2906    2.9293 N   0  0  0  0  0  0  0  0  0  0  0  0
    4.8138   17.6812    4.8202 N   0  0  0  0  0  0  0  0  0  0  0  0
    5.5976   18.4762    5.5949 C   0  0  0  0  0  0  0  0  0  0  0  0
    6.1180   19.5263    5.2579 O   0  0  0  0  0  0  0  0  0  0  0  0
    5.7636   17.9683    6.8416 N   0  0  0  0  0  0  0  0  0  0  0  0
    4.1698   17.1037    5.3443 H   0  0  0  0  0  0  0  0  0  0  0  0
    6.6531   17.5348    7.0449 H   0  0  0  0  0  0  0  0  0  0  0  0
    4.9611   17.4400    7.1640 H   0  0  0  0  0  0  0  0  0  0  0  0
  1  2  1  0  0  0  0
  3  5  1  0  0  0  0
  3  7  1  0  0  0  0
  3  4  1  6  0  0  0
  3  2  1  0  0  0  0
  5  6  3  0  0  0  0
  7  8  1  0  0  0  0
  7 11  1  0  0  0  0
  8  9  2  0  0  0  0
  8 10  1  0  0  0  0
 10 12  1  0  0  0  0
 10 13  1  0  0  0  0
M  END
>  <CHROM.0>
-56.12909918,53.66160966,-64.52311436,-46.96463838,-57.26273022,-56.92081378
-65.86884965,-54.19890901,-167.68675495

>  <CHROM.1>
115.06903539,-62.07131584,52.48683806,104.09814769,5.49206686,17.50335344
4.23989636,2.23562274,-0.91297924,-1.89730085

>  <Name>
P61273721

>  <RI>
3.51561e+07

>  <Rbt.Current_Directory>
/home/fstefaniak/projects/zuza/docking/adenine/4XNR

>  <Rbt.Executable>
rbdock ($Id: //depot/dev/client3/rdock/2013.1/src/exe/rbdock.cxx#4 $)

>  <Rbt.Library>
libRbt.so (2013.1, Build901 2013/11/27)

>  <Rbt.Parameter_File>
/home/fstefaniak/progs/rDock//data/scripts/dock_solv.prm

>  <Rbt.Receptor>
4xnr.prm

>  <SCORE>
-45.2855

>  <SCORE.INTER>
-26.0223

>  <SCORE.INTER.CONST>
1

>  <SCORE.INTER.POLAR>
-4.19863

>  <SCORE.INTER.ROT>
4

>  <SCORE.INTER.SOLV>
13.4596

>  <SCORE.INTER.VDW>
-14.106

>  <SCORE.INTER.norm>
-2.60223

>  <SCORE.INTRA>
0.575482

>  <SCORE.INTRA.DIHEDRAL>
0.93383

>  <SCORE.INTRA.DIHEDRAL.0>
1.67245

>  <SCORE.INTRA.POLAR>
0

>  <SCORE.INTRA.POLAR.0>
0

>  <SCORE.INTRA.REPUL>
0

>  <SCORE.INTRA.REPUL.0>
0

>  <SCORE.INTRA.SOLV>
0.616783

>  <SCORE.INTRA.SOLV.lig_0>
-14.2068

>  <SCORE.INTRA.VDW>
-0.199824

>  <SCORE.INTRA.VDW.0>
1.31633

>  <SCORE.INTRA.norm>
0.0575482

>  <SCORE.RESTR>
0

>  <SCORE.RESTR.CAVITY>
0

>  <SCORE.RESTR.norm>
0

>  <SCORE.SYSTEM>
-19.8386

>  <SCORE.SYSTEM.CONST>
0

>  <SCORE.SYSTEM.DIHEDRAL>
4.32588

>  <SCORE.SYSTEM.POLAR>
-3.05031

>  <SCORE.SYSTEM.SOLV>
0.414493

>  <SCORE.SYSTEM.VDW>
-4.63817

>  <SCORE.SYSTEM.norm>
-1.98386

>  <SCORE.heavy>
10

>  <SCORE.norm>
-4.52855

$$$$
P61273721
 OpenBabel12072022113D
libRbt.so/2013.1/901 2013/11/27
 13 12  0  0  0  0  0  0  0  0999 V2000
    0.8393   12.3828    3.4973 C   0  0  0  0  0  0  0  0  0  0  0  0
    2.1578   13.0450    3.1048 C   0  0  0  0  0  0  0  0  0  0  0  0
    2.8241   13.9134    4.2067 C   0  0  2  0  0  0  0  0  0  0  0  0
    4.0388   14.6917    3.6703 C   0  0  0  0  0  0  0  0  0  0  0  0
    3.2949   13.0215    5.3067 C   0  0  0  0  0  0  0  0  0  0  0  0
    3.6484   12.3520    6.1878 N   0  0  0  0  0  0  0  0  0  0  0  0
    1.8362   14.8467    4.7908 N   0  0  0  0  0  0  0  0  0  0  0  0
    1.0564   15.6834    4.0569 C   0  0  0  0  0  0  0  0  0  0  0  0
    0.8528   15.6140    2.8566 O   0  0  0  0  0  0  0  0  0  0  0  0
    0.4991   16.6585    4.8175 N   0  0  0  0  0  0  0  0  0  0  0  0
    2.0258   15.1782    5.7273 H   0  0  0  0  0  0  0  0  0  0  0  0
    0.8785   17.5894    4.7188 H   0  0  0  0  0  0  0  0  0  0  0  0
    0.3455   16.3725    5.7775 H   0  0  0  0  0  0  0  0  0  0  0  0
  1  2  1  0  0  0  0
  3  5  1  0  0  0  0
  3  7  1  0  0  0  0
  3  4  1  6  0  0  0
  3  2  1  0  0  0  0
  5  6  3  0  0  0  0
  7  8  1  0  0  0  0
  7 11  1  0  0  0  0
  8  9  2  0  0  0  0
  8 10  1  0  0  0  0
 10 12  1  0  0  0  0
 10 13  1  0  0  0  0
M  END
>  <CHROM.0>
-58.24963382,-72.78776884,63.48274870,-47.17020875,-59.77741243,-175.11443963
54.42825487,-60.64645810,-166.73833876

>  <CHROM.1>
-52.05562670,-172.25970827,15.55853693,106.48079096,2.05793031,14.27733658
4.23320556,0.68183990,0.71693922,-2.76697045

>  <Name>
P61273721

>  <RI>
3.51561e+07

>  <Rbt.Current_Directory>
/home/fstefaniak/projects/zuza/docking/adenine/4XNR

>  <Rbt.Executable>
rbdock ($Id: //depot/dev/client3/rdock/2013.1/src/exe/rbdock.cxx#4 $)

>  <Rbt.Library>
libRbt.so (2013.1, Build901 2013/11/27)

>  <Rbt.Parameter_File>
/home/fstefaniak/progs/rDock//data/scripts/dock_solv.prm

>  <Rbt.Receptor>
4xnr.prm

>  <SCORE>
-44.309

>  <SCORE.INTER>
-25.0354

>  <SCORE.INTER.CONST>
1

>  <SCORE.INTER.POLAR>
-3.46803

>  <SCORE.INTER.ROT>
4

>  <SCORE.INTER.SOLV>
11.3682

>  <SCORE.INTER.VDW>
-15.1862

>  <SCORE.INTER.norm>
-2.50354

>  <SCORE.INTRA>
-0.893355

>  <SCORE.INTRA.DIHEDRAL>
0.0337712

>  <SCORE.INTRA.DIHEDRAL.0>
1.67245

>  <SCORE.INTRA.POLAR>
0

>  <SCORE.INTRA.POLAR.0>
0

>  <SCORE.INTRA.REPUL>
0

>  <SCORE.INTRA.REPUL.0>
0

>  <SCORE.INTRA.SOLV>
0.462455

>  <SCORE.INTRA.SOLV.lig_0>
-14.2068

>  <SCORE.INTRA.VDW>
-1.14147

>  <SCORE.INTRA.VDW.0>
1.31633

>  <SCORE.INTRA.norm>
-0.0893355

>  <SCORE.RESTR>
0.0194933

>  <SCORE.RESTR.CAVITY>
0.0194933

>  <SCORE.RESTR.norm>
0.00194933

>  <SCORE.SYSTEM>
-18.3998

>  <SCORE.SYSTEM.CONST>
0

>  <SCORE.SYSTEM.DIHEDRAL>
4.74668

>  <SCORE.SYSTEM.POLAR>
-2.97198

>  <SCORE.SYSTEM.SOLV>
0.0669924

>  <SCORE.SYSTEM.VDW>
-3.96449

>  <SCORE.SYSTEM.norm>
-1.83998

>  <SCORE.heavy>
10

>  <SCORE.norm>
-4.4309

$$$$
P61281466
 OpenBabel12072022113D
libRbt.so/2013.1/901 2013/11/27
 16 16  0  0  0  0  0  0  0  0999 V2000
    3.1365   10.7931    4.3637 C   0  0  0  0  0  0  0  0  0  0  0  0
    2.2769   11.7671    5.0353 N   0  0  0  0  0  0  0  0  0  0  0  0
    3.0294   12.6899    5.8909 C   0  0  0  0  0  0  0  0  0  0  0  0
    3.8239   13.7331    5.1107 C   0  0  0  0  0  0  0  0  0  0  0  0
    2.9302   14.5361    4.1386 C   0  0  0  0  0  0  0  0  0  0  0  0
    2.1274   13.5395    3.2681 C   0  0  0  0  0  0  0  0  0  0  0  0
    1.4035   12.4883    4.1090 C   0  0  0  0  0  0  0  0  0  0  0  0
    3.8325   15.3182    3.1981 C   0  0  0  0  0  0  0  0  0  0  0  0
    4.5811   15.9670    2.4178 N   0  0  0  0  0  0  0  0  0  0  0  0
    1.9820   15.4407    4.8199 N   0  0  0  0  0  0  0  0  0  0  0  0
    1.2289   16.3552    4.1471 C   0  0  0  0  0  0  0  0  0  0  0  0
    1.4899   16.8530    3.0662 O   0  0  0  0  0  0  0  0  0  0  0  0
    0.1021   16.6803    4.8285 N   0  0  0  0  0  0  0  0  0  0  0  0
    1.4735   15.0416    5.5968 H   0  0  0  0  0  0  0  0  0  0  0  0
   -0.7751   16.4004    4.4133 H   0  0  0  0  0  0  0  0  0  0  0  0
    0.1715   16.4780    5.8196 H   0  0  0  0  0  0  0  0  0  0  0  0
  1  2  1  0  0  0  0
  2  3  1  0  0  0  0
  2  7  1  0  0  0  0
  3  4  1  0  0  0  0
  4  5  1  0  0  0  0
  5  6  1  0  0  0  0
  5  8  1  0  0  0  0
  5 10  1  0  0  0  0
  6  7  1  0  0  0  0
  8  9  3  0  0  0  0
 10 11  1  0  0  0  0
 10 14  1  0  0  0  0
 11 12  2  0  0  0  0
 11 13  1  0  0  0  0
 13 15  1  0  0  0  0
 13 16  1  0  0  0  0
M  END
>  <CHROM.0>
-54.96727185,-65.38955795,-67.00190380,179.24328515,-57.04881918,-174.42982096
-70.22384402,-63.14360738,-168.16700982

>  <CHROM.1>
171.45350176,-24.65797876,-113.45236953,2.40780413,14.31922290,4.20294597
-1.31410387,0.44038633,-0.32658075

>  <Name>
P61281466

>  <RI>
9.71178e+06

>  <Rbt.Current_Directory>
/home/fstefaniak/projects/zuza/docking/adenine/4XNR

>  <Rbt.Executable>
rbdock ($Id: //depot/dev/client3/rdock/2013.1/src/exe/rbdock.cxx#4 $)

>  <Rbt.Library>
libRbt.so (2013.1, Build901 2013/11/27)

>  <Rbt.Parameter_File>
/home/fstefaniak/progs/rDock//data/scripts/dock_solv.prm

>  <Rbt.Receptor>
4xnr.prm

>  <SCORE>
-40.9968

>  <SCORE.INTER>
-23.6493

>  <SCORE.INTER.CONST>
1

>  <SCORE.INTER.POLAR>
-3.5201

>  <SCORE.INTER.ROT>
3

>  <SCORE.INTER.SOLV>
13.5295

>  <SCORE.INTER.VDW>
-14.1424

>  <SCORE.INTER.norm>
-1.81918

>  <SCORE.INTRA>
0.294058

>  <SCORE.INTRA.DIHEDRAL>
-0.0681383

>  <SCORE.INTRA.DIHEDRAL.0>
1.23845

>  <SCORE.INTRA.POLAR>
0

>  <SCORE.INTRA.POLAR.0>
0

>  <SCORE.INTRA.REPUL>
0

>  <SCORE.INTRA.REPUL.0>
0

>  <SCORE.INTRA.SOLV>
0.300566

>  <SCORE.INTRA.SOLV.lig_0>
-18.131

>  <SCORE.INTRA.VDW>
0.177844

>  <SCORE.INTRA.VDW.0>
-0.898433

>  <SCORE.INTRA.norm>
0.0226198

>  <SCORE.RESTR>
0.548355

>  <SCORE.RESTR.CAVITY>
0.548355

>  <SCORE.RESTR.norm>
0.0421812

>  <SCORE.SYSTEM>
-18.1899

>  <SCORE.SYSTEM.CONST>
0

>  <SCORE.SYSTEM.DIHEDRAL>
3.92354

>  <SCORE.SYSTEM.POLAR>
-2.44946

>  <SCORE.SYSTEM.SOLV>
-0.0198055

>  <SCORE.SYSTEM.VDW>
-5.26299

>  <SCORE.SYSTEM.norm>
-1.39922

>  <SCORE.heavy>
13

>  <SCORE.norm>
-3.1536

$$$$
P61281466
 OpenBabel12072022113D
libRbt.so/2013.1/901 2013/11/27
 16 16  0  0  0  0  0  0  0  0999 V2000
    7.8518   18.5796    4.7860 C   0  0  0  0  0  0  0  0  0  0  0  0
    6.7581   18.9227    3.8778 N   0  0  0  0  0  0  0  0  0  0  0  0
    6.6949   18.0385    2.7098 C   0  0  0  0  0  0  0  0  0  0  0  0
    6.1661   16.6436    3.0298 C   0  0  0  0  0  0  0  0  0  0  0  0
    4.7852   16.6907    3.7224 C   0  0  0  0  0  0  0  0  0  0  0  0
    4.8723   17.6510    4.9330 C   0  0  0  0  0  0  0  0  0  0  0  0
    5.4635   19.0087    4.5543 C   0  0  0  0  0  0  0  0  0  0  0  0
    4.4824   15.3076    4.2754 C   0  0  0  0  0  0  0  0  0  0  0  0
    4.2312   14.1602    4.7341 N   0  0  0  0  0  0  0  0  0  0  0  0
    3.6955   17.1447    2.8347 N   0  0  0  0  0  0  0  0  0  0  0  0
    2.3933   17.1835    3.2332 C   0  0  0  0  0  0  0  0  0  0  0  0
    1.9106   16.5987    4.1868 O   0  0  0  0  0  0  0  0  0  0  0  0
    1.6420   17.9735    2.4263 N   0  0  0  0  0  0  0  0  0  0  0  0
    3.9189   17.9176    2.2230 H   0  0  0  0  0  0  0  0  0  0  0  0
    0.7457   17.6063    2.1396 H   0  0  0  0  0  0  0  0  0  0  0  0
    1.6107   18.9371    2.7404 H   0  0  0  0  0  0  0  0  0  0  0  0
  1  2  1  0  0  0  0
  2  3  1  0  0  0  0
  2  7  1  0  0  0  0
  3  4  1  0  0  0  0
  4  5  1  0  0  0  0
  5  6  1  0  0  0  0
  5  8  1  0  0  0  0
  5 10  1  0  0  0  0
  6  7  1  0  0  0  0
  8  9  3  0  0  0  0
 10 11  1  0  0  0  0
 10 14  1  0  0  0  0
 11 12  2  0  0  0  0
 11 13  1  0  0  0  0
 13 15  1  0  0  0  0
 13 16  1  0  0  0  0
M  END
>  <CHROM.0>
-50.25398446,68.65217299,-61.08494935,-46.40957364,-175.78988202,-59.72976753
-65.64263332,-57.40996890,-167.97863846

>  <CHROM.1>
176.23483291,-17.87740572,135.12431689,4.65943993,17.26708599,3.78045695
-0.30673575,0.22778507,2.84527259

>  <Name>
P61281466

>  <RI>
9.71178e+06

>  <Rbt.Current_Directory>
/home/fstefaniak/projects/zuza/docking/adenine/4XNR

>  <Rbt.Executable>
rbdock ($Id: //depot/dev/client3/rdock/2013.1/src/exe/rbdock.cxx#4 $)

>  <Rbt.Library>
libRbt.so (2013.1, Build901 2013/11/27)

>  <Rbt.Parameter_File>
/home/fstefaniak/progs/rDock//data/scripts/dock_solv.prm

>  <Rbt.Receptor>
4xnr.prm

>  <SCORE>
-39.5438

>  <SCORE.INTER>
-20.1992

>  <SCORE.INTER.CONST>
1

>  <SCORE.INTER.POLAR>
-4.03145

>  <SCORE.INTER.ROT>
3

>  <SCORE.INTER.SOLV>
14.5069

>  <SCORE.INTER.VDW>
-10.4636

>  <SCORE.INTER.norm>
-1.55379

>  <SCORE.INTRA>
0.10107

>  <SCORE.INTRA.DIHEDRAL>
-0.00711215

>  <SCORE.INTRA.DIHEDRAL.0>
1.23845

>  <SCORE.INTRA.POLAR>
0

>  <SCORE.INTRA.POLAR.0>
0

>  <SCORE.INTRA.REPUL>
0

>  <SCORE.INTRA.REPUL.0>
0

>  <SCORE.INTRA.SOLV>
0.226913

>  <SCORE.INTRA.SOLV.lig_0>
-18.131

>  <SCORE.INTRA.VDW>
-0.00883009

>  <SCORE.INTRA.VDW.0>
-0.898433

>  <SCORE.INTRA.norm>
0.00777465

>  <SCORE.RESTR>
0

>  <SCORE.RESTR.CAVITY>
0

>  <SCORE.RESTR.norm>
0

>  <SCORE.SYSTEM>
-19.4456

>  <SCORE.SYSTEM.CONST>
0

>  <SCORE.SYSTEM.DIHEDRAL>
4.66468

>  <SCORE.SYSTEM.POLAR>
-3.07291

>  <SCORE.SYSTEM.SOLV>
0.183606

>  <SCORE.SYSTEM.VDW>
-4.33681

>  <SCORE.SYSTEM.norm>
-1.49582

>  <SCORE.heavy>
13

>  <SCORE.norm>
-3.04183

$$$$
P61281466
 OpenBabel12072022113D
libRbt.so/2013.1/901 2013/11/27
 16 16  0  0  0  0  0  0  0  0999 V2000
    7.8531   18.5880    4.7898 C   0  0  0  0  0  0  0  0  0  0  0  0
    6.7623   18.9539    3.8871 N   0  0  0  0  0  0  0  0  0  0  0  0
    6.6911   18.0877    2.7062 C   0  0  0  0  0  0  0  0  0  0  0  0
    6.1501   16.6928    3.0059 C   0  0  0  0  0  0  0  0  0  0  0  0
    4.7699   16.7418    3.6995 C   0  0  0  0  0  0  0  0  0  0  0  0
    4.8656   17.6834    4.9241 C   0  0  0  0  0  0  0  0  0  0  0  0
    5.4686   19.0413    4.5652 C   0  0  0  0  0  0  0  0  0  0  0  0
    4.4551   15.3535    4.2322 C   0  0  0  0  0  0  0  0  0  0  0  0
    4.1939   14.2017    4.6741 N   0  0  0  0  0  0  0  0  0  0  0  0
    3.6840   17.2184    2.8190 N   0  0  0  0  0  0  0  0  0  0  0  0
    2.3768   17.2213    3.2028 C   0  0  0  0  0  0  0  0  0  0  0  0
    1.8979   16.6156    4.1452 O   0  0  0  0  0  0  0  0  0  0  0  0
    1.6154   18.0006    2.3948 N   0  0  0  0  0  0  0  0  0  0  0  0
    3.9031   18.0202    2.2440 H   0  0  0  0  0  0  0  0  0  0  0  0
    0.7141   17.6312    2.1273 H   0  0  0  0  0  0  0  0  0  0  0  0
    1.5910   18.9690    2.6942 H   0  0  0  0  0  0  0  0  0  0  0  0
  1  2  1  0  0  0  0
  2  3  1  0  0  0  0
  2  7  1  0  0  0  0
  3  4  1  0  0  0  0
  4  5  1  0  0  0  0
  5  6  1  0  0  0  0
  5  8  1  0  0  0  0
  5 10  1  0  0  0  0
  6  7  1  0  0  0  0
  8  9  3  0  0  0  0
 10 11  1  0  0  0  0
 10 14  1  0  0  0  0
 11 12  2  0  0  0  0
 11 13  1  0  0  0  0
 13 15  1  0  0  0  0
 13 16  1  0  0  0  0
M  END
>  <CHROM.0>
-54.34370360,69.34709083,-70.78578675,-46.15493347,-54.90249160,-173.34398836
-65.26929335,-55.82958512,-166.48812163

>  <CHROM.1>
174.01140361,-15.86288471,137.72564529,4.64702826,17.30494775,3.76106454
-0.30277229,0.23392292,2.84988156

>  <Name>
P61281466

>  <RI>
9.71178e+06

>  <Rbt.Current_Directory>
/home/fstefaniak/projects/zuza/docking/adenine/4XNR

>  <Rbt.Executable>
rbdock ($Id: //depot/dev/client3/rdock/2013.1/src/exe/rbdock.cxx#4 $)

>  <Rbt.Library>
libRbt.so (2013.1, Build901 2013/11/27)

>  <Rbt.Parameter_File>
/home/fstefaniak/progs/rDock//data/scripts/dock_solv.prm

>  <Rbt.Receptor>
4xnr.prm

>  <SCORE>
-39.1896

>  <SCORE.INTER>
-20.0554

>  <SCORE.INTER.CONST>
1

>  <SCORE.INTER.POLAR>
-4.09038

>  <SCORE.INTER.ROT>
3

>  <SCORE.INTER.SOLV>
14.4518

>  <SCORE.INTER.VDW>
-10.1529

>  <SCORE.INTER.norm>
-1.54272

>  <SCORE.INTRA>
0.0859587

>  <SCORE.INTRA.DIHEDRAL>
-0.0431866

>  <SCORE.INTRA.DIHEDRAL.0>
1.23845

>  <SCORE.INTRA.POLAR>
0

>  <SCORE.INTRA.POLAR.0>
0

>  <SCORE.INTRA.REPUL>
0

>  <SCORE.INTRA.REPUL.0>
0

>  <SCORE.INTRA.SOLV>
0.225059

>  <SCORE.INTRA.SOLV.lig_0>
-18.131

>  <SCORE.INTRA.VDW>
-0.0049776

>  <SCORE.INTRA.VDW.0>
-0.898433

>  <SCORE.INTRA.norm>
0.0066122

>  <SCORE.RESTR>
0

>  <SCORE.RESTR.CAVITY>
0

>  <SCORE.RESTR.norm>
0

>  <SCORE.SYSTEM>
-19.2201

>  <SCORE.SYSTEM.CONST>
0

>  <SCORE.SYSTEM.DIHEDRAL>
5.41096

>  <SCORE.SYSTEM.POLAR>
-3.04203

>  <SCORE.SYSTEM.SOLV>
0.223791

>  <SCORE.SYSTEM.VDW>
-4.55156

>  <SCORE.SYSTEM.norm>
-1.47847

>  <SCORE.heavy>
13

>  <SCORE.norm>
-3.01458

$$$$
P61362450
 OpenBabel12072022113D
libRbt.so/2013.1/901 2013/11/27
 16 16  0  0  0  0  0  0  0  0999 V2000
    1.5878   15.6127    4.2667 C   0  0  0  0  0  0  0  0  0  0  0  0
    2.9702   15.2415    3.7576 C   0  0  1  0  0  0  0  0  0  0  0  0
    3.9154   16.4749    3.6790 C   0  0  0  0  0  0  0  0  0  0  0  0
    4.6801   16.5967    4.7259 N   0  0  0  0  0  0  0  0  0  0  0  0
    5.4958   17.6886    4.7927 C   0  0  0  0  0  0  0  0  0  0  0  0
    6.1661   18.3755    3.7930 C   0  0  0  0  0  0  0  0  0  0  0  0
    6.9010   19.4976    4.2839 C   0  0  0  0  0  0  0  0  0  0  0  0
    6.7505   19.6548    5.6427 C   0  0  0  0  0  0  0  0  0  0  0  0
    5.7255   18.4639    6.3150 S   0  0  0  0  0  0  0  0  0  0  0  0
    6.1046   17.9881    2.4145 C   0  0  0  0  0  0  0  0  0  0  0  0
    6.0402   17.7201    1.2844 N   0  0  0  0  0  0  0  0  0  0  0  0
    3.7730   17.1802    2.6488 O   0  5  0  0  0  0  0  0  0  0  0  0
    3.6222   14.3197    4.7326 N   0  3  0  0  0  0  0  0  0  0  0  0
    2.9100   13.5564    4.7802 H   0  0  0  0  0  0  0  0  0  0  0  0
    4.5352   13.9552    4.4808 H   0  0  0  0  0  0  0  0  0  0  0  0
    3.5761   14.7312    5.6670 H   0  0  0  0  0  0  0  0  0  0  0  0
  2  1  1  1  0  0  0
  2  3  1  0  0  0  0
  2 13  1  0  0  0  0
  3  4  2  0  0  0  0
  3 12  1  0  0  0  0
  4  5  1  0  0  0  0
  5  6  2  0  0  0  0
  5  9  1  0  0  0  0
  6  7  1  0  0  0  0
  6 10  1  0  0  0  0
  7  8  2  0  0  0  0
  8  9  1  0  0  0  0
 10 11  3  0  0  0  0
 13 14  1  0  0  0  0
 13 15  1  0  0  0  0
 13 16  1  0  0  0  0
M  CHG  2  12  -1  13   1
M  END
>  <CHROM.0>
-57.24899423,170.40303719,-65.77439299,-47.25922490,-179.49005643,-60.05916774
-68.10385243,-174.59123812,-167.77954410

>  <CHROM.1>
96.41725811,56.11861598,-34.79607544,4.89969828,17.31532386,4.24592599,2.90385596
-0.78917308,-1.65807914

>  <Name>
P61362450

>  <RI>
9.71178e+06

>  <Rbt.Current_Directory>
/home/fstefaniak/projects/zuza/docking/adenine/4XNR

>  <Rbt.Executable>
rbdock ($Id: //depot/dev/client3/rdock/2013.1/src/exe/rbdock.cxx#4 $)

>  <Rbt.Library>
libRbt.so (2013.1, Build901 2013/11/27)

>  <Rbt.Parameter_File>
/home/fstefaniak/progs/rDock//data/scripts/dock_solv.prm

>  <Rbt.Receptor>
4xnr.prm

>  <SCORE>
-66.2725

>  <SCORE.INTER>
-35.5942

>  <SCORE.INTER.CONST>
1

>  <SCORE.INTER.POLAR>
-3.79722

>  <SCORE.INTER.ROT>
2

>  <SCORE.INTER.SOLV>
22.3239

>  <SCORE.INTER.VDW>
-23.4467

>  <SCORE.INTER.norm>
-2.73802

>  <SCORE.INTRA>
-10.4329

>  <SCORE.INTRA.DIHEDRAL>
-24.4646

>  <SCORE.INTRA.DIHEDRAL.0>
42.7175

>  <SCORE.INTRA.POLAR>
0

>  <SCORE.INTRA.POLAR.0>
0

>  <SCORE.INTRA.REPUL>
0

>  <SCORE.INTRA.REPUL.0>
0

>  <SCORE.INTRA.SOLV>
-0.60043

>  <SCORE.INTRA.SOLV.lig_0>
-47.5218

>  <SCORE.INTRA.VDW>
2.09956

>  <SCORE.INTRA.VDW.0>
-0.0855599

>  <SCORE.INTRA.norm>
-0.802535

>  <SCORE.RESTR>
0

>  <SCORE.RESTR.CAVITY>
0

>  <SCORE.RESTR.norm>
0

>  <SCORE.SYSTEM>
-20.2453

>  <SCORE.SYSTEM.CONST>
0

>  <SCORE.SYSTEM.DIHEDRAL>
4.59414

>  <SCORE.SYSTEM.POLAR>
-2.99047

>  <SCORE.SYSTEM.SOLV>
-0.0268075

>  <SCORE.SYSTEM.VDW>
-5.05109

>  <SCORE.SYSTEM.norm>
-1.55733

>  <SCORE.heavy>
13

>  <SCORE.norm>
-5.09788

$$$$
P61362450
 OpenBabel12072022113D
libRbt.so/2013.1/901 2013/11/27
 16 16  0  0  0  0  0  0  0  0999 V2000
    1.7074   14.8014    3.9237 C   0  0  0  0  0  0  0  0  0  0  0  0
    1.8423   16.2893    4.1993 C   0  0  1  0  0  0  0  0  0  0  0  0
    3.1932   16.8604    3.6800 C   0  0  0  0  0  0  0  0  0  0  0  0
    4.0606   17.0581    4.6309 N   0  0  0  0  0  0  0  0  0  0  0  0
    5.2539   17.6276    4.2934 C   0  0  0  0  0  0  0  0  0  0  0  0
    6.1273   18.4007    5.0416 C   0  0  0  0  0  0  0  0  0  0  0  0
    7.2977   18.7801    4.3159 C   0  0  0  0  0  0  0  0  0  0  0  0
    7.3004   18.2635    3.0405 C   0  0  0  0  0  0  0  0  0  0  0  0
    5.9076   17.3238    2.7277 S   0  0  0  0  0  0  0  0  0  0  0  0
    5.8674   18.7606    6.4043 C   0  0  0  0  0  0  0  0  0  0  0  0
    5.7009   19.0337    7.5227 N   0  0  0  0  0  0  0  0  0  0  0  0
    3.2297   17.0785    2.4430 O   0  5  0  0  0  0  0  0  0  0  0  0
    0.7945   17.0278    3.4363 N   0  3  0  0  0  0  0  0  0  0  0  0
    0.8183   17.9519    3.9235 H   0  0  0  0  0  0  0  0  0  0  0  0
    0.9424   17.1347    2.4380 H   0  0  0  0  0  0  0  0  0  0  0  0
   -0.1259   16.6621    3.6888 H   0  0  0  0  0  0  0  0  0  0  0  0
  2  1  1  6  0  0  0
  2  3  1  0  0  0  0
  2 13  1  0  0  0  0
  3  4  2  0  0  0  0
  3 12  1  0  0  0  0
  4  5  1  0  0  0  0
  5  6  2  0  0  0  0
  5  9  1  0  0  0  0
  6  7  1  0  0  0  0
  6 10  1  0  0  0  0
  7  8  2  0  0  0  0
  8  9  1  0  0  0  0
 10 11  3  0  0  0  0
 13 14  1  0  0  0  0
 13 15  1  0  0  0  0
 13 16  1  0  0  0  0
M  CHG  2  12  -1  13   1
M  END
>  <CHROM.0>
-52.97490297,175.23970872,-56.88071443,-47.36029392,-58.23542360,-60.77879889
-68.64023748,-58.97389838,-167.11089957

>  <CHROM.1>
-103.11012456,164.03495911,152.46184657,4.48582684,17.42628202,4.08581583
2.78825819,-0.35022451,-1.88031153

>  <Name>
P61362450

>  <RI>
9.71178e+06

>  <Rbt.Current_Directory>
/home/fstefaniak/projects/zuza/docking/adenine/4XNR

>  <Rbt.Executable>
rbdock ($Id: //depot/dev/client3/rdock/2013.1/src/exe/rbdock.cxx#4 $)

>  <Rbt.Library>
libRbt.so (2013.1, Build901 2013/11/27)

>  <Rbt.Parameter_File>
/home/fstefaniak/progs/rDock//data/scripts/dock_solv.prm

>  <Rbt.Receptor>
4xnr.prm

>  <SCORE>
-65.0809

>  <SCORE.INTER>
-30.452

>  <SCORE.INTER.CONST>
1

>  <SCORE.INTER.POLAR>
-3.89485

>  <SCORE.INTER.ROT>
2

>  <SCORE.INTER.SOLV>
24.9454

>  <SCORE.INTER.VDW>
-20.5669

>  <SCORE.INTER.norm>
-2.34246

>  <SCORE.INTRA>
-14.4447

>  <SCORE.INTRA.DIHEDRAL>
-29.635

>  <SCORE.INTRA.DIHEDRAL.0>
42.7175

>  <SCORE.INTRA.POLAR>
0

>  <SCORE.INTRA.POLAR.0>
0

>  <SCORE.INTRA.REPUL>
0

>  <SCORE.INTRA.REPUL.0>
0

>  <SCORE.INTRA.SOLV>
-1.45717

>  <SCORE.INTRA.SOLV.lig_0>
-47.5218

>  <SCORE.INTRA.VDW>
1.10142

>  <SCORE.INTRA.VDW.0>
-0.0855599

>  <SCORE.INTRA.norm>
-1.11113

>  <SCORE.RESTR>
0

>  <SCORE.RESTR.CAVITY>
0

>  <SCORE.RESTR.norm>
0

>  <SCORE.SYSTEM>
-20.1842

>  <SCORE.SYSTEM.CONST>
0

>  <SCORE.SYSTEM.DIHEDRAL>
4.33783

>  <SCORE.SYSTEM.POLAR>
-3.04492

>  <SCORE.SYSTEM.SOLV>
0.294413

>  <SCORE.SYSTEM.VDW>
-4.8505

>  <SCORE.SYSTEM.norm>
-1.55263

>  <SCORE.heavy>
13

>  <SCORE.norm>
-5.00622

$$$$
P61362450
 OpenBabel12072022113D
libRbt.so/2013.1/901 2013/11/27
 16 16  0  0  0  0  0  0  0  0999 V2000
    1.6594   15.4567    4.3034 C   0  0  0  0  0  0  0  0  0  0  0  0
    3.0311   15.1578    3.7230 C   0  0  1  0  0  0  0  0  0  0  0  0
    3.9307   16.4260    3.6645 C   0  0  0  0  0  0  0  0  0  0  0  0
    4.6887   16.5603    4.7147 N   0  0  0  0  0  0  0  0  0  0  0  0
    5.4638   17.6803    4.7992 C   0  0  0  0  0  0  0  0  0  0  0  0
    6.1211   18.3980    3.8127 C   0  0  0  0  0  0  0  0  0  0  0  0
    6.8091   19.5421    4.3205 C   0  0  0  0  0  0  0  0  0  0  0  0
    6.6365   19.6839    5.6783 C   0  0  0  0  0  0  0  0  0  0  0  0
    5.6468   18.4521    6.3295 S   0  0  0  0  0  0  0  0  0  0  0  0
    6.0905   18.0188    2.4309 C   0  0  0  0  0  0  0  0  0  0  0  0
    6.0496   17.7570    1.2983 N   0  0  0  0  0  0  0  0  0  0  0  0
    3.7643   17.1406    2.6444 O   0  5  0  0  0  0  0  0  0  0  0  0
    3.7532   14.2163    4.6273 N   0  3  0  0  0  0  0  0  0  0  0  0
    3.9294   14.8373    5.4491 H   0  0  0  0  0  0  0  0  0  0  0  0
    3.2594   13.3736    4.9025 H   0  0  0  0  0  0  0  0  0  0  0  0
    4.6934   14.0529    4.2611 H   0  0  0  0  0  0  0  0  0  0  0  0
  2  1  1  1  0  0  0
  2  3  1  0  0  0  0
  2 13  1  0  0  0  0
  3  4  2  0  0  0  0
  3 12  1  0  0  0  0
  4  5  1  0  0  0  0
  5  6  2  0  0  0  0
  5  9  1  0  0  0  0
  6  7  1  0  0  0  0
  6 10  1  0  0  0  0
  7  8  2  0  0  0  0
  8  9  1  0  0  0  0
 10 11  3  0  0  0  0
 13 14  1  0  0  0  0
 13 15  1  0  0  0  0
 13 16  1  0  0  0  0
M  CHG  2  12  -1  13   1
M  END
>  <CHROM.0>
-65.20684076,166.07211806,-65.51190790,-44.79908109,-57.56591227,59.88484458
-70.69726791,55.75319884,-168.15579547

>  <CHROM.1>
93.39035936,-69.46505885,-35.53691700,4.89239110,17.28994242,4.24603066,2.87729471
-0.82619549,-1.67586676

>  <Name>
P61362450

>  <RI>
9.71178e+06

>  <Rbt.Current_Directory>
/home/fstefaniak/projects/zuza/docking/adenine/4XNR

>  <Rbt.Executable>
rbdock ($Id: //depot/dev/client3/rdock/2013.1/src/exe/rbdock.cxx#4 $)

>  <Rbt.Library>
libRbt.so (2013.1, Build901 2013/11/27)

>  <Rbt.Parameter_File>
/home/fstefaniak/progs/rDock//data/scripts/dock_solv.prm

>  <Rbt.Receptor>
4xnr.prm

>  <SCORE>
-64.9636

>  <SCORE.INTER>
-36.3562

>  <SCORE.INTER.CONST>
1

>  <SCORE.INTER.POLAR>
-3.83866

>  <SCORE.INTER.ROT>
2

>  <SCORE.INTER.SOLV>
22.5043

>  <SCORE.INTER.VDW>
-23.8767

>  <SCORE.INTER.norm>
-2.79663

>  <SCORE.INTRA>
-10.8207

>  <SCORE.INTRA.DIHEDRAL>
-23.8056

>  <SCORE.INTRA.DIHEDRAL.0>
42.7175

>  <SCORE.INTRA.POLAR>
-0.15191

>  <SCORE.INTRA.POLAR.0>
0

>  <SCORE.INTRA.REPUL>
0

>  <SCORE.INTRA.REPUL.0>
0

>  <SCORE.INTRA.SOLV>
0.196446

>  <SCORE.INTRA.SOLV.lig_0>
-47.5218

>  <SCORE.INTRA.VDW>
1.50037

>  <SCORE.INTRA.VDW.0>
-0.0855599

>  <SCORE.INTRA.norm>
-0.83236

>  <SCORE.RESTR>
0

>  <SCORE.RESTR.CAVITY>
0

>  <SCORE.RESTR.norm>
0

>  <SCORE.SYSTEM>
-17.7867

>  <SCORE.SYSTEM.CONST>
0

>  <SCORE.SYSTEM.DIHEDRAL>
5.58253

>  <SCORE.SYSTEM.POLAR>
-2.98483

>  <SCORE.SYSTEM.SOLV>
-0.0343071

>  <SCORE.SYSTEM.VDW>
-3.75777

>  <SCORE.SYSTEM.norm>
-1.36821

>  <SCORE.heavy>
13

>  <SCORE.norm>
-4.9972

$$$$
P61812363
 OpenBabel12072022113D
libRbt.so/2013.1/901 2013/11/27
 14 14  0  0  0  0  0  0  0  0999 V2000
    3.8893   16.0200    3.5085 C   0  0  0  0  0  0  0  0  0  0  0  0
    5.2538   16.4016    4.0690 C   0  0  1  0  0  0  0  0  0  0  0  0
    6.2429   16.7648    2.9573 C   0  0  0  0  0  0  0  0  0  0  0  0
    6.9410   18.0121    3.4692 C   0  0  0  0  0  0  0  0  0  0  0  0
    5.8584   18.6955    4.1804 N   0  0  0  0  0  0  0  0  0  0  0  0
    5.2039   17.6415    4.9702 C   0  0  0  0  0  0  0  0  0  0  0  0
    6.3841   19.7835    5.0300 C   0  0  0  0  0  0  0  0  0  0  0  0
    7.2865   19.1840    6.1160 C   0  0  0  0  0  0  0  0  0  0  0  0
    8.5760   19.2478    5.9573 N   0  0  0  0  0  0  0  0  0  0  0  0
    9.2365   18.6114    7.0216 O   0  0  0  0  0  0  0  0  0  0  0  0
    6.6655   18.5836    7.1878 N   0  0  0  0  0  0  0  0  0  0  0  0
    9.0577   17.6707    6.8376 H   0  0  0  0  0  0  0  0  0  0  0  0
    6.8014   17.5756    7.1895 H   0  0  0  0  0  0  0  0  0  0  0  0
    6.9275   19.0382    8.0558 H   0  0  0  0  0  0  0  0  0  0  0  0
  2  1  1  6  0  0  0
  2  3  1  0  0  0  0
  2  6  1  0  0  0  0
  3  4  1  0  0  0  0
  4  5  1  0  0  0  0
  5  6  1  0  0  0  0
  5  7  1  0  0  0  0
  7  8  1  0  0  0  0
  8  9  2  0  0  0  0
  8 11  1  0  0  0  0
  9 10  1  0  0  0  0
 10 12  1  0  0  0  0
 11 13  1  0  0  0  0
 11 14  1  0  0  0  0
M  END
>  <CHROM.0>
-55.93445224,-63.92349502,-65.33872816,-48.21869374,-58.99392461,-64.56023477
-67.60292145,-173.63886862,-168.18040515

>  <CHROM.1>
-63.59868886,101.24418774,111.07131998,72.25706177,6.53974843,18.07593136
5.00505631,2.36560860,-0.43204280,-1.82106639

>  <Name>
P61812363

>  <RI>
1.00763e+07

>  <Rbt.Current_Directory>
/home/fstefaniak/projects/zuza/docking/adenine/4XNR

>  <Rbt.Executable>
rbdock ($Id: //depot/dev/client3/rdock/2013.1/src/exe/rbdock.cxx#4 $)

>  <Rbt.Library>
libRbt.so (2013.1, Build901 2013/11/27)

>  <Rbt.Parameter_File>
/home/fstefaniak/progs/rDock//data/scripts/dock_solv.prm

>  <Rbt.Receptor>
4xnr.prm

>  <SCORE>
-54.5651

>  <SCORE.INTER>
-34.8876

>  <SCORE.INTER.CONST>
1

>  <SCORE.INTER.POLAR>
-4.07388

>  <SCORE.INTER.ROT>
3

>  <SCORE.INTER.SOLV>
12.8333

>  <SCORE.INTER.VDW>
-19.5566

>  <SCORE.INTER.norm>
-3.1716

>  <SCORE.INTRA>
1.18671

>  <SCORE.INTRA.DIHEDRAL>
-1.89319

>  <SCORE.INTRA.DIHEDRAL.0>
3.92023

>  <SCORE.INTRA.POLAR>
0.114201

>  <SCORE.INTRA.POLAR.0>
-0.114201

>  <SCORE.INTRA.REPUL>
0

>  <SCORE.INTRA.REPUL.0>
0

>  <SCORE.INTRA.SOLV>
0.472869

>  <SCORE.INTRA.SOLV.lig_0>
-10.4883

>  <SCORE.INTRA.VDW>
1.50859

>  <SCORE.INTRA.VDW.0>
-0.538962

>  <SCORE.INTRA.norm>
0.107883

>  <SCORE.RESTR>
0

>  <SCORE.RESTR.CAVITY>
0

>  <SCORE.RESTR.norm>
0

>  <SCORE.SYSTEM>
-20.8642

>  <SCORE.SYSTEM.CONST>
0

>  <SCORE.SYSTEM.DIHEDRAL>
4.2184

>  <SCORE.SYSTEM.POLAR>
-2.98794

>  <SCORE.SYSTEM.SOLV>
0.145579

>  <SCORE.SYSTEM.VDW>
-5.40433

>  <SCORE.SYSTEM.norm>
-1.89675

>  <SCORE.heavy>
11

>  <SCORE.norm>
-4.96047

$$$$
P61812363
 OpenBabel12072022113D
libRbt.so/2013.1/901 2013/11/27
 14 14  0  0  0  0  0  0  0  0999 V2000
    3.6890   16.0464    3.6922 C   0  0  0  0  0  0  0  0  0  0  0  0
    5.0857   16.4097    4.1809 C   0  0  1  0  0  0  0  0  0  0  0  0
    6.0310   16.7224    3.0169 C   0  0  0  0  0  0  0  0  0  0  0  0
    6.7792   17.9653    3.4649 C   0  0  0  0  0  0  0  0  0  0  0  0
    5.7454   18.6910    4.2062 N   0  0  0  0  0  0  0  0  0  0  0  0
    5.1043   17.6723    5.0514 C   0  0  0  0  0  0  0  0  0  0  0  0
    6.3333   19.7870    5.0033 C   0  0  0  0  0  0  0  0  0  0  0  0
    7.2623   19.1929    6.0695 C   0  0  0  0  0  0  0  0  0  0  0  0
    8.5463   19.2285    5.8644 N   0  0  0  0  0  0  0  0  0  0  0  0
    9.2322   18.6017    6.9183 O   0  0  0  0  0  0  0  0  0  0  0  0
    6.6687   18.6270    7.1751 N   0  0  0  0  0  0  0  0  0  0  0  0
    9.0413   17.6599    6.7527 H   0  0  0  0  0  0  0  0  0  0  0  0
    6.7609   17.6140    7.1789 H   0  0  0  0  0  0  0  0  0  0  0  0
    6.9918   19.0754    8.0255 H   0  0  0  0  0  0  0  0  0  0  0  0
  2  1  1  6  0  0  0
  2  3  1  0  0  0  0
  2  6  1  0  0  0  0
  3  4  1  0  0  0  0
  4  5  1  0  0  0  0
  5  6  1  0  0  0  0
  5  7  1  0  0  0  0
  7  8  1  0  0  0  0
  8  9  2  0  0  0  0
  8 11  1  0  0  0  0
  9 10  1  0  0  0  0
 10 12  1  0  0  0  0
 11 13  1  0  0  0  0
 11 14  1  0  0  0  0
M  END
>  <CHROM.0>
-54.81263136,-67.01185708,-73.18437955,-48.67974968,-64.41678721,-61.80571297
-174.01143273,-64.39764700,-168.18960792

>  <CHROM.1>
-64.02886790,101.89538429,109.30155323,73.11856324,6.44526277,18.07607110
5.01970429,2.42231227,-0.43322632,-1.80932672

>  <Name>
P61812363

>  <RI>
1.00763e+07

>  <Rbt.Current_Directory>
/home/fstefaniak/projects/zuza/docking/adenine/4XNR

>  <Rbt.Executable>
rbdock ($Id: //depot/dev/client3/rdock/2013.1/src/exe/rbdock.cxx#4 $)

>  <Rbt.Library>
libRbt.so (2013.1, Build901 2013/11/27)

>  <Rbt.Parameter_File>
/home/fstefaniak/progs/rDock//data/scripts/dock_solv.prm

>  <Rbt.Receptor>
4xnr.prm

>  <SCORE>
-54.1668

>  <SCORE.INTER>
-35.1239

>  <SCORE.INTER.CONST>
1

>  <SCORE.INTER.POLAR>
-4.02245

>  <SCORE.INTER.ROT>
3

>  <SCORE.INTER.SOLV>
12.6925

>  <SCORE.INTER.VDW>
-19.8386

>  <SCORE.INTER.norm>
-3.19308

>  <SCORE.INTRA>
1.25056

>  <SCORE.INTRA.DIHEDRAL>
-1.90055

>  <SCORE.INTRA.DIHEDRAL.0>
3.92023

>  <SCORE.INTRA.POLAR>
0.114201

>  <SCORE.INTRA.POLAR.0>
-0.114201

>  <SCORE.INTRA.REPUL>
0

>  <SCORE.INTRA.REPUL.0>
0

>  <SCORE.INTRA.SOLV>
0.480549

>  <SCORE.INTRA.SOLV.lig_0>
-10.4883

>  <SCORE.INTRA.VDW>
1.57228

>  <SCORE.INTRA.VDW.0>
-0.538962

>  <SCORE.INTRA.norm>
0.113688

>  <SCORE.RESTR>
0

>  <SCORE.RESTR.CAVITY>
0

>  <SCORE.RESTR.norm>
0

>  <SCORE.SYSTEM>
-20.2935

>  <SCORE.SYSTEM.CONST>
0

>  <SCORE.SYSTEM.DIHEDRAL>
4.82162

>  <SCORE.SYSTEM.POLAR>
-2.96829

>  <SCORE.SYSTEM.SOLV>
0.213945

>  <SCORE.SYSTEM.VDW>
-5.31318

>  <SCORE.SYSTEM.norm>
-1.84486

>  <SCORE.heavy>
11

>  <SCORE.norm>
-4.92425

$$$$
P61812363
 OpenBabel12072022113D
libRbt.so/2013.1/901 2013/11/27
 14 14  0  0  0  0  0  0  0  0999 V2000
    0.0154   12.7972    2.7130 C   0  0  0  0  0  0  0  0  0  0  0  0
    0.9175   13.2383    3.8590 C   0  0  1  0  0  0  0  0  0  0  0  0
    2.2820   12.5443    3.8071 C   0  0  0  0  0  0  0  0  0  0  0  0
    3.2782   13.6538    4.0928 C   0  0  0  0  0  0  0  0  0  0  0  0
    2.6539   14.8004    3.4291 N   0  0  0  0  0  0  0  0  0  0  0  0
    1.2384   14.7377    3.8235 C   0  0  0  0  0  0  0  0  0  0  0  0
    3.2922   16.0666    3.8431 C   0  0  0  0  0  0  0  0  0  0  0  0
    4.4305   16.3992    2.8703 C   0  0  0  0  0  0  0  0  0  0  0  0
    4.2846   17.4109    2.0658 N   0  0  0  0  0  0  0  0  0  0  0  0
    5.4009   17.5355    1.2217 O   0  0  0  0  0  0  0  0  0  0  0  0
    5.5348   15.5777    2.8911 N   0  0  0  0  0  0  0  0  0  0  0  0
    5.4777   18.5032    1.1288 H   0  0  0  0  0  0  0  0  0  0  0  0
    6.0262   15.6245    3.7805 H   0  0  0  0  0  0  0  0  0  0  0  0
    5.2884   14.6369    2.6033 H   0  0  0  0  0  0  0  0  0  0  0  0
  2  1  1  6  0  0  0
  2  3  1  0  0  0  0
  2  6  1  0  0  0  0
  3  4  1  0  0  0  0
  4  5  1  0  0  0  0
  5  6  1  0  0  0  0
  5  7  1  0  0  0  0
  7  8  1  0  0  0  0
  8  9  2  0  0  0  0
  8 11  1  0  0  0  0
  9 10  1  0  0  0  0
 10 12  1  0  0  0  0
 11 13  1  0  0  0  0
 11 14  1  0  0  0  0
M  END
>  <CHROM.0>
-56.95182161,-62.40787902,-73.71365561,-49.04015419,-59.01357781,-62.22603390
-173.32996722,-60.27911865,-167.63811188

>  <CHROM.1>
91.46299223,110.29925713,-64.41773467,-144.85878094,3.08482173,15.01357685
3.10677633,2.34619473,0.16550021,2.62150581

>  <Name>
P61812363

>  <RI>
1.00763e+07

>  <Rbt.Current_Directory>
/home/fstefaniak/projects/zuza/docking/adenine/4XNR

>  <Rbt.Executable>
rbdock ($Id: //depot/dev/client3/rdock/2013.1/src/exe/rbdock.cxx#4 $)

>  <Rbt.Library>
libRbt.so (2013.1, Build901 2013/11/27)

>  <Rbt.Parameter_File>
/home/fstefaniak/progs/rDock//data/scripts/dock_solv.prm

>  <Rbt.Receptor>
4xnr.prm

>  <SCORE>
-53.2577

>  <SCORE.INTER>
-33.2706

>  <SCORE.INTER.CONST>
1

>  <SCORE.INTER.POLAR>
-4.81501

>  <SCORE.INTER.ROT>
3

>  <SCORE.INTER.SOLV>
9.83363

>  <SCORE.INTER.VDW>
-15.0082

>  <SCORE.INTER.norm>
-3.0246

>  <SCORE.INTRA>
0.347779

>  <SCORE.INTRA.DIHEDRAL>
0.414492

>  <SCORE.INTRA.DIHEDRAL.0>
3.92023

>  <SCORE.INTRA.POLAR>
0.114201

>  <SCORE.INTRA.POLAR.0>
-0.114201

>  <SCORE.INTRA.REPUL>
0

>  <SCORE.INTRA.REPUL.0>
0

>  <SCORE.INTRA.SOLV>
-0.0917381

>  <SCORE.INTRA.SOLV.lig_0>
-10.4883

>  <SCORE.INTRA.VDW>
-0.201882

>  <SCORE.INTRA.VDW.0>
-0.538962

>  <SCORE.INTRA.norm>
0.0316163

>  <SCORE.RESTR>
0

>  <SCORE.RESTR.CAVITY>
0

>  <SCORE.RESTR.norm>
0

>  <SCORE.SYSTEM>
-20.3349

>  <SCORE.SYSTEM.CONST>
0

>  <SCORE.SYSTEM.DIHEDRAL>
4.49086

>  <SCORE.SYSTEM.POLAR>
-2.94243

>  <SCORE.SYSTEM.SOLV>
0.224912

>  <SCORE.SYSTEM.VDW>
-5.32043

>  <SCORE.SYSTEM.norm>
-1.84863

>  <SCORE.heavy>
11

>  <SCORE.norm>
-4.84161

$$$$
P62005643
 OpenBabel12072022113D
libRbt.so/2013.1/901 2013/11/27
 19 19  0  0  0  0  0  0  0  0999 V2000
    5.2779   16.5353    4.9807 C   0  0  0  0  0  0  0  0  0  0  0  0
    5.3591   17.9976    5.4212 C   0  0  0  0  0  0  0  0  0  0  0  0
    6.5874   18.7014    4.8465 C   0  0  1  0  0  0  0  0  0  0  0  0
    6.7954   18.5000    3.3470 C   0  0  0  0  0  0  0  0  0  0  0  0
    6.5817   17.0531    2.8952 C   0  0  0  0  0  0  0  0  0  0  0  0
    5.3037   16.4082    3.4526 C   0  0  2  0  0  0  0  0  0  0  0  0
    4.0327   17.0265    2.8663 C   0  0  0  0  0  0  0  0  0  0  0  0
    4.0660   17.8975    2.0014 O   0  0  0  0  0  0  0  0  0  0  0  0
    2.8782   16.6318    3.4872 N   0  0  0  0  0  0  0  0  0  0  0  0
    2.6411   15.2470    3.8571 C   0  0  0  0  0  0  0  0  0  0  0  0
    1.1396   14.9746    4.0054 C   0  0  0  0  0  0  0  0  0  0  0  0
    0.4477   16.1341    4.5841 N   0  0  0  0  0  0  0  0  0  0  0  0
    6.4445   20.1632    5.0996 N   0  3  0  0  0  0  0  0  0  0  0  0
    5.5821   20.5246    4.6643 H   0  0  0  0  0  0  0  0  0  0  0  0
    6.3962   20.3774    6.1036 H   0  0  0  0  0  0  0  0  0  0  0  0
    7.2291   20.6955    4.7022 H   0  0  0  0  0  0  0  0  0  0  0  0
    2.3072   17.3060    3.9910 H   0  0  0  0  0  0  0  0  0  0  0  0
    0.4615   16.0542    5.6030 H   0  0  0  0  0  0  0  0  0  0  0  0
   -0.5411   16.0838    4.3291 H   0  0  0  0  0  0  0  0  0  0  0  0
  1  2  1  0  0  0  0
  1  6  1  0  0  0  0
  2  3  1  0  0  0  0
  3  4  1  0  0  0  0
  3 13  1  6  0  0  0
  4  5  1  0  0  0  0
  5  6  1  0  0  0  0
  6  7  1  6  0  0  0
  7  8  2  0  0  0  0
  7  9  1  0  0  0  0
  9 10  1  0  0  0  0
  9 17  1  0  0  0  0
 10 11  1  0  0  0  0
 11 12  1  0  0  0  0
 12 18  1  0  0  0  0
 12 19  1  0  0  0  0
 13 14  1  0  0  0  0
 13 15  1  0  0  0  0
 13 16  1  0  0  0  0
M  CHG  1  13   1
M  END
>  <CHROM.0>
-52.80560368,-63.22525746,-66.54788641,-49.02938002,-64.49933868,-176.78138448
-74.89752017,59.92912662,-168.78977070

>  <CHROM.1>
-58.74736173,125.69636437,-43.29855992,-157.55971890,-36.44181185,-88.73390158
4.38395110,17.22289560,3.93152604,0.31651288,0.46018333,1.03615601

>  <Name>
P62005643

>  <RI>
3.02409e+07

>  <Rbt.Current_Directory>
/home/fstefaniak/projects/zuza/docking/adenine/4XNR

>  <Rbt.Executable>
rbdock ($Id: //depot/dev/client3/rdock/2013.1/src/exe/rbdock.cxx#4 $)

>  <Rbt.Library>
libRbt.so (2013.1, Build901 2013/11/27)

>  <Rbt.Parameter_File>
/home/fstefaniak/progs/rDock//data/scripts/dock_solv.prm

>  <Rbt.Receptor>
4xnr.prm

>  <SCORE>
-52.9266

>  <SCORE.INTER>
-35.0998

>  <SCORE.INTER.CONST>
1

>  <SCORE.INTER.POLAR>
-5.02656

>  <SCORE.INTER.ROT>
5

>  <SCORE.INTER.SOLV>
26.1872

>  <SCORE.INTER.VDW>
-22.3071

>  <SCORE.INTER.norm>
-2.69999

>  <SCORE.INTRA>
1.70955

>  <SCORE.INTRA.DIHEDRAL>
1.75003

>  <SCORE.INTRA.DIHEDRAL.0>
2.87296

>  <SCORE.INTRA.POLAR>
-0.0101107

>  <SCORE.INTRA.POLAR.0>
-0.0565066

>  <SCORE.INTRA.REPUL>
0

>  <SCORE.INTRA.REPUL.0>
0

>  <SCORE.INTRA.SOLV>
-0.0384214

>  <SCORE.INTRA.SOLV.lig_0>
-33.7977

>  <SCORE.INTRA.VDW>
0.88812

>  <SCORE.INTRA.VDW.0>
-0.0611566

>  <SCORE.INTRA.norm>
0.131504

>  <SCORE.RESTR>
0

>  <SCORE.RESTR.CAVITY>
0

>  <SCORE.RESTR.norm>
0

>  <SCORE.SYSTEM>
-19.5363

>  <SCORE.SYSTEM.CONST>
0

>  <SCORE.SYSTEM.DIHEDRAL>
4.83716

>  <SCORE.SYSTEM.POLAR>
-2.98477

>  <SCORE.SYSTEM.SOLV>
-0.0170442

>  <SCORE.SYSTEM.VDW>
-4.68168

>  <SCORE.SYSTEM.norm>
-1.50279

>  <SCORE.heavy>
13

>  <SCORE.norm>
-4.07128

$$$$
P62005643
 OpenBabel12072022113D
libRbt.so/2013.1/901 2013/11/27
 19 19  0  0  0  0  0  0  0  0999 V2000
    5.2711   16.5160    4.9812 C   0  0  0  0  0  0  0  0  0  0  0  0
    5.3297   17.9704    5.4505 C   0  0  0  0  0  0  0  0  0  0  0  0
    6.5630   18.6958    4.9145 C   0  0  1  0  0  0  0  0  0  0  0  0
    6.8034   18.5246    3.4161 C   0  0  0  0  0  0  0  0  0  0  0  0
    6.6124   17.0846    2.9331 C   0  0  0  0  0  0  0  0  0  0  0  0
    5.3293   16.4180    3.4519 C   0  0  2  0  0  0  0  0  0  0  0  0
    4.0649   17.0360    2.8512 C   0  0  0  0  0  0  0  0  0  0  0  0
    4.1075   17.8898    1.9697 O   0  0  0  0  0  0  0  0  0  0  0  0
    2.9058   16.6635    3.4772 N   0  0  0  0  0  0  0  0  0  0  0  0
    2.6353   15.2805    3.8306 C   0  0  0  0  0  0  0  0  0  0  0  0
    1.1273   15.0411    3.9695 C   0  0  0  0  0  0  0  0  0  0  0  0
    0.4705   16.1800    4.6250 N   0  0  0  0  0  0  0  0  0  0  0  0
    6.4014   20.1513    5.1918 N   0  3  0  0  0  0  0  0  0  0  0  0
    6.2792   20.3171    6.2025 H   0  0  0  0  0  0  0  0  0  0  0  0
    7.2188   20.6946    4.8870 H   0  0  0  0  0  0  0  0  0  0  0  0
    5.5736   20.5377    4.7204 H   0  0  0  0  0  0  0  0  0  0  0  0
    2.3573   17.3456    3.9952 H   0  0  0  0  0  0  0  0  0  0  0  0
    0.5277   16.0579    5.6382 H   0  0  0  0  0  0  0  0  0  0  0  0
   -0.5288   16.1466    4.4115 H   0  0  0  0  0  0  0  0  0  0  0  0
  1  2  1  0  0  0  0
  1  6  1  0  0  0  0
  2  3  1  0  0  0  0
  3  4  1  0  0  0  0
  3 13  1  6  0  0  0
  4  5  1  0  0  0  0
  5  6  1  0  0  0  0
  6  7  1  6  0  0  0
  7  8  2  0  0  0  0
  7  9  1  0  0  0  0
  9 10  1  0  0  0  0
  9 17  1  0  0  0  0
 10 11  1  0  0  0  0
 11 12  1  0  0  0  0
 12 18  1  0  0  0  0
 12 19  1  0  0  0  0
 13 14  1  0  0  0  0
 13 15  1  0  0  0  0
 13 16  1  0  0  0  0
M  CHG  1  13   1
M  END
>  <CHROM.0>
-56.68697482,-59.57776839,-67.37664342,-45.00285174,59.54322226,58.46721503
-65.15660557,59.21145690,-167.51548853

>  <CHROM.1>
57.91463634,128.33187603,-45.52565554,-156.75762671,-39.53623618,-85.89094614
4.38900990,17.23664583,3.94987803,0.31808907,0.45315010,1.04763618

>  <Name>
P62005643

>  <RI>
3.02409e+07

>  <Rbt.Current_Directory>
/home/fstefaniak/projects/zuza/docking/adenine/4XNR

>  <Rbt.Executable>
rbdock ($Id: //depot/dev/client3/rdock/2013.1/src/exe/rbdock.cxx#4 $)

>  <Rbt.Library>
libRbt.so (2013.1, Build901 2013/11/27)

>  <Rbt.Parameter_File>
/home/fstefaniak/progs/rDock//data/scripts/dock_solv.prm

>  <Rbt.Receptor>
4xnr.prm

>  <SCORE>
-51.3011

>  <SCORE.INTER>
-34.9251

>  <SCORE.INTER.CONST>
1

>  <SCORE.INTER.POLAR>
-4.96711

>  <SCORE.INTER.ROT>
5

>  <SCORE.INTER.SOLV>
26.1939

>  <SCORE.INTER.VDW>
-22.391

>  <SCORE.INTER.norm>
-2.68655

>  <SCORE.INTRA>
1.42745

>  <SCORE.INTRA.DIHEDRAL>
1.27099

>  <SCORE.INTRA.DIHEDRAL.0>
2.87296

>  <SCORE.INTRA.POLAR>
0.00106343

>  <SCORE.INTRA.POLAR.0>
-0.0565066

>  <SCORE.INTRA.REPUL>
0

>  <SCORE.INTRA.REPUL.0>
0

>  <SCORE.INTRA.SOLV>
-0.0670178

>  <SCORE.INTRA.SOLV.lig_0>
-33.7977

>  <SCORE.INTRA.VDW>
0.821848

>  <SCORE.INTRA.VDW.0>
-0.0611566

>  <SCORE.INTRA.norm>
0.109804

>  <SCORE.RESTR>
0

>  <SCORE.RESTR.CAVITY>
0

>  <SCORE.RESTR.norm>
0

>  <SCORE.SYSTEM>
-17.8034

>  <SCORE.SYSTEM.CONST>
0

>  <SCORE.SYSTEM.DIHEDRAL>
4.27894

>  <SCORE.SYSTEM.POLAR>
-3.0289

>  <SCORE.SYSTEM.SOLV>
-0.211132

>  <SCORE.SYSTEM.VDW>
-3.12856

>  <SCORE.SYSTEM.norm>
-1.36949

>  <SCORE.heavy>
13

>  <SCORE.norm>
-3.94624

$$$$
P62005643
 OpenBabel12072022113D
libRbt.so/2013.1/901 2013/11/27
 19 19  0  0  0  0  0  0  0  0999 V2000
    4.0167   14.3190    3.6230 C   0  0  0  0  0  0  0  0  0  0  0  0
    3.1585   15.4317    4.2264 C   0  0  0  0  0  0  0  0  0  0  0  0
    1.7263   15.4024    3.6949 C   0  0  1  0  0  0  0  0  0  0  0  0
    1.0610   14.0281    3.7283 C   0  0  0  0  0  0  0  0  0  0  0  0
    1.9765   12.9005    3.2451 C   0  0  0  0  0  0  0  0  0  0  0  0
    3.3873   12.9394    3.8519 C   0  0  2  0  0  0  0  0  0  0  0  0
    3.3897   12.6178    5.3479 C   0  0  0  0  0  0  0  0  0  0  0  0
    3.3438   13.4940    6.2070 O   0  0  0  0  0  0  0  0  0  0  0  0
    3.5917   11.2951    5.6376 N   0  0  0  0  0  0  0  0  0  0  0  0
    2.7849   10.5936    6.6213 C   0  0  0  0  0  0  0  0  0  0  0  0
    3.3746   10.7622    8.0265 C   0  0  0  0  0  0  0  0  0  0  0  0
    3.0239   12.0719    8.5921 N   0  0  0  0  0  0  0  0  0  0  0  0
    0.9059   16.3317    4.5224 N   0  3  0  0  0  0  0  0  0  0  0  0
    1.2811   17.2910    4.4711 H   0  0  0  0  0  0  0  0  0  0  0  0
   -0.0720   16.3659    4.2083 H   0  0  0  0  0  0  0  0  0  0  0  0
    0.9082   16.0594    5.5137 H   0  0  0  0  0  0  0  0  0  0  0  0
    4.0690   10.6891    4.9748 H   0  0  0  0  0  0  0  0  0  0  0  0
    3.6538   12.7790    8.2075 H   0  0  0  0  0  0  0  0  0  0  0  0
    3.2242   12.0578    9.5946 H   0  0  0  0  0  0  0  0  0  0  0  0
  1  2  1  0  0  0  0
  1  6  1  0  0  0  0
  2  3  1  0  0  0  0
  3  4  1  0  0  0  0
  3 13  1  1  0  0  0
  4  5  1  0  0  0  0
  5  6  1  0  0  0  0
  6  7  1  1  0  0  0
  7  8  2  0  0  0  0
  7  9  1  0  0  0  0
  9 10  1  0  0  0  0
  9 17  1  0  0  0  0
 10 11  1  0  0  0  0
 11 12  1  0  0  0  0
 12 18  1  0  0  0  0
 12 19  1  0  0  0  0
 13 14  1  0  0  0  0
 13 15  1  0  0  0  0
 13 16  1  0  0  0  0
M  CHG  1  13   1
M  END
>  <CHROM.0>
-59.88899435,-38.60677448,167.14126243,-45.90729210,-62.44152930,-61.09392822
49.66372930,-58.17611405,-167.70997943

>  <CHROM.1>
59.53506334,28.44428474,-134.82314994,-86.95031264,79.15681148,-80.32589593
2.73226920,13.27582781,5.23463083,-2.21342494,-1.14604796,1.80600761

>  <Name>
P62005643

>  <RI>
3.02409e+07

>  <Rbt.Current_Directory>
/home/fstefaniak/projects/zuza/docking/adenine/4XNR

>  <Rbt.Executable>
rbdock ($Id: //depot/dev/client3/rdock/2013.1/src/exe/rbdock.cxx#4 $)

>  <Rbt.Library>
libRbt.so (2013.1, Build901 2013/11/27)

>  <Rbt.Parameter_File>
/home/fstefaniak/progs/rDock//data/scripts/dock_solv.prm

>  <Rbt.Receptor>
4xnr.prm

>  <SCORE>
-50.8819

>  <SCORE.INTER>
-34.8413

>  <SCORE.INTER.CONST>
1

>  <SCORE.INTER.POLAR>
-5.62489

>  <SCORE.INTER.ROT>
5

>  <SCORE.INTER.SOLV>
18.5891

>  <SCORE.INTER.VDW>
-17.6076

>  <SCORE.INTER.norm>
-2.6801

>  <SCORE.INTRA>
0.754981

>  <SCORE.INTRA.DIHEDRAL>
3.17027

>  <SCORE.INTRA.DIHEDRAL.0>
2.87296

>  <SCORE.INTRA.POLAR>
-0.187054

>  <SCORE.INTRA.POLAR.0>
-0.0565066

>  <SCORE.INTRA.REPUL>
0

>  <SCORE.INTRA.REPUL.0>
0

>  <SCORE.INTRA.SOLV>
0.505992

>  <SCORE.INTRA.SOLV.lig_0>
-33.7977

>  <SCORE.INTRA.VDW>
-0.447166

>  <SCORE.INTRA.VDW.0>
-0.0611566

>  <SCORE.INTRA.norm>
0.0580755

>  <SCORE.RESTR>
0

>  <SCORE.RESTR.CAVITY>
0

>  <SCORE.RESTR.norm>
0

>  <SCORE.SYSTEM>
-16.7956

>  <SCORE.SYSTEM.CONST>
0

>  <SCORE.SYSTEM.DIHEDRAL>
6.95038

>  <SCORE.SYSTEM.POLAR>
-2.95423

>  <SCORE.SYSTEM.SOLV>
0.274011

>  <SCORE.SYSTEM.VDW>
-3.75779

>  <SCORE.SYSTEM.norm>
-1.29197

>  <SCORE.heavy>
13

>  <SCORE.norm>
-3.91399

$$$$
P64104804
 OpenBabel12072022113D
libRbt.so/2013.1/901 2013/11/27
 11 11  0  0  0  0  0  0  0  0999 V2000
    3.1301   15.7450    3.7667 C   0  0  0  0  0  0  0  0  0  0  0  0
    4.5805   15.5899    4.1937 C   0  0  0  0  0  0  0  0  0  0  0  0
    5.3065   16.8457    4.1556 N   0  0  0  0  0  0  0  0  0  0  0  0
    5.5060   17.6597    5.3273 C   0  0  0  0  0  0  0  0  0  0  0  0
    6.1477   18.9166    4.7624 C   0  0  2  0  0  0  0  0  0  0  0  0
    6.9745   18.3921    3.5829 C   0  0  0  0  0  0  0  0  0  0  0  0
    6.2054   17.1688    3.1456 C   0  0  0  0  0  0  0  0  0  0  0  0
    6.3907   16.5503    2.1109 O   0  0  0  0  0  0  0  0  0  0  0  0
    6.9679   19.6775    5.7892 C   0  0  0  0  0  0  0  0  0  0  0  0
    8.2001   19.0115    6.0269 O   0  0  0  0  0  0  0  0  0  0  0  0
    8.0032   18.1436    6.4204 H   0  0  0  0  0  0  0  0  0  0  0  0
  1  2  1  0  0  0  0
  2  3  1  0  0  0  0
  3  4  1  0  0  0  0
  3  7  1  0  0  0  0
  4  5  1  0  0  0  0
  5  6  1  0  0  0  0
  5  9  1  1  0  0  0
  6  7  1  0  0  0  0
  7  8  2  0  0  0  0
  9 10  1  0  0  0  0
 10 11  1  0  0  0  0
M  END
>  <CHROM.0>
-54.55049941,-63.36010070,-61.86757965,-44.47302958,-56.01495410,-64.89635262
-65.86449220,-173.13995756,-168.40364319

>  <CHROM.1>
97.22409459,75.29260078,-64.04461217,5.96789205,17.54927299,4.30422259,2.39325555
-0.55981176,-2.05436917

>  <Name>
P64104804

>  <RI>
3.1908e+07

>  <Rbt.Current_Directory>
/home/fstefaniak/projects/zuza/docking/adenine/4XNR

>  <Rbt.Executable>
rbdock ($Id: //depot/dev/client3/rdock/2013.1/src/exe/rbdock.cxx#4 $)

>  <Rbt.Library>
libRbt.so (2013.1, Build901 2013/11/27)

>  <Rbt.Parameter_File>
/home/fstefaniak/progs/rDock//data/scripts/dock_solv.prm

>  <Rbt.Receptor>
4xnr.prm

>  <SCORE>
-48.9297

>  <SCORE.INTER>
-27.6828

>  <SCORE.INTER.CONST>
1

>  <SCORE.INTER.POLAR>
-3.21173

>  <SCORE.INTER.ROT>
2

>  <SCORE.INTER.SOLV>
10.6629

>  <SCORE.INTER.VDW>
-16.237

>  <SCORE.INTER.norm>
-2.76828

>  <SCORE.INTRA>
-0.590061

>  <SCORE.INTRA.DIHEDRAL>
-1.64798

>  <SCORE.INTRA.DIHEDRAL.0>
3.70616

>  <SCORE.INTRA.POLAR>
0

>  <SCORE.INTRA.POLAR.0>
0

>  <SCORE.INTRA.REPUL>
0

>  <SCORE.INTRA.REPUL.0>
0

>  <SCORE.INTRA.SOLV>
0.343539

>  <SCORE.INTRA.SOLV.lig_0>
-11.2307

>  <SCORE.INTRA.VDW>
0.0621588

>  <SCORE.INTRA.VDW.0>
-0.031674

>  <SCORE.INTRA.norm>
-0.0590061

>  <SCORE.RESTR>
0

>  <SCORE.RESTR.CAVITY>
0

>  <SCORE.RESTR.norm>
0

>  <SCORE.SYSTEM>
-20.6569

>  <SCORE.SYSTEM.CONST>
0

>  <SCORE.SYSTEM.DIHEDRAL>
4.57875

>  <SCORE.SYSTEM.POLAR>
-3.06392

>  <SCORE.SYSTEM.SOLV>
0.167524

>  <SCORE.SYSTEM.VDW>
-5.14026

>  <SCORE.SYSTEM.norm>
-2.06569

>  <SCORE.heavy>
10

>  <SCORE.norm>
-4.89297

$$$$
P64104804
 OpenBabel12072022113D
libRbt.so/2013.1/901 2013/11/27
 11 11  0  0  0  0  0  0  0  0999 V2000
    3.0687   15.6613    3.8044 C   0  0  0  0  0  0  0  0  0  0  0  0
    4.5647   15.6095    4.0674 C   0  0  0  0  0  0  0  0  0  0  0  0
    5.1702   16.9281    4.0842 N   0  0  0  0  0  0  0  0  0  0  0  0
    5.5287   17.5991    5.3075 C   0  0  0  0  0  0  0  0  0  0  0  0
    5.9499   18.9785    4.8273 C   0  0  2  0  0  0  0  0  0  0  0  0
    6.5713   18.7005    3.4538 C   0  0  0  0  0  0  0  0  0  0  0  0
    5.8293   17.4712    2.9873 C   0  0  0  0  0  0  0  0  0  0  0  0
    5.8585   17.0151    1.8565 O   0  0  0  0  0  0  0  0  0  0  0  0
    6.8916   19.6804    5.7899 C   0  0  0  0  0  0  0  0  0  0  0  0
    8.1306   18.9889    5.8590 O   0  0  0  0  0  0  0  0  0  0  0  0
    7.9650   18.1102    6.2429 H   0  0  0  0  0  0  0  0  0  0  0  0
  1  2  1  0  0  0  0
  2  3  1  0  0  0  0
  3  4  1  0  0  0  0
  3  7  1  0  0  0  0
  4  5  1  0  0  0  0
  5  6  1  0  0  0  0
  5  9  1  1  0  0  0
  6  7  1  0  0  0  0
  7  8  2  0  0  0  0
  9 10  1  0  0  0  0
 10 11  1  0  0  0  0
M  END
>  <CHROM.0>
-55.83185425,-62.24242414,-67.73742263,-48.19553346,-59.53531327,-65.78125755
-66.53496767,-60.63843505,-168.64284809

>  <CHROM.1>
102.67164383,66.01088642,-64.74685437,5.78480532,17.65520008,4.21846983,2.56151222
-0.72370800,-1.76650446

>  <Name>
P64104804

>  <RI>
3.1908e+07

>  <Rbt.Current_Directory>
/home/fstefaniak/projects/zuza/docking/adenine/4XNR

>  <Rbt.Executable>
rbdock ($Id: //depot/dev/client3/rdock/2013.1/src/exe/rbdock.cxx#4 $)

>  <Rbt.Library>
libRbt.so (2013.1, Build901 2013/11/27)

>  <Rbt.Parameter_File>
/home/fstefaniak/progs/rDock//data/scripts/dock_solv.prm

>  <Rbt.Receptor>
4xnr.prm

>  <SCORE>
-48.7919

>  <SCORE.INTER>
-26.9205

>  <SCORE.INTER.CONST>
1

>  <SCORE.INTER.POLAR>
-3.11999

>  <SCORE.INTER.ROT>
2

>  <SCORE.INTER.SOLV>
10.1426

>  <SCORE.INTER.VDW>
-15.8612

>  <SCORE.INTER.norm>
-2.69205

>  <SCORE.INTRA>
-0.985684

>  <SCORE.INTRA.DIHEDRAL>
-2.28697

>  <SCORE.INTRA.DIHEDRAL.0>
3.70616

>  <SCORE.INTRA.POLAR>
0

>  <SCORE.INTRA.POLAR.0>
0

>  <SCORE.INTRA.REPUL>
0

>  <SCORE.INTRA.REPUL.0>
0

>  <SCORE.INTRA.SOLV>
0.368535

>  <SCORE.INTRA.SOLV.lig_0>
-11.2307

>  <SCORE.INTRA.VDW>
-0.0264696

>  <SCORE.INTRA.VDW.0>
-0.031674

>  <SCORE.INTRA.norm>
-0.0985684

>  <SCORE.RESTR>
0

>  <SCORE.RESTR.CAVITY>
0

>  <SCORE.RESTR.norm>
0

>  <SCORE.SYSTEM>
-20.8858

>  <SCORE.SYSTEM.CONST>
0

>  <SCORE.SYSTEM.DIHEDRAL>
4.07605

>  <SCORE.SYSTEM.POLAR>
-2.9742

>  <SCORE.SYSTEM.SOLV>
0.277348

>  <SCORE.SYSTEM.VDW>
-5.46099

>  <SCORE.SYSTEM.norm>
-2.08858

>  <SCORE.heavy>
10

>  <SCORE.norm>
-4.87919

$$$$
P64104804
 OpenBabel12072022113D
libRbt.so/2013.1/901 2013/11/27
 11 11  0  0  0  0  0  0  0  0999 V2000
    3.1903   15.5789    3.7737 C   0  0  0  0  0  0  0  0  0  0  0  0
    4.6379   15.5212    4.2331 C   0  0  0  0  0  0  0  0  0  0  0  0
    5.2891   16.8168    4.1766 N   0  0  0  0  0  0  0  0  0  0  0  0
    5.4629   17.6466    5.3413 C   0  0  0  0  0  0  0  0  0  0  0  0
    6.0200   18.9358    4.7596 C   0  0  2  0  0  0  0  0  0  0  0  0
    6.8536   18.4544    3.5666 C   0  0  0  0  0  0  0  0  0  0  0  0
    6.1486   17.1865    3.1485 C   0  0  0  0  0  0  0  0  0  0  0  0
    6.3501   16.5748    2.1127 O   0  0  0  0  0  0  0  0  0  0  0  0
    6.8138   19.7478    5.7678 C   0  0  0  0  0  0  0  0  0  0  0  0
    8.1302   19.2284    5.8915 O   0  0  0  0  0  0  0  0  0  0  0  0
    8.5777   19.7078    6.6103 H   0  0  0  0  0  0  0  0  0  0  0  0
  1  2  1  0  0  0  0
  2  3  1  0  0  0  0
  3  4  1  0  0  0  0
  3  7  1  0  0  0  0
  4  5  1  0  0  0  0
  5  6  1  0  0  0  0
  5  9  1  1  0  0  0
  6  7  1  0  0  0  0
  7  8  2  0  0  0  0
  9 10  1  0  0  0  0
 10 11  1  0  0  0  0
M  END
>  <CHROM.0>
-55.99278151,-61.99151511,-65.93813791,-47.67816962,-176.71879332,-65.62285953
-68.83184159,-178.38690823,-168.24971817

>  <CHROM.1>
99.78550075,80.71142628,-173.98304636,5.92230906,17.57523397,4.29496412,2.37721992
-0.61395666,-2.08132420

>  <Name>
P64104804

>  <RI>
3.1908e+07

>  <Rbt.Current_Directory>
/home/fstefaniak/projects/zuza/docking/adenine/4XNR

>  <Rbt.Executable>
rbdock ($Id: //depot/dev/client3/rdock/2013.1/src/exe/rbdock.cxx#4 $)

>  <Rbt.Library>
libRbt.so (2013.1, Build901 2013/11/27)

>  <Rbt.Parameter_File>
/home/fstefaniak/progs/rDock//data/scripts/dock_solv.prm

>  <Rbt.Receptor>
4xnr.prm

>  <SCORE>
-48.2264

>  <SCORE.INTER>
-27.1314

>  <SCORE.INTER.CONST>
1

>  <SCORE.INTER.POLAR>
-2.88848

>  <SCORE.INTER.ROT>
2

>  <SCORE.INTER.SOLV>
10.8448

>  <SCORE.INTER.VDW>
-17.0076

>  <SCORE.INTER.norm>
-2.71314

>  <SCORE.INTRA>
-0.159184

>  <SCORE.INTRA.DIHEDRAL>
-0.970297

>  <SCORE.INTRA.DIHEDRAL.0>
3.70616

>  <SCORE.INTRA.POLAR>
0

>  <SCORE.INTRA.POLAR.0>
0

>  <SCORE.INTRA.REPUL>
0

>  <SCORE.INTRA.REPUL.0>
0

>  <SCORE.INTRA.SOLV>
0.420077

>  <SCORE.INTRA.SOLV.lig_0>
-11.2307

>  <SCORE.INTRA.VDW>
0.115925

>  <SCORE.INTRA.VDW.0>
-0.031674

>  <SCORE.INTRA.norm>
-0.0159184

>  <SCORE.RESTR>
0

>  <SCORE.RESTR.CAVITY>
0

>  <SCORE.RESTR.norm>
0

>  <SCORE.SYSTEM>
-20.9358

>  <SCORE.SYSTEM.CONST>
0

>  <SCORE.SYSTEM.DIHEDRAL>
4.25638

>  <SCORE.SYSTEM.POLAR>
-2.99389

>  <SCORE.SYSTEM.SOLV>
-0.0329704

>  <SCORE.SYSTEM.VDW>
-5.3854

>  <SCORE.SYSTEM.norm>
-2.09358

>  <SCORE.heavy>
10

>  <SCORE.norm>
-4.82264

$$$$
P64169147
 OpenBabel12072022113D
libRbt.so/2013.1/901 2013/11/27
 19 19  0  0  0  0  0  0  0  0999 V2000
    4.1044   14.3670    4.2112 C   0  0  0  0  0  0  0  0  0  0  0  0
    2.7980   13.5924    4.3772 C   0  0  2  0  0  0  0  0  0  0  0  0
    2.8149   12.4163    3.3775 C   0  0  0  0  0  0  0  0  0  0  0  0
    1.5509   11.5597    3.4489 C   0  0  0  0  0  0  0  0  0  0  0  0
    0.2697   12.3836    3.2930 C   0  0  1  0  0  0  0  0  0  0  0  0
    0.2841   13.5604    4.2680 C   0  0  0  0  0  0  0  0  0  0  0  0
    1.5326   14.3777    4.1659 N   0  0  0  0  0  0  0  0  0  0  0  0
    1.4292   15.7092    3.8665 C   0  0  0  0  0  0  0  0  0  0  0  0
    0.4532   16.1591    3.0672 N   0  3  0  0  0  0  0  0  0  0  0  0
    0.3238   17.1342    2.8458 H   0  0  0  0  0  0  0  0  0  0  0  0
   -0.0298   15.4844    2.4615 H   0  0  0  0  0  0  0  0  0  0  0  0
    2.2669   16.6242    4.3719 N   0  0  0  0  0  0  0  0  0  0  0  0
    0.0356   12.8867    1.8760 C   0  0  0  0  0  0  0  0  0  0  0  0
    0.8040   13.6620    1.3091 O   0  0  0  0  0  0  0  0  0  0  0  0
   -1.1008   12.4593    1.2657 N   0  0  0  0  0  0  0  0  0  0  0  0
    2.8866   16.3922    5.1332 H   0  0  0  0  0  0  0  0  0  0  0  0
    2.2031   17.5972    4.1068 H   0  0  0  0  0  0  0  0  0  0  0  0
   -1.8343   11.9470    1.7400 H   0  0  0  0  0  0  0  0  0  0  0  0
   -1.3167   12.8189    0.3423 H   0  0  0  0  0  0  0  0  0  0  0  0
  2  3  1  0  0  0  0
  2  7  1  0  0  0  0
  2  1  1  6  0  0  0
  3  4  1  0  0  0  0
  4  5  1  0  0  0  0
  5  6  1  0  0  0  0
  5 13  1  6  0  0  0
  6  7  1  0  0  0  0
  7  8  1  0  0  0  0
  8  9  2  0  0  0  0
  8 12  1  0  0  0  0
  9 10  1  0  0  0  0
  9 11  1  0  0  0  0
 12 16  1  0  0  0  0
 12 17  1  0  0  0  0
 13 14  2  0  0  0  0
 13 15  1  0  0  0  0
 15 18  1  0  0  0  0
 15 19  1  0  0  0  0
M  CHG  1   9   1
M  END
>  <CHROM.0>
-55.10773264,-63.63226013,-66.53253659,-47.38690316,-58.77248736,-62.94309092
-67.86447751,-59.09803622,-167.80944609

>  <CHROM.1>
-62.63459048,1.31567531,13.87287859,3.26989196,-0.79214720,0.57142360,-2.97197099

>  <Name>
P64169147

>  <RI>
3.58524e+07

>  <Rbt.Current_Directory>
/home/fstefaniak/projects/zuza/docking/adenine/4XNR

>  <Rbt.Executable>
rbdock ($Id: //depot/dev/client3/rdock/2013.1/src/exe/rbdock.cxx#4 $)

>  <Rbt.Library>
libRbt.so (2013.1, Build901 2013/11/27)

>  <Rbt.Parameter_File>
/home/fstefaniak/progs/rDock//data/scripts/dock_solv.prm

>  <Rbt.Receptor>
4xnr.prm

>  <SCORE>
-43.5426

>  <SCORE.INTER>
-27.5956

>  <SCORE.INTER.CONST>
1

>  <SCORE.INTER.POLAR>
-4.53459

>  <SCORE.INTER.ROT>
1

>  <SCORE.INTER.SOLV>
17.5396

>  <SCORE.INTER.VDW>
-13.395

>  <SCORE.INTER.norm>
-2.12274

>  <SCORE.INTRA>
4.09754

>  <SCORE.INTRA.DIHEDRAL>
3.29075

>  <SCORE.INTRA.DIHEDRAL.0>
0.558727

>  <SCORE.INTRA.POLAR>
1.08531

>  <SCORE.INTRA.POLAR.0>
-1.16588

>  <SCORE.INTRA.REPUL>
0

>  <SCORE.INTRA.REPUL.0>
0

>  <SCORE.INTRA.SOLV>
-0.344158

>  <SCORE.INTRA.SOLV.lig_0>
-30.4319

>  <SCORE.INTRA.VDW>
-1.06581

>  <SCORE.INTRA.VDW.0>
0.101403

>  <SCORE.INTRA.norm>
0.315195

>  <SCORE.RESTR>
0.877468

>  <SCORE.RESTR.CAVITY>
0.877468

>  <SCORE.RESTR.norm>
0.0674975

>  <SCORE.SYSTEM>
-20.922

>  <SCORE.SYSTEM.CONST>
0

>  <SCORE.SYSTEM.DIHEDRAL>
4.2216

>  <SCORE.SYSTEM.POLAR>
-3.0089

>  <SCORE.SYSTEM.SOLV>
0.286471

>  <SCORE.SYSTEM.VDW>
-5.42099

>  <SCORE.SYSTEM.norm>
-1.60938

>  <SCORE.heavy>
13

>  <SCORE.norm>
-3.34943

$$$$
P64169147
 OpenBabel12072022113D
libRbt.so/2013.1/901 2013/11/27
 19 19  0  0  0  0  0  0  0  0999 V2000
    4.1244   14.3276    4.1563 C   0  0  0  0  0  0  0  0  0  0  0  0
    2.8124   13.5662    4.3388 C   0  0  2  0  0  0  0  0  0  0  0  0
    2.7955   12.4027    3.3244 C   0  0  0  0  0  0  0  0  0  0  0  0
    1.5230   11.5601    3.4104 C   0  0  0  0  0  0  0  0  0  0  0  0
    0.2489   12.4008    3.2906 C   0  0  1  0  0  0  0  0  0  0  0  0
    0.2967   13.5649    4.2796 C   0  0  0  0  0  0  0  0  0  0  0  0
    1.5525   14.3688    4.1627 N   0  0  0  0  0  0  0  0  0  0  0  0
    1.4590   15.7051    3.8820 C   0  0  0  0  0  0  0  0  0  0  0  0
    0.4728   16.1765    3.1082 N   0  3  0  0  0  0  0  0  0  0  0  0
    0.3506   17.1557    2.9016 H   0  0  0  0  0  0  0  0  0  0  0  0
   -0.0303   15.5151    2.5039 H   0  0  0  0  0  0  0  0  0  0  0  0
    2.3174   16.6038    4.3820 N   0  0  0  0  0  0  0  0  0  0  0  0
   -0.0074   12.9246    1.8849 C   0  0  0  0  0  0  0  0  0  0  0  0
    0.7298   13.7402    1.3334 O   0  0  0  0  0  0  0  0  0  0  0  0
   -1.1283   12.4675    1.2674 N   0  0  0  0  0  0  0  0  0  0  0  0
    2.9494   16.3550    5.1278 H   0  0  0  0  0  0  0  0  0  0  0  0
    2.2599   17.5808    4.1304 H   0  0  0  0  0  0  0  0  0  0  0  0
   -1.8407   11.9179    1.7319 H   0  0  0  0  0  0  0  0  0  0  0  0
   -1.3598   12.8381    0.3521 H   0  0  0  0  0  0  0  0  0  0  0  0
  2  3  1  0  0  0  0
  2  7  1  0  0  0  0
  2  1  1  6  0  0  0
  3  4  1  0  0  0  0
  4  5  1  0  0  0  0
  5  6  1  0  0  0  0
  5 13  1  6  0  0  0
  6  7  1  0  0  0  0
  7  8  1  0  0  0  0
  8  9  2  0  0  0  0
  8 12  1  0  0  0  0
  9 10  1  0  0  0  0
  9 11  1  0  0  0  0
 12 16  1  0  0  0  0
 12 17  1  0  0  0  0
 13 14  2  0  0  0  0
 13 15  1  0  0  0  0
 15 18  1  0  0  0  0
 15 19  1  0  0  0  0
M  CHG  1   9   1
M  END
>  <CHROM.0>
-55.49653478,-61.09076159,-69.83362197,-46.39577864,-56.01277907,-62.99019601
-69.54645587,-59.59033092,-169.10498043

>  <CHROM.1>
-65.69889581,1.31218049,13.87698225,3.26459450,-0.77946487,0.55766195,-2.97109192

>  <Name>
P64169147

>  <RI>
3.58524e+07

>  <Rbt.Current_Directory>
/home/fstefaniak/projects/zuza/docking/adenine/4XNR

>  <Rbt.Executable>
rbdock ($Id: //depot/dev/client3/rdock/2013.1/src/exe/rbdock.cxx#4 $)

>  <Rbt.Library>
libRbt.so (2013.1, Build901 2013/11/27)

>  <Rbt.Parameter_File>
/home/fstefaniak/progs/rDock//data/scripts/dock_solv.prm

>  <Rbt.Receptor>
4xnr.prm

>  <SCORE>
-43.529

>  <SCORE.INTER>
-27.6773

>  <SCORE.INTER.CONST>
1

>  <SCORE.INTER.POLAR>
-4.48293

>  <SCORE.INTER.ROT>
1

>  <SCORE.INTER.SOLV>
17.4427

>  <SCORE.INTER.VDW>
-13.5893

>  <SCORE.INTER.norm>
-2.12903

>  <SCORE.INTRA>
4.05492

>  <SCORE.INTRA.DIHEDRAL>
3.26624

>  <SCORE.INTRA.DIHEDRAL.0>
0.558727

>  <SCORE.INTRA.POLAR>
1.06482

>  <SCORE.INTRA.POLAR.0>
-1.16588

>  <SCORE.INTRA.REPUL>
0

>  <SCORE.INTRA.REPUL.0>
0

>  <SCORE.INTRA.SOLV>
-0.311226

>  <SCORE.INTRA.SOLV.lig_0>
-30.4319

>  <SCORE.INTRA.VDW>
-1.04297

>  <SCORE.INTRA.VDW.0>
0.101403

>  <SCORE.INTRA.norm>
0.311917

>  <SCORE.RESTR>
0.885615

>  <SCORE.RESTR.CAVITY>
0.885615

>  <SCORE.RESTR.norm>
0.0681242

>  <SCORE.SYSTEM>
-20.7922

>  <SCORE.SYSTEM.CONST>
0

>  <SCORE.SYSTEM.DIHEDRAL>
4.56711

>  <SCORE.SYSTEM.POLAR>
-2.9968

>  <SCORE.SYSTEM.SOLV>
0.281858

>  <SCORE.SYSTEM.VDW>
-5.48845

>  <SCORE.SYSTEM.norm>
-1.5994

>  <SCORE.heavy>
13

>  <SCORE.norm>
-3.34838

$$$$
P64169147
 OpenBabel12072022113D
libRbt.so/2013.1/901 2013/11/27
 19 19  0  0  0  0  0  0  0  0999 V2000
    4.1198   14.3097    4.1588 C   0  0  0  0  0  0  0  0  0  0  0  0
    2.8039   13.5554    4.3417 C   0  0  2  0  0  0  0  0  0  0  0  0
    2.7831   12.3884    3.3314 C   0  0  0  0  0  0  0  0  0  0  0  0
    1.5064   11.5523    3.4182 C   0  0  0  0  0  0  0  0  0  0  0  0
    0.2366   12.3988    3.2930 C   0  0  1  0  0  0  0  0  0  0  0  0
    0.2883   13.5661    4.2780 C   0  0  0  0  0  0  0  0  0  0  0  0
    1.5482   14.3635    4.1605 N   0  0  0  0  0  0  0  0  0  0  0  0
    1.4617   15.6992    3.8749 C   0  0  0  0  0  0  0  0  0  0  0  0
    0.4791   16.1726    3.0977 N   0  3  0  0  0  0  0  0  0  0  0  0
    0.3620   17.1517    2.8874 H   0  0  0  0  0  0  0  0  0  0  0  0
   -0.0261   15.5116    2.4949 H   0  0  0  0  0  0  0  0  0  0  0  0
    2.3236   16.5955    4.3732 N   0  0  0  0  0  0  0  0  0  0  0  0
   -0.0147   12.9187    1.8851 C   0  0  0  0  0  0  0  0  0  0  0  0
    0.7166   13.7436    1.3394 O   0  0  0  0  0  0  0  0  0  0  0  0
   -1.1245   12.4471    1.2584 N   0  0  0  0  0  0  0  0  0  0  0  0
    2.9530   16.3462    5.1210 H   0  0  0  0  0  0  0  0  0  0  0  0
    2.2712   17.5718    4.1180 H   0  0  0  0  0  0  0  0  0  0  0  0
   -1.8336   11.8886    1.7172 H   0  0  0  0  0  0  0  0  0  0  0  0
   -1.3530   12.8145    0.3411 H   0  0  0  0  0  0  0  0  0  0  0  0
  2  3  1  0  0  0  0
  2  7  1  0  0  0  0
  2  1  1  6  0  0  0
  3  4  1  0  0  0  0
  4  5  1  0  0  0  0
  5  6  1  0  0  0  0
  5 13  1  6  0  0  0
  6  7  1  0  0  0  0
  7  8  1  0  0  0  0
  8  9  2  0  0  0  0
  8 12  1  0  0  0  0
  9 10  1  0  0  0  0
  9 11  1  0  0  0  0
 12 16  1  0  0  0  0
 12 17  1  0  0  0  0
 13 14  2  0  0  0  0
 13 15  1  0  0  0  0
 15 18  1  0  0  0  0
 15 19  1  0  0  0  0
M  CHG  1   9   1
M  END
>  <CHROM.0>
-57.96098949,-59.79910681,-65.38843224,-45.66990091,-56.55979250,-61.39698421
-69.61020851,-53.20063442,-168.04926178

>  <CHROM.1>
-66.79421361,1.30721656,13.86927231,3.26356017,-0.77609304,0.56160721,-2.97814045

>  <Name>
P64169147

>  <RI>
3.58524e+07

>  <Rbt.Current_Directory>
/home/fstefaniak/projects/zuza/docking/adenine/4XNR

>  <Rbt.Executable>
rbdock ($Id: //depot/dev/client3/rdock/2013.1/src/exe/rbdock.cxx#4 $)

>  <Rbt.Library>
libRbt.so (2013.1, Build901 2013/11/27)

>  <Rbt.Parameter_File>
/home/fstefaniak/progs/rDock//data/scripts/dock_solv.prm

>  <Rbt.Receptor>
4xnr.prm

>  <SCORE>
-43.476

>  <SCORE.INTER>
-27.6584

>  <SCORE.INTER.CONST>
1

>  <SCORE.INTER.POLAR>
-4.46359

>  <SCORE.INTER.ROT>
1

>  <SCORE.INTER.SOLV>
17.3694

>  <SCORE.INTER.VDW>
-13.6167

>  <SCORE.INTER.norm>
-2.12757

>  <SCORE.INTRA>
4.03049

>  <SCORE.INTRA.DIHEDRAL>
3.24729

>  <SCORE.INTRA.DIHEDRAL.0>
0.558727

>  <SCORE.INTRA.POLAR>
1.05745

>  <SCORE.INTRA.POLAR.0>
-1.16588

>  <SCORE.INTRA.REPUL>
0

>  <SCORE.INTRA.REPUL.0>
0

>  <SCORE.INTRA.SOLV>
-0.299632

>  <SCORE.INTRA.SOLV.lig_0>
-30.4319

>  <SCORE.INTRA.VDW>
-1.03866

>  <SCORE.INTRA.VDW.0>
0.101403

>  <SCORE.INTRA.norm>
0.310038

>  <SCORE.RESTR>
0.898743

>  <SCORE.RESTR.CAVITY>
0.898743

>  <SCORE.RESTR.norm>
0.0691341

>  <SCORE.SYSTEM>
-20.7468

>  <SCORE.SYSTEM.CONST>
0

>  <SCORE.SYSTEM.DIHEDRAL>
4.54101

>  <SCORE.SYSTEM.POLAR>
-3.03388

>  <SCORE.SYSTEM.SOLV>
0.2973

>  <SCORE.SYSTEM.VDW>
-5.33107

>  <SCORE.SYSTEM.norm>
-1.59591

>  <SCORE.heavy>
13

>  <SCORE.norm>
-3.34431

$$$$
P64169151
 OpenBabel12072022113D
libRbt.so/2013.1/901 2013/11/27
 19 19  0  0  0  0  0  0  0  0999 V2000
    5.0488   15.7197    4.5652 C   0  0  0  0  0  0  0  0  0  0  0  0
    3.9601   15.2243    3.6189 C   0  0  0  0  0  0  0  0  0  0  0  0
    2.9383   16.2857    3.3850 N   0  0  0  0  0  0  0  0  0  0  0  0
    3.5097   17.5801    2.9184 C   0  0  0  0  0  0  0  0  0  0  0  0
    4.6288   18.0709    3.8376 C   0  0  0  0  0  0  0  0  0  0  0  0
    5.7185   17.0115    4.0682 C   0  0  0  0  0  0  0  0  0  0  0  0
    6.5777   16.8172    2.8056 C   0  0  0  0  0  0  0  0  0  0  0  0
    7.1902   18.1123    2.3267 C   0  0  0  0  0  0  0  0  0  0  0  0
    7.2837   19.0961    3.0519 O   0  0  0  0  0  0  0  0  0  0  0  0
    7.5573   18.1443    1.0181 N   0  0  0  0  0  0  0  0  0  0  0  0
    1.5927   16.0682    3.5390 C   0  0  0  0  0  0  0  0  0  0  0  0
    0.6821   17.0503    3.3875 N   0  3  0  0  0  0  0  0  0  0  0  0
   -0.3069   16.8684    3.4937 H   0  0  0  0  0  0  0  0  0  0  0  0
    0.9337   18.0046    3.1801 H   0  0  0  0  0  0  0  0  0  0  0  0
    1.0898   14.8564    3.8468 N   0  0  0  0  0  0  0  0  0  0  0  0
    7.6542   17.3116    0.4528 H   0  0  0  0  0  0  0  0  0  0  0  0
    8.0161   18.9856    0.6874 H   0  0  0  0  0  0  0  0  0  0  0  0
    1.6649   14.0305    3.9247 H   0  0  0  0  0  0  0  0  0  0  0  0
    0.0970   14.7150    3.9758 H   0  0  0  0  0  0  0  0  0  0  0  0
  1  2  1  0  0  0  0
  1  6  1  0  0  0  0
  2  3  1  0  0  0  0
  3  4  1  0  0  0  0
  3 11  1  0  0  0  0
  4  5  1  0  0  0  0
  5  6  1  0  0  0  0
  6  7  1  0  0  0  0
  7  8  1  0  0  0  0
  8  9  2  0  0  0  0
  8 10  1  0  0  0  0
 10 16  1  0  0  0  0
 10 17  1  0  0  0  0
 11 12  2  0  0  0  0
 11 15  1  0  0  0  0
 12 13  1  0  0  0  0
 12 14  1  0  0  0  0
 15 18  1  0  0  0  0
 15 19  1  0  0  0  0
M  CHG  1  12   1
M  END
>  <CHROM.0>
-54.58629358,55.58903746,-66.02708074,-46.24182358,-60.07848926,-61.87917623
-66.64526579,-175.84791094,-168.65965538

>  <CHROM.1>
178.53105152,18.21482287,4.42265159,16.93621046,3.23889433,-2.71284633,0.02071619
-0.46769235

>  <Name>
P64169151

>  <RI>
3.58524e+07

>  <Rbt.Current_Directory>
/home/fstefaniak/projects/zuza/docking/adenine/4XNR

>  <Rbt.Executable>
rbdock ($Id: //depot/dev/client3/rdock/2013.1/src/exe/rbdock.cxx#4 $)

>  <Rbt.Library>
libRbt.so (2013.1, Build901 2013/11/27)

>  <Rbt.Parameter_File>
/home/fstefaniak/progs/rDock//data/scripts/dock_solv.prm

>  <Rbt.Receptor>
4xnr.prm

>  <SCORE>
-42.029

>  <SCORE.INTER>
-22.8669

>  <SCORE.INTER.CONST>
1

>  <SCORE.INTER.POLAR>
-4.19164

>  <SCORE.INTER.ROT>
2

>  <SCORE.INTER.SOLV>
20.56

>  <SCORE.INTER.VDW>
-13.0592

>  <SCORE.INTER.norm>
-1.75899

>  <SCORE.INTRA>
0.781915

>  <SCORE.INTRA.DIHEDRAL>
-0.142269

>  <SCORE.INTRA.DIHEDRAL.0>
1.72755

>  <SCORE.INTRA.POLAR>
0

>  <SCORE.INTRA.POLAR.0>
0

>  <SCORE.INTRA.REPUL>
0

>  <SCORE.INTRA.REPUL.0>
0

>  <SCORE.INTRA.SOLV>
-0.0323331

>  <SCORE.INTRA.SOLV.lig_0>
-34.0893

>  <SCORE.INTRA.VDW>
0.869217

>  <SCORE.INTRA.VDW.0>
-0.723727

>  <SCORE.INTRA.norm>
0.0601473

>  <SCORE.RESTR>
0

>  <SCORE.RESTR.CAVITY>
0

>  <SCORE.RESTR.norm>
0

>  <SCORE.SYSTEM>
-19.9439

>  <SCORE.SYSTEM.CONST>
0

>  <SCORE.SYSTEM.DIHEDRAL>
4.26129

>  <SCORE.SYSTEM.POLAR>
-3.02681

>  <SCORE.SYSTEM.SOLV>
0.252364

>  <SCORE.SYSTEM.VDW>
-4.71113

>  <SCORE.SYSTEM.norm>
-1.53415

>  <SCORE.heavy>
13

>  <SCORE.norm>
-3.233

$$$$
P64169151
 OpenBabel12072022113D
libRbt.so/2013.1/901 2013/11/27
 19 19  0  0  0  0  0  0  0  0999 V2000
    3.4790   17.3884    3.0601 C   0  0  0  0  0  0  0  0  0  0  0  0
    2.6309   16.4924    3.9567 C   0  0  0  0  0  0  0  0  0  0  0  0
    3.0761   15.0720    3.8596 N   0  0  0  0  0  0  0  0  0  0  0  0
    4.5296   14.8766    4.1224 C   0  0  0  0  0  0  0  0  0  0  0  0
    5.3917   15.7958    3.2565 C   0  0  0  0  0  0  0  0  0  0  0  0
    4.9818   17.2734    3.3642 C   0  0  0  0  0  0  0  0  0  0  0  0
    5.3841   17.8614    4.7289 C   0  0  0  0  0  0  0  0  0  0  0  0
    6.3826   18.9869    4.5939 C   0  0  0  0  0  0  0  0  0  0  0  0
    7.0796   19.1230    3.5949 O   0  0  0  0  0  0  0  0  0  0  0  0
    6.5174   19.7911    5.6816 N   0  0  0  0  0  0  0  0  0  0  0  0
    2.2118   14.0387    3.6009 C   0  0  0  0  0  0  0  0  0  0  0  0
    2.6331   12.7671    3.4516 N   0  3  0  0  0  0  0  0  0  0  0  0
    1.9797   12.0165    3.2727 H   0  0  0  0  0  0  0  0  0  0  0  0
    3.6055   12.5028    3.4934 H   0  0  0  0  0  0  0  0  0  0  0  0
    0.8821   14.2243    3.4841 N   0  0  0  0  0  0  0  0  0  0  0  0
    5.8461   19.8124    6.4374 H   0  0  0  0  0  0  0  0  0  0  0  0
    7.1451   20.5826    5.5961 H   0  0  0  0  0  0  0  0  0  0  0  0
    0.4405   15.1191    3.6363 H   0  0  0  0  0  0  0  0  0  0  0  0
    0.2592   13.4561    3.2745 H   0  0  0  0  0  0  0  0  0  0  0  0
  1  2  1  0  0  0  0
  1  6  1  0  0  0  0
  2  3  1  0  0  0  0
  3  4  1  0  0  0  0
  3 11  1  0  0  0  0
  4  5  1  0  0  0  0
  5  6  1  0  0  0  0
  6  7  1  0  0  0  0
  7  8  1  0  0  0  0
  8  9  2  0  0  0  0
  8 10  1  0  0  0  0
 10 16  1  0  0  0  0
 10 17  1  0  0  0  0
 11 12  2  0  0  0  0
 11 15  1  0  0  0  0
 12 13  1  0  0  0  0
 12 14  1  0  0  0  0
 15 18  1  0  0  0  0
 15 19  1  0  0  0  0
M  CHG  1  12   1
M  END
>  <CHROM.0>
-55.82379376,-63.20267800,-67.13307792,-45.80652239,-64.06885379,-64.05052993
-69.52255717,-175.57634174,-168.61662300

>  <CHROM.1>
-119.74744500,-20.93653956,4.23637788,16.43265526,3.91203889,0.88187186,0.02408190
0.21489076

>  <Name>
P64169151

>  <RI>
3.58524e+07

>  <Rbt.Current_Directory>
/home/fstefaniak/projects/zuza/docking/adenine/4XNR

>  <Rbt.Executable>
rbdock ($Id: //depot/dev/client3/rdock/2013.1/src/exe/rbdock.cxx#4 $)

>  <Rbt.Library>
libRbt.so (2013.1, Build901 2013/11/27)

>  <Rbt.Parameter_File>
/home/fstefaniak/progs/rDock//data/scripts/dock_solv.prm

>  <Rbt.Receptor>
4xnr.prm

>  <SCORE>
-40.8823

>  <SCORE.INTER>
-22.483

>  <SCORE.INTER.CONST>
1

>  <SCORE.INTER.POLAR>
-2.45552

>  <SCORE.INTER.ROT>
2

>  <SCORE.INTER.SOLV>
14.2255

>  <SCORE.INTER.VDW>
-16.4787

>  <SCORE.INTER.norm>
-1.72946

>  <SCORE.INTRA>
2.4511

>  <SCORE.INTRA.DIHEDRAL>
4.66831

>  <SCORE.INTRA.DIHEDRAL.0>
1.72755

>  <SCORE.INTRA.POLAR>
0

>  <SCORE.INTRA.POLAR.0>
0

>  <SCORE.INTRA.REPUL>
0

>  <SCORE.INTRA.REPUL.0>
0

>  <SCORE.INTRA.SOLV>
-0.388861

>  <SCORE.INTRA.SOLV.lig_0>
-34.0893

>  <SCORE.INTRA.VDW>
0.311377

>  <SCORE.INTRA.VDW.0>
-0.723727

>  <SCORE.INTRA.norm>
0.188546

>  <SCORE.RESTR>
0

>  <SCORE.RESTR.CAVITY>
0

>  <SCORE.RESTR.norm>
0

>  <SCORE.SYSTEM>
-20.8505

>  <SCORE.SYSTEM.CONST>
0

>  <SCORE.SYSTEM.DIHEDRAL>
4.63616

>  <SCORE.SYSTEM.POLAR>
-3.01421

>  <SCORE.SYSTEM.SOLV>
0.136769

>  <SCORE.SYSTEM.VDW>
-5.44393

>  <SCORE.SYSTEM.norm>
-1.60388

>  <SCORE.heavy>
13

>  <SCORE.norm>
-3.14479

$$$$
P64169151
 OpenBabel12072022113D
libRbt.so/2013.1/901 2013/11/27
 19 19  0  0  0  0  0  0  0  0999 V2000
    5.0835   15.6812    4.4620 C   0  0  0  0  0  0  0  0  0  0  0  0
    3.9706   15.2211    3.5263 C   0  0  0  0  0  0  0  0  0  0  0  0
    2.9445   16.2906    3.3572 N   0  0  0  0  0  0  0  0  0  0  0  0
    3.5056   17.6011    2.9238 C   0  0  0  0  0  0  0  0  0  0  0  0
    4.6482   18.0575    3.8315 C   0  0  0  0  0  0  0  0  0  0  0  0
    5.7421   16.9901    3.9956 C   0  0  0  0  0  0  0  0  0  0  0  0
    6.5688   16.8417    2.7054 C   0  0  0  0  0  0  0  0  0  0  0  0
    7.1882   18.1490    2.2705 C   0  0  0  0  0  0  0  0  0  0  0  0
    7.2812   19.1092    3.0266 O   0  0  0  0  0  0  0  0  0  0  0  0
    7.5624   18.2205    0.9654 N   0  0  0  0  0  0  0  0  0  0  0  0
    1.6030   16.0681    3.5373 C   0  0  0  0  0  0  0  0  0  0  0  0
    0.6901   17.0554    3.4449 N   0  3  0  0  0  0  0  0  0  0  0  0
   -0.2961   16.8701    3.5695 H   0  0  0  0  0  0  0  0  0  0  0  0
    0.9376   18.0166    3.2661 H   0  0  0  0  0  0  0  0  0  0  0  0
    1.1065   14.8461    3.8133 N   0  0  0  0  0  0  0  0  0  0  0  0
    7.6594   17.4056    0.3749 H   0  0  0  0  0  0  0  0  0  0  0  0
    8.0258   19.0702    0.6636 H   0  0  0  0  0  0  0  0  0  0  0  0
    1.6824   14.0177    3.8464 H   0  0  0  0  0  0  0  0  0  0  0  0
    0.1172   14.7005    3.9622 H   0  0  0  0  0  0  0  0  0  0  0  0
  1  2  1  0  0  0  0
  1  6  1  0  0  0  0
  2  3  1  0  0  0  0
  3  4  1  0  0  0  0
  3 11  1  0  0  0  0
  4  5  1  0  0  0  0
  5  6  1  0  0  0  0
  6  7  1  0  0  0  0
  7  8  1  0  0  0  0
  8  9  2  0  0  0  0
  8 10  1  0  0  0  0
 10 16  1  0  0  0  0
 10 17  1  0  0  0  0
 11 12  2  0  0  0  0
 11 15  1  0  0  0  0
 12 13  1  0  0  0  0
 12 14  1  0  0  0  0
 15 18  1  0  0  0  0
 15 19  1  0  0  0  0
M  CHG  1  12   1
M  END
>  <CHROM.0>
-54.17725096,-169.84029773,-65.55314086,-47.72402316,-58.42824458,-170.82837530
-66.98488644,-58.01457782,-168.67832724

>  <CHROM.1>
179.41778494,16.29382630,4.43164053,16.94413809,3.20093048,-2.70610727,0.04939520
-0.41796582

>  <Name>
P64169151

>  <RI>
3.58524e+07

>  <Rbt.Current_Directory>
/home/fstefaniak/projects/zuza/docking/adenine/4XNR

>  <Rbt.Executable>
rbdock ($Id: //depot/dev/client3/rdock/2013.1/src/exe/rbdock.cxx#4 $)

>  <Rbt.Library>
libRbt.so (2013.1, Build901 2013/11/27)

>  <Rbt.Parameter_File>
/home/fstefaniak/progs/rDock//data/scripts/dock_solv.prm

>  <Rbt.Receptor>
4xnr.prm

>  <SCORE>
-40.5387

>  <SCORE.INTER>
-21.0197

>  <SCORE.INTER.CONST>
1

>  <SCORE.INTER.POLAR>
-4.23136

>  <SCORE.INTER.ROT>
2

>  <SCORE.INTER.SOLV>
20.3085

>  <SCORE.INTER.VDW>
-11.6114

>  <SCORE.INTER.norm>
-1.6169

>  <SCORE.INTRA>
0.738854

>  <SCORE.INTRA.DIHEDRAL>
-0.219605

>  <SCORE.INTRA.DIHEDRAL.0>
1.72755

>  <SCORE.INTRA.POLAR>
0

>  <SCORE.INTRA.POLAR.0>
0

>  <SCORE.INTRA.REPUL>
0

>  <SCORE.INTRA.REPUL.0>
0

>  <SCORE.INTRA.SOLV>
-0.0447745

>  <SCORE.INTRA.SOLV.lig_0>
-34.0893

>  <SCORE.INTRA.VDW>
0.871043

>  <SCORE.INTRA.VDW.0>
-0.723727

>  <SCORE.INTRA.norm>
0.0568349

>  <SCORE.RESTR>
0

>  <SCORE.RESTR.CAVITY>
0

>  <SCORE.RESTR.norm>
0

>  <SCORE.SYSTEM>
-20.2578

>  <SCORE.SYSTEM.CONST>
0

>  <SCORE.SYSTEM.DIHEDRAL>
4.80908

>  <SCORE.SYSTEM.POLAR>
-3.00384

>  <SCORE.SYSTEM.SOLV>
0.156039

>  <SCORE.SYSTEM.VDW>
-5.14745

>  <SCORE.SYSTEM.norm>
-1.5583

>  <SCORE.heavy>
13

>  <SCORE.norm>
-3.11836

$$$$
P64253460
 OpenBabel12072022113D
libRbt.so/2013.1/901 2013/11/27
 17 17  0  0  0  0  0  0  0  0999 V2000
    5.6354   17.8945    3.0293 C   0  0  0  0  0  0  0  0  0  0  0  0
    5.0504   16.5177    2.7445 C   0  0  2  0  0  0  0  0  0  0  0  0
    4.0330   16.0936    3.8255 C   0  0  0  0  0  0  0  0  0  0  0  0
    3.5009   16.8730    4.6092 O   0  0  0  0  0  0  0  0  0  0  0  0
    3.8122   14.7306    3.8450 N   0  0  0  0  0  0  0  0  0  0  0  0
    2.8350   14.0988    4.7194 C   0  0  1  0  0  0  0  0  0  0  0  0
    1.4908   14.8414    4.6922 C   0  0  0  0  0  0  0  0  0  0  0  0
    0.7625   14.6884    3.3569 C   0  0  0  0  0  0  0  0  0  0  0  0
    0.6004   13.2199    2.9655 C   0  0  0  0  0  0  0  0  0  0  0  0
    1.9318   12.4689    2.9800 C   0  0  2  0  0  0  0  0  0  0  0  0
    2.6519   12.6266    4.3226 C   0  0  0  0  0  0  0  0  0  0  0  0
    2.7738   12.9696    1.9362 O   0  0  0  0  0  0  0  0  0  0  0  0
    6.1369   15.5176    2.6769 N   0  0  0  0  0  0  0  0  0  0  0  0
    4.1372   14.1696    3.0584 H   0  0  0  0  0  0  0  0  0  0  0  0
    2.3779   12.6854    1.0919 H   0  0  0  0  0  0  0  0  0  0  0  0
    5.7230   14.5998    2.5078 H   0  0  0  0  0  0  0  0  0  0  0  0
    6.5622   15.4487    3.6036 H   0  0  0  0  0  0  0  0  0  0  0  0
  2  3  1  0  0  0  0
  2 13  1  0  0  0  0
  2  1  1  1  0  0  0
  3  4  2  0  0  0  0
  3  5  1  0  0  0  0
  5 14  1  0  0  0  0
  6  5  1  6  0  0  0
  6  7  1  0  0  0  0
  6 11  1  0  0  0  0
  7  8  1  0  0  0  0
  8  9  1  0  0  0  0
  9 10  1  0  0  0  0
 10 11  1  0  0  0  0
 10 12  1  6  0  0  0
 12 15  1  0  0  0  0
 13 16  1  0  0  0  0
 13 17  1  0  0  0  0
M  END
>  <CHROM.0>
-60.71802188,-64.23482026,-74.46224639,-51.06037048,-178.51835459,-59.61000081
-172.09967139,-174.92002578,-168.30192352

>  <CHROM.1>
17.59334415,178.66608344,46.49142098,-69.51644401,3.20476849,14.81051690
3.48453437,0.65338991,0.43696654,0.47855648

>  <Name>
P64253460

>  <RI>
2.22087e+07

>  <Rbt.Current_Directory>
/home/fstefaniak/projects/zuza/docking/adenine/4XNR

>  <Rbt.Executable>
rbdock ($Id: //depot/dev/client3/rdock/2013.1/src/exe/rbdock.cxx#4 $)

>  <Rbt.Library>
libRbt.so (2013.1, Build901 2013/11/27)

>  <Rbt.Parameter_File>
/home/fstefaniak/progs/rDock//data/scripts/dock_solv.prm

>  <Rbt.Receptor>
4xnr.prm

>  <SCORE>
-39.0829

>  <SCORE.INTER>
-23.0731

>  <SCORE.INTER.CONST>
1

>  <SCORE.INTER.POLAR>
-4.41692

>  <SCORE.INTER.ROT>
3

>  <SCORE.INTER.SOLV>
13.0161

>  <SCORE.INTER.VDW>
-10.5977

>  <SCORE.INTER.norm>
-1.77486

>  <SCORE.INTRA>
3.85804

>  <SCORE.INTRA.DIHEDRAL>
1.18329

>  <SCORE.INTRA.DIHEDRAL.0>
1.76922

>  <SCORE.INTRA.POLAR>
0.216677

>  <SCORE.INTRA.POLAR.0>
-0.631666

>  <SCORE.INTRA.REPUL>
0

>  <SCORE.INTRA.REPUL.0>
0

>  <SCORE.INTRA.SOLV>
0.506379

>  <SCORE.INTRA.SOLV.lig_0>
-15.3502

>  <SCORE.INTRA.VDW>
2.2765

>  <SCORE.INTRA.VDW.0>
-0.398074

>  <SCORE.INTRA.norm>
0.296772

>  <SCORE.RESTR>
0.350094

>  <SCORE.RESTR.CAVITY>
0.350094

>  <SCORE.RESTR.norm>
0.0269303

>  <SCORE.SYSTEM>
-20.2179

>  <SCORE.SYSTEM.CONST>
0

>  <SCORE.SYSTEM.DIHEDRAL>
4.52406

>  <SCORE.SYSTEM.POLAR>
-2.876

>  <SCORE.SYSTEM.SOLV>
-0.0932764

>  <SCORE.SYSTEM.VDW>
-5.36885

>  <SCORE.SYSTEM.norm>
-1.55522

>  <SCORE.heavy>
13

>  <SCORE.norm>
-3.00638

$$$$
P64253460
 OpenBabel12072022113D
libRbt.so/2013.1/901 2013/11/27
 17 17  0  0  0  0  0  0  0  0999 V2000
    1.0329   16.9292    2.9664 C   0  0  0  0  0  0  0  0  0  0  0  0
    1.2993   16.5307    4.4117 C   0  0  2  0  0  0  0  0  0  0  0  0
    1.6201   15.0260    4.5403 C   0  0  0  0  0  0  0  0  0  0  0  0
    2.7061   14.5853    4.9026 O   0  0  0  0  0  0  0  0  0  0  0  0
    0.5628   14.2210    4.1645 N   0  0  0  0  0  0  0  0  0  0  0  0
    0.5934   12.7700    4.2756 C   0  0  1  0  0  0  0  0  0  0  0  0
   -0.8217   12.1731    4.2561 C   0  0  0  0  0  0  0  0  0  0  0  0
   -1.4943   12.3019    2.8894 C   0  0  0  0  0  0  0  0  0  0  0  0
   -0.6253   11.7221    1.7739 C   0  0  0  0  0  0  0  0  0  0  0  0
    0.7846   12.3129    1.7751 C   0  0  2  0  0  0  0  0  0  0  0  0
    1.4503   12.1765    3.1478 C   0  0  0  0  0  0  0  0  0  0  0  0
    0.7220   13.6985    1.4214 O   0  0  0  0  0  0  0  0  0  0  0  0
    0.1204   16.8518    5.2438 N   0  0  0  0  0  0  0  0  0  0  0  0
   -0.3590   14.6418    4.0537 H   0  0  0  0  0  0  0  0  0  0  0  0
    0.5152   13.7390    0.4696 H   0  0  0  0  0  0  0  0  0  0  0  0
    0.1702   16.3023    6.1029 H   0  0  0  0  0  0  0  0  0  0  0  0
   -0.7119   16.5096    4.7595 H   0  0  0  0  0  0  0  0  0  0  0  0
  2  3  1  0  0  0  0
  2 13  1  0  0  0  0
  2  1  1  6  0  0  0
  3  4  2  0  0  0  0
  3  5  1  0  0  0  0
  5 14  1  0  0  0  0
  6  5  1  6  0  0  0
  6  7  1  0  0  0  0
  6 11  1  0  0  0  0
  7  8  1  0  0  0  0
  8  9  1  0  0  0  0
  9 10  1  0  0  0  0
 10 11  1  0  0  0  0
 10 12  1  1  0  0  0
 12 15  1  0  0  0  0
 13 16  1  0  0  0  0
 13 17  1  0  0  0  0
M  END
>  <CHROM.0>
-53.21197686,-59.56209289,-32.70645708,-46.80452306,-52.42459430,-52.79838243
-51.14121097,-169.11830207,-167.23909861

>  <CHROM.1>
114.72881203,160.39219778,160.49649912,-72.08955466,0.60647500,13.98482098
3.50637682,-0.39701522,-1.25615263,-1.53105639

>  <Name>
P64253460

>  <RI>
2.22087e+07

>  <Rbt.Current_Directory>
/home/fstefaniak/projects/zuza/docking/adenine/4XNR

>  <Rbt.Executable>
rbdock ($Id: //depot/dev/client3/rdock/2013.1/src/exe/rbdock.cxx#4 $)

>  <Rbt.Library>
libRbt.so (2013.1, Build901 2013/11/27)

>  <Rbt.Parameter_File>
/home/fstefaniak/progs/rDock//data/scripts/dock_solv.prm

>  <Rbt.Receptor>
4xnr.prm

>  <SCORE>
-38.9419

>  <SCORE.INTER>
-23.6621

>  <SCORE.INTER.CONST>
1

>  <SCORE.INTER.POLAR>
-4.14686

>  <SCORE.INTER.ROT>
3

>  <SCORE.INTER.SOLV>
13.0822

>  <SCORE.INTER.VDW>
-11.9126

>  <SCORE.INTER.norm>
-1.82016

>  <SCORE.INTRA>
2.77219

>  <SCORE.INTRA.DIHEDRAL>
1.65943

>  <SCORE.INTRA.DIHEDRAL.0>
1.76922

>  <SCORE.INTRA.POLAR>
0.631666

>  <SCORE.INTRA.POLAR.0>
-0.631666

>  <SCORE.INTRA.REPUL>
0

>  <SCORE.INTRA.REPUL.0>
0

>  <SCORE.INTRA.SOLV>
0.45279

>  <SCORE.INTRA.SOLV.lig_0>
-15.3502

>  <SCORE.INTRA.VDW>
-0.43158

>  <SCORE.INTRA.VDW.0>
-0.398074

>  <SCORE.INTRA.norm>
0.213246

>  <SCORE.RESTR>
1.07168

>  <SCORE.RESTR.CAVITY>
1.07168

>  <SCORE.RESTR.norm>
0.0824366

>  <SCORE.SYSTEM>
-19.1238

>  <SCORE.SYSTEM.CONST>
0

>  <SCORE.SYSTEM.DIHEDRAL>
8.08724

>  <SCORE.SYSTEM.POLAR>
-3.39617

>  <SCORE.SYSTEM.SOLV>
0.251258

>  <SCORE.SYSTEM.VDW>
-4.20811

>  <SCORE.SYSTEM.norm>
-1.47106

>  <SCORE.heavy>
13

>  <SCORE.norm>
-2.99553

$$$$
P64253460
 OpenBabel12072022113D
libRbt.so/2013.1/901 2013/11/27
 17 17  0  0  0  0  0  0  0  0999 V2000
    4.8804   17.9448    3.4944 C   0  0  0  0  0  0  0  0  0  0  0  0
    4.9874   16.5163    2.9779 C   0  0  2  0  0  0  0  0  0  0  0  0
    4.5668   15.4875    4.0495 C   0  0  0  0  0  0  0  0  0  0  0  0
    4.9161   15.5399    5.2243 O   0  0  0  0  0  0  0  0  0  0  0  0
    3.7831   14.4728    3.5365 N   0  0  0  0  0  0  0  0  0  0  0  0
    3.1953   13.4300    4.3646 C   0  0  1  0  0  0  0  0  0  0  0  0
    1.7593   13.7824    4.7801 C   0  0  0  0  0  0  0  0  0  0  0  0
    0.7821   13.7447    3.6051 C   0  0  0  0  0  0  0  0  0  0  0  0
    0.8400   12.4097    2.8634 C   0  0  0  0  0  0  0  0  0  0  0  0
    2.2625   12.0489    2.4357 C   0  0  2  0  0  0  0  0  0  0  0  0
    3.2327   12.0872    3.6203 C   0  0  0  0  0  0  0  0  0  0  0  0
    2.7090   12.9707    1.4358 O   0  0  0  0  0  0  0  0  0  0  0  0
    6.3768   16.2409    2.5550 N   0  0  0  0  0  0  0  0  0  0  0  0
    3.3800   14.5863    2.6071 H   0  0  0  0  0  0  0  0  0  0  0  0
    2.2123   12.7682    0.6217 H   0  0  0  0  0  0  0  0  0  0  0  0
    6.9264   16.0024    3.3817 H   0  0  0  0  0  0  0  0  0  0  0  0
    6.7823   17.1136    2.2111 H   0  0  0  0  0  0  0  0  0  0  0  0
  2  3  1  0  0  0  0
  2 13  1  0  0  0  0
  2  1  1  1  0  0  0
  3  4  2  0  0  0  0
  3  5  1  0  0  0  0
  5 14  1  0  0  0  0
  6  5  1  6  0  0  0
  6  7  1  0  0  0  0
  6 11  1  0  0  0  0
  7  8  1  0  0  0  0
  8  9  1  0  0  0  0
  9 10  1  0  0  0  0
 10 11  1  0  0  0  0
 10 12  1  6  0  0  0
 12 15  1  0  0  0  0
 13 16  1  0  0  0  0
 13 17  1  0  0  0  0
M  END
>  <CHROM.0>
-56.72791197,60.82262554,-60.93687879,-48.62965868,-178.78831261,-65.60456542
-68.23110698,-61.85375387,-167.42587282

>  <CHROM.1>
-44.24593242,81.93899604,94.53555106,-71.35277482,3.44017756,14.38672808
3.42441646,0.46131999,0.72745849,1.04461534

>  <Name>
P64253460

>  <RI>
2.22087e+07

>  <Rbt.Current_Directory>
/home/fstefaniak/projects/zuza/docking/adenine/4XNR

>  <Rbt.Executable>
rbdock ($Id: //depot/dev/client3/rdock/2013.1/src/exe/rbdock.cxx#4 $)

>  <Rbt.Library>
libRbt.so (2013.1, Build901 2013/11/27)

>  <Rbt.Parameter_File>
/home/fstefaniak/progs/rDock//data/scripts/dock_solv.prm

>  <Rbt.Receptor>
4xnr.prm

>  <SCORE>
-38.191

>  <SCORE.INTER>
-21.3128

>  <SCORE.INTER.CONST>
1

>  <SCORE.INTER.POLAR>
-3.56486

>  <SCORE.INTER.ROT>
3

>  <SCORE.INTER.SOLV>
13.3404

>  <SCORE.INTER.VDW>
-12.3725

>  <SCORE.INTER.norm>
-1.63945

>  <SCORE.INTRA>
2.01153

>  <SCORE.INTRA.DIHEDRAL>
2.73248

>  <SCORE.INTRA.DIHEDRAL.0>
1.76922

>  <SCORE.INTRA.POLAR>
0.167268

>  <SCORE.INTRA.POLAR.0>
-0.631666

>  <SCORE.INTRA.REPUL>
0

>  <SCORE.INTRA.REPUL.0>
0

>  <SCORE.INTRA.SOLV>
-0.457192

>  <SCORE.INTRA.SOLV.lig_0>
-15.3502

>  <SCORE.INTRA.VDW>
0.305175

>  <SCORE.INTRA.VDW.0>
-0.398074

>  <SCORE.INTRA.norm>
0.154733

>  <SCORE.RESTR>
1.07303

>  <SCORE.RESTR.CAVITY>
1.07303

>  <SCORE.RESTR.norm>
0.0825408

>  <SCORE.SYSTEM>
-19.9628

>  <SCORE.SYSTEM.CONST>
0

>  <SCORE.SYSTEM.DIHEDRAL>
3.95901

>  <SCORE.SYSTEM.POLAR>
-2.97487

>  <SCORE.SYSTEM.SOLV>
0.178425

>  <SCORE.SYSTEM.VDW>
-4.77141

>  <SCORE.SYSTEM.norm>
-1.5356

>  <SCORE.heavy>
13

>  <SCORE.norm>
-2.93777

$$$$
P64682578
 OpenBabel12072022113D
libRbt.so/2013.1/901 2013/11/27
 15 16  0  0  0  0  0  0  0  0999 V2000
    1.6148   14.4688    3.8451 C   0  0  0  0  0  0  0  0  0  0  0  0
    2.4628   15.7311    3.8387 C   0  0  0  0  0  0  0  0  0  0  0  0
    3.8882   15.1990    3.7898 C   0  0  2  0  0  0  0  0  0  0  0  0
    3.8152   14.0189    4.6790 N   0  0  0  0  0  0  0  0  0  0  0  0
    2.5484   13.3650    4.3247 C   0  0  0  0  0  0  0  0  0  0  0  0
    4.9611   16.2182    4.2400 C   0  0  0  0  0  0  0  0  0  0  0  0
    4.7619   17.5953    3.7443 N   0  0  0  0  0  0  0  0  0  0  0  0
    5.4537   18.5862    4.5937 C   0  0  0  0  0  0  0  0  0  0  0  0
    6.9853   18.4843    4.5299 C   0  0  0  0  0  0  0  0  0  0  0  0
    7.4921   18.3247    3.1828 N   0  0  0  0  0  0  0  0  0  0  0  0
    6.7422   17.7751    2.1728 C   0  0  0  0  0  0  0  0  0  0  0  0
    7.2903   17.3949    1.1400 O   0  0  0  0  0  0  0  0  0  0  0  0
    5.2181   17.7782    2.3433 C   0  0  0  0  0  0  0  0  0  0  0  0
    3.7445   14.3444    5.6442 H   0  0  0  0  0  0  0  0  0  0  0  0
    8.4917   18.2657    3.0311 H   0  0  0  0  0  0  0  0  0  0  0  0
  1  2  1  0  0  0  0
  1  5  1  0  0  0  0
  2  3  1  0  0  0  0
  3  4  1  0  0  0  0
  3  6  1  1  0  0  0
  4  5  1  0  0  0  0
  4 14  1  0  0  0  0
  6  7  1  0  0  0  0
  7  8  1  0  0  0  0
  7 13  1  0  0  0  0
  8  9  1  0  0  0  0
  9 10  1  0  0  0  0
 10 11  1  0  0  0  0
 10 15  1  0  0  0  0
 11 12  2  0  0  0  0
 11 13  1  0  0  0  0
M  END
>  <CHROM.0>
-55.01231053,-81.43927210,-67.45694142,-44.75637447,-54.91733298,-65.83985463
-67.97726211,-67.01371787,-168.08382640

>  <CHROM.1>
-41.94039119,157.50874633,4.88864432,16.53423372,3.56742459,-2.98198216,0.74561191
1.00835179

>  <Name>
P64682578

>  <RI>
3.4169e+07

>  <Rbt.Current_Directory>
/home/fstefaniak/projects/zuza/docking/adenine/4XNR

>  <Rbt.Executable>
rbdock ($Id: //depot/dev/client3/rdock/2013.1/src/exe/rbdock.cxx#4 $)

>  <Rbt.Library>
libRbt.so (2013.1, Build901 2013/11/27)

>  <Rbt.Parameter_File>
/home/fstefaniak/progs/rDock//data/scripts/dock_solv.prm

>  <Rbt.Receptor>
4xnr.prm

>  <SCORE>
-43.1629

>  <SCORE.INTER>
-23.8527

>  <SCORE.INTER.CONST>
1

>  <SCORE.INTER.POLAR>
-1.87576

>  <SCORE.INTER.ROT>
2

>  <SCORE.INTER.SOLV>
14.2991

>  <SCORE.INTER.VDW>
-19.349

>  <SCORE.INTER.norm>
-1.83482

>  <SCORE.INTRA>
0.68626

>  <SCORE.INTRA.DIHEDRAL>
1.60538

>  <SCORE.INTRA.DIHEDRAL.0>
0.160472

>  <SCORE.INTRA.POLAR>
0

>  <SCORE.INTRA.POLAR.0>
0

>  <SCORE.INTRA.REPUL>
0

>  <SCORE.INTRA.REPUL.0>
0

>  <SCORE.INTRA.SOLV>
-0.0137828

>  <SCORE.INTRA.SOLV.lig_0>
-16.4161

>  <SCORE.INTRA.VDW>
-0.10954

>  <SCORE.INTRA.VDW.0>
-0.460237

>  <SCORE.INTRA.norm>
0.0527893

>  <SCORE.RESTR>
0

>  <SCORE.RESTR.CAVITY>
0

>  <SCORE.RESTR.norm>
0

>  <SCORE.SYSTEM>
-19.9964

>  <SCORE.SYSTEM.CONST>
0

>  <SCORE.SYSTEM.DIHEDRAL>
6.95651

>  <SCORE.SYSTEM.POLAR>
-3.05789

>  <SCORE.SYSTEM.SOLV>
0.259446

>  <SCORE.SYSTEM.VDW>
-5.54331

>  <SCORE.SYSTEM.norm>
-1.53819

>  <SCORE.heavy>
13

>  <SCORE.norm>
-3.32022

$$$$
P64682578
 OpenBabel12072022113D
libRbt.so/2013.1/901 2013/11/27
 15 16  0  0  0  0  0  0  0  0999 V2000
    5.7693   18.0211    4.2343 C   0  0  0  0  0  0  0  0  0  0  0  0
    4.4996   17.2274    4.4997 C   0  0  0  0  0  0  0  0  0  0  0  0
    4.7358   15.9225    3.7521 C   0  0  2  0  0  0  0  0  0  0  0  0
    5.4178   16.3823    2.5225 N   0  0  0  0  0  0  0  0  0  0  0  0
    6.3765   17.3942    2.9859 C   0  0  0  0  0  0  0  0  0  0  0  0
    3.4472   15.1206    3.4538 C   0  0  0  0  0  0  0  0  0  0  0  0
    2.6654   14.7286    4.6441 N   0  0  0  0  0  0  0  0  0  0  0  0
    1.2713   14.3888    4.2935 C   0  0  0  0  0  0  0  0  0  0  0  0
    1.1468   13.1145    3.4444 C   0  0  0  0  0  0  0  0  0  0  0  0
    1.9748   12.0264    3.9214 N   0  0  0  0  0  0  0  0  0  0  0  0
    3.1184   12.2350    4.6515 C   0  0  0  0  0  0  0  0  0  0  0  0
    3.9340   11.3248    4.7859 O   0  0  0  0  0  0  0  0  0  0  0  0
    3.2589   13.5802    5.3744 C   0  0  0  0  0  0  0  0  0  0  0  0
    4.7315   16.8462    1.9255 H   0  0  0  0  0  0  0  0  0  0  0  0
    1.9512   11.1356    3.4403 H   0  0  0  0  0  0  0  0  0  0  0  0
  1  2  1  0  0  0  0
  1  5  1  0  0  0  0
  2  3  1  0  0  0  0
  3  4  1  0  0  0  0
  3  6  1  6  0  0  0
  4  5  1  0  0  0  0
  4 14  1  0  0  0  0
  6  7  1  0  0  0  0
  7  8  1  0  0  0  0
  7 13  1  0  0  0  0
  8  9  1  0  0  0  0
  9 10  1  0  0  0  0
 10 11  1  0  0  0  0
 10 15  1  0  0  0  0
 11 12  2  0  0  0  0
 11 13  1  0  0  0  0
M  END
>  <CHROM.0>
-56.29745487,62.18895629,-74.08068121,-47.58187333,179.59108425,-62.52500274
-171.96647413,-61.63346254,-167.84516413

>  <CHROM.1>
-59.15073074,160.77004166,3.66233820,14.70442219,4.03139666,0.99306482,-0.00422485
-0.16666365

>  <Name>
P64682578

>  <RI>
3.4169e+07

>  <Rbt.Current_Directory>
/home/fstefaniak/projects/zuza/docking/adenine/4XNR

>  <Rbt.Executable>
rbdock ($Id: //depot/dev/client3/rdock/2013.1/src/exe/rbdock.cxx#4 $)

>  <Rbt.Library>
libRbt.so (2013.1, Build901 2013/11/27)

>  <Rbt.Parameter_File>
/home/fstefaniak/progs/rDock//data/scripts/dock_solv.prm

>  <Rbt.Receptor>
4xnr.prm

>  <SCORE>
-43.0608

>  <SCORE.INTER>
-23.541

>  <SCORE.INTER.CONST>
1

>  <SCORE.INTER.POLAR>
-2.43253

>  <SCORE.INTER.ROT>
2

>  <SCORE.INTER.SOLV>
9.94334

>  <SCORE.INTER.VDW>
-15.8334

>  <SCORE.INTER.norm>
-1.81085

>  <SCORE.INTRA>
-0.0137235

>  <SCORE.INTRA.DIHEDRAL>
0.371871

>  <SCORE.INTRA.DIHEDRAL.0>
0.160472

>  <SCORE.INTRA.POLAR>
0

>  <SCORE.INTRA.POLAR.0>
0

>  <SCORE.INTRA.REPUL>
0

>  <SCORE.INTRA.REPUL.0>
0

>  <SCORE.INTRA.SOLV>
-0.0405332

>  <SCORE.INTRA.SOLV.lig_0>
-16.4161

>  <SCORE.INTRA.VDW>
-0.179392

>  <SCORE.INTRA.VDW.0>
-0.460237

>  <SCORE.INTRA.norm>
-0.00105565

>  <SCORE.RESTR>
0

>  <SCORE.RESTR.CAVITY>
0

>  <SCORE.RESTR.norm>
0

>  <SCORE.SYSTEM>
-19.506

>  <SCORE.SYSTEM.CONST>
0

>  <SCORE.SYSTEM.DIHEDRAL>
4.7851

>  <SCORE.SYSTEM.POLAR>
-2.96917

>  <SCORE.SYSTEM.SOLV>
0.11858

>  <SCORE.SYSTEM.VDW>
-4.74134

>  <SCORE.SYSTEM.norm>
-1.50046

>  <SCORE.heavy>
13

>  <SCORE.norm>
-3.31237

$$$$
P64682578
 OpenBabel12072022113D
libRbt.so/2013.1/901 2013/11/27
 15 16  0  0  0  0  0  0  0  0999 V2000
    1.6044   14.4702    3.8117 C   0  0  0  0  0  0  0  0  0  0  0  0
    2.4565   15.7297    3.8046 C   0  0  0  0  0  0  0  0  0  0  0  0
    3.8805   15.1928    3.7681 C   0  0  2  0  0  0  0  0  0  0  0  0
    3.7976   14.0175    4.6627 N   0  0  0  0  0  0  0  0  0  0  0  0
    2.5311   13.3659    4.3033 C   0  0  0  0  0  0  0  0  0  0  0  0
    4.9536   16.2109    4.2204 C   0  0  0  0  0  0  0  0  0  0  0  0
    4.7550   17.5889    3.7271 N   0  0  0  0  0  0  0  0  0  0  0  0
    5.4222   18.5805    4.5952 C   0  0  0  0  0  0  0  0  0  0  0  0
    6.9555   18.4894    4.5624 C   0  0  0  0  0  0  0  0  0  0  0  0
    7.4909   18.3398    3.2252 N   0  0  0  0  0  0  0  0  0  0  0  0
    6.7657   17.7899    2.1975 C   0  0  0  0  0  0  0  0  0  0  0  0
    7.3376   17.4185    1.1744 O   0  0  0  0  0  0  0  0  0  0  0  0
    5.2385   17.7817    2.3366 C   0  0  0  0  0  0  0  0  0  0  0  0
    3.7215   14.3482    5.6258 H   0  0  0  0  0  0  0  0  0  0  0  0
    8.4938   18.2885    3.0939 H   0  0  0  0  0  0  0  0  0  0  0  0
  1  2  1  0  0  0  0
  1  5  1  0  0  0  0
  2  3  1  0  0  0  0
  3  4  1  0  0  0  0
  3  6  1  1  0  0  0
  4  5  1  0  0  0  0
  4 14  1  0  0  0  0
  6  7  1  0  0  0  0
  7  8  1  0  0  0  0
  7 13  1  0  0  0  0
  8  9  1  0  0  0  0
  9 10  1  0  0  0  0
 10 11  1  0  0  0  0
 10 15  1  0  0  0  0
 11 12  2  0  0  0  0
 11 13  1  0  0  0  0
M  END
>  <CHROM.0>
-56.29459659,-77.07668753,-73.29599759,-46.37745872,-174.20520915,-59.83927875
-170.95641058,-172.94036389,-166.65410492

>  <CHROM.1>
-41.37012476,156.25903026,4.88535840,16.53726420,3.56521566,-2.96688223,0.73945630
0.99670246

>  <Name>
P64682578

>  <RI>
3.4169e+07

>  <Rbt.Current_Directory>
/home/fstefaniak/projects/zuza/docking/adenine/4XNR

>  <Rbt.Executable>
rbdock ($Id: //depot/dev/client3/rdock/2013.1/src/exe/rbdock.cxx#4 $)

>  <Rbt.Library>
libRbt.so (2013.1, Build901 2013/11/27)

>  <Rbt.Parameter_File>
/home/fstefaniak/progs/rDock//data/scripts/dock_solv.prm

>  <Rbt.Receptor>
4xnr.prm

>  <SCORE>
-42.6629

>  <SCORE.INTER>
-23.6993

>  <SCORE.INTER.CONST>
1

>  <SCORE.INTER.POLAR>
-1.89133

>  <SCORE.INTER.ROT>
2

>  <SCORE.INTER.SOLV>
14.2383

>  <SCORE.INTER.VDW>
-19.1745

>  <SCORE.INTER.norm>
-1.82302

>  <SCORE.INTRA>
0.747346

>  <SCORE.INTRA.DIHEDRAL>
1.73999

>  <SCORE.INTRA.DIHEDRAL.0>
0.160472

>  <SCORE.INTRA.POLAR>
0

>  <SCORE.INTRA.POLAR.0>
0

>  <SCORE.INTRA.REPUL>
0

>  <SCORE.INTRA.REPUL.0>
0

>  <SCORE.INTRA.SOLV>
-0.015381

>  <SCORE.INTRA.SOLV.lig_0>
-16.4161

>  <SCORE.INTRA.VDW>
-0.11496

>  <SCORE.INTRA.VDW.0>
-0.460237

>  <SCORE.INTRA.norm>
0.0574881

>  <SCORE.RESTR>
0

>  <SCORE.RESTR.CAVITY>
0

>  <SCORE.RESTR.norm>
0

>  <SCORE.SYSTEM>
-19.711

>  <SCORE.SYSTEM.CONST>
0

>  <SCORE.SYSTEM.DIHEDRAL>
6.66283

>  <SCORE.SYSTEM.POLAR>
-2.99243

>  <SCORE.SYSTEM.SOLV>
-0.0853435

>  <SCORE.SYSTEM.VDW>
-5.35839

>  <SCORE.SYSTEM.norm>
-1.51623

>  <SCORE.heavy>
13

>  <SCORE.norm>
-3.28176

$$$$
P66010263
 OpenBabel12072022113D
libRbt.so/2013.1/901 2013/11/27
 12 12  0  0  0  0  0  0  0  0999 V2000
    5.9835   18.9863    6.8459 C   0  0  0  0  0  0  0  0  0  0  0  0
    6.6631   19.0771    5.4923 C   0  0  2  0  0  0  0  0  0  0  0  0
    6.2383   17.9967    4.5368 C   0  0  0  0  0  0  0  0  0  0  0  0
    6.8334   17.7011    3.3715 N   0  0  0  0  0  0  0  0  0  0  0  0
    7.6488   18.1576    2.9748 H   0  0  0  0  0  0  0  0  0  0  0  0
    6.1854   16.6786    2.7265 N   0  0  0  0  0  0  0  0  0  0  0  0
    5.2252   16.3963    3.5292 C   0  0  0  0  0  0  0  0  0  0  0  0
    5.2109   17.1647    4.6421 N   0  3  0  0  0  0  0  0  0  0  0  0
    4.5042   17.0453    5.3535 H   0  0  0  0  0  0  0  0  0  0  0  0
    4.0420   15.2291    3.3095 S   0  5  0  0  0  0  0  0  0  0  0  0
    8.0801   19.0266    5.6943 O   0  0  0  0  0  0  0  0  0  0  0  0
    8.3268   19.7848    6.2569 H   0  0  0  0  0  0  0  0  0  0  0  0
  2  3  1  0  0  0  0
  2 11  1  0  0  0  0
  2  1  1  1  0  0  0
  3  4  1  0  0  0  0
  3  8  2  0  0  0  0
  4  5  1  0  0  0  0
  4  6  1  0  0  0  0
  6  7  2  0  0  0  0
  7  8  1  0  0  0  0
  7 10  1  0  0  0  0
  8  9  1  0  0  0  0
 11 12  1  0  0  0  0
M  CHG  2   8   1  10  -1
M  END
>  <CHROM.0>
-55.43348365,-64.50666980,-67.59506973,-47.86491110,-59.28804229,-64.26107139
-67.94269342,-61.71017474,-168.21902358

>  <CHROM.1>
-168.01099838,-60.11643076,5.84960408,17.33697293,4.36464281,0.91603163,0.55061634
1.03200426

>  <Name>
P66010263

>  <RI>
3.51561e+07

>  <Rbt.Current_Directory>
/home/fstefaniak/projects/zuza/docking/adenine/4XNR

>  <Rbt.Executable>
rbdock ($Id: //depot/dev/client3/rdock/2013.1/src/exe/rbdock.cxx#4 $)

>  <Rbt.Library>
libRbt.so (2013.1, Build901 2013/11/27)

>  <Rbt.Parameter_File>
/home/fstefaniak/progs/rDock//data/scripts/dock_solv.prm

>  <Rbt.Receptor>
4xnr.prm

>  <SCORE>
-55.851

>  <SCORE.INTER>
-34.2483

>  <SCORE.INTER.CONST>
1

>  <SCORE.INTER.POLAR>
-4.31873

>  <SCORE.INTER.ROT>
1

>  <SCORE.INTER.SOLV>
16.2432

>  <SCORE.INTER.VDW>
-18.1175

>  <SCORE.INTER.norm>
-3.80536

>  <SCORE.INTRA>
-0.642299

>  <SCORE.INTRA.DIHEDRAL>
-3.1524

>  <SCORE.INTRA.DIHEDRAL.0>
4.25128

>  <SCORE.INTRA.POLAR>
0

>  <SCORE.INTRA.POLAR.0>
0

>  <SCORE.INTRA.REPUL>
0

>  <SCORE.INTRA.REPUL.0>
0

>  <SCORE.INTRA.SOLV>
-0.167693

>  <SCORE.INTRA.SOLV.lig_0>
-29.3101

>  <SCORE.INTRA.VDW>
1.01775

>  <SCORE.INTRA.VDW.0>
-0.757086

>  <SCORE.INTRA.norm>
-0.0713665

>  <SCORE.RESTR>
0

>  <SCORE.RESTR.CAVITY>
0

>  <SCORE.RESTR.norm>
0

>  <SCORE.SYSTEM>
-20.9605

>  <SCORE.SYSTEM.CONST>
0

>  <SCORE.SYSTEM.DIHEDRAL>
4.26769

>  <SCORE.SYSTEM.POLAR>
-2.99447

>  <SCORE.SYSTEM.SOLV>
0.275311

>  <SCORE.SYSTEM.VDW>
-5.50644

>  <SCORE.SYSTEM.norm>
-2.32894

>  <SCORE.heavy>
9

>  <SCORE.norm>
-6.20567

$$$$
P66010263
 OpenBabel12072022113D
libRbt.so/2013.1/901 2013/11/27
 12 12  0  0  0  0  0  0  0  0999 V2000
    6.1881   18.9819    6.4428 C   0  0  0  0  0  0  0  0  0  0  0  0
    6.2134   19.0733    4.9284 C   0  0  2  0  0  0  0  0  0  0  0  0
    5.8473   17.7845    4.2460 C   0  0  0  0  0  0  0  0  0  0  0  0
    6.2962   17.3745    3.0502 N   0  0  0  0  0  0  0  0  0  0  0  0
    6.9429   17.8692    2.4439 H   0  0  0  0  0  0  0  0  0  0  0  0
    5.7514   16.1650    2.7015 N   0  0  0  0  0  0  0  0  0  0  0  0
    4.9960   15.8918    3.7019 C   0  0  0  0  0  0  0  0  0  0  0  0
    5.0170   16.8396    4.6665 N   0  3  0  0  0  0  0  0  0  0  0  0
    4.4639   16.7465    5.5063 H   0  0  0  0  0  0  0  0  0  0  0  0
    4.0244   14.5382    3.8875 S   0  5  0  0  0  0  0  0  0  0  0  0
    7.5222   19.4906    4.5231 O   0  0  0  0  0  0  0  0  0  0  0  0
    7.6656   20.3925    4.8666 H   0  0  0  0  0  0  0  0  0  0  0  0
  2  3  1  0  0  0  0
  2 11  1  0  0  0  0
  2  1  1  1  0  0  0
  3  4  1  0  0  0  0
  3  8  2  0  0  0  0
  4  5  1  0  0  0  0
  4  6  1  0  0  0  0
  6  7  2  0  0  0  0
  7  8  1  0  0  0  0
  7 10  1  0  0  0  0
  8  9  1  0  0  0  0
 11 12  1  0  0  0  0
M  CHG  2   8   1  10  -1
M  END
>  <CHROM.0>
-58.13265597,-60.51127078,-70.26043526,-48.37234450,-62.44689977,-63.78157845
-69.07864266,-61.39797910,-167.95490163

>  <CHROM.1>
-149.97908414,-64.50968242,5.59159669,17.06317366,4.21780325,0.75349173,0.86187447
0.99364121

>  <Name>
P66010263

>  <RI>
3.51561e+07

>  <Rbt.Current_Directory>
/home/fstefaniak/projects/zuza/docking/adenine/4XNR

>  <Rbt.Executable>
rbdock ($Id: //depot/dev/client3/rdock/2013.1/src/exe/rbdock.cxx#4 $)

>  <Rbt.Library>
libRbt.so (2013.1, Build901 2013/11/27)

>  <Rbt.Parameter_File>
/home/fstefaniak/progs/rDock//data/scripts/dock_solv.prm

>  <Rbt.Receptor>
4xnr.prm

>  <SCORE>
-55.7517

>  <SCORE.INTER>
-34.0332

>  <SCORE.INTER.CONST>
1

>  <SCORE.INTER.POLAR>
-3.86683

>  <SCORE.INTER.ROT>
1

>  <SCORE.INTER.SOLV>
15.9941

>  <SCORE.INTER.VDW>
-19.3974

>  <SCORE.INTER.norm>
-3.78147

>  <SCORE.INTRA>
-0.800517

>  <SCORE.INTRA.DIHEDRAL>
-3.06345

>  <SCORE.INTRA.DIHEDRAL.0>
4.25128

>  <SCORE.INTRA.POLAR>
0

>  <SCORE.INTRA.POLAR.0>
0

>  <SCORE.INTRA.REPUL>
0

>  <SCORE.INTRA.REPUL.0>
0

>  <SCORE.INTRA.SOLV>
-0.052183

>  <SCORE.INTRA.SOLV.lig_0>
-29.3101

>  <SCORE.INTRA.VDW>
0.757299

>  <SCORE.INTRA.VDW.0>
-0.757086

>  <SCORE.INTRA.norm>
-0.0889463

>  <SCORE.RESTR>
0

>  <SCORE.RESTR.CAVITY>
0

>  <SCORE.RESTR.norm>
0

>  <SCORE.SYSTEM>
-20.9179

>  <SCORE.SYSTEM.CONST>
0

>  <SCORE.SYSTEM.DIHEDRAL>
4.36253

>  <SCORE.SYSTEM.POLAR>
-2.9555

>  <SCORE.SYSTEM.SOLV>
0.261276

>  <SCORE.SYSTEM.VDW>
-5.63488

>  <SCORE.SYSTEM.norm>
-2.32421

>  <SCORE.heavy>
9

>  <SCORE.norm>
-6.19463

$$$$
P66010263
 OpenBabel12072022113D
libRbt.so/2013.1/901 2013/11/27
 12 12  0  0  0  0  0  0  0  0999 V2000
    6.1526   19.0027    6.4354 C   0  0  0  0  0  0  0  0  0  0  0  0
    6.1850   19.0804    4.9203 C   0  0  2  0  0  0  0  0  0  0  0  0
    5.8375   17.7812    4.2480 C   0  0  0  0  0  0  0  0  0  0  0  0
    6.3086   17.3591    3.0651 N   0  0  0  0  0  0  0  0  0  0  0  0
    6.9627   17.8499    2.4635 H   0  0  0  0  0  0  0  0  0  0  0  0
    5.7764   16.1422    2.7225 N   0  0  0  0  0  0  0  0  0  0  0  0
    5.0059   15.8771    3.7134 C   0  0  0  0  0  0  0  0  0  0  0  0
    5.0055   16.8369    4.6663 N   0  3  0  0  0  0  0  0  0  0  0  0
    4.4389   16.7510    5.4979 H   0  0  0  0  0  0  0  0  0  0  0  0
    4.0388   14.5204    3.8996 S   0  5  0  0  0  0  0  0  0  0  0  0
    7.4911   19.5091    4.5181 O   0  0  0  0  0  0  0  0  0  0  0  0
    7.6270   20.4112    4.8644 H   0  0  0  0  0  0  0  0  0  0  0  0
  2  3  1  0  0  0  0
  2 11  1  0  0  0  0
  2  1  1  1  0  0  0
  3  4  1  0  0  0  0
  3  8  2  0  0  0  0
  4  5  1  0  0  0  0
  4  6  1  0  0  0  0
  6  7  2  0  0  0  0
  7  8  1  0  0  0  0
  7 10  1  0  0  0  0
  8  9  1  0  0  0  0
 11 12  1  0  0  0  0
M  CHG  2   8   1  10  -1
M  END
>  <CHROM.0>
-53.49705359,-60.79035172,-66.83681879,-47.63541988,-59.95710500,-63.77349628
-68.65379934,-61.58648148,-168.06633769

>  <CHROM.1>
-149.22257006,-63.75085434,5.58734968,17.05864140,4.22304581,0.77503221,0.86028513
0.96584644

>  <Name>
P66010263

>  <RI>
3.51561e+07

>  <Rbt.Current_Directory>
/home/fstefaniak/projects/zuza/docking/adenine/4XNR

>  <Rbt.Executable>
rbdock ($Id: //depot/dev/client3/rdock/2013.1/src/exe/rbdock.cxx#4 $)

>  <Rbt.Library>
libRbt.so (2013.1, Build901 2013/11/27)

>  <Rbt.Parameter_File>
/home/fstefaniak/progs/rDock//data/scripts/dock_solv.prm

>  <Rbt.Receptor>
4xnr.prm

>  <SCORE>
-55.7036

>  <SCORE.INTER>
-33.9835

>  <SCORE.INTER.CONST>
1

>  <SCORE.INTER.POLAR>
-3.87588

>  <SCORE.INTER.ROT>
1

>  <SCORE.INTER.SOLV>
16.0434

>  <SCORE.INTER.VDW>
-19.3506

>  <SCORE.INTER.norm>
-3.77594

>  <SCORE.INTRA>
-0.801132

>  <SCORE.INTRA.DIHEDRAL>
-3.0936

>  <SCORE.INTRA.DIHEDRAL.0>
4.25128

>  <SCORE.INTRA.POLAR>
0

>  <SCORE.INTRA.POLAR.0>
0

>  <SCORE.INTRA.REPUL>
0

>  <SCORE.INTRA.REPUL.0>
0

>  <SCORE.INTRA.SOLV>
-0.0491444

>  <SCORE.INTRA.SOLV.lig_0>
-29.3101

>  <SCORE.INTRA.VDW>
0.770242

>  <SCORE.INTRA.VDW.0>
-0.757086

>  <SCORE.INTRA.norm>
-0.0890147

>  <SCORE.RESTR>
0

>  <SCORE.RESTR.CAVITY>
0

>  <SCORE.RESTR.norm>
0

>  <SCORE.SYSTEM>
-20.9189

>  <SCORE.SYSTEM.CONST>
0

>  <SCORE.SYSTEM.DIHEDRAL>
4.29212

>  <SCORE.SYSTEM.POLAR>
-3.01586

>  <SCORE.SYSTEM.SOLV>
0.280554

>  <SCORE.SYSTEM.VDW>
-5.4173

>  <SCORE.SYSTEM.norm>
-2.32433

>  <SCORE.heavy>
9

>  <SCORE.norm>
-6.18929

$$$$
P67315782
 OpenBabel12072022113D
libRbt.so/2013.1/901 2013/11/27
 12 12  0  0  0  0  0  0  0  0999 V2000
    6.9114   19.2965    5.2520 C   0  0  0  0  0  0  0  0  0  0  0  0
    5.9649   18.9532    4.1088 C   0  0  2  0  0  0  0  0  0  0  0  0
    5.5184   17.4905    4.0662 C   0  0  1  0  0  0  0  0  0  0  0  0
    6.5793   16.8658    3.1788 C   0  0  2  0  0  0  0  0  0  0  0  0
    6.7999   17.9837    2.1628 C   0  0  2  0  0  0  0  0  0  0  0  0
    6.6499   19.2178    2.8617 O   0  0  0  0  0  0  0  0  0  0  0  0
    5.7887   17.9061    1.1635 O   0  0  0  0  0  0  0  0  0  0  0  0
    6.1240   15.6448    2.5993 O   0  0  0  0  0  0  0  0  0  0  0  0
    5.4391   16.8556    5.3343 O   0  0  0  0  0  0  0  0  0  0  0  0
    5.7068   18.8186    0.8338 H   0  0  0  0  0  0  0  0  0  0  0  0
    6.2006   14.9786    3.3147 H   0  0  0  0  0  0  0  0  0  0  0  0
    5.2970   15.9069    5.1515 H   0  0  0  0  0  0  0  0  0  0  0  0
  2  6  1  0  0  0  0
  2  1  1  1  0  0  0
  2  3  1  0  0  0  0
  3  9  1  1  0  0  0
  3  4  1  0  0  0  0
  4  8  1  6  0  0  0
  4  5  1  0  0  0  0
  5  6  1  0  0  0  0
  5  7  1  6  0  0  0
  7 10  1  0  0  0  0
  8 11  1  0  0  0  0
  9 12  1  0  0  0  0
M  END
>  <CHROM.0>
-56.55125915,-176.60273319,-66.85213800,-44.87806130,-60.16145724,-60.61055974
-67.84038294,-56.64703388,-168.18633974

>  <CHROM.1>
-170.57317578,-77.93231225,153.37267544,6.18009645,17.76104721,3.39695848
-1.48844311,-1.33384194,-1.89558586

>  <Name>
P67315782

>  <RI>
3.51561e+07

>  <Rbt.Current_Directory>
/home/fstefaniak/projects/zuza/docking/adenine/4XNR

>  <Rbt.Executable>
rbdock ($Id: //depot/dev/client3/rdock/2013.1/src/exe/rbdock.cxx#4 $)

>  <Rbt.Library>
libRbt.so (2013.1, Build901 2013/11/27)

>  <Rbt.Parameter_File>
/home/fstefaniak/progs/rDock//data/scripts/dock_solv.prm

>  <Rbt.Receptor>
4xnr.prm

>  <SCORE>
-56.6028

>  <SCORE.INTER>
-37.4916

>  <SCORE.INTER.CONST>
1

>  <SCORE.INTER.POLAR>
-5.43004

>  <SCORE.INTER.ROT>
0

>  <SCORE.INTER.SOLV>
13.6126

>  <SCORE.INTER.VDW>
-15.0318

>  <SCORE.INTER.norm>
-4.16573

>  <SCORE.INTRA>
1.58236

>  <SCORE.INTRA.DIHEDRAL>
2.01244

>  <SCORE.INTRA.DIHEDRAL.0>
3.00949

>  <SCORE.INTRA.POLAR>
0.339103

>  <SCORE.INTRA.POLAR.0>
-0.339103

>  <SCORE.INTRA.REPUL>
0

>  <SCORE.INTRA.REPUL.0>
0

>  <SCORE.INTRA.SOLV>
-0.117516

>  <SCORE.INTRA.SOLV.lig_0>
-16.2546

>  <SCORE.INTRA.VDW>
-0.518052

>  <SCORE.INTRA.VDW.0>
0.214379

>  <SCORE.INTRA.norm>
0.175818

>  <SCORE.RESTR>
0

>  <SCORE.RESTR.CAVITY>
0

>  <SCORE.RESTR.norm>
0

>  <SCORE.SYSTEM>
-20.6936

>  <SCORE.SYSTEM.CONST>
0

>  <SCORE.SYSTEM.DIHEDRAL>
4.44646

>  <SCORE.SYSTEM.POLAR>
-3.03913

>  <SCORE.SYSTEM.SOLV>
0.273799

>  <SCORE.SYSTEM.VDW>
-5.23872

>  <SCORE.SYSTEM.norm>
-2.29929

>  <SCORE.heavy>
9

>  <SCORE.norm>
-6.2892

$$$$
P67315782
 OpenBabel12072022113D
libRbt.so/2013.1/901 2013/11/27
 12 12  0  0  0  0  0  0  0  0999 V2000
    6.9117   19.2835    5.2747 C   0  0  0  0  0  0  0  0  0  0  0  0
    5.9379   18.9417    4.1542 C   0  0  2  0  0  0  0  0  0  0  0  0
    5.4879   17.4798    4.1223 C   0  0  1  0  0  0  0  0  0  0  0  0
    6.5265   16.8532    3.2101 C   0  0  2  0  0  0  0  0  0  0  0  0
    6.7249   17.9707    2.1891 C   0  0  2  0  0  0  0  0  0  0  0  0
    6.5937   19.2051    2.8912 O   0  0  0  0  0  0  0  0  0  0  0  0
    5.6904   17.8949    1.2139 O   0  0  0  0  0  0  0  0  0  0  0  0
    6.0554   15.6330    2.6416 O   0  0  0  0  0  0  0  0  0  0  0  0
    5.4374   16.8451    5.3919 O   0  0  0  0  0  0  0  0  0  0  0  0
    5.6545   18.7900    0.8322 H   0  0  0  0  0  0  0  0  0  0  0  0
    6.1469   14.9669    3.3552 H   0  0  0  0  0  0  0  0  0  0  0  0
    5.3308   15.8913    5.2115 H   0  0  0  0  0  0  0  0  0  0  0  0
  2  6  1  0  0  0  0
  2  1  1  1  0  0  0
  2  3  1  0  0  0  0
  3  9  1  1  0  0  0
  3  4  1  0  0  0  0
  4  8  1  6  0  0  0
  4  5  1  0  0  0  0
  5  6  1  0  0  0  0
  5  7  1  6  0  0  0
  7 10  1  0  0  0  0
  8 11  1  0  0  0  0
  9 12  1  0  0  0  0
M  END
>  <CHROM.0>
-56.60774136,-173.64810538,-66.30173823,-45.10726198,-59.08889138,-175.43014483
-65.45506893,-176.83925360,-167.97379426

>  <CHROM.1>
-168.01536507,-77.88207311,158.05269600,6.13478989,17.74904313,3.43712542
-1.39082697,-1.33873045,-1.79876940

>  <Name>
P67315782

>  <RI>
3.51561e+07

>  <Rbt.Current_Directory>
/home/fstefaniak/projects/zuza/docking/adenine/4XNR

>  <Rbt.Executable>
rbdock ($Id: //depot/dev/client3/rdock/2013.1/src/exe/rbdock.cxx#4 $)

>  <Rbt.Library>
libRbt.so (2013.1, Build901 2013/11/27)

>  <Rbt.Parameter_File>
/home/fstefaniak/progs/rDock//data/scripts/dock_solv.prm

>  <Rbt.Receptor>
4xnr.prm

>  <SCORE>
-56.188

>  <SCORE.INTER>
-37.1031

>  <SCORE.INTER.CONST>
1

>  <SCORE.INTER.POLAR>
-5.38268

>  <SCORE.INTER.ROT>
0

>  <SCORE.INTER.SOLV>
13.5695

>  <SCORE.INTER.VDW>
-14.9163

>  <SCORE.INTER.norm>
-4.12257

>  <SCORE.INTRA>
1.32862

>  <SCORE.INTRA.DIHEDRAL>
1.42742

>  <SCORE.INTRA.DIHEDRAL.0>
3.00949

>  <SCORE.INTRA.POLAR>
0.339103

>  <SCORE.INTRA.POLAR.0>
-0.339103

>  <SCORE.INTRA.REPUL>
0

>  <SCORE.INTRA.REPUL.0>
0

>  <SCORE.INTRA.SOLV>
-0.116835

>  <SCORE.INTRA.SOLV.lig_0>
-16.2546

>  <SCORE.INTRA.VDW>
-0.479627

>  <SCORE.INTRA.VDW.0>
0.214379

>  <SCORE.INTRA.norm>
0.147624

>  <SCORE.RESTR>
0

>  <SCORE.RESTR.CAVITY>
0

>  <SCORE.RESTR.norm>
0

>  <SCORE.SYSTEM>
-20.4135

>  <SCORE.SYSTEM.CONST>
0

>  <SCORE.SYSTEM.DIHEDRAL>
4.49019

>  <SCORE.SYSTEM.POLAR>
-3.03087

>  <SCORE.SYSTEM.SOLV>
0.024918

>  <SCORE.SYSTEM.VDW>
-5.01116

>  <SCORE.SYSTEM.norm>
-2.26817

>  <SCORE.heavy>
9

>  <SCORE.norm>
-6.24311

$$$$
P67315782
 OpenBabel12072022113D
libRbt.so/2013.1/901 2013/11/27
 12 12  0  0  0  0  0  0  0  0999 V2000
    6.9143   19.3249    5.2755 C   0  0  0  0  0  0  0  0  0  0  0  0
    5.9621   18.9657    4.1419 C   0  0  2  0  0  0  0  0  0  0  0  0
    5.5255   17.4997    4.1144 C   0  0  1  0  0  0  0  0  0  0  0  0
    6.5845   16.8751    3.2245 C   0  0  2  0  0  0  0  0  0  0  0  0
    6.7900   17.9861    2.1979 C   0  0  2  0  0  0  0  0  0  0  0  0
    6.6364   19.2249    2.8878 O   0  0  0  0  0  0  0  0  0  0  0  0
    5.7724   17.8935    1.2064 O   0  0  0  0  0  0  0  0  0  0  0  0
    6.1335   15.6463    2.6582 O   0  0  0  0  0  0  0  0  0  0  0  0
    5.4596   16.8746    5.3880 O   0  0  0  0  0  0  0  0  0  0  0  0
    5.7155   18.7923    0.8364 H   0  0  0  0  0  0  0  0  0  0  0  0
    6.2116   14.9884    3.3809 H   0  0  0  0  0  0  0  0  0  0  0  0
    5.3352   15.9218    5.2138 H   0  0  0  0  0  0  0  0  0  0  0  0
  2  6  1  0  0  0  0
  2  1  1  1  0  0  0
  2  3  1  0  0  0  0
  3  9  1  1  0  0  0
  3  4  1  0  0  0  0
  4  8  1  6  0  0  0
  4  5  1  0  0  0  0
  5  6  1  0  0  0  0
  5  7  1  6  0  0  0
  7 10  1  0  0  0  0
  8 11  1  0  0  0  0
  9 12  1  0  0  0  0
M  END
>  <CHROM.0>
-56.55227473,-174.78139819,-73.63125913,-49.14043895,-64.47065912,-63.22558502
-172.39237716,-58.68145817,-168.52980471

>  <CHROM.1>
-169.80967216,-77.39526717,156.32788545,6.18083199,17.76925610,3.43797103
-1.47031322,-1.34244642,-1.88474357

>  <Name>
P67315782

>  <RI>
3.51561e+07

>  <Rbt.Current_Directory>
/home/fstefaniak/projects/zuza/docking/adenine/4XNR

>  <Rbt.Executable>
rbdock ($Id: //depot/dev/client3/rdock/2013.1/src/exe/rbdock.cxx#4 $)

>  <Rbt.Library>
libRbt.so (2013.1, Build901 2013/11/27)

>  <Rbt.Parameter_File>
/home/fstefaniak/progs/rDock//data/scripts/dock_solv.prm

>  <Rbt.Receptor>
4xnr.prm

>  <SCORE>
-56.0988

>  <SCORE.INTER>
-37.2604

>  <SCORE.INTER.CONST>
1

>  <SCORE.INTER.POLAR>
-5.44048

>  <SCORE.INTER.ROT>
0

>  <SCORE.INTER.SOLV>
13.6038

>  <SCORE.INTER.VDW>
-14.8399

>  <SCORE.INTER.norm>
-4.14004

>  <SCORE.INTRA>
1.32969

>  <SCORE.INTRA.DIHEDRAL>
1.47312

>  <SCORE.INTRA.DIHEDRAL.0>
3.00949

>  <SCORE.INTRA.POLAR>
0.339103

>  <SCORE.INTRA.POLAR.0>
-0.339103

>  <SCORE.INTRA.REPUL>
0

>  <SCORE.INTRA.REPUL.0>
0

>  <SCORE.INTRA.SOLV>
-0.116621

>  <SCORE.INTRA.SOLV.lig_0>
-16.2546

>  <SCORE.INTRA.VDW>
-0.50151

>  <SCORE.INTRA.VDW.0>
0.214379

>  <SCORE.INTRA.norm>
0.147743

>  <SCORE.RESTR>
0

>  <SCORE.RESTR.CAVITY>
0

>  <SCORE.RESTR.norm>
0

>  <SCORE.SYSTEM>
-20.1681

>  <SCORE.SYSTEM.CONST>
0

>  <SCORE.SYSTEM.DIHEDRAL>
4.67384

>  <SCORE.SYSTEM.POLAR>
-2.93738

>  <SCORE.SYSTEM.SOLV>
0.193193

>  <SCORE.SYSTEM.VDW>
-5.27646

>  <SCORE.SYSTEM.norm>
-2.2409

>  <SCORE.heavy>
9

>  <SCORE.norm>
-6.2332

$$$$
P67889152
 OpenBabel12072022113D
libRbt.so/2013.1/901 2013/11/27
 16 16  0  0  0  0  0  0  0  0999 V2000
    3.9112   17.5409    3.0247 C   0  0  0  0  0  0  0  0  0  0  0  0
    4.9402   16.7948    3.8971 C   0  0  0  0  0  0  0  0  0  0  0  0
    6.2934   16.6470    3.1585 C   0  0  0  0  0  0  0  0  0  0  0  0
    7.0559   17.9621    2.9956 C   0  0  0  0  0  0  0  0  0  0  0  0
    7.2532   18.6724    4.3283 C   0  0  0  0  0  0  0  0  0  0  0  0
    5.9297   18.8849    5.0509 C   0  0  0  0  0  0  0  0  0  0  0  0
    5.1676   17.5722    5.2200 C   0  0  0  0  0  0  0  0  0  0  0  0
    4.4061   15.4668    4.2661 N   0  0  0  0  0  0  0  0  0  0  0  0
    3.2587   14.9207    3.7413 C   0  0  0  0  0  0  0  0  0  0  0  0
    3.2001   14.1396    2.8000 O   0  0  0  0  0  0  0  0  0  0  0  0
    2.1327   15.3788    4.4200 N   0  0  0  0  0  0  0  0  0  0  0  0
    0.9819   14.5492    4.4519 N   0  0  0  0  0  0  0  0  0  0  0  0
    4.5938   15.1630    5.2111 H   0  0  0  0  0  0  0  0  0  0  0  0
    2.3215   15.9282    5.2544 H   0  0  0  0  0  0  0  0  0  0  0  0
    0.2208   15.0907    4.0162 H   0  0  0  0  0  0  0  0  0  0  0  0
    0.6884   14.4848    5.4310 H   0  0  0  0  0  0  0  0  0  0  0  0
  1  2  1  0  0  0  0
  2  3  1  0  0  0  0
  2  7  1  0  0  0  0
  2  8  1  0  0  0  0
  3  4  1  0  0  0  0
  4  5  1  0  0  0  0
  5  6  1  0  0  0  0
  6  7  1  0  0  0  0
  8  9  1  0  0  0  0
  8 13  1  0  0  0  0
  9 10  2  0  0  0  0
  9 11  1  0  0  0  0
 11 12  1  0  0  0  0
 11 14  1  0  0  0  0
 12 15  1  0  0  0  0
 12 16  1  0  0  0  0
M  END
>  <CHROM.0>
-56.85754324,-60.61233888,-69.02078437,-46.63622824,-60.59757615,-55.69277648
-70.80541382,-174.64725781,-168.05879514

>  <CHROM.1>
8.83914827,95.83417070,-152.72732892,-120.62335757,4.47526724,16.50651045
3.95471000,0.48939933,0.47584874,0.73712245

>  <Name>
P67889152

>  <RI>
2.22087e+07

>  <Rbt.Current_Directory>
/home/fstefaniak/projects/zuza/docking/adenine/4XNR

>  <Rbt.Executable>
rbdock ($Id: //depot/dev/client3/rdock/2013.1/src/exe/rbdock.cxx#4 $)

>  <Rbt.Library>
libRbt.so (2013.1, Build901 2013/11/27)

>  <Rbt.Parameter_File>
/home/fstefaniak/progs/rDock//data/scripts/dock_solv.prm

>  <Rbt.Receptor>
4xnr.prm

>  <SCORE>
-44.1248

>  <SCORE.INTER>
-25.187

>  <SCORE.INTER.CONST>
1

>  <SCORE.INTER.POLAR>
-3.12989

>  <SCORE.INTER.ROT>
4

>  <SCORE.INTER.SOLV>
13.3251

>  <SCORE.INTER.VDW>
-17.0668

>  <SCORE.INTER.norm>
-2.09892

>  <SCORE.INTRA>
1.77923

>  <SCORE.INTRA.DIHEDRAL>
1.61344

>  <SCORE.INTRA.DIHEDRAL.0>
2.72739

>  <SCORE.INTRA.POLAR>
0

>  <SCORE.INTRA.POLAR.0>
0

>  <SCORE.INTRA.REPUL>
0

>  <SCORE.INTRA.REPUL.0>
0

>  <SCORE.INTRA.SOLV>
0.149019

>  <SCORE.INTRA.SOLV.lig_0>
-15.5592

>  <SCORE.INTRA.VDW>
0.897995

>  <SCORE.INTRA.VDW.0>
-0.0442612

>  <SCORE.INTRA.norm>
0.148269

>  <SCORE.RESTR>
0

>  <SCORE.RESTR.CAVITY>
0

>  <SCORE.RESTR.norm>
0

>  <SCORE.SYSTEM>
-20.717

>  <SCORE.SYSTEM.CONST>
0

>  <SCORE.SYSTEM.DIHEDRAL>
4.73479

>  <SCORE.SYSTEM.POLAR>
-3.01195

>  <SCORE.SYSTEM.SOLV>
0.149041

>  <SCORE.SYSTEM.VDW>
-5.39947

>  <SCORE.SYSTEM.norm>
-1.72642

>  <SCORE.heavy>
12

>  <SCORE.norm>
-3.67707

$$$$
P67889152
 OpenBabel12072022113D
libRbt.so/2013.1/901 2013/11/27
 16 16  0  0  0  0  0  0  0  0999 V2000
    3.7975   17.4086    3.1608 C   0  0  0  0  0  0  0  0  0  0  0  0
    4.8944   16.6963    3.9770 C   0  0  0  0  0  0  0  0  0  0  0  0
    6.2011   16.5634    3.1564 C   0  0  0  0  0  0  0  0  0  0  0  0
    6.9249   17.8904    2.9269 C   0  0  0  0  0  0  0  0  0  0  0  0
    7.1910   18.6252    4.2342 C   0  0  0  0  0  0  0  0  0  0  0  0
    5.9116   18.8229    5.0358 C   0  0  0  0  0  0  0  0  0  0  0  0
    5.1886   17.4985    5.2716 C   0  0  0  0  0  0  0  0  0  0  0  0
    4.4118   15.3641    4.3979 N   0  0  0  0  0  0  0  0  0  0  0  0
    3.3648   14.6975    3.8066 C   0  0  0  0  0  0  0  0  0  0  0  0
    3.3466   14.2579    2.6638 O   0  0  0  0  0  0  0  0  0  0  0  0
    2.2886   14.5825    4.6824 N   0  0  0  0  0  0  0  0  0  0  0  0
    1.3745   15.6641    4.7715 N   0  0  0  0  0  0  0  0  0  0  0  0
    4.5174   15.1464    5.3788 H   0  0  0  0  0  0  0  0  0  0  0  0
    1.8985   13.6478    4.7714 H   0  0  0  0  0  0  0  0  0  0  0  0
    0.7410   15.4459    5.5546 H   0  0  0  0  0  0  0  0  0  0  0  0
    0.7605   15.6032    3.9539 H   0  0  0  0  0  0  0  0  0  0  0  0
  1  2  1  0  0  0  0
  2  3  1  0  0  0  0
  2  7  1  0  0  0  0
  2  8  1  0  0  0  0
  3  4  1  0  0  0  0
  4  5  1  0  0  0  0
  5  6  1  0  0  0  0
  6  7  1  0  0  0  0
  8  9  1  0  0  0  0
  8 13  1  0  0  0  0
  9 10  2  0  0  0  0
  9 11  1  0  0  0  0
 11 12  1  0  0  0  0
 11 14  1  0  0  0  0
 12 15  1  0  0  0  0
 12 16  1  0  0  0  0
M  END
>  <CHROM.0>
-56.92774515,56.13863332,-73.53957424,-46.91087064,-58.45195633,60.61532829
-171.47900139,-58.68459846,-167.53390961

>  <CHROM.1>
19.47496345,66.40540824,84.69610044,-172.18645789,4.50592453,16.46848705
4.01048921,0.49208748,0.49848599,0.70950787

>  <Name>
P67889152

>  <RI>
2.22087e+07

>  <Rbt.Current_Directory>
/home/fstefaniak/projects/zuza/docking/adenine/4XNR

>  <Rbt.Executable>
rbdock ($Id: //depot/dev/client3/rdock/2013.1/src/exe/rbdock.cxx#4 $)

>  <Rbt.Library>
libRbt.so (2013.1, Build901 2013/11/27)

>  <Rbt.Parameter_File>
/home/fstefaniak/progs/rDock//data/scripts/dock_solv.prm

>  <Rbt.Receptor>
4xnr.prm

>  <SCORE>
-41.657

>  <SCORE.INTER>
-24.3056

>  <SCORE.INTER.CONST>
1

>  <SCORE.INTER.POLAR>
-2.92943

>  <SCORE.INTER.ROT>
4

>  <SCORE.INTER.SOLV>
13.5065

>  <SCORE.INTER.VDW>
-17.2078

>  <SCORE.INTER.norm>
-2.02547

>  <SCORE.INTRA>
1.03262

>  <SCORE.INTRA.DIHEDRAL>
0.470893

>  <SCORE.INTRA.DIHEDRAL.0>
2.72739

>  <SCORE.INTRA.POLAR>
0

>  <SCORE.INTRA.POLAR.0>
0

>  <SCORE.INTRA.REPUL>
0

>  <SCORE.INTRA.REPUL.0>
0

>  <SCORE.INTRA.SOLV>
0.523376

>  <SCORE.INTRA.SOLV.lig_0>
-15.5592

>  <SCORE.INTRA.VDW>
0.535482

>  <SCORE.INTRA.VDW.0>
-0.0442612

>  <SCORE.INTRA.norm>
0.0860514

>  <SCORE.RESTR>
0

>  <SCORE.RESTR.CAVITY>
0

>  <SCORE.RESTR.norm>
0

>  <SCORE.SYSTEM>
-18.384

>  <SCORE.SYSTEM.CONST>
0

>  <SCORE.SYSTEM.DIHEDRAL>
4.87478

>  <SCORE.SYSTEM.POLAR>
-2.98717

>  <SCORE.SYSTEM.SOLV>
0.197172

>  <SCORE.SYSTEM.VDW>
-3.98942

>  <SCORE.SYSTEM.norm>
-1.532

>  <SCORE.heavy>
12

>  <SCORE.norm>
-3.47141

$$$$
P67889152
 OpenBabel12072022113D
libRbt.so/2013.1/901 2013/11/27
 16 16  0  0  0  0  0  0  0  0999 V2000
    3.9591   17.6037    2.8829 C   0  0  0  0  0  0  0  0  0  0  0  0
    4.8977   16.8408    3.8388 C   0  0  0  0  0  0  0  0  0  0  0  0
    6.2757   16.5855    3.1800 C   0  0  0  0  0  0  0  0  0  0  0  0
    7.1203   17.8477    3.0038 C   0  0  0  0  0  0  0  0  0  0  0  0
    7.2904   18.6041    4.3148 C   0  0  0  0  0  0  0  0  0  0  0  0
    5.9464   18.9215    4.9565 C   0  0  0  0  0  0  0  0  0  0  0  0
    5.1021   17.6620    5.1388 C   0  0  0  0  0  0  0  0  0  0  0  0
    4.2696   15.5621    4.2333 N   0  0  0  0  0  0  0  0  0  0  0  0
    3.1667   15.0190    3.6178 C   0  0  0  0  0  0  0  0  0  0  0  0
    3.1738   14.3424    2.5971 O   0  0  0  0  0  0  0  0  0  0  0  0
    2.0009   15.3437    4.3063 N   0  0  0  0  0  0  0  0  0  0  0  0
    1.1499   16.3380    3.7579 N   0  0  0  0  0  0  0  0  0  0  0  0
    4.3364   15.3214    5.2121 H   0  0  0  0  0  0  0  0  0  0  0  0
    1.5477   14.5687    4.7835 H   0  0  0  0  0  0  0  0  0  0  0  0
    1.2809   17.1828    4.3335 H   0  0  0  0  0  0  0  0  0  0  0  0
    0.1883   16.0586    3.9732 H   0  0  0  0  0  0  0  0  0  0  0  0
  1  2  1  0  0  0  0
  2  3  1  0  0  0  0
  2  7  1  0  0  0  0
  2  8  1  0  0  0  0
  3  4  1  0  0  0  0
  4  5  1  0  0  0  0
  5  6  1  0  0  0  0
  6  7  1  0  0  0  0
  8  9  1  0  0  0  0
  8 13  1  0  0  0  0
  9 10  2  0  0  0  0
  9 11  1  0  0  0  0
 11 12  1  0  0  0  0
 11 14  1  0  0  0  0
 12 15  1  0  0  0  0
 12 16  1  0  0  0  0
M  END
>  <CHROM.0>
-62.02086148,59.47891770,-72.21280679,-43.91070671,-61.25423055,-62.59585048
-172.26142600,-58.07607410,-168.14765103

>  <CHROM.1>
12.89892988,83.35970333,104.61370373,-105.59020513,4.45947775,16.69719185
3.81925620,0.52910759,0.25988938,0.56330625

>  <Name>
P67889152

>  <RI>
2.22087e+07

>  <Rbt.Current_Directory>
/home/fstefaniak/projects/zuza/docking/adenine/4XNR

>  <Rbt.Executable>
rbdock ($Id: //depot/dev/client3/rdock/2013.1/src/exe/rbdock.cxx#4 $)

>  <Rbt.Library>
libRbt.so (2013.1, Build901 2013/11/27)

>  <Rbt.Parameter_File>
/home/fstefaniak/progs/rDock//data/scripts/dock_solv.prm

>  <Rbt.Receptor>
4xnr.prm

>  <SCORE>
-41.2966

>  <SCORE.INTER>
-23.5969

>  <SCORE.INTER.CONST>
1

>  <SCORE.INTER.POLAR>
-3.30251

>  <SCORE.INTER.ROT>
4

>  <SCORE.INTER.SOLV>
12.864

>  <SCORE.INTER.VDW>
-15.2776

>  <SCORE.INTER.norm>
-1.96641

>  <SCORE.INTRA>
1.76025

>  <SCORE.INTRA.DIHEDRAL>
1.66271

>  <SCORE.INTRA.DIHEDRAL.0>
2.72739

>  <SCORE.INTRA.POLAR>
0

>  <SCORE.INTRA.POLAR.0>
0

>  <SCORE.INTRA.REPUL>
0

>  <SCORE.INTRA.REPUL.0>
0

>  <SCORE.INTRA.SOLV>
0.518567

>  <SCORE.INTRA.SOLV.lig_0>
-15.5592

>  <SCORE.INTRA.VDW>
0.669614

>  <SCORE.INTRA.VDW.0>
-0.0442612

>  <SCORE.INTRA.norm>
0.146688

>  <SCORE.RESTR>
0

>  <SCORE.RESTR.CAVITY>
0

>  <SCORE.RESTR.norm>
0

>  <SCORE.SYSTEM>
-19.4599

>  <SCORE.SYSTEM.CONST>
0

>  <SCORE.SYSTEM.DIHEDRAL>
4.93089

>  <SCORE.SYSTEM.POLAR>
-3.00123

>  <SCORE.SYSTEM.SOLV>
0.307163

>  <SCORE.SYSTEM.VDW>
-4.71518

>  <SCORE.SYSTEM.norm>
-1.62166

>  <SCORE.heavy>
12

>  <SCORE.norm>
-3.44138

$$$$
P74273782
 OpenBabel12072022113D
libRbt.so/2013.1/901 2013/11/27
 15 16  0  0  0  0  0  0  0  0999 V2000
    7.8956   18.6570    5.8665 C   0  0  0  0  0  0  0  0  0  0  0  0
    7.4418   18.4897    4.4101 C   0  0  0  0  0  0  0  0  0  0  0  0
    6.0137   19.0669    4.4267 C   0  0  2  0  0  0  0  0  0  0  0  0
    6.1796   20.2345    5.3983 C   0  0  0  0  0  0  0  0  0  0  0  0
    6.6748   19.3292    6.5203 C   0  0  1  0  0  0  0  0  0  0  0  0
    5.5393   18.2988    6.5990 C   0  0  0  0  0  0  0  0  0  0  0  0
    5.0557   18.2436    5.2032 N   0  0  0  0  0  0  0  0  0  0  0  0
    4.8858   16.8591    4.7308 C   0  0  0  0  0  0  0  0  0  0  0  0
    5.0366   16.8190    3.2056 C   0  0  0  0  0  0  0  0  0  0  0  0
    4.4603   17.7475    2.5000 N   0  0  0  0  0  0  0  0  0  0  0  0
    4.6596   17.5216    1.1277 O   0  0  0  0  0  0  0  0  0  0  0  0
    5.7493   15.7700    2.6703 N   0  0  0  0  0  0  0  0  0  0  0  0
    4.9305   18.4045    0.8147 H   0  0  0  0  0  0  0  0  0  0  0  0
    6.5734   15.5456    3.2219 H   0  0  0  0  0  0  0  0  0  0  0  0
    5.1411   14.9773    2.4949 H   0  0  0  0  0  0  0  0  0  0  0  0
  1  2  1  0  0  0  0
  3  2  1  1  0  0  0
  3  4  1  0  0  0  0
  3  7  1  0  0  0  0
  4  5  1  0  0  0  0
  5  1  1  6  0  0  0
  5  6  1  0  0  0  0
  6  7  1  0  0  0  0
  7  8  1  0  0  0  0
  8  9  1  0  0  0  0
  9 10  2  0  0  0  0
  9 12  1  0  0  0  0
 10 11  1  0  0  0  0
 11 13  1  0  0  0  0
 12 14  1  0  0  0  0
 12 15  1  0  0  0  0
M  END
>  <CHROM.0>
-54.58008995,-62.62858133,-73.25296256,-47.63696432,-58.22612869,-55.17787172
-171.15973395,-55.88549443,-166.51444822

>  <CHROM.1>
-33.27255342,-43.16063375,-40.45686322,-132.98315135,5.78440771,18.05022095
4.31216387,-0.43398456,-1.15375632,-0.99081634

>  <Name>
P74273782

>  <RI>
1.00763e+07

>  <Rbt.Current_Directory>
/home/fstefaniak/projects/zuza/docking/adenine/4XNR

>  <Rbt.Executable>
rbdock ($Id: //depot/dev/client3/rdock/2013.1/src/exe/rbdock.cxx#4 $)

>  <Rbt.Library>
libRbt.so (2013.1, Build901 2013/11/27)

>  <Rbt.Parameter_File>
/home/fstefaniak/progs/rDock//data/scripts/dock_solv.prm

>  <Rbt.Receptor>
4xnr.prm

>  <SCORE>
-46.8357

>  <SCORE.INTER>
-28.2467

>  <SCORE.INTER.CONST>
1

>  <SCORE.INTER.POLAR>
-4.09323

>  <SCORE.INTER.ROT>
3

>  <SCORE.INTER.SOLV>
14.4297

>  <SCORE.INTER.VDW>
-15.5969

>  <SCORE.INTER.norm>
-2.35389

>  <SCORE.INTRA>
1.48239

>  <SCORE.INTRA.DIHEDRAL>
-0.0879892

>  <SCORE.INTRA.DIHEDRAL.0>
3.80758

>  <SCORE.INTRA.POLAR>
0.0969528

>  <SCORE.INTRA.POLAR.0>
-0.0969528

>  <SCORE.INTRA.REPUL>
0

>  <SCORE.INTRA.REPUL.0>
0

>  <SCORE.INTRA.SOLV>
0.0488312

>  <SCORE.INTRA.SOLV.lig_0>
-10.4179

>  <SCORE.INTRA.VDW>
1.17233

>  <SCORE.INTRA.VDW.0>
-0.928217

>  <SCORE.INTRA.norm>
0.123532

>  <SCORE.RESTR>
0

>  <SCORE.RESTR.CAVITY>
0

>  <SCORE.RESTR.norm>
0

>  <SCORE.SYSTEM>
-20.0714

>  <SCORE.SYSTEM.CONST>
0

>  <SCORE.SYSTEM.DIHEDRAL>
5.12272

>  <SCORE.SYSTEM.POLAR>
-3.01455

>  <SCORE.SYSTEM.SOLV>
0.250191

>  <SCORE.SYSTEM.VDW>
-5.12341

>  <SCORE.SYSTEM.norm>
-1.67262

>  <SCORE.heavy>
12

>  <SCORE.norm>
-3.90297

$$$$
P74273782
 OpenBabel12072022113D
libRbt.so/2013.1/901 2013/11/27
 15 16  0  0  0  0  0  0  0  0999 V2000
    7.8788   18.6839    6.0492 C   0  0  0  0  0  0  0  0  0  0  0  0
    7.5394   18.4729    4.5675 C   0  0  0  0  0  0  0  0  0  0  0  0
    6.1120   19.0415    4.4576 C   0  0  2  0  0  0  0  0  0  0  0  0
    6.1978   20.2369    5.4055 C   0  0  0  0  0  0  0  0  0  0  0  0
    6.6086   19.3665    6.5876 C   0  0  1  0  0  0  0  0  0  0  0  0
    5.4745   18.3317    6.6079 C   0  0  0  0  0  0  0  0  0  0  0  0
    5.1003   18.2345    5.1811 N   0  0  0  0  0  0  0  0  0  0  0  0
    4.9728   16.8362    4.7367 C   0  0  0  0  0  0  0  0  0  0  0  0
    5.0543   16.7785    3.2067 C   0  0  0  0  0  0  0  0  0  0  0  0
    4.5094   17.7390    2.5192 N   0  0  0  0  0  0  0  0  0  0  0  0
    4.6337   17.4935    1.1415 O   0  0  0  0  0  0  0  0  0  0  0  0
    5.6734   15.6824    2.6497 N   0  0  0  0  0  0  0  0  0  0  0  0
    4.8292   18.3835    0.7943 H   0  0  0  0  0  0  0  0  0  0  0  0
    6.4781   15.3798    3.1924 H   0  0  0  0  0  0  0  0  0  0  0  0
    4.9996   14.9470    2.4646 H   0  0  0  0  0  0  0  0  0  0  0  0
  1  2  1  0  0  0  0
  3  2  1  1  0  0  0
  3  4  1  0  0  0  0
  3  7  1  0  0  0  0
  4  5  1  0  0  0  0
  5  1  1  6  0  0  0
  5  6  1  0  0  0  0
  6  7  1  0  0  0  0
  7  8  1  0  0  0  0
  8  9  1  0  0  0  0
  9 10  2  0  0  0  0
  9 12  1  0  0  0  0
 10 11  1  0  0  0  0
 11 13  1  0  0  0  0
 12 14  1  0  0  0  0
 12 15  1  0  0  0  0
M  END
>  <CHROM.0>
-56.83529224,54.10480032,-57.34140520,-45.48145622,-57.29440220,-174.19213062
-67.16075267,-56.19159724,-168.16633143

>  <CHROM.1>
-40.79480748,-36.76958171,-37.66301942,-140.36468361,5.79519151,18.03745914
4.34869902,0.08434803,1.19327643,2.52044987

>  <Name>
P74273782

>  <RI>
1.00763e+07

>  <Rbt.Current_Directory>
/home/fstefaniak/projects/zuza/docking/adenine/4XNR

>  <Rbt.Executable>
rbdock ($Id: //depot/dev/client3/rdock/2013.1/src/exe/rbdock.cxx#4 $)

>  <Rbt.Library>
libRbt.so (2013.1, Build901 2013/11/27)

>  <Rbt.Parameter_File>
/home/fstefaniak/progs/rDock//data/scripts/dock_solv.prm

>  <Rbt.Receptor>
4xnr.prm

>  <SCORE>
-46.7321

>  <SCORE.INTER>
-28.1702

>  <SCORE.INTER.CONST>
1

>  <SCORE.INTER.POLAR>
-3.99869

>  <SCORE.INTER.ROT>
3

>  <SCORE.INTER.SOLV>
14.4989

>  <SCORE.INTER.VDW>
-15.8841

>  <SCORE.INTER.norm>
-2.34751

>  <SCORE.INTRA>
1.00773

>  <SCORE.INTRA.DIHEDRAL>
-0.273263

>  <SCORE.INTRA.DIHEDRAL.0>
3.80758

>  <SCORE.INTRA.POLAR>
0.0969528

>  <SCORE.INTRA.POLAR.0>
-0.0969528

>  <SCORE.INTRA.REPUL>
0

>  <SCORE.INTRA.REPUL.0>
0

>  <SCORE.INTRA.SOLV>
-0.0790982

>  <SCORE.INTRA.SOLV.lig_0>
-10.4179

>  <SCORE.INTRA.VDW>
0.854275

>  <SCORE.INTRA.VDW.0>
-0.928217

>  <SCORE.INTRA.norm>
0.0839778

>  <SCORE.RESTR>
0

>  <SCORE.RESTR.CAVITY>
0

>  <SCORE.RESTR.norm>
0

>  <SCORE.SYSTEM>
-19.5697

>  <SCORE.SYSTEM.CONST>
0

>  <SCORE.SYSTEM.DIHEDRAL>
4.44631

>  <SCORE.SYSTEM.POLAR>
-3.06135

>  <SCORE.SYSTEM.SOLV>
0.2991

>  <SCORE.SYSTEM.VDW>
-4.42374

>  <SCORE.SYSTEM.norm>
-1.63081

>  <SCORE.heavy>
12

>  <SCORE.norm>
-3.89434

$$$$
P74273782
 OpenBabel12072022113D
libRbt.so/2013.1/901 2013/11/27
 15 16  0  0  0  0  0  0  0  0999 V2000
    7.8560   18.5743    5.9408 C   0  0  0  0  0  0  0  0  0  0  0  0
    7.6504   18.7063    4.4257 C   0  0  0  0  0  0  0  0  0  0  0  0
    6.2507   19.3413    4.3229 C   0  0  2  0  0  0  0  0  0  0  0  0
    6.2724   20.2959    5.5158 C   0  0  0  0  0  0  0  0  0  0  0  0
    6.5553   19.1724    6.5065 C   0  0  1  0  0  0  0  0  0  0  0  0
    5.4039   18.2040    6.2001 C   0  0  0  0  0  0  0  0  0  0  0  0
    5.1609   18.4362    4.7606 N   0  0  0  0  0  0  0  0  0  0  0  0
    5.0472   17.1752    4.0083 C   0  0  0  0  0  0  0  0  0  0  0  0
    4.5694   17.4739    2.5824 C   0  0  0  0  0  0  0  0  0  0  0  0
    5.3995   17.2897    1.5979 N   0  0  0  0  0  0  0  0  0  0  0  0
    4.8111   17.6633    0.3780 O   0  0  0  0  0  0  0  0  0  0  0  0
    3.2896   17.9594    2.4355 N   0  0  0  0  0  0  0  0  0  0  0  0
    4.9960   18.6203    0.3490 H   0  0  0  0  0  0  0  0  0  0  0  0
    3.0187   18.5648    3.2060 H   0  0  0  0  0  0  0  0  0  0  0  0
    3.1691   18.3776    1.5192 H   0  0  0  0  0  0  0  0  0  0  0  0
  1  2  1  0  0  0  0
  3  2  1  1  0  0  0
  3  4  1  0  0  0  0
  3  7  1  0  0  0  0
  4  5  1  0  0  0  0
  5  1  1  6  0  0  0
  5  6  1  0  0  0  0
  6  7  1  0  0  0  0
  7  8  1  0  0  0  0
  8  9  1  0  0  0  0
  9 10  2  0  0  0  0
  9 12  1  0  0  0  0
 10 11  1  0  0  0  0
 11 13  1  0  0  0  0
 12 14  1  0  0  0  0
 12 15  1  0  0  0  0
M  END
>  <CHROM.0>
-63.22243251,59.44039646,-67.10334420,-48.78193608,-171.59471691,-62.99829640
-69.60970588,60.09916481,-167.52164613

>  <CHROM.1>
-68.89829716,111.21988318,34.55631237,85.70628541,5.64880100,18.35245407
3.97284632,-1.10184869,-0.20607789,-1.79239492

>  <Name>
P74273782

>  <RI>
1.00763e+07

>  <Rbt.Current_Directory>
/home/fstefaniak/projects/zuza/docking/adenine/4XNR

>  <Rbt.Executable>
rbdock ($Id: //depot/dev/client3/rdock/2013.1/src/exe/rbdock.cxx#4 $)

>  <Rbt.Library>
libRbt.so (2013.1, Build901 2013/11/27)

>  <Rbt.Parameter_File>
/home/fstefaniak/progs/rDock//data/scripts/dock_solv.prm

>  <Rbt.Receptor>
4xnr.prm

>  <SCORE>
-46.6955

>  <SCORE.INTER>
-26.9625

>  <SCORE.INTER.CONST>
1

>  <SCORE.INTER.POLAR>
-3.90692

>  <SCORE.INTER.ROT>
3

>  <SCORE.INTER.SOLV>
13.5809

>  <SCORE.INTER.VDW>
-15.0789

>  <SCORE.INTER.norm>
-2.24688

>  <SCORE.INTRA>
-0.671219

>  <SCORE.INTRA.DIHEDRAL>
-1.88331

>  <SCORE.INTRA.DIHEDRAL.0>
3.80758

>  <SCORE.INTRA.POLAR>
0.0944036

>  <SCORE.INTRA.POLAR.0>
-0.0969528

>  <SCORE.INTRA.REPUL>
0

>  <SCORE.INTRA.REPUL.0>
0

>  <SCORE.INTRA.SOLV>
-0.110072

>  <SCORE.INTRA.SOLV.lig_0>
-10.4179

>  <SCORE.INTRA.VDW>
0.00450252

>  <SCORE.INTRA.VDW.0>
-0.928217

>  <SCORE.INTRA.norm>
-0.0559349

>  <SCORE.RESTR>
0

>  <SCORE.RESTR.CAVITY>
0

>  <SCORE.RESTR.norm>
0

>  <SCORE.SYSTEM>
-19.0617

>  <SCORE.SYSTEM.CONST>
0

>  <SCORE.SYSTEM.DIHEDRAL>
4.45393

>  <SCORE.SYSTEM.POLAR>
-2.9275

>  <SCORE.SYSTEM.SOLV>
-0.0074866

>  <SCORE.SYSTEM.VDW>
-4.4316

>  <SCORE.SYSTEM.norm>
-1.58848

>  <SCORE.heavy>
12

>  <SCORE.norm>
-3.89129

$$$$
P74301782
 OpenBabel12072022113D
libRbt.so/2013.1/901 2013/11/27
 14 14  0  0  0  0  0  0  0  0999 V2000
    7.3940   18.3929    3.8632 C   0  0  0  0  0  0  0  0  0  0  0  0
    6.4512   18.3555    2.6648 C   0  0  0  0  0  0  0  0  0  0  0  0
    5.1983   17.1132    2.8649 S   0  0  0  0  0  0  0  0  0  0  0  0
    5.8616   15.8268    2.9749 O   0  0  0  0  0  0  0  0  0  0  0  0
    4.1741   17.3333    1.8628 O   0  0  0  0  0  0  0  0  0  0  0  0
    4.5159   17.5111    4.4557 C   0  0  0  0  0  0  0  0  0  0  0  0
    5.6054   17.6086    5.5174 C   0  0  0  0  0  0  0  0  0  0  0  0
    6.6876   18.6676    5.2130 C   0  0  0  0  0  0  0  0  0  0  0  0
    7.7284   18.6816    6.3680 C   0  0  0  0  0  0  0  0  0  0  0  0
    8.8242   19.5417    6.0550 O   0  0  0  0  0  0  0  0  0  0  0  0
    6.0521   19.9954    5.1213 N   0  0  0  0  0  0  0  0  0  0  0  0
    8.4601   20.4220    5.8566 H   0  0  0  0  0  0  0  0  0  0  0  0
    5.3504   19.9443    4.3711 H   0  0  0  0  0  0  0  0  0  0  0  0
    6.7271   20.6688    4.7495 H   0  0  0  0  0  0  0  0  0  0  0  0
  1  2  1  0  0  0  0
  1  8  1  0  0  0  0
  2  3  1  0  0  0  0
  3  4  2  0  0  0  0
  3  5  2  0  0  0  0
  3  6  1  0  0  0  0
  6  7  1  0  0  0  0
  7  8  1  0  0  0  0
  8  9  1  0  0  0  0
  8 11  1  0  0  0  0
  9 10  1  0  0  0  0
 10 12  1  0  0  0  0
 11 13  1  0  0  0  0
 11 14  1  0  0  0  0
M  END
>  <CHROM.0>
-58.80614996,59.95797929,-69.14001268,-46.05683560,-57.79625117,-60.96820409
-67.11697339,-60.81142277,-167.13786581

>  <CHROM.1>
50.59465850,62.36687948,55.71920791,6.13043740,18.00874634,4.10830900,-0.92227665
-0.27906808,-1.98866249

>  <Name>
P74301782

>  <RI>
9.71178e+06

>  <Rbt.Current_Directory>
/home/fstefaniak/projects/zuza/docking/adenine/4XNR

>  <Rbt.Executable>
rbdock ($Id: //depot/dev/client3/rdock/2013.1/src/exe/rbdock.cxx#4 $)

>  <Rbt.Library>
libRbt.so (2013.1, Build901 2013/11/27)

>  <Rbt.Parameter_File>
/home/fstefaniak/progs/rDock//data/scripts/dock_solv.prm

>  <Rbt.Receptor>
4xnr.prm

>  <SCORE>
-47.4054

>  <SCORE.INTER>
-27.0991

>  <SCORE.INTER.CONST>
1

>  <SCORE.INTER.POLAR>
-3.94894

>  <SCORE.INTER.ROT>
2

>  <SCORE.INTER.SOLV>
14.1748

>  <SCORE.INTER.VDW>
-14.5613

>  <SCORE.INTER.norm>
-2.46356

>  <SCORE.INTRA>
-0.332948

>  <SCORE.INTRA.DIHEDRAL>
-2.24852

>  <SCORE.INTRA.DIHEDRAL.0>
2.64919

>  <SCORE.INTRA.POLAR>
0.0266124

>  <SCORE.INTRA.POLAR.0>
-0.0266124

>  <SCORE.INTRA.REPUL>
0

>  <SCORE.INTRA.REPUL.0>
0

>  <SCORE.INTRA.SOLV>
-0.117993

>  <SCORE.INTRA.SOLV.lig_0>
-13.3028

>  <SCORE.INTRA.VDW>
0.759827

>  <SCORE.INTRA.VDW.0>
-0.0775399

>  <SCORE.INTRA.norm>
-0.030268

>  <SCORE.RESTR>
0

>  <SCORE.RESTR.CAVITY>
0

>  <SCORE.RESTR.norm>
0

>  <SCORE.SYSTEM>
-19.9733

>  <SCORE.SYSTEM.CONST>
0

>  <SCORE.SYSTEM.DIHEDRAL>
4.39345

>  <SCORE.SYSTEM.POLAR>
-2.99419

>  <SCORE.SYSTEM.SOLV>
0.360631

>  <SCORE.SYSTEM.VDW>
-4.91961

>  <SCORE.SYSTEM.norm>
-1.81575

>  <SCORE.heavy>
11

>  <SCORE.norm>
-4.30958

$$$$
P74301782
 OpenBabel12072022113D
libRbt.so/2013.1/901 2013/11/27
 14 14  0  0  0  0  0  0  0  0999 V2000
    7.3888   18.4162    3.8669 C   0  0  0  0  0  0  0  0  0  0  0  0
    6.4512   18.4000    2.6641 C   0  0  0  0  0  0  0  0  0  0  0  0
    5.2010   17.1505    2.8342 S   0  0  0  0  0  0  0  0  0  0  0  0
    5.8675   15.8640    2.9215 O   0  0  0  0  0  0  0  0  0  0  0  0
    4.1804   17.3876    1.8324 O   0  0  0  0  0  0  0  0  0  0  0  0
    4.5109   17.5149    4.4297 C   0  0  0  0  0  0  0  0  0  0  0  0
    5.5956   17.5943    5.4976 C   0  0  0  0  0  0  0  0  0  0  0  0
    6.6761   18.6622    5.2189 C   0  0  0  0  0  0  0  0  0  0  0  0
    7.7121   18.6561    6.3783 C   0  0  0  0  0  0  0  0  0  0  0  0
    8.8248   19.4961    6.0708 O   0  0  0  0  0  0  0  0  0  0  0  0
    6.0372   19.9898    5.1508 N   0  0  0  0  0  0  0  0  0  0  0  0
    8.4761   20.3772    5.8493 H   0  0  0  0  0  0  0  0  0  0  0  0
    5.3767   19.9681    4.3627 H   0  0  0  0  0  0  0  0  0  0  0  0
    6.7263   20.6818    4.8450 H   0  0  0  0  0  0  0  0  0  0  0  0
  1  2  1  0  0  0  0
  1  8  1  0  0  0  0
  2  3  1  0  0  0  0
  3  4  2  0  0  0  0
  3  5  2  0  0  0  0
  3  6  1  0  0  0  0
  6  7  1  0  0  0  0
  7  8  1  0  0  0  0
  8  9  1  0  0  0  0
  8 11  1  0  0  0  0
  9 10  1  0  0  0  0
 10 12  1  0  0  0  0
 11 13  1  0  0  0  0
 11 14  1  0  0  0  0
M  END
>  <CHROM.0>
-55.11318329,-63.83344498,-64.68670372,-47.73908602,60.85046156,-176.33927470
-68.66990645,-173.22359658,-168.34864109

>  <CHROM.1>
48.96347485,59.24019028,54.29334197,6.12750615,18.02115284,4.09735353,-0.92756671
-0.26376380,-1.97999134

>  <Name>
P74301782

>  <RI>
9.71178e+06

>  <Rbt.Current_Directory>
/home/fstefaniak/projects/zuza/docking/adenine/4XNR

>  <Rbt.Executable>
rbdock ($Id: //depot/dev/client3/rdock/2013.1/src/exe/rbdock.cxx#4 $)

>  <Rbt.Library>
libRbt.so (2013.1, Build901 2013/11/27)

>  <Rbt.Parameter_File>
/home/fstefaniak/progs/rDock//data/scripts/dock_solv.prm

>  <Rbt.Receptor>
4xnr.prm

>  <SCORE>
-47.2119

>  <SCORE.INTER>
-27.3382

>  <SCORE.INTER.CONST>
1

>  <SCORE.INTER.POLAR>
-4.08006

>  <SCORE.INTER.ROT>
2

>  <SCORE.INTER.SOLV>
14.1531

>  <SCORE.INTER.VDW>
-14.2763

>  <SCORE.INTER.norm>
-2.4853

>  <SCORE.INTRA>
-0.218079

>  <SCORE.INTRA.DIHEDRAL>
-2.1351

>  <SCORE.INTRA.DIHEDRAL.0>
2.64919

>  <SCORE.INTRA.POLAR>
0.0266124

>  <SCORE.INTRA.POLAR.0>
-0.0266124

>  <SCORE.INTRA.REPUL>
0

>  <SCORE.INTRA.REPUL.0>
0

>  <SCORE.INTRA.SOLV>
-0.118225

>  <SCORE.INTRA.SOLV.lig_0>
-13.3028

>  <SCORE.INTRA.VDW>
0.818101

>  <SCORE.INTRA.VDW.0>
-0.0775399

>  <SCORE.INTRA.norm>
-0.0198254

>  <SCORE.RESTR>
0

>  <SCORE.RESTR.CAVITY>
0

>  <SCORE.RESTR.norm>
0

>  <SCORE.SYSTEM>
-19.6556

>  <SCORE.SYSTEM.CONST>
0

>  <SCORE.SYSTEM.DIHEDRAL>
4.3205

>  <SCORE.SYSTEM.POLAR>
-2.99937

>  <SCORE.SYSTEM.SOLV>
-0.168167

>  <SCORE.SYSTEM.VDW>
-4.4899

>  <SCORE.SYSTEM.norm>
-1.78687

>  <SCORE.heavy>
11

>  <SCORE.norm>
-4.29199

$$$$
P74301782
 OpenBabel12072022113D
libRbt.so/2013.1/901 2013/11/27
 14 14  0  0  0  0  0  0  0  0999 V2000
    7.4054   18.3535    3.8677 C   0  0  0  0  0  0  0  0  0  0  0  0
    6.4757   18.3172    2.6592 C   0  0  0  0  0  0  0  0  0  0  0  0
    5.2067   17.0906    2.8550 S   0  0  0  0  0  0  0  0  0  0  0  0
    5.8541   15.7978    2.9826 O   0  0  0  0  0  0  0  0  0  0  0  0
    4.1962   17.3142    1.8398 O   0  0  0  0  0  0  0  0  0  0  0  0
    4.5112   17.5089    4.4349 C   0  0  0  0  0  0  0  0  0  0  0  0
    5.5898   17.6026    5.5079 C   0  0  0  0  0  0  0  0  0  0  0  0
    6.6872   18.6470    5.2073 C   0  0  0  0  0  0  0  0  0  0  0  0
    7.7153   18.6585    6.3738 C   0  0  0  0  0  0  0  0  0  0  0  0
    8.8183   19.5130    6.0714 O   0  0  0  0  0  0  0  0  0  0  0  0
    6.0679   19.9811    5.0980 N   0  0  0  0  0  0  0  0  0  0  0  0
    8.4591   20.3890    5.8467 H   0  0  0  0  0  0  0  0  0  0  0  0
    5.3997   19.9418    4.3172 H   0  0  0  0  0  0  0  0  0  0  0  0
    6.7644   20.6511    4.7617 H   0  0  0  0  0  0  0  0  0  0  0  0
  1  2  1  0  0  0  0
  1  8  1  0  0  0  0
  2  3  1  0  0  0  0
  3  4  2  0  0  0  0
  3  5  2  0  0  0  0
  3  6  1  0  0  0  0
  6  7  1  0  0  0  0
  7  8  1  0  0  0  0
  8  9  1  0  0  0  0
  8 11  1  0  0  0  0
  9 10  1  0  0  0  0
 10 12  1  0  0  0  0
 11 13  1  0  0  0  0
 11 14  1  0  0  0  0
M  END
>  <CHROM.0>
-55.10998215,-61.93939316,-65.45854425,-45.41289914,-174.32347475,58.82047641
-66.96089764,-171.34050447,-167.58060727

>  <CHROM.1>
51.11284580,60.26633758,54.40550957,6.13459154,17.98653043,4.10213927,-0.92737950
-0.27246976,-1.99281751

>  <Name>
P74301782

>  <RI>
9.71178e+06

>  <Rbt.Current_Directory>
/home/fstefaniak/projects/zuza/docking/adenine/4XNR

>  <Rbt.Executable>
rbdock ($Id: //depot/dev/client3/rdock/2013.1/src/exe/rbdock.cxx#4 $)

>  <Rbt.Library>
libRbt.so (2013.1, Build901 2013/11/27)

>  <Rbt.Parameter_File>
/home/fstefaniak/progs/rDock//data/scripts/dock_solv.prm

>  <Rbt.Receptor>
4xnr.prm

>  <SCORE>
-47.1006

>  <SCORE.INTER>
-27.0761

>  <SCORE.INTER.CONST>
1

>  <SCORE.INTER.POLAR>
-3.91109

>  <SCORE.INTER.ROT>
2

>  <SCORE.INTER.SOLV>
14.1811

>  <SCORE.INTER.VDW>
-14.6742

>  <SCORE.INTER.norm>
-2.46147

>  <SCORE.INTRA>
-0.310221

>  <SCORE.INTRA.DIHEDRAL>
-2.24698

>  <SCORE.INTRA.DIHEDRAL.0>
2.64919

>  <SCORE.INTRA.POLAR>
0.026452

>  <SCORE.INTRA.POLAR.0>
-0.0266124

>  <SCORE.INTRA.REPUL>
0

>  <SCORE.INTRA.REPUL.0>
0

>  <SCORE.INTRA.SOLV>
-0.114729

>  <SCORE.INTRA.SOLV.lig_0>
-13.3028

>  <SCORE.INTRA.VDW>
0.780698

>  <SCORE.INTRA.VDW.0>
-0.0775399

>  <SCORE.INTRA.norm>
-0.0282019

>  <SCORE.RESTR>
0

>  <SCORE.RESTR.CAVITY>
0

>  <SCORE.RESTR.norm>
0

>  <SCORE.SYSTEM>
-19.7143

>  <SCORE.SYSTEM.CONST>
0

>  <SCORE.SYSTEM.DIHEDRAL>
4.75355

>  <SCORE.SYSTEM.POLAR>
-3.03903

>  <SCORE.SYSTEM.SOLV>
-0.142094

>  <SCORE.SYSTEM.VDW>
-4.54991

>  <SCORE.SYSTEM.norm>
-1.79221

>  <SCORE.heavy>
11

>  <SCORE.norm>
-4.28188

$$$$
P75223345
 OpenBabel12072022113D
libRbt.so/2013.1/901 2013/11/27
 14 14  0  0  0  0  0  0  0  0999 V2000
    3.1319   13.6740    5.3941 C   0  0  0  0  0  0  0  0  0  0  0  0
    2.3947   14.0255    4.0894 C   0  0  0  0  0  0  0  0  0  0  0  0
    2.9841   13.1979    2.9331 C   0  0  0  0  0  0  0  0  0  0  0  0
    0.9102   13.6421    4.2526 C   0  0  0  0  0  0  0  0  0  0  0  0
    2.4678   15.5450    3.7918 C   0  0  0  0  0  0  0  0  0  0  0  0
    3.8370   16.0578    3.5407 C   0  0  0  0  0  0  0  0  0  0  0  0
    4.6854   15.7509    2.5822 N   0  0  0  0  0  0  0  0  0  0  0  0
    5.8145   16.5116    2.8049 N   0  0  0  0  0  0  0  0  0  0  0  0
    5.5767   17.2184    3.8910 C   0  0  0  0  0  0  0  0  0  0  0  0
    4.3391   16.9736    4.4257 O   0  0  0  0  0  0  0  0  0  0  0  0
    6.4448   18.2108    4.5787 C   0  0  0  0  0  0  0  0  0  0  0  0
    7.4992   18.7348    3.7031 N   0  0  0  0  0  0  0  0  0  0  0  0
    7.1431   18.7555    2.7464 H   0  0  0  0  0  0  0  0  0  0  0  0
    8.2812   18.0827    3.7006 H   0  0  0  0  0  0  0  0  0  0  0  0
  1  2  1  0  0  0  0
  2  3  1  0  0  0  0
  2  4  1  0  0  0  0
  2  5  1  0  0  0  0
  5  6  1  0  0  0  0
  6  7  2  0  0  0  0
  6 10  1  0  0  0  0
  7  8  1  0  0  0  0
  8  9  2  0  0  0  0
  9 10  1  0  0  0  0
  9 11  1  0  0  0  0
 11 12  1  0  0  0  0
 12 13  1  0  0  0  0
 12 14  1  0  0  0  0
M  END
>  <CHROM.0>
-52.66884239,169.40464652,-67.73937785,-45.57890601,-58.14420146,-56.69358299
-67.76791693,-56.34774478,-166.81006684

>  <CHROM.1>
64.06443447,62.58083623,19.90521915,31.96753512,4.19297018,15.79983459,3.83836795
2.77962613,-0.68619902,-2.17746181

>  <Name>
P75223345

>  <RI>
3.4169e+07

>  <Rbt.Current_Directory>
/home/fstefaniak/projects/zuza/docking/adenine/4XNR

>  <Rbt.Executable>
rbdock ($Id: //depot/dev/client3/rdock/2013.1/src/exe/rbdock.cxx#4 $)

>  <Rbt.Library>
libRbt.so (2013.1, Build901 2013/11/27)

>  <Rbt.Parameter_File>
/home/fstefaniak/progs/rDock//data/scripts/dock_solv.prm

>  <Rbt.Receptor>
4xnr.prm

>  <SCORE>
-48.5377

>  <SCORE.INTER>
-29.3157

>  <SCORE.INTER.CONST>
1

>  <SCORE.INTER.POLAR>
-4.10274

>  <SCORE.INTER.ROT>
4

>  <SCORE.INTER.SOLV>
10.389

>  <SCORE.INTER.VDW>
-15.5977

>  <SCORE.INTER.norm>
-2.44297

>  <SCORE.INTRA>
0.748738

>  <SCORE.INTRA.DIHEDRAL>
0.861734

>  <SCORE.INTRA.DIHEDRAL.0>
2.77766

>  <SCORE.INTRA.POLAR>
0

>  <SCORE.INTRA.POLAR.0>
0

>  <SCORE.INTRA.REPUL>
0

>  <SCORE.INTRA.REPUL.0>
0

>  <SCORE.INTRA.SOLV>
-0.0178991

>  <SCORE.INTRA.SOLV.lig_0>
-8.89599

>  <SCORE.INTRA.VDW>
0.32682

>  <SCORE.INTRA.VDW.0>
-0.603303

>  <SCORE.INTRA.norm>
0.0623948

>  <SCORE.RESTR>
0

>  <SCORE.RESTR.CAVITY>
0

>  <SCORE.RESTR.norm>
0

>  <SCORE.SYSTEM>
-19.9708

>  <SCORE.SYSTEM.CONST>
0

>  <SCORE.SYSTEM.DIHEDRAL>
5.28776

>  <SCORE.SYSTEM.POLAR>
-3.07417

>  <SCORE.SYSTEM.SOLV>
0.301287

>  <SCORE.SYSTEM.VDW>
-4.92968

>  <SCORE.SYSTEM.norm>
-1.66424

>  <SCORE.heavy>
12

>  <SCORE.norm>
-4.04481

$$$$
P75223345
 OpenBabel12072022113D
libRbt.so/2013.1/901 2013/11/27
 14 14  0  0  0  0  0  0  0  0999 V2000
    3.0880   13.5990    5.4379 C   0  0  0  0  0  0  0  0  0  0  0  0
    2.3913   13.7318    4.0718 C   0  0  0  0  0  0  0  0  0  0  0  0
    3.1296   12.8633    3.0375 C   0  0  0  0  0  0  0  0  0  0  0  0
    0.9497   13.2023    4.2090 C   0  0  0  0  0  0  0  0  0  0  0  0
    2.3174   15.2120    3.6176 C   0  0  0  0  0  0  0  0  0  0  0  0
    3.6363   15.8666    3.4361 C   0  0  0  0  0  0  0  0  0  0  0  0
    4.5111   15.7356    2.4613 N   0  0  0  0  0  0  0  0  0  0  0  0
    5.5674   16.5660    2.7734 N   0  0  0  0  0  0  0  0  0  0  0  0
    5.2649   17.1341    3.9231 C   0  0  0  0  0  0  0  0  0  0  0  0
    4.0526   16.7276    4.4156 O   0  0  0  0  0  0  0  0  0  0  0  0
    6.0395   18.1235    4.7183 C   0  0  0  0  0  0  0  0  0  0  0  0
    5.6586   18.1251    6.1353 N   0  0  0  0  0  0  0  0  0  0  0  0
    5.6626   19.0900    6.4691 H   0  0  0  0  0  0  0  0  0  0  0  0
    6.3741   17.6369    6.6704 H   0  0  0  0  0  0  0  0  0  0  0  0
  1  2  1  0  0  0  0
  2  3  1  0  0  0  0
  2  4  1  0  0  0  0
  2  5  1  0  0  0  0
  5  6  1  0  0  0  0
  6  7  2  0  0  0  0
  6 10  1  0  0  0  0
  7  8  1  0  0  0  0
  8  9  2  0  0  0  0
  9 10  1  0  0  0  0
  9 11  1  0  0  0  0
 11 12  1  0  0  0  0
 12 13  1  0  0  0  0
 12 14  1  0  0  0  0
M  END
>  <CHROM.0>
-56.35013557,179.95528787,-51.77233096,-46.04398773,-173.13546626,-63.04023496
-70.21013943,-60.41929506,-168.16286028

>  <CHROM.1>
61.31722105,75.60930698,-157.55189383,-141.36960320,3.88834086,15.57799823
4.06601995,2.75428732,-0.83092949,-1.90970969

>  <Name>
P75223345

>  <RI>
3.4169e+07

>  <Rbt.Current_Directory>
/home/fstefaniak/projects/zuza/docking/adenine/4XNR

>  <Rbt.Executable>
rbdock ($Id: //depot/dev/client3/rdock/2013.1/src/exe/rbdock.cxx#4 $)

>  <Rbt.Library>
libRbt.so (2013.1, Build901 2013/11/27)

>  <Rbt.Parameter_File>
/home/fstefaniak/progs/rDock//data/scripts/dock_solv.prm

>  <Rbt.Receptor>
4xnr.prm

>  <SCORE>
-47.9648

>  <SCORE.INTER>
-28.5037

>  <SCORE.INTER.CONST>
1

>  <SCORE.INTER.POLAR>
-3.85469

>  <SCORE.INTER.ROT>
4

>  <SCORE.INTER.SOLV>
10.3206

>  <SCORE.INTER.VDW>
-15.8603

>  <SCORE.INTER.norm>
-2.37531

>  <SCORE.INTRA>
0.96282

>  <SCORE.INTRA.DIHEDRAL>
1.72681

>  <SCORE.INTRA.DIHEDRAL.0>
2.77766

>  <SCORE.INTRA.POLAR>
0

>  <SCORE.INTRA.POLAR.0>
0

>  <SCORE.INTRA.REPUL>
0

>  <SCORE.INTRA.REPUL.0>
0

>  <SCORE.INTRA.SOLV>
0.0498475

>  <SCORE.INTRA.SOLV.lig_0>
-8.89599

>  <SCORE.INTRA.VDW>
0.0744933

>  <SCORE.INTRA.VDW.0>
-0.603303

>  <SCORE.INTRA.norm>
0.080235

>  <SCORE.RESTR>
0

>  <SCORE.RESTR.CAVITY>
0

>  <SCORE.RESTR.norm>
0

>  <SCORE.SYSTEM>
-20.4239

>  <SCORE.SYSTEM.CONST>
0

>  <SCORE.SYSTEM.DIHEDRAL>
4.73437

>  <SCORE.SYSTEM.POLAR>
-3.0692

>  <SCORE.SYSTEM.SOLV>
0.105864

>  <SCORE.SYSTEM.VDW>
-4.99868

>  <SCORE.SYSTEM.norm>
-1.70199

>  <SCORE.heavy>
12

>  <SCORE.norm>
-3.99706

$$$$
P75223345
 OpenBabel12072022113D
libRbt.so/2013.1/901 2013/11/27
 14 14  0  0  0  0  0  0  0  0999 V2000
    3.1410   13.7053    5.3612 C   0  0  0  0  0  0  0  0  0  0  0  0
    2.3875   14.0145    4.0551 C   0  0  0  0  0  0  0  0  0  0  0  0
    2.9774   13.1661    2.9143 C   0  0  0  0  0  0  0  0  0  0  0  0
    0.9097   13.6160    4.2416 C   0  0  0  0  0  0  0  0  0  0  0  0
    2.4377   15.5269    3.7191 C   0  0  0  0  0  0  0  0  0  0  0  0
    3.8037   16.0647    3.5050 C   0  0  0  0  0  0  0  0  0  0  0  0
    4.6769   15.7855    2.5604 N   0  0  0  0  0  0  0  0  0  0  0  0
    5.7888   16.5603    2.8183 N   0  0  0  0  0  0  0  0  0  0  0  0
    5.5169   17.2470    3.9094 C   0  0  0  0  0  0  0  0  0  0  0  0
    4.2722   16.9749    4.4139 O   0  0  0  0  0  0  0  0  0  0  0  0
    6.3543   18.2423    4.6299 C   0  0  0  0  0  0  0  0  0  0  0  0
    7.5468   18.6284    3.8671 N   0  0  0  0  0  0  0  0  0  0  0  0
    8.1080   17.7918    3.7008 H   0  0  0  0  0  0  0  0  0  0  0  0
    8.1200   19.2451    4.4396 H   0  0  0  0  0  0  0  0  0  0  0  0
  1  2  1  0  0  0  0
  2  3  1  0  0  0  0
  2  4  1  0  0  0  0
  2  5  1  0  0  0  0
  5  6  1  0  0  0  0
  6  7  2  0  0  0  0
  6 10  1  0  0  0  0
  7  8  1  0  0  0  0
  8  9  2  0  0  0  0
  9 10  1  0  0  0  0
  9 11  1  0  0  0  0
 11 12  1  0  0  0  0
 12 13  1  0  0  0  0
 12 14  1  0  0  0  0
M  END
>  <CHROM.0>
-57.84149189,169.36186442,62.35289329,-47.11217844,-62.92216437,-62.94751583
53.65521262,-64.96377517,-167.35943047

>  <CHROM.1>
61.34517938,65.16732849,10.32865434,-59.99732696,4.17561833,15.79972099,3.84923454
2.75975166,-0.67477582,-2.17242306

>  <Name>
P75223345

>  <RI>
3.4169e+07

>  <Rbt.Current_Directory>
/home/fstefaniak/projects/zuza/docking/adenine/4XNR

>  <Rbt.Executable>
rbdock ($Id: //depot/dev/client3/rdock/2013.1/src/exe/rbdock.cxx#4 $)

>  <Rbt.Library>
libRbt.so (2013.1, Build901 2013/11/27)

>  <Rbt.Parameter_File>
/home/fstefaniak/progs/rDock//data/scripts/dock_solv.prm

>  <Rbt.Receptor>
4xnr.prm

>  <SCORE>
-47.0013

>  <SCORE.INTER>
-28.8154

>  <SCORE.INTER.CONST>
1

>  <SCORE.INTER.POLAR>
-3.97717

>  <SCORE.INTER.ROT>
4

>  <SCORE.INTER.SOLV>
10.4398

>  <SCORE.INTER.VDW>
-15.6996

>  <SCORE.INTER.norm>
-2.40128

>  <SCORE.INTRA>
0.0625053

>  <SCORE.INTRA.DIHEDRAL>
-0.0802129

>  <SCORE.INTRA.DIHEDRAL.0>
2.77766

>  <SCORE.INTRA.POLAR>
0

>  <SCORE.INTRA.POLAR.0>
0

>  <SCORE.INTRA.REPUL>
0

>  <SCORE.INTRA.REPUL.0>
0

>  <SCORE.INTRA.SOLV>
-0.108715

>  <SCORE.INTRA.SOLV.lig_0>
-8.89599

>  <SCORE.INTRA.VDW>
0.156969

>  <SCORE.INTRA.VDW.0>
-0.603303

>  <SCORE.INTRA.norm>
0.00520878

>  <SCORE.RESTR>
0

>  <SCORE.RESTR.CAVITY>
0

>  <SCORE.RESTR.norm>
0

>  <SCORE.SYSTEM>
-18.2484

>  <SCORE.SYSTEM.CONST>
0

>  <SCORE.SYSTEM.DIHEDRAL>
4.55552

>  <SCORE.SYSTEM.POLAR>
-2.97315

>  <SCORE.SYSTEM.SOLV>
0.167193

>  <SCORE.SYSTEM.VDW>
-3.82933

>  <SCORE.SYSTEM.norm>
-1.5207

>  <SCORE.heavy>
12

>  <SCORE.norm>
-3.91677

$$$$
P75337551
 OpenBabel12072022113D
libRbt.so/2013.1/901 2013/11/27
 14 14  0  0  0  0  0  0  0  0999 V2000
    6.9642   18.2508    1.4736 C   0  0  0  0  0  0  0  0  0  0  0  0
    5.7060   17.6271    1.7062 O   0  0  0  0  0  0  0  0  0  0  0  0
    5.1765   17.9322    3.0026 C   0  0  1  0  0  0  0  0  0  0  0  0
    3.7115   17.4874    3.0225 C   0  0  0  0  0  0  0  0  0  0  0  0
    3.7157   16.0278    3.4826 C   0  0  0  0  0  0  0  0  0  0  0  0
    5.1430   15.7117    3.9221 C   0  0  0  0  0  0  0  0  0  0  0  0
    5.8237   17.0667    4.1018 C   0  0  2  0  0  0  0  0  0  0  0  0
    5.6057   17.5946    5.4433 N   0  0  0  0  0  0  0  0  0  0  0  0
    6.2289   18.7415    5.8368 C   0  0  0  0  0  0  0  0  0  0  0  0
    6.6073   18.9952    6.9693 O   0  0  0  0  0  0  0  0  0  0  0  0
    6.3948   19.6097    4.8082 N   0  0  0  0  0  0  0  0  0  0  0  0
    4.7028   17.4393    5.8694 H   0  0  0  0  0  0  0  0  0  0  0  0
    5.5786   20.1416    4.5422 H   0  0  0  0  0  0  0  0  0  0  0  0
    7.2402   20.1611    4.8929 H   0  0  0  0  0  0  0  0  0  0  0  0
  1  2  1  0  0  0  0
  3  2  1  6  0  0  0
  3  4  1  0  0  0  0
  3  7  1  0  0  0  0
  4  5  1  0  0  0  0
  5  6  1  0  0  0  0
  6  7  1  0  0  0  0
  7  8  1  1  0  0  0
  8  9  1  0  0  0  0
  8 12  1  0  0  0  0
  9 10  2  0  0  0  0
  9 11  1  0  0  0  0
 11 13  1  0  0  0  0
 11 14  1  0  0  0  0
M  END
>  <CHROM.0>
-54.34759848,-62.28942435,-68.65855444,-47.01054824,-59.27146854,-59.56502186
-67.67159757,-54.49128325,-167.90986123

>  <CHROM.1>
167.33105328,-70.16004329,-147.09126724,78.43443368,5.57398812,17.76794840
3.97492117,-2.04688735,0.83627831,1.47785887

>  <Name>
P75337551

>  <RI>
1.00763e+07

>  <Rbt.Current_Directory>
/home/fstefaniak/projects/zuza/docking/adenine/4XNR

>  <Rbt.Executable>
rbdock ($Id: //depot/dev/client3/rdock/2013.1/src/exe/rbdock.cxx#4 $)

>  <Rbt.Library>
libRbt.so (2013.1, Build901 2013/11/27)

>  <Rbt.Parameter_File>
/home/fstefaniak/progs/rDock//data/scripts/dock_solv.prm

>  <Rbt.Receptor>
4xnr.prm

>  <SCORE>
-49.0831

>  <SCORE.INTER>
-29.2297

>  <SCORE.INTER.CONST>
1

>  <SCORE.INTER.POLAR>
-4.10753

>  <SCORE.INTER.ROT>
4

>  <SCORE.INTER.SOLV>
13.0175

>  <SCORE.INTER.VDW>
-16.4005

>  <SCORE.INTER.norm>
-2.65724

>  <SCORE.INTRA>
0.933083

>  <SCORE.INTRA.DIHEDRAL>
-0.324802

>  <SCORE.INTRA.DIHEDRAL.0>
2.53075

>  <SCORE.INTRA.POLAR>
0

>  <SCORE.INTRA.POLAR.0>
0

>  <SCORE.INTRA.REPUL>
0

>  <SCORE.INTRA.REPUL.0>
0

>  <SCORE.INTRA.SOLV>
0.683725

>  <SCORE.INTRA.SOLV.lig_0>
-13.4259

>  <SCORE.INTRA.VDW>
0.753622

>  <SCORE.INTRA.VDW.0>
-0.80591

>  <SCORE.INTRA.norm>
0.0848258

>  <SCORE.RESTR>
0

>  <SCORE.RESTR.CAVITY>
0

>  <SCORE.RESTR.norm>
0

>  <SCORE.SYSTEM>
-20.7865

>  <SCORE.SYSTEM.CONST>
0

>  <SCORE.SYSTEM.DIHEDRAL>
4.47197

>  <SCORE.SYSTEM.POLAR>
-3.02852

>  <SCORE.SYSTEM.SOLV>
0.297786

>  <SCORE.SYSTEM.VDW>
-5.3525

>  <SCORE.SYSTEM.norm>
-1.88968

>  <SCORE.heavy>
11

>  <SCORE.norm>
-4.4621

$$$$
P75337551
 OpenBabel12072022113D
libRbt.so/2013.1/901 2013/11/27
 14 14  0  0  0  0  0  0  0  0999 V2000
    6.9870   18.1821    1.5028 C   0  0  0  0  0  0  0  0  0  0  0  0
    5.7513   17.5294    1.7736 O   0  0  0  0  0  0  0  0  0  0  0  0
    5.2045   17.9010    3.0451 C   0  0  1  0  0  0  0  0  0  0  0  0
    3.7226   17.5159    3.0441 C   0  0  0  0  0  0  0  0  0  0  0  0
    3.6567   16.0744    3.5541 C   0  0  0  0  0  0  0  0  0  0  0  0
    5.0594   15.7175    4.0393 C   0  0  0  0  0  0  0  0  0  0  0  0
    5.7901   17.0498    4.1891 C   0  0  2  0  0  0  0  0  0  0  0  0
    5.5625   17.6330    5.5059 N   0  0  0  0  0  0  0  0  0  0  0  0
    6.1344   18.8264    5.8336 C   0  0  0  0  0  0  0  0  0  0  0  0
    5.9291   19.8928    5.2760 O   0  0  0  0  0  0  0  0  0  0  0  0
    6.9887   18.7114    6.8806 N   0  0  0  0  0  0  0  0  0  0  0  0
    4.6732   17.4565    5.9517 H   0  0  0  0  0  0  0  0  0  0  0  0
    6.6132   18.9522    7.7866 H   0  0  0  0  0  0  0  0  0  0  0  0
    7.5133   17.8449    6.8654 H   0  0  0  0  0  0  0  0  0  0  0  0
  1  2  1  0  0  0  0
  3  2  1  6  0  0  0
  3  4  1  0  0  0  0
  3  7  1  0  0  0  0
  4  5  1  0  0  0  0
  5  6  1  0  0  0  0
  6  7  1  0  0  0  0
  7  8  1  1  0  0  0
  8  9  1  0  0  0  0
  8 12  1  0  0  0  0
  9 10  2  0  0  0  0
  9 11  1  0  0  0  0
 11 13  1  0  0  0  0
 11 14  1  0  0  0  0
M  END
>  <CHROM.0>
-39.51389269,54.50234241,-59.74067755,-46.24944336,-56.62374904,-59.63679377
-68.81194651,-58.51593340,-168.89308452

>  <CHROM.1>
162.40866092,-64.62597257,61.95428632,-97.15925784,5.54975073,17.75363164
4.06512542,-2.03285828,0.82239609,1.47111301

>  <Name>
P75337551

>  <RI>
1.00763e+07

>  <Rbt.Current_Directory>
/home/fstefaniak/projects/zuza/docking/adenine/4XNR

>  <Rbt.Executable>
rbdock ($Id: //depot/dev/client3/rdock/2013.1/src/exe/rbdock.cxx#4 $)

>  <Rbt.Library>
libRbt.so (2013.1, Build901 2013/11/27)

>  <Rbt.Parameter_File>
/home/fstefaniak/progs/rDock//data/scripts/dock_solv.prm

>  <Rbt.Receptor>
4xnr.prm

>  <SCORE>
-48.1141

>  <SCORE.INTER>
-29.2591

>  <SCORE.INTER.CONST>
1

>  <SCORE.INTER.POLAR>
-4.33074

>  <SCORE.INTER.ROT>
4

>  <SCORE.INTER.SOLV>
13.4011

>  <SCORE.INTER.VDW>
-15.804

>  <SCORE.INTER.norm>
-2.65992

>  <SCORE.INTRA>
0.0524434

>  <SCORE.INTRA.DIHEDRAL>
0.387259

>  <SCORE.INTRA.DIHEDRAL.0>
2.53075

>  <SCORE.INTRA.POLAR>
0

>  <SCORE.INTRA.POLAR.0>
0

>  <SCORE.INTRA.REPUL>
0

>  <SCORE.INTRA.REPUL.0>
0

>  <SCORE.INTRA.SOLV>
0.11854

>  <SCORE.INTRA.SOLV.lig_0>
-13.4259

>  <SCORE.INTRA.VDW>
-0.200456

>  <SCORE.INTRA.VDW.0>
-0.80591

>  <SCORE.INTRA.norm>
0.00476758

>  <SCORE.RESTR>
0

>  <SCORE.RESTR.CAVITY>
0

>  <SCORE.RESTR.norm>
0

>  <SCORE.SYSTEM>
-18.9075

>  <SCORE.SYSTEM.CONST>
0

>  <SCORE.SYSTEM.DIHEDRAL>
5.85295

>  <SCORE.SYSTEM.POLAR>
-3.15023

>  <SCORE.SYSTEM.SOLV>
0.423113

>  <SCORE.SYSTEM.VDW>
-4.19622

>  <SCORE.SYSTEM.norm>
-1.71886

>  <SCORE.heavy>
11

>  <SCORE.norm>
-4.37401

$$$$
P75337551
 OpenBabel12072022113D
libRbt.so/2013.1/901 2013/11/27
 14 14  0  0  0  0  0  0  0  0999 V2000
    6.9613   18.2278    1.4771 C   0  0  0  0  0  0  0  0  0  0  0  0
    5.7300   17.5677    1.7500 O   0  0  0  0  0  0  0  0  0  0  0  0
    5.1947   17.9186    3.0323 C   0  0  1  0  0  0  0  0  0  0  0  0
    3.7157   17.5223    3.0426 C   0  0  0  0  0  0  0  0  0  0  0  0
    3.6662   16.0739    3.5343 C   0  0  0  0  0  0  0  0  0  0  0  0
    5.0768   15.7213    3.9994 C   0  0  0  0  0  0  0  0  0  0  0  0
    5.7993   17.0570    4.1585 C   0  0  2  0  0  0  0  0  0  0  0  0
    5.5820   17.6214    5.4853 N   0  0  0  0  0  0  0  0  0  0  0  0
    6.1656   18.8044    5.8293 C   0  0  0  0  0  0  0  0  0  0  0  0
    5.9852   19.8767    5.2745 O   0  0  0  0  0  0  0  0  0  0  0  0
    7.0004   18.6712    6.8898 N   0  0  0  0  0  0  0  0  0  0  0  0
    4.6930   17.4455    5.9319 H   0  0  0  0  0  0  0  0  0  0  0  0
    6.6248   18.9465    7.7859 H   0  0  0  0  0  0  0  0  0  0  0  0
    7.4849   17.7817    6.8982 H   0  0  0  0  0  0  0  0  0  0  0  0
  1  2  1  0  0  0  0
  3  2  1  6  0  0  0
  3  4  1  0  0  0  0
  3  7  1  0  0  0  0
  4  5  1  0  0  0  0
  5  6  1  0  0  0  0
  6  7  1  0  0  0  0
  7  8  1  1  0  0  0
  8  9  1  0  0  0  0
  8 12  1  0  0  0  0
  9 10  2  0  0  0  0
  9 11  1  0  0  0  0
 11 13  1  0  0  0  0
 11 14  1  0  0  0  0
M  END
>  <CHROM.0>
-43.43760781,59.11044710,-73.11142342,-48.07265445,-175.64245282,-60.13635686
-172.35355538,-62.36800960,-167.98737997

>  <CHROM.1>
162.71442853,-65.64500108,60.58149226,-99.45006813,5.55769675,17.75633718
4.04990464,-2.04964771,0.82885427,1.50132370

>  <Name>
P75337551

>  <RI>
1.00763e+07

>  <Rbt.Current_Directory>
/home/fstefaniak/projects/zuza/docking/adenine/4XNR

>  <Rbt.Executable>
rbdock ($Id: //depot/dev/client3/rdock/2013.1/src/exe/rbdock.cxx#4 $)

>  <Rbt.Library>
libRbt.so (2013.1, Build901 2013/11/27)

>  <Rbt.Parameter_File>
/home/fstefaniak/progs/rDock//data/scripts/dock_solv.prm

>  <Rbt.Receptor>
4xnr.prm

>  <SCORE>
-47.8295

>  <SCORE.INTER>
-28.8716

>  <SCORE.INTER.CONST>
1

>  <SCORE.INTER.POLAR>
-4.26532

>  <SCORE.INTER.ROT>
4

>  <SCORE.INTER.SOLV>
13.3302

>  <SCORE.INTER.VDW>
-15.7401

>  <SCORE.INTER.norm>
-2.62469

>  <SCORE.INTRA>
0.0164616

>  <SCORE.INTRA.DIHEDRAL>
0.322851

>  <SCORE.INTRA.DIHEDRAL.0>
2.53075

>  <SCORE.INTRA.POLAR>
0

>  <SCORE.INTRA.POLAR.0>
0

>  <SCORE.INTRA.REPUL>
0

>  <SCORE.INTRA.REPUL.0>
0

>  <SCORE.INTRA.SOLV>
0.111178

>  <SCORE.INTRA.SOLV.lig_0>
-13.4259

>  <SCORE.INTRA.VDW>
-0.200553

>  <SCORE.INTRA.VDW.0>
-0.80591

>  <SCORE.INTRA.norm>
0.00149651

>  <SCORE.RESTR>
0

>  <SCORE.RESTR.CAVITY>
0

>  <SCORE.RESTR.norm>
0

>  <SCORE.SYSTEM>
-18.9744

>  <SCORE.SYSTEM.CONST>
0

>  <SCORE.SYSTEM.DIHEDRAL>
5.74571

>  <SCORE.SYSTEM.POLAR>
-3.07267

>  <SCORE.SYSTEM.SOLV>
0.151811

>  <SCORE.SYSTEM.VDW>
-4.37317

>  <SCORE.SYSTEM.norm>
-1.72494

>  <SCORE.heavy>
11

>  <SCORE.norm>
-4.34813

$$$$
P75363919
 OpenBabel12072022113D
libRbt.so/2013.1/901 2013/11/27
 13 12  0  0  0  0  0  0  0  0999 V2000
    3.0505   13.0374    4.0157 C   0  0  0  0  0  0  0  0  0  0  0  0
    3.6820   14.3201    4.5263 C   0  0  0  0  0  0  0  0  0  0  0  0
    4.1778   15.1470    3.4450 N   0  0  0  0  0  0  0  0  0  0  0  0
    4.1949   16.5122    3.5533 C   0  0  0  0  0  0  0  0  0  0  0  0
    3.5941   17.2816    2.8174 O   0  0  0  0  0  0  0  0  0  0  0  0
    4.9847   16.9158    4.6006 N   0  0  0  0  0  0  0  0  0  0  0  0
    5.6049   18.2391    4.5994 C   0  0  1  0  0  0  0  0  0  0  0  0
    5.8925   18.6794    6.0350 C   0  0  0  0  0  0  0  0  0  0  0  0
    6.8467   18.3261    3.6921 C   0  0  0  0  0  0  0  0  0  0  0  0
    6.5447   17.9686    2.3002 C   0  0  0  0  0  0  0  0  0  0  0  0
    6.2840   17.6729    1.2087 N   0  0  0  0  0  0  0  0  0  0  0  0
    4.8993   14.7530    2.8594 H   0  0  0  0  0  0  0  0  0  0  0  0
    5.4833   16.1656    5.0622 H   0  0  0  0  0  0  0  0  0  0  0  0
  1  2  1  0  0  0  0
  2  3  1  0  0  0  0
  3  4  1  0  0  0  0
  3 12  1  0  0  0  0
  4  5  2  0  0  0  0
  4  6  1  0  0  0  0
  6  7  1  0  0  0  0
  6 13  1  0  0  0  0
  7  8  1  1  0  0  0
  7  9  1  0  0  0  0
  9 10  1  0  0  0  0
 10 11  3  0  0  0  0
M  END
>  <CHROM.0>
-59.17535293,175.00043881,-63.28591769,-46.92673667,-59.07407328,-59.86291547
-67.69241872,-55.29661960,-167.97645645

>  <CHROM.1>
148.99108310,-119.45129183,154.44565467,155.50256502,57.58285604,4.95122544
16.69251859,3.73234763,-3.03576156,0.98229251,1.36747059

>  <Name>
P75363919

>  <RI>
3.4169e+07

>  <Rbt.Current_Directory>
/home/fstefaniak/projects/zuza/docking/adenine/4XNR

>  <Rbt.Executable>
rbdock ($Id: //depot/dev/client3/rdock/2013.1/src/exe/rbdock.cxx#4 $)

>  <Rbt.Library>
libRbt.so (2013.1, Build901 2013/11/27)

>  <Rbt.Parameter_File>
/home/fstefaniak/progs/rDock//data/scripts/dock_solv.prm

>  <Rbt.Receptor>
4xnr.prm

>  <SCORE>
-50.3629

>  <SCORE.INTER>
-28.8813

>  <SCORE.INTER.CONST>
1

>  <SCORE.INTER.POLAR>
-3.21595

>  <SCORE.INTER.ROT>
5

>  <SCORE.INTER.SOLV>
11.4802

>  <SCORE.INTER.VDW>
-19.2945

>  <SCORE.INTER.norm>
-2.62557

>  <SCORE.INTRA>
-1.07267

>  <SCORE.INTRA.DIHEDRAL>
-0.7667

>  <SCORE.INTRA.DIHEDRAL.0>
2.92986

>  <SCORE.INTRA.POLAR>
0

>  <SCORE.INTRA.POLAR.0>
0

>  <SCORE.INTRA.REPUL>
0

>  <SCORE.INTRA.REPUL.0>
0

>  <SCORE.INTRA.SOLV>
0.669326

>  <SCORE.INTRA.SOLV.lig_0>
-14.533

>  <SCORE.INTRA.VDW>
-1.02398

>  <SCORE.INTRA.VDW.0>
-0.125135

>  <SCORE.INTRA.norm>
-0.0975154

>  <SCORE.RESTR>
0

>  <SCORE.RESTR.CAVITY>
0

>  <SCORE.RESTR.norm>
0

>  <SCORE.SYSTEM>
-20.4089

>  <SCORE.SYSTEM.CONST>
0

>  <SCORE.SYSTEM.DIHEDRAL>
4.10565

>  <SCORE.SYSTEM.POLAR>
-2.99319

>  <SCORE.SYSTEM.SOLV>
0.286012

>  <SCORE.SYSTEM.VDW>
-5.09251

>  <SCORE.SYSTEM.norm>
-1.85536

>  <SCORE.heavy>
11

>  <SCORE.norm>
-4.57845

$$$$
P75363919
 OpenBabel12072022113D
libRbt.so/2013.1/901 2013/11/27
 13 12  0  0  0  0  0  0  0  0999 V2000
    1.1344   16.1396    4.0866 C   0  0  0  0  0  0  0  0  0  0  0  0
    2.0972   15.0402    3.6747 C   0  0  0  0  0  0  0  0  0  0  0  0
    3.4440   15.2971    4.1426 N   0  0  0  0  0  0  0  0  0  0  0  0
    4.2531   16.1962    3.5002 C   0  0  0  0  0  0  0  0  0  0  0  0
    4.6380   16.0923    2.3445 O   0  0  0  0  0  0  0  0  0  0  0  0
    4.5879   17.2395    4.3266 N   0  0  0  0  0  0  0  0  0  0  0  0
    5.9696   17.7074    4.4138 C   0  0  1  0  0  0  0  0  0  0  0  0
    6.4460   18.1793    3.0397 C   0  0  0  0  0  0  0  0  0  0  0  0
    6.1833   18.7664    5.5118 C   0  0  0  0  0  0  0  0  0  0  0  0
    7.5988   18.9153    5.8729 C   0  0  0  0  0  0  0  0  0  0  0  0
    8.7224   19.0084    6.1480 N   0  0  0  0  0  0  0  0  0  0  0  0
    3.6129   15.1973    5.1327 H   0  0  0  0  0  0  0  0  0  0  0  0
    4.0146   17.3160    5.1573 H   0  0  0  0  0  0  0  0  0  0  0  0
  1  2  1  0  0  0  0
  2  3  1  0  0  0  0
  3  4  1  0  0  0  0
  3 12  1  0  0  0  0
  4  5  2  0  0  0  0
  4  6  1  0  0  0  0
  6  7  1  0  0  0  0
  6 13  1  0  0  0  0
  7  8  1  6  0  0  0
  7  9  1  0  0  0  0
  9 10  1  0  0  0  0
 10 11  3  0  0  0  0
M  END
>  <CHROM.0>
-58.64936518,-65.21062287,-65.95900298,-47.48778152,-58.82021819,-61.36756130
-67.48762921,-59.50507355,-167.97068621

>  <CHROM.1>
-77.99432815,-62.66113898,133.95228017,60.05867270,162.07065069,4.94045306
17.10473578,4.24397093,2.67995247,-0.42391342,-1.94235181

>  <Name>
P75363919

>  <RI>
3.4169e+07

>  <Rbt.Current_Directory>
/home/fstefaniak/projects/zuza/docking/adenine/4XNR

>  <Rbt.Executable>
rbdock ($Id: //depot/dev/client3/rdock/2013.1/src/exe/rbdock.cxx#4 $)

>  <Rbt.Library>
libRbt.so (2013.1, Build901 2013/11/27)

>  <Rbt.Parameter_File>
/home/fstefaniak/progs/rDock//data/scripts/dock_solv.prm

>  <Rbt.Receptor>
4xnr.prm

>  <SCORE>
-49.5897

>  <SCORE.INTER>
-29.2157

>  <SCORE.INTER.CONST>
1

>  <SCORE.INTER.POLAR>
-3.62762

>  <SCORE.INTER.ROT>
5

>  <SCORE.INTER.SOLV>
11.6449

>  <SCORE.INTER.VDW>
-18.2001

>  <SCORE.INTER.norm>
-2.65597

>  <SCORE.INTRA>
0.515741

>  <SCORE.INTRA.DIHEDRAL>
0.113691

>  <SCORE.INTRA.DIHEDRAL.0>
2.92986

>  <SCORE.INTRA.POLAR>
0

>  <SCORE.INTRA.POLAR.0>
0

>  <SCORE.INTRA.REPUL>
0

>  <SCORE.INTRA.REPUL.0>
0

>  <SCORE.INTRA.SOLV>
-0.304911

>  <SCORE.INTRA.SOLV.lig_0>
-14.533

>  <SCORE.INTRA.VDW>
0.61135

>  <SCORE.INTRA.VDW.0>
-0.125135

>  <SCORE.INTRA.norm>
0.0468855

>  <SCORE.RESTR>
0

>  <SCORE.RESTR.CAVITY>
0

>  <SCORE.RESTR.norm>
0

>  <SCORE.SYSTEM>
-20.8897

>  <SCORE.SYSTEM.CONST>
0

>  <SCORE.SYSTEM.DIHEDRAL>
4.06804

>  <SCORE.SYSTEM.POLAR>
-2.97696

>  <SCORE.SYSTEM.SOLV>
0.284431

>  <SCORE.SYSTEM.VDW>
-5.45409

>  <SCORE.SYSTEM.norm>
-1.89906

>  <SCORE.heavy>
11

>  <SCORE.norm>
-4.50815

$$$$
P75363919
 OpenBabel12072022113D
libRbt.so/2013.1/901 2013/11/27
 13 12  0  0  0  0  0  0  0  0999 V2000
    6.2007   19.1835    5.4669 C   0  0  0  0  0  0  0  0  0  0  0  0
    6.1228   18.1506    4.3568 C   0  0  0  0  0  0  0  0  0  0  0  0
    4.8949   17.3840    4.4162 N   0  0  0  0  0  0  0  0  0  0  0  0
    4.6682   16.3492    3.5480 C   0  0  0  0  0  0  0  0  0  0  0  0
    4.9780   16.3453    2.3655 O   0  0  0  0  0  0  0  0  0  0  0  0
    4.0367   15.3052    4.1764 N   0  0  0  0  0  0  0  0  0  0  0  0
    2.9351   14.5998    3.5249 C   0  0  1  0  0  0  0  0  0  0  0  0
    3.1663   13.0905    3.6025 C   0  0  0  0  0  0  0  0  0  0  0  0
    1.5501   15.0159    4.0556 C   0  0  0  0  0  0  0  0  0  0  0  0
    1.1523   16.3493    3.5864 C   0  0  0  0  0  0  0  0  0  0  0  0
    0.8640   17.4088    3.2107 N   0  0  0  0  0  0  0  0  0  0  0  0
    4.4544   17.2919    5.3196 H   0  0  0  0  0  0  0  0  0  0  0  0
    4.0157   15.3754    5.1859 H   0  0  0  0  0  0  0  0  0  0  0  0
  1  2  1  0  0  0  0
  2  3  1  0  0  0  0
  3  4  1  0  0  0  0
  3 12  1  0  0  0  0
  4  5  2  0  0  0  0
  4  6  1  0  0  0  0
  6  7  1  0  0  0  0
  6 13  1  0  0  0  0
  7  8  1  1  0  0  0
  7  9  1  0  0  0  0
  9 10  1  0  0  0  0
 10 11  3  0  0  0  0
M  END
>  <CHROM.0>
-56.95444005,-63.31267425,-68.90311135,-46.08722664,-173.98766602,-173.79318937
-67.36806708,-58.78881210,-167.39156899

>  <CHROM.1>
-176.18903158,-38.78788991,137.13724313,131.05350849,73.55989604,3.74979861
16.29785538,3.86403250,0.73402238,-0.11063347,0.17962627

>  <Name>
P75363919

>  <RI>
3.4169e+07

>  <Rbt.Current_Directory>
/home/fstefaniak/projects/zuza/docking/adenine/4XNR

>  <Rbt.Executable>
rbdock ($Id: //depot/dev/client3/rdock/2013.1/src/exe/rbdock.cxx#4 $)

>  <Rbt.Library>
libRbt.so (2013.1, Build901 2013/11/27)

>  <Rbt.Parameter_File>
/home/fstefaniak/progs/rDock//data/scripts/dock_solv.prm

>  <Rbt.Receptor>
4xnr.prm

>  <SCORE>
-49.3682

>  <SCORE.INTER>
-28.2309

>  <SCORE.INTER.CONST>
1

>  <SCORE.INTER.POLAR>
-3.15298

>  <SCORE.INTER.ROT>
5

>  <SCORE.INTER.SOLV>
10.7822

>  <SCORE.INTER.VDW>
-18.8381

>  <SCORE.INTER.norm>
-2.56645

>  <SCORE.INTRA>
-0.440081

>  <SCORE.INTRA.DIHEDRAL>
0.83424

>  <SCORE.INTRA.DIHEDRAL.0>
2.92986

>  <SCORE.INTRA.POLAR>
0

>  <SCORE.INTRA.POLAR.0>
0

>  <SCORE.INTRA.REPUL>
0

>  <SCORE.INTRA.REPUL.0>
0

>  <SCORE.INTRA.SOLV>
-0.112087

>  <SCORE.INTRA.SOLV.lig_0>
-14.533

>  <SCORE.INTRA.VDW>
-0.801157

>  <SCORE.INTRA.VDW.0>
-0.125135

>  <SCORE.INTRA.norm>
-0.0400073

>  <SCORE.RESTR>
0

>  <SCORE.RESTR.CAVITY>
0

>  <SCORE.RESTR.norm>
0

>  <SCORE.SYSTEM>
-20.6972

>  <SCORE.SYSTEM.CONST>
0

>  <SCORE.SYSTEM.DIHEDRAL>
4.76261

>  <SCORE.SYSTEM.POLAR>
-3.00799

>  <SCORE.SYSTEM.SOLV>
-0.000490275

>  <SCORE.SYSTEM.VDW>
-5.35888

>  <SCORE.SYSTEM.norm>
-1.88157

>  <SCORE.heavy>
11

>  <SCORE.norm>
-4.48802

$$$$
P76310038
 OpenBabel12072022113D
libRbt.so/2013.1/901 2013/11/27
 16 16  0  0  0  0  0  0  0  0999 V2000
    5.2638   18.2209    5.0771 C   0  0  0  0  0  0  0  0  0  0  0  0
    6.3368   18.6647    5.8548 C   0  0  0  0  0  0  0  0  0  0  0  0
    7.6161   18.6827    5.3094 C   0  0  0  0  0  0  0  0  0  0  0  0
    7.8384   18.2712    4.0016 C   0  0  0  0  0  0  0  0  0  0  0  0
    6.7664   17.8345    3.2225 C   0  0  0  0  0  0  0  0  0  0  0  0
    5.4667   17.7948    3.7542 C   0  0  0  0  0  0  0  0  0  0  0  0
    4.3047   17.2962    2.9212 C   0  0  2  0  0  0  0  0  0  0  0  0
    3.8567   15.8610    3.2790 C   0  0  0  0  0  0  0  0  0  0  0  0
    2.6741   15.5810    3.4765 O   0  0  0  0  0  0  0  0  0  0  0  0
    4.8279   14.9149    3.4434 N   0  0  0  0  0  0  0  0  0  0  0  0
    4.6711   17.3806    1.5459 O   0  0  0  0  0  0  0  0  0  0  0  0
    8.6908   19.1067    6.0329 O   0  0  0  0  0  0  0  0  0  0  0  0
    5.7215   15.1599    3.8529 H   0  0  0  0  0  0  0  0  0  0  0  0
    4.8211   14.1498    2.7804 H   0  0  0  0  0  0  0  0  0  0  0  0
    4.8036   18.3330    1.3693 H   0  0  0  0  0  0  0  0  0  0  0  0
    8.3703   19.5943    6.8091 H   0  0  0  0  0  0  0  0  0  0  0  0
  1  2  2  0  0  0  0
  1  6  1  0  0  0  0
  2  3  1  0  0  0  0
  3  4  2  0  0  0  0
  3 12  1  0  0  0  0
  4  5  1  0  0  0  0
  5  6  2  0  0  0  0
  7  8  1  1  0  0  0
  7 11  1  0  0  0  0
  7  6  1  0  0  0  0
  8  9  2  0  0  0  0
  8 10  1  0  0  0  0
 10 13  1  0  0  0  0
 10 14  1  0  0  0  0
 11 15  1  0  0  0  0
 12 16  1  0  0  0  0
M  END
>  <CHROM.0>
-55.17854896,-57.37313837,-74.06104050,-46.48380765,-57.05351019,-59.42863613
-172.58940679,-56.79010125,-167.65646136

>  <CHROM.1>
-15.97313927,131.16385868,-63.44407795,-76.71140567,35.17967982,5.67563514
17.43089627,3.96428463,0.44825016,0.62750333,1.60603877

>  <Name>
P76310038

>  <RI>
2.22087e+07

>  <Rbt.Current_Directory>
/home/fstefaniak/projects/zuza/docking/adenine/4XNR

>  <Rbt.Executable>
rbdock ($Id: //depot/dev/client3/rdock/2013.1/src/exe/rbdock.cxx#4 $)

>  <Rbt.Library>
libRbt.so (2013.1, Build901 2013/11/27)

>  <Rbt.Parameter_File>
/home/fstefaniak/progs/rDock//data/scripts/dock_solv.prm

>  <Rbt.Receptor>
4xnr.prm

>  <SCORE>
-59.189

>  <SCORE.INTER>
-37.491

>  <SCORE.INTER.CONST>
1

>  <SCORE.INTER.POLAR>
-5.53251

>  <SCORE.INTER.ROT>
3

>  <SCORE.INTER.SOLV>
15.0249

>  <SCORE.INTER.VDW>
-17.1606

>  <SCORE.INTER.norm>
-3.12425

>  <SCORE.INTRA>
-1.56198

>  <SCORE.INTRA.DIHEDRAL>
-2.93067

>  <SCORE.INTRA.DIHEDRAL.0>
5.64596

>  <SCORE.INTRA.POLAR>
0

>  <SCORE.INTRA.POLAR.0>
0

>  <SCORE.INTRA.REPUL>
0

>  <SCORE.INTRA.REPUL.0>
0

>  <SCORE.INTRA.SOLV>
0.0564165

>  <SCORE.INTRA.SOLV.lig_0>
-18.9717

>  <SCORE.INTRA.VDW>
-0.124856

>  <SCORE.INTRA.VDW.0>
-0.658995

>  <SCORE.INTRA.norm>
-0.130165

>  <SCORE.RESTR>
0

>  <SCORE.RESTR.CAVITY>
0

>  <SCORE.RESTR.norm>
0

>  <SCORE.SYSTEM>
-20.136

>  <SCORE.SYSTEM.CONST>
0

>  <SCORE.SYSTEM.DIHEDRAL>
4.98487

>  <SCORE.SYSTEM.POLAR>
-3.00815

>  <SCORE.SYSTEM.SOLV>
0.246951

>  <SCORE.SYSTEM.VDW>
-5.14079

>  <SCORE.SYSTEM.norm>
-1.678

>  <SCORE.heavy>
12

>  <SCORE.norm>
-4.93242

$$$$
P76310038
 OpenBabel12072022113D
libRbt.so/2013.1/901 2013/11/27
 16 16  0  0  0  0  0  0  0  0999 V2000
    5.1744   18.0187    5.6719 C   0  0  0  0  0  0  0  0  0  0  0  0
    6.3413   18.5674    6.2106 C   0  0  0  0  0  0  0  0  0  0  0  0
    7.4547   18.7429    5.3956 C   0  0  0  0  0  0  0  0  0  0  0  0
    7.4184   18.3854    4.0540 C   0  0  0  0  0  0  0  0  0  0  0  0
    6.2513   17.8439    3.5140 C   0  0  0  0  0  0  0  0  0  0  0  0
    5.1175   17.6448    4.3192 C   0  0  0  0  0  0  0  0  0  0  0  0
    3.8577   17.0327    3.7440 C   0  0  2  0  0  0  0  0  0  0  0  0
    3.7942   15.4952    3.8883 C   0  0  0  0  0  0  0  0  0  0  0  0
    2.7997   14.9267    4.3396 O   0  0  0  0  0  0  0  0  0  0  0  0
    4.9122   14.7803    3.5655 N   0  0  0  0  0  0  0  0  0  0  0  0
    3.7603   17.4137    2.3736 O   0  0  0  0  0  0  0  0  0  0  0  0
    8.6132   19.2731    5.8803 O   0  0  0  0  0  0  0  0  0  0  0  0
    5.8348   15.1536    3.7550 H   0  0  0  0  0  0  0  0  0  0  0  0
    4.8253   14.1485    2.7793 H   0  0  0  0  0  0  0  0  0  0  0  0
    4.5307   17.0032    1.9334 H   0  0  0  0  0  0  0  0  0  0  0  0
    8.4311   19.6833    6.7414 H   0  0  0  0  0  0  0  0  0  0  0  0
  1  2  2  0  0  0  0
  1  6  1  0  0  0  0
  2  3  1  0  0  0  0
  3  4  2  0  0  0  0
  3 12  1  0  0  0  0
  4  5  1  0  0  0  0
  5  6  2  0  0  0  0
  7  8  1  6  0  0  0
  7 11  1  0  0  0  0
  7  6  1  0  0  0  0
  8  9  2  0  0  0  0
  8 10  1  0  0  0  0
 10 13  1  0  0  0  0
 10 14  1  0  0  0  0
 11 15  1  0  0  0  0
 12 16  1  0  0  0  0
M  END
>  <CHROM.0>
-53.00126747,-64.13112824,-64.27273091,-49.08412112,-59.73165680,-59.96192542
-69.99124577,-176.77130292,-168.90909887

>  <CHROM.1>
-14.37945684,130.75525192,64.16958896,-88.05938236,35.20513061,5.44410189
17.30160787,4.37961083,0.19541840,0.73131784,1.81103288

>  <Name>
P76310038

>  <RI>
2.22087e+07

>  <Rbt.Current_Directory>
/home/fstefaniak/projects/zuza/docking/adenine/4XNR

>  <Rbt.Executable>
rbdock ($Id: //depot/dev/client3/rdock/2013.1/src/exe/rbdock.cxx#4 $)

>  <Rbt.Library>
libRbt.so (2013.1, Build901 2013/11/27)

>  <Rbt.Parameter_File>
/home/fstefaniak/progs/rDock//data/scripts/dock_solv.prm

>  <Rbt.Receptor>
4xnr.prm

>  <SCORE>
-58.0638

>  <SCORE.INTER>
-35.9871

>  <SCORE.INTER.CONST>
1

>  <SCORE.INTER.POLAR>
-4.59794

>  <SCORE.INTER.ROT>
3

>  <SCORE.INTER.SOLV>
14.4123

>  <SCORE.INTER.VDW>
-19.069

>  <SCORE.INTER.norm>
-2.99892

>  <SCORE.INTRA>
-1.38528

>  <SCORE.INTRA.DIHEDRAL>
-2.97118

>  <SCORE.INTRA.DIHEDRAL.0>
5.64596

>  <SCORE.INTRA.POLAR>
0

>  <SCORE.INTRA.POLAR.0>
0

>  <SCORE.INTRA.REPUL>
0

>  <SCORE.INTRA.REPUL.0>
0

>  <SCORE.INTRA.SOLV>
0.159041

>  <SCORE.INTRA.SOLV.lig_0>
-18.9717

>  <SCORE.INTRA.VDW>
0.020788

>  <SCORE.INTRA.VDW.0>
-0.658995

>  <SCORE.INTRA.norm>
-0.11544

>  <SCORE.RESTR>
0

>  <SCORE.RESTR.CAVITY>
0

>  <SCORE.RESTR.norm>
0

>  <SCORE.SYSTEM>
-20.6915

>  <SCORE.SYSTEM.CONST>
0

>  <SCORE.SYSTEM.DIHEDRAL>
4.1192

>  <SCORE.SYSTEM.POLAR>
-2.98175

>  <SCORE.SYSTEM.SOLV>
0.151602

>  <SCORE.SYSTEM.VDW>
-5.27874

>  <SCORE.SYSTEM.norm>
-1.72429

>  <SCORE.heavy>
12

>  <SCORE.norm>
-4.83865

$$$$
P76310038
 OpenBabel12072022113D
libRbt.so/2013.1/901 2013/11/27
 16 16  0  0  0  0  0  0  0  0999 V2000
    6.7349   17.8004    3.2067 C   0  0  0  0  0  0  0  0  0  0  0  0
    7.8232   18.2772    3.9423 C   0  0  0  0  0  0  0  0  0  0  0  0
    7.6276   18.7156    5.2478 C   0  0  0  0  0  0  0  0  0  0  0  0
    6.3670   18.6795    5.8295 C   0  0  0  0  0  0  0  0  0  0  0  0
    5.2812   18.1972    5.0977 C   0  0  0  0  0  0  0  0  0  0  0  0
    5.4503   17.7605    3.7733 C   0  0  0  0  0  0  0  0  0  0  0  0
    4.2702   17.2615    2.9664 C   0  0  2  0  0  0  0  0  0  0  0  0
    3.8223   15.8311    3.3435 C   0  0  0  0  0  0  0  0  0  0  0  0
    2.6465   15.5644    3.5927 O   0  0  0  0  0  0  0  0  0  0  0  0
    4.7891   14.8742    3.4653 N   0  0  0  0  0  0  0  0  0  0  0  0
    4.6108   17.3337    1.5838 O   0  0  0  0  0  0  0  0  0  0  0  0
    8.6608   19.1893    6.0003 O   0  0  0  0  0  0  0  0  0  0  0  0
    5.6904   15.1010    3.8683 H   0  0  0  0  0  0  0  0  0  0  0  0
    4.7670   14.1291    2.7802 H   0  0  0  0  0  0  0  0  0  0  0  0
    4.7937   18.2781    1.4092 H   0  0  0  0  0  0  0  0  0  0  0  0
    8.2988   19.5965    6.8041 H   0  0  0  0  0  0  0  0  0  0  0  0
  1  2  2  0  0  0  0
  1  6  1  0  0  0  0
  2  3  1  0  0  0  0
  3  4  2  0  0  0  0
  3 12  1  0  0  0  0
  4  5  1  0  0  0  0
  5  6  2  0  0  0  0
  7  8  1  1  0  0  0
  7 11  1  0  0  0  0
  7  6  1  0  0  0  0
  8  9  2  0  0  0  0
  8 10  1  0  0  0  0
 10 13  1  0  0  0  0
 10 14  1  0  0  0  0
 11 15  1  0  0  0  0
 12 16  1  0  0  0  0
M  END
>  <CHROM.0>
-56.84336407,-62.30214627,61.17678486,-46.17917927,-60.18399787,59.38174265
53.33380215,-59.48004748,-167.33188021

>  <CHROM.1>
169.35188007,129.63202180,-60.34257153,103.66179021,37.55168567,5.65465380
17.42067284,3.97693500,-0.44120201,-0.62740246,-1.56253236

>  <Name>
P76310038

>  <RI>
2.22087e+07

>  <Rbt.Current_Directory>
/home/fstefaniak/projects/zuza/docking/adenine/4XNR

>  <Rbt.Executable>
rbdock ($Id: //depot/dev/client3/rdock/2013.1/src/exe/rbdock.cxx#4 $)

>  <Rbt.Library>
libRbt.so (2013.1, Build901 2013/11/27)

>  <Rbt.Parameter_File>
/home/fstefaniak/progs/rDock//data/scripts/dock_solv.prm

>  <Rbt.Receptor>
4xnr.prm

>  <SCORE>
-55.8556

>  <SCORE.INTER>
-36.6736

>  <SCORE.INTER.CONST>
1

>  <SCORE.INTER.POLAR>
-5.3671

>  <SCORE.INTER.ROT>
3

>  <SCORE.INTER.SOLV>
15.0022

>  <SCORE.INTER.VDW>
-17.1594

>  <SCORE.INTER.norm>
-3.05613

>  <SCORE.INTRA>
-1.32169

>  <SCORE.INTRA.DIHEDRAL>
-3.19852

>  <SCORE.INTRA.DIHEDRAL.0>
5.64596

>  <SCORE.INTRA.POLAR>
0

>  <SCORE.INTRA.POLAR.0>
0

>  <SCORE.INTRA.REPUL>
0

>  <SCORE.INTRA.REPUL.0>
0

>  <SCORE.INTRA.SOLV>
0.042545

>  <SCORE.INTRA.SOLV.lig_0>
-18.9717

>  <SCORE.INTRA.VDW>
0.2563

>  <SCORE.INTRA.VDW.0>
-0.658995

>  <SCORE.INTRA.norm>
-0.110141

>  <SCORE.RESTR>
0

>  <SCORE.RESTR.CAVITY>
0

>  <SCORE.RESTR.norm>
0

>  <SCORE.SYSTEM>
-17.8604

>  <SCORE.SYSTEM.CONST>
0

>  <SCORE.SYSTEM.DIHEDRAL>
4.00053

>  <SCORE.SYSTEM.POLAR>
-2.99585

>  <SCORE.SYSTEM.SOLV>
0.0660991

>  <SCORE.SYSTEM.VDW>
-3.27631

>  <SCORE.SYSTEM.norm>
-1.48836

>  <SCORE.heavy>
12

>  <SCORE.norm>
-4.65464

$$$$
P76326276
 OpenBabel12072022113D
libRbt.so/2013.1/901 2013/11/27
 16 17  0  0  0  0  0  0  0  0999 V2000
    6.4193   19.3810    4.0555 C   0  0  0  0  0  0  0  0  0  0  0  0
    6.2982   19.2673    5.5686 C   0  0  0  0  0  0  0  0  0  0  0  0
    5.3151   18.1682    5.9397 C   0  0  0  0  0  0  0  0  0  0  0  0
    5.7028   16.9137    5.3748 O   0  0  0  0  0  0  0  0  0  0  0  0
    5.7852   16.9323    3.9458 C   0  0  2  0  0  0  0  0  0  0  0  0
    6.7383   18.0204    3.4458 C   0  0  0  0  0  0  0  0  0  0  0  0
    4.4035   16.9624    3.2588 C   0  0  0  0  0  0  0  0  0  0  0  0
    4.2109   17.3900    2.1249 O   0  0  0  0  0  0  0  0  0  0  0  0
    3.4181   16.3912    4.0460 N   0  0  0  0  0  0  0  0  0  0  0  0
    2.0543   16.3024    3.6277 C   0  0  2  0  0  0  0  0  0  0  0  0
    0.9398   16.5636    4.6031 C   0  0  0  0  0  0  0  0  0  0  0  0
    1.1667   15.1720    4.0937 C   0  0  2  0  0  0  0  0  0  0  0  0
    1.6974   14.1490    5.0023 N   0  0  0  0  0  0  0  0  0  0  0  0
    3.6592   16.1887    5.0122 H   0  0  0  0  0  0  0  0  0  0  0  0
    0.9322   13.5873    5.3745 H   0  0  0  0  0  0  0  0  0  0  0  0
    2.0968   14.6117    5.8214 H   0  0  0  0  0  0  0  0  0  0  0  0
  1  2  1  0  0  0  0
  1  6  1  0  0  0  0
  2  3  1  0  0  0  0
  3  4  1  0  0  0  0
  4  5  1  0  0  0  0
  5  6  1  0  0  0  0
  5  7  1  6  0  0  0
  7  8  2  0  0  0  0
  7  9  1  0  0  0  0
  9 14  1  0  0  0  0
 10 11  1  0  0  0  0
 10  9  1  1  0  0  0
 10 12  1  0  0  0  0
 11 12  1  0  0  0  0
 12 13  1  1  0  0  0
 13 15  1  0  0  0  0
 13 16  1  0  0  0  0
M  END
>  <CHROM.0>
-55.93308501,-79.76004360,-53.47461462,-46.94566761,-56.17149279,-63.51635814
-61.88594199,59.06960689,-168.43348332

>  <CHROM.1>
156.31201683,-139.41993373,167.76666919,4.16736290,17.02874006,4.26248777
0.01275859,-0.58093007,-1.49298598

>  <Name>
P76326276

>  <RI>
1.34432e+07

>  <Rbt.Current_Directory>
/home/fstefaniak/projects/zuza/docking/adenine/4XNR

>  <Rbt.Executable>
rbdock ($Id: //depot/dev/client3/rdock/2013.1/src/exe/rbdock.cxx#4 $)

>  <Rbt.Library>
libRbt.so (2013.1, Build901 2013/11/27)

>  <Rbt.Parameter_File>
/home/fstefaniak/progs/rDock//data/scripts/dock_solv.prm

>  <Rbt.Receptor>
4xnr.prm

>  <SCORE>
-49.0504

>  <SCORE.INTER>
-30.7109

>  <SCORE.INTER.CONST>
1

>  <SCORE.INTER.POLAR>
-3.17908

>  <SCORE.INTER.ROT>
3

>  <SCORE.INTER.SOLV>
13.8894

>  <SCORE.INTER.VDW>
-20.1068

>  <SCORE.INTER.norm>
-2.36237

>  <SCORE.INTRA>
0.413011

>  <SCORE.INTRA.DIHEDRAL>
0.557613

>  <SCORE.INTRA.DIHEDRAL.0>
3.49205

>  <SCORE.INTRA.POLAR>
-0.0145655

>  <SCORE.INTRA.POLAR.0>
-0.0197562

>  <SCORE.INTRA.REPUL>
0

>  <SCORE.INTRA.REPUL.0>
0

>  <SCORE.INTRA.SOLV>
-0.493286

>  <SCORE.INTRA.SOLV.lig_0>
-13.8206

>  <SCORE.INTRA.VDW>
0.43037

>  <SCORE.INTRA.VDW.0>
-1.62774

>  <SCORE.INTRA.norm>
0.0317701

>  <SCORE.RESTR>
0

>  <SCORE.RESTR.CAVITY>
0

>  <SCORE.RESTR.norm>
0

>  <SCORE.SYSTEM>
-18.7525

>  <SCORE.SYSTEM.CONST>
0

>  <SCORE.SYSTEM.DIHEDRAL>
5.64703

>  <SCORE.SYSTEM.POLAR>
-3.0463

>  <SCORE.SYSTEM.SOLV>
0.133982

>  <SCORE.SYSTEM.VDW>
-4.27434

>  <SCORE.SYSTEM.norm>
-1.4425

>  <SCORE.heavy>
13

>  <SCORE.norm>
-3.7731

$$$$
P76326276
 OpenBabel12072022113D
libRbt.so/2013.1/901 2013/11/27
 16 17  0  0  0  0  0  0  0  0999 V2000
    6.4124   19.3885    4.0745 C   0  0  0  0  0  0  0  0  0  0  0  0
    6.2778   19.2843    5.5872 C   0  0  0  0  0  0  0  0  0  0  0  0
    5.2927   18.1864    5.9564 C   0  0  0  0  0  0  0  0  0  0  0  0
    5.6869   16.9288    5.4032 O   0  0  0  0  0  0  0  0  0  0  0  0
    5.7822   16.9383    3.9748 C   0  0  2  0  0  0  0  0  0  0  0  0
    6.7386   18.0244    3.4765 C   0  0  0  0  0  0  0  0  0  0  0  0
    4.4068   16.9623    3.2753 C   0  0  0  0  0  0  0  0  0  0  0  0
    4.2290   17.3538    2.1260 O   0  0  0  0  0  0  0  0  0  0  0  0
    3.4078   16.4302    4.0726 N   0  0  0  0  0  0  0  0  0  0  0  0
    2.0464   16.3441    3.6456 C   0  0  2  0  0  0  0  0  0  0  0  0
    0.9260   16.5874    4.6189 C   0  0  0  0  0  0  0  0  0  0  0  0
    1.1595   15.2044    4.0894 C   0  0  2  0  0  0  0  0  0  0  0  0
    1.6881   14.1690    4.9851 N   0  0  0  0  0  0  0  0  0  0  0  0
    3.6383   16.2574    5.0470 H   0  0  0  0  0  0  0  0  0  0  0  0
    0.9209   13.6112    5.3589 H   0  0  0  0  0  0  0  0  0  0  0  0
    2.0986   14.6211    5.8047 H   0  0  0  0  0  0  0  0  0  0  0  0
  1  2  1  0  0  0  0
  1  6  1  0  0  0  0
  2  3  1  0  0  0  0
  3  4  1  0  0  0  0
  4  5  1  0  0  0  0
  5  6  1  0  0  0  0
  5  7  1  6  0  0  0
  7  8  2  0  0  0  0
  7  9  1  0  0  0  0
  9 14  1  0  0  0  0
 10 11  1  0  0  0  0
 10  9  1  1  0  0  0
 10 12  1  0  0  0  0
 11 12  1  0  0  0  0
 12 13  1  1  0  0  0
 13 15  1  0  0  0  0
 13 16  1  0  0  0  0
M  END
>  <CHROM.0>
-62.20290862,-79.12641349,-72.50198905,-44.86771911,-57.41859288,57.46847831
-170.30050447,-57.80465543,-168.37367720

>  <CHROM.1>
158.05739887,-142.36375196,166.65497553,4.16003093,17.04298260,4.27754277
-0.00995991,-0.57813702,-1.52632492

>  <Name>
P76326276

>  <RI>
1.34432e+07

>  <Rbt.Current_Directory>
/home/fstefaniak/projects/zuza/docking/adenine/4XNR

>  <Rbt.Executable>
rbdock ($Id: //depot/dev/client3/rdock/2013.1/src/exe/rbdock.cxx#4 $)

>  <Rbt.Library>
libRbt.so (2013.1, Build901 2013/11/27)

>  <Rbt.Parameter_File>
/home/fstefaniak/progs/rDock//data/scripts/dock_solv.prm

>  <Rbt.Receptor>
4xnr.prm

>  <SCORE>
-48.8202

>  <SCORE.INTER>
-30.7642

>  <SCORE.INTER.CONST>
1

>  <SCORE.INTER.POLAR>
-3.20333

>  <SCORE.INTER.ROT>
3

>  <SCORE.INTER.SOLV>
13.9367

>  <SCORE.INTER.VDW>
-20.0773

>  <SCORE.INTER.norm>
-2.36648

>  <SCORE.INTRA>
0.488166

>  <SCORE.INTRA.DIHEDRAL>
0.624438

>  <SCORE.INTRA.DIHEDRAL.0>
3.49205

>  <SCORE.INTRA.POLAR>
-0.013665

>  <SCORE.INTRA.POLAR.0>
-0.0197562

>  <SCORE.INTRA.REPUL>
0

>  <SCORE.INTRA.REPUL.0>
0

>  <SCORE.INTRA.SOLV>
-0.480086

>  <SCORE.INTRA.SOLV.lig_0>
-13.8206

>  <SCORE.INTRA.VDW>
0.46245

>  <SCORE.INTRA.VDW.0>
-1.62774

>  <SCORE.INTRA.norm>
0.0375512

>  <SCORE.RESTR>
0

>  <SCORE.RESTR.CAVITY>
0

>  <SCORE.RESTR.norm>
0

>  <SCORE.SYSTEM>
-18.5441

>  <SCORE.SYSTEM.CONST>
0

>  <SCORE.SYSTEM.DIHEDRAL>
6.61273

>  <SCORE.SYSTEM.POLAR>
-2.98557

>  <SCORE.SYSTEM.SOLV>
0.0936697

>  <SCORE.SYSTEM.VDW>
-4.64632

>  <SCORE.SYSTEM.norm>
-1.42647

>  <SCORE.heavy>
13

>  <SCORE.norm>
-3.7554

$$$$
P76326276
 OpenBabel12072022113D
libRbt.so/2013.1/901 2013/11/27
 16 17  0  0  0  0  0  0  0  0999 V2000
    6.7278   18.5653    2.9545 C   0  0  0  0  0  0  0  0  0  0  0  0
    6.7594   19.0982    4.3800 C   0  0  0  0  0  0  0  0  0  0  0  0
    5.5711   18.5707    5.1685 C   0  0  0  0  0  0  0  0  0  0  0  0
    5.5438   17.1416    5.1710 O   0  0  0  0  0  0  0  0  0  0  0  0
    5.4600   16.5701    3.8611 C   0  0  2  0  0  0  0  0  0  0  0  0
    6.6015   17.0458    2.9595 C   0  0  0  0  0  0  0  0  0  0  0  0
    4.0648   16.7253    3.2198 C   0  0  0  0  0  0  0  0  0  0  0  0
    3.8655   17.2581    2.1325 O   0  0  0  0  0  0  0  0  0  0  0  0
    3.0720   16.1358    3.9839 N   0  0  0  0  0  0  0  0  0  0  0  0
    1.6954   16.1486    3.5994 C   0  0  2  0  0  0  0  0  0  0  0  0
    0.6193   16.3636    4.6278 C   0  0  0  0  0  0  0  0  0  0  0  0
    0.7675   15.0191    3.9815 C   0  0  2  0  0  0  0  0  0  0  0  0
    1.2721   13.8905    4.7724 N   0  0  0  0  0  0  0  0  0  0  0  0
    3.3267   15.8393    4.9218 H   0  0  0  0  0  0  0  0  0  0  0  0
    0.5348   13.1968    4.8935 H   0  0  0  0  0  0  0  0  0  0  0  0
    1.4744   14.2167    5.7195 H   0  0  0  0  0  0  0  0  0  0  0  0
  1  2  1  0  0  0  0
  1  6  1  0  0  0  0
  2  3  1  0  0  0  0
  3  4  1  0  0  0  0
  4  5  1  0  0  0  0
  5  6  1  0  0  0  0
  5  7  1  6  0  0  0
  7  8  2  0  0  0  0
  7  9  1  0  0  0  0
  9 14  1  0  0  0  0
 10 11  1  0  0  0  0
 10  9  1  1  0  0  0
 10 12  1  0  0  0  0
 11 12  1  0  0  0  0
 12 13  1  1  0  0  0
 13 15  1  0  0  0  0
 13 16  1  0  0  0  0
M  END
>  <CHROM.0>
-55.02371280,-166.78933634,-63.86350388,177.01113748,-56.11054469,-175.21278759
-67.79442427,-55.59872940,-167.80183404

>  <CHROM.1>
124.08320980,-140.03068225,-176.69298324,4.00217327,16.79533189,3.93292689
0.05852830,-0.52060740,-1.59294502

>  <Name>
P76326276

>  <RI>
1.34432e+07

>  <Rbt.Current_Directory>
/home/fstefaniak/projects/zuza/docking/adenine/4XNR

>  <Rbt.Executable>
rbdock ($Id: //depot/dev/client3/rdock/2013.1/src/exe/rbdock.cxx#4 $)

>  <Rbt.Library>
libRbt.so (2013.1, Build901 2013/11/27)

>  <Rbt.Parameter_File>
/home/fstefaniak/progs/rDock//data/scripts/dock_solv.prm

>  <Rbt.Receptor>
4xnr.prm

>  <SCORE>
-48.7711

>  <SCORE.INTER>
-31.2682

>  <SCORE.INTER.CONST>
1

>  <SCORE.INTER.POLAR>
-3.57974

>  <SCORE.INTER.ROT>
3

>  <SCORE.INTER.SOLV>
13.5379

>  <SCORE.INTER.VDW>
-19.0257

>  <SCORE.INTER.norm>
-2.40525

>  <SCORE.INTRA>
0.196904

>  <SCORE.INTRA.DIHEDRAL>
-0.106238

>  <SCORE.INTRA.DIHEDRAL.0>
3.49205

>  <SCORE.INTRA.POLAR>
0.0197562

>  <SCORE.INTRA.POLAR.0>
-0.0197562

>  <SCORE.INTRA.REPUL>
0

>  <SCORE.INTRA.REPUL.0>
0

>  <SCORE.INTRA.SOLV>
-0.70992

>  <SCORE.INTRA.SOLV.lig_0>
-13.8206

>  <SCORE.INTRA.VDW>
0.537813

>  <SCORE.INTRA.VDW.0>
-1.62774

>  <SCORE.INTRA.norm>
0.0151465

>  <SCORE.RESTR>
0

>  <SCORE.RESTR.CAVITY>
0

>  <SCORE.RESTR.norm>
0

>  <SCORE.SYSTEM>
-17.6997

>  <SCORE.SYSTEM.CONST>
0

>  <SCORE.SYSTEM.DIHEDRAL>
4.35667

>  <SCORE.SYSTEM.POLAR>
-2.46383

>  <SCORE.SYSTEM.SOLV>
-0.026711

>  <SCORE.SYSTEM.VDW>
-5.03038

>  <SCORE.SYSTEM.norm>
-1.36152

>  <SCORE.heavy>
13

>  <SCORE.norm>
-3.75162

$$$$
P77621951
 OpenBabel12072022113D
libRbt.so/2013.1/901 2013/11/27
 12 11  0  0  0  0  0  0  0  0999 V2000
    3.9037   15.1011    3.5710 C   0  0  0  0  0  0  0  0  0  0  0  0
    4.7191   16.1717    2.8589 C   0  0  1  0  0  0  0  0  0  0  0  0
    4.7686   17.4690    3.6886 C   0  0  0  0  0  0  0  0  0  0  0  0
    6.0057   18.2303    3.4675 N   0  0  0  0  0  0  0  0  0  0  0  0
    6.6611   18.7809    4.6398 C   0  0  0  0  0  0  0  0  0  0  0  0
    6.5844   18.4196    2.2322 C   0  0  0  0  0  0  0  0  0  0  0  0
    7.6716   18.9546    2.0430 O   0  0  0  0  0  0  0  0  0  0  0  0
    5.8713   17.9626    1.1735 N   0  0  0  0  0  0  0  0  0  0  0  0
    6.0451   15.6614    2.6631 O   0  0  0  0  0  0  0  0  0  0  0  0
    4.9893   18.4496    1.0243 H   0  0  0  0  0  0  0  0  0  0  0  0
    6.4322   17.8786    0.3373 H   0  0  0  0  0  0  0  0  0  0  0  0
    6.3904   15.4315    3.5451 H   0  0  0  0  0  0  0  0  0  0  0  0
  2  1  1  1  0  0  0
  2  3  1  0  0  0  0
  2  9  1  0  0  0  0
  3  4  1  0  0  0  0
  4  5  1  0  0  0  0
  4  6  1  0  0  0  0
  6  7  2  0  0  0  0
  6  8  1  0  0  0  0
  8 10  1  0  0  0  0
  8 11  1  0  0  0  0
  9 12  1  0  0  0  0
M  END
>  <CHROM.0>
-58.48627827,52.67836508,-73.48584941,-46.34926955,-61.04145340,-63.35639533
-173.96795048,-60.30085991,-168.25545597

>  <CHROM.1>
150.21507104,-57.58515689,-136.29737747,65.30211398,5.82633530,17.39655489
2.90902676,3.01612613,-0.91771859,-1.94563328

>  <Name>
P77621951

>  <RI>
1.00763e+07

>  <Rbt.Current_Directory>
/home/fstefaniak/projects/zuza/docking/adenine/4XNR

>  <Rbt.Executable>
rbdock ($Id: //depot/dev/client3/rdock/2013.1/src/exe/rbdock.cxx#4 $)

>  <Rbt.Library>
libRbt.so (2013.1, Build901 2013/11/27)

>  <Rbt.Parameter_File>
/home/fstefaniak/progs/rDock//data/scripts/dock_solv.prm

>  <Rbt.Receptor>
4xnr.prm

>  <SCORE>
-43.934

>  <SCORE.INTER>
-30.0913

>  <SCORE.INTER.CONST>
1

>  <SCORE.INTER.POLAR>
-4.24059

>  <SCORE.INTER.ROT>
3

>  <SCORE.INTER.SOLV>
12.086

>  <SCORE.INTER.VDW>
-15.5542

>  <SCORE.INTER.norm>
-3.34347

>  <SCORE.INTRA>
5.71069

>  <SCORE.INTRA.DIHEDRAL>
2.11863

>  <SCORE.INTRA.DIHEDRAL.0>
2.24581

>  <SCORE.INTRA.POLAR>
1

>  <SCORE.INTRA.POLAR.0>
-1

>  <SCORE.INTRA.REPUL>
0

>  <SCORE.INTRA.REPUL.0>
0

>  <SCORE.INTRA.SOLV>
0.539791

>  <SCORE.INTRA.SOLV.lig_0>
-13.9672

>  <SCORE.INTRA.VDW>
0.981477

>  <SCORE.INTRA.VDW.0>
-0.500179

>  <SCORE.INTRA.norm>
0.634521

>  <SCORE.RESTR>
0

>  <SCORE.RESTR.CAVITY>
0

>  <SCORE.RESTR.norm>
0

>  <SCORE.SYSTEM>
-19.5534

>  <SCORE.SYSTEM.CONST>
0

>  <SCORE.SYSTEM.DIHEDRAL>
4.88695

>  <SCORE.SYSTEM.POLAR>
-2.99543

>  <SCORE.SYSTEM.SOLV>
0.328245

>  <SCORE.SYSTEM.VDW>
-4.78924

>  <SCORE.SYSTEM.norm>
-2.1726

>  <SCORE.heavy>
9

>  <SCORE.norm>
-4.88155

$$$$
P77621951
 OpenBabel12072022113D
libRbt.so/2013.1/901 2013/11/27
 12 11  0  0  0  0  0  0  0  0999 V2000
    6.0209   18.9185    6.9425 C   0  0  0  0  0  0  0  0  0  0  0  0
    6.9313   18.5535    5.7779 C   0  0  1  0  0  0  0  0  0  0  0  0
    6.4556   19.2255    4.4756 C   0  0  0  0  0  0  0  0  0  0  0  0
    5.9929   18.2514    3.4776 N   0  0  0  0  0  0  0  0  0  0  0  0
    4.7632   17.5381    3.7712 C   0  0  0  0  0  0  0  0  0  0  0  0
    6.6350   18.0057    2.2842 C   0  0  0  0  0  0  0  0  0  0  0  0
    6.2041   17.2809    1.3937 O   0  0  0  0  0  0  0  0  0  0  0  0
    7.8250   18.6336    2.1176 N   0  0  0  0  0  0  0  0  0  0  0  0
    8.2592   18.9891    6.1004 O   0  0  0  0  0  0  0  0  0  0  0  0
    8.5840   18.2410    2.6718 H   0  0  0  0  0  0  0  0  0  0  0  0
    8.0612   18.7618    1.1436 H   0  0  0  0  0  0  0  0  0  0  0  0
    8.1733   19.8651    6.5189 H   0  0  0  0  0  0  0  0  0  0  0  0
  2  1  1  1  0  0  0
  2  3  1  0  0  0  0
  2  9  1  0  0  0  0
  3  4  1  0  0  0  0
  4  5  1  0  0  0  0
  4  6  1  0  0  0  0
  6  7  2  0  0  0  0
  6  8  1  0  0  0  0
  8 10  1  0  0  0  0
  8 11  1  0  0  0  0
  9 12  1  0  0  0  0
M  END
>  <CHROM.0>
-58.97716269,-173.65132630,-70.86530271,-46.04071809,-58.16722470,-60.95621414
-69.00909074,-59.24674712,-168.21861986

>  <CHROM.1>
-114.18566627,-41.18396085,68.78795185,73.60509835,6.60235844,18.38539650
4.04957295,1.45267314,0.32416612,1.35404199

>  <Name>
P77621951

>  <RI>
1.00763e+07

>  <Rbt.Current_Directory>
/home/fstefaniak/projects/zuza/docking/adenine/4XNR

>  <Rbt.Executable>
rbdock ($Id: //depot/dev/client3/rdock/2013.1/src/exe/rbdock.cxx#4 $)

>  <Rbt.Library>
libRbt.so (2013.1, Build901 2013/11/27)

>  <Rbt.Parameter_File>
/home/fstefaniak/progs/rDock//data/scripts/dock_solv.prm

>  <Rbt.Receptor>
4xnr.prm

>  <SCORE>
-43.7347

>  <SCORE.INTER>
-30.2897

>  <SCORE.INTER.CONST>
1

>  <SCORE.INTER.POLAR>
-4.24738

>  <SCORE.INTER.ROT>
3

>  <SCORE.INTER.SOLV>
12.6915

>  <SCORE.INTER.VDW>
-15.8657

>  <SCORE.INTER.norm>
-3.36552

>  <SCORE.INTRA>
7.21521

>  <SCORE.INTRA.DIHEDRAL>
6.22378

>  <SCORE.INTRA.DIHEDRAL.0>
2.24581

>  <SCORE.INTRA.POLAR>
1

>  <SCORE.INTRA.POLAR.0>
-1

>  <SCORE.INTRA.REPUL>
0

>  <SCORE.INTRA.REPUL.0>
0

>  <SCORE.INTRA.SOLV>
-1.53583

>  <SCORE.INTRA.SOLV.lig_0>
-13.9672

>  <SCORE.INTRA.VDW>
1.47124

>  <SCORE.INTRA.VDW.0>
-0.500179

>  <SCORE.INTRA.norm>
0.80169

>  <SCORE.RESTR>
0

>  <SCORE.RESTR.CAVITY>
0

>  <SCORE.RESTR.norm>
0

>  <SCORE.SYSTEM>
-20.6602

>  <SCORE.SYSTEM.CONST>
0

>  <SCORE.SYSTEM.DIHEDRAL>
4.75276

>  <SCORE.SYSTEM.POLAR>
-2.9883

>  <SCORE.SYSTEM.SOLV>
0.251848

>  <SCORE.SYSTEM.VDW>
-5.48063

>  <SCORE.SYSTEM.norm>
-2.29557

>  <SCORE.heavy>
9

>  <SCORE.norm>
-4.85941

$$$$
P77621951
 OpenBabel12072022113D
libRbt.so/2013.1/901 2013/11/27
 12 11  0  0  0  0  0  0  0  0999 V2000
    6.0142   18.8980    6.9794 C   0  0  0  0  0  0  0  0  0  0  0  0
    6.9234   18.5305    5.8146 C   0  0  1  0  0  0  0  0  0  0  0  0
    6.4464   19.1998    4.5114 C   0  0  0  0  0  0  0  0  0  0  0  0
    5.9847   18.2236    3.5150 N   0  0  0  0  0  0  0  0  0  0  0  0
    4.7587   17.5054    3.8124 C   0  0  0  0  0  0  0  0  0  0  0  0
    6.6243   17.9800    2.3199 C   0  0  0  0  0  0  0  0  0  0  0  0
    6.1937   17.2532    1.4309 O   0  0  0  0  0  0  0  0  0  0  0  0
    7.8113   18.6126    2.1497 N   0  0  0  0  0  0  0  0  0  0  0  0
    8.2516   18.9665    6.1348 O   0  0  0  0  0  0  0  0  0  0  0  0
    8.5626   18.2525    2.7354 H   0  0  0  0  0  0  0  0  0  0  0  0
    8.0659   18.7008    1.1759 H   0  0  0  0  0  0  0  0  0  0  0  0
    8.1692   19.8581    6.5199 H   0  0  0  0  0  0  0  0  0  0  0  0
  2  1  1  1  0  0  0
  2  3  1  0  0  0  0
  2  9  1  0  0  0  0
  3  4  1  0  0  0  0
  4  5  1  0  0  0  0
  4  6  1  0  0  0  0
  6  7  2  0  0  0  0
  6  8  1  0  0  0  0
  8 10  1  0  0  0  0
  8 11  1  0  0  0  0
  9 12  1  0  0  0  0
M  END
>  <CHROM.0>
-60.18428457,56.14838893,-66.66382636,-47.81495545,-60.95208147,-63.80874207
-68.62660845,-60.99560738,-168.16569635

>  <CHROM.1>
-114.28442694,-43.33517254,68.56178943,70.77356185,6.59370057,18.36033087
4.08591074,1.45202841,0.32769178,1.35357446

>  <Name>
P77621951

>  <RI>
1.00763e+07

>  <Rbt.Current_Directory>
/home/fstefaniak/projects/zuza/docking/adenine/4XNR

>  <Rbt.Executable>
rbdock ($Id: //depot/dev/client3/rdock/2013.1/src/exe/rbdock.cxx#4 $)

>  <Rbt.Library>
libRbt.so (2013.1, Build901 2013/11/27)

>  <Rbt.Parameter_File>
/home/fstefaniak/progs/rDock//data/scripts/dock_solv.prm

>  <Rbt.Receptor>
4xnr.prm

>  <SCORE>
-43.0758

>  <SCORE.INTER>
-29.8927

>  <SCORE.INTER.CONST>
1

>  <SCORE.INTER.POLAR>
-4.2535

>  <SCORE.INTER.ROT>
3

>  <SCORE.INTER.SOLV>
12.6786

>  <SCORE.INTER.VDW>
-15.5763

>  <SCORE.INTER.norm>
-3.32141

>  <SCORE.INTRA>
6.95638

>  <SCORE.INTRA.DIHEDRAL>
5.90342

>  <SCORE.INTRA.DIHEDRAL.0>
2.24581

>  <SCORE.INTRA.POLAR>
1

>  <SCORE.INTRA.POLAR.0>
-1

>  <SCORE.INTRA.REPUL>
0

>  <SCORE.INTRA.REPUL.0>
0

>  <SCORE.INTRA.SOLV>
-1.52821

>  <SCORE.INTRA.SOLV.lig_0>
-13.9672

>  <SCORE.INTRA.VDW>
1.36877

>  <SCORE.INTRA.VDW.0>
-0.500179

>  <SCORE.INTRA.norm>
0.772931

>  <SCORE.RESTR>
0

>  <SCORE.RESTR.CAVITY>
0

>  <SCORE.RESTR.norm>
0

>  <SCORE.SYSTEM>
-20.1395

>  <SCORE.SYSTEM.CONST>
0

>  <SCORE.SYSTEM.DIHEDRAL>
4.12506

>  <SCORE.SYSTEM.POLAR>
-2.96561

>  <SCORE.SYSTEM.SOLV>
0.360277

>  <SCORE.SYSTEM.VDW>
-5.03607

>  <SCORE.SYSTEM.norm>
-2.23772

>  <SCORE.heavy>
9

>  <SCORE.norm>
-4.78619

$$$$
P77621952
 OpenBabel12072022113D
libRbt.so/2013.1/901 2013/11/27
 12 11  0  0  0  0  0  0  0  0999 V2000
    4.4611   15.9707    3.1716 C   0  0  0  0  0  0  0  0  0  0  0  0
    5.6132   16.9403    3.3893 C   0  0  2  0  0  0  0  0  0  0  0  0
    5.1781   18.1238    4.2729 C   0  0  0  0  0  0  0  0  0  0  0  0
    6.1181   18.4004    5.3663 N   0  0  0  0  0  0  0  0  0  0  0  0
    5.6041   18.2639    6.7237 C   0  0  0  0  0  0  0  0  0  0  0  0
    7.3900   18.7946    5.0294 C   0  0  0  0  0  0  0  0  0  0  0  0
    7.7609   19.0200    3.8825 O   0  0  0  0  0  0  0  0  0  0  0  0
    8.2651   18.9463    6.0504 N   0  0  0  0  0  0  0  0  0  0  0  0
    6.0372   17.4142    2.1081 O   0  0  0  0  0  0  0  0  0  0  0  0
    8.1431   19.7651    6.6265 H   0  0  0  0  0  0  0  0  0  0  0  0
    8.3749   18.0936    6.5860 H   0  0  0  0  0  0  0  0  0  0  0  0
    6.7403   18.0628    2.2937 H   0  0  0  0  0  0  0  0  0  0  0  0
  2  3  1  0  0  0  0
  2  9  1  0  0  0  0
  2  1  1  6  0  0  0
  3  4  1  0  0  0  0
  4  5  1  0  0  0  0
  4  6  1  0  0  0  0
  6  7  2  0  0  0  0
  6  8  1  0  0  0  0
  8 10  1  0  0  0  0
  8 11  1  0  0  0  0
  9 12  1  0  0  0  0
M  END
>  <CHROM.0>
-57.50558106,-63.63385844,-66.24527244,-47.48033312,-59.05611168,-61.23388619
-70.51581424,-61.16736978,-168.43064562

>  <CHROM.1>
131.67885371,177.16160064,-118.00994400,-74.30217367,6.29125437,17.99006279
4.42354831,2.23080149,-0.53909580,-1.81331091

>  <Name>
P77621952

>  <RI>
1.00763e+07

>  <Rbt.Current_Directory>
/home/fstefaniak/projects/zuza/docking/adenine/4XNR

>  <Rbt.Executable>
rbdock ($Id: //depot/dev/client3/rdock/2013.1/src/exe/rbdock.cxx#4 $)

>  <Rbt.Library>
libRbt.so (2013.1, Build901 2013/11/27)

>  <Rbt.Parameter_File>
/home/fstefaniak/progs/rDock//data/scripts/dock_solv.prm

>  <Rbt.Receptor>
4xnr.prm

>  <SCORE>
-56.0257

>  <SCORE.INTER>
-34.7059

>  <SCORE.INTER.CONST>
1

>  <SCORE.INTER.POLAR>
-5.05527

>  <SCORE.INTER.ROT>
3

>  <SCORE.INTER.SOLV>
11.4665

>  <SCORE.INTER.VDW>
-15.7085

>  <SCORE.INTER.norm>
-3.85621

>  <SCORE.INTRA>
-0.438175

>  <SCORE.INTRA.DIHEDRAL>
4.46306

>  <SCORE.INTRA.DIHEDRAL.0>
2.0697

>  <SCORE.INTRA.POLAR>
-0.799609

>  <SCORE.INTRA.POLAR.0>
0

>  <SCORE.INTRA.REPUL>
0

>  <SCORE.INTRA.REPUL.0>
0

>  <SCORE.INTRA.SOLV>
0.117291

>  <SCORE.INTRA.SOLV.lig_0>
-14.8279

>  <SCORE.INTRA.VDW>
-0.00967939

>  <SCORE.INTRA.VDW.0>
-0.732496

>  <SCORE.INTRA.norm>
-0.0486861

>  <SCORE.RESTR>
0

>  <SCORE.RESTR.CAVITY>
0

>  <SCORE.RESTR.norm>
0

>  <SCORE.SYSTEM>
-20.8816

>  <SCORE.SYSTEM.CONST>
0

>  <SCORE.SYSTEM.DIHEDRAL>
4.23332

>  <SCORE.SYSTEM.POLAR>
-2.98022

>  <SCORE.SYSTEM.SOLV>
0.276093

>  <SCORE.SYSTEM.VDW>
-5.49014

>  <SCORE.SYSTEM.norm>
-2.32018

>  <SCORE.heavy>
9

>  <SCORE.norm>
-6.22507

$$$$
P77621952
 OpenBabel12072022113D
libRbt.so/2013.1/901 2013/11/27
 12 11  0  0  0  0  0  0  0  0999 V2000
    4.4062   15.9933    3.1792 C   0  0  0  0  0  0  0  0  0  0  0  0
    5.5759   16.9436    3.3884 C   0  0  2  0  0  0  0  0  0  0  0  0
    5.1651   18.1379    4.2691 C   0  0  0  0  0  0  0  0  0  0  0  0
    6.1175   18.4061    5.3537 N   0  0  0  0  0  0  0  0  0  0  0  0
    5.6224   18.2474    6.7158 C   0  0  0  0  0  0  0  0  0  0  0  0
    7.3820   18.8140    5.0057 C   0  0  0  0  0  0  0  0  0  0  0  0
    7.7362   19.0578    3.8573 O   0  0  0  0  0  0  0  0  0  0  0  0
    8.2695   18.9579    6.0172 N   0  0  0  0  0  0  0  0  0  0  0  0
    6.0026   17.4050    2.1036 O   0  0  0  0  0  0  0  0  0  0  0  0
    8.1621   19.7786    6.5935 H   0  0  0  0  0  0  0  0  0  0  0  0
    8.3762   18.1048    6.5527 H   0  0  0  0  0  0  0  0  0  0  0  0
    6.7146   18.0455    2.2839 H   0  0  0  0  0  0  0  0  0  0  0  0
  2  3  1  0  0  0  0
  2  9  1  0  0  0  0
  2  1  1  6  0  0  0
  3  4  1  0  0  0  0
  4  5  1  0  0  0  0
  4  6  1  0  0  0  0
  6  7  2  0  0  0  0
  6  8  1  0  0  0  0
  8 10  1  0  0  0  0
  8 11  1  0  0  0  0
  9 12  1  0  0  0  0
M  END
>  <CHROM.0>
-56.77926697,-63.34032116,-66.63269198,-48.39526570,-58.52894638,-62.20264665
-68.60384302,-60.89761395,-167.75497389

>  <CHROM.1>
131.94173689,176.88423390,-116.32544889,-75.62629721,6.27448800,17.99972096
4.41184808,2.25350535,-0.54626028,-1.80139310

>  <Name>
P77621952

>  <RI>
1.00763e+07

>  <Rbt.Current_Directory>
/home/fstefaniak/projects/zuza/docking/adenine/4XNR

>  <Rbt.Executable>
rbdock ($Id: //depot/dev/client3/rdock/2013.1/src/exe/rbdock.cxx#4 $)

>  <Rbt.Library>
libRbt.so (2013.1, Build901 2013/11/27)

>  <Rbt.Parameter_File>
/home/fstefaniak/progs/rDock//data/scripts/dock_solv.prm

>  <Rbt.Receptor>
4xnr.prm

>  <SCORE>
-56.0167

>  <SCORE.INTER>
-34.7339

>  <SCORE.INTER.CONST>
1

>  <SCORE.INTER.POLAR>
-5.09432

>  <SCORE.INTER.ROT>
3

>  <SCORE.INTER.SOLV>
11.4808

>  <SCORE.INTER.VDW>
-15.6018

>  <SCORE.INTER.norm>
-3.85932

>  <SCORE.INTRA>
-0.369673

>  <SCORE.INTRA.DIHEDRAL>
4.45461

>  <SCORE.INTRA.DIHEDRAL.0>
2.0697

>  <SCORE.INTRA.POLAR>
-0.772732

>  <SCORE.INTRA.POLAR.0>
0

>  <SCORE.INTRA.REPUL>
0

>  <SCORE.INTRA.REPUL.0>
0

>  <SCORE.INTRA.SOLV>
0.100951

>  <SCORE.INTRA.SOLV.lig_0>
-14.8279

>  <SCORE.INTRA.VDW>
-0.0201663

>  <SCORE.INTRA.VDW.0>
-0.732496

>  <SCORE.INTRA.norm>
-0.0410748

>  <SCORE.RESTR>
0

>  <SCORE.RESTR.CAVITY>
0

>  <SCORE.RESTR.norm>
0

>  <SCORE.SYSTEM>
-20.9131

>  <SCORE.SYSTEM.CONST>
0

>  <SCORE.SYSTEM.DIHEDRAL>
4.09174

>  <SCORE.SYSTEM.POLAR>
-2.97677

>  <SCORE.SYSTEM.SOLV>
0.279084

>  <SCORE.SYSTEM.VDW>
-5.47645

>  <SCORE.SYSTEM.norm>
-2.32368

>  <SCORE.heavy>
9

>  <SCORE.norm>
-6.22407

$$$$
P77621952
 OpenBabel12072022113D
libRbt.so/2013.1/901 2013/11/27
 12 11  0  0  0  0  0  0  0  0999 V2000
    4.4905   15.9620    3.1786 C   0  0  0  0  0  0  0  0  0  0  0  0
    5.6225   16.9584    3.3803 C   0  0  2  0  0  0  0  0  0  0  0  0
    5.1814   18.1162    4.2945 C   0  0  0  0  0  0  0  0  0  0  0  0
    6.1368   18.3908    5.3749 N   0  0  0  0  0  0  0  0  0  0  0  0
    5.6433   18.2474    6.7393 C   0  0  0  0  0  0  0  0  0  0  0  0
    7.4025   18.7897    5.0209 C   0  0  0  0  0  0  0  0  0  0  0  0
    7.7558   19.0208    3.8696 O   0  0  0  0  0  0  0  0  0  0  0  0
    8.2922   18.9396    6.0295 N   0  0  0  0  0  0  0  0  0  0  0  0
    5.9979   17.4631    2.0957 O   0  0  0  0  0  0  0  0  0  0  0  0
    8.1924   19.7689    6.5949 H   0  0  0  0  0  0  0  0  0  0  0  0
    8.3922   18.0929    6.5763 H   0  0  0  0  0  0  0  0  0  0  0  0
    6.7108   18.1043    2.2698 H   0  0  0  0  0  0  0  0  0  0  0  0
  2  3  1  0  0  0  0
  2  9  1  0  0  0  0
  2  1  1  6  0  0  0
  3  4  1  0  0  0  0
  4  5  1  0  0  0  0
  4  6  1  0  0  0  0
  6  7  2  0  0  0  0
  6  8  1  0  0  0  0
  8 10  1  0  0  0  0
  8 11  1  0  0  0  0
  9 12  1  0  0  0  0
M  END
>  <CHROM.0>
-61.06347702,-61.07703195,-68.29491599,-44.44752740,-176.40103037,-63.42826900
-71.88423900,-55.23912737,-168.17982453

>  <CHROM.1>
131.03192005,179.11125355,-119.33565990,-75.94641981,6.30122005,17.99237341
4.42190022,2.24034124,-0.54897138,-1.79327453

>  <Name>
P77621952

>  <RI>
1.00763e+07

>  <Rbt.Current_Directory>
/home/fstefaniak/projects/zuza/docking/adenine/4XNR

>  <Rbt.Executable>
rbdock ($Id: //depot/dev/client3/rdock/2013.1/src/exe/rbdock.cxx#4 $)

>  <Rbt.Library>
libRbt.so (2013.1, Build901 2013/11/27)

>  <Rbt.Parameter_File>
/home/fstefaniak/progs/rDock//data/scripts/dock_solv.prm

>  <Rbt.Receptor>
4xnr.prm

>  <SCORE>
-56.0144

>  <SCORE.INTER>
-34.6839

>  <SCORE.INTER.CONST>
1

>  <SCORE.INTER.POLAR>
-5.05313

>  <SCORE.INTER.ROT>
3

>  <SCORE.INTER.SOLV>
11.453

>  <SCORE.INTER.VDW>
-15.6965

>  <SCORE.INTER.norm>
-3.85377

>  <SCORE.INTRA>
-0.424862

>  <SCORE.INTRA.DIHEDRAL>
4.47469

>  <SCORE.INTRA.DIHEDRAL.0>
2.0697

>  <SCORE.INTRA.POLAR>
-0.800023

>  <SCORE.INTRA.POLAR.0>
0

>  <SCORE.INTRA.REPUL>
0

>  <SCORE.INTRA.REPUL.0>
0

>  <SCORE.INTRA.SOLV>
0.123577

>  <SCORE.INTRA.SOLV.lig_0>
-14.8279

>  <SCORE.INTRA.VDW>
-0.00391723

>  <SCORE.INTRA.VDW.0>
-0.732496

>  <SCORE.INTRA.norm>
-0.0472069

>  <SCORE.RESTR>
0

>  <SCORE.RESTR.CAVITY>
0

>  <SCORE.RESTR.norm>
0

>  <SCORE.SYSTEM>
-20.9055

>  <SCORE.SYSTEM.CONST>
0

>  <SCORE.SYSTEM.DIHEDRAL>
5.01186

>  <SCORE.SYSTEM.POLAR>
-3.01684

>  <SCORE.SYSTEM.SOLV>
0.0987658

>  <SCORE.SYSTEM.VDW>
-5.58444

>  <SCORE.SYSTEM.norm>
-2.32284

>  <SCORE.heavy>
9

>  <SCORE.norm>
-6.22382

$$$$
P77714041
 OpenBabel12072022113D
libRbt.so/2013.1/901 2013/11/27
 12 12  0  0  0  0  0  0  0  0999 V2000
    5.4406   17.7913    5.2089 C   0  0  0  0  0  0  0  0  0  0  0  0
    5.3333   16.5144    4.3678 C   0  0  2  0  0  0  0  0  0  0  0  0
    5.8806   16.7650    3.0094 C   0  0  0  0  0  0  0  0  0  0  0  0
    6.3047   16.9568    1.9451 N   0  0  0  0  0  0  0  0  0  0  0  0
    3.9533   15.9836    4.4127 N   0  0  0  0  0  0  0  0  0  0  0  0
    2.9568   16.7320    3.6472 C   0  0  0  0  0  0  0  0  0  0  0  0
    1.7552   15.8082    3.7428 C   0  0  0  0  0  0  0  0  0  0  0  0
    2.3608   14.4066    3.6226 C   0  0  1  0  0  0  0  0  0  0  0  0
    3.8411   14.5868    3.9774 C   0  0  0  0  0  0  0  0  0  0  0  0
    1.6615   13.3784    4.5040 C   0  0  0  0  0  0  0  0  0  0  0  0
    0.3464   13.1244    4.0258 O   0  0  0  0  0  0  0  0  0  0  0  0
   -0.1367   13.9680    4.0259 H   0  0  0  0  0  0  0  0  0  0  0  0
  2  3  1  0  0  0  0
  2  5  1  0  0  0  0
  2  1  1  1  0  0  0
  3  4  3  0  0  0  0
  5  6  1  0  0  0  0
  5  9  1  0  0  0  0
  6  7  1  0  0  0  0
  7  8  1  0  0  0  0
  8  9  1  0  0  0  0
  8 10  1  1  0  0  0
 10 11  1  0  0  0  0
 11 12  1  0  0  0  0
M  END
>  <CHROM.0>
-62.40354199,-60.88951558,-61.62429412,-45.91427417,-55.87947420,-173.25849428
-65.80293851,-175.76754390,-167.78406398

>  <CHROM.1>
73.26965642,68.74545225,-58.66394336,3.53384007,15.59906114,3.88189560,0.30657997
0.57366900,0.89913699

>  <Name>
P77714041

>  <RI>
3.1908e+07

>  <Rbt.Current_Directory>
/home/fstefaniak/projects/zuza/docking/adenine/4XNR

>  <Rbt.Executable>
rbdock ($Id: //depot/dev/client3/rdock/2013.1/src/exe/rbdock.cxx#4 $)

>  <Rbt.Library>
libRbt.so (2013.1, Build901 2013/11/27)

>  <Rbt.Parameter_File>
/home/fstefaniak/progs/rDock//data/scripts/dock_solv.prm

>  <Rbt.Receptor>
4xnr.prm

>  <SCORE>
-38.9817

>  <SCORE.INTER>
-18.3522

>  <SCORE.INTER.CONST>
1

>  <SCORE.INTER.POLAR>
-1.86384

>  <SCORE.INTER.ROT>
2

>  <SCORE.INTER.SOLV>
9.1388

>  <SCORE.INTER.VDW>
-14.0016

>  <SCORE.INTER.norm>
-1.66839

>  <SCORE.INTRA>
-0.139984

>  <SCORE.INTRA.DIHEDRAL>
0.0397402

>  <SCORE.INTRA.DIHEDRAL.0>
0.626428

>  <SCORE.INTRA.POLAR>
0

>  <SCORE.INTRA.POLAR.0>
0

>  <SCORE.INTRA.REPUL>
0

>  <SCORE.INTRA.REPUL.0>
0

>  <SCORE.INTRA.SOLV>
-0.0232438

>  <SCORE.INTRA.SOLV.lig_0>
-12.2445

>  <SCORE.INTRA.VDW>
-0.148232

>  <SCORE.INTRA.VDW.0>
0.77927

>  <SCORE.INTRA.norm>
-0.0127258

>  <SCORE.RESTR>
0

>  <SCORE.RESTR.CAVITY>
0

>  <SCORE.RESTR.norm>
0

>  <SCORE.SYSTEM>
-20.4894

>  <SCORE.SYSTEM.CONST>
0

>  <SCORE.SYSTEM.DIHEDRAL>
4.26128

>  <SCORE.SYSTEM.POLAR>
-2.9914

>  <SCORE.SYSTEM.SOLV>
0.0497785

>  <SCORE.SYSTEM.VDW>
-5.12533

>  <SCORE.SYSTEM.norm>
-1.86268

>  <SCORE.heavy>
11

>  <SCORE.norm>
-3.54379

$$$$
P77714041
 OpenBabel12072022113D
libRbt.so/2013.1/901 2013/11/27
 12 12  0  0  0  0  0  0  0  0999 V2000
    6.7143   18.7658    4.4023 C   0  0  0  0  0  0  0  0  0  0  0  0
    6.4826   17.5520    3.4954 C   0  0  2  0  0  0  0  0  0  0  0  0
    6.5877   17.9658    2.0723 C   0  0  0  0  0  0  0  0  0  0  0  0
    6.6659   18.2850    0.9581 N   0  0  0  0  0  0  0  0  0  0  0  0
    5.2283   16.8627    3.8695 N   0  0  0  0  0  0  0  0  0  0  0  0
    3.9960   17.4540    3.3492 C   0  0  0  0  0  0  0  0  0  0  0  0
    2.9750   16.3983    3.7359 C   0  0  0  0  0  0  0  0  0  0  0  0
    3.7079   15.0751    3.4952 C   0  0  1  0  0  0  0  0  0  0  0  0
    5.1953   15.4454    3.4908 C   0  0  0  0  0  0  0  0  0  0  0  0
    3.3662   14.0089    4.5293 C   0  0  0  0  0  0  0  0  0  0  0  0
    2.0162   14.1434    4.9563 O   0  0  0  0  0  0  0  0  0  0  0  0
    1.9934   14.8155    5.6584 H   0  0  0  0  0  0  0  0  0  0  0  0
  2  3  1  0  0  0  0
  2  5  1  0  0  0  0
  2  1  1  1  0  0  0
  3  4  3  0  0  0  0
  5  6  1  0  0  0  0
  5  9  1  0  0  0  0
  6  7  1  0  0  0  0
  7  8  1  0  0  0  0
  8  9  1  0  0  0  0
  8 10  1  1  0  0  0
 10 11  1  0  0  0  0
 11 12  1  0  0  0  0
M  END
>  <CHROM.0>
-58.72593899,-72.03085268,-65.44645524,-45.51709999,-57.34210708,-65.54590666
-68.17876641,-59.74940712,-167.87182287

>  <CHROM.1>
80.86962614,33.39776776,-83.88522253,4.74333943,16.49816399,3.54439450,-0.19113911
0.80938182,1.36308157

>  <Name>
P77714041

>  <RI>
3.1908e+07

>  <Rbt.Current_Directory>
/home/fstefaniak/projects/zuza/docking/adenine/4XNR

>  <Rbt.Executable>
rbdock ($Id: //depot/dev/client3/rdock/2013.1/src/exe/rbdock.cxx#4 $)

>  <Rbt.Library>
libRbt.so (2013.1, Build901 2013/11/27)

>  <Rbt.Parameter_File>
/home/fstefaniak/progs/rDock//data/scripts/dock_solv.prm

>  <Rbt.Receptor>
4xnr.prm

>  <SCORE>
-38.9109

>  <SCORE.INTER>
-20.9237

>  <SCORE.INTER.CONST>
1

>  <SCORE.INTER.POLAR>
-1.40598

>  <SCORE.INTER.ROT>
2

>  <SCORE.INTER.SOLV>
11.0018

>  <SCORE.INTER.VDW>
-17.8631

>  <SCORE.INTER.norm>
-1.90216

>  <SCORE.INTRA>
2.69335

>  <SCORE.INTRA.DIHEDRAL>
4.76991

>  <SCORE.INTRA.DIHEDRAL.0>
0.626428

>  <SCORE.INTRA.POLAR>
0

>  <SCORE.INTRA.POLAR.0>
0

>  <SCORE.INTRA.REPUL>
0

>  <SCORE.INTRA.REPUL.0>
0

>  <SCORE.INTRA.SOLV>
0.157454

>  <SCORE.INTRA.SOLV.lig_0>
-12.2445

>  <SCORE.INTRA.VDW>
0.229664

>  <SCORE.INTRA.VDW.0>
0.77927

>  <SCORE.INTRA.norm>
0.24485

>  <SCORE.RESTR>
0

>  <SCORE.RESTR.CAVITY>
0

>  <SCORE.RESTR.norm>
0

>  <SCORE.SYSTEM>
-20.6805

>  <SCORE.SYSTEM.CONST>
0

>  <SCORE.SYSTEM.DIHEDRAL>
5.03482

>  <SCORE.SYSTEM.POLAR>
-3.01105

>  <SCORE.SYSTEM.SOLV>
0.27408

>  <SCORE.SYSTEM.VDW>
-5.5198

>  <SCORE.SYSTEM.norm>
-1.88005

>  <SCORE.heavy>
11

>  <SCORE.norm>
-3.53735

$$$$
P77714041
 OpenBabel12072022113D
libRbt.so/2013.1/901 2013/11/27
 12 12  0  0  0  0  0  0  0  0999 V2000
    2.9116   16.4884    3.6473 C   0  0  0  0  0  0  0  0  0  0  0  0
    4.2003   15.6670    3.7666 C   0  0  2  0  0  0  0  0  0  0  0  0
    3.9953   14.5556    4.7311 C   0  0  0  0  0  0  0  0  0  0  0  0
    3.8410   13.6868    5.4866 N   0  0  0  0  0  0  0  0  0  0  0  0
    5.3506   16.5533    4.0481 N   0  0  0  0  0  0  0  0  0  0  0  0
    5.8914   17.2805    2.9001 C   0  0  0  0  0  0  0  0  0  0  0  0
    6.8749   18.2171    3.5796 C   0  0  0  0  0  0  0  0  0  0  0  0
    6.1536   18.6357    4.8643 C   0  0  1  0  0  0  0  0  0  0  0  0
    5.0846   17.5592    5.0829 C   0  0  0  0  0  0  0  0  0  0  0  0
    7.0948   18.7856    6.0537 C   0  0  0  0  0  0  0  0  0  0  0  0
    8.2740   19.4828    5.6711 O   0  0  0  0  0  0  0  0  0  0  0  0
    8.0034   20.3357    5.2910 H   0  0  0  0  0  0  0  0  0  0  0  0
  2  3  1  0  0  0  0
  2  5  1  0  0  0  0
  2  1  1  1  0  0  0
  3  4  3  0  0  0  0
  5  6  1  0  0  0  0
  5  9  1  0  0  0  0
  6  7  1  0  0  0  0
  7  8  1  0  0  0  0
  8  9  1  0  0  0  0
  8 10  1  1  0  0  0
 10 11  1  0  0  0  0
 11 12  1  0  0  0  0
M  END
>  <CHROM.0>
-57.58396038,-62.97077138,-67.31767908,-48.37210994,-58.55578567,-61.51223763
-68.41900214,-175.99782130,-168.17091474

>  <CHROM.1>
-78.49848686,44.13013346,56.11853032,5.48374939,17.07269666,4.54403416,2.87582839
0.81071601,2.11208118

>  <Name>
P77714041

>  <RI>
3.1908e+07

>  <Rbt.Current_Directory>
/home/fstefaniak/projects/zuza/docking/adenine/4XNR

>  <Rbt.Executable>
rbdock ($Id: //depot/dev/client3/rdock/2013.1/src/exe/rbdock.cxx#4 $)

>  <Rbt.Library>
libRbt.so (2013.1, Build901 2013/11/27)

>  <Rbt.Parameter_File>
/home/fstefaniak/progs/rDock//data/scripts/dock_solv.prm

>  <Rbt.Receptor>
4xnr.prm

>  <SCORE>
-38.9082

>  <SCORE.INTER>
-21.7794

>  <SCORE.INTER.CONST>
1

>  <SCORE.INTER.POLAR>
-1.85895

>  <SCORE.INTER.ROT>
2

>  <SCORE.INTER.SOLV>
11.97

>  <SCORE.INTER.VDW>
-17.2465

>  <SCORE.INTER.norm>
-1.97995

>  <SCORE.INTRA>
3.7474

>  <SCORE.INTRA.DIHEDRAL>
0.755374

>  <SCORE.INTRA.DIHEDRAL.0>
0.626428

>  <SCORE.INTRA.POLAR>
0

>  <SCORE.INTRA.POLAR.0>
0

>  <SCORE.INTRA.REPUL>
0

>  <SCORE.INTRA.REPUL.0>
0

>  <SCORE.INTRA.SOLV>
-0.053112

>  <SCORE.INTRA.SOLV.lig_0>
-12.2445

>  <SCORE.INTRA.VDW>
3.39627

>  <SCORE.INTRA.VDW.0>
0.77927

>  <SCORE.INTRA.norm>
0.340672

>  <SCORE.RESTR>
0

>  <SCORE.RESTR.CAVITY>
0

>  <SCORE.RESTR.norm>
0

>  <SCORE.SYSTEM>
-20.8762

>  <SCORE.SYSTEM.CONST>
0

>  <SCORE.SYSTEM.DIHEDRAL>
4.10514

>  <SCORE.SYSTEM.POLAR>
-2.96912

>  <SCORE.SYSTEM.SOLV>
0.145137

>  <SCORE.SYSTEM.VDW>
-5.43718

>  <SCORE.SYSTEM.norm>
-1.89784

>  <SCORE.heavy>
11

>  <SCORE.norm>
-3.53711

$$$$
P77886738
 OpenBabel12072022113D
libRbt.so/2013.1/901 2013/11/27
 17 17  0  0  0  0  0  0  0  0999 V2000
    6.6176   17.4044    2.6693 C   0  0  0  0  0  0  0  0  0  0  0  0
    7.2602   18.2288    3.7827 C   0  0  0  0  0  0  0  0  0  0  0  0
    6.2269   19.0585    4.5481 C   0  0  0  0  0  0  0  0  0  0  0  0
    5.0882   18.1895    5.0901 C   0  0  1  0  0  0  0  0  0  0  0  0
    4.4368   17.3823    3.9421 C   0  0  1  0  0  0  0  0  0  0  0  0
    5.4699   16.5377    3.1857 C   0  0  0  0  0  0  0  0  0  0  0  0
    3.2653   16.5592    4.3650 N   0  0  0  0  0  0  0  0  0  0  0  0
    1.9940   16.6465    3.9455 C   0  0  0  0  0  0  0  0  0  0  0  0
    1.0608   15.8973    4.5473 N   0  3  0  0  0  0  0  0  0  0  0  0
    0.0934   15.9409    4.2539 H   0  0  0  0  0  0  0  0  0  0  0  0
    1.2813   15.2707    5.3093 H   0  0  0  0  0  0  0  0  0  0  0  0
    1.6104   17.4460    2.9607 N   0  0  0  0  0  0  0  0  0  0  0  0
    5.6140   17.3007    6.0864 O   0  0  0  0  0  0  0  0  0  0  0  0
    3.4439   15.8904    5.1018 H   0  0  0  0  0  0  0  0  0  0  0  0
    2.3354   17.8695    2.3728 H   0  0  0  0  0  0  0  0  0  0  0  0
    0.6550   17.5381    2.6539 H   0  0  0  0  0  0  0  0  0  0  0  0
    4.8668   16.7369    6.3770 H   0  0  0  0  0  0  0  0  0  0  0  0
  1  2  1  0  0  0  0
  1  6  1  0  0  0  0
  2  3  1  0  0  0  0
  3  4  1  0  0  0  0
  4 13  1  1  0  0  0
  4  5  1  0  0  0  0
  5  6  1  0  0  0  0
  5  7  1  1  0  0  0
  7  8  1  0  0  0  0
  7 14  1  0  0  0  0
  8  9  2  0  0  0  0
  8 12  1  0  0  0  0
  9 10  1  0  0  0  0
  9 11  1  0  0  0  0
 12 15  1  0  0  0  0
 12 16  1  0  0  0  0
 13 17  1  0  0  0  0
M  CHG  1   9   1
M  END
>  <CHROM.0>
-56.33566764,-50.83693234,-73.63658888,-48.54446659,-173.15327731,-62.79242453
-172.23153330,-59.18826602,-166.98313189

>  <CHROM.1>
-177.45892460,118.71670581,4.37629129,17.30449634,4.13288183,-0.03567840
-0.29291044,-1.58795888

>  <Name>
P77886738

>  <RI>
3.58524e+07

>  <Rbt.Current_Directory>
/home/fstefaniak/projects/zuza/docking/adenine/4XNR

>  <Rbt.Executable>
rbdock ($Id: //depot/dev/client3/rdock/2013.1/src/exe/rbdock.cxx#4 $)

>  <Rbt.Library>
libRbt.so (2013.1, Build901 2013/11/27)

>  <Rbt.Parameter_File>
/home/fstefaniak/progs/rDock//data/scripts/dock_solv.prm

>  <Rbt.Receptor>
4xnr.prm

>  <SCORE>
-51.1687

>  <SCORE.INTER>
-32.6111

>  <SCORE.INTER.CONST>
1

>  <SCORE.INTER.POLAR>
-4.78567

>  <SCORE.INTER.ROT>
1

>  <SCORE.INTER.SOLV>
19.5853

>  <SCORE.INTER.VDW>
-16.5836

>  <SCORE.INTER.norm>
-2.96464

>  <SCORE.INTRA>
1.3343

>  <SCORE.INTRA.DIHEDRAL>
-0.265794

>  <SCORE.INTRA.DIHEDRAL.0>
2.69189

>  <SCORE.INTRA.POLAR>
0.938746

>  <SCORE.INTRA.POLAR.0>
-0.938746

>  <SCORE.INTRA.REPUL>
0

>  <SCORE.INTRA.REPUL.0>
0

>  <SCORE.INTRA.SOLV>
-2.17411

>  <SCORE.INTRA.SOLV.lig_0>
-28.3831

>  <SCORE.INTRA.VDW>
-0.637481

>  <SCORE.INTRA.VDW.0>
-0.235626

>  <SCORE.INTRA.norm>
0.1213

>  <SCORE.RESTR>
0

>  <SCORE.RESTR.CAVITY>
0

>  <SCORE.RESTR.norm>
0

>  <SCORE.SYSTEM>
-19.8919

>  <SCORE.SYSTEM.CONST>
0

>  <SCORE.SYSTEM.DIHEDRAL>
5.28258

>  <SCORE.SYSTEM.POLAR>
-2.95609

>  <SCORE.SYSTEM.SOLV>
0.0788348

>  <SCORE.SYSTEM.VDW>
-5.19478

>  <SCORE.SYSTEM.norm>
-1.80836

>  <SCORE.heavy>
11

>  <SCORE.norm>
-4.6517

$$$$
P77886738
 OpenBabel12072022113D
libRbt.so/2013.1/901 2013/11/27
 17 17  0  0  0  0  0  0  0  0999 V2000
    6.5861   17.3580    2.6567 C   0  0  0  0  0  0  0  0  0  0  0  0
    7.2346   18.1904    3.7606 C   0  0  0  0  0  0  0  0  0  0  0  0
    6.2075   19.0368    4.5159 C   0  0  0  0  0  0  0  0  0  0  0  0
    5.0621   18.1829    5.0677 C   0  0  1  0  0  0  0  0  0  0  0  0
    4.4048   17.3673    3.9289 C   0  0  1  0  0  0  0  0  0  0  0  0
    5.4317   16.5061    3.1827 C   0  0  0  0  0  0  0  0  0  0  0  0
    3.2270   16.5581    4.3610 N   0  0  0  0  0  0  0  0  0  0  0  0
    1.9537   16.6598    3.9507 C   0  0  0  0  0  0  0  0  0  0  0  0
    1.0164   15.9219    4.5599 N   0  3  0  0  0  0  0  0  0  0  0  0
    0.0474   15.9766    4.2735 H   0  0  0  0  0  0  0  0  0  0  0  0
    1.2352   15.2933    5.3208 H   0  0  0  0  0  0  0  0  0  0  0  0
    1.5723   17.4630    2.9681 N   0  0  0  0  0  0  0  0  0  0  0  0
    5.5809   17.3018    6.0744 O   0  0  0  0  0  0  0  0  0  0  0  0
    3.4032   15.8878    5.0970 H   0  0  0  0  0  0  0  0  0  0  0  0
    2.2978   17.8777    2.3747 H   0  0  0  0  0  0  0  0  0  0  0  0
    0.6158   17.5660    2.6682 H   0  0  0  0  0  0  0  0  0  0  0  0
    4.8289   16.7484    6.3727 H   0  0  0  0  0  0  0  0  0  0  0  0
  1  2  1  0  0  0  0
  1  6  1  0  0  0  0
  2  3  1  0  0  0  0
  3  4  1  0  0  0  0
  4 13  1  1  0  0  0
  4  5  1  0  0  0  0
  5  6  1  0  0  0  0
  5  7  1  1  0  0  0
  7  8  1  0  0  0  0
  7 14  1  0  0  0  0
  8  9  2  0  0  0  0
  8 12  1  0  0  0  0
  9 10  1  0  0  0  0
  9 11  1  0  0  0  0
 12 15  1  0  0  0  0
 12 16  1  0  0  0  0
 13 17  1  0  0  0  0
M  CHG  1   9   1
M  END
>  <CHROM.0>
-57.30791461,-50.68082882,-176.15325669,-46.81496875,-60.53229253,-177.69937806
-54.77308395,-177.85681675,-167.55488192

>  <CHROM.1>
-177.58842335,117.92251587,4.34265846,17.29584492,4.12458943,-0.03231985
-0.28284586,-1.59881217

>  <Name>
P77886738

>  <RI>
3.58524e+07

>  <Rbt.Current_Directory>
/home/fstefaniak/projects/zuza/docking/adenine/4XNR

>  <Rbt.Executable>
rbdock ($Id: //depot/dev/client3/rdock/2013.1/src/exe/rbdock.cxx#4 $)

>  <Rbt.Library>
libRbt.so (2013.1, Build901 2013/11/27)

>  <Rbt.Parameter_File>
/home/fstefaniak/progs/rDock//data/scripts/dock_solv.prm

>  <Rbt.Receptor>
4xnr.prm

>  <SCORE>
-49.422

>  <SCORE.INTER>
-32.6789

>  <SCORE.INTER.CONST>
1

>  <SCORE.INTER.POLAR>
-4.82188

>  <SCORE.INTER.ROT>
1

>  <SCORE.INTER.SOLV>
19.7257

>  <SCORE.INTER.VDW>
-16.5549

>  <SCORE.INTER.norm>
-2.9708

>  <SCORE.INTRA>
1.33075

>  <SCORE.INTRA.DIHEDRAL>
-0.25875

>  <SCORE.INTRA.DIHEDRAL.0>
2.69189

>  <SCORE.INTRA.POLAR>
0.938746

>  <SCORE.INTRA.POLAR.0>
-0.938746

>  <SCORE.INTRA.REPUL>
0

>  <SCORE.INTRA.REPUL.0>
0

>  <SCORE.INTRA.SOLV>
-2.17611

>  <SCORE.INTRA.SOLV.lig_0>
-28.3831

>  <SCORE.INTRA.VDW>
-0.643558

>  <SCORE.INTRA.VDW.0>
-0.235626

>  <SCORE.INTRA.norm>
0.120977

>  <SCORE.RESTR>
0

>  <SCORE.RESTR.CAVITY>
0

>  <SCORE.RESTR.norm>
0

>  <SCORE.SYSTEM>
-18.0739

>  <SCORE.SYSTEM.CONST>
0

>  <SCORE.SYSTEM.DIHEDRAL>
4.30092

>  <SCORE.SYSTEM.POLAR>
-2.55569

>  <SCORE.SYSTEM.SOLV>
0.0422215

>  <SCORE.SYSTEM.VDW>
-4.97802

>  <SCORE.SYSTEM.norm>
-1.64308

>  <SCORE.heavy>
11

>  <SCORE.norm>
-4.49291

$$$$
P77886738
 OpenBabel12072022113D
libRbt.so/2013.1/901 2013/11/27
 17 17  0  0  0  0  0  0  0  0999 V2000
    6.6414   17.3341    2.7090 C   0  0  0  0  0  0  0  0  0  0  0  0
    7.2487   18.1830    3.8238 C   0  0  0  0  0  0  0  0  0  0  0  0
    6.1911   19.0251    4.5410 C   0  0  0  0  0  0  0  0  0  0  0  0
    5.0389   18.1640    5.0668 C   0  0  1  0  0  0  0  0  0  0  0  0
    4.4238   17.3314    3.9168 C   0  0  1  0  0  0  0  0  0  0  0  0
    5.4810   16.4746    3.2089 C   0  0  0  0  0  0  0  0  0  0  0  0
    3.2423   16.5136    4.3217 N   0  0  0  0  0  0  0  0  0  0  0  0
    1.9705   16.6314    3.9111 C   0  0  0  0  0  0  0  0  0  0  0  0
    1.0292   15.8789    4.4957 N   0  3  0  0  0  0  0  0  0  0  0  0
    0.0612   15.9450    4.2084 H   0  0  0  0  0  0  0  0  0  0  0  0
    1.2439   15.2275    5.2384 H   0  0  0  0  0  0  0  0  0  0  0  0
    1.5943   17.4643    2.9515 N   0  0  0  0  0  0  0  0  0  0  0  0
    5.5371   17.2973    6.0963 O   0  0  0  0  0  0  0  0  0  0  0  0
    3.4143   15.8214    5.0382 H   0  0  0  0  0  0  0  0  0  0  0  0
    2.3228   17.8940    2.3725 H   0  0  0  0  0  0  0  0  0  0  0  0
    0.6390   17.5791    2.6521 H   0  0  0  0  0  0  0  0  0  0  0  0
    5.8678   17.8791    6.8124 H   0  0  0  0  0  0  0  0  0  0  0  0
  1  2  1  0  0  0  0
  1  6  1  0  0  0  0
  2  3  1  0  0  0  0
  3  4  1  0  0  0  0
  4 13  1  1  0  0  0
  4  5  1  0  0  0  0
  5  6  1  0  0  0  0
  5  7  1  1  0  0  0
  7  8  1  0  0  0  0
  7 14  1  0  0  0  0
  8  9  2  0  0  0  0
  8 12  1  0  0  0  0
  9 10  1  0  0  0  0
  9 11  1  0  0  0  0
 12 15  1  0  0  0  0
 12 16  1  0  0  0  0
 13 17  1  0  0  0  0
M  CHG  1   9   1
M  END
>  <CHROM.0>
-54.82033410,-143.46150222,-62.77389038,-44.98397062,-57.47913906,-176.42100542
-66.71242822,-53.89197362,-168.32144526

>  <CHROM.1>
61.80794003,115.13959189,4.35983047,17.28084586,4.12823991,-0.06376324,-0.28315405
-1.63656503

>  <Name>
P77886738

>  <RI>
3.58524e+07

>  <Rbt.Current_Directory>
/home/fstefaniak/projects/zuza/docking/adenine/4XNR

>  <Rbt.Executable>
rbdock ($Id: //depot/dev/client3/rdock/2013.1/src/exe/rbdock.cxx#4 $)

>  <Rbt.Library>
libRbt.so (2013.1, Build901 2013/11/27)

>  <Rbt.Parameter_File>
/home/fstefaniak/progs/rDock//data/scripts/dock_solv.prm

>  <Rbt.Receptor>
4xnr.prm

>  <SCORE>
-49.3719

>  <SCORE.INTER>
-32.4832

>  <SCORE.INTER.CONST>
1

>  <SCORE.INTER.POLAR>
-4.6048

>  <SCORE.INTER.ROT>
1

>  <SCORE.INTER.SOLV>
19.5293

>  <SCORE.INTER.VDW>
-17.0826

>  <SCORE.INTER.norm>
-2.95302

>  <SCORE.INTRA>
1.4381

>  <SCORE.INTRA.DIHEDRAL>
-0.23567

>  <SCORE.INTRA.DIHEDRAL.0>
2.69189

>  <SCORE.INTRA.POLAR>
0.938746

>  <SCORE.INTRA.POLAR.0>
-0.938746

>  <SCORE.INTRA.REPUL>
0

>  <SCORE.INTRA.REPUL.0>
0

>  <SCORE.INTRA.SOLV>
-2.34649

>  <SCORE.INTRA.SOLV.lig_0>
-28.3831

>  <SCORE.INTRA.VDW>
-0.462558

>  <SCORE.INTRA.VDW.0>
-0.235626

>  <SCORE.INTRA.norm>
0.130736

>  <SCORE.RESTR>
0

>  <SCORE.RESTR.CAVITY>
0

>  <SCORE.RESTR.norm>
0

>  <SCORE.SYSTEM>
-18.3268

>  <SCORE.SYSTEM.CONST>
0

>  <SCORE.SYSTEM.DIHEDRAL>
9.0839

>  <SCORE.SYSTEM.POLAR>
-3.06681

>  <SCORE.SYSTEM.SOLV>
0.173753

>  <SCORE.SYSTEM.VDW>
-5.08102

>  <SCORE.SYSTEM.norm>
-1.66607

>  <SCORE.heavy>
11

>  <SCORE.norm>
-4.48835

$$$$
P78162057
 OpenBabel12072022113D
libRbt.so/2013.1/901 2013/11/27
 11 11  0  0  0  0  0  0  0  0999 V2000
    2.0261   13.6032    3.5452 C   0  0  0  0  0  0  0  0  0  0  0  0
    2.0598   15.0513    4.0705 C   0  0  0  0  0  0  0  0  0  0  0  0
    3.5637   14.8507    4.3765 C   0  0  0  0  0  0  0  0  0  0  0  0
    3.2766   13.3295    4.4025 C   0  0  0  0  0  0  0  0  0  0  0  0
    4.4617   15.2666    3.2842 N   0  0  0  0  0  0  0  0  0  0  0  0
    5.2844   16.3622    3.2484 C   0  0  0  0  0  0  0  0  0  0  0  0
    5.9965   16.5443    2.2608 O   0  0  0  0  0  0  0  0  0  0  0  0
    5.2869   17.3144    4.4178 C   0  0  0  0  0  0  0  0  0  0  0  0
    6.2525   18.3875    4.1931 C   0  0  0  0  0  0  0  0  0  0  0  0
    7.0338   19.2346    4.0531 N   0  0  0  0  0  0  0  0  0  0  0  0
    4.5534   14.6925    2.4505 H   0  0  0  0  0  0  0  0  0  0  0  0
  1  2  1  0  0  0  0
  1  4  1  0  0  0  0
  2  3  1  0  0  0  0
  3  4  1  0  0  0  0
  3  5  1  0  0  0  0
  5  6  1  0  0  0  0
  5 11  1  0  0  0  0
  6  7  2  0  0  0  0
  6  8  1  0  0  0  0
  8  9  1  0  0  0  0
  9 10  3  0  0  0  0
M  END
>  <CHROM.0>
-57.63384412,-61.63060360,-67.55179008,-47.82439281,-176.10328422,-63.25114637
-71.10425808,-177.09667697,-168.64546811

>  <CHROM.1>
108.12084794,178.56250813,4.51577503,15.96048425,3.75130737,-2.58081168,0.66486560
0.73167455

>  <Name>
P78162057

>  <RI>
3.1908e+07

>  <Rbt.Current_Directory>
/home/fstefaniak/projects/zuza/docking/adenine/4XNR

>  <Rbt.Executable>
rbdock ($Id: //depot/dev/client3/rdock/2013.1/src/exe/rbdock.cxx#4 $)

>  <Rbt.Library>
libRbt.so (2013.1, Build901 2013/11/27)

>  <Rbt.Parameter_File>
/home/fstefaniak/progs/rDock//data/scripts/dock_solv.prm

>  <Rbt.Receptor>
4xnr.prm

>  <SCORE>
-47.4322

>  <SCORE.INTER>
-27.1296

>  <SCORE.INTER.CONST>
1

>  <SCORE.INTER.POLAR>
-3.0182

>  <SCORE.INTER.ROT>
2

>  <SCORE.INTER.SOLV>
9.58392

>  <SCORE.INTER.VDW>
-16.1537

>  <SCORE.INTER.norm>
-2.71296

>  <SCORE.INTRA>
0.580894

>  <SCORE.INTRA.DIHEDRAL>
-0.0261019

>  <SCORE.INTRA.DIHEDRAL.0>
2.59669

>  <SCORE.INTRA.POLAR>
0

>  <SCORE.INTRA.POLAR.0>
0

>  <SCORE.INTRA.REPUL>
0

>  <SCORE.INTRA.REPUL.0>
0

>  <SCORE.INTRA.SOLV>
-0.0135191

>  <SCORE.INTRA.SOLV.lig_0>
-12.6985

>  <SCORE.INTRA.VDW>
0.600705

>  <SCORE.INTRA.VDW.0>
-1.12437

>  <SCORE.INTRA.norm>
0.0580894

>  <SCORE.RESTR>
0

>  <SCORE.RESTR.CAVITY>
0

>  <SCORE.RESTR.norm>
0

>  <SCORE.SYSTEM>
-20.8836

>  <SCORE.SYSTEM.CONST>
0

>  <SCORE.SYSTEM.DIHEDRAL>
4.39395

>  <SCORE.SYSTEM.POLAR>
-2.96449

>  <SCORE.SYSTEM.SOLV>
-0.0392756

>  <SCORE.SYSTEM.VDW>
-5.4923

>  <SCORE.SYSTEM.norm>
-2.08836

>  <SCORE.heavy>
10

>  <SCORE.norm>
-4.74322

$$$$
P78162057
 OpenBabel12072022113D
libRbt.so/2013.1/901 2013/11/27
 11 11  0  0  0  0  0  0  0  0999 V2000
    2.0242   13.6228    3.5418 C   0  0  0  0  0  0  0  0  0  0  0  0
    2.0601   15.0782    4.0463 C   0  0  0  0  0  0  0  0  0  0  0  0
    3.5549   14.8683    4.3885 C   0  0  0  0  0  0  0  0  0  0  0  0
    3.2528   13.3504    4.4306 C   0  0  0  0  0  0  0  0  0  0  0  0
    4.4808   15.2595    3.3104 N   0  0  0  0  0  0  0  0  0  0  0  0
    5.3062   16.3530    3.2719 C   0  0  0  0  0  0  0  0  0  0  0  0
    6.0431   16.5130    2.2988 O   0  0  0  0  0  0  0  0  0  0  0  0
    5.2812   17.3300    4.4205 C   0  0  0  0  0  0  0  0  0  0  0  0
    6.1548   18.4659    4.1361 C   0  0  0  0  0  0  0  0  0  0  0  0
    6.8649   19.3650    3.9482 N   0  0  0  0  0  0  0  0  0  0  0  0
    4.5922   14.6676    2.4918 H   0  0  0  0  0  0  0  0  0  0  0  0
  1  2  1  0  0  0  0
  1  4  1  0  0  0  0
  2  3  1  0  0  0  0
  3  4  1  0  0  0  0
  3  5  1  0  0  0  0
  5  6  1  0  0  0  0
  5 11  1  0  0  0  0
  6  7  2  0  0  0  0
  6  8  1  0  0  0  0
  8  9  1  0  0  0  0
  9 10  3  0  0  0  0
M  END
>  <CHROM.0>
-57.69689228,-63.63367019,-65.15597909,-47.80184812,-58.11623423,-63.43254486
-69.06091815,-175.68591734,-168.31302778

>  <CHROM.1>
107.51539961,-175.76824294,4.49566465,15.98526909,3.74657420,-2.51448857
0.63193922,0.62664581

>  <Name>
P78162057

>  <RI>
3.1908e+07

>  <Rbt.Current_Directory>
/home/fstefaniak/projects/zuza/docking/adenine/4XNR

>  <Rbt.Executable>
rbdock ($Id: //depot/dev/client3/rdock/2013.1/src/exe/rbdock.cxx#4 $)

>  <Rbt.Library>
libRbt.so (2013.1, Build901 2013/11/27)

>  <Rbt.Parameter_File>
/home/fstefaniak/progs/rDock//data/scripts/dock_solv.prm

>  <Rbt.Receptor>
4xnr.prm

>  <SCORE>
-47.3578

>  <SCORE.INTER>
-27.0756

>  <SCORE.INTER.CONST>
1

>  <SCORE.INTER.POLAR>
-3.0182

>  <SCORE.INTER.ROT>
2

>  <SCORE.INTER.SOLV>
9.77333

>  <SCORE.INTER.VDW>
-16.1808

>  <SCORE.INTER.norm>
-2.70756

>  <SCORE.INTRA>
0.579395

>  <SCORE.INTRA.DIHEDRAL>
-0.022846

>  <SCORE.INTRA.DIHEDRAL.0>
2.59669

>  <SCORE.INTRA.POLAR>
0

>  <SCORE.INTRA.POLAR.0>
0

>  <SCORE.INTRA.REPUL>
0

>  <SCORE.INTRA.REPUL.0>
0

>  <SCORE.INTRA.SOLV>
-0.0129351

>  <SCORE.INTRA.SOLV.lig_0>
-12.6985

>  <SCORE.INTRA.VDW>
0.597285

>  <SCORE.INTRA.VDW.0>
-1.12437

>  <SCORE.INTRA.norm>
0.0579395

>  <SCORE.RESTR>
0

>  <SCORE.RESTR.CAVITY>
0

>  <SCORE.RESTR.norm>
0

>  <SCORE.SYSTEM>
-20.8616

>  <SCORE.SYSTEM.CONST>
0

>  <SCORE.SYSTEM.DIHEDRAL>
4.16084

>  <SCORE.SYSTEM.POLAR>
-2.9793

>  <SCORE.SYSTEM.SOLV>
0.143907

>  <SCORE.SYSTEM.VDW>
-5.41165

>  <SCORE.SYSTEM.norm>
-2.08616

>  <SCORE.heavy>
10

>  <SCORE.norm>
-4.73578

$$$$
P78162057
 OpenBabel12072022113D
libRbt.so/2013.1/901 2013/11/27
 11 11  0  0  0  0  0  0  0  0999 V2000
    1.9843   13.7376    3.5397 C   0  0  0  0  0  0  0  0  0  0  0  0
    2.1487   15.1324    4.1734 C   0  0  0  0  0  0  0  0  0  0  0  0
    3.6474   14.8053    4.3796 C   0  0  0  0  0  0  0  0  0  0  0  0
    3.2525   13.3102    4.3030 C   0  0  0  0  0  0  0  0  0  0  0  0
    4.5182   15.2466    3.2753 N   0  0  0  0  0  0  0  0  0  0  0  0
    5.2927   16.3760    3.2202 C   0  0  0  0  0  0  0  0  0  0  0  0
    5.9886   16.5769    2.2248 O   0  0  0  0  0  0  0  0  0  0  0  0
    5.2633   17.3411    4.3787 C   0  0  0  0  0  0  0  0  0  0  0  0
    6.1806   18.4515    4.1341 C   0  0  0  0  0  0  0  0  0  0  0  0
    6.9241   19.3294    3.9783 N   0  0  0  0  0  0  0  0  0  0  0  0
    4.6280   14.6672    2.4475 H   0  0  0  0  0  0  0  0  0  0  0  0
  1  2  1  0  0  0  0
  1  4  1  0  0  0  0
  2  3  1  0  0  0  0
  3  4  1  0  0  0  0
  3  5  1  0  0  0  0
  5  6  1  0  0  0  0
  5 11  1  0  0  0  0
  6  7  2  0  0  0  0
  6  8  1  0  0  0  0
  8  9  1  0  0  0  0
  9 10  3  0  0  0  0
M  END
>  <CHROM.0>
-57.06892054,-65.37865879,-67.31719136,-48.40601772,-59.29526702,-64.49267948
-70.08120312,-61.72189492,-168.23837901

>  <CHROM.1>
99.39553934,178.53444620,4.51231871,15.99678660,3.72714828,2.53803099,-0.65240569
-2.47778233

>  <Name>
P78162057

>  <RI>
3.1908e+07

>  <Rbt.Current_Directory>
/home/fstefaniak/projects/zuza/docking/adenine/4XNR

>  <Rbt.Executable>
rbdock ($Id: //depot/dev/client3/rdock/2013.1/src/exe/rbdock.cxx#4 $)

>  <Rbt.Library>
libRbt.so (2013.1, Build901 2013/11/27)

>  <Rbt.Parameter_File>
/home/fstefaniak/progs/rDock//data/scripts/dock_solv.prm

>  <Rbt.Receptor>
4xnr.prm

>  <SCORE>
-47.2276

>  <SCORE.INTER>
-26.875

>  <SCORE.INTER.CONST>
1

>  <SCORE.INTER.POLAR>
-3.0182

>  <SCORE.INTER.ROT>
2

>  <SCORE.INTER.SOLV>
9.74462

>  <SCORE.INTER.VDW>
-16.0375

>  <SCORE.INTER.norm>
-2.6875

>  <SCORE.INTRA>
0.599078

>  <SCORE.INTRA.DIHEDRAL>
-0.0112298

>  <SCORE.INTRA.DIHEDRAL.0>
2.59669

>  <SCORE.INTRA.POLAR>
0

>  <SCORE.INTRA.POLAR.0>
0

>  <SCORE.INTRA.REPUL>
0

>  <SCORE.INTRA.REPUL.0>
0

>  <SCORE.INTRA.SOLV>
-0.00450415

>  <SCORE.INTRA.SOLV.lig_0>
-12.6985

>  <SCORE.INTRA.VDW>
0.606945

>  <SCORE.INTRA.VDW.0>
-1.12437

>  <SCORE.INTRA.norm>
0.0599078

>  <SCORE.RESTR>
0

>  <SCORE.RESTR.CAVITY>
0

>  <SCORE.RESTR.norm>
0

>  <SCORE.SYSTEM>
-20.9517

>  <SCORE.SYSTEM.CONST>
0

>  <SCORE.SYSTEM.DIHEDRAL>
4.35402

>  <SCORE.SYSTEM.POLAR>
-2.97167

>  <SCORE.SYSTEM.SOLV>
0.264971

>  <SCORE.SYSTEM.VDW>
-5.60191

>  <SCORE.SYSTEM.norm>
-2.09517

>  <SCORE.heavy>
10

>  <SCORE.norm>
-4.72276

$$$$
P78273403
 OpenBabel12072022113D
libRbt.so/2013.1/901 2013/11/27
 13 13  0  0  0  0  0  0  0  0999 V2000
    4.1825   15.3582    4.0501 C   0  0  0  0  0  0  0  0  0  0  0  0
    5.2666   16.1193    3.3657 C   0  0  1  0  0  0  0  0  0  0  0  0
    4.9754   17.4626    2.7573 C   0  0  0  0  0  0  0  0  0  0  0  0
    5.8741   17.3656    3.9623 C   0  0  1  0  0  0  0  0  0  0  0  0
    5.4580   17.8712    5.2287 N   0  0  0  0  0  0  0  0  0  0  0  0
    6.1391   18.7404    6.0364 C   0  0  0  0  0  0  0  0  0  0  0  0
    5.7440   18.9910    7.1732 O   0  0  0  0  0  0  0  0  0  0  0  0
    7.2908   19.2795    5.4947 N   0  0  0  0  0  0  0  0  0  0  0  0
    8.5439   18.9462    6.0679 N   0  0  0  0  0  0  0  0  0  0  0  0
    4.6503   17.4591    5.6809 H   0  0  0  0  0  0  0  0  0  0  0  0
    7.2028   20.1867    5.0466 H   0  0  0  0  0  0  0  0  0  0  0  0
    8.4079   18.0759    6.5908 H   0  0  0  0  0  0  0  0  0  0  0  0
    8.7207   19.6382    6.8095 H   0  0  0  0  0  0  0  0  0  0  0  0
  2  1  1  1  0  0  0
  2  3  1  0  0  0  0
  2  4  1  0  0  0  0
  3  4  1  0  0  0  0
  4  5  1  1  0  0  0
  5  6  1  0  0  0  0
  5 10  1  0  0  0  0
  6  7  2  0  0  0  0
  6  8  1  0  0  0  0
  8  9  1  0  0  0  0
  8 11  1  0  0  0  0
  9 12  1  0  0  0  0
  9 13  1  0  0  0  0
M  END
>  <CHROM.0>
-52.65778188,-63.31727621,-65.19767085,-46.24624165,-55.52252626,-60.97585563
-67.04559786,-57.88497120,-168.81617068

>  <CHROM.1>
160.90960302,-113.92323448,20.70622179,5.96772776,17.82585887,4.96859656
2.22509726,-0.52436394,-1.99961335

>  <Name>
P78273403

>  <RI>
2.22087e+07

>  <Rbt.Current_Directory>
/home/fstefaniak/projects/zuza/docking/adenine/4XNR

>  <Rbt.Executable>
rbdock ($Id: //depot/dev/client3/rdock/2013.1/src/exe/rbdock.cxx#4 $)

>  <Rbt.Library>
libRbt.so (2013.1, Build901 2013/11/27)

>  <Rbt.Parameter_File>
/home/fstefaniak/progs/rDock//data/scripts/dock_solv.prm

>  <Rbt.Receptor>
4xnr.prm

>  <SCORE>
-58.5649

>  <SCORE.INTER>
-37.1656

>  <SCORE.INTER.CONST>
1

>  <SCORE.INTER.POLAR>
-5.14681

>  <SCORE.INTER.ROT>
3

>  <SCORE.INTER.SOLV>
13.7286

>  <SCORE.INTER.VDW>
-17.7972

>  <SCORE.INTER.norm>
-4.12951

>  <SCORE.INTRA>
-0.685333

>  <SCORE.INTRA.DIHEDRAL>
-0.838267

>  <SCORE.INTRA.DIHEDRAL.0>
2.96833

>  <SCORE.INTRA.POLAR>
0

>  <SCORE.INTRA.POLAR.0>
0

>  <SCORE.INTRA.REPUL>
0

>  <SCORE.INTRA.REPUL.0>
0

>  <SCORE.INTRA.SOLV>
-0.0443847

>  <SCORE.INTRA.SOLV.lig_0>
-18.0437

>  <SCORE.INTRA.VDW>
-0.244007

>  <SCORE.INTRA.VDW.0>
-0.607915

>  <SCORE.INTRA.norm>
-0.0761481

>  <SCORE.RESTR>
0

>  <SCORE.RESTR.CAVITY>
0

>  <SCORE.RESTR.norm>
0

>  <SCORE.SYSTEM>
-20.7139

>  <SCORE.SYSTEM.CONST>
0

>  <SCORE.SYSTEM.DIHEDRAL>
4.3196

>  <SCORE.SYSTEM.POLAR>
-3.04498

>  <SCORE.SYSTEM.SOLV>
0.306298

>  <SCORE.SYSTEM.VDW>
-5.20132

>  <SCORE.SYSTEM.norm>
-2.30155

>  <SCORE.heavy>
9

>  <SCORE.norm>
-6.50721

$$$$
P78273403
 OpenBabel12072022113D
libRbt.so/2013.1/901 2013/11/27
 13 13  0  0  0  0  0  0  0  0999 V2000
    4.1795   15.3541    4.0387 C   0  0  0  0  0  0  0  0  0  0  0  0
    5.2760   16.1072    3.3652 C   0  0  1  0  0  0  0  0  0  0  0  0
    4.9947   17.4403    2.7302 C   0  0  0  0  0  0  0  0  0  0  0  0
    5.8683   17.3642    3.9549 C   0  0  1  0  0  0  0  0  0  0  0  0
    5.4248   17.8883    5.2044 N   0  0  0  0  0  0  0  0  0  0  0  0
    6.0798   18.7840    6.0047 C   0  0  0  0  0  0  0  0  0  0  0  0
    5.6633   19.0510    7.1301 O   0  0  0  0  0  0  0  0  0  0  0  0
    7.2312   19.3304    5.4697 N   0  0  0  0  0  0  0  0  0  0  0  0
    8.4869   18.9629    6.0157 N   0  0  0  0  0  0  0  0  0  0  0  0
    4.6167   17.4725    5.6525 H   0  0  0  0  0  0  0  0  0  0  0  0
    7.1482   20.2544    5.0561 H   0  0  0  0  0  0  0  0  0  0  0  0
    8.3513   18.0661    6.4919 H   0  0  0  0  0  0  0  0  0  0  0  0
    8.6709   19.6134    6.7922 H   0  0  0  0  0  0  0  0  0  0  0  0
  2  1  1  1  0  0  0
  2  3  1  0  0  0  0
  2  4  1  0  0  0  0
  3  4  1  0  0  0  0
  4  5  1  1  0  0  0
  5  6  1  0  0  0  0
  5 10  1  0  0  0  0
  6  7  2  0  0  0  0
  6  8  1  0  0  0  0
  8  9  1  0  0  0  0
  8 11  1  0  0  0  0
  9 12  1  0  0  0  0
  9 13  1  0  0  0  0
M  END
>  <CHROM.0>
-54.68537890,-59.68232196,-65.91970345,-46.35140539,-173.08125274,-59.58083179
-67.05158466,-170.75798355,-166.72373490

>  <CHROM.1>
161.77617923,-110.01991773,21.81671309,5.93656335,17.84262546,4.94318093
2.19898709,-0.51321057,-2.03881070

>  <Name>
P78273403

>  <RI>
2.22087e+07

>  <Rbt.Current_Directory>
/home/fstefaniak/projects/zuza/docking/adenine/4XNR

>  <Rbt.Executable>
rbdock ($Id: //depot/dev/client3/rdock/2013.1/src/exe/rbdock.cxx#4 $)

>  <Rbt.Library>
libRbt.so (2013.1, Build901 2013/11/27)

>  <Rbt.Parameter_File>
/home/fstefaniak/progs/rDock//data/scripts/dock_solv.prm

>  <Rbt.Receptor>
4xnr.prm

>  <SCORE>
-58.5025

>  <SCORE.INTER>
-37.1472

>  <SCORE.INTER.CONST>
1

>  <SCORE.INTER.POLAR>
-5.176

>  <SCORE.INTER.ROT>
3

>  <SCORE.INTER.SOLV>
13.8272

>  <SCORE.INTER.VDW>
-17.7205

>  <SCORE.INTER.norm>
-4.12747

>  <SCORE.INTRA>
-0.702787

>  <SCORE.INTRA.DIHEDRAL>
-0.859093

>  <SCORE.INTRA.DIHEDRAL.0>
2.96833

>  <SCORE.INTRA.POLAR>
0

>  <SCORE.INTRA.POLAR.0>
0

>  <SCORE.INTRA.REPUL>
0

>  <SCORE.INTRA.REPUL.0>
0

>  <SCORE.INTRA.SOLV>
-0.0266004

>  <SCORE.INTRA.SOLV.lig_0>
-18.0437

>  <SCORE.INTRA.VDW>
-0.25994

>  <SCORE.INTRA.VDW.0>
-0.607915

>  <SCORE.INTRA.norm>
-0.0780874

>  <SCORE.RESTR>
0

>  <SCORE.RESTR.CAVITY>
0

>  <SCORE.RESTR.norm>
0

>  <SCORE.SYSTEM>
-20.6525

>  <SCORE.SYSTEM.CONST>
0

>  <SCORE.SYSTEM.DIHEDRAL>
4.87037

>  <SCORE.SYSTEM.POLAR>
-3.02736

>  <SCORE.SYSTEM.SOLV>
-0.0122388

>  <SCORE.SYSTEM.VDW>
-5.29652

>  <SCORE.SYSTEM.norm>
-2.29472

>  <SCORE.heavy>
9

>  <SCORE.norm>
-6.50028

$$$$
P78273403
 OpenBabel12072022113D
libRbt.so/2013.1/901 2013/11/27
 13 13  0  0  0  0  0  0  0  0999 V2000
    4.3074   15.3151    4.0531 C   0  0  0  0  0  0  0  0  0  0  0  0
    5.3337   16.1317    3.3439 C   0  0  1  0  0  0  0  0  0  0  0  0
    4.9555   17.4520    2.7331 C   0  0  0  0  0  0  0  0  0  0  0  0
    5.8802   17.4147    3.9215 C   0  0  1  0  0  0  0  0  0  0  0  0
    5.4593   17.9048    5.1925 N   0  0  0  0  0  0  0  0  0  0  0  0
    6.1477   18.7455    6.0238 C   0  0  0  0  0  0  0  0  0  0  0  0
    5.7444   18.9828    7.1606 O   0  0  0  0  0  0  0  0  0  0  0  0
    7.3156   19.2722    5.5050 N   0  0  0  0  0  0  0  0  0  0  0  0
    8.5530   18.9292    6.1060 N   0  0  0  0  0  0  0  0  0  0  0  0
    4.6388   17.5001    5.6278 H   0  0  0  0  0  0  0  0  0  0  0  0
    7.2457   20.1786    5.0522 H   0  0  0  0  0  0  0  0  0  0  0  0
    8.3917   18.0757    6.6491 H   0  0  0  0  0  0  0  0  0  0  0  0
    8.7326   19.6368    6.8321 H   0  0  0  0  0  0  0  0  0  0  0  0
  2  1  1  1  0  0  0
  2  3  1  0  0  0  0
  2  4  1  0  0  0  0
  3  4  1  0  0  0  0
  4  5  1  1  0  0  0
  5  6  1  0  0  0  0
  5 10  1  0  0  0  0
  6  7  2  0  0  0  0
  6  8  1  0  0  0  0
  8  9  1  0  0  0  0
  8 11  1  0  0  0  0
  9 12  1  0  0  0  0
  9 13  1  0  0  0  0
M  END
>  <CHROM.0>
-57.52733104,-63.73780015,-74.41275504,-48.14871826,-59.41745782,-62.98148833
-173.04060818,-59.21765281,-168.18336140

>  <CHROM.1>
156.00624865,-115.41924767,19.22918944,5.99237507,17.82659405,4.95886020
2.20981503,-0.52453476,-2.00134954

>  <Name>
P78273403

>  <RI>
2.22087e+07

>  <Rbt.Current_Directory>
/home/fstefaniak/projects/zuza/docking/adenine/4XNR

>  <Rbt.Executable>
rbdock ($Id: //depot/dev/client3/rdock/2013.1/src/exe/rbdock.cxx#4 $)

>  <Rbt.Library>
libRbt.so (2013.1, Build901 2013/11/27)

>  <Rbt.Parameter_File>
/home/fstefaniak/progs/rDock//data/scripts/dock_solv.prm

>  <Rbt.Receptor>
4xnr.prm

>  <SCORE>
-58.1517

>  <SCORE.INTER>
-37.0708

>  <SCORE.INTER.CONST>
1

>  <SCORE.INTER.POLAR>
-5.07737

>  <SCORE.INTER.ROT>
3

>  <SCORE.INTER.SOLV>
13.7288

>  <SCORE.INTER.VDW>
-17.9656

>  <SCORE.INTER.norm>
-4.11898

>  <SCORE.INTRA>
-0.681617

>  <SCORE.INTRA.DIHEDRAL>
-0.815999

>  <SCORE.INTRA.DIHEDRAL.0>
2.96833

>  <SCORE.INTRA.POLAR>
0

>  <SCORE.INTRA.POLAR.0>
0

>  <SCORE.INTRA.REPUL>
0

>  <SCORE.INTRA.REPUL.0>
0

>  <SCORE.INTRA.SOLV>
-0.0582901

>  <SCORE.INTRA.SOLV.lig_0>
-18.0437

>  <SCORE.INTRA.VDW>
-0.244473

>  <SCORE.INTRA.VDW.0>
-0.607915

>  <SCORE.INTRA.norm>
-0.0757352

>  <SCORE.RESTR>
0

>  <SCORE.RESTR.CAVITY>
0

>  <SCORE.RESTR.norm>
0

>  <SCORE.SYSTEM>
-20.3992

>  <SCORE.SYSTEM.CONST>
0

>  <SCORE.SYSTEM.DIHEDRAL>
4.66892

>  <SCORE.SYSTEM.POLAR>
-2.94929

>  <SCORE.SYSTEM.SOLV>
0.222648

>  <SCORE.SYSTEM.VDW>
-5.39902

>  <SCORE.SYSTEM.norm>
-2.26658

>  <SCORE.heavy>
9

>  <SCORE.norm>
-6.4613

$$$$
P79172745
 OpenBabel12072022113D
libRbt.so/2013.1/901 2013/11/27
 13 12  0  0  0  0  0  0  0  0999 V2000
    6.5352   17.2796    2.9194 C   0  0  0  0  0  0  0  0  0  0  0  0
    5.1753   16.9094    3.5260 C   0  0  0  0  0  0  0  0  0  0  0  0
    4.0362   17.6554    2.8205 C   0  0  0  0  0  0  0  0  0  0  0  0
    4.9635   15.3942    3.3420 C   0  0  0  0  0  0  0  0  0  0  0  0
    5.1509   17.1748    4.9670 N   0  0  0  0  0  0  0  0  0  0  0  0
    5.5957   18.3129    5.5668 C   0  0  0  0  0  0  0  0  0  0  0  0
    5.9515   19.4122    4.9849 N   0  0  0  0  0  0  0  0  0  0  0  0
    6.3775   20.3627    5.9285 O   0  0  0  0  0  0  0  0  0  0  0  0
    5.6286   18.1242    6.9132 N   0  0  0  0  0  0  0  0  0  0  0  0
    4.3033   16.8453    5.4160 H   0  0  0  0  0  0  0  0  0  0  0  0
    7.2512   20.6127    5.5753 H   0  0  0  0  0  0  0  0  0  0  0  0
    4.8458   17.5639    7.2258 H   0  0  0  0  0  0  0  0  0  0  0  0
    6.5033   17.6530    7.1346 H   0  0  0  0  0  0  0  0  0  0  0  0
  1  2  1  0  0  0  0
  2  3  1  0  0  0  0
  2  4  1  0  0  0  0
  2  5  1  0  0  0  0
  5  6  1  0  0  0  0
  5 10  1  0  0  0  0
  6  7  2  0  0  0  0
  6  9  1  0  0  0  0
  7  8  1  0  0  0  0
  8 11  1  0  0  0  0
  9 12  1  0  0  0  0
  9 13  1  0  0  0  0
M  END
>  <CHROM.0>
-62.63392649,47.06029749,-72.70742249,-48.42508452,179.80323640,-66.82021987
-170.53821198,60.58281437,-168.11748241

>  <CHROM.1>
46.29195446,9.54027438,-37.41337567,127.36283028,5.50704928,17.87737620,4.59214723
-2.39126336,1.22889266,1.56525591

>  <Name>
P79172745

>  <RI>
2.22087e+07

>  <Rbt.Current_Directory>
/home/fstefaniak/projects/zuza/docking/adenine/4XNR

>  <Rbt.Executable>
rbdock ($Id: //depot/dev/client3/rdock/2013.1/src/exe/rbdock.cxx#4 $)

>  <Rbt.Library>
libRbt.so (2013.1, Build901 2013/11/27)

>  <Rbt.Parameter_File>
/home/fstefaniak/progs/rDock//data/scripts/dock_solv.prm

>  <Rbt.Receptor>
4xnr.prm

>  <SCORE>
-48.0454

>  <SCORE.INTER>
-29.6651

>  <SCORE.INTER.CONST>
1

>  <SCORE.INTER.POLAR>
-4.2313

>  <SCORE.INTER.ROT>
3

>  <SCORE.INTER.SOLV>
12.6773

>  <SCORE.INTER.VDW>
-15.4982

>  <SCORE.INTER.norm>
-3.29612

>  <SCORE.INTRA>
0.0907462

>  <SCORE.INTRA.DIHEDRAL>
-1.32619

>  <SCORE.INTRA.DIHEDRAL.0>
3.24032

>  <SCORE.INTRA.POLAR>
0.209008

>  <SCORE.INTRA.POLAR.0>
-0.209008

>  <SCORE.INTRA.REPUL>
0

>  <SCORE.INTRA.REPUL.0>
0

>  <SCORE.INTRA.SOLV>
-0.00405793

>  <SCORE.INTRA.SOLV.lig_0>
-9.84243

>  <SCORE.INTRA.VDW>
0.0452418

>  <SCORE.INTRA.VDW.0>
0.318508

>  <SCORE.INTRA.norm>
0.0100829

>  <SCORE.RESTR>
0

>  <SCORE.RESTR.CAVITY>
0

>  <SCORE.RESTR.norm>
0

>  <SCORE.SYSTEM>
-18.471

>  <SCORE.SYSTEM.CONST>
0

>  <SCORE.SYSTEM.DIHEDRAL>
5.51544

>  <SCORE.SYSTEM.POLAR>
-2.98034

>  <SCORE.SYSTEM.SOLV>
-0.0184057

>  <SCORE.SYSTEM.VDW>
-4.21187

>  <SCORE.SYSTEM.norm>
-2.05233

>  <SCORE.heavy>
9

>  <SCORE.norm>
-5.33838

$$$$
P79172745
 OpenBabel12072022113D
libRbt.so/2013.1/901 2013/11/27
 13 12  0  0  0  0  0  0  0  0999 V2000
    6.4862   17.1165    3.0211 C   0  0  0  0  0  0  0  0  0  0  0  0
    5.1433   16.9000    3.7310 C   0  0  0  0  0  0  0  0  0  0  0  0
    4.0113   17.6368    3.0047 C   0  0  0  0  0  0  0  0  0  0  0  0
    4.8348   15.3903    3.7257 C   0  0  0  0  0  0  0  0  0  0  0  0
    5.2149   17.3190    5.1335 N   0  0  0  0  0  0  0  0  0  0  0  0
    5.6838   18.5179    5.5753 C   0  0  0  0  0  0  0  0  0  0  0  0
    5.8665   19.5894    4.8737 N   0  0  0  0  0  0  0  0  0  0  0  0
    6.3873   20.6252    5.6683 O   0  0  0  0  0  0  0  0  0  0  0  0
    5.9574   18.4278    6.9044 N   0  0  0  0  0  0  0  0  0  0  0  0
    4.4051   17.0342    5.6736 H   0  0  0  0  0  0  0  0  0  0  0  0
    7.2160   20.8351    5.1996 H   0  0  0  0  0  0  0  0  0  0  0  0
    6.7206   17.7868    7.0807 H   0  0  0  0  0  0  0  0  0  0  0  0
    6.2048   19.3602    7.2296 H   0  0  0  0  0  0  0  0  0  0  0  0
  1  2  1  0  0  0  0
  2  3  1  0  0  0  0
  2  4  1  0  0  0  0
  2  5  1  0  0  0  0
  5  6  1  0  0  0  0
  5 10  1  0  0  0  0
  6  7  2  0  0  0  0
  6  9  1  0  0  0  0
  7  8  1  0  0  0  0
  8 11  1  0  0  0  0
  9 12  1  0  0  0  0
  9 13  1  0  0  0  0
M  END
>  <CHROM.0>
-58.16411280,54.54627328,-67.30042521,-47.87326737,-176.12901788,-65.24967732
-66.60762435,-58.50270518,-168.50044708

>  <CHROM.1>
50.46962541,16.43912387,65.78246582,122.15720013,5.53566354,17.99075514,4.66039950
-2.97273693,1.28462138,2.04326898

>  <Name>
P79172745

>  <RI>
2.22087e+07

>  <Rbt.Current_Directory>
/home/fstefaniak/projects/zuza/docking/adenine/4XNR

>  <Rbt.Executable>
rbdock ($Id: //depot/dev/client3/rdock/2013.1/src/exe/rbdock.cxx#4 $)

>  <Rbt.Library>
libRbt.so (2013.1, Build901 2013/11/27)

>  <Rbt.Parameter_File>
/home/fstefaniak/progs/rDock//data/scripts/dock_solv.prm

>  <Rbt.Receptor>
4xnr.prm

>  <SCORE>
-47.7327

>  <SCORE.INTER>
-26.8917

>  <SCORE.INTER.CONST>
1

>  <SCORE.INTER.POLAR>
-3.24951

>  <SCORE.INTER.ROT>
3

>  <SCORE.INTER.SOLV>
12.5331

>  <SCORE.INTER.VDW>
-16.8738

>  <SCORE.INTER.norm>
-2.98797

>  <SCORE.INTRA>
-0.734218

>  <SCORE.INTRA.DIHEDRAL>
-1.54467

>  <SCORE.INTRA.DIHEDRAL.0>
3.24032

>  <SCORE.INTRA.POLAR>
0.0606606

>  <SCORE.INTRA.POLAR.0>
-0.209008

>  <SCORE.INTRA.REPUL>
0

>  <SCORE.INTRA.REPUL.0>
0

>  <SCORE.INTRA.SOLV>
0.0117461

>  <SCORE.INTRA.SOLV.lig_0>
-9.84243

>  <SCORE.INTRA.VDW>
-0.174002

>  <SCORE.INTRA.VDW.0>
0.318508

>  <SCORE.INTRA.norm>
-0.0815798

>  <SCORE.RESTR>
0

>  <SCORE.RESTR.CAVITY>
0

>  <SCORE.RESTR.norm>
0

>  <SCORE.SYSTEM>
-20.1068

>  <SCORE.SYSTEM.CONST>
0

>  <SCORE.SYSTEM.DIHEDRAL>
4.20278

>  <SCORE.SYSTEM.POLAR>
-2.97848

>  <SCORE.SYSTEM.SOLV>
0.202728

>  <SCORE.SYSTEM.VDW>
-4.94477

>  <SCORE.SYSTEM.norm>
-2.23409

>  <SCORE.heavy>
9

>  <SCORE.norm>
-5.30364

$$$$
P79172745
 OpenBabel12072022113D
libRbt.so/2013.1/901 2013/11/27
 13 12  0  0  0  0  0  0  0  0999 V2000
    6.4962   17.1540    3.0279 C   0  0  0  0  0  0  0  0  0  0  0  0
    5.1444   16.9020    3.7088 C   0  0  0  0  0  0  0  0  0  0  0  0
    4.0079   17.5999    2.9517 C   0  0  0  0  0  0  0  0  0  0  0  0
    4.8812   15.3837    3.7072 C   0  0  0  0  0  0  0  0  0  0  0  0
    5.1714   17.3320    5.1094 N   0  0  0  0  0  0  0  0  0  0  0  0
    5.6447   18.5266    5.5586 C   0  0  0  0  0  0  0  0  0  0  0  0
    5.9127   19.5747    4.8492 N   0  0  0  0  0  0  0  0  0  0  0  0
    6.4064   20.6132    5.6574 O   0  0  0  0  0  0  0  0  0  0  0  0
    5.8164   18.4605    6.9060 N   0  0  0  0  0  0  0  0  0  0  0  0
    4.3374   17.0659    5.6215 H   0  0  0  0  0  0  0  0  0  0  0  0
    7.1586   20.9347    5.1271 H   0  0  0  0  0  0  0  0  0  0  0  0
    6.5375   17.7946    7.1531 H   0  0  0  0  0  0  0  0  0  0  0  0
    6.0778   19.3905    7.2269 H   0  0  0  0  0  0  0  0  0  0  0  0
  1  2  1  0  0  0  0
  2  3  1  0  0  0  0
  2  4  1  0  0  0  0
  2  5  1  0  0  0  0
  5  6  1  0  0  0  0
  5 10  1  0  0  0  0
  6  7  2  0  0  0  0
  6  9  1  0  0  0  0
  7  8  1  0  0  0  0
  8 11  1  0  0  0  0
  9 12  1  0  0  0  0
  9 13  1  0  0  0  0
M  END
>  <CHROM.0>
-56.51231493,48.19567906,-64.91176665,-48.06314855,-177.67395083,59.55614573
-67.52890468,-61.44035947,-168.13813517

>  <CHROM.1>
47.64653703,14.01563870,65.23619737,135.56253872,5.52247267,17.99420500,4.64265519
-2.71673854,1.26920276,1.77913295

>  <Name>
P79172745

>  <RI>
2.22087e+07

>  <Rbt.Current_Directory>
/home/fstefaniak/projects/zuza/docking/adenine/4XNR

>  <Rbt.Executable>
rbdock ($Id: //depot/dev/client3/rdock/2013.1/src/exe/rbdock.cxx#4 $)

>  <Rbt.Library>
libRbt.so (2013.1, Build901 2013/11/27)

>  <Rbt.Parameter_File>
/home/fstefaniak/progs/rDock//data/scripts/dock_solv.prm

>  <Rbt.Receptor>
4xnr.prm

>  <SCORE>
-46.7782

>  <SCORE.INTER>
-27.1998

>  <SCORE.INTER.CONST>
1

>  <SCORE.INTER.POLAR>
-3.24951

>  <SCORE.INTER.ROT>
3

>  <SCORE.INTER.SOLV>
12.6462

>  <SCORE.INTER.VDW>
-17.1169

>  <SCORE.INTER.norm>
-3.0222

>  <SCORE.INTRA>
-0.562188

>  <SCORE.INTRA.DIHEDRAL>
-1.06826

>  <SCORE.INTRA.DIHEDRAL.0>
3.24032

>  <SCORE.INTRA.POLAR>
0.0253963

>  <SCORE.INTRA.POLAR.0>
-0.209008

>  <SCORE.INTRA.REPUL>
0

>  <SCORE.INTRA.REPUL.0>
0

>  <SCORE.INTRA.SOLV>
0.00253497

>  <SCORE.INTRA.SOLV.lig_0>
-9.84243

>  <SCORE.INTRA.VDW>
-0.115672

>  <SCORE.INTRA.VDW.0>
0.318508

>  <SCORE.INTRA.norm>
-0.0624653

>  <SCORE.RESTR>
0

>  <SCORE.RESTR.CAVITY>
0

>  <SCORE.RESTR.norm>
0

>  <SCORE.SYSTEM>
-19.0163

>  <SCORE.SYSTEM.CONST>
0

>  <SCORE.SYSTEM.DIHEDRAL>
4.52646

>  <SCORE.SYSTEM.POLAR>
-3.03585

>  <SCORE.SYSTEM.SOLV>
0.101244

>  <SCORE.SYSTEM.VDW>
-4.10057

>  <SCORE.SYSTEM.norm>
-2.11292

>  <SCORE.heavy>
9

>  <SCORE.norm>
-5.19758

$$$$
P79173498
 OpenBabel12072022113D
libRbt.so/2013.1/901 2013/11/27
 15 15  0  0  0  0  0  0  0  0999 V2000
    3.7575   14.2520    3.8179 C   0  0  0  0  0  0  0  0  0  0  0  0
    4.6967   15.3279    4.3465 C   0  0  0  0  0  0  0  0  0  0  0  0
    4.3985   16.7193    3.7561 C   0  0  1  0  0  0  0  0  0  0  0  0
    4.8059   17.8477    4.7329 C   0  0  0  0  0  0  0  0  0  0  0  0
    6.2308   17.9274    4.9048 O   0  0  0  0  0  0  0  0  0  0  0  0
    6.8648   18.1944    3.6416 C   0  0  0  0  0  0  0  0  0  0  0  0
    6.5636   17.0832    2.6299 C   0  0  0  0  0  0  0  0  0  0  0  0
    5.1006   16.9197    2.4549 N   0  0  0  0  0  0  0  0  0  0  0  0
    4.4877   17.6673    1.4718 C   0  0  0  0  0  0  0  0  0  0  0  0
    3.2563   18.0837    1.5287 N   0  0  0  0  0  0  0  0  0  0  0  0
    2.9328   18.8531    0.3977 O   0  0  0  0  0  0  0  0  0  0  0  0
    5.3203   17.9738    0.4396 N   0  0  0  0  0  0  0  0  0  0  0  0
    2.7460   18.1638   -0.2657 H   0  0  0  0  0  0  0  0  0  0  0  0
    5.4693   18.9724    0.3746 H   0  0  0  0  0  0  0  0  0  0  0  0
    4.9097   17.6086   -0.4159 H   0  0  0  0  0  0  0  0  0  0  0  0
  1  2  1  0  0  0  0
  3  2  1  1  0  0  0
  3  4  1  0  0  0  0
  3  8  1  0  0  0  0
  4  5  1  0  0  0  0
  5  6  1  0  0  0  0
  6  7  1  0  0  0  0
  7  8  1  0  0  0  0
  8  9  1  0  0  0  0
  9 10  2  0  0  0  0
  9 12  1  0  0  0  0
 10 11  1  0  0  0  0
 11 13  1  0  0  0  0
 12 14  1  0  0  0  0
 12 15  1  0  0  0  0
M  END
>  <CHROM.0>
-62.15282039,-63.97102789,62.11213249,-45.41749457,-60.61788736,-63.20233148
52.67968517,-61.69446319,-168.26973559

>  <CHROM.1>
151.66537590,-8.89588243,-115.86190877,80.68498591,4.85365010,17.26187155
2.80453009,1.14821901,0.65553693,2.31090334

>  <Name>
P79173498

>  <RI>
9.71178e+06

>  <Rbt.Current_Directory>
/home/fstefaniak/projects/zuza/docking/adenine/4XNR

>  <Rbt.Executable>
rbdock ($Id: //depot/dev/client3/rdock/2013.1/src/exe/rbdock.cxx#4 $)

>  <Rbt.Library>
libRbt.so (2013.1, Build901 2013/11/27)

>  <Rbt.Parameter_File>
/home/fstefaniak/progs/rDock//data/scripts/dock_solv.prm

>  <Rbt.Receptor>
4xnr.prm

>  <SCORE>
-47.8749

>  <SCORE.INTER>
-30.566

>  <SCORE.INTER.CONST>
1

>  <SCORE.INTER.POLAR>
-5.10789

>  <SCORE.INTER.ROT>
3

>  <SCORE.INTER.SOLV>
13.2033

>  <SCORE.INTER.VDW>
-13.3521

>  <SCORE.INTER.norm>
-2.54717

>  <SCORE.INTRA>
1.69895

>  <SCORE.INTRA.DIHEDRAL>
0.709652

>  <SCORE.INTRA.DIHEDRAL.0>
2.98375

>  <SCORE.INTRA.POLAR>
0.199939

>  <SCORE.INTRA.POLAR.0>
-0.199939

>  <SCORE.INTRA.REPUL>
0

>  <SCORE.INTRA.REPUL.0>
0

>  <SCORE.INTRA.SOLV>
-0.149088

>  <SCORE.INTRA.SOLV.lig_0>
-11.7734

>  <SCORE.INTRA.VDW>
0.738879

>  <SCORE.INTRA.VDW.0>
-0.726431

>  <SCORE.INTRA.norm>
0.141579

>  <SCORE.RESTR>
0

>  <SCORE.RESTR.CAVITY>
0

>  <SCORE.RESTR.norm>
0

>  <SCORE.SYSTEM>
-19.0079

>  <SCORE.SYSTEM.CONST>
0

>  <SCORE.SYSTEM.DIHEDRAL>
4.1378

>  <SCORE.SYSTEM.POLAR>
-2.96992

>  <SCORE.SYSTEM.SOLV>
0.177815

>  <SCORE.SYSTEM.VDW>
-4.21072

>  <SCORE.SYSTEM.norm>
-1.58399

>  <SCORE.heavy>
12

>  <SCORE.norm>
-3.98958

$$$$
P79173498
 OpenBabel12072022113D
libRbt.so/2013.1/901 2013/11/27
 15 15  0  0  0  0  0  0  0  0999 V2000
    3.6367   14.1313    3.8573 C   0  0  0  0  0  0  0  0  0  0  0  0
    4.7014   15.1624    4.2074 C   0  0  0  0  0  0  0  0  0  0  0  0
    4.3575   16.5715    3.6879 C   0  0  1  0  0  0  0  0  0  0  0  0
    4.6742   17.6568    4.7438 C   0  0  0  0  0  0  0  0  0  0  0  0
    6.0865   17.7918    4.9754 O   0  0  0  0  0  0  0  0  0  0  0  0
    6.7520   18.1632    3.7555 C   0  0  0  0  0  0  0  0  0  0  0  0
    6.5418   17.1020    2.6699 C   0  0  0  0  0  0  0  0  0  0  0  0
    5.0957   16.8818    2.4288 N   0  0  0  0  0  0  0  0  0  0  0  0
    4.4831   17.6580    1.4678 C   0  0  0  0  0  0  0  0  0  0  0  0
    3.2580   18.0891    1.5458 N   0  0  0  0  0  0  0  0  0  0  0  0
    2.9336   18.8864    0.4346 O   0  0  0  0  0  0  0  0  0  0  0  0
    5.3095   17.9754    0.4341 N   0  0  0  0  0  0  0  0  0  0  0  0
    2.7010   18.2142   -0.2320 H   0  0  0  0  0  0  0  0  0  0  0  0
    5.4498   18.9754    0.3722 H   0  0  0  0  0  0  0  0  0  0  0  0
    4.8993   17.6097   -0.4214 H   0  0  0  0  0  0  0  0  0  0  0  0
  1  2  1  0  0  0  0
  3  2  1  1  0  0  0
  3  4  1  0  0  0  0
  3  8  1  0  0  0  0
  4  5  1  0  0  0  0
  5  6  1  0  0  0  0
  6  7  1  0  0  0  0
  7  8  1  0  0  0  0
  8  9  1  0  0  0  0
  9 10  2  0  0  0  0
  9 12  1  0  0  0  0
 10 11  1  0  0  0  0
 11 13  1  0  0  0  0
 12 14  1  0  0  0  0
 12 15  1  0  0  0  0
M  END
>  <CHROM.0>
-59.29505409,56.37302928,-73.11074010,53.60702565,-58.02230175,-63.10799305
-172.72449267,59.32841965,-168.73962609

>  <CHROM.1>
137.58153473,-3.97702867,-117.50016889,82.58516745,4.80373973,17.19812995
2.81353929,1.20550132,0.66872795,2.32876899

>  <Name>
P79173498

>  <RI>
9.71178e+06

>  <Rbt.Current_Directory>
/home/fstefaniak/projects/zuza/docking/adenine/4XNR

>  <Rbt.Executable>
rbdock ($Id: //depot/dev/client3/rdock/2013.1/src/exe/rbdock.cxx#4 $)

>  <Rbt.Library>
libRbt.so (2013.1, Build901 2013/11/27)

>  <Rbt.Parameter_File>
/home/fstefaniak/progs/rDock//data/scripts/dock_solv.prm

>  <Rbt.Receptor>
4xnr.prm

>  <SCORE>
-43.5112

>  <SCORE.INTER>
-30.7107

>  <SCORE.INTER.CONST>
1

>  <SCORE.INTER.POLAR>
-5.1136

>  <SCORE.INTER.ROT>
3

>  <SCORE.INTER.SOLV>
13.2184

>  <SCORE.INTER.VDW>
-13.4346

>  <SCORE.INTER.norm>
-2.55922

>  <SCORE.INTRA>
2.50098

>  <SCORE.INTRA.DIHEDRAL>
2.71646

>  <SCORE.INTRA.DIHEDRAL.0>
2.98375

>  <SCORE.INTRA.POLAR>
0.199939

>  <SCORE.INTRA.POLAR.0>
-0.199939

>  <SCORE.INTRA.REPUL>
0

>  <SCORE.INTRA.REPUL.0>
0

>  <SCORE.INTRA.SOLV>
-0.200371

>  <SCORE.INTRA.SOLV.lig_0>
-11.7734

>  <SCORE.INTRA.VDW>
0.563139

>  <SCORE.INTRA.VDW.0>
-0.726431

>  <SCORE.INTRA.norm>
0.208415

>  <SCORE.RESTR>
0

>  <SCORE.RESTR.CAVITY>
0

>  <SCORE.RESTR.norm>
0

>  <SCORE.SYSTEM>
-15.3015

>  <SCORE.SYSTEM.CONST>
0

>  <SCORE.SYSTEM.DIHEDRAL>
4.01491

>  <SCORE.SYSTEM.POLAR>
-2.38902

>  <SCORE.SYSTEM.SOLV>
0.0835375

>  <SCORE.SYSTEM.VDW>
-3.60376

>  <SCORE.SYSTEM.norm>
-1.27513

>  <SCORE.heavy>
12

>  <SCORE.norm>
-3.62594

$$$$
P79173498
 OpenBabel12072022113D
libRbt.so/2013.1/901 2013/11/27
 15 15  0  0  0  0  0  0  0  0999 V2000
    4.0045   14.3135    4.2095 C   0  0  0  0  0  0  0  0  0  0  0  0
    5.0390   15.1869    3.5123 C   0  0  0  0  0  0  0  0  0  0  0  0
    4.4763   16.5606    3.1001 C   0  0  1  0  0  0  0  0  0  0  0  0
    4.5475   17.5745    4.2664 C   0  0  0  0  0  0  0  0  0  0  0  0
    5.9016   17.9259    4.5971 O   0  0  0  0  0  0  0  0  0  0  0  0
    6.5466   18.5244    3.4592 C   0  0  0  0  0  0  0  0  0  0  0  0
    6.5771   17.5553    2.2722 C   0  0  0  0  0  0  0  0  0  0  0  0
    5.2053   17.1156    1.9224 N   0  0  0  0  0  0  0  0  0  0  0  0
    4.5103   17.8664    0.9981 C   0  0  0  0  0  0  0  0  0  0  0  0
    3.2564   18.1940    1.1141 N   0  0  0  0  0  0  0  0  0  0  0  0
    2.8435   18.9936    0.0343 O   0  0  0  0  0  0  0  0  0  0  0  0
    5.2846   18.2793   -0.0423 N   0  0  0  0  0  0  0  0  0  0  0  0
    2.7993   18.3429   -0.6902 H   0  0  0  0  0  0  0  0  0  0  0  0
    6.1749   17.7988   -0.0483 H   0  0  0  0  0  0  0  0  0  0  0  0
    5.4120   19.2848    0.0389 H   0  0  0  0  0  0  0  0  0  0  0  0
  1  2  1  0  0  0  0
  3  2  1  1  0  0  0
  3  4  1  0  0  0  0
  3  8  1  0  0  0  0
  4  5  1  0  0  0  0
  5  6  1  0  0  0  0
  6  7  1  0  0  0  0
  7  8  1  0  0  0  0
  8  9  1  0  0  0  0
  9 10  2  0  0  0  0
  9 12  1  0  0  0  0
 10 11  1  0  0  0  0
 11 13  1  0  0  0  0
 12 14  1  0  0  0  0
 12 15  1  0  0  0  0
M  END
>  <CHROM.0>
-53.71528395,-60.25225352,58.87708808,-48.33567858,59.89041761,-62.06805108
54.04939373,-60.16926242,-169.01267264

>  <CHROM.1>
84.71710489,3.90101189,12.07350537,73.22278273,4.83887418,17.36674126,2.42747184
1.26640282,0.65290098,2.33185735

>  <Name>
P79173498

>  <RI>
9.71178e+06

>  <Rbt.Current_Directory>
/home/fstefaniak/projects/zuza/docking/adenine/4XNR

>  <Rbt.Executable>
rbdock ($Id: //depot/dev/client3/rdock/2013.1/src/exe/rbdock.cxx#4 $)

>  <Rbt.Library>
libRbt.so (2013.1, Build901 2013/11/27)

>  <Rbt.Parameter_File>
/home/fstefaniak/progs/rDock//data/scripts/dock_solv.prm

>  <Rbt.Receptor>
4xnr.prm

>  <SCORE>
-41.1869

>  <SCORE.INTER>
-25.7279

>  <SCORE.INTER.CONST>
1

>  <SCORE.INTER.POLAR>
-4.25084

>  <SCORE.INTER.ROT>
3

>  <SCORE.INTER.SOLV>
13.9518

>  <SCORE.INTER.VDW>
-13.2331

>  <SCORE.INTER.norm>
-2.14399

>  <SCORE.INTRA>
2.41031

>  <SCORE.INTRA.DIHEDRAL>
0.274171

>  <SCORE.INTRA.DIHEDRAL.0>
2.98375

>  <SCORE.INTRA.POLAR>
0.199939

>  <SCORE.INTRA.POLAR.0>
-0.199939

>  <SCORE.INTRA.REPUL>
0

>  <SCORE.INTRA.REPUL.0>
0

>  <SCORE.INTRA.SOLV>
-0.266785

>  <SCORE.INTRA.SOLV.lig_0>
-11.7734

>  <SCORE.INTRA.VDW>
1.72683

>  <SCORE.INTRA.VDW.0>
-0.726431

>  <SCORE.INTRA.norm>
0.200859

>  <SCORE.RESTR>
0

>  <SCORE.RESTR.CAVITY>
0

>  <SCORE.RESTR.norm>
0

>  <SCORE.SYSTEM>
-17.8693

>  <SCORE.SYSTEM.CONST>
0

>  <SCORE.SYSTEM.DIHEDRAL>
3.67103

>  <SCORE.SYSTEM.POLAR>
-2.97025

>  <SCORE.SYSTEM.SOLV>
-0.0126611

>  <SCORE.SYSTEM.VDW>
-3.23147

>  <SCORE.SYSTEM.norm>
-1.48911

>  <SCORE.heavy>
12

>  <SCORE.norm>
-3.43224

$$$$
P79173919
 OpenBabel12072022113D
libRbt.so/2013.1/901 2013/11/27
 16 17  0  0  0  0  0  0  0  0999 V2000
    6.2885   18.7575    6.4289 C   0  0  0  0  0  0  0  0  0  0  0  0
    5.2119   17.9306    5.6990 C   0  0  0  0  0  0  0  0  0  0  0  0
    5.4370   18.2573    4.2350 C   0  0  1  0  0  0  0  0  0  0  0  0
    6.9489   18.4592    4.1345 C   0  0  2  0  0  0  0  0  0  0  0  0
    7.2207   19.3281    5.3500 C   0  0  0  0  0  0  0  0  0  0  0  0
    7.2866   19.0774    2.8909 O   0  0  0  0  0  0  0  0  0  0  0  0
    6.8469   18.2357    1.7985 C   0  0  0  0  0  0  0  0  0  0  0  0
    5.3353   17.9020    1.8552 C   0  0  0  0  0  0  0  0  0  0  0  0
    4.9910   17.3445    3.1825 N   0  0  0  0  0  0  0  0  0  0  0  0
    4.7421   16.0032    3.2964 C   0  0  0  0  0  0  0  0  0  0  0  0
    3.6369   15.4189    3.6588 N   0  0  0  0  0  0  0  0  0  0  0  0
    2.6605   16.3487    4.0414 O   0  0  0  0  0  0  0  0  0  0  0  0
    5.7664   15.2012    2.9091 N   0  0  0  0  0  0  0  0  0  0  0  0
    2.8697   16.4865    4.9819 H   0  0  0  0  0  0  0  0  0  0  0  0
    5.4722   14.2536    2.7243 H   0  0  0  0  0  0  0  0  0  0  0  0
    6.4950   15.2177    3.6153 H   0  0  0  0  0  0  0  0  0  0  0  0
  1  2  1  0  0  0  0
  1  5  1  0  0  0  0
  3  2  1  1  0  0  0
  3  4  1  0  0  0  0
  3  9  1  0  0  0  0
  4  5  1  1  0  0  0
  4  6  1  0  0  0  0
  6  7  1  0  0  0  0
  7  8  1  0  0  0  0
  8  9  1  0  0  0  0
  9 10  1  0  0  0  0
 10 11  2  0  0  0  0
 10 13  1  0  0  0  0
 11 12  1  0  0  0  0
 12 14  1  0  0  0  0
 13 15  1  0  0  0  0
 13 16  1  0  0  0  0
M  END
>  <CHROM.0>
-58.58952407,-62.90455964,-65.46665566,-47.31890619,-57.97765546,-63.50108503
-68.73701950,-58.23665397,-167.24326368

>  <CHROM.1>
86.69394355,-161.83525460,-86.59866211,5.54676534,17.53426780,3.80000216
0.48600281,0.70540793,1.21331884

>  <Name>
P79173919

>  <RI>
1.34432e+07

>  <Rbt.Current_Directory>
/home/fstefaniak/projects/zuza/docking/adenine/4XNR

>  <Rbt.Executable>
rbdock ($Id: //depot/dev/client3/rdock/2013.1/src/exe/rbdock.cxx#4 $)

>  <Rbt.Library>
libRbt.so (2013.1, Build901 2013/11/27)

>  <Rbt.Parameter_File>
/home/fstefaniak/progs/rDock//data/scripts/dock_solv.prm

>  <Rbt.Receptor>
4xnr.prm

>  <SCORE>
-56.7944

>  <SCORE.INTER>
-34.5481

>  <SCORE.INTER.CONST>
1

>  <SCORE.INTER.POLAR>
-4.12258

>  <SCORE.INTER.ROT>
2

>  <SCORE.INTER.SOLV>
14.2631

>  <SCORE.INTER.VDW>
-18.9778

>  <SCORE.INTER.norm>
-2.65755

>  <SCORE.INTRA>
-1.36591

>  <SCORE.INTRA.DIHEDRAL>
-2.01375

>  <SCORE.INTRA.DIHEDRAL.0>
2.92857

>  <SCORE.INTRA.POLAR>
0

>  <SCORE.INTRA.POLAR.0>
0

>  <SCORE.INTRA.REPUL>
0

>  <SCORE.INTRA.REPUL.0>
0

>  <SCORE.INTRA.SOLV>
-0.124753

>  <SCORE.INTRA.SOLV.lig_0>
-11.7025

>  <SCORE.INTRA.VDW>
-0.296663

>  <SCORE.INTRA.VDW.0>
-1.16616

>  <SCORE.INTRA.norm>
-0.10507

>  <SCORE.RESTR>
0

>  <SCORE.RESTR.CAVITY>
0

>  <SCORE.RESTR.norm>
0

>  <SCORE.SYSTEM>
-20.8804

>  <SCORE.SYSTEM.CONST>
0

>  <SCORE.SYSTEM.DIHEDRAL>
4.21117

>  <SCORE.SYSTEM.POLAR>
-2.98441

>  <SCORE.SYSTEM.SOLV>
0.281597

>  <SCORE.SYSTEM.VDW>
-5.46981

>  <SCORE.SYSTEM.norm>
-1.60618

>  <SCORE.heavy>
13

>  <SCORE.norm>
-4.3688

$$$$
P79173919
 OpenBabel12072022113D
libRbt.so/2013.1/901 2013/11/27
 16 17  0  0  0  0  0  0  0  0999 V2000
    6.3059   18.8264    6.4149 C   0  0  0  0  0  0  0  0  0  0  0  0
    5.2251   17.9854    5.7075 C   0  0  0  0  0  0  0  0  0  0  0  0
    5.4418   18.2834    4.2361 C   0  0  1  0  0  0  0  0  0  0  0  0
    6.9531   18.4832    4.1231 C   0  0  2  0  0  0  0  0  0  0  0  0
    7.2319   19.3758    5.3197 C   0  0  0  0  0  0  0  0  0  0  0  0
    7.2837   19.0769    2.8657 O   0  0  0  0  0  0  0  0  0  0  0  0
    6.8378   18.2140    1.7925 C   0  0  0  0  0  0  0  0  0  0  0  0
    5.3266   17.8815    1.8644 C   0  0  0  0  0  0  0  0  0  0  0  0
    4.9899   17.3502    3.2043 N   0  0  0  0  0  0  0  0  0  0  0  0
    4.7418   16.0114    3.3459 C   0  0  0  0  0  0  0  0  0  0  0  0
    3.6489   15.4356    3.7564 N   0  0  0  0  0  0  0  0  0  0  0  0
    2.6896   16.3737    4.1612 O   0  0  0  0  0  0  0  0  0  0  0  0
    5.7492   15.2008    2.9328 N   0  0  0  0  0  0  0  0  0  0  0  0
    2.7583   16.3279    5.1310 H   0  0  0  0  0  0  0  0  0  0  0  0
    5.4401   14.2587    2.7444 H   0  0  0  0  0  0  0  0  0  0  0  0
    6.4903   15.2017    3.6259 H   0  0  0  0  0  0  0  0  0  0  0  0
  1  2  1  0  0  0  0
  1  5  1  0  0  0  0
  3  2  1  1  0  0  0
  3  4  1  0  0  0  0
  3  9  1  0  0  0  0
  4  5  1  1  0  0  0
  4  6  1  0  0  0  0
  6  7  1  0  0  0  0
  7  8  1  0  0  0  0
  8  9  1  0  0  0  0
  9 10  1  0  0  0  0
 10 11  2  0  0  0  0
 10 13  1  0  0  0  0
 11 12  1  0  0  0  0
 12 14  1  0  0  0  0
 13 15  1  0  0  0  0
 13 16  1  0  0  0  0
M  END
>  <CHROM.0>
-56.99695271,-61.45528466,-65.43622608,-47.83462621,60.23411859,-59.97138533
-66.89869157,-58.21094776,-167.54928505

>  <CHROM.1>
84.89788736,-160.04495070,-102.63904808,5.55016655,17.55095612,3.81997785
0.47427412,0.71104196,1.19374656

>  <Name>
P79173919

>  <RI>
1.34432e+07

>  <Rbt.Current_Directory>
/home/fstefaniak/projects/zuza/docking/adenine/4XNR

>  <Rbt.Executable>
rbdock ($Id: //depot/dev/client3/rdock/2013.1/src/exe/rbdock.cxx#4 $)

>  <Rbt.Library>
libRbt.so (2013.1, Build901 2013/11/27)

>  <Rbt.Parameter_File>
/home/fstefaniak/progs/rDock//data/scripts/dock_solv.prm

>  <Rbt.Receptor>
4xnr.prm

>  <SCORE>
-55.7582

>  <SCORE.INTER>
-34.5174

>  <SCORE.INTER.CONST>
1

>  <SCORE.INTER.POLAR>
-4.10501

>  <SCORE.INTER.ROT>
2

>  <SCORE.INTER.SOLV>
14.2973

>  <SCORE.INTER.VDW>
-19.0273

>  <SCORE.INTER.norm>
-2.65519

>  <SCORE.INTRA>
-1.35259

>  <SCORE.INTRA.DIHEDRAL>
-1.92935

>  <SCORE.INTRA.DIHEDRAL.0>
2.92857

>  <SCORE.INTRA.POLAR>
0

>  <SCORE.INTRA.POLAR.0>
0

>  <SCORE.INTRA.REPUL>
0

>  <SCORE.INTRA.REPUL.0>
0

>  <SCORE.INTRA.SOLV>
-0.12784

>  <SCORE.INTRA.SOLV.lig_0>
-11.7025

>  <SCORE.INTRA.VDW>
-0.323996

>  <SCORE.INTRA.VDW.0>
-1.16616

>  <SCORE.INTRA.norm>
-0.104045

>  <SCORE.RESTR>
0

>  <SCORE.RESTR.CAVITY>
0

>  <SCORE.RESTR.norm>
0

>  <SCORE.SYSTEM>
-19.8882

>  <SCORE.SYSTEM.CONST>
0

>  <SCORE.SYSTEM.DIHEDRAL>
3.92019

>  <SCORE.SYSTEM.POLAR>
-2.98631

>  <SCORE.SYSTEM.SOLV>
0.0866885

>  <SCORE.SYSTEM.VDW>
-4.64005

>  <SCORE.SYSTEM.norm>
-1.52986

>  <SCORE.heavy>
13

>  <SCORE.norm>
-4.28909

$$$$
P79173919
 OpenBabel12072022113D
libRbt.so/2013.1/901 2013/11/27
 16 17  0  0  0  0  0  0  0  0999 V2000
    6.3699   18.8228    6.3381 C   0  0  0  0  0  0  0  0  0  0  0  0
    5.2784   17.9765    5.6540 C   0  0  0  0  0  0  0  0  0  0  0  0
    5.4548   18.2840    4.1793 C   0  0  1  0  0  0  0  0  0  0  0  0
    6.9610   18.4972    4.0286 C   0  0  2  0  0  0  0  0  0  0  0  0
    7.2629   19.3858    5.2226 C   0  0  0  0  0  0  0  0  0  0  0  0
    7.2543   19.1003    2.7665 O   0  0  0  0  0  0  0  0  0  0  0  0
    6.7881   18.2393    1.7003 C   0  0  0  0  0  0  0  0  0  0  0  0
    5.2821   17.8937    1.8091 C   0  0  0  0  0  0  0  0  0  0  0  0
    4.9844   17.3525    3.1542 N   0  0  0  0  0  0  0  0  0  0  0  0
    4.7511   16.0109    3.2948 C   0  0  0  0  0  0  0  0  0  0  0  0
    3.6564   15.4216    3.6808 N   0  0  0  0  0  0  0  0  0  0  0  0
    2.6749   16.3479    4.0587 O   0  0  0  0  0  0  0  0  0  0  0  0
    5.7791   15.2128    2.9092 N   0  0  0  0  0  0  0  0  0  0  0  0
    2.8880   16.4973    4.9966 H   0  0  0  0  0  0  0  0  0  0  0  0
    5.4934   14.2583    2.7482 H   0  0  0  0  0  0  0  0  0  0  0  0
    6.5174   15.2522    3.6044 H   0  0  0  0  0  0  0  0  0  0  0  0
  1  2  1  0  0  0  0
  1  5  1  0  0  0  0
  3  2  1  1  0  0  0
  3  4  1  0  0  0  0
  3  9  1  0  0  0  0
  4  5  1  1  0  0  0
  4  6  1  0  0  0  0
  6  7  1  0  0  0  0
  7  8  1  0  0  0  0
  8  9  1  0  0  0  0
  9 10  1  0  0  0  0
 10 11  2  0  0  0  0
 10 13  1  0  0  0  0
 11 12  1  0  0  0  0
 12 14  1  0  0  0  0
 13 15  1  0  0  0  0
 13 16  1  0  0  0  0
M  END
>  <CHROM.0>
-59.17654084,-61.10632671,-66.77288922,-46.93542687,-58.43942586,58.16749552
-67.07073810,-57.88399689,-167.71795076

>  <CHROM.1>
87.81920998,-162.05357132,-87.18306151,5.55609152,17.55562782,3.74812638
0.45228154,0.72221025,1.22522571

>  <Name>
P79173919

>  <RI>
1.34432e+07

>  <Rbt.Current_Directory>
/home/fstefaniak/projects/zuza/docking/adenine/4XNR

>  <Rbt.Executable>
rbdock ($Id: //depot/dev/client3/rdock/2013.1/src/exe/rbdock.cxx#4 $)

>  <Rbt.Library>
libRbt.so (2013.1, Build901 2013/11/27)

>  <Rbt.Parameter_File>
/home/fstefaniak/progs/rDock//data/scripts/dock_solv.prm

>  <Rbt.Receptor>
4xnr.prm

>  <SCORE>
-55.7092

>  <SCORE.INTER>
-34.5143

>  <SCORE.INTER.CONST>
1

>  <SCORE.INTER.POLAR>
-4.13803

>  <SCORE.INTER.ROT>
2

>  <SCORE.INTER.SOLV>
14.3058

>  <SCORE.INTER.VDW>
-18.9181

>  <SCORE.INTER.norm>
-2.65495

>  <SCORE.INTRA>
-1.39766

>  <SCORE.INTRA.DIHEDRAL>
-2.01452

>  <SCORE.INTRA.DIHEDRAL.0>
2.92857

>  <SCORE.INTRA.POLAR>
0

>  <SCORE.INTRA.POLAR.0>
0

>  <SCORE.INTRA.REPUL>
0

>  <SCORE.INTRA.REPUL.0>
0

>  <SCORE.INTRA.SOLV>
-0.123984

>  <SCORE.INTRA.SOLV.lig_0>
-11.7025

>  <SCORE.INTRA.VDW>
-0.328405

>  <SCORE.INTRA.VDW.0>
-1.16616

>  <SCORE.INTRA.norm>
-0.107512

>  <SCORE.RESTR>
0

>  <SCORE.RESTR.CAVITY>
0

>  <SCORE.RESTR.norm>
0

>  <SCORE.SYSTEM>
-19.7972

>  <SCORE.SYSTEM.CONST>
0

>  <SCORE.SYSTEM.DIHEDRAL>
4.07732

>  <SCORE.SYSTEM.POLAR>
-2.98399

>  <SCORE.SYSTEM.SOLV>
0.161775

>  <SCORE.SYSTEM.VDW>
-4.66456

>  <SCORE.SYSTEM.norm>
-1.52286

>  <SCORE.heavy>
13

>  <SCORE.norm>
-4.28532

$$$$
P79187767
 OpenBabel12072022113D
libRbt.so/2013.1/901 2013/11/27
 12 13  0  0  0  0  0  0  0  0999 V2000
    6.2856   18.3541    2.9960 C   0  0  0  0  0  0  0  0  0  0  0  0
    6.5534   16.8676    3.1672 C   0  0  0  0  0  0  0  0  0  0  0  0
    5.4594   16.3640    4.0094 N   0  0  1  0  0  0  0  0  0  0  0  0
    5.2232   17.4429    4.9852 C   0  0  0  0  0  0  0  0  0  0  0  0
    5.5605   18.7631    4.2749 C   0  0  1  0  0  0  0  0  0  0  0  0
    6.4398   19.6144    5.1226 N   0  0  0  0  0  0  0  0  0  0  0  0
    7.6159   19.1986    5.6058 C   0  0  0  0  0  0  0  0  0  0  0  0
    8.6257   18.8350    6.0356 N   0  0  0  0  0  0  0  0  0  0  0  0
    4.2501   16.0346    3.2312 C   0  0  0  0  0  0  0  0  0  0  0  0
    3.5766   14.7092    3.4623 C   0  0  0  0  0  0  0  0  0  0  0  0
    2.9284   15.9719    3.9476 C   0  0  0  0  0  0  0  0  0  0  0  0
    5.9367   20.3590    5.6172 H   0  0  0  0  0  0  0  0  0  0  0  0
  1  2  1  0  0  0  0
  1  5  1  0  0  0  0
  2  3  1  0  0  0  0
  3  4  1  0  0  0  0
  3  9  1  6  0  0  0
  4  5  1  0  0  0  0
  5  6  1  1  0  0  0
  6  7  1  0  0  0  0
  6 12  1  0  0  0  0
  7  8  3  0  0  0  0
  9 10  1  0  0  0  0
  9 11  1  0  0  0  0
 10 11  1  0  0  0  0
M  END
>  <CHROM.0>
-55.55379670,-62.80140940,-66.37452252,-48.26632895,-55.27047952,-64.37677187
-68.80824554,-54.83244333,-168.16690154

>  <CHROM.1>
131.67574538,-60.20045451,5.66935668,17.46548658,4.25547886,-0.79082557,-0.23512013
-2.44720906

>  <Name>
P79187767

>  <RI>
3.1908e+07

>  <Rbt.Current_Directory>
/home/fstefaniak/projects/zuza/docking/adenine/4XNR

>  <Rbt.Executable>
rbdock ($Id: //depot/dev/client3/rdock/2013.1/src/exe/rbdock.cxx#4 $)

>  <Rbt.Library>
libRbt.so (2013.1, Build901 2013/11/27)

>  <Rbt.Parameter_File>
/home/fstefaniak/progs/rDock//data/scripts/dock_solv.prm

>  <Rbt.Receptor>
4xnr.prm

>  <SCORE>
-38.1923

>  <SCORE.INTER>
-18.8571

>  <SCORE.INTER.CONST>
1

>  <SCORE.INTER.POLAR>
-1.1207

>  <SCORE.INTER.ROT>
2

>  <SCORE.INTER.SOLV>
11.8423

>  <SCORE.INTER.VDW>
-17.7165

>  <SCORE.INTER.norm>
-1.71428

>  <SCORE.INTRA>
1.51357

>  <SCORE.INTRA.DIHEDRAL>
-0.265739

>  <SCORE.INTRA.DIHEDRAL.0>
2.00371

>  <SCORE.INTRA.POLAR>
0

>  <SCORE.INTRA.POLAR.0>
0

>  <SCORE.INTRA.REPUL>
0

>  <SCORE.INTRA.REPUL.0>
0

>  <SCORE.INTRA.SOLV>
0.323234

>  <SCORE.INTRA.SOLV.lig_0>
-11.968

>  <SCORE.INTRA.VDW>
1.48483

>  <SCORE.INTRA.VDW.0>
-0.667082

>  <SCORE.INTRA.norm>
0.137598

>  <SCORE.RESTR>
0

>  <SCORE.RESTR.CAVITY>
0

>  <SCORE.RESTR.norm>
0

>  <SCORE.SYSTEM>
-20.8488

>  <SCORE.SYSTEM.CONST>
0

>  <SCORE.SYSTEM.DIHEDRAL>
4.36308

>  <SCORE.SYSTEM.POLAR>
-3.00896

>  <SCORE.SYSTEM.SOLV>
0.28807

>  <SCORE.SYSTEM.VDW>
-5.41972

>  <SCORE.SYSTEM.norm>
-1.89535

>  <SCORE.heavy>
11

>  <SCORE.norm>
-3.47203

$$$$
P79187767
 OpenBabel12072022113D
libRbt.so/2013.1/901 2013/11/27
 12 13  0  0  0  0  0  0  0  0999 V2000
    6.2480   18.3549    2.9941 C   0  0  0  0  0  0  0  0  0  0  0  0
    6.5322   16.8692    3.1443 C   0  0  0  0  0  0  0  0  0  0  0  0
    5.4590   16.3469    4.0018 N   0  0  1  0  0  0  0  0  0  0  0  0
    5.2318   17.4134    4.9932 C   0  0  0  0  0  0  0  0  0  0  0  0
    5.5438   18.7439    4.2908 C   0  0  1  0  0  0  0  0  0  0  0  0
    6.4314   19.5943    5.1305 N   0  0  0  0  0  0  0  0  0  0  0  0
    7.6111   19.1771    5.6037 C   0  0  0  0  0  0  0  0  0  0  0  0
    8.6242   18.8123    6.0248 N   0  0  0  0  0  0  0  0  0  0  0  0
    4.2380   16.0147    3.2432 C   0  0  0  0  0  0  0  0  0  0  0  0
    3.5692   14.6895    3.4881 C   0  0  0  0  0  0  0  0  0  0  0  0
    2.9276   15.9529    3.9801 C   0  0  0  0  0  0  0  0  0  0  0  0
    5.9337   20.3397    5.6293 H   0  0  0  0  0  0  0  0  0  0  0  0
  1  2  1  0  0  0  0
  1  5  1  0  0  0  0
  2  3  1  0  0  0  0
  3  4  1  0  0  0  0
  3  9  1  6  0  0  0
  4  5  1  0  0  0  0
  5  6  1  1  0  0  0
  6  7  1  0  0  0  0
  6 12  1  0  0  0  0
  7  8  3  0  0  0  0
  9 10  1  0  0  0  0
  9 11  1  0  0  0  0
 10 11  1  0  0  0  0
M  END
>  <CHROM.0>
-59.17215030,-60.49934141,-64.63173588,-47.91988766,-56.12827261,-61.69115885
-66.14961880,-63.32615963,-167.28098614

>  <CHROM.1>
132.58487743,-61.24079273,5.66009945,17.44862604,4.26067894,-0.78270387,-0.26349537
-2.42218997

>  <Name>
P79187767

>  <RI>
3.1908e+07

>  <Rbt.Current_Directory>
/home/fstefaniak/projects/zuza/docking/adenine/4XNR

>  <Rbt.Executable>
rbdock ($Id: //depot/dev/client3/rdock/2013.1/src/exe/rbdock.cxx#4 $)

>  <Rbt.Library>
libRbt.so (2013.1, Build901 2013/11/27)

>  <Rbt.Parameter_File>
/home/fstefaniak/progs/rDock//data/scripts/dock_solv.prm

>  <Rbt.Receptor>
4xnr.prm

>  <SCORE>
-38.1858

>  <SCORE.INTER>
-18.9851

>  <SCORE.INTER.CONST>
1

>  <SCORE.INTER.POLAR>
-1.12957

>  <SCORE.INTER.ROT>
2

>  <SCORE.INTER.SOLV>
11.8131

>  <SCORE.INTER.VDW>
-17.7625

>  <SCORE.INTER.norm>
-1.72592

>  <SCORE.INTRA>
1.58926

>  <SCORE.INTRA.DIHEDRAL>
-0.226422

>  <SCORE.INTRA.DIHEDRAL.0>
2.00371

>  <SCORE.INTRA.POLAR>
0

>  <SCORE.INTRA.POLAR.0>
0

>  <SCORE.INTRA.REPUL>
0

>  <SCORE.INTRA.REPUL.0>
0

>  <SCORE.INTRA.SOLV>
0.322919

>  <SCORE.INTRA.SOLV.lig_0>
-11.968

>  <SCORE.INTRA.VDW>
1.54101

>  <SCORE.INTRA.VDW.0>
-0.667082

>  <SCORE.INTRA.norm>
0.144478

>  <SCORE.RESTR>
0

>  <SCORE.RESTR.CAVITY>
0

>  <SCORE.RESTR.norm>
0

>  <SCORE.SYSTEM>
-20.79

>  <SCORE.SYSTEM.CONST>
0

>  <SCORE.SYSTEM.DIHEDRAL>
3.92767

>  <SCORE.SYSTEM.POLAR>
-2.97211

>  <SCORE.SYSTEM.SOLV>
0.287433

>  <SCORE.SYSTEM.VDW>
-5.35799

>  <SCORE.SYSTEM.norm>
-1.89

>  <SCORE.heavy>
11

>  <SCORE.norm>
-3.47144

$$$$
P79187767
 OpenBabel12072022113D
libRbt.so/2013.1/901 2013/11/27
 12 13  0  0  0  0  0  0  0  0999 V2000
    6.0723   17.9511    2.6553 C   0  0  0  0  0  0  0  0  0  0  0  0
    6.4351   16.5233    3.0304 C   0  0  0  0  0  0  0  0  0  0  0  0
    5.3901   16.0834    3.9654 N   0  0  1  0  0  0  0  0  0  0  0  0
    5.1051   17.2764    4.7825 C   0  0  0  0  0  0  0  0  0  0  0  0
    5.3467   18.4974    3.8815 C   0  0  1  0  0  0  0  0  0  0  0  0
    6.1867   19.5127    4.5742 N   0  0  0  0  0  0  0  0  0  0  0  0
    7.2580   19.1972    5.3107 C   0  0  0  0  0  0  0  0  0  0  0  0
    8.1755   18.9242    5.9590 N   0  0  0  0  0  0  0  0  0  0  0  0
    4.1896   15.5743    3.2755 C   0  0  0  0  0  0  0  0  0  0  0  0
    3.6030   14.2599    3.7137 C   0  0  0  0  0  0  0  0  0  0  0  0
    2.8872   15.5401    4.0283 C   0  0  0  0  0  0  0  0  0  0  0  0
    5.6922   20.3898    4.7701 H   0  0  0  0  0  0  0  0  0  0  0  0
  1  2  1  0  0  0  0
  1  5  1  0  0  0  0
  2  3  1  0  0  0  0
  3  4  1  0  0  0  0
  3  9  1  6  0  0  0
  4  5  1  0  0  0  0
  5  6  1  1  0  0  0
  6  7  1  0  0  0  0
  6 12  1  0  0  0  0
  7  8  3  0  0  0  0
  9 10  1  0  0  0  0
  9 11  1  0  0  0  0
 10 11  1  0  0  0  0
M  END
>  <CHROM.0>
-56.48324474,-59.94579971,-66.36600223,-44.88497213,-58.00587487,-61.59933153
-67.68860898,-59.00289257,-167.99718871

>  <CHROM.1>
131.76540416,-74.14367228,5.50104154,17.20941466,4.10207679,-0.56740928,-0.73181985
-1.99450820

>  <Name>
P79187767

>  <RI>
3.1908e+07

>  <Rbt.Current_Directory>
/home/fstefaniak/projects/zuza/docking/adenine/4XNR

>  <Rbt.Executable>
rbdock ($Id: //depot/dev/client3/rdock/2013.1/src/exe/rbdock.cxx#4 $)

>  <Rbt.Library>
libRbt.so (2013.1, Build901 2013/11/27)

>  <Rbt.Parameter_File>
/home/fstefaniak/progs/rDock//data/scripts/dock_solv.prm

>  <Rbt.Receptor>
4xnr.prm

>  <SCORE>
-38.091

>  <SCORE.INTER>
-19.1034

>  <SCORE.INTER.CONST>
1

>  <SCORE.INTER.POLAR>
-1.45437

>  <SCORE.INTER.ROT>
2

>  <SCORE.INTER.SOLV>
11.9235

>  <SCORE.INTER.VDW>
-16.7955

>  <SCORE.INTER.norm>
-1.73667

>  <SCORE.INTRA>
1.86477

>  <SCORE.INTRA.DIHEDRAL>
0.21459

>  <SCORE.INTRA.DIHEDRAL.0>
2.00371

>  <SCORE.INTRA.POLAR>
0

>  <SCORE.INTRA.POLAR.0>
0

>  <SCORE.INTRA.REPUL>
0

>  <SCORE.INTRA.REPUL.0>
0

>  <SCORE.INTRA.SOLV>
0.309153

>  <SCORE.INTRA.SOLV.lig_0>
-11.968

>  <SCORE.INTRA.VDW>
1.6029

>  <SCORE.INTRA.VDW.0>
-0.667082

>  <SCORE.INTRA.norm>
0.169525

>  <SCORE.RESTR>
0

>  <SCORE.RESTR.CAVITY>
0

>  <SCORE.RESTR.norm>
0

>  <SCORE.SYSTEM>
-20.8524

>  <SCORE.SYSTEM.CONST>
0

>  <SCORE.SYSTEM.DIHEDRAL>
4.35367

>  <SCORE.SYSTEM.POLAR>
-3.03849

>  <SCORE.SYSTEM.SOLV>
0.296292

>  <SCORE.SYSTEM.VDW>
-5.32324

>  <SCORE.SYSTEM.norm>
-1.89567

>  <SCORE.heavy>
11

>  <SCORE.norm>
-3.46281

$$$$
P79647323
 OpenBabel12072022113D
libRbt.so/2013.1/901 2013/11/27
 19 19  0  0  0  0  0  0  0  0999 V2000
    3.2795   10.8920    4.2423 C   0  0  0  0  0  0  0  0  0  0  0  0
    2.2910   11.8061    4.9718 C   0  0  1  0  0  0  0  0  0  0  0  0
    3.0089   12.7830    5.9097 C   0  0  0  0  0  0  0  0  0  0  0  0
    3.7341   13.9081    5.1674 C   0  0  0  0  0  0  0  0  0  0  0  0
    2.8222   14.6756    4.1766 C   0  0  2  0  0  0  0  0  0  0  0  0
    2.1171   13.6729    3.2337 C   0  0  0  0  0  0  0  0  0  0  0  0
    1.3865   12.5631    3.9924 C   0  0  0  0  0  0  0  0  0  0  0  0
    3.7255   15.6479    3.3630 C   0  0  0  0  0  0  0  0  0  0  0  0
    5.0663   15.1607    3.2664 O   0  0  0  0  0  0  0  0  0  0  0  0
    1.7916   15.4396    4.9851 N   0  0  0  0  0  0  0  0  0  0  0  0
    0.8542   16.2981    4.5544 C   0  0  0  0  0  0  0  0  0  0  0  0
   -0.0535   16.7537    5.4281 N   0  3  0  0  0  0  0  0  0  0  0  0
   -0.7741   17.4013    5.1356 H   0  0  0  0  0  0  0  0  0  0  0  0
   -0.0679   16.4586    6.3949 H   0  0  0  0  0  0  0  0  0  0  0  0
    0.7755   16.7212    3.3010 N   0  0  0  0  0  0  0  0  0  0  0  0
    5.0134   14.3318    2.7458 H   0  0  0  0  0  0  0  0  0  0  0  0
    1.7794   15.2514    5.9782 H   0  0  0  0  0  0  0  0  0  0  0  0
    1.5530   16.5161    2.6654 H   0  0  0  0  0  0  0  0  0  0  0  0
    0.0608   17.3477    2.9656 H   0  0  0  0  0  0  0  0  0  0  0  0
  2  1  1  6  0  0  0
  2  3  1  0  0  0  0
  2  7  1  0  0  0  0
  3  4  1  0  0  0  0
  4  5  1  0  0  0  0
  5  6  1  0  0  0  0
  5  8  1  6  0  0  0
  5 10  1  0  0  0  0
  6  7  1  0  0  0  0
  8  9  1  0  0  0  0
  9 16  1  0  0  0  0
 10 11  1  0  0  0  0
 10 17  1  0  0  0  0
 11 12  2  0  0  0  0
 11 15  1  0  0  0  0
 12 13  1  0  0  0  0
 12 14  1  0  0  0  0
 15 18  1  0  0  0  0
 15 19  1  0  0  0  0
M  CHG  1  12   1
M  END
>  <CHROM.0>
-53.41790403,-174.60899191,-72.22332575,-48.06418986,-176.60346193,-62.27747189
-174.69113827,-61.27885471,-167.87976457

>  <CHROM.1>
27.32542864,175.64724379,64.72373388,2.37907069,14.37186446,4.33615696,1.06133569
-0.36129293,2.91180705

>  <Name>
P79647323

>  <RI>
3.58524e+07

>  <Rbt.Current_Directory>
/home/fstefaniak/projects/zuza/docking/adenine/4XNR

>  <Rbt.Executable>
rbdock ($Id: //depot/dev/client3/rdock/2013.1/src/exe/rbdock.cxx#4 $)

>  <Rbt.Library>
libRbt.so (2013.1, Build901 2013/11/27)

>  <Rbt.Parameter_File>
/home/fstefaniak/progs/rDock//data/scripts/dock_solv.prm

>  <Rbt.Receptor>
4xnr.prm

>  <SCORE>
-41.2838

>  <SCORE.INTER>
-25.9548

>  <SCORE.INTER.CONST>
1

>  <SCORE.INTER.POLAR>
-5.51498

>  <SCORE.INTER.ROT>
2

>  <SCORE.INTER.SOLV>
23.783

>  <SCORE.INTER.VDW>
-11.7809

>  <SCORE.INTER.norm>
-1.99652

>  <SCORE.INTRA>
4.2891

>  <SCORE.INTRA.DIHEDRAL>
2.18627

>  <SCORE.INTRA.DIHEDRAL.0>
3.32055

>  <SCORE.INTRA.POLAR>
0.912838

>  <SCORE.INTRA.POLAR.0>
-0.912838

>  <SCORE.INTRA.REPUL>
0

>  <SCORE.INTRA.REPUL.0>
0

>  <SCORE.INTRA.SOLV>
-2.03395

>  <SCORE.INTRA.SOLV.lig_0>
-26.9594

>  <SCORE.INTRA.VDW>
1.10929

>  <SCORE.INTRA.VDW.0>
-0.215855

>  <SCORE.INTRA.norm>
0.329931

>  <SCORE.RESTR>
0.511704

>  <SCORE.RESTR.CAVITY>
0.511704

>  <SCORE.RESTR.norm>
0.0393618

>  <SCORE.SYSTEM>
-20.1298

>  <SCORE.SYSTEM.CONST>
0

>  <SCORE.SYSTEM.DIHEDRAL>
4.65151

>  <SCORE.SYSTEM.POLAR>
-2.99499

>  <SCORE.SYSTEM.SOLV>
0.0372621

>  <SCORE.SYSTEM.VDW>
-4.99948

>  <SCORE.SYSTEM.norm>
-1.54844

>  <SCORE.heavy>
13

>  <SCORE.norm>
-3.17567

$$$$
P79647323
 OpenBabel12072022113D
libRbt.so/2013.1/901 2013/11/27
 19 19  0  0  0  0  0  0  0  0999 V2000
    3.2758   10.8993    4.2432 C   0  0  0  0  0  0  0  0  0  0  0  0
    2.2852   11.8113    4.9725 C   0  0  1  0  0  0  0  0  0  0  0  0
    3.0010   12.7914    5.9086 C   0  0  0  0  0  0  0  0  0  0  0  0
    3.7221   13.9178    5.1644 C   0  0  0  0  0  0  0  0  0  0  0  0
    2.8070   14.6814    4.1735 C   0  0  2  0  0  0  0  0  0  0  0  0
    2.1042   13.6755    3.2323 C   0  0  0  0  0  0  0  0  0  0  0  0
    1.3776   12.5644    3.9929 C   0  0  0  0  0  0  0  0  0  0  0  0
    3.7067   15.6555    3.3580 C   0  0  0  0  0  0  0  0  0  0  0  0
    5.0463   15.1668    3.2514 O   0  0  0  0  0  0  0  0  0  0  0  0
    1.7749   15.4433    4.9819 N   0  0  0  0  0  0  0  0  0  0  0  0
    0.8414   16.3065    4.5522 C   0  0  0  0  0  0  0  0  0  0  0  0
   -0.0689   16.7593    5.4247 N   0  3  0  0  0  0  0  0  0  0  0  0
   -0.7867   17.4103    5.1329 H   0  0  0  0  0  0  0  0  0  0  0  0
   -0.0881   16.4587    6.3897 H   0  0  0  0  0  0  0  0  0  0  0  0
    0.7690   16.7370    3.3009 N   0  0  0  0  0  0  0  0  0  0  0  0
    4.9898   14.3433    2.7226 H   0  0  0  0  0  0  0  0  0  0  0  0
    1.7580   15.2494    5.9739 H   0  0  0  0  0  0  0  0  0  0  0  0
    1.5488   16.5337    2.6675 H   0  0  0  0  0  0  0  0  0  0  0  0
    0.0573   17.3672    2.9662 H   0  0  0  0  0  0  0  0  0  0  0  0
  2  1  1  6  0  0  0
  2  3  1  0  0  0  0
  2  7  1  0  0  0  0
  3  4  1  0  0  0  0
  4  5  1  0  0  0  0
  5  6  1  0  0  0  0
  5  8  1  6  0  0  0
  5 10  1  0  0  0  0
  6  7  1  0  0  0  0
  8  9  1  0  0  0  0
  9 16  1  0  0  0  0
 10 11  1  0  0  0  0
 10 17  1  0  0  0  0
 11 12  2  0  0  0  0
 11 15  1  0  0  0  0
 12 13  1  0  0  0  0
 12 14  1  0  0  0  0
 15 18  1  0  0  0  0
 15 19  1  0  0  0  0
M  CHG  1  12   1
M  END
>  <CHROM.0>
-56.63008973,-172.26781283,-60.02212880,-48.06435980,60.12071529,-62.98853105
-73.34606278,-174.48401085,-168.89393338

>  <CHROM.1>
27.80726648,175.06452795,65.11605136,2.36691700,14.37869869,4.33320914,1.06061946
-0.36593042,2.90854620

>  <Name>
P79647323

>  <RI>
3.58524e+07

>  <Rbt.Current_Directory>
/home/fstefaniak/projects/zuza/docking/adenine/4XNR

>  <Rbt.Executable>
rbdock ($Id: //depot/dev/client3/rdock/2013.1/src/exe/rbdock.cxx#4 $)

>  <Rbt.Library>
libRbt.so (2013.1, Build901 2013/11/27)

>  <Rbt.Parameter_File>
/home/fstefaniak/progs/rDock//data/scripts/dock_solv.prm

>  <Rbt.Receptor>
4xnr.prm

>  <SCORE>
-40.6666

>  <SCORE.INTER>
-26.0057

>  <SCORE.INTER.CONST>
1

>  <SCORE.INTER.POLAR>
-5.52176

>  <SCORE.INTER.ROT>
2

>  <SCORE.INTER.SOLV>
23.7921

>  <SCORE.INTER.VDW>
-11.7953

>  <SCORE.INTER.norm>
-2.00044

>  <SCORE.INTRA>
4.29537

>  <SCORE.INTRA.DIHEDRAL>
2.14763

>  <SCORE.INTRA.DIHEDRAL.0>
3.32055

>  <SCORE.INTRA.POLAR>
0.912838

>  <SCORE.INTRA.POLAR.0>
-0.912838

>  <SCORE.INTRA.REPUL>
0

>  <SCORE.INTRA.REPUL.0>
0

>  <SCORE.INTRA.SOLV>
-2.02929

>  <SCORE.INTRA.SOLV.lig_0>
-26.9594

>  <SCORE.INTRA.VDW>
1.13255

>  <SCORE.INTRA.VDW.0>
-0.215855

>  <SCORE.INTRA.norm>
0.330413

>  <SCORE.RESTR>
0.507917

>  <SCORE.RESTR.CAVITY>
0.507917

>  <SCORE.RESTR.norm>
0.0390706

>  <SCORE.SYSTEM>
-19.4641

>  <SCORE.SYSTEM.CONST>
0

>  <SCORE.SYSTEM.DIHEDRAL>
4.64171

>  <SCORE.SYSTEM.POLAR>
-2.96768

>  <SCORE.SYSTEM.SOLV>
-0.090921

>  <SCORE.SYSTEM.VDW>
-4.60078

>  <SCORE.SYSTEM.norm>
-1.49724

>  <SCORE.heavy>
13

>  <SCORE.norm>
-3.1282

$$$$
P79647323
 OpenBabel12072022113D
libRbt.so/2013.1/901 2013/11/27
 19 19  0  0  0  0  0  0  0  0999 V2000
    3.2268   10.7903    4.2897 C   0  0  0  0  0  0  0  0  0  0  0  0
    2.2688   11.7333    5.0232 C   0  0  1  0  0  0  0  0  0  0  0  0
    3.0230   12.7273    5.9132 C   0  0  0  0  0  0  0  0  0  0  0  0
    3.7364   13.8251    5.1203 C   0  0  0  0  0  0  0  0  0  0  0  0
    2.8028   14.5753    4.1364 C   0  0  2  0  0  0  0  0  0  0  0  0
    2.0610   13.5551    3.2417 C   0  0  0  0  0  0  0  0  0  0  0  0
    1.3428   12.4731    4.0507 C   0  0  0  0  0  0  0  0  0  0  0  0
    3.6907   15.5166    3.2711 C   0  0  0  0  0  0  0  0  0  0  0  0
    3.9682   16.7447    3.9489 O   0  0  0  0  0  0  0  0  0  0  0  0
    1.8037   15.3707    4.9541 N   0  0  0  0  0  0  0  0  0  0  0  0
    0.8800   16.2473    4.5303 C   0  0  0  0  0  0  0  0  0  0  0  0
   -0.0025   16.7321    5.4140 N   0  3  0  0  0  0  0  0  0  0  0  0
   -0.7122   17.3940    5.1271 H   0  0  0  0  0  0  0  0  0  0  0  0
   -0.0084   16.4460    6.3836 H   0  0  0  0  0  0  0  0  0  0  0  0
    0.7913   16.6611    3.2745 N   0  0  0  0  0  0  0  0  0  0  0  0
    4.0957   16.5077    4.8915 H   0  0  0  0  0  0  0  0  0  0  0  0
    1.8030   15.1916    5.9489 H   0  0  0  0  0  0  0  0  0  0  0  0
    1.5534   16.4320    2.6286 H   0  0  0  0  0  0  0  0  0  0  0  0
    0.0863   17.3015    2.9447 H   0  0  0  0  0  0  0  0  0  0  0  0
  2  1  1  6  0  0  0
  2  3  1  0  0  0  0
  2  7  1  0  0  0  0
  3  4  1  0  0  0  0
  4  5  1  0  0  0  0
  5  6  1  0  0  0  0
  5  8  1  6  0  0  0
  5 10  1  0  0  0  0
  6  7  1  0  0  0  0
  8  9  1  0  0  0  0
  9 16  1  0  0  0  0
 10 11  1  0  0  0  0
 10 17  1  0  0  0  0
 11 12  2  0  0  0  0
 11 15  1  0  0  0  0
 12 13  1  0  0  0  0
 12 14  1  0  0  0  0
 15 18  1  0  0  0  0
 15 19  1  0  0  0  0
M  CHG  1  12   1
M  END
>  <CHROM.0>
-57.51964271,-67.70226322,-175.49836740,-46.53320944,-57.13836912,61.67389294
176.84865956,-62.98332457,-168.46570657

>  <CHROM.1>
-82.69471993,174.14737191,37.83771520,2.27234251,14.44823917,4.39849747,1.28080849
-0.21457411,2.99189879

>  <Name>
P79647323

>  <RI>
3.58524e+07

>  <Rbt.Current_Directory>
/home/fstefaniak/projects/zuza/docking/adenine/4XNR

>  <Rbt.Executable>
rbdock ($Id: //depot/dev/client3/rdock/2013.1/src/exe/rbdock.cxx#4 $)

>  <Rbt.Library>
libRbt.so (2013.1, Build901 2013/11/27)

>  <Rbt.Parameter_File>
/home/fstefaniak/progs/rDock//data/scripts/dock_solv.prm

>  <Rbt.Receptor>
4xnr.prm

>  <SCORE>
-40.2375

>  <SCORE.INTER>
-27.1241

>  <SCORE.INTER.CONST>
1

>  <SCORE.INTER.POLAR>
-5.70284

>  <SCORE.INTER.ROT>
2

>  <SCORE.INTER.SOLV>
21.8501

>  <SCORE.INTER.VDW>
-11.29

>  <SCORE.INTER.norm>
-2.08647

>  <SCORE.INTRA>
4.02954

>  <SCORE.INTRA.DIHEDRAL>
2.95901

>  <SCORE.INTRA.DIHEDRAL.0>
3.32055

>  <SCORE.INTRA.POLAR>
0.912838

>  <SCORE.INTRA.POLAR.0>
-0.912838

>  <SCORE.INTRA.REPUL>
0

>  <SCORE.INTRA.REPUL.0>
0

>  <SCORE.INTRA.SOLV>
-0.859281

>  <SCORE.INTRA.SOLV.lig_0>
-26.9594

>  <SCORE.INTRA.VDW>
-0.123977

>  <SCORE.INTRA.VDW.0>
-0.215855

>  <SCORE.INTRA.norm>
0.309964

>  <SCORE.RESTR>
0.566812

>  <SCORE.RESTR.CAVITY>
0.566812

>  <SCORE.RESTR.norm>
0.0436009

>  <SCORE.SYSTEM>
-17.7097

>  <SCORE.SYSTEM.CONST>
0

>  <SCORE.SYSTEM.DIHEDRAL>
4.09807

>  <SCORE.SYSTEM.POLAR>
-2.5314

>  <SCORE.SYSTEM.SOLV>
0.057396

>  <SCORE.SYSTEM.VDW>
-4.75361

>  <SCORE.SYSTEM.norm>
-1.36228

>  <SCORE.heavy>
13

>  <SCORE.norm>
-3.09519

$$$$
P81831364
 OpenBabel12072022113D
libRbt.so/2013.1/901 2013/11/27
 11 11  0  0  0  0  0  0  0  0999 V2000
    6.4752   18.1910    2.3367 C   0  0  0  0  0  0  0  0  0  0  0  0
    6.5104   18.7594    3.7581 C   0  0  2  0  0  0  0  0  0  0  0  0
    7.9050   18.5015    4.4034 C   0  0  0  0  0  0  0  0  0  0  0  0
    8.0458   19.0818    5.7496 N   0  0  0  0  0  0  0  0  0  0  0  0
    6.9210   18.6692    6.6011 C   0  0  0  0  0  0  0  0  0  0  0  0
    5.5467   18.9542    5.9575 C   0  0  0  0  0  0  0  0  0  0  0  0
    5.3650   18.3464    4.6188 N   0  0  0  0  0  0  0  0  0  0  0  0
    5.1845   16.8805    4.7368 C   0  0  0  0  0  0  0  0  0  0  0  0
    4.8278   16.2163    3.4616 C   0  0  0  0  0  0  0  0  0  0  0  0
    4.5561   15.6681    2.4738 N   0  0  0  0  0  0  0  0  0  0  0  0
    8.0147   20.0985    5.6567 H   0  0  0  0  0  0  0  0  0  0  0  0
  2  3  1  0  0  0  0
  2  7  1  0  0  0  0
  2  1  1  6  0  0  0
  3  4  1  0  0  0  0
  4  5  1  0  0  0  0
  4 11  1  0  0  0  0
  5  6  1  0  0  0  0
  6  7  1  0  0  0  0
  7  8  1  0  0  0  0
  8  9  1  0  0  0  0
  9 10  3  0  0  0  0
M  END
>  <CHROM.0>
-58.68736472,-63.09967126,-65.26965824,-46.02477246,-58.65350211,-62.51981381
-69.65982090,-59.55339431,-167.85507205

>  <CHROM.1>
-64.76455742,6.16610765,17.96332086,4.42226019,-2.26494015,0.62767317,1.28449165

>  <Name>
P81831364

>  <RI>
3.1908e+07

>  <Rbt.Current_Directory>
/home/fstefaniak/projects/zuza/docking/adenine/4XNR

>  <Rbt.Executable>
rbdock ($Id: //depot/dev/client3/rdock/2013.1/src/exe/rbdock.cxx#4 $)

>  <Rbt.Library>
libRbt.so (2013.1, Build901 2013/11/27)

>  <Rbt.Parameter_File>
/home/fstefaniak/progs/rDock//data/scripts/dock_solv.prm

>  <Rbt.Receptor>
4xnr.prm

>  <SCORE>
-37.7467

>  <SCORE.INTER>
-18.1659

>  <SCORE.INTER.CONST>
1

>  <SCORE.INTER.POLAR>
-2.3439

>  <SCORE.INTER.ROT>
1

>  <SCORE.INTER.SOLV>
11.6588

>  <SCORE.INTER.VDW>
-12.4506

>  <SCORE.INTER.norm>
-1.81659

>  <SCORE.INTRA>
1.3323

>  <SCORE.INTRA.DIHEDRAL>
-0.91759

>  <SCORE.INTRA.DIHEDRAL.0>
0.978708

>  <SCORE.INTRA.POLAR>
0

>  <SCORE.INTRA.POLAR.0>
0

>  <SCORE.INTRA.REPUL>
0

>  <SCORE.INTRA.REPUL.0>
0

>  <SCORE.INTRA.SOLV>
0.116888

>  <SCORE.INTRA.SOLV.lig_0>
-11.4719

>  <SCORE.INTRA.VDW>
1.73265

>  <SCORE.INTRA.VDW.0>
-0.218411

>  <SCORE.INTRA.norm>
0.13323

>  <SCORE.RESTR>
0

>  <SCORE.RESTR.CAVITY>
0

>  <SCORE.RESTR.norm>
0

>  <SCORE.SYSTEM>
-20.9131

>  <SCORE.SYSTEM.CONST>
0

>  <SCORE.SYSTEM.DIHEDRAL>
4.31911

>  <SCORE.SYSTEM.POLAR>
-3.00127

>  <SCORE.SYSTEM.SOLV>
0.281359

>  <SCORE.SYSTEM.VDW>
-5.47137

>  <SCORE.SYSTEM.norm>
-2.09131

>  <SCORE.heavy>
10

>  <SCORE.norm>
-3.77467

$$$$
P81831364
 OpenBabel12072022113D
libRbt.so/2013.1/901 2013/11/27
 11 11  0  0  0  0  0  0  0  0999 V2000
    6.4737   18.2003    2.3470 C   0  0  0  0  0  0  0  0  0  0  0  0
    6.5131   18.7732    3.7665 C   0  0  2  0  0  0  0  0  0  0  0  0
    7.9087   18.5151    4.4094 C   0  0  0  0  0  0  0  0  0  0  0  0
    8.0536   19.0995    5.7534 N   0  0  0  0  0  0  0  0  0  0  0  0
    6.9301   18.6915    6.6088 C   0  0  0  0  0  0  0  0  0  0  0  0
    5.5547   18.9767    5.9675 C   0  0  0  0  0  0  0  0  0  0  0  0
    5.3690   18.3649    4.6311 N   0  0  0  0  0  0  0  0  0  0  0  0
    5.1863   16.8997    4.7543 C   0  0  0  0  0  0  0  0  0  0  0  0
    4.8406   16.2298    3.4790 C   0  0  0  0  0  0  0  0  0  0  0  0
    4.5773   15.6772    2.4914 N   0  0  0  0  0  0  0  0  0  0  0  0
    8.0239   20.1159    5.6573 H   0  0  0  0  0  0  0  0  0  0  0  0
  2  3  1  0  0  0  0
  2  7  1  0  0  0  0
  2  1  1  6  0  0  0
  3  4  1  0  0  0  0
  4  5  1  0  0  0  0
  4 11  1  0  0  0  0
  5  6  1  0  0  0  0
  6  7  1  0  0  0  0
  7  8  1  0  0  0  0
  8  9  1  0  0  0  0
  9 10  3  0  0  0  0
M  END
>  <CHROM.0>
-62.89368291,-65.32483037,-68.58199748,-49.00816649,-59.34887150,-64.25094708
-67.22135441,-61.06322836,-168.19596655

>  <CHROM.1>
-64.11276720,6.17294052,17.97928433,4.43321434,-2.26246763,0.62792532,1.28043889

>  <Name>
P81831364

>  <RI>
3.1908e+07

>  <Rbt.Current_Directory>
/home/fstefaniak/projects/zuza/docking/adenine/4XNR

>  <Rbt.Executable>
rbdock ($Id: //depot/dev/client3/rdock/2013.1/src/exe/rbdock.cxx#4 $)

>  <Rbt.Library>
libRbt.so (2013.1, Build901 2013/11/27)

>  <Rbt.Parameter_File>
/home/fstefaniak/progs/rDock//data/scripts/dock_solv.prm

>  <Rbt.Receptor>
4xnr.prm

>  <SCORE>
-37.7423

>  <SCORE.INTER>
-18.2008

>  <SCORE.INTER.CONST>
1

>  <SCORE.INTER.POLAR>
-2.37251

>  <SCORE.INTER.ROT>
1

>  <SCORE.INTER.SOLV>
11.6725

>  <SCORE.INTER.VDW>
-12.383

>  <SCORE.INTER.norm>
-1.82008

>  <SCORE.INTRA>
1.41464

>  <SCORE.INTRA.DIHEDRAL>
-0.929553

>  <SCORE.INTRA.DIHEDRAL.0>
0.978708

>  <SCORE.INTRA.POLAR>
0

>  <SCORE.INTRA.POLAR.0>
0

>  <SCORE.INTRA.REPUL>
0

>  <SCORE.INTRA.REPUL.0>
0

>  <SCORE.INTRA.SOLV>
0.120393

>  <SCORE.INTRA.SOLV.lig_0>
-11.4719

>  <SCORE.INTRA.VDW>
1.81922

>  <SCORE.INTRA.VDW.0>
-0.218411

>  <SCORE.INTRA.norm>
0.141464

>  <SCORE.RESTR>
0

>  <SCORE.RESTR.CAVITY>
0

>  <SCORE.RESTR.norm>
0

>  <SCORE.SYSTEM>
-20.9561

>  <SCORE.SYSTEM.CONST>
0

>  <SCORE.SYSTEM.DIHEDRAL>
4.14526

>  <SCORE.SYSTEM.POLAR>
-2.92361

>  <SCORE.SYSTEM.SOLV>
0.261433

>  <SCORE.SYSTEM.VDW>
-5.6943

>  <SCORE.SYSTEM.norm>
-2.09561

>  <SCORE.heavy>
10

>  <SCORE.norm>
-3.77423

$$$$
P81831364
 OpenBabel12072022113D
libRbt.so/2013.1/901 2013/11/27
 11 11  0  0  0  0  0  0  0  0999 V2000
    6.4825   18.2051    2.3455 C   0  0  0  0  0  0  0  0  0  0  0  0
    6.5153   18.7727    3.7673 C   0  0  2  0  0  0  0  0  0  0  0  0
    7.9053   18.5054    4.4184 C   0  0  0  0  0  0  0  0  0  0  0  0
    8.0441   19.0842    5.7655 N   0  0  0  0  0  0  0  0  0  0  0  0
    6.9130   18.6787    6.6119 C   0  0  0  0  0  0  0  0  0  0  0  0
    5.5434   18.9729    5.9626 C   0  0  0  0  0  0  0  0  0  0  0  0
    5.3635   18.3669    4.6228 N   0  0  0  0  0  0  0  0  0  0  0  0
    5.1728   16.9021    4.7395 C   0  0  0  0  0  0  0  0  0  0  0  0
    4.8177   16.2407    3.4624 C   0  0  0  0  0  0  0  0  0  0  0  0
    4.5469   15.6946    2.4732 N   0  0  0  0  0  0  0  0  0  0  0  0
    8.0201   20.1011    5.6729 H   0  0  0  0  0  0  0  0  0  0  0  0
  2  3  1  0  0  0  0
  2  7  1  0  0  0  0
  2  1  1  6  0  0  0
  3  4  1  0  0  0  0
  4  5  1  0  0  0  0
  4 11  1  0  0  0  0
  5  6  1  0  0  0  0
  6  7  1  0  0  0  0
  7  8  1  0  0  0  0
  8  9  1  0  0  0  0
  9 10  3  0  0  0  0
M  END
>  <CHROM.0>
-58.11169998,-63.06316360,-66.86024780,-48.20156205,-60.97961327,-62.84042403
-70.98305011,-60.50181360,-168.40525139

>  <CHROM.1>
-64.74929765,6.16297887,17.97860158,4.42958710,-2.26199665,0.62021082,1.28319906

>  <Name>
P81831364

>  <RI>
3.1908e+07

>  <Rbt.Current_Directory>
/home/fstefaniak/projects/zuza/docking/adenine/4XNR

>  <Rbt.Executable>
rbdock ($Id: //depot/dev/client3/rdock/2013.1/src/exe/rbdock.cxx#4 $)

>  <Rbt.Library>
libRbt.so (2013.1, Build901 2013/11/27)

>  <Rbt.Parameter_File>
/home/fstefaniak/progs/rDock//data/scripts/dock_solv.prm

>  <Rbt.Receptor>
4xnr.prm

>  <SCORE>
-37.7161

>  <SCORE.INTER>
-18.1298

>  <SCORE.INTER.CONST>
1

>  <SCORE.INTER.POLAR>
-2.3489

>  <SCORE.INTER.ROT>
1

>  <SCORE.INTER.SOLV>
11.6577

>  <SCORE.INTER.VDW>
-12.4094

>  <SCORE.INTER.norm>
-1.81298

>  <SCORE.INTRA>
1.33457

>  <SCORE.INTRA.DIHEDRAL>
-0.917886

>  <SCORE.INTRA.DIHEDRAL.0>
0.978708

>  <SCORE.INTRA.POLAR>
0

>  <SCORE.INTRA.POLAR.0>
0

>  <SCORE.INTRA.REPUL>
0

>  <SCORE.INTRA.REPUL.0>
0

>  <SCORE.INTRA.SOLV>
0.116971

>  <SCORE.INTRA.SOLV.lig_0>
-11.4719

>  <SCORE.INTRA.VDW>
1.73503

>  <SCORE.INTRA.VDW.0>
-0.218411

>  <SCORE.INTRA.norm>
0.133457

>  <SCORE.RESTR>
0

>  <SCORE.RESTR.CAVITY>
0

>  <SCORE.RESTR.norm>
0

>  <SCORE.SYSTEM>
-20.9209

>  <SCORE.SYSTEM.CONST>
0

>  <SCORE.SYSTEM.DIHEDRAL>
4.23133

>  <SCORE.SYSTEM.POLAR>
-2.96173

>  <SCORE.SYSTEM.SOLV>
0.266801

>  <SCORE.SYSTEM.VDW>
-5.5742

>  <SCORE.SYSTEM.norm>
-2.09209

>  <SCORE.heavy>
10

>  <SCORE.norm>
-3.77161

$$$$
P81864887
 OpenBabel12072022113D
libRbt.so/2013.1/901 2013/11/27
 14 14  0  0  0  0  0  0  0  0999 V2000
    1.2867   16.3227    3.5676 C   0  0  0  0  0  0  0  0  0  0  0  0
    1.7611   15.2681    4.5632 C   0  0  0  0  0  0  0  0  0  0  0  0
    3.0756   14.5357    4.1815 C   0  0  0  0  0  0  0  0  0  0  0  0
    3.5922   13.7782    5.4231 C   0  0  0  0  0  0  0  0  0  0  0  0
    2.8209   13.4996    3.0696 C   0  0  0  0  0  0  0  0  0  0  0  0
    4.1188   15.5222    3.7392 C   0  0  0  0  0  0  0  0  0  0  0  0
    4.6423   15.7218    2.5464 N   0  0  0  0  0  0  0  0  0  0  0  0
    5.5334   16.7660    2.6779 N   0  0  0  0  0  0  0  0  0  0  0  0
    5.4947   17.1284    3.9432 C   0  0  0  0  0  0  0  0  0  0  0  0
    4.6210   16.3789    4.6851 O   0  0  0  0  0  0  0  0  0  0  0  0
    6.2461   18.2063    4.6397 C   0  0  0  0  0  0  0  0  0  0  0  0
    6.7566   19.2265    3.7164 N   0  0  0  0  0  0  0  0  0  0  0  0
    6.2495   20.0966    3.8825 H   0  0  0  0  0  0  0  0  0  0  0  0
    6.5371   18.9473    2.7622 H   0  0  0  0  0  0  0  0  0  0  0  0
  1  2  1  0  0  0  0
  2  3  1  0  0  0  0
  3  4  1  0  0  0  0
  3  5  1  0  0  0  0
  3  6  1  0  0  0  0
  6  7  2  0  0  0  0
  6 10  1  0  0  0  0
  7  8  1  0  0  0  0
  8  9  2  0  0  0  0
  9 10  1  0  0  0  0
  9 11  1  0  0  0  0
 11 12  1  0  0  0  0
 12 13  1  0  0  0  0
 12 14  1  0  0  0  0
M  END
>  <CHROM.0>
-55.17106927,177.07084324,-72.60990106,-45.07857750,-58.67050464,-176.09815725
-174.48079445,-57.48189036,-166.58442387

>  <CHROM.1>
166.22317356,-111.43730370,20.55829990,111.50951249,4.16292005,16.05879789
3.89889105,2.35425974,0.00375838,3.07178364

>  <Name>
P81864887

>  <RI>
3.4169e+07

>  <Rbt.Current_Directory>
/home/fstefaniak/projects/zuza/docking/adenine/4XNR

>  <Rbt.Executable>
rbdock ($Id: //depot/dev/client3/rdock/2013.1/src/exe/rbdock.cxx#4 $)

>  <Rbt.Library>
libRbt.so (2013.1, Build901 2013/11/27)

>  <Rbt.Parameter_File>
/home/fstefaniak/progs/rDock//data/scripts/dock_solv.prm

>  <Rbt.Receptor>
4xnr.prm

>  <SCORE>
-43.8239

>  <SCORE.INTER>
-25.3559

>  <SCORE.INTER.CONST>
1

>  <SCORE.INTER.POLAR>
-3.35868

>  <SCORE.INTER.ROT>
4

>  <SCORE.INTER.SOLV>
10.7453

>  <SCORE.INTER.VDW>
-15.5568

>  <SCORE.INTER.norm>
-2.11299

>  <SCORE.INTRA>
1.23963

>  <SCORE.INTRA.DIHEDRAL>
3.10163

>  <SCORE.INTRA.DIHEDRAL.0>
2.13972

>  <SCORE.INTRA.POLAR>
-0.0996918

>  <SCORE.INTRA.POLAR.0>
0

>  <SCORE.INTRA.REPUL>
0

>  <SCORE.INTRA.REPUL.0>
0

>  <SCORE.INTRA.SOLV>
0.0571674

>  <SCORE.INTRA.SOLV.lig_0>
-8.61313

>  <SCORE.INTRA.VDW>
-0.000813951

>  <SCORE.INTRA.VDW.0>
0.972323

>  <SCORE.INTRA.norm>
0.103303

>  <SCORE.RESTR>
0

>  <SCORE.RESTR.CAVITY>
0

>  <SCORE.RESTR.norm>
0

>  <SCORE.SYSTEM>
-19.7076

>  <SCORE.SYSTEM.CONST>
0

>  <SCORE.SYSTEM.DIHEDRAL>
5.0298

>  <SCORE.SYSTEM.POLAR>
-3.03195

>  <SCORE.SYSTEM.SOLV>
0.117929

>  <SCORE.SYSTEM.VDW>
-4.74781

>  <SCORE.SYSTEM.norm>
-1.6423

>  <SCORE.heavy>
12

>  <SCORE.norm>
-3.65199

$$$$
P81864887
 OpenBabel12072022113D
libRbt.so/2013.1/901 2013/11/27
 14 14  0  0  0  0  0  0  0  0999 V2000
    1.2152   16.2116    3.4987 C   0  0  0  0  0  0  0  0  0  0  0  0
    1.7206   15.2186    4.5413 C   0  0  0  0  0  0  0  0  0  0  0  0
    3.0457   14.4935    4.1828 C   0  0  0  0  0  0  0  0  0  0  0  0
    3.5533   13.7526    5.4381 C   0  0  0  0  0  0  0  0  0  0  0  0
    2.8131   13.4446    3.0783 C   0  0  0  0  0  0  0  0  0  0  0  0
    4.0860   15.4843    3.7435 C   0  0  0  0  0  0  0  0  0  0  0  0
    4.6660   15.6374    2.5702 N   0  0  0  0  0  0  0  0  0  0  0  0
    5.5231   16.7108    2.6923 N   0  0  0  0  0  0  0  0  0  0  0  0
    5.4096   17.1356    3.9335 C   0  0  0  0  0  0  0  0  0  0  0  0
    4.5170   16.4012    4.6679 O   0  0  0  0  0  0  0  0  0  0  0  0
    6.0969   18.2675    4.6103 C   0  0  0  0  0  0  0  0  0  0  0  0
    6.7443   19.1829    3.6633 N   0  0  0  0  0  0  0  0  0  0  0  0
    6.3503   20.1154    3.7933 H   0  0  0  0  0  0  0  0  0  0  0  0
    6.5026   18.9018    2.7151 H   0  0  0  0  0  0  0  0  0  0  0  0
  1  2  1  0  0  0  0
  2  3  1  0  0  0  0
  3  4  1  0  0  0  0
  3  5  1  0  0  0  0
  3  6  1  0  0  0  0
  6  7  2  0  0  0  0
  6 10  1  0  0  0  0
  7  8  1  0  0  0  0
  8  9  2  0  0  0  0
  9 10  1  0  0  0  0
  9 11  1  0  0  0  0
 11 12  1  0  0  0  0
 12 13  1  0  0  0  0
 12 14  1  0  0  0  0
M  END
>  <CHROM.0>
-56.31044006,176.09949057,60.39996991,-46.80496055,-60.15460546,-58.39009527
53.66571164,-56.96886152,-168.48912738

>  <CHROM.1>
168.99291933,-114.86924835,14.87099270,121.14781331,4.11685304,16.02435469
3.88664954,2.34772520,-0.05943258,3.12862985

>  <Name>
P81864887

>  <RI>
3.4169e+07

>  <Rbt.Current_Directory>
/home/fstefaniak/projects/zuza/docking/adenine/4XNR

>  <Rbt.Executable>
rbdock ($Id: //depot/dev/client3/rdock/2013.1/src/exe/rbdock.cxx#4 $)

>  <Rbt.Library>
libRbt.so (2013.1, Build901 2013/11/27)

>  <Rbt.Parameter_File>
/home/fstefaniak/progs/rDock//data/scripts/dock_solv.prm

>  <Rbt.Receptor>
4xnr.prm

>  <SCORE>
-42.4698

>  <SCORE.INTER>
-25.0447

>  <SCORE.INTER.CONST>
1

>  <SCORE.INTER.POLAR>
-3.18725

>  <SCORE.INTER.ROT>
4

>  <SCORE.INTER.SOLV>
10.6982

>  <SCORE.INTER.VDW>
-15.905

>  <SCORE.INTER.norm>
-2.08706

>  <SCORE.INTRA>
1.08851

>  <SCORE.INTRA.DIHEDRAL>
2.86664

>  <SCORE.INTRA.DIHEDRAL.0>
2.13972

>  <SCORE.INTRA.POLAR>
-0.0939434

>  <SCORE.INTRA.POLAR.0>
0

>  <SCORE.INTRA.REPUL>
0

>  <SCORE.INTRA.REPUL.0>
0

>  <SCORE.INTRA.SOLV>
0.0440331

>  <SCORE.INTRA.SOLV.lig_0>
-8.61313

>  <SCORE.INTRA.VDW>
-0.0474156

>  <SCORE.INTRA.VDW.0>
0.972323

>  <SCORE.INTRA.norm>
0.0907092

>  <SCORE.RESTR>
0

>  <SCORE.RESTR.CAVITY>
0

>  <SCORE.RESTR.norm>
0

>  <SCORE.SYSTEM>
-18.5136

>  <SCORE.SYSTEM.CONST>
0

>  <SCORE.SYSTEM.DIHEDRAL>
3.89717

>  <SCORE.SYSTEM.POLAR>
-2.99342

>  <SCORE.SYSTEM.SOLV>
0.189832

>  <SCORE.SYSTEM.VDW>
-3.72666

>  <SCORE.SYSTEM.norm>
-1.5428

>  <SCORE.heavy>
12

>  <SCORE.norm>
-3.53915

$$$$
P81864887
 OpenBabel12072022113D
libRbt.so/2013.1/901 2013/11/27
 14 14  0  0  0  0  0  0  0  0999 V2000
    1.0855   16.0224    3.4885 C   0  0  0  0  0  0  0  0  0  0  0  0
    1.5504   14.8953    4.4062 C   0  0  0  0  0  0  0  0  0  0  0  0
    2.9322   14.2797    4.0571 C   0  0  0  0  0  0  0  0  0  0  0  0
    3.4857   13.5753    5.3140 C   0  0  0  0  0  0  0  0  0  0  0  0
    2.7937   13.2210    2.9460 C   0  0  0  0  0  0  0  0  0  0  0  0
    3.8942   15.3522    3.6317 C   0  0  0  0  0  0  0  0  0  0  0  0
    4.3194   15.6779    2.4277 N   0  0  0  0  0  0  0  0  0  0  0  0
    5.1694   16.7519    2.5879 N   0  0  0  0  0  0  0  0  0  0  0  0
    5.2071   17.0044    3.8798 C   0  0  0  0  0  0  0  0  0  0  0  0
    4.4249   16.1514    4.6118 O   0  0  0  0  0  0  0  0  0  0  0  0
    5.9576   18.0574    4.6142 C   0  0  0  0  0  0  0  0  0  0  0  0
    5.6821   18.0464    6.0557 N   0  0  0  0  0  0  0  0  0  0  0  0
    6.4792   17.6258    6.5346 H   0  0  0  0  0  0  0  0  0  0  0  0
    4.8879   17.4351    6.2350 H   0  0  0  0  0  0  0  0  0  0  0  0
  1  2  1  0  0  0  0
  2  3  1  0  0  0  0
  3  4  1  0  0  0  0
  3  5  1  0  0  0  0
  3  6  1  0  0  0  0
  6  7  2  0  0  0  0
  6 10  1  0  0  0  0
  7  8  1  0  0  0  0
  8  9  2  0  0  0  0
  9 10  1  0  0  0  0
  9 11  1  0  0  0  0
 11 12  1  0  0  0  0
 12 13  1  0  0  0  0
 12 14  1  0  0  0  0
M  END
>  <CHROM.0>
-57.42949790,-59.99222658,59.83361842,-48.13403216,59.70522142,-57.23492952
53.07292570,-173.28248959,-168.19898314

>  <CHROM.1>
159.03787864,-103.66310109,177.28023552,104.01785328,3.87248273,15.75934259
4.04100865,-2.87636930,0.77666504,1.47123158

>  <Name>
P81864887

>  <RI>
3.4169e+07

>  <Rbt.Current_Directory>
/home/fstefaniak/projects/zuza/docking/adenine/4XNR

>  <Rbt.Executable>
rbdock ($Id: //depot/dev/client3/rdock/2013.1/src/exe/rbdock.cxx#4 $)

>  <Rbt.Library>
libRbt.so (2013.1, Build901 2013/11/27)

>  <Rbt.Parameter_File>
/home/fstefaniak/progs/rDock//data/scripts/dock_solv.prm

>  <Rbt.Receptor>
4xnr.prm

>  <SCORE>
-41.3415

>  <SCORE.INTER>
-24.8602

>  <SCORE.INTER.CONST>
1

>  <SCORE.INTER.POLAR>
-3.13942

>  <SCORE.INTER.ROT>
4

>  <SCORE.INTER.SOLV>
10.6082

>  <SCORE.INTER.VDW>
-15.9115

>  <SCORE.INTER.norm>
-2.07169

>  <SCORE.INTRA>
1.40079

>  <SCORE.INTRA.DIHEDRAL>
3.78309

>  <SCORE.INTRA.DIHEDRAL.0>
2.13972

>  <SCORE.INTRA.POLAR>
-0.270268

>  <SCORE.INTRA.POLAR.0>
0

>  <SCORE.INTRA.REPUL>
0

>  <SCORE.INTRA.REPUL.0>
0

>  <SCORE.INTRA.SOLV>
0.328558

>  <SCORE.INTRA.SOLV.lig_0>
-8.61313

>  <SCORE.INTRA.VDW>
0.263874

>  <SCORE.INTRA.VDW.0>
0.972323

>  <SCORE.INTRA.norm>
0.116732

>  <SCORE.RESTR>
0

>  <SCORE.RESTR.CAVITY>
0

>  <SCORE.RESTR.norm>
0

>  <SCORE.SYSTEM>
-17.8821

>  <SCORE.SYSTEM.CONST>
0

>  <SCORE.SYSTEM.DIHEDRAL>
3.8903

>  <SCORE.SYSTEM.POLAR>
-2.96464

>  <SCORE.SYSTEM.SOLV>
-0.144199

>  <SCORE.SYSTEM.VDW>
-3.28795

>  <SCORE.SYSTEM.norm>
-1.49017

>  <SCORE.heavy>
12

>  <SCORE.norm>
-3.44513

$$$$
P81941650
 OpenBabel12072022113D
libRbt.so/2013.1/901 2013/11/27
 14 14  0  0  0  0  0  0  0  0999 V2000
    6.4367   18.9892    6.7003 C   0  0  0  0  0  0  0  0  0  0  0  0
    5.6299   17.8990    6.0056 C   0  0  0  0  0  0  0  0  0  0  0  0
    5.1878   18.2886    4.5868 C   0  0  1  0  0  0  0  0  0  0  0  0
    6.3511   18.3868    3.6735 C   0  0  0  0  0  0  0  0  0  0  0  0
    7.2756   18.4267    2.9712 N   0  0  0  0  0  0  0  0  0  0  0  0
    4.2430   17.2937    4.0881 N   0  0  0  0  0  0  0  0  0  0  0  0
    4.5552   16.5104    3.0175 C   0  0  0  0  0  0  0  0  0  0  0  0
    5.0133   16.9483    1.9682 O   0  0  0  0  0  0  0  0  0  0  0  0
    4.3004   15.1779    3.1635 N   0  0  0  0  0  0  0  0  0  0  0  0
    3.8562   14.4898    4.3295 C   0  0  0  0  0  0  0  0  0  0  0  0
    2.3971   14.2283    4.5802 C   0  0  0  0  0  0  0  0  0  0  0  0
    3.3071   13.0936    4.2148 C   0  0  0  0  0  0  0  0  0  0  0  0
    3.5826   16.9064    4.7446 H   0  0  0  0  0  0  0  0  0  0  0  0
    4.5528   14.6340    2.3456 H   0  0  0  0  0  0  0  0  0  0  0  0
  1  2  1  0  0  0  0
  3  2  1  1  0  0  0
  3  4  1  0  0  0  0
  3  6  1  0  0  0  0
  4  5  3  0  0  0  0
  6  7  1  0  0  0  0
  6 13  1  0  0  0  0
  7  8  2  0  0  0  0
  7  9  1  0  0  0  0
  9 10  1  0  0  0  0
  9 14  1  0  0  0  0
 10 11  1  0  0  0  0
 10 12  1  0  0  0  0
 11 12  1  0  0  0  0
M  END
>  <CHROM.0>
-59.51977905,-59.59298344,-67.27465350,-48.84545020,-172.64860811,-58.59027209
-68.94656835,-58.34272298,-168.14723061

>  <CHROM.1>
67.88515767,-115.19989324,-48.35137170,93.94331799,4.87096002,16.63511191
4.10628284,0.32671008,0.94465391,1.35006454

>  <Name>
P81941650

>  <RI>
3.4169e+07

>  <Rbt.Current_Directory>
/home/fstefaniak/projects/zuza/docking/adenine/4XNR

>  <Rbt.Executable>
rbdock ($Id: //depot/dev/client3/rdock/2013.1/src/exe/rbdock.cxx#4 $)

>  <Rbt.Library>
libRbt.so (2013.1, Build901 2013/11/27)

>  <Rbt.Parameter_File>
/home/fstefaniak/progs/rDock//data/scripts/dock_solv.prm

>  <Rbt.Receptor>
4xnr.prm

>  <SCORE>
-52.4727

>  <SCORE.INTER>
-33.7889

>  <SCORE.INTER.CONST>
1

>  <SCORE.INTER.POLAR>
-3.99885

>  <SCORE.INTER.ROT>
4

>  <SCORE.INTER.SOLV>
12.676

>  <SCORE.INTER.VDW>
-19.6884

>  <SCORE.INTER.norm>
-2.81574

>  <SCORE.INTRA>
2.14412

>  <SCORE.INTRA.DIHEDRAL>
0.81682

>  <SCORE.INTRA.DIHEDRAL.0>
2.58334

>  <SCORE.INTRA.POLAR>
0

>  <SCORE.INTRA.POLAR.0>
0

>  <SCORE.INTRA.REPUL>
0

>  <SCORE.INTRA.REPUL.0>
0

>  <SCORE.INTRA.SOLV>
0.740286

>  <SCORE.INTRA.SOLV.lig_0>
-16.0609

>  <SCORE.INTRA.VDW>
1.36557

>  <SCORE.INTRA.VDW.0>
-0.714897

>  <SCORE.INTRA.norm>
0.178677

>  <SCORE.RESTR>
0

>  <SCORE.RESTR.CAVITY>
0

>  <SCORE.RESTR.norm>
0

>  <SCORE.SYSTEM>
-20.8279

>  <SCORE.SYSTEM.CONST>
0

>  <SCORE.SYSTEM.DIHEDRAL>
4.20043

>  <SCORE.SYSTEM.POLAR>
-2.94957

>  <SCORE.SYSTEM.SOLV>
0.109008

>  <SCORE.SYSTEM.VDW>
-5.48988

>  <SCORE.SYSTEM.norm>
-1.73566

>  <SCORE.heavy>
12

>  <SCORE.norm>
-4.37273

$$$$
P81941650
 OpenBabel12072022113D
libRbt.so/2013.1/901 2013/11/27
 14 14  0  0  0  0  0  0  0  0999 V2000
    6.2380   19.1641    6.6115 C   0  0  0  0  0  0  0  0  0  0  0  0
    5.6111   17.9340    5.9667 C   0  0  0  0  0  0  0  0  0  0  0  0
    5.1611   18.1769    4.5180 C   0  0  1  0  0  0  0  0  0  0  0  0
    6.3269   18.3376    3.6169 C   0  0  0  0  0  0  0  0  0  0  0  0
    7.2569   18.4292    2.9268 N   0  0  0  0  0  0  0  0  0  0  0  0
    4.3385   17.0547    4.0762 N   0  0  0  0  0  0  0  0  0  0  0  0
    4.8369   16.1191    3.2198 C   0  0  0  0  0  0  0  0  0  0  0  0
    5.5299   16.3924    2.2463 O   0  0  0  0  0  0  0  0  0  0  0  0
    4.4950   14.8260    3.4899 N   0  0  0  0  0  0  0  0  0  0  0  0
    3.7789   14.3220    4.6139 C   0  0  0  0  0  0  0  0  0  0  0  0
    2.2811   14.1931    4.5985 C   0  0  0  0  0  0  0  0  0  0  0  0
    3.1370   12.9626    4.5481 C   0  0  0  0  0  0  0  0  0  0  0  0
    3.6001   16.7465    4.6902 H   0  0  0  0  0  0  0  0  0  0  0  0
    4.8919   14.1650    2.8311 H   0  0  0  0  0  0  0  0  0  0  0  0
  1  2  1  0  0  0  0
  3  2  1  1  0  0  0
  3  4  1  0  0  0  0
  3  6  1  0  0  0  0
  4  5  3  0  0  0  0
  6  7  1  0  0  0  0
  6 13  1  0  0  0  0
  7  8  2  0  0  0  0
  7  9  1  0  0  0  0
  9 10  1  0  0  0  0
  9 14  1  0  0  0  0
 10 11  1  0  0  0  0
 10 12  1  0  0  0  0
 11 12  1  0  0  0  0
M  END
>  <CHROM.0>
-58.04580054,-63.60204503,-65.03219404,-45.91699449,-176.14370564,-61.80279576
-67.37987182,-173.49109674,-167.89742260

>  <CHROM.1>
69.90251038,-104.89400338,-41.94009615,90.51573591,4.91223478,16.48015570
4.20361424,0.49666643,0.90172710,1.05754016

>  <Name>
P81941650

>  <RI>
3.4169e+07

>  <Rbt.Current_Directory>
/home/fstefaniak/projects/zuza/docking/adenine/4XNR

>  <Rbt.Executable>
rbdock ($Id: //depot/dev/client3/rdock/2013.1/src/exe/rbdock.cxx#4 $)

>  <Rbt.Library>
libRbt.so (2013.1, Build901 2013/11/27)

>  <Rbt.Parameter_File>
/home/fstefaniak/progs/rDock//data/scripts/dock_solv.prm

>  <Rbt.Receptor>
4xnr.prm

>  <SCORE>
-52.2142

>  <SCORE.INTER>
-33.9643

>  <SCORE.INTER.CONST>
1

>  <SCORE.INTER.POLAR>
-3.87854

>  <SCORE.INTER.ROT>
4

>  <SCORE.INTER.SOLV>
12.9283

>  <SCORE.INTER.VDW>
-20.2905

>  <SCORE.INTER.norm>
-2.83036

>  <SCORE.INTRA>
2.60358

>  <SCORE.INTRA.DIHEDRAL>
0.536942

>  <SCORE.INTRA.DIHEDRAL.0>
2.58334

>  <SCORE.INTRA.POLAR>
0

>  <SCORE.INTRA.POLAR.0>
0

>  <SCORE.INTRA.REPUL>
0

>  <SCORE.INTRA.REPUL.0>
0

>  <SCORE.INTRA.SOLV>
0.78007

>  <SCORE.INTRA.SOLV.lig_0>
-16.0609

>  <SCORE.INTRA.VDW>
1.94507

>  <SCORE.INTRA.VDW.0>
-0.714897

>  <SCORE.INTRA.norm>
0.216965

>  <SCORE.RESTR>
0

>  <SCORE.RESTR.CAVITY>
0

>  <SCORE.RESTR.norm>
0

>  <SCORE.SYSTEM>
-20.8535

>  <SCORE.SYSTEM.CONST>
0

>  <SCORE.SYSTEM.DIHEDRAL>
4.40443

>  <SCORE.SYSTEM.POLAR>
-3.00614

>  <SCORE.SYSTEM.SOLV>
-0.0204521

>  <SCORE.SYSTEM.VDW>
-5.34319

>  <SCORE.SYSTEM.norm>
-1.73779

>  <SCORE.heavy>
12

>  <SCORE.norm>
-4.35118

$$$$
P81941650
 OpenBabel12072022113D
libRbt.so/2013.1/901 2013/11/27
 14 14  0  0  0  0  0  0  0  0999 V2000
    6.2438   19.1753    6.6643 C   0  0  0  0  0  0  0  0  0  0  0  0
    5.6178   17.9493    6.0109 C   0  0  0  0  0  0  0  0  0  0  0  0
    5.1758   18.1993    4.5610 C   0  0  1  0  0  0  0  0  0  0  0  0
    6.3466   18.3430    3.6635 C   0  0  0  0  0  0  0  0  0  0  0  0
    7.2801   18.4210    2.9763 N   0  0  0  0  0  0  0  0  0  0  0  0
    4.3380   17.0896    4.1162 N   0  0  0  0  0  0  0  0  0  0  0  0
    4.8072   16.1773    3.2192 C   0  0  0  0  0  0  0  0  0  0  0  0
    5.4866   16.4743    2.2430 O   0  0  0  0  0  0  0  0  0  0  0  0
    4.4513   14.8806    3.4511 N   0  0  0  0  0  0  0  0  0  0  0  0
    3.7482   14.3481    4.5702 C   0  0  0  0  0  0  0  0  0  0  0  0
    2.2488   14.2374    4.5764 C   0  0  0  0  0  0  0  0  0  0  0  0
    3.0886   12.9993    4.4708 C   0  0  0  0  0  0  0  0  0  0  0  0
    3.6196   16.7652    4.7455 H   0  0  0  0  0  0  0  0  0  0  0  0
    4.8265   14.2372    2.7627 H   0  0  0  0  0  0  0  0  0  0  0  0
  1  2  1  0  0  0  0
  3  2  1  1  0  0  0
  3  4  1  0  0  0  0
  3  6  1  0  0  0  0
  4  5  3  0  0  0  0
  6  7  1  0  0  0  0
  6 13  1  0  0  0  0
  7  8  2  0  0  0  0
  7  9  1  0  0  0  0
  9 10  1  0  0  0  0
  9 14  1  0  0  0  0
 10 11  1  0  0  0  0
 10 12  1  0  0  0  0
 11 12  1  0  0  0  0
M  END
>  <CHROM.0>
-58.92624976,-65.05086163,-69.00869369,-46.44782277,-175.28993468,-63.65233640
-66.68640376,-60.54050865,-167.39857868

>  <CHROM.1>
70.67796124,-107.56521076,-40.72519348,90.68939769,4.89840112,16.51278228
4.21083170,0.49831631,0.89035948,1.07741490

>  <Name>
P81941650

>  <RI>
3.4169e+07

>  <Rbt.Current_Directory>
/home/fstefaniak/projects/zuza/docking/adenine/4XNR

>  <Rbt.Executable>
rbdock ($Id: //depot/dev/client3/rdock/2013.1/src/exe/rbdock.cxx#4 $)

>  <Rbt.Library>
libRbt.so (2013.1, Build901 2013/11/27)

>  <Rbt.Parameter_File>
/home/fstefaniak/progs/rDock//data/scripts/dock_solv.prm

>  <Rbt.Receptor>
4xnr.prm

>  <SCORE>
-52.2042

>  <SCORE.INTER>
-34.12

>  <SCORE.INTER.CONST>
1

>  <SCORE.INTER.POLAR>
-3.92875

>  <SCORE.INTER.ROT>
4

>  <SCORE.INTER.SOLV>
12.8401

>  <SCORE.INTER.VDW>
-20.1976

>  <SCORE.INTER.norm>
-2.84333

>  <SCORE.INTRA>
2.84525

>  <SCORE.INTRA.DIHEDRAL>
0.700944

>  <SCORE.INTRA.DIHEDRAL.0>
2.58334

>  <SCORE.INTRA.POLAR>
0

>  <SCORE.INTRA.POLAR.0>
0

>  <SCORE.INTRA.REPUL>
0

>  <SCORE.INTRA.REPUL.0>
0

>  <SCORE.INTRA.SOLV>
0.77286

>  <SCORE.INTRA.SOLV.lig_0>
-16.0609

>  <SCORE.INTRA.VDW>
2.10835

>  <SCORE.INTRA.VDW.0>
-0.714897

>  <SCORE.INTRA.norm>
0.237104

>  <SCORE.RESTR>
0

>  <SCORE.RESTR.CAVITY>
0

>  <SCORE.RESTR.norm>
0

>  <SCORE.SYSTEM>
-20.9295

>  <SCORE.SYSTEM.CONST>
0

>  <SCORE.SYSTEM.DIHEDRAL>
4.53502

>  <SCORE.SYSTEM.POLAR>
-2.98378

>  <SCORE.SYSTEM.SOLV>
0.101654

>  <SCORE.SYSTEM.VDW>
-5.55259

>  <SCORE.SYSTEM.norm>
-1.74412

>  <SCORE.heavy>
12

>  <SCORE.norm>
-4.35035

$$$$
P82048427
 OpenBabel12072022113D
libRbt.so/2013.1/901 2013/11/27
 15 15  0  0  0  0  0  0  0  0999 V2000
   -2.1237   11.8910    3.3839 C   0  0  0  0  0  0  0  0  0  0  0  0
   -0.6883   12.3416    3.1675 C   0  0  0  0  0  0  0  0  0  0  0  0
   -0.0174   12.4590    4.4720 N   0  0  0  0  0  0  0  0  0  0  0  0
    1.1012   13.2945    4.4037 C   0  0  0  0  0  0  0  0  0  0  0  0
    2.4235   12.9196    4.6211 C   0  0  0  0  0  0  0  0  0  0  0  0
    3.4293   13.8779    4.4252 C   0  0  0  0  0  0  0  0  0  0  0  0
    3.1025   15.1725    4.0386 C   0  0  0  0  0  0  0  0  0  0  0  0
    1.7619   15.4995    3.8537 C   0  0  0  0  0  0  0  0  0  0  0  0
    0.8331   14.5528    4.0423 N   0  3  0  0  0  0  0  0  0  0  0  0
   -0.1574   14.7409    3.9313 H   0  0  0  0  0  0  0  0  0  0  0  0
    1.3263   16.8697    3.4562 C   0  0  0  0  0  0  0  0  0  0  0  0
    2.7565   11.5413    5.0991 C   0  0  0  0  0  0  0  0  0  0  0  0
    3.9812   11.2549    5.2076 O   0  0  0  0  0  0  0  0  0  0  0  0
    1.7603   10.7930    5.3431 O   0  5  0  0  0  0  0  0  0  0  0  0
    0.4045   11.5106    4.6439 H   0  0  0  0  0  0  0  0  0  0  0  0
  1  2  1  0  0  0  0
  2  3  1  0  0  0  0
  3  4  1  0  0  0  0
  3 15  1  0  0  0  0
  4  5  2  0  0  0  0
  4  9  1  0  0  0  0
  5  6  1  0  0  0  0
  5 12  1  0  0  0  0
  6  7  2  0  0  0  0
  7  8  1  0  0  0  0
  8  9  2  0  0  0  0
  8 11  1  0  0  0  0
  9 10  1  0  0  0  0
 12 13  2  0  0  0  0
 12 14  1  0  0  0  0
M  CHG  2   9   1  14  -1
M  END
>  <CHROM.0>
-59.03976627,-175.70517375,-65.76551428,-45.56133612,-60.88120192,-67.46589118
-67.86734960,-61.40955048,-168.25574402

>  <CHROM.1>
-158.84426675,-116.27758916,176.49304509,1.46239516,13.21224793,4.27340429
1.69880822,0.27591986,2.90441638

>  <Name>
P82048427

>  <RI>
3.4169e+07

>  <Rbt.Current_Directory>
/home/fstefaniak/projects/zuza/docking/adenine/4XNR

>  <Rbt.Executable>
rbdock ($Id: //depot/dev/client3/rdock/2013.1/src/exe/rbdock.cxx#4 $)

>  <Rbt.Library>
libRbt.so (2013.1, Build901 2013/11/27)

>  <Rbt.Parameter_File>
/home/fstefaniak/progs/rDock//data/scripts/dock_solv.prm

>  <Rbt.Receptor>
4xnr.prm

>  <SCORE>
-36.9186

>  <SCORE.INTER>
-18.2589

>  <SCORE.INTER.CONST>
1

>  <SCORE.INTER.POLAR>
-2.49685

>  <SCORE.INTER.ROT>
3

>  <SCORE.INTER.SOLV>
13.4221

>  <SCORE.INTER.VDW>
-13.9238

>  <SCORE.INTER.norm>
-1.40453

>  <SCORE.INTRA>
1.38334

>  <SCORE.INTRA.DIHEDRAL>
-0.0290369

>  <SCORE.INTRA.DIHEDRAL.0>
1.52899

>  <SCORE.INTRA.POLAR>
0.0243469

>  <SCORE.INTRA.POLAR.0>
-0.231075

>  <SCORE.INTRA.REPUL>
0

>  <SCORE.INTRA.REPUL.0>
0

>  <SCORE.INTRA.SOLV>
0.920385

>  <SCORE.INTRA.SOLV.lig_0>
-46.6267

>  <SCORE.INTRA.VDW>
0.854884

>  <SCORE.INTRA.VDW.0>
-0.405026

>  <SCORE.INTRA.norm>
0.106411

>  <SCORE.RESTR>
0.692175

>  <SCORE.RESTR.CAVITY>
0.692175

>  <SCORE.RESTR.norm>
0.0532442

>  <SCORE.SYSTEM>
-20.7352

>  <SCORE.SYSTEM.CONST>
0

>  <SCORE.SYSTEM.DIHEDRAL>
4.48609

>  <SCORE.SYSTEM.POLAR>
-3.00223

>  <SCORE.SYSTEM.SOLV>
0.246674

>  <SCORE.SYSTEM.VDW>
-5.3936

>  <SCORE.SYSTEM.norm>
-1.59501

>  <SCORE.heavy>
13

>  <SCORE.norm>
-2.83989

$$$$
P82048427
 OpenBabel12072022113D
libRbt.so/2013.1/901 2013/11/27
 15 15  0  0  0  0  0  0  0  0999 V2000
    3.1536   14.1653    3.8179 C   0  0  0  0  0  0  0  0  0  0  0  0
    4.3308   15.1263    3.7861 C   0  0  0  0  0  0  0  0  0  0  0  0
    3.8306   16.5060    3.8957 N   0  0  0  0  0  0  0  0  0  0  0  0
    4.8738   17.4215    4.0610 C   0  0  0  0  0  0  0  0  0  0  0  0
    5.5459   18.0960    3.0462 C   0  0  0  0  0  0  0  0  0  0  0  0
    6.5140   19.0462    3.4043 C   0  0  0  0  0  0  0  0  0  0  0  0
    6.7995   19.2904    4.7427 C   0  0  0  0  0  0  0  0  0  0  0  0
    6.1110   18.5733    5.7174 C   0  0  0  0  0  0  0  0  0  0  0  0
    5.1880   17.6815    5.3335 N   0  3  0  0  0  0  0  0  0  0  0  0
    4.6660   17.1255    6.0022 H   0  0  0  0  0  0  0  0  0  0  0  0
    6.3701   18.7631    7.1742 C   0  0  0  0  0  0  0  0  0  0  0  0
    5.2748   17.7777    1.6095 C   0  0  0  0  0  0  0  0  0  0  0  0
    4.2279   17.1184    1.3583 O   0  0  0  0  0  0  0  0  0  0  0  0
    6.1397   18.2041    0.7836 O   0  5  0  0  0  0  0  0  0  0  0  0
    3.3355   16.5396    4.8235 H   0  0  0  0  0  0  0  0  0  0  0  0
  1  2  1  0  0  0  0
  2  3  1  0  0  0  0
  3  4  1  0  0  0  0
  3 15  1  0  0  0  0
  4  5  2  0  0  0  0
  4  9  1  0  0  0  0
  5  6  1  0  0  0  0
  5 12  1  0  0  0  0
  6  7  2  0  0  0  0
  7  8  1  0  0  0  0
  8  9  2  0  0  0  0
  8 11  1  0  0  0  0
  9 10  1  0  0  0  0
 12 13  2  0  0  0  0
 12 14  1  0  0  0  0
M  CHG  2   9   1  14  -1
M  END
>  <CHROM.0>
-54.11930914,-62.06951701,-65.17142683,-48.10074394,-176.21282489,-65.35555721
-67.88971009,-173.09823621,-167.94893147

>  <CHROM.1>
171.62512208,91.33794186,15.60569532,5.21305815,17.46600957,3.73045804,2.43426110
-0.93944555,-1.51447305

>  <Name>
P82048427

>  <RI>
3.4169e+07

>  <Rbt.Current_Directory>
/home/fstefaniak/projects/zuza/docking/adenine/4XNR

>  <Rbt.Executable>
rbdock ($Id: //depot/dev/client3/rdock/2013.1/src/exe/rbdock.cxx#4 $)

>  <Rbt.Library>
libRbt.so (2013.1, Build901 2013/11/27)

>  <Rbt.Parameter_File>
/home/fstefaniak/progs/rDock//data/scripts/dock_solv.prm

>  <Rbt.Receptor>
4xnr.prm

>  <SCORE>
-34.8712

>  <SCORE.INTER>
-15.5202

>  <SCORE.INTER.CONST>
1

>  <SCORE.INTER.POLAR>
-2.69214

>  <SCORE.INTER.ROT>
3

>  <SCORE.INTER.SOLV>
27.2615

>  <SCORE.INTER.VDW>
-16.0601

>  <SCORE.INTER.norm>
-1.19386

>  <SCORE.INTRA>
1.53756

>  <SCORE.INTRA.DIHEDRAL>
-0.20119

>  <SCORE.INTRA.DIHEDRAL.0>
1.52899

>  <SCORE.INTRA.POLAR>
0.231075

>  <SCORE.INTRA.POLAR.0>
-0.231075

>  <SCORE.INTRA.REPUL>
0

>  <SCORE.INTRA.REPUL.0>
0

>  <SCORE.INTRA.SOLV>
0.881634

>  <SCORE.INTRA.SOLV.lig_0>
-46.6267

>  <SCORE.INTRA.VDW>
0.411683

>  <SCORE.INTRA.VDW.0>
-0.405026

>  <SCORE.INTRA.norm>
0.118274

>  <SCORE.RESTR>
0

>  <SCORE.RESTR.CAVITY>
0

>  <SCORE.RESTR.norm>
0

>  <SCORE.SYSTEM>
-20.8886

>  <SCORE.SYSTEM.CONST>
0

>  <SCORE.SYSTEM.DIHEDRAL>
4.42201

>  <SCORE.SYSTEM.POLAR>
-3.00477

>  <SCORE.SYSTEM.SOLV>
-0.0272548

>  <SCORE.SYSTEM.VDW>
-5.37475

>  <SCORE.SYSTEM.norm>
-1.60681

>  <SCORE.heavy>
13

>  <SCORE.norm>
-2.6824

$$$$
P82048427
 OpenBabel12072022113D
libRbt.so/2013.1/901 2013/11/27
 15 15  0  0  0  0  0  0  0  0999 V2000
    3.2268   14.1440    3.8104 C   0  0  0  0  0  0  0  0  0  0  0  0
    4.3912   15.1204    3.7793 C   0  0  0  0  0  0  0  0  0  0  0  0
    3.8718   16.4942    3.8721 N   0  0  0  0  0  0  0  0  0  0  0  0
    4.9008   17.4245    4.0440 C   0  0  0  0  0  0  0  0  0  0  0  0
    5.5675   18.1111    3.0338 C   0  0  0  0  0  0  0  0  0  0  0  0
    6.5200   19.0745    3.3985 C   0  0  0  0  0  0  0  0  0  0  0  0
    6.7959   19.3197    4.7386 C   0  0  0  0  0  0  0  0  0  0  0  0
    6.1136   18.5904    5.7086 C   0  0  0  0  0  0  0  0  0  0  0  0
    5.2055   17.6861    5.3186 N   0  3  0  0  0  0  0  0  0  0  0  0
    4.6886   17.1210    5.9836 H   0  0  0  0  0  0  0  0  0  0  0  0
    6.3634   18.7806    7.1670 C   0  0  0  0  0  0  0  0  0  0  0  0
    5.3075   17.7921    1.5952 C   0  0  0  0  0  0  0  0  0  0  0  0
    6.1954   18.1331    0.7652 O   0  0  0  0  0  0  0  0  0  0  0  0
    4.2048   17.2099    1.3562 O   0  5  0  0  0  0  0  0  0  0  0  0
    3.3642   16.5282    4.7931 H   0  0  0  0  0  0  0  0  0  0  0  0
  1  2  1  0  0  0  0
  2  3  1  0  0  0  0
  3  4  1  0  0  0  0
  3 15  1  0  0  0  0
  4  5  2  0  0  0  0
  4  9  1  0  0  0  0
  5  6  1  0  0  0  0
  5 12  1  0  0  0  0
  6  7  2  0  0  0  0
  7  8  1  0  0  0  0
  8  9  2  0  0  0  0
  8 11  1  0  0  0  0
  9 10  1  0  0  0  0
 12 13  2  0  0  0  0
 12 14  1  0  0  0  0
M  CHG  2   9   1  14  -1
M  END
>  <CHROM.0>
-56.36015367,-60.47891209,-67.24006075,-46.55458056,-175.61540463,-62.97250748
-72.13084872,-174.96819552,-167.46988691

>  <CHROM.1>
171.32655281,92.08626390,-159.14307174,5.23681518,17.47388650,3.71940491
2.42165152,-0.95031291,-1.51732440

>  <Name>
P82048427

>  <RI>
3.4169e+07

>  <Rbt.Current_Directory>
/home/fstefaniak/projects/zuza/docking/adenine/4XNR

>  <Rbt.Executable>
rbdock ($Id: //depot/dev/client3/rdock/2013.1/src/exe/rbdock.cxx#4 $)

>  <Rbt.Library>
libRbt.so (2013.1, Build901 2013/11/27)

>  <Rbt.Parameter_File>
/home/fstefaniak/progs/rDock//data/scripts/dock_solv.prm

>  <Rbt.Receptor>
4xnr.prm

>  <SCORE>
-34.6282

>  <SCORE.INTER>
-15.5172

>  <SCORE.INTER.CONST>
1

>  <SCORE.INTER.POLAR>
-2.69258

>  <SCORE.INTER.ROT>
3

>  <SCORE.INTER.SOLV>
27.1248

>  <SCORE.INTER.VDW>
-16.0112

>  <SCORE.INTER.norm>
-1.19363

>  <SCORE.INTRA>
1.76599

>  <SCORE.INTRA.DIHEDRAL>
0.466213

>  <SCORE.INTRA.DIHEDRAL.0>
1.52899

>  <SCORE.INTRA.POLAR>
0.231075

>  <SCORE.INTRA.POLAR.0>
-0.231075

>  <SCORE.INTRA.REPUL>
0

>  <SCORE.INTRA.REPUL.0>
0

>  <SCORE.INTRA.SOLV>
0.876614

>  <SCORE.INTRA.SOLV.lig_0>
-46.6267

>  <SCORE.INTRA.VDW>
0.308924

>  <SCORE.INTRA.VDW.0>
-0.405026

>  <SCORE.INTRA.norm>
0.135846

>  <SCORE.RESTR>
0

>  <SCORE.RESTR.CAVITY>
0

>  <SCORE.RESTR.norm>
0

>  <SCORE.SYSTEM>
-20.8769

>  <SCORE.SYSTEM.CONST>
0

>  <SCORE.SYSTEM.DIHEDRAL>
4.84887

>  <SCORE.SYSTEM.POLAR>
-3.00739

>  <SCORE.SYSTEM.SOLV>
-0.0368609

>  <SCORE.SYSTEM.VDW>
-5.49733

>  <SCORE.SYSTEM.norm>
-1.60592

>  <SCORE.heavy>
13

>  <SCORE.norm>
-2.66371

$$$$
P83576915
 OpenBabel12072022113D
libRbt.so/2013.1/901 2013/11/27
 12 12  0  0  0  0  0  0  0  0999 V2000
    5.7541   18.8759    4.9270 C   0  0  0  0  0  0  0  0  0  0  0  0
    7.2331   18.6710    4.6145 C   0  0  0  0  0  0  0  0  0  0  0  0
    7.2567   17.8167    3.3432 C   0  0  1  0  0  0  0  0  0  0  0  0
    6.0216   16.9572    3.5728 C   0  0  0  0  0  0  0  0  0  0  0  0
    5.8222   15.8518    2.9185 N   0  0  0  0  0  0  0  0  0  0  0  0
    4.6342   15.2371    3.3299 O   0  0  0  0  0  0  0  0  0  0  0  0
    5.1147   17.5228    4.6411 C   0  0  0  0  0  0  0  0  0  0  0  0
    7.0457   18.6465    2.1466 N   0  0  0  0  0  0  0  0  0  0  0  0
    6.1722   17.8634    1.2823 O   0  0  0  0  0  0  0  0  0  0  0  0
    4.5226   14.5323    2.6650 H   0  0  0  0  0  0  0  0  0  0  0  0
    7.9065   18.6721    1.5949 H   0  0  0  0  0  0  0  0  0  0  0  0
    5.6473   18.5584    0.8364 H   0  0  0  0  0  0  0  0  0  0  0  0
  1  2  1  0  0  0  0
  1  7  1  0  0  0  0
  2  3  1  0  0  0  0
  3  4  1  0  0  0  0
  3  8  1  6  0  0  0
  4  5  2  0  0  0  0
  4  7  1  0  0  0  0
  5  6  1  0  0  0  0
  6 10  1  0  0  0  0
  8  9  1  0  0  0  0
  8 11  1  0  0  0  0
  9 12  1  0  0  0  0
M  END
>  <CHROM.0>
-52.46006516,-61.36213462,-65.37223028,-49.12601782,-55.59442562,-64.68463926
-68.28016292,-60.93942748,-168.04170136

>  <CHROM.1>
-139.81654112,169.98546210,147.20924499,6.08594115,17.46531920,3.34430012
0.48000682,0.96604440,1.16590575

>  <Name>
P83576915

>  <RI>
3.51561e+07

>  <Rbt.Current_Directory>
/home/fstefaniak/projects/zuza/docking/adenine/4XNR

>  <Rbt.Executable>
rbdock ($Id: //depot/dev/client3/rdock/2013.1/src/exe/rbdock.cxx#4 $)

>  <Rbt.Library>
libRbt.so (2013.1, Build901 2013/11/27)

>  <Rbt.Parameter_File>
/home/fstefaniak/progs/rDock//data/scripts/dock_solv.prm

>  <Rbt.Receptor>
4xnr.prm

>  <SCORE>
-53.4755

>  <SCORE.INTER>
-35.5251

>  <SCORE.INTER.CONST>
1

>  <SCORE.INTER.POLAR>
-4.70516

>  <SCORE.INTER.ROT>
1

>  <SCORE.INTER.SOLV>
11.481

>  <SCORE.INTER.VDW>
-16.0932

>  <SCORE.INTER.norm>
-3.94724

>  <SCORE.INTRA>
2.88378

>  <SCORE.INTRA.DIHEDRAL>
1.56067

>  <SCORE.INTRA.DIHEDRAL.0>
2.8629

>  <SCORE.INTRA.POLAR>
0

>  <SCORE.INTRA.POLAR.0>
0

>  <SCORE.INTRA.REPUL>
0

>  <SCORE.INTRA.REPUL.0>
0

>  <SCORE.INTRA.SOLV>
0.830113

>  <SCORE.INTRA.SOLV.lig_0>
-13.7639

>  <SCORE.INTRA.VDW>
1.68839

>  <SCORE.INTRA.VDW.0>
-0.788927

>  <SCORE.INTRA.norm>
0.320421

>  <SCORE.RESTR>
0

>  <SCORE.RESTR.CAVITY>
0

>  <SCORE.RESTR.norm>
0

>  <SCORE.SYSTEM>
-20.8342

>  <SCORE.SYSTEM.CONST>
0

>  <SCORE.SYSTEM.DIHEDRAL>
4.21606

>  <SCORE.SYSTEM.POLAR>
-3.01099

>  <SCORE.SYSTEM.SOLV>
0.285623

>  <SCORE.SYSTEM.VDW>
-5.35337

>  <SCORE.SYSTEM.norm>
-2.31491

>  <SCORE.heavy>
9

>  <SCORE.norm>
-5.94173

$$$$
P83576915
 OpenBabel12072022113D
libRbt.so/2013.1/901 2013/11/27
 12 12  0  0  0  0  0  0  0  0999 V2000
    5.7666   18.8896    4.9373 C   0  0  0  0  0  0  0  0  0  0  0  0
    7.2419   18.6562    4.6274 C   0  0  0  0  0  0  0  0  0  0  0  0
    7.2513   17.8028    3.3553 C   0  0  1  0  0  0  0  0  0  0  0  0
    5.9992   16.9674    3.5817 C   0  0  0  0  0  0  0  0  0  0  0  0
    5.7795   15.8668    2.9259 N   0  0  0  0  0  0  0  0  0  0  0  0
    4.5789   15.2749    3.3344 O   0  0  0  0  0  0  0  0  0  0  0  0
    5.1015   17.5495    4.6488 C   0  0  0  0  0  0  0  0  0  0  0  0
    7.0588   18.6378    2.1592 N   0  0  0  0  0  0  0  0  0  0  0  0
    6.1928   17.8616    1.2812 O   0  0  0  0  0  0  0  0  0  0  0  0
    4.4909   14.5297    2.7114 H   0  0  0  0  0  0  0  0  0  0  0  0
    7.9266   18.6615    1.6183 H   0  0  0  0  0  0  0  0  0  0  0  0
    5.6040   18.5502    0.9118 H   0  0  0  0  0  0  0  0  0  0  0  0
  1  2  1  0  0  0  0
  1  7  1  0  0  0  0
  2  3  1  0  0  0  0
  3  4  1  0  0  0  0
  3  8  1  6  0  0  0
  4  5  2  0  0  0  0
  4  7  1  0  0  0  0
  5  6  1  0  0  0  0
  6 10  1  0  0  0  0
  8  9  1  0  0  0  0
  8 11  1  0  0  0  0
  9 12  1  0  0  0  0
M  END
>  <CHROM.0>
-53.03156872,59.16720490,-66.80905419,-46.12381038,-176.42452318,-63.23543525
-64.63609949,-61.27765970,-167.52609403

>  <CHROM.1>
-140.88258362,174.24768237,140.68520500,6.07632725,17.47256237,3.35335632
0.47465301,0.94601436,1.16892078

>  <Name>
P83576915

>  <RI>
3.51561e+07

>  <Rbt.Current_Directory>
/home/fstefaniak/projects/zuza/docking/adenine/4XNR

>  <Rbt.Executable>
rbdock ($Id: //depot/dev/client3/rdock/2013.1/src/exe/rbdock.cxx#4 $)

>  <Rbt.Library>
libRbt.so (2013.1, Build901 2013/11/27)

>  <Rbt.Parameter_File>
/home/fstefaniak/progs/rDock//data/scripts/dock_solv.prm

>  <Rbt.Receptor>
4xnr.prm

>  <SCORE>
-52.8842

>  <SCORE.INTER>
-35.7058

>  <SCORE.INTER.CONST>
1

>  <SCORE.INTER.POLAR>
-4.77341

>  <SCORE.INTER.ROT>
1

>  <SCORE.INTER.SOLV>
11.4422

>  <SCORE.INTER.VDW>
-15.9732

>  <SCORE.INTER.norm>
-3.96731

>  <SCORE.INTRA>
2.84378

>  <SCORE.INTRA.DIHEDRAL>
1.68097

>  <SCORE.INTRA.DIHEDRAL.0>
2.8629

>  <SCORE.INTRA.POLAR>
0

>  <SCORE.INTRA.POLAR.0>
0

>  <SCORE.INTRA.REPUL>
0

>  <SCORE.INTRA.REPUL.0>
0

>  <SCORE.INTRA.SOLV>
0.80979

>  <SCORE.INTRA.SOLV.lig_0>
-13.7639

>  <SCORE.INTRA.VDW>
1.5984

>  <SCORE.INTRA.VDW.0>
-0.788927

>  <SCORE.INTRA.norm>
0.315975

>  <SCORE.RESTR>
0

>  <SCORE.RESTR.CAVITY>
0

>  <SCORE.RESTR.norm>
0

>  <SCORE.SYSTEM>
-20.0222

>  <SCORE.SYSTEM.CONST>
0

>  <SCORE.SYSTEM.DIHEDRAL>
4.3481

>  <SCORE.SYSTEM.POLAR>
-3.0445

>  <SCORE.SYSTEM.SOLV>
0.201876

>  <SCORE.SYSTEM.VDW>
-4.71645

>  <SCORE.SYSTEM.norm>
-2.22469

>  <SCORE.heavy>
9

>  <SCORE.norm>
-5.87603

$$$$
P83576915
 OpenBabel12072022113D
libRbt.so/2013.1/901 2013/11/27
 12 12  0  0  0  0  0  0  0  0999 V2000
    7.0869   18.2062    3.9238 C   0  0  0  0  0  0  0  0  0  0  0  0
    5.8289   18.2909    4.7824 C   0  0  0  0  0  0  0  0  0  0  0  0
    4.7986   17.4117    4.0668 C   0  0  1  0  0  0  0  0  0  0  0  0
    5.1952   17.6563    2.6177 C   0  0  0  0  0  0  0  0  0  0  0  0
    4.3950   17.3828    1.6306 N   0  0  0  0  0  0  0  0  0  0  0  0
    4.9807   17.7225    0.4059 O   0  0  0  0  0  0  0  0  0  0  0  0
    6.5730   18.2639    2.4906 C   0  0  0  0  0  0  0  0  0  0  0  0
    5.0065   15.9904    4.3857 N   0  0  0  0  0  0  0  0  0  0  0  0
    4.0798   15.2624    3.5286 O   0  0  0  0  0  0  0  0  0  0  0  0
    4.7566   18.6681    0.3224 H   0  0  0  0  0  0  0  0  0  0  0  0
    4.6239   15.7909    5.3130 H   0  0  0  0  0  0  0  0  0  0  0  0
    4.6696   14.9333    2.8207 H   0  0  0  0  0  0  0  0  0  0  0  0
  1  2  1  0  0  0  0
  1  7  1  0  0  0  0
  2  3  1  0  0  0  0
  3  4  1  0  0  0  0
  3  8  1  1  0  0  0
  4  5  2  0  0  0  0
  4  7  1  0  0  0  0
  5  6  1  0  0  0  0
  6 10  1  0  0  0  0
  8  9  1  0  0  0  0
  8 11  1  0  0  0  0
  9 12  1  0  0  0  0
M  END
>  <CHROM.0>
-58.73088759,-61.83525278,-64.86527096,-45.71049978,-58.62832099,-62.78684262
-66.67256492,-65.13561706,-167.54958608

>  <CHROM.1>
-173.39240714,-85.36904436,102.09480257,5.29437725,17.30240403,3.05181766
-1.45434552,-0.82903948,-1.23421157

>  <Name>
P83576915

>  <RI>
3.51561e+07

>  <Rbt.Current_Directory>
/home/fstefaniak/projects/zuza/docking/adenine/4XNR

>  <Rbt.Executable>
rbdock ($Id: //depot/dev/client3/rdock/2013.1/src/exe/rbdock.cxx#4 $)

>  <Rbt.Library>
libRbt.so (2013.1, Build901 2013/11/27)

>  <Rbt.Parameter_File>
/home/fstefaniak/progs/rDock//data/scripts/dock_solv.prm

>  <Rbt.Receptor>
4xnr.prm

>  <SCORE>
-52.5419

>  <SCORE.INTER>
-30.9885

>  <SCORE.INTER.CONST>
1

>  <SCORE.INTER.POLAR>
-4.07017

>  <SCORE.INTER.ROT>
1

>  <SCORE.INTER.SOLV>
11.0451

>  <SCORE.INTER.VDW>
-15.0401

>  <SCORE.INTER.norm>
-3.44317

>  <SCORE.INTRA>
-0.697433

>  <SCORE.INTRA.DIHEDRAL>
-1.88789

>  <SCORE.INTRA.DIHEDRAL.0>
2.8629

>  <SCORE.INTRA.POLAR>
0

>  <SCORE.INTRA.POLAR.0>
0

>  <SCORE.INTRA.REPUL>
0

>  <SCORE.INTRA.REPUL.0>
0

>  <SCORE.INTRA.SOLV>
0.21818

>  <SCORE.INTRA.SOLV.lig_0>
-13.7639

>  <SCORE.INTRA.VDW>
0.137424

>  <SCORE.INTRA.VDW.0>
-0.788927

>  <SCORE.INTRA.norm>
-0.0774925

>  <SCORE.RESTR>
0

>  <SCORE.RESTR.CAVITY>
0

>  <SCORE.RESTR.norm>
0

>  <SCORE.SYSTEM>
-20.856

>  <SCORE.SYSTEM.CONST>
0

>  <SCORE.SYSTEM.DIHEDRAL>
4.24864

>  <SCORE.SYSTEM.POLAR>
-3.00586

>  <SCORE.SYSTEM.SOLV>
0.281648

>  <SCORE.SYSTEM.VDW>
-5.39455

>  <SCORE.SYSTEM.norm>
-2.31733

>  <SCORE.heavy>
9

>  <SCORE.norm>
-5.83799

$$$$
P85902119
 OpenBabel12072022113D
libRbt.so/2013.1/901 2013/11/27
 14 14  0  0  0  0  0  0  0  0999 V2000
    4.8341   14.9759    3.8724 C   0  0  0  0  0  0  0  0  0  0  0  0
    5.6228   16.1074    3.2190 C   0  0  0  0  0  0  0  0  0  0  0  0
    4.9886   17.5045    3.3428 C   0  0  1  0  0  0  0  0  0  0  0  0
    3.4855   17.4770    3.0541 C   0  0  0  0  0  0  0  0  0  0  0  0
    2.8212   16.3702    3.7870 N   0  3  0  0  0  0  0  0  0  0  0  0
    3.0039   16.5585    4.8163 H   0  0  0  0  0  0  0  0  0  0  0  0
    1.8031   16.4240    3.7188 H   0  0  0  0  0  0  0  0  0  0  0  0
    3.3539   15.0213    3.5257 C   0  0  0  0  0  0  0  0  0  0  0  0
    5.3256   18.2406    4.6518 C   0  0  2  0  0  0  0  0  0  0  0  0
    6.5863   19.1542    4.7714 C   0  0  0  0  0  0  0  0  0  0  0  0
    6.7553   19.6349    5.9229 O   0  0  0  0  0  0  0  0  0  0  0  0
    7.3399   19.1914    3.7542 O   0  5  0  0  0  0  0  0  0  0  0  0
    5.4635   17.2127    5.6721 O   0  0  0  0  0  0  0  0  0  0  0  0
    6.1394   17.5984    6.2824 H   0  0  0  0  0  0  0  0  0  0  0  0
  1  2  1  0  0  0  0
  1  8  1  0  0  0  0
  2  3  1  0  0  0  0
  3  4  1  0  0  0  0
  3  9  1  1  0  0  0
  4  5  1  0  0  0  0
  5  6  1  0  0  0  0
  5  7  1  0  0  0  0
  5  8  1  0  0  0  0
  9 10  1  6  0  0  0
  9 13  1  0  0  0  0
 10 11  2  0  0  0  0
 10 12  1  0  0  0  0
 13 14  1  0  0  0  0
M  CHG  2   5   1  12  -1
M  END
>  <CHROM.0>
-58.64532570,-153.63468236,-66.79713586,-47.00088206,-61.78781972,-64.27890699
-69.46219721,-63.27393755,-168.18267853

>  <CHROM.1>
89.22219271,-176.91542815,148.59125886,5.14797436,17.36433833,4.18828928
-2.29497078,0.27052958,0.62556019

>  <Name>
P85902119

>  <RI>
1.00763e+07

>  <Rbt.Current_Directory>
/home/fstefaniak/projects/zuza/docking/adenine/4XNR

>  <Rbt.Executable>
rbdock ($Id: //depot/dev/client3/rdock/2013.1/src/exe/rbdock.cxx#4 $)

>  <Rbt.Library>
libRbt.so (2013.1, Build901 2013/11/27)

>  <Rbt.Parameter_File>
/home/fstefaniak/progs/rDock//data/scripts/dock_solv.prm

>  <Rbt.Receptor>
4xnr.prm

>  <SCORE>
-39.5957

>  <SCORE.INTER>
-20.0278

>  <SCORE.INTER.CONST>
1

>  <SCORE.INTER.POLAR>
-3.77529

>  <SCORE.INTER.ROT>
2

>  <SCORE.INTER.SOLV>
24.31

>  <SCORE.INTER.VDW>
-13.8043

>  <SCORE.INTER.norm>
-1.82071

>  <SCORE.INTRA>
0.0646326

>  <SCORE.INTRA.DIHEDRAL>
3.14897

>  <SCORE.INTRA.DIHEDRAL.0>
3.75949

>  <SCORE.INTRA.POLAR>
0.396504

>  <SCORE.INTRA.POLAR.0>
-0.396504

>  <SCORE.INTRA.REPUL>
0

>  <SCORE.INTRA.REPUL.0>
0

>  <SCORE.INTRA.SOLV>
-5.83179

>  <SCORE.INTRA.SOLV.lig_0>
-42.9989

>  <SCORE.INTRA.VDW>
0.0579308

>  <SCORE.INTRA.VDW.0>
0.965926

>  <SCORE.INTRA.norm>
0.00587569

>  <SCORE.RESTR>
0

>  <SCORE.RESTR.CAVITY>
0

>  <SCORE.RESTR.norm>
0

>  <SCORE.SYSTEM>
-19.6325

>  <SCORE.SYSTEM.CONST>
0

>  <SCORE.SYSTEM.DIHEDRAL>
7.15169

>  <SCORE.SYSTEM.POLAR>
-2.98155

>  <SCORE.SYSTEM.SOLV>
0.233615

>  <SCORE.SYSTEM.VDW>
-5.61159

>  <SCORE.SYSTEM.norm>
-1.78477

>  <SCORE.heavy>
11

>  <SCORE.norm>
-3.59961

$$$$
P85902119
 OpenBabel12072022113D
libRbt.so/2013.1/901 2013/11/27
 14 14  0  0  0  0  0  0  0  0999 V2000
    4.7594   15.0150    3.8914 C   0  0  0  0  0  0  0  0  0  0  0  0
    5.6149   16.0923    3.2304 C   0  0  0  0  0  0  0  0  0  0  0  0
    5.0558   17.5232    3.3265 C   0  0  1  0  0  0  0  0  0  0  0  0
    3.5565   17.5723    3.0212 C   0  0  0  0  0  0  0  0  0  0  0  0
    2.8258   16.5143    3.7627 N   0  3  0  0  0  0  0  0  0  0  0  0
    3.0076   16.7081    4.7911 H   0  0  0  0  0  0  0  0  0  0  0  0
    1.8128   16.6218    3.6822 H   0  0  0  0  0  0  0  0  0  0  0  0
    3.2875   15.1348    3.5273 C   0  0  0  0  0  0  0  0  0  0  0  0
    5.4184   18.2600    4.6282 C   0  0  2  0  0  0  0  0  0  0  0  0
    6.7263   19.1042    4.7494 C   0  0  0  0  0  0  0  0  0  0  0  0
    7.3779   19.1847    3.6749 O   0  0  0  0  0  0  0  0  0  0  0  0
    6.8983   19.7008    5.8533 O   0  5  0  0  0  0  0  0  0  0  0  0
    5.4875   17.2422    5.6654 O   0  0  0  0  0  0  0  0  0  0  0  0
    4.5476   17.1693    5.9646 H   0  0  0  0  0  0  0  0  0  0  0  0
  1  2  1  0  0  0  0
  1  8  1  0  0  0  0
  2  3  1  0  0  0  0
  3  4  1  0  0  0  0
  3  9  1  1  0  0  0
  4  5  1  0  0  0  0
  5  6  1  0  0  0  0
  5  7  1  0  0  0  0
  5  8  1  0  0  0  0
  9 10  1  6  0  0  0
  9 13  1  0  0  0  0
 10 11  2  0  0  0  0
 10 12  1  0  0  0  0
 13 14  1  0  0  0  0
M  CHG  2   5   1  12  -1
M  END
>  <CHROM.0>
-61.45293869,-59.86453604,-31.64668272,-44.01905825,64.18409179,-62.91348142
-50.25828156,-177.59706099,-168.22565020

>  <CHROM.1>
89.12304656,4.41846533,-85.99799983,5.17575345,17.40527863,4.16310794,-2.50253694
0.60449804,1.03494315

>  <Name>
P85902119

>  <RI>
1.00763e+07

>  <Rbt.Current_Directory>
/home/fstefaniak/projects/zuza/docking/adenine/4XNR

>  <Rbt.Executable>
rbdock ($Id: //depot/dev/client3/rdock/2013.1/src/exe/rbdock.cxx#4 $)

>  <Rbt.Library>
libRbt.so (2013.1, Build901 2013/11/27)

>  <Rbt.Parameter_File>
/home/fstefaniak/progs/rDock//data/scripts/dock_solv.prm

>  <Rbt.Receptor>
4xnr.prm

>  <SCORE>
-39.5123

>  <SCORE.INTER>
-19.9632

>  <SCORE.INTER.CONST>
1

>  <SCORE.INTER.POLAR>
-3.65237

>  <SCORE.INTER.ROT>
2

>  <SCORE.INTER.SOLV>
24.5847

>  <SCORE.INTER.VDW>
-14.2625

>  <SCORE.INTER.norm>
-1.81484

>  <SCORE.INTRA>
-1.04482

>  <SCORE.INTRA.DIHEDRAL>
2.24443

>  <SCORE.INTRA.DIHEDRAL.0>
3.75949

>  <SCORE.INTRA.POLAR>
0.396504

>  <SCORE.INTRA.POLAR.0>
-0.396504

>  <SCORE.INTRA.REPUL>
0.106239

>  <SCORE.INTRA.REPUL.0>
0

>  <SCORE.INTRA.SOLV>
-6.02168

>  <SCORE.INTRA.SOLV.lig_0>
-42.9989

>  <SCORE.INTRA.VDW>
-1.03549

>  <SCORE.INTRA.VDW.0>
0.965926

>  <SCORE.INTRA.norm>
-0.0949833

>  <SCORE.RESTR>
0

>  <SCORE.RESTR.CAVITY>
0

>  <SCORE.RESTR.norm>
0

>  <SCORE.SYSTEM>
-18.5043

>  <SCORE.SYSTEM.CONST>
0

>  <SCORE.SYSTEM.DIHEDRAL>
7.52726

>  <SCORE.SYSTEM.POLAR>
-3.34827

>  <SCORE.SYSTEM.SOLV>
0.0151685

>  <SCORE.SYSTEM.VDW>
-3.68946

>  <SCORE.SYSTEM.norm>
-1.68221

>  <SCORE.heavy>
11

>  <SCORE.norm>
-3.59203

$$$$
P85902119
 OpenBabel12072022113D
libRbt.so/2013.1/901 2013/11/27
 14 14  0  0  0  0  0  0  0  0999 V2000
    0.7352   13.7197    3.2003 C   0  0  0  0  0  0  0  0  0  0  0  0
    1.1162   14.8200    4.1869 C   0  0  0  0  0  0  0  0  0  0  0  0
    2.6251   14.9670    4.4535 C   0  0  1  0  0  0  0  0  0  0  0  0
    3.3030   13.6104    4.6626 C   0  0  0  0  0  0  0  0  0  0  0  0
    2.8974   12.6434    3.6121 N   0  3  0  0  0  0  0  0  0  0  0  0
    3.1997   13.0779    2.6912 H   0  0  0  0  0  0  0  0  0  0  0  0
    3.4461   11.7824    3.6533 H   0  0  0  0  0  0  0  0  0  0  0  0
    1.4482   12.4072    3.4870 C   0  0  0  0  0  0  0  0  0  0  0  0
    3.3671   15.8473    3.4321 C   0  0  2  0  0  0  0  0  0  0  0  0
    4.7946   16.4082    3.7247 C   0  0  0  0  0  0  0  0  0  0  0  0
    5.6336   16.1529    2.8211 O   0  0  0  0  0  0  0  0  0  0  0  0
    4.8984   17.1479    4.7476 O   0  5  0  0  0  0  0  0  0  0  0  0
    2.5126   17.0002    3.1928 O   0  0  0  0  0  0  0  0  0  0  0  0
    2.4266   17.4005    4.0930 H   0  0  0  0  0  0  0  0  0  0  0  0
  1  2  1  0  0  0  0
  1  8  1  0  0  0  0
  2  3  1  0  0  0  0
  3  4  1  0  0  0  0
  3  9  1  6  0  0  0
  4  5  1  0  0  0  0
  5  6  1  0  0  0  0
  5  7  1  0  0  0  0
  5  8  1  0  0  0  0
  9 10  1  1  0  0  0
  9 13  1  0  0  0  0
 10 11  2  0  0  0  0
 10 12  1  0  0  0  0
 13 14  1  0  0  0  0
M  CHG  2   5   1  12  -1
M  END
>  <CHROM.0>
-58.73213647,-62.41208381,60.59390042,-47.60749848,-59.81731682,-61.72166780
52.90826661,-60.23993000,-168.52782735

>  <CHROM.1>
164.19863609,127.15553588,59.40057428,3.05712731,15.00136093,3.76055629,2.28778328
0.01853502,3.13923543

>  <Name>
P85902119

>  <RI>
1.00763e+07

>  <Rbt.Current_Directory>
/home/fstefaniak/projects/zuza/docking/adenine/4XNR

>  <Rbt.Executable>
rbdock ($Id: //depot/dev/client3/rdock/2013.1/src/exe/rbdock.cxx#4 $)

>  <Rbt.Library>
libRbt.so (2013.1, Build901 2013/11/27)

>  <Rbt.Parameter_File>
/home/fstefaniak/progs/rDock//data/scripts/dock_solv.prm

>  <Rbt.Receptor>
4xnr.prm

>  <SCORE>
-39.0126

>  <SCORE.INTER>
-15.8255

>  <SCORE.INTER.CONST>
1

>  <SCORE.INTER.POLAR>
-2.42759

>  <SCORE.INTER.ROT>
2

>  <SCORE.INTER.SOLV>
17.6191

>  <SCORE.INTER.VDW>
-13.2647

>  <SCORE.INTER.norm>
-1.43868

>  <SCORE.INTRA>
-4.24179

>  <SCORE.INTRA.DIHEDRAL>
-1.40773

>  <SCORE.INTRA.DIHEDRAL.0>
3.75949

>  <SCORE.INTRA.POLAR>
0.396504

>  <SCORE.INTRA.POLAR.0>
-0.396504

>  <SCORE.INTRA.REPUL>
0

>  <SCORE.INTRA.REPUL.0>
0

>  <SCORE.INTRA.SOLV>
-7.11793

>  <SCORE.INTRA.SOLV.lig_0>
-42.9989

>  <SCORE.INTRA.VDW>
-1.32707

>  <SCORE.INTRA.VDW.0>
0.965926

>  <SCORE.INTRA.norm>
-0.385617

>  <SCORE.RESTR>
0

>  <SCORE.RESTR.CAVITY>
0

>  <SCORE.RESTR.norm>
0

>  <SCORE.SYSTEM>
-18.9453

>  <SCORE.SYSTEM.CONST>
0

>  <SCORE.SYSTEM.DIHEDRAL>
3.70906

>  <SCORE.SYSTEM.POLAR>
-2.94674

>  <SCORE.SYSTEM.SOLV>
0.18766

>  <SCORE.SYSTEM.VDW>
-4.10665

>  <SCORE.SYSTEM.norm>
-1.7223

>  <SCORE.heavy>
11

>  <SCORE.norm>
-3.5466

$$$$
P89812344
 OpenBabel12072022113D
libRbt.so/2013.1/901 2013/11/27
 11 10  0  0  0  0  0  0  0  0999 V2000
    3.6083   14.3507    3.9154 C   0  0  0  0  0  0  0  0  0  0  0  0
    2.9217   15.6161    4.2141 N   0  0  0  0  0  0  0  0  0  0  0  0
    3.7336   16.7236    3.6849 C   0  0  0  0  0  0  0  0  0  0  0  0
    1.5603   15.6862    3.6512 C   0  0  1  0  0  0  0  0  0  0  0  0
    0.8576   14.2729    3.4364 C   0  0  0  0  0  0  0  0  0  0  0  0
    0.4160   13.6812    4.4465 O   0  0  0  0  0  0  0  0  0  0  0  0
    0.9385   13.9409    2.2045 O   0  5  0  0  0  0  0  0  0  0  0  0
    0.7434   16.4899    4.6014 N   0  3  0  0  0  0  0  0  0  0  0  0
    0.7489   16.0463    5.5140 H   0  0  0  0  0  0  0  0  0  0  0  0
    1.0094   17.4710    4.5929 H   0  0  0  0  0  0  0  0  0  0  0  0
   -0.1965   16.4278    4.1501 H   0  0  0  0  0  0  0  0  0  0  0  0
  1  2  1  0  0  0  0
  2  3  1  0  0  0  0
  2  4  1  0  0  0  0
  4  5  1  1  0  0  0
  4  8  1  0  0  0  0
  5  6  2  0  0  0  0
  5  7  1  0  0  0  0
  8  9  1  0  0  0  0
  8 10  1  0  0  0  0
  8 11  1  0  0  0  0
M  CHG  2   7  -1   8   1
M  END
>  <CHROM.0>
-53.74260962,59.50588038,-65.55961525,-47.12954688,-53.48875233,-61.70498901
-66.86766377,-59.45567001,-169.32375193

>  <CHROM.1>
26.25024966,75.66662988,-58.91724255,1.82482386,15.10826044,3.78662400,-0.63977142
-0.15126523,-2.72179931

>  <Name>
P89812344

>  <RI>
1.00763e+07

>  <Rbt.Current_Directory>
/home/fstefaniak/projects/zuza/docking/adenine/4XNR

>  <Rbt.Executable>
rbdock ($Id: //depot/dev/client3/rdock/2013.1/src/exe/rbdock.cxx#4 $)

>  <Rbt.Library>
libRbt.so (2013.1, Build901 2013/11/27)

>  <Rbt.Parameter_File>
/home/fstefaniak/progs/rDock//data/scripts/dock_solv.prm

>  <Rbt.Receptor>
4xnr.prm

>  <SCORE>
-47.2834

>  <SCORE.INTER>
-25.6262

>  <SCORE.INTER.CONST>
1

>  <SCORE.INTER.POLAR>
-5.03719

>  <SCORE.INTER.ROT>
2

>  <SCORE.INTER.SOLV>
21.3054

>  <SCORE.INTER.VDW>
-12.3287

>  <SCORE.INTER.norm>
-3.20328

>  <SCORE.INTRA>
-1.82698

>  <SCORE.INTRA.DIHEDRAL>
-1.65147

>  <SCORE.INTRA.DIHEDRAL.0>
4.19239

>  <SCORE.INTRA.POLAR>
0

>  <SCORE.INTRA.POLAR.0>
0

>  <SCORE.INTRA.REPUL>
0

>  <SCORE.INTRA.REPUL.0>
0

>  <SCORE.INTRA.SOLV>
-1.31327

>  <SCORE.INTRA.SOLV.lig_0>
-46.5804

>  <SCORE.INTRA.VDW>
-0.344616

>  <SCORE.INTRA.VDW.0>
1.31245

>  <SCORE.INTRA.norm>
-0.228373

>  <SCORE.RESTR>
0

>  <SCORE.RESTR.CAVITY>
0

>  <SCORE.RESTR.norm>
0

>  <SCORE.SYSTEM>
-19.8301

>  <SCORE.SYSTEM.CONST>
0

>  <SCORE.SYSTEM.DIHEDRAL>
4.14648

>  <SCORE.SYSTEM.POLAR>
-3.0107

>  <SCORE.SYSTEM.SOLV>
0.380614

>  <SCORE.SYSTEM.VDW>
-4.69347

>  <SCORE.SYSTEM.norm>
-2.47877

>  <SCORE.heavy>
8

>  <SCORE.norm>
-5.91042

$$$$
P89812344
 OpenBabel12072022113D
libRbt.so/2013.1/901 2013/11/27
 11 10  0  0  0  0  0  0  0  0999 V2000
    3.5415   14.2526    3.9639 C   0  0  0  0  0  0  0  0  0  0  0  0
    2.8796   15.5350    4.2458 N   0  0  0  0  0  0  0  0  0  0  0  0
    3.7313   16.6215    3.7359 C   0  0  0  0  0  0  0  0  0  0  0  0
    1.5342   15.6384    3.6505 C   0  0  1  0  0  0  0  0  0  0  0  0
    0.8081   14.2421    3.4051 C   0  0  0  0  0  0  0  0  0  0  0  0
    0.3139   13.6593    4.3958 O   0  0  0  0  0  0  0  0  0  0  0  0
    0.9295   13.9102    2.1765 O   0  5  0  0  0  0  0  0  0  0  0  0
    0.7109   16.4504    4.5881 N   0  3  0  0  0  0  0  0  0  0  0  0
    1.1151   17.3765    4.6810 H   0  0  0  0  0  0  0  0  0  0  0  0
   -0.2751   16.4288    4.3417 H   0  0  0  0  0  0  0  0  0  0  0  0
    0.8147   15.8963    5.4674 H   0  0  0  0  0  0  0  0  0  0  0  0
  1  2  1  0  0  0  0
  2  3  1  0  0  0  0
  2  4  1  0  0  0  0
  4  5  1  1  0  0  0
  4  8  1  0  0  0  0
  5  6  2  0  0  0  0
  5  7  1  0  0  0  0
  8  9  1  0  0  0  0
  8 10  1  0  0  0  0
  8 11  1  0  0  0  0
M  CHG  2   7  -1   8   1
M  END
>  <CHROM.0>
-57.79589156,54.82484307,-65.77809207,-49.00401099,-64.32178593,-63.68257201
-68.01797124,-64.36974384,-168.18729403

>  <CHROM.1>
25.63370944,76.61300028,61.31382500,1.78504859,15.05088544,3.78958165,-0.62710261
-0.12819152,-2.70393031

>  <Name>
P89812344

>  <RI>
1.00763e+07

>  <Rbt.Current_Directory>
/home/fstefaniak/projects/zuza/docking/adenine/4XNR

>  <Rbt.Executable>
rbdock ($Id: //depot/dev/client3/rdock/2013.1/src/exe/rbdock.cxx#4 $)

>  <Rbt.Library>
libRbt.so (2013.1, Build901 2013/11/27)

>  <Rbt.Parameter_File>
/home/fstefaniak/progs/rDock//data/scripts/dock_solv.prm

>  <Rbt.Receptor>
4xnr.prm

>  <SCORE>
-46.2477

>  <SCORE.INTER>
-24.4225

>  <SCORE.INTER.CONST>
1

>  <SCORE.INTER.POLAR>
-4.83402

>  <SCORE.INTER.ROT>
2

>  <SCORE.INTER.SOLV>
21.3705

>  <SCORE.INTER.VDW>
-12.2251

>  <SCORE.INTER.norm>
-3.05281

>  <SCORE.INTRA>
-1.70145

>  <SCORE.INTRA.DIHEDRAL>
-1.6082

>  <SCORE.INTRA.DIHEDRAL.0>
4.19239

>  <SCORE.INTRA.POLAR>
0

>  <SCORE.INTRA.POLAR.0>
0

>  <SCORE.INTRA.REPUL>
0

>  <SCORE.INTRA.REPUL.0>
0

>  <SCORE.INTRA.SOLV>
-1.09518

>  <SCORE.INTRA.SOLV.lig_0>
-46.5804

>  <SCORE.INTRA.VDW>
-0.349761

>  <SCORE.INTRA.VDW.0>
1.31245

>  <SCORE.INTRA.norm>
-0.212681

>  <SCORE.RESTR>
0

>  <SCORE.RESTR.CAVITY>
0

>  <SCORE.RESTR.norm>
0

>  <SCORE.SYSTEM>
-20.1237

>  <SCORE.SYSTEM.CONST>
0

>  <SCORE.SYSTEM.DIHEDRAL>
4.14054

>  <SCORE.SYSTEM.POLAR>
-2.96847

>  <SCORE.SYSTEM.SOLV>
0.359013

>  <SCORE.SYSTEM.VDW>
-5.02076

>  <SCORE.SYSTEM.norm>
-2.51547

>  <SCORE.heavy>
8

>  <SCORE.norm>
-5.78096

$$$$
P89812344
 OpenBabel12072022113D
libRbt.so/2013.1/901 2013/11/27
 11 10  0  0  0  0  0  0  0  0999 V2000
    3.5693   14.3083    3.9999 C   0  0  0  0  0  0  0  0  0  0  0  0
    2.8871   15.5880    4.2430 N   0  0  0  0  0  0  0  0  0  0  0  0
    3.7190   16.6715    3.6953 C   0  0  0  0  0  0  0  0  0  0  0  0
    1.5383   15.6500    3.6497 C   0  0  1  0  0  0  0  0  0  0  0  0
    0.8424   14.2335    3.4341 C   0  0  0  0  0  0  0  0  0  0  0  0
    0.3805   13.6511    4.4406 O   0  0  0  0  0  0  0  0  0  0  0  0
    0.9499   13.8894    2.2076 O   0  5  0  0  0  0  0  0  0  0  0  0
    0.6996   16.4622    4.5734 N   0  3  0  0  0  0  0  0  0  0  0  0
    1.1002   17.3895    4.6696 H   0  0  0  0  0  0  0  0  0  0  0  0
   -0.2827   16.4376    4.3129 H   0  0  0  0  0  0  0  0  0  0  0  0
    0.7922   15.9106    5.4554 H   0  0  0  0  0  0  0  0  0  0  0  0
  1  2  1  0  0  0  0
  2  3  1  0  0  0  0
  2  4  1  0  0  0  0
  4  5  1  1  0  0  0
  4  8  1  0  0  0  0
  5  6  2  0  0  0  0
  5  7  1  0  0  0  0
  8  9  1  0  0  0  0
  8 10  1  0  0  0  0
  8 11  1  0  0  0  0
M  CHG  2   7  -1   8   1
M  END
>  <CHROM.0>
-58.73920401,59.80427194,-65.18096475,-48.79842920,-175.76095615,-175.40997398
-66.90257294,-57.51743367,-168.20687873

>  <CHROM.1>
24.86750461,75.61574850,59.53038243,1.80188481,15.06879631,3.79958596,-0.64557907
-0.13460390,-2.73144255

>  <Name>
P89812344

>  <RI>
1.00763e+07

>  <Rbt.Current_Directory>
/home/fstefaniak/projects/zuza/docking/adenine/4XNR

>  <Rbt.Executable>
rbdock ($Id: //depot/dev/client3/rdock/2013.1/src/exe/rbdock.cxx#4 $)

>  <Rbt.Library>
libRbt.so (2013.1, Build901 2013/11/27)

>  <Rbt.Parameter_File>
/home/fstefaniak/progs/rDock//data/scripts/dock_solv.prm

>  <Rbt.Receptor>
4xnr.prm

>  <SCORE>
-46.2127

>  <SCORE.INTER>
-24.6706

>  <SCORE.INTER.CONST>
1

>  <SCORE.INTER.POLAR>
-4.8743

>  <SCORE.INTER.ROT>
2

>  <SCORE.INTER.SOLV>
21.2556

>  <SCORE.INTER.VDW>
-12.2179

>  <SCORE.INTER.norm>
-3.08382

>  <SCORE.INTRA>
-1.66394

>  <SCORE.INTRA.DIHEDRAL>
-1.59665

>  <SCORE.INTRA.DIHEDRAL.0>
4.19239

>  <SCORE.INTRA.POLAR>
0

>  <SCORE.INTRA.POLAR.0>
0

>  <SCORE.INTRA.REPUL>
0

>  <SCORE.INTRA.REPUL.0>
0

>  <SCORE.INTRA.SOLV>
-1.09471

>  <SCORE.INTRA.SOLV.lig_0>
-46.5804

>  <SCORE.INTRA.VDW>
-0.318256

>  <SCORE.INTRA.VDW.0>
1.31245

>  <SCORE.INTRA.norm>
-0.207992

>  <SCORE.RESTR>
0

>  <SCORE.RESTR.CAVITY>
0

>  <SCORE.RESTR.norm>
0

>  <SCORE.SYSTEM>
-19.8781

>  <SCORE.SYSTEM.CONST>
0

>  <SCORE.SYSTEM.DIHEDRAL>
3.88507

>  <SCORE.SYSTEM.POLAR>
-2.9574

>  <SCORE.SYSTEM.SOLV>
0.0793211

>  <SCORE.SYSTEM.VDW>
-4.71556

>  <SCORE.SYSTEM.norm>
-2.48477

>  <SCORE.heavy>
8

>  <SCORE.norm>
-5.77658

$$$$
P89999547
 OpenBabel12072022113D
libRbt.so/2013.1/901 2013/11/27
 13 13  0  0  0  0  0  0  0  0999 V2000
    5.6273   18.0276    6.6829 C   0  0  0  0  0  0  0  0  0  0  0  0
    5.3068   17.6193    5.2493 C   0  0  0  0  0  0  0  0  0  0  0  0
    6.3825   18.3496    4.4598 C   0  0  2  0  0  0  0  0  0  0  0  0
    6.3845   19.6839    5.1666 N   0  3  0  0  0  0  0  0  0  0  0  0
    7.2945   20.1264    4.8848 H   0  0  0  0  0  0  0  0  0  0  0  0
    5.6779   20.2521    4.6713 H   0  0  0  0  0  0  0  0  0  0  0  0
    6.0772   19.4817    6.5894 C   0  0  0  0  0  0  0  0  0  0  0  0
    6.0971   18.5961    2.9902 C   0  0  2  0  0  0  0  0  0  0  0  0
    5.3570   17.3349    2.4632 C   0  0  0  0  0  0  0  0  0  0  0  0
    6.0975   16.3184    2.2869 O   0  0  0  0  0  0  0  0  0  0  0  0
    4.1497   17.5327    2.1764 O   0  5  0  0  0  0  0  0  0  0  0  0
    7.3505   18.7417    2.2744 O   0  0  0  0  0  0  0  0  0  0  0  0
    7.0643   18.9574    1.3575 H   0  0  0  0  0  0  0  0  0  0  0  0
  1  2  1  0  0  0  0
  1  7  1  0  0  0  0
  2  3  1  0  0  0  0
  3  4  1  0  0  0  0
  3  8  1  6  0  0  0
  4  5  1  0  0  0  0
  4  6  1  0  0  0  0
  4  7  1  0  0  0  0
  8  9  1  6  0  0  0
  8 12  1  0  0  0  0
  9 10  2  0  0  0  0
  9 11  1  0  0  0  0
 12 13  1  0  0  0  0
M  CHG  2   4   1  11  -1
M  END
>  <CHROM.0>
-58.96946365,-62.87138893,-62.60993982,-46.11819884,-57.33081736,-59.85300717
-68.99144831,-57.45834026,-168.16570534

>  <CHROM.1>
-75.00577856,-176.22809167,-37.64138764,5.90116478,18.18327203,3.97869491
1.47218989,0.78579357,1.27933082

>  <Name>
P89999547

>  <RI>
1.00763e+07

>  <Rbt.Current_Directory>
/home/fstefaniak/projects/zuza/docking/adenine/4XNR

>  <Rbt.Executable>
rbdock ($Id: //depot/dev/client3/rdock/2013.1/src/exe/rbdock.cxx#4 $)

>  <Rbt.Library>
libRbt.so (2013.1, Build901 2013/11/27)

>  <Rbt.Parameter_File>
/home/fstefaniak/progs/rDock//data/scripts/dock_solv.prm

>  <Rbt.Receptor>
4xnr.prm

>  <SCORE>
-48.3289

>  <SCORE.INTER>
-26.9728

>  <SCORE.INTER.CONST>
1

>  <SCORE.INTER.POLAR>
-4.72979

>  <SCORE.INTER.ROT>
2

>  <SCORE.INTER.SOLV>
27.2024

>  <SCORE.INTER.VDW>
-16.2167

>  <SCORE.INTER.norm>
-2.69728

>  <SCORE.INTRA>
-0.560918

>  <SCORE.INTRA.DIHEDRAL>
0.18307

>  <SCORE.INTRA.DIHEDRAL.0>
2.37592

>  <SCORE.INTRA.POLAR>
0.835335

>  <SCORE.INTRA.POLAR.0>
-0.835335

>  <SCORE.INTRA.REPUL>
0

>  <SCORE.INTRA.REPUL.0>
0

>  <SCORE.INTRA.SOLV>
-5.80903

>  <SCORE.INTRA.SOLV.lig_0>
-43.0873

>  <SCORE.INTRA.VDW>
-0.58808

>  <SCORE.INTRA.VDW.0>
0.677508

>  <SCORE.INTRA.norm>
-0.0560918

>  <SCORE.RESTR>
0

>  <SCORE.RESTR.CAVITY>
0

>  <SCORE.RESTR.norm>
0

>  <SCORE.SYSTEM>
-20.7951

>  <SCORE.SYSTEM.CONST>
0

>  <SCORE.SYSTEM.DIHEDRAL>
4.14034

>  <SCORE.SYSTEM.POLAR>
-3.00558

>  <SCORE.SYSTEM.SOLV>
0.296597

>  <SCORE.SYSTEM.VDW>
-5.32377

>  <SCORE.SYSTEM.norm>
-2.07951

>  <SCORE.heavy>
10

>  <SCORE.norm>
-4.83289

$$$$
P89999547
 OpenBabel12072022113D
libRbt.so/2013.1/901 2013/11/27
 13 13  0  0  0  0  0  0  0  0999 V2000
    5.6279   18.0294    6.6881 C   0  0  0  0  0  0  0  0  0  0  0  0
    5.2874   17.6358    5.2550 C   0  0  0  0  0  0  0  0  0  0  0  0
    6.3605   18.3632    4.4593 C   0  0  2  0  0  0  0  0  0  0  0  0
    6.3825   19.6914    5.1769 N   0  3  0  0  0  0  0  0  0  0  0  0
    7.2931   20.1282    4.8883 H   0  0  0  0  0  0  0  0  0  0  0  0
    5.6754   20.2699    4.6945 H   0  0  0  0  0  0  0  0  0  0  0  0
    6.0897   19.4801    6.6014 C   0  0  0  0  0  0  0  0  0  0  0  0
    6.0605   18.6244    2.9951 C   0  0  2  0  0  0  0  0  0  0  0  0
    5.3384   17.3579    2.4561 C   0  0  0  0  0  0  0  0  0  0  0  0
    6.0935   16.3542    2.2684 O   0  0  0  0  0  0  0  0  0  0  0  0
    4.1278   17.5407    2.1729 O   0  5  0  0  0  0  0  0  0  0  0  0
    7.3062   18.8010    2.2727 O   0  0  0  0  0  0  0  0  0  0  0  0
    7.0101   19.0479    1.3670 H   0  0  0  0  0  0  0  0  0  0  0  0
  1  2  1  0  0  0  0
  1  7  1  0  0  0  0
  2  3  1  0  0  0  0
  3  4  1  0  0  0  0
  3  8  1  6  0  0  0
  4  5  1  0  0  0  0
  4  6  1  0  0  0  0
  4  7  1  0  0  0  0
  8  9  1  6  0  0  0
  8 12  1  0  0  0  0
  9 10  2  0  0  0  0
  9 11  1  0  0  0  0
 12 13  1  0  0  0  0
M  CHG  2   4   1  11  -1
M  END
>  <CHROM.0>
-58.32200166,-62.05424418,-69.04739733,-46.28905307,-58.22171608,-173.77424924
-66.70119335,-57.87809922,-167.47831626

>  <CHROM.1>
-74.61279029,-174.75439361,-39.18362122,5.88544289,18.20338110,3.97936240
1.46095271,0.79568589,1.29520273

>  <Name>
P89999547

>  <RI>
1.00763e+07

>  <Rbt.Current_Directory>
/home/fstefaniak/projects/zuza/docking/adenine/4XNR

>  <Rbt.Executable>
rbdock ($Id: //depot/dev/client3/rdock/2013.1/src/exe/rbdock.cxx#4 $)

>  <Rbt.Library>
libRbt.so (2013.1, Build901 2013/11/27)

>  <Rbt.Parameter_File>
/home/fstefaniak/progs/rDock//data/scripts/dock_solv.prm

>  <Rbt.Receptor>
4xnr.prm

>  <SCORE>
-48.1484

>  <SCORE.INTER>
-26.7799

>  <SCORE.INTER.CONST>
1

>  <SCORE.INTER.POLAR>
-4.85772

>  <SCORE.INTER.ROT>
2

>  <SCORE.INTER.SOLV>
27.2164

>  <SCORE.INTER.VDW>
-15.6663

>  <SCORE.INTER.norm>
-2.67799

>  <SCORE.INTRA>
-0.716728

>  <SCORE.INTRA.DIHEDRAL>
0.090495

>  <SCORE.INTRA.DIHEDRAL.0>
2.37592

>  <SCORE.INTRA.POLAR>
0.835335

>  <SCORE.INTRA.POLAR.0>
-0.835335

>  <SCORE.INTRA.REPUL>
0

>  <SCORE.INTRA.REPUL.0>
0

>  <SCORE.INTRA.SOLV>
-5.84479

>  <SCORE.INTRA.SOLV.lig_0>
-43.0873

>  <SCORE.INTRA.VDW>
-0.679719

>  <SCORE.INTRA.VDW.0>
0.677508

>  <SCORE.INTRA.norm>
-0.0716728

>  <SCORE.RESTR>
0

>  <SCORE.RESTR.CAVITY>
0

>  <SCORE.RESTR.norm>
0

>  <SCORE.SYSTEM>
-20.6518

>  <SCORE.SYSTEM.CONST>
0

>  <SCORE.SYSTEM.DIHEDRAL>
4.50301

>  <SCORE.SYSTEM.POLAR>
-2.99726

>  <SCORE.SYSTEM.SOLV>
0.17665

>  <SCORE.SYSTEM.VDW>
-5.33685

>  <SCORE.SYSTEM.norm>
-2.06518

>  <SCORE.heavy>
10

>  <SCORE.norm>
-4.81484

$$$$
P89999547
 OpenBabel12072022113D
libRbt.so/2013.1/901 2013/11/27
 13 13  0  0  0  0  0  0  0  0999 V2000
    5.6367   18.0686    6.7250 C   0  0  0  0  0  0  0  0  0  0  0  0
    5.3153   17.6291    5.3009 C   0  0  0  0  0  0  0  0  0  0  0  0
    6.3837   18.3509    4.4938 C   0  0  2  0  0  0  0  0  0  0  0  0
    6.3781   19.6992    5.1734 N   0  3  0  0  0  0  0  0  0  0  0  0
    7.2841   20.1423    4.8802 H   0  0  0  0  0  0  0  0  0  0  0  0
    5.6661   20.2522    4.6688 H   0  0  0  0  0  0  0  0  0  0  0  0
    6.0761   19.5237    6.6009 C   0  0  0  0  0  0  0  0  0  0  0  0
    6.0927   18.5656    3.0203 C   0  0  2  0  0  0  0  0  0  0  0  0
    5.3480   17.2947    2.5242 C   0  0  0  0  0  0  0  0  0  0  0  0
    4.1571   17.4952    2.1310 O   0  0  0  0  0  0  0  0  0  0  0  0
    5.9906   16.2277    2.6899 O   0  5  0  0  0  0  0  0  0  0  0  0
    7.3433   18.6929    2.2963 O   0  0  0  0  0  0  0  0  0  0  0  0
    7.0540   18.9004    1.3785 H   0  0  0  0  0  0  0  0  0  0  0  0
  1  2  1  0  0  0  0
  1  7  1  0  0  0  0
  2  3  1  0  0  0  0
  3  4  1  0  0  0  0
  3  8  1  6  0  0  0
  4  5  1  0  0  0  0
  4  6  1  0  0  0  0
  4  7  1  0  0  0  0
  8  9  1  6  0  0  0
  8 12  1  0  0  0  0
  9 10  2  0  0  0  0
  9 11  1  0  0  0  0
 12 13  1  0  0  0  0
M  CHG  2   4   1  11  -1
M  END
>  <CHROM.0>
-58.66991003,-62.23923105,-62.50647165,-46.53741353,-57.27377888,-57.21695149
-62.89539678,-56.70739801,-167.33371387

>  <CHROM.1>
116.11811588,-175.52948010,-37.10771222,5.88916735,18.16798481,4.04225386
1.43671589,0.83216416,1.29069420

>  <Name>
P89999547

>  <RI>
1.00763e+07

>  <Rbt.Current_Directory>
/home/fstefaniak/projects/zuza/docking/adenine/4XNR

>  <Rbt.Executable>
rbdock ($Id: //depot/dev/client3/rdock/2013.1/src/exe/rbdock.cxx#4 $)

>  <Rbt.Library>
libRbt.so (2013.1, Build901 2013/11/27)

>  <Rbt.Parameter_File>
/home/fstefaniak/progs/rDock//data/scripts/dock_solv.prm

>  <Rbt.Receptor>
4xnr.prm

>  <SCORE>
-47.6069

>  <SCORE.INTER>
-26.8415

>  <SCORE.INTER.CONST>
1

>  <SCORE.INTER.POLAR>
-4.53303

>  <SCORE.INTER.ROT>
2

>  <SCORE.INTER.SOLV>
26.8365

>  <SCORE.INTER.VDW>
-16.6631

>  <SCORE.INTER.norm>
-2.68415

>  <SCORE.INTRA>
-0.20298

>  <SCORE.INTRA.DIHEDRAL>
0.234591

>  <SCORE.INTRA.DIHEDRAL.0>
2.37592

>  <SCORE.INTRA.POLAR>
0.835335

>  <SCORE.INTRA.POLAR.0>
-0.835335

>  <SCORE.INTRA.REPUL>
0

>  <SCORE.INTRA.REPUL.0>
0

>  <SCORE.INTRA.SOLV>
-5.68208

>  <SCORE.INTRA.SOLV.lig_0>
-43.0873

>  <SCORE.INTRA.VDW>
-0.319377

>  <SCORE.INTRA.VDW.0>
0.677508

>  <SCORE.INTRA.norm>
-0.020298

>  <SCORE.RESTR>
0

>  <SCORE.RESTR.CAVITY>
0

>  <SCORE.RESTR.norm>
0

>  <SCORE.SYSTEM>
-20.5624

>  <SCORE.SYSTEM.CONST>
0

>  <SCORE.SYSTEM.DIHEDRAL>
3.89234

>  <SCORE.SYSTEM.POLAR>
-3.01074

>  <SCORE.SYSTEM.SOLV>
0.318134

>  <SCORE.SYSTEM.VDW>
-5.07594

>  <SCORE.SYSTEM.norm>
-2.05624

>  <SCORE.heavy>
10

>  <SCORE.norm>
-4.76069

$$$$
P90009263
 OpenBabel12072022113D
libRbt.so/2013.1/901 2013/11/27
 15 14  0  0  0  0  0  0  0  0999 V2000
    5.3082   17.4791    4.9442 C   0  0  0  0  0  0  0  0  0  0  0  0
    5.1313   17.0480    3.4781 C   0  0  0  0  0  0  0  0  0  0  0  0
    5.0506   15.5150    3.4200 C   0  0  0  0  0  0  0  0  0  0  0  0
    3.8336   17.6637    2.9349 C   0  0  0  0  0  0  0  0  0  0  0  0
    6.3341   17.5384    2.6523 C   0  0  0  0  0  0  0  0  0  0  0  0
    6.8007   16.9164    1.6970 O   0  0  0  0  0  0  0  0  0  0  0  0
    6.8679   18.7488    3.0522 N   0  0  0  0  0  0  0  0  0  0  0  0
    7.8995   18.7186    4.0109 N   0  0  0  0  0  0  0  0  0  0  0  0
    7.6145   19.2676    5.2350 C   0  0  0  0  0  0  0  0  0  0  0  0
    6.6298   19.9545    5.4767 O   0  0  0  0  0  0  0  0  0  0  0  0
    8.5559   18.9930    6.1738 N   0  0  0  0  0  0  0  0  0  0  0  0
    6.3308   19.6146    3.0205 H   0  0  0  0  0  0  0  0  0  0  0  0
    8.4466   17.8587    4.0008 H   0  0  0  0  0  0  0  0  0  0  0  0
    8.7109   19.6942    6.8846 H   0  0  0  0  0  0  0  0  0  0  0  0
    8.5243   18.0395    6.5132 H   0  0  0  0  0  0  0  0  0  0  0  0
  1  2  1  0  0  0  0
  2  3  1  0  0  0  0
  2  4  1  0  0  0  0
  2  5  1  0  0  0  0
  5  6  2  0  0  0  0
  5  7  1  0  0  0  0
  7  8  1  0  0  0  0
  7 12  1  0  0  0  0
  8  9  1  0  0  0  0
  8 13  1  0  0  0  0
  9 10  2  0  0  0  0
  9 11  1  0  0  0  0
 11 14  1  0  0  0  0
 11 15  1  0  0  0  0
M  END
>  <CHROM.0>
-63.14669856,-62.65983546,-68.50055470,-48.02885337,-54.09977628,-62.52634358
-73.56086237,-62.29676565,-168.54347441

>  <CHROM.1>
146.19932778,90.28840203,-113.97719551,-12.11302762,148.08517580,6.38476675
17.99764896,3.93969278,2.25335836,-0.37852428,-2.04977953

>  <Name>
P90009263

>  <RI>
2.22087e+07

>  <Rbt.Current_Directory>
/home/fstefaniak/projects/zuza/docking/adenine/4XNR

>  <Rbt.Executable>
rbdock ($Id: //depot/dev/client3/rdock/2013.1/src/exe/rbdock.cxx#4 $)

>  <Rbt.Library>
libRbt.so (2013.1, Build901 2013/11/27)

>  <Rbt.Parameter_File>
/home/fstefaniak/progs/rDock//data/scripts/dock_solv.prm

>  <Rbt.Receptor>
4xnr.prm

>  <SCORE>
-56.4325

>  <SCORE.INTER>
-37.8465

>  <SCORE.INTER.CONST>
1

>  <SCORE.INTER.POLAR>
-6.82599

>  <SCORE.INTER.ROT>
5

>  <SCORE.INTER.SOLV>
16.1626

>  <SCORE.INTER.VDW>
-14.7986

>  <SCORE.INTER.norm>
-3.4406

>  <SCORE.INTRA>
2.2187

>  <SCORE.INTRA.DIHEDRAL>
1.47651

>  <SCORE.INTRA.DIHEDRAL.0>
2.66295

>  <SCORE.INTRA.POLAR>
0

>  <SCORE.INTRA.POLAR.0>
0

>  <SCORE.INTRA.REPUL>
0

>  <SCORE.INTRA.REPUL.0>
0

>  <SCORE.INTRA.SOLV>
0.974759

>  <SCORE.INTRA.SOLV.lig_0>
-19.4454

>  <SCORE.INTRA.VDW>
0.993065

>  <SCORE.INTRA.VDW.0>
0.712561

>  <SCORE.INTRA.norm>
0.2017

>  <SCORE.RESTR>
0

>  <SCORE.RESTR.CAVITY>
0

>  <SCORE.RESTR.norm>
0

>  <SCORE.SYSTEM>
-20.8047

>  <SCORE.SYSTEM.CONST>
0

>  <SCORE.SYSTEM.DIHEDRAL>
4.80303

>  <SCORE.SYSTEM.POLAR>
-2.94284

>  <SCORE.SYSTEM.SOLV>
0.258647

>  <SCORE.SYSTEM.VDW>
-5.74753

>  <SCORE.SYSTEM.norm>
-1.89133

>  <SCORE.heavy>
11

>  <SCORE.norm>
-5.13023

$$$$
P90009263
 OpenBabel12072022113D
libRbt.so/2013.1/901 2013/11/27
 15 14  0  0  0  0  0  0  0  0999 V2000
    3.8747   17.6369    2.9142 C   0  0  0  0  0  0  0  0  0  0  0  0
    5.1578   17.0156    3.4924 C   0  0  0  0  0  0  0  0  0  0  0  0
    5.2792   17.4177    4.9702 C   0  0  0  0  0  0  0  0  0  0  0  0
    5.0664   15.4878    3.3690 C   0  0  0  0  0  0  0  0  0  0  0  0
    6.3761   17.5364    2.7089 C   0  0  0  0  0  0  0  0  0  0  0  0
    6.8862   16.9307    1.7655 O   0  0  0  0  0  0  0  0  0  0  0  0
    6.8713   18.7548    3.1332 N   0  0  0  0  0  0  0  0  0  0  0  0
    7.9307   18.7377    4.0615 N   0  0  0  0  0  0  0  0  0  0  0  0
    7.6588   19.2340    5.3107 C   0  0  0  0  0  0  0  0  0  0  0  0
    6.6565   19.8750    5.6012 O   0  0  0  0  0  0  0  0  0  0  0  0
    8.6345   18.9634    6.2150 N   0  0  0  0  0  0  0  0  0  0  0  0
    6.2985   19.5980    3.1448 H   0  0  0  0  0  0  0  0  0  0  0  0
    8.5128   17.9026    4.0073 H   0  0  0  0  0  0  0  0  0  0  0  0
    8.8521   19.6891    6.8837 H   0  0  0  0  0  0  0  0  0  0  0  0
    8.5826   18.0284    6.6002 H   0  0  0  0  0  0  0  0  0  0  0  0
  1  2  1  0  0  0  0
  2  3  1  0  0  0  0
  2  4  1  0  0  0  0
  2  5  1  0  0  0  0
  5  6  2  0  0  0  0
  5  7  1  0  0  0  0
  7  8  1  0  0  0  0
  7 12  1  0  0  0  0
  8  9  1  0  0  0  0
  8 13  1  0  0  0  0
  9 10  2  0  0  0  0
  9 11  1  0  0  0  0
 11 14  1  0  0  0  0
 11 15  1  0  0  0  0
M  END
>  <CHROM.0>
-55.38445127,56.26836665,-52.18157893,-52.79385582,-175.50400533,58.92324732
-64.98055488,-63.73846110,-167.80711952

>  <CHROM.1>
-95.32078331,94.24797161,-113.90816946,-12.44103683,141.56203930,6.41862132
17.97474074,3.98242637,2.25564986,-0.36584480,-2.04672270

>  <Name>
P90009263

>  <RI>
2.22087e+07

>  <Rbt.Current_Directory>
/home/fstefaniak/projects/zuza/docking/adenine/4XNR

>  <Rbt.Executable>
rbdock ($Id: //depot/dev/client3/rdock/2013.1/src/exe/rbdock.cxx#4 $)

>  <Rbt.Library>
libRbt.so (2013.1, Build901 2013/11/27)

>  <Rbt.Parameter_File>
/home/fstefaniak/progs/rDock//data/scripts/dock_solv.prm

>  <Rbt.Receptor>
4xnr.prm

>  <SCORE>
-54.4371

>  <SCORE.INTER>
-37.3748

>  <SCORE.INTER.CONST>
1

>  <SCORE.INTER.POLAR>
-6.6262

>  <SCORE.INTER.ROT>
5

>  <SCORE.INTER.SOLV>
16.1117

>  <SCORE.INTER.VDW>
-15.1331

>  <SCORE.INTER.norm>
-3.39771

>  <SCORE.INTRA>
1.51018

>  <SCORE.INTRA.DIHEDRAL>
1.28245

>  <SCORE.INTRA.DIHEDRAL.0>
2.66295

>  <SCORE.INTRA.POLAR>
0

>  <SCORE.INTRA.POLAR.0>
0

>  <SCORE.INTRA.REPUL>
0

>  <SCORE.INTRA.REPUL.0>
0

>  <SCORE.INTRA.SOLV>
0.900105

>  <SCORE.INTRA.SOLV.lig_0>
-19.4454

>  <SCORE.INTRA.VDW>
0.418904

>  <SCORE.INTRA.VDW.0>
0.712561

>  <SCORE.INTRA.norm>
0.137289

>  <SCORE.RESTR>
0

>  <SCORE.RESTR.CAVITY>
0

>  <SCORE.RESTR.norm>
0

>  <SCORE.SYSTEM>
-18.5724

>  <SCORE.SYSTEM.CONST>
0

>  <SCORE.SYSTEM.DIHEDRAL>
3.74827

>  <SCORE.SYSTEM.POLAR>
-2.96566

>  <SCORE.SYSTEM.SOLV>
0.0862799

>  <SCORE.SYSTEM.VDW>
-3.77426

>  <SCORE.SYSTEM.norm>
-1.6884

>  <SCORE.heavy>
11

>  <SCORE.norm>
-4.94883

$$$$
P90009263
 OpenBabel12072022113D
libRbt.so/2013.1/901 2013/11/27
 15 14  0  0  0  0  0  0  0  0999 V2000
    5.0619   15.5434    3.4358 C   0  0  0  0  0  0  0  0  0  0  0  0
    5.1431   17.0780    3.5040 C   0  0  0  0  0  0  0  0  0  0  0  0
    3.8523   17.6680    2.9158 C   0  0  0  0  0  0  0  0  0  0  0  0
    5.2925   17.5004    4.9727 C   0  0  0  0  0  0  0  0  0  0  0  0
    6.3560   17.5626    2.6896 C   0  0  0  0  0  0  0  0  0  0  0  0
    6.8427   16.9275    1.7532 O   0  0  0  0  0  0  0  0  0  0  0  0
    6.8748   18.7835    3.0770 N   0  0  0  0  0  0  0  0  0  0  0  0
    7.9240   18.7747    4.0168 N   0  0  0  0  0  0  0  0  0  0  0  0
    7.6523   19.3244    5.2436 C   0  0  0  0  0  0  0  0  0  0  0  0
    6.7027   20.0606    5.4807 O   0  0  0  0  0  0  0  0  0  0  0  0
    8.5647   18.9890    6.1911 N   0  0  0  0  0  0  0  0  0  0  0  0
    6.3214   19.6394    3.0531 H   0  0  0  0  0  0  0  0  0  0  0  0
    8.4850   17.9238    4.0003 H   0  0  0  0  0  0  0  0  0  0  0  0
    8.7671   19.6832    6.8969 H   0  0  0  0  0  0  0  0  0  0  0  0
    8.4599   18.0437    6.5386 H   0  0  0  0  0  0  0  0  0  0  0  0
  1  2  1  0  0  0  0
  2  3  1  0  0  0  0
  2  4  1  0  0  0  0
  2  5  1  0  0  0  0
  5  6  2  0  0  0  0
  5  7  1  0  0  0  0
  7  8  1  0  0  0  0
  7 12  1  0  0  0  0
  8  9  1  0  0  0  0
  8 13  1  0  0  0  0
  9 10  2  0  0  0  0
  9 11  1  0  0  0  0
 11 14  1  0  0  0  0
 11 15  1  0  0  0  0
M  END
>  <CHROM.0>
-58.14130678,59.85727806,62.91820596,-45.15262733,-56.97532333,-56.56655836
51.82393763,-54.16102780,-168.82825992

>  <CHROM.1>
25.47857695,92.54783981,-114.12663773,-16.62187849,146.36794448,6.40671049
18.03107678,3.95818767,2.25756026,-0.38092134,-2.05864297

>  <Name>
P90009263

>  <RI>
2.22087e+07

>  <Rbt.Current_Directory>
/home/fstefaniak/projects/zuza/docking/adenine/4XNR

>  <Rbt.Executable>
rbdock ($Id: //depot/dev/client3/rdock/2013.1/src/exe/rbdock.cxx#4 $)

>  <Rbt.Library>
libRbt.so (2013.1, Build901 2013/11/27)

>  <Rbt.Parameter_File>
/home/fstefaniak/progs/rDock//data/scripts/dock_solv.prm

>  <Rbt.Receptor>
4xnr.prm

>  <SCORE>
-53.478

>  <SCORE.INTER>
-37.059

>  <SCORE.INTER.CONST>
1

>  <SCORE.INTER.POLAR>
-6.66361

>  <SCORE.INTER.ROT>
5

>  <SCORE.INTER.SOLV>
16.2737

>  <SCORE.INTER.VDW>
-14.8519

>  <SCORE.INTER.norm>
-3.369

>  <SCORE.INTRA>
1.38442

>  <SCORE.INTRA.DIHEDRAL>
1.3887

>  <SCORE.INTRA.DIHEDRAL.0>
2.66295

>  <SCORE.INTRA.POLAR>
0

>  <SCORE.INTRA.POLAR.0>
0

>  <SCORE.INTRA.REPUL>
0

>  <SCORE.INTRA.REPUL.0>
0

>  <SCORE.INTRA.SOLV>
0.917575

>  <SCORE.INTRA.SOLV.lig_0>
-19.4454

>  <SCORE.INTRA.VDW>
0.231282

>  <SCORE.INTRA.VDW.0>
0.712561

>  <SCORE.INTRA.norm>
0.125856

>  <SCORE.RESTR>
0

>  <SCORE.RESTR.CAVITY>
0

>  <SCORE.RESTR.norm>
0

>  <SCORE.SYSTEM>
-17.8034

>  <SCORE.SYSTEM.CONST>
0

>  <SCORE.SYSTEM.DIHEDRAL>
4.30016

>  <SCORE.SYSTEM.POLAR>
-3.0058

>  <SCORE.SYSTEM.SOLV>
0.290008

>  <SCORE.SYSTEM.VDW>
-3.37968

>  <SCORE.SYSTEM.norm>
-1.61849

>  <SCORE.heavy>
11

>  <SCORE.norm>
-4.86164

$$$$
P90543722
 OpenBabel12072022113D
libRbt.so/2013.1/901 2013/11/27
 14 13  0  0  0  0  0  0  0  0999 V2000
    4.4023   15.5449    3.1410 C   0  0  0  0  0  0  0  0  0  0  0  0
    3.3430   15.2183    4.1923 C   0  0  1  0  0  0  0  0  0  0  0  0
    1.9932   15.9332    3.9479 C   0  0  0  0  0  0  0  0  0  0  0  0
    2.0017   17.0023    3.2021 N   0  0  0  0  0  0  0  0  0  0  0  0
    0.7174   17.5679    3.1308 O   0  0  0  0  0  0  0  0  0  0  0  0
    0.8643   15.4501    4.5686 N   0  0  0  0  0  0  0  0  0  0  0  0
    3.1119   13.7708    4.3855 N   0  0  0  0  0  0  0  0  0  0  0  0
    3.3395   13.2782    5.7384 C   0  0  0  0  0  0  0  0  0  0  0  0
    2.5246   13.0157    3.3796 C   0  0  0  0  0  0  0  0  0  0  0  0
    2.1084   13.5096    2.3291 O   0  0  0  0  0  0  0  0  0  0  0  0
    2.3802   11.5332    3.6137 C   0  0  0  0  0  0  0  0  0  0  0  0
    0.4384   17.3291    2.2277 H   0  0  0  0  0  0  0  0  0  0  0  0
    0.8114   15.7020    5.5607 H   0  0  0  0  0  0  0  0  0  0  0  0
    0.0301   15.7086    4.0523 H   0  0  0  0  0  0  0  0  0  0  0  0
  2  1  1  6  0  0  0
  2  3  1  0  0  0  0
  2  7  1  0  0  0  0
  3  4  2  0  0  0  0
  3  6  1  0  0  0  0
  4  5  1  0  0  0  0
  5 12  1  0  0  0  0
  6 13  1  0  0  0  0
  6 14  1  0  0  0  0
  7  8  1  0  0  0  0
  7  9  1  0  0  0  0
  9 10  2  0  0  0  0
  9 11  1  0  0  0  0
M  END
>  <CHROM.0>
-56.06837242,-175.18630602,-62.56699390,-46.27700997,-174.39248293,57.77844231
-68.53513147,-56.95507399,-167.54266087

>  <CHROM.1>
-21.20602675,121.25415524,76.81116584,-106.06311097,2.38836827,14.73956045
3.76898189,-1.91031663,0.37779005,3.12740395

>  <Name>
P90543722

>  <RI>
1.00763e+07

>  <Rbt.Current_Directory>
/home/fstefaniak/projects/zuza/docking/adenine/4XNR

>  <Rbt.Executable>
rbdock ($Id: //depot/dev/client3/rdock/2013.1/src/exe/rbdock.cxx#4 $)

>  <Rbt.Library>
libRbt.so (2013.1, Build901 2013/11/27)

>  <Rbt.Parameter_File>
/home/fstefaniak/progs/rDock//data/scripts/dock_solv.prm

>  <Rbt.Receptor>
4xnr.prm

>  <SCORE>
-45.5252

>  <SCORE.INTER>
-28.4724

>  <SCORE.INTER.CONST>
1

>  <SCORE.INTER.POLAR>
-4.16638

>  <SCORE.INTER.ROT>
3

>  <SCORE.INTER.SOLV>
9.41605

>  <SCORE.INTER.VDW>
-13.8323

>  <SCORE.INTER.norm>
-2.5884

>  <SCORE.INTRA>
1.98432

>  <SCORE.INTRA.DIHEDRAL>
-1.64212

>  <SCORE.INTRA.DIHEDRAL.0>
4.57691

>  <SCORE.INTRA.POLAR>
0.747536

>  <SCORE.INTRA.POLAR.0>
-0.747536

>  <SCORE.INTRA.REPUL>
0

>  <SCORE.INTRA.REPUL.0>
0

>  <SCORE.INTRA.SOLV>
-0.0219269

>  <SCORE.INTRA.SOLV.lig_0>
-11.6591

>  <SCORE.INTRA.VDW>
0.274722

>  <SCORE.INTRA.VDW.0>
-0.80116

>  <SCORE.INTRA.norm>
0.180393

>  <SCORE.RESTR>
0.541848

>  <SCORE.RESTR.CAVITY>
0.541848

>  <SCORE.RESTR.norm>
0.0492589

>  <SCORE.SYSTEM>
-19.579

>  <SCORE.SYSTEM.CONST>
0

>  <SCORE.SYSTEM.DIHEDRAL>
4.43

>  <SCORE.SYSTEM.POLAR>
-3.02433

>  <SCORE.SYSTEM.SOLV>
-0.0286201

>  <SCORE.SYSTEM.VDW>
-4.4387

>  <SCORE.SYSTEM.norm>
-1.77991

>  <SCORE.heavy>
11

>  <SCORE.norm>
-4.13866

$$$$
P90543722
 OpenBabel12072022113D
libRbt.so/2013.1/901 2013/11/27
 14 13  0  0  0  0  0  0  0  0999 V2000
    5.1388   15.4618    3.5196 C   0  0  0  0  0  0  0  0  0  0  0  0
    5.5362   16.8642    3.0621 C   0  0  1  0  0  0  0  0  0  0  0  0
    4.5173   17.5061    2.0913 C   0  0  0  0  0  0  0  0  0  0  0  0
    3.3102   17.7183    2.5353 N   0  0  0  0  0  0  0  0  0  0  0  0
    2.4927   18.2420    1.5195 O   0  0  0  0  0  0  0  0  0  0  0  0
    4.9069   17.7682    0.7980 N   0  0  0  0  0  0  0  0  0  0  0  0
    5.8262   17.7998    4.1696 N   0  0  0  0  0  0  0  0  0  0  0  0
    5.1122   17.5352    5.4126 C   0  0  0  0  0  0  0  0  0  0  0  0
    6.8597   18.7196    4.0559 C   0  0  0  0  0  0  0  0  0  0  0  0
    7.6176   18.7569    3.0839 O   0  0  0  0  0  0  0  0  0  0  0  0
    7.0584   19.6901    5.1927 C   0  0  0  0  0  0  0  0  0  0  0  0
    2.2658   19.1219    1.8726 H   0  0  0  0  0  0  0  0  0  0  0  0
    4.2268   17.4499    0.1004 H   0  0  0  0  0  0  0  0  0  0  0  0
    5.1558   18.7454    0.6872 H   0  0  0  0  0  0  0  0  0  0  0  0
  2  1  1  1  0  0  0
  2  3  1  0  0  0  0
  2  7  1  0  0  0  0
  3  4  2  0  0  0  0
  3  6  1  0  0  0  0
  4  5  1  0  0  0  0
  5 12  1  0  0  0  0
  6 13  1  0  0  0  0
  6 14  1  0  0  0  0
  7  8  1  0  0  0  0
  7  9  1  0  0  0  0
  9 10  2  0  0  0  0
  9 11  1  0  0  0  0
M  END
>  <CHROM.0>
-58.62397637,-60.74740391,-67.47651554,-46.34958822,-174.00328487,-178.28995074
-70.09285198,-62.25819851,-168.18905260

>  <CHROM.1>
62.31190556,-28.73030102,132.67049881,-116.74286914,5.27152407,17.84608518
3.18798499,2.73845040,-0.63613823,-0.97736875

>  <Name>
P90543722

>  <RI>
1.00763e+07

>  <Rbt.Current_Directory>
/home/fstefaniak/projects/zuza/docking/adenine/4XNR

>  <Rbt.Executable>
rbdock ($Id: //depot/dev/client3/rdock/2013.1/src/exe/rbdock.cxx#4 $)

>  <Rbt.Library>
libRbt.so (2013.1, Build901 2013/11/27)

>  <Rbt.Parameter_File>
/home/fstefaniak/progs/rDock//data/scripts/dock_solv.prm

>  <Rbt.Receptor>
4xnr.prm

>  <SCORE>
-43.1083

>  <SCORE.INTER>
-28.817

>  <SCORE.INTER.CONST>
1

>  <SCORE.INTER.POLAR>
-4.66466

>  <SCORE.INTER.ROT>
3

>  <SCORE.INTER.SOLV>
13.2559

>  <SCORE.INTER.VDW>
-13.6811

>  <SCORE.INTER.norm>
-2.61973

>  <SCORE.INTRA>
6.45385

>  <SCORE.INTRA.DIHEDRAL>
-1.24692

>  <SCORE.INTRA.DIHEDRAL.0>
4.57691

>  <SCORE.INTRA.POLAR>
0.747536

>  <SCORE.INTRA.POLAR.0>
-0.747536

>  <SCORE.INTRA.REPUL>
0

>  <SCORE.INTRA.REPUL.0>
0

>  <SCORE.INTRA.SOLV>
-0.9474

>  <SCORE.INTRA.SOLV.lig_0>
-11.6591

>  <SCORE.INTRA.VDW>
5.00939

>  <SCORE.INTRA.VDW.0>
-0.80116

>  <SCORE.INTRA.norm>
0.586714

>  <SCORE.RESTR>
0

>  <SCORE.RESTR.CAVITY>
0

>  <SCORE.RESTR.norm>
0

>  <SCORE.SYSTEM>
-20.7452

>  <SCORE.SYSTEM.CONST>
0

>  <SCORE.SYSTEM.DIHEDRAL>
4.52635

>  <SCORE.SYSTEM.POLAR>
-2.99107

>  <SCORE.SYSTEM.SOLV>
-0.0115985

>  <SCORE.SYSTEM.VDW>
-5.36478

>  <SCORE.SYSTEM.norm>
-1.88592

>  <SCORE.heavy>
11

>  <SCORE.norm>
-3.91894

$$$$
P90543722
 OpenBabel12072022113D
libRbt.so/2013.1/901 2013/11/27
 14 13  0  0  0  0  0  0  0  0999 V2000
    4.0422   14.7757    3.8280 C   0  0  0  0  0  0  0  0  0  0  0  0
    3.8740   16.1710    3.2289 C   0  0  1  0  0  0  0  0  0  0  0  0
    2.4592   16.7617    3.4336 C   0  0  0  0  0  0  0  0  0  0  0  0
    1.7460   16.2945    4.4197 N   0  0  0  0  0  0  0  0  0  0  0  0
    0.4699   16.8826    4.4314 O   0  0  0  0  0  0  0  0  0  0  0  0
    1.9967   17.7015    2.5414 N   0  0  0  0  0  0  0  0  0  0  0  0
    4.8905   17.1463    3.6780 N   0  0  0  0  0  0  0  0  0  0  0  0
    4.8978   17.4250    5.1088 C   0  0  0  0  0  0  0  0  0  0  0  0
    5.8766   17.5819    2.8034 C   0  0  0  0  0  0  0  0  0  0  0  0
    5.9998   17.1374    1.6598 O   0  0  0  0  0  0  0  0  0  0  0  0
    6.8403   18.6281    3.3035 C   0  0  0  0  0  0  0  0  0  0  0  0
   -0.1080   16.1219    4.2372 H   0  0  0  0  0  0  0  0  0  0  0  0
    1.0029   17.5890    2.3174 H   0  0  0  0  0  0  0  0  0  0  0  0
    2.2257   18.6391    2.8539 H   0  0  0  0  0  0  0  0  0  0  0  0
  2  1  1  1  0  0  0
  2  3  1  0  0  0  0
  2  7  1  0  0  0  0
  3  4  2  0  0  0  0
  3  6  1  0  0  0  0
  4  5  1  0  0  0  0
  5 12  1  0  0  0  0
  6 13  1  0  0  0  0
  6 14  1  0  0  0  0
  7  8  1  0  0  0  0
  7  9  1  0  0  0  0
  9 10  2  0  0  0  0
  9 11  1  0  0  0  0
M  END
>  <CHROM.0>
-60.61314563,61.66361685,-56.95418820,-47.42466897,57.46565864,-62.82497668
-67.31327321,61.76598992,-168.27280577

>  <CHROM.1>
23.04793560,-62.17956008,141.06970757,114.48306090,3.86579652,16.96503805
3.49861079,-2.84834922,0.05023721,-0.63170039

>  <Name>
P90543722

>  <RI>
1.00763e+07

>  <Rbt.Current_Directory>
/home/fstefaniak/projects/zuza/docking/adenine/4XNR

>  <Rbt.Executable>
rbdock ($Id: //depot/dev/client3/rdock/2013.1/src/exe/rbdock.cxx#4 $)

>  <Rbt.Library>
libRbt.so (2013.1, Build901 2013/11/27)

>  <Rbt.Parameter_File>
/home/fstefaniak/progs/rDock//data/scripts/dock_solv.prm

>  <Rbt.Receptor>
4xnr.prm

>  <SCORE>
-43.108

>  <SCORE.INTER>
-28.5331

>  <SCORE.INTER.CONST>
1

>  <SCORE.INTER.POLAR>
-5.02303

>  <SCORE.INTER.ROT>
3

>  <SCORE.INTER.SOLV>
10.9561

>  <SCORE.INTER.VDW>
-11.5307

>  <SCORE.INTER.norm>
-2.59392

>  <SCORE.INTRA>
3.29659

>  <SCORE.INTRA.DIHEDRAL>
-1.60027

>  <SCORE.INTRA.DIHEDRAL.0>
4.57691

>  <SCORE.INTRA.POLAR>
0.747536

>  <SCORE.INTRA.POLAR.0>
-0.747536

>  <SCORE.INTRA.REPUL>
0

>  <SCORE.INTRA.REPUL.0>
0

>  <SCORE.INTRA.SOLV>
-1.00156

>  <SCORE.INTRA.SOLV.lig_0>
-11.6591

>  <SCORE.INTRA.VDW>
2.05589

>  <SCORE.INTRA.VDW.0>
-0.80116

>  <SCORE.INTRA.norm>
0.29969

>  <SCORE.RESTR>
0

>  <SCORE.RESTR.CAVITY>
0

>  <SCORE.RESTR.norm>
0

>  <SCORE.SYSTEM>
-17.8715

>  <SCORE.SYSTEM.CONST>
0

>  <SCORE.SYSTEM.DIHEDRAL>
3.85473

>  <SCORE.SYSTEM.POLAR>
-2.97859

>  <SCORE.SYSTEM.SOLV>
-0.0198892

>  <SCORE.SYSTEM.VDW>
-3.26396

>  <SCORE.SYSTEM.norm>
-1.62468

>  <SCORE.heavy>
11

>  <SCORE.norm>
-3.91891

$$$$
P90563101
 OpenBabel12072022113D
libRbt.so/2013.1/901 2013/11/27
 13 13  0  0  0  0  0  0  0  0999 V2000
    3.4770   16.6019    3.6467 C   0  0  0  0  0  0  0  0  0  0  0  0
    4.8967   16.3854    3.1622 C   0  0  1  0  0  0  0  0  0  0  0  0
    5.1940   17.3026    2.1073 O   0  0  0  0  0  0  0  0  0  0  0  0
    6.5646   17.6409    2.3239 C   0  0  0  0  0  0  0  0  0  0  0  0
    6.6930   17.6301    3.8317 C   0  0  2  0  0  0  0  0  0  0  0  0
    5.8185   16.5707    4.2441 O   0  0  0  0  0  0  0  0  0  0  0  0
    6.2716   18.9672    4.4630 C   0  0  1  0  0  0  0  0  0  0  0  0
    6.7045   19.0559    5.9392 C   0  0  0  0  0  0  0  0  0  0  0  0
    8.1695   18.9632    6.0690 N   0  0  0  0  0  0  0  0  0  0  0  0
    6.8627   20.0538    3.7360 O   0  0  0  0  0  0  0  0  0  0  0  0
    8.3973   18.0422    6.4488 H   0  0  0  0  0  0  0  0  0  0  0  0
    8.4678   19.6197    6.7926 H   0  0  0  0  0  0  0  0  0  0  0  0
    6.7792   20.8147    4.3441 H   0  0  0  0  0  0  0  0  0  0  0  0
  2  1  1  1  0  0  0
  2  3  1  0  0  0  0
  2  6  1  0  0  0  0
  3  4  1  0  0  0  0
  4  5  1  0  0  0  0
  5  6  1  0  0  0  0
  5  7  1  1  0  0  0
  7  8  1  1  0  0  0
  7 10  1  0  0  0  0
  8  9  1  0  0  0  0
  9 11  1  0  0  0  0
  9 12  1  0  0  0  0
 10 13  1  0  0  0  0
M  END
>  <CHROM.0>
-55.91378517,-61.93457396,-70.26289123,-45.22244107,-57.29405415,-173.86953347
-66.68095856,-172.52300639,-167.09443465

>  <CHROM.1>
-167.03253580,60.84062669,-163.19625745,-106.69821238,6.08250270,17.94800045
3.96818916,2.71412204,-0.83876628,-1.36554226

>  <Name>
P90563101

>  <RI>
1.34432e+07

>  <Rbt.Current_Directory>
/home/fstefaniak/projects/zuza/docking/adenine/4XNR

>  <Rbt.Executable>
rbdock ($Id: //depot/dev/client3/rdock/2013.1/src/exe/rbdock.cxx#4 $)

>  <Rbt.Library>
libRbt.so (2013.1, Build901 2013/11/27)

>  <Rbt.Parameter_File>
/home/fstefaniak/progs/rDock//data/scripts/dock_solv.prm

>  <Rbt.Receptor>
4xnr.prm

>  <SCORE>
-49.9657

>  <SCORE.INTER>
-31.7756

>  <SCORE.INTER.CONST>
1

>  <SCORE.INTER.POLAR>
-4.55998

>  <SCORE.INTER.ROT>
3

>  <SCORE.INTER.SOLV>
12.0473

>  <SCORE.INTER.VDW>
-15.5996

>  <SCORE.INTER.norm>
-3.17756

>  <SCORE.INTRA>
2.33765

>  <SCORE.INTRA.DIHEDRAL>
2.59125

>  <SCORE.INTRA.DIHEDRAL.0>
1.26769

>  <SCORE.INTRA.POLAR>
0.0804359

>  <SCORE.INTRA.POLAR.0>
-0.0804359

>  <SCORE.INTRA.REPUL>
0

>  <SCORE.INTRA.REPUL.0>
0

>  <SCORE.INTRA.SOLV>
0.289963

>  <SCORE.INTRA.SOLV.lig_0>
-12.8831

>  <SCORE.INTRA.VDW>
0.623561

>  <SCORE.INTRA.VDW.0>
-0.267487

>  <SCORE.INTRA.norm>
0.233765

>  <SCORE.RESTR>
0

>  <SCORE.RESTR.CAVITY>
0

>  <SCORE.RESTR.norm>
0

>  <SCORE.SYSTEM>
-20.5277

>  <SCORE.SYSTEM.CONST>
0

>  <SCORE.SYSTEM.DIHEDRAL>
5.08184

>  <SCORE.SYSTEM.POLAR>
-3.02991

>  <SCORE.SYSTEM.SOLV>
0.0418081

>  <SCORE.SYSTEM.VDW>
-5.2933

>  <SCORE.SYSTEM.norm>
-2.05277

>  <SCORE.heavy>
10

>  <SCORE.norm>
-4.99657

$$$$
P90563101
 OpenBabel12072022113D
libRbt.so/2013.1/901 2013/11/27
 13 13  0  0  0  0  0  0  0  0999 V2000
    3.5046   16.6086    3.6143 C   0  0  0  0  0  0  0  0  0  0  0  0
    4.9271   16.3982    3.1353 C   0  0  1  0  0  0  0  0  0  0  0  0
    5.2269   17.3216    2.0864 O   0  0  0  0  0  0  0  0  0  0  0  0
    6.5956   17.6623    2.3111 C   0  0  0  0  0  0  0  0  0  0  0  0
    6.7170   17.6442    3.8194 C   0  0  2  0  0  0  0  0  0  0  0  0
    5.8434   16.5804    4.2224 O   0  0  0  0  0  0  0  0  0  0  0  0
    6.2891   18.9770    4.4556 C   0  0  1  0  0  0  0  0  0  0  0  0
    6.7109   19.0573    5.9355 C   0  0  0  0  0  0  0  0  0  0  0  0
    8.1739   18.9504    6.0769 N   0  0  0  0  0  0  0  0  0  0  0  0
    6.8842   20.0686    3.7395 O   0  0  0  0  0  0  0  0  0  0  0  0
    8.3899   18.0258    6.4547 H   0  0  0  0  0  0  0  0  0  0  0  0
    8.4723   19.6012    6.8055 H   0  0  0  0  0  0  0  0  0  0  0  0
    6.7755   20.8305    4.3423 H   0  0  0  0  0  0  0  0  0  0  0  0
  2  1  1  1  0  0  0
  2  3  1  0  0  0  0
  2  6  1  0  0  0  0
  3  4  1  0  0  0  0
  4  5  1  0  0  0  0
  5  6  1  0  0  0  0
  5  7  1  1  0  0  0
  7  8  1  1  0  0  0
  7 10  1  0  0  0  0
  8  9  1  0  0  0  0
  9 11  1  0  0  0  0
  9 12  1  0  0  0  0
 10 13  1  0  0  0  0
M  END
>  <CHROM.0>
-60.84420907,-173.42317112,-75.27880780,-49.52053179,-64.41176561,-61.18487121
-174.02690363,-58.04830759,-167.93440569

>  <CHROM.1>
-167.21938843,60.20021852,-164.54001869,-106.63016561,6.10424537,17.95748571
3.95579754,2.70876340,-0.84282655,-1.36148453

>  <Name>
P90563101

>  <RI>
1.34432e+07

>  <Rbt.Current_Directory>
/home/fstefaniak/projects/zuza/docking/adenine/4XNR

>  <Rbt.Executable>
rbdock ($Id: //depot/dev/client3/rdock/2013.1/src/exe/rbdock.cxx#4 $)

>  <Rbt.Library>
libRbt.so (2013.1, Build901 2013/11/27)

>  <Rbt.Parameter_File>
/home/fstefaniak/progs/rDock//data/scripts/dock_solv.prm

>  <Rbt.Receptor>
4xnr.prm

>  <SCORE>
-49.8329

>  <SCORE.INTER>
-31.8734

>  <SCORE.INTER.CONST>
1

>  <SCORE.INTER.POLAR>
-4.53867

>  <SCORE.INTER.ROT>
3

>  <SCORE.INTER.SOLV>
12.0337

>  <SCORE.INTER.VDW>
-15.7312

>  <SCORE.INTER.norm>
-3.18734

>  <SCORE.INTRA>
2.17213

>  <SCORE.INTRA.DIHEDRAL>
2.38118

>  <SCORE.INTRA.DIHEDRAL.0>
1.26769

>  <SCORE.INTRA.POLAR>
0.0804359

>  <SCORE.INTRA.POLAR.0>
-0.0804359

>  <SCORE.INTRA.REPUL>
0

>  <SCORE.INTRA.REPUL.0>
0

>  <SCORE.INTRA.SOLV>
0.288134

>  <SCORE.INTRA.SOLV.lig_0>
-12.8831

>  <SCORE.INTRA.VDW>
0.563986

>  <SCORE.INTRA.VDW.0>
-0.267487

>  <SCORE.INTRA.norm>
0.217213

>  <SCORE.RESTR>
0

>  <SCORE.RESTR.CAVITY>
0

>  <SCORE.RESTR.norm>
0

>  <SCORE.SYSTEM>
-20.1317

>  <SCORE.SYSTEM.CONST>
0

>  <SCORE.SYSTEM.DIHEDRAL>
4.78515

>  <SCORE.SYSTEM.POLAR>
-2.90214

>  <SCORE.SYSTEM.SOLV>
0.185858

>  <SCORE.SYSTEM.VDW>
-5.40432

>  <SCORE.SYSTEM.norm>
-2.01317

>  <SCORE.heavy>
10

>  <SCORE.norm>
-4.98329

$$$$
P90563101
 OpenBabel12072022113D
libRbt.so/2013.1/901 2013/11/27
 13 13  0  0  0  0  0  0  0  0999 V2000
    3.4629   16.6283    3.5763 C   0  0  0  0  0  0  0  0  0  0  0  0
    4.8925   16.3961    3.1299 C   0  0  1  0  0  0  0  0  0  0  0  0
    5.2281   17.3100    2.0836 O   0  0  0  0  0  0  0  0  0  0  0  0
    6.5961   17.6331    2.3369 C   0  0  0  0  0  0  0  0  0  0  0  0
    6.6839   17.6209    3.8476 C   0  0  2  0  0  0  0  0  0  0  0  0
    5.7871   16.5711    4.2362 O   0  0  0  0  0  0  0  0  0  0  0  0
    6.2605   18.9625    4.4679 C   0  0  1  0  0  0  0  0  0  0  0  0
    6.6977   19.0661    5.9419 C   0  0  0  0  0  0  0  0  0  0  0  0
    8.1617   18.9556    6.0701 N   0  0  0  0  0  0  0  0  0  0  0  0
    6.8462   20.0440    3.7290 O   0  0  0  0  0  0  0  0  0  0  0  0
    8.3796   18.0251    6.4322 H   0  0  0  0  0  0  0  0  0  0  0  0
    8.4665   19.5949    6.8062 H   0  0  0  0  0  0  0  0  0  0  0  0
    6.7838   20.8050    4.3396 H   0  0  0  0  0  0  0  0  0  0  0  0
  2  1  1  1  0  0  0
  2  3  1  0  0  0  0
  2  6  1  0  0  0  0
  3  4  1  0  0  0  0
  4  5  1  0  0  0  0
  5  6  1  0  0  0  0
  5  7  1  1  0  0  0
  7  8  1  1  0  0  0
  7 10  1  0  0  0  0
  8  9  1  0  0  0  0
  9 11  1  0  0  0  0
  9 12  1  0  0  0  0
 10 13  1  0  0  0  0
M  END
>  <CHROM.0>
-53.32696569,-169.29298192,-70.70086227,-45.27815915,-175.04349699,-58.59154028
-171.28622221,-61.00299396,-169.39086776

>  <CHROM.1>
-165.06691636,59.86373186,-161.75179037,-104.77954382,6.07893034,17.94935142
3.95734759,2.69705498,-0.83532885,-1.37488480

>  <Name>
P90563101

>  <RI>
1.34432e+07

>  <Rbt.Current_Directory>
/home/fstefaniak/projects/zuza/docking/adenine/4XNR

>  <Rbt.Executable>
rbdock ($Id: //depot/dev/client3/rdock/2013.1/src/exe/rbdock.cxx#4 $)

>  <Rbt.Library>
libRbt.so (2013.1, Build901 2013/11/27)

>  <Rbt.Parameter_File>
/home/fstefaniak/progs/rDock//data/scripts/dock_solv.prm

>  <Rbt.Receptor>
4xnr.prm

>  <SCORE>
-49.4975

>  <SCORE.INTER>
-32.3199

>  <SCORE.INTER.CONST>
1

>  <SCORE.INTER.POLAR>
-4.61782

>  <SCORE.INTER.ROT>
3

>  <SCORE.INTER.SOLV>
11.9647

>  <SCORE.INTER.VDW>
-15.7421

>  <SCORE.INTER.norm>
-3.23199

>  <SCORE.INTRA>
2.60539

>  <SCORE.INTRA.DIHEDRAL>
2.88555

>  <SCORE.INTRA.DIHEDRAL.0>
1.26769

>  <SCORE.INTRA.POLAR>
0.0804359

>  <SCORE.INTRA.POLAR.0>
-0.0804359

>  <SCORE.INTRA.REPUL>
0

>  <SCORE.INTRA.REPUL.0>
0

>  <SCORE.INTRA.SOLV>
0.30145

>  <SCORE.INTRA.SOLV.lig_0>
-12.8831

>  <SCORE.INTRA.VDW>
0.738407

>  <SCORE.INTRA.VDW.0>
-0.267487

>  <SCORE.INTRA.norm>
0.260539

>  <SCORE.RESTR>
0

>  <SCORE.RESTR.CAVITY>
0

>  <SCORE.RESTR.norm>
0

>  <SCORE.SYSTEM>
-19.783

>  <SCORE.SYSTEM.CONST>
0

>  <SCORE.SYSTEM.DIHEDRAL>
5.34326

>  <SCORE.SYSTEM.POLAR>
-3.01829

>  <SCORE.SYSTEM.SOLV>
0.0475025

>  <SCORE.SYSTEM.VDW>
-4.92463

>  <SCORE.SYSTEM.norm>
-1.9783

>  <SCORE.heavy>
10

>  <SCORE.norm>
-4.94975

$$$$
P90832059
 OpenBabel12072022113D
libRbt.so/2013.1/901 2013/11/27
 14 13  0  0  0  0  0  0  0  0999 V2000
    6.4808   19.7119    5.3043 C   0  0  0  0  0  0  0  0  0  0  0  0
    6.0721   18.2584    5.1245 C   0  0  2  0  0  0  0  0  0  0  0  0
    5.0558   18.0980    3.9826 C   0  0  0  0  0  0  0  0  0  0  0  0
    4.9115   16.6934    3.5801 N   0  0  0  0  0  0  0  0  0  0  0  0
    3.6460   16.0854    3.6405 C   0  0  0  0  0  0  0  0  0  0  0  0
    2.6351   16.6506    4.0424 O   0  0  0  0  0  0  0  0  0  0  0  0
    3.6595   14.7790    3.1887 N   0  0  0  0  0  0  0  0  0  0  0  0
    3.2815   13.7126    4.0814 C   0  0  0  0  0  0  0  0  0  0  0  0
    5.9655   16.1255    2.8021 N   0  0  0  0  0  0  0  0  0  0  0  0
    5.4903   17.8127    6.3556 O   0  0  0  0  0  0  0  0  0  0  0  0
    4.4165   14.5888    2.5507 H   0  0  0  0  0  0  0  0  0  0  0  0
    6.3369   15.3235    3.3223 H   0  0  0  0  0  0  0  0  0  0  0  0
    6.7157   16.8167    2.7430 H   0  0  0  0  0  0  0  0  0  0  0  0
    6.2519   17.6316    6.9462 H   0  0  0  0  0  0  0  0  0  0  0  0
  2  3  1  0  0  0  0
  2 10  1  0  0  0  0
  2  1  1  1  0  0  0
  3  4  1  0  0  0  0
  4  5  1  0  0  0  0
  4  9  1  0  0  0  0
  5  6  2  0  0  0  0
  5  7  1  0  0  0  0
  7  8  1  0  0  0  0
  7 11  1  0  0  0  0
  9 12  1  0  0  0  0
  9 13  1  0  0  0  0
 10 14  1  0  0  0  0
M  END
>  <CHROM.0>
-57.88099708,-171.75352235,-75.63371601,-44.19240545,179.91037503,-63.30454436
-173.05382103,-173.50564676,-168.20810977

>  <CHROM.1>
165.73709145,-78.54526382,121.88326758,120.90195147,119.27894440,4.74294556
16.78419483,4.23652548,-0.92214576,-0.55806897,-2.33876852

>  <Name>
P90832059

>  <RI>
2.22087e+07

>  <Rbt.Current_Directory>
/home/fstefaniak/projects/zuza/docking/adenine/4XNR

>  <Rbt.Executable>
rbdock ($Id: //depot/dev/client3/rdock/2013.1/src/exe/rbdock.cxx#4 $)

>  <Rbt.Library>
libRbt.so (2013.1, Build901 2013/11/27)

>  <Rbt.Parameter_File>
/home/fstefaniak/progs/rDock//data/scripts/dock_solv.prm

>  <Rbt.Receptor>
4xnr.prm

>  <SCORE>
-52.525

>  <SCORE.INTER>
-34.3656

>  <SCORE.INTER.CONST>
1

>  <SCORE.INTER.POLAR>
-4.6125

>  <SCORE.INTER.ROT>
4

>  <SCORE.INTER.SOLV>
14.0827

>  <SCORE.INTER.VDW>
-18.4963

>  <SCORE.INTER.norm>
-3.43656

>  <SCORE.INTRA>
1.883

>  <SCORE.INTRA.DIHEDRAL>
0.79786

>  <SCORE.INTRA.DIHEDRAL.0>
3.75292

>  <SCORE.INTRA.POLAR>
0.831343

>  <SCORE.INTRA.POLAR.0>
-0.977921

>  <SCORE.INTRA.REPUL>
0

>  <SCORE.INTRA.REPUL.0>
0

>  <SCORE.INTRA.SOLV>
-0.728755

>  <SCORE.INTRA.SOLV.lig_0>
-18.0346

>  <SCORE.INTRA.VDW>
-0.978117

>  <SCORE.INTRA.VDW.0>
0.4821

>  <SCORE.INTRA.norm>
0.1883

>  <SCORE.RESTR>
0

>  <SCORE.RESTR.CAVITY>
0

>  <SCORE.RESTR.norm>
0

>  <SCORE.SYSTEM>
-20.0424

>  <SCORE.SYSTEM.CONST>
0

>  <SCORE.SYSTEM.DIHEDRAL>
5.73888

>  <SCORE.SYSTEM.POLAR>
-2.99961

>  <SCORE.SYSTEM.SOLV>
-0.110556

>  <SCORE.SYSTEM.VDW>
-5.23897

>  <SCORE.SYSTEM.norm>
-2.00424

>  <SCORE.heavy>
10

>  <SCORE.norm>
-5.2525

$$$$
P90832059
 OpenBabel12072022113D
libRbt.so/2013.1/901 2013/11/27
 14 13  0  0  0  0  0  0  0  0999 V2000
    6.6890   19.5447    5.1548 C   0  0  0  0  0  0  0  0  0  0  0  0
    6.0091   18.1845    5.1520 C   0  0  2  0  0  0  0  0  0  0  0  0
    5.1112   18.0081    3.9170 C   0  0  0  0  0  0  0  0  0  0  0  0
    4.9180   16.5907    3.5866 N   0  0  0  0  0  0  0  0  0  0  0  0
    3.6366   16.0250    3.6990 C   0  0  0  0  0  0  0  0  0  0  0  0
    2.6506   16.6394    4.0904 O   0  0  0  0  0  0  0  0  0  0  0  0
    3.6031   14.6983    3.3117 N   0  0  0  0  0  0  0  0  0  0  0  0
    3.2024   13.6895    4.2597 C   0  0  0  0  0  0  0  0  0  0  0  0
    5.9399   15.9540    2.8190 N   0  0  0  0  0  0  0  0  0  0  0  0
    5.2179   18.0892    6.3426 O   0  0  0  0  0  0  0  0  0  0  0  0
    4.3458   14.4530    2.6758 H   0  0  0  0  0  0  0  0  0  0  0  0
    6.3441   15.2103    3.3980 H   0  0  0  0  0  0  0  0  0  0  0  0
    6.6790   16.6402    2.6552 H   0  0  0  0  0  0  0  0  0  0  0  0
    4.7351   17.2397    6.2600 H   0  0  0  0  0  0  0  0  0  0  0  0
  2  3  1  0  0  0  0
  2 10  1  0  0  0  0
  2  1  1  6  0  0  0
  3  4  1  0  0  0  0
  4  5  1  0  0  0  0
  4  9  1  0  0  0  0
  5  6  2  0  0  0  0
  5  7  1  0  0  0  0
  7  8  1  0  0  0  0
  7 11  1  0  0  0  0
  9 12  1  0  0  0  0
  9 13  1  0  0  0  0
 10 14  1  0  0  0  0
M  END
>  <CHROM.0>
-55.68566689,-54.51273339,-64.96145665,-44.99698471,-57.92113763,-62.37082336
-66.44593242,-58.62484424,-169.29815012

>  <CHROM.1>
155.61272761,174.86479105,114.34047817,116.86942229,119.68575967,4.70890224
16.73419154,4.25425446,-0.91948051,-0.54182415,-2.39223972

>  <Name>
P90832059

>  <RI>
2.22087e+07

>  <Rbt.Current_Directory>
/home/fstefaniak/projects/zuza/docking/adenine/4XNR

>  <Rbt.Executable>
rbdock ($Id: //depot/dev/client3/rdock/2013.1/src/exe/rbdock.cxx#4 $)

>  <Rbt.Library>
libRbt.so (2013.1, Build901 2013/11/27)

>  <Rbt.Parameter_File>
/home/fstefaniak/progs/rDock//data/scripts/dock_solv.prm

>  <Rbt.Receptor>
4xnr.prm

>  <SCORE>
-49.9649

>  <SCORE.INTER>
-31.2501

>  <SCORE.INTER.CONST>
1

>  <SCORE.INTER.POLAR>
-3.98334

>  <SCORE.INTER.ROT>
4

>  <SCORE.INTER.SOLV>
14.1363

>  <SCORE.INTER.VDW>
-18.5344

>  <SCORE.INTER.norm>
-3.12501

>  <SCORE.INTRA>
1.82199

>  <SCORE.INTRA.DIHEDRAL>
0.666402

>  <SCORE.INTRA.DIHEDRAL.0>
3.75292

>  <SCORE.INTRA.POLAR>
0.817699

>  <SCORE.INTRA.POLAR.0>
-0.977921

>  <SCORE.INTRA.REPUL>
0

>  <SCORE.INTRA.REPUL.0>
0

>  <SCORE.INTRA.SOLV>
-0.695304

>  <SCORE.INTRA.SOLV.lig_0>
-18.0346

>  <SCORE.INTRA.VDW>
-0.943734

>  <SCORE.INTRA.VDW.0>
0.4821

>  <SCORE.INTRA.norm>
0.182199

>  <SCORE.RESTR>
0

>  <SCORE.RESTR.CAVITY>
0

>  <SCORE.RESTR.norm>
0

>  <SCORE.SYSTEM>
-20.5368

>  <SCORE.SYSTEM.CONST>
0

>  <SCORE.SYSTEM.DIHEDRAL>
4.25538

>  <SCORE.SYSTEM.POLAR>
-3.01812

>  <SCORE.SYSTEM.SOLV>
0.308747

>  <SCORE.SYSTEM.VDW>
-5.15216

>  <SCORE.SYSTEM.norm>
-2.05368

>  <SCORE.heavy>
10

>  <SCORE.norm>
-4.99649

$$$$
P90832059
 OpenBabel12072022113D
libRbt.so/2013.1/901 2013/11/27
 14 13  0  0  0  0  0  0  0  0999 V2000
    3.7950   16.0859    3.5139 C   0  0  0  0  0  0  0  0  0  0  0  0
    5.1874   16.5700    3.8866 C   0  0  2  0  0  0  0  0  0  0  0  0
    5.2286   18.0990    4.0378 C   0  0  0  0  0  0  0  0  0  0  0  0
    6.5571   18.5659    4.4535 N   0  0  0  0  0  0  0  0  0  0  0  0
    6.8534   18.6714    5.8231 C   0  0  0  0  0  0  0  0  0  0  0  0
    6.0519   18.4222    6.7166 O   0  0  0  0  0  0  0  0  0  0  0  0
    8.1532   19.0795    6.0580 N   0  0  0  0  0  0  0  0  0  0  0  0
    8.9115   18.4664    7.1192 C   0  0  0  0  0  0  0  0  0  0  0  0
    7.5965   18.5331    3.4750 N   0  0  0  0  0  0  0  0  0  0  0  0
    6.0845   16.1627    2.8463 O   0  0  0  0  0  0  0  0  0  0  0  0
    8.2889   20.0684    5.9170 H   0  0  0  0  0  0  0  0  0  0  0  0
    7.2678   17.9563    2.6934 H   0  0  0  0  0  0  0  0  0  0  0  0
    8.3966   18.0496    3.8874 H   0  0  0  0  0  0  0  0  0  0  0  0
    6.4709   15.3177    3.1597 H   0  0  0  0  0  0  0  0  0  0  0  0
  2  3  1  0  0  0  0
  2 10  1  0  0  0  0
  2  1  1  6  0  0  0
  3  4  1  0  0  0  0
  4  5  1  0  0  0  0
  4  9  1  0  0  0  0
  5  6  2  0  0  0  0
  5  7  1  0  0  0  0
  7  8  1  0  0  0  0
  7 11  1  0  0  0  0
  9 12  1  0  0  0  0
  9 13  1  0  0  0  0
 10 14  1  0  0  0  0
M  END
>  <CHROM.0>
-63.30634631,-177.44806843,-68.40992366,-44.35920129,-66.66608720,-63.44983398
-71.98739119,-49.37959198,-167.72410679

>  <CHROM.1>
177.57037936,-95.34570748,-89.67557422,-13.96386163,-139.07399262,6.46512683
17.83916975,4.76793339,2.30877979,-0.37775775,-1.89432608

>  <Name>
P90832059

>  <RI>
2.22087e+07

>  <Rbt.Current_Directory>
/home/fstefaniak/projects/zuza/docking/adenine/4XNR

>  <Rbt.Executable>
rbdock ($Id: //depot/dev/client3/rdock/2013.1/src/exe/rbdock.cxx#4 $)

>  <Rbt.Library>
libRbt.so (2013.1, Build901 2013/11/27)

>  <Rbt.Parameter_File>
/home/fstefaniak/progs/rDock//data/scripts/dock_solv.prm

>  <Rbt.Receptor>
4xnr.prm

>  <SCORE>
-45.0582

>  <SCORE.INTER>
-26.4227

>  <SCORE.INTER.CONST>
1

>  <SCORE.INTER.POLAR>
-4.66374

>  <SCORE.INTER.ROT>
4

>  <SCORE.INTER.SOLV>
14.4398

>  <SCORE.INTER.VDW>
-13.1492

>  <SCORE.INTER.norm>
-2.64227

>  <SCORE.INTRA>
1.84291

>  <SCORE.INTRA.DIHEDRAL>
2.36166

>  <SCORE.INTRA.DIHEDRAL.0>
3.75292

>  <SCORE.INTRA.POLAR>
0.468905

>  <SCORE.INTRA.POLAR.0>
-0.977921

>  <SCORE.INTRA.REPUL>
0

>  <SCORE.INTRA.REPUL.0>
0

>  <SCORE.INTRA.SOLV>
0.0727344

>  <SCORE.INTRA.SOLV.lig_0>
-18.0346

>  <SCORE.INTRA.VDW>
-0.968566

>  <SCORE.INTRA.VDW.0>
0.4821

>  <SCORE.INTRA.norm>
0.184291

>  <SCORE.RESTR>
0

>  <SCORE.RESTR.CAVITY>
0

>  <SCORE.RESTR.norm>
0

>  <SCORE.SYSTEM>
-20.4785

>  <SCORE.SYSTEM.CONST>
0

>  <SCORE.SYSTEM.DIHEDRAL>
5.69597

>  <SCORE.SYSTEM.POLAR>
-3.02965

>  <SCORE.SYSTEM.SOLV>
0.238923

>  <SCORE.SYSTEM.VDW>
-5.53176

>  <SCORE.SYSTEM.norm>
-2.04785

>  <SCORE.heavy>
10

>  <SCORE.norm>
-4.50582

$$$$
P91593447
 OpenBabel12072022113D
libRbt.so/2013.1/901 2013/11/27
 10  9  0  0  0  0  0  0  0  0999 V2000
    6.9019   18.2031    3.2020 C   0  0  0  0  0  0  0  0  0  0  0  0
    5.7079   18.3962    4.1409 C   0  0  2  0  0  0  0  0  0  0  0  0
    6.0743   19.2246    5.3863 C   0  0  0  0  0  0  0  0  0  0  0  0
    7.4265   18.8979    5.8581 C   0  0  0  0  0  0  0  0  0  0  0  0
    8.5001   18.6351    6.2117 N   0  0  0  0  0  0  0  0  0  0  0  0
    5.0995   17.1042    4.4739 N   0  0  0  0  0  0  0  0  0  0  0  0
    4.7925   16.1450    3.5360 C   0  0  0  0  0  0  0  0  0  0  0  0
    5.0822   16.2405    2.3486 O   0  0  0  0  0  0  0  0  0  0  0  0
    4.0902   14.9343    4.0903 C   0  0  0  0  0  0  0  0  0  0  0  0
    4.7260   16.9957    5.4092 H   0  0  0  0  0  0  0  0  0  0  0  0
  2  3  1  0  0  0  0
  2  6  1  0  0  0  0
  2  1  1  1  0  0  0
  3  4  1  0  0  0  0
  4  5  3  0  0  0  0
  6  7  1  0  0  0  0
  6 10  1  0  0  0  0
  7  8  2  0  0  0  0
  7  9  1  0  0  0  0
M  END
>  <CHROM.0>
-63.10431193,-61.51895444,-67.68494240,-46.06746661,-59.23596802,58.24054816
-66.21874974,-61.36481613,-168.21505085

>  <CHROM.1>
-37.56785675,-47.64475951,5.92986268,17.48465964,4.31705554,-0.43397130,-0.84136714
-1.49873999

>  <Name>
P91593447

>  <RI>
3.1908e+07

>  <Rbt.Current_Directory>
/home/fstefaniak/projects/zuza/docking/adenine/4XNR

>  <Rbt.Executable>
rbdock ($Id: //depot/dev/client3/rdock/2013.1/src/exe/rbdock.cxx#4 $)

>  <Rbt.Library>
libRbt.so (2013.1, Build901 2013/11/27)

>  <Rbt.Parameter_File>
/home/fstefaniak/progs/rDock//data/scripts/dock_solv.prm

>  <Rbt.Receptor>
4xnr.prm

>  <SCORE>
-44.8094

>  <SCORE.INTER>
-28.382

>  <SCORE.INTER.CONST>
1

>  <SCORE.INTER.POLAR>
-3.21461

>  <SCORE.INTER.ROT>
2

>  <SCORE.INTER.SOLV>
9.86449

>  <SCORE.INTER.VDW>
-16.4275

>  <SCORE.INTER.norm>
-3.15355

>  <SCORE.INTRA>
3.42535

>  <SCORE.INTRA.DIHEDRAL>
0.944657

>  <SCORE.INTRA.DIHEDRAL.0>
1.57349

>  <SCORE.INTRA.POLAR>
0

>  <SCORE.INTRA.POLAR.0>
0

>  <SCORE.INTRA.REPUL>
0

>  <SCORE.INTRA.REPUL.0>
0

>  <SCORE.INTRA.SOLV>
0.105239

>  <SCORE.INTRA.SOLV.lig_0>
-12.5798

>  <SCORE.INTRA.VDW>
2.9004

>  <SCORE.INTRA.VDW.0>
0.0535419

>  <SCORE.INTRA.norm>
0.380595

>  <SCORE.RESTR>
0

>  <SCORE.RESTR.CAVITY>
0

>  <SCORE.RESTR.norm>
0

>  <SCORE.SYSTEM>
-19.8528

>  <SCORE.SYSTEM.CONST>
0

>  <SCORE.SYSTEM.DIHEDRAL>
4.16297

>  <SCORE.SYSTEM.POLAR>
-2.97251

>  <SCORE.SYSTEM.SOLV>
0.151512

>  <SCORE.SYSTEM.VDW>
-4.76496

>  <SCORE.SYSTEM.norm>
-2.20586

>  <SCORE.heavy>
9

>  <SCORE.norm>
-4.97882

$$$$
P91593447
 OpenBabel12072022113D
libRbt.so/2013.1/901 2013/11/27
 10  9  0  0  0  0  0  0  0  0999 V2000
    6.9094   18.2114    3.2600 C   0  0  0  0  0  0  0  0  0  0  0  0
    5.6965   18.3208    4.1880 C   0  0  2  0  0  0  0  0  0  0  0  0
    6.0106   19.1220    5.4651 C   0  0  0  0  0  0  0  0  0  0  0  0
    7.3644   18.8274    5.9531 C   0  0  0  0  0  0  0  0  0  0  0  0
    8.4397   18.5907    6.3194 N   0  0  0  0  0  0  0  0  0  0  0  0
    5.1413   16.9931    4.4696 N   0  0  0  0  0  0  0  0  0  0  0  0
    4.8625   16.0637    3.4935 C   0  0  0  0  0  0  0  0  0  0  0  0
    5.1371   16.2212    2.3091 O   0  0  0  0  0  0  0  0  0  0  0  0
    4.2125   14.8040    4.0006 C   0  0  0  0  0  0  0  0  0  0  0  0
    4.7811   16.8302    5.4022 H   0  0  0  0  0  0  0  0  0  0  0  0
  2  3  1  0  0  0  0
  2  6  1  0  0  0  0
  2  1  1  1  0  0  0
  3  4  1  0  0  0  0
  4  5  3  0  0  0  0
  6  7  1  0  0  0  0
  6 10  1  0  0  0  0
  7  8  2  0  0  0  0
  7  9  1  0  0  0  0
M  END
>  <CHROM.0>
-60.00764280,54.84505472,-64.42006127,-46.63627201,-174.12003439,-62.98891346
-70.05013446,-57.61687010,-168.11511387

>  <CHROM.1>
-38.20392475,-49.04435843,5.94317819,17.41543781,4.33830407,-0.42801838,-0.88757543
-1.44521009

>  <Name>
P91593447

>  <RI>
3.1908e+07

>  <Rbt.Current_Directory>
/home/fstefaniak/projects/zuza/docking/adenine/4XNR

>  <Rbt.Executable>
rbdock ($Id: //depot/dev/client3/rdock/2013.1/src/exe/rbdock.cxx#4 $)

>  <Rbt.Library>
libRbt.so (2013.1, Build901 2013/11/27)

>  <Rbt.Parameter_File>
/home/fstefaniak/progs/rDock//data/scripts/dock_solv.prm

>  <Rbt.Receptor>
4xnr.prm

>  <SCORE>
-44.7885

>  <SCORE.INTER>
-27.883

>  <SCORE.INTER.CONST>
1

>  <SCORE.INTER.POLAR>
-3.2221

>  <SCORE.INTER.ROT>
2

>  <SCORE.INTER.SOLV>
9.98101

>  <SCORE.INTER.VDW>
-16.1087

>  <SCORE.INTER.norm>
-3.09812

>  <SCORE.INTRA>
3.20117

>  <SCORE.INTRA.DIHEDRAL>
0.883055

>  <SCORE.INTRA.DIHEDRAL.0>
1.57349

>  <SCORE.INTRA.POLAR>
0

>  <SCORE.INTRA.POLAR.0>
0

>  <SCORE.INTRA.REPUL>
0

>  <SCORE.INTRA.REPUL.0>
0

>  <SCORE.INTRA.SOLV>
0.104436

>  <SCORE.INTRA.SOLV.lig_0>
-12.5798

>  <SCORE.INTRA.VDW>
2.70743

>  <SCORE.INTRA.VDW.0>
0.0535419

>  <SCORE.INTRA.norm>
0.355686

>  <SCORE.RESTR>
0

>  <SCORE.RESTR.CAVITY>
0

>  <SCORE.RESTR.norm>
0

>  <SCORE.SYSTEM>
-20.1066

>  <SCORE.SYSTEM.CONST>
0

>  <SCORE.SYSTEM.DIHEDRAL>
4.47249

>  <SCORE.SYSTEM.POLAR>
-2.99766

>  <SCORE.SYSTEM.SOLV>
0.201313

>  <SCORE.SYSTEM.VDW>
-4.97013

>  <SCORE.SYSTEM.norm>
-2.23407

>  <SCORE.heavy>
9

>  <SCORE.norm>
-4.9765

$$$$
P91593447
 OpenBabel12072022113D
libRbt.so/2013.1/901 2013/11/27
 10  9  0  0  0  0  0  0  0  0999 V2000
    6.9594   17.9863    1.7947 C   0  0  0  0  0  0  0  0  0  0  0  0
    6.1022   17.9036    3.0607 C   0  0  2  0  0  0  0  0  0  0  0  0
    6.7899   18.5574    4.2736 C   0  0  0  0  0  0  0  0  0  0  0  0
    6.0315   18.3097    5.5069 C   0  0  0  0  0  0  0  0  0  0  0  0
    5.4255   18.0966    6.4733 N   0  0  0  0  0  0  0  0  0  0  0  0
    5.6911   16.5193    3.3156 N   0  0  0  0  0  0  0  0  0  0  0  0
    4.3841   16.1408    3.5221 C   0  0  0  0  0  0  0  0  0  0  0  0
    3.4323   16.9069    3.4208 O   0  0  0  0  0  0  0  0  0  0  0  0
    4.2031   14.6842    3.8565 C   0  0  0  0  0  0  0  0  0  0  0  0
    6.4221   15.8511    3.5283 H   0  0  0  0  0  0  0  0  0  0  0  0
  2  3  1  0  0  0  0
  2  6  1  0  0  0  0
  2  1  1  6  0  0  0
  3  4  1  0  0  0  0
  4  5  3  0  0  0  0
  6  7  1  0  0  0  0
  6 10  1  0  0  0  0
  7  8  2  0  0  0  0
  7  9  1  0  0  0  0
M  END
>  <CHROM.0>
-57.88447874,-171.55151436,-66.37320400,-47.63871335,-57.34523726,-65.12266655
-67.37033623,-60.25468693,-167.81322291

>  <CHROM.1>
-172.50197573,-127.61555438,5.42736786,17.19823784,3.87294008,-0.46383781
-0.76100841,-1.92694995

>  <Name>
P91593447

>  <RI>
3.1908e+07

>  <Rbt.Current_Directory>
/home/fstefaniak/projects/zuza/docking/adenine/4XNR

>  <Rbt.Executable>
rbdock ($Id: //depot/dev/client3/rdock/2013.1/src/exe/rbdock.cxx#4 $)

>  <Rbt.Library>
libRbt.so (2013.1, Build901 2013/11/27)

>  <Rbt.Parameter_File>
/home/fstefaniak/progs/rDock//data/scripts/dock_solv.prm

>  <Rbt.Receptor>
4xnr.prm

>  <SCORE>
-44.3616

>  <SCORE.INTER>
-22.7319

>  <SCORE.INTER.CONST>
1

>  <SCORE.INTER.POLAR>
-1.89668

>  <SCORE.INTER.ROT>
2

>  <SCORE.INTER.SOLV>
10.0208

>  <SCORE.INTER.VDW>
-17.106

>  <SCORE.INTER.norm>
-2.52577

>  <SCORE.INTRA>
-0.951327

>  <SCORE.INTRA.DIHEDRAL>
-0.138077

>  <SCORE.INTRA.DIHEDRAL.0>
1.57349

>  <SCORE.INTRA.POLAR>
0

>  <SCORE.INTRA.POLAR.0>
0

>  <SCORE.INTRA.REPUL>
0

>  <SCORE.INTRA.REPUL.0>
0

>  <SCORE.INTRA.SOLV>
0.567886

>  <SCORE.INTRA.SOLV.lig_0>
-12.5798

>  <SCORE.INTRA.VDW>
-1.16623

>  <SCORE.INTRA.VDW.0>
0.0535419

>  <SCORE.INTRA.norm>
-0.105703

>  <SCORE.RESTR>
0

>  <SCORE.RESTR.CAVITY>
0

>  <SCORE.RESTR.norm>
0

>  <SCORE.SYSTEM>
-20.6784

>  <SCORE.SYSTEM.CONST>
0

>  <SCORE.SYSTEM.DIHEDRAL>
4.43832

>  <SCORE.SYSTEM.POLAR>
-2.98252

>  <SCORE.SYSTEM.SOLV>
0.252021

>  <SCORE.SYSTEM.VDW>
-5.40729

>  <SCORE.SYSTEM.norm>
-2.2976

>  <SCORE.heavy>
9

>  <SCORE.norm>
-4.92907

$$$$
P92124050
 OpenBabel12072022113D
libRbt.so/2013.1/901 2013/11/27
 14 14  0  0  0  0  0  0  0  0999 V2000
    4.1226   14.8847    3.9309 C   0  0  0  0  0  0  0  0  0  0  0  0
    5.3978   15.6028    3.4948 C   0  0  0  0  0  0  0  0  0  0  0  0
    5.3052   17.1524    3.4707 C   0  0  2  0  0  0  0  0  0  0  0  0
    6.7023   17.7488    3.1752 C   0  0  0  0  0  0  0  0  0  0  0  0
    6.9911   18.7422    4.2919 C   0  0  0  0  0  0  0  0  0  0  0  0
    5.6843   18.9638    4.9403 N   0  3  0  0  0  0  0  0  0  0  0  0
    5.6695   19.4526    5.8353 H   0  0  0  0  0  0  0  0  0  0  0  0
    5.1549   19.5903    4.2614 H   0  0  0  0  0  0  0  0  0  0  0  0
    4.9240   17.6937    4.8452 C   0  0  0  0  0  0  0  0  0  0  0  0
    4.2816   17.6122    2.4065 C   0  0  0  0  0  0  0  0  0  0  0  0
    4.6393   17.8290    1.2441 O   0  0  0  0  0  0  0  0  0  0  0  0
    2.9502   17.7834    2.7126 N   0  0  0  0  0  0  0  0  0  0  0  0
    2.1256   16.7747    3.1595 O   0  5  0  0  0  0  0  0  0  0  0  0
    2.6880   18.7226    3.0110 H   0  0  0  0  0  0  0  0  0  0  0  0
  1  2  1  0  0  0  0
  3  2  1  1  0  0  0
  3  4  1  0  0  0  0
  3  9  1  0  0  0  0
  3 10  1  0  0  0  0
  4  5  1  0  0  0  0
  5  6  1  0  0  0  0
  6  7  1  0  0  0  0
  6  8  1  0  0  0  0
  6  9  1  0  0  0  0
 10 11  2  0  0  0  0
 10 12  1  0  0  0  0
 12 13  1  0  0  0  0
 12 14  1  0  0  0  0
M  CHG  2   6   1  13  -1
M  END
>  <CHROM.0>
-53.19527711,-66.23154558,-63.90021481,-50.08429362,-58.19092384,-63.92147081
-66.92642787,-58.73343232,-168.15199476

>  <CHROM.1>
173.42252231,-89.73424614,-61.36238206,4.78369361,17.36289394,3.42776122
-2.85739349,-0.55681711,-0.43691544

>  <Name>
P92124050

>  <RI>
3.02409e+07

>  <Rbt.Current_Directory>
/home/fstefaniak/projects/zuza/docking/adenine/4XNR

>  <Rbt.Executable>
rbdock ($Id: //depot/dev/client3/rdock/2013.1/src/exe/rbdock.cxx#4 $)

>  <Rbt.Library>
libRbt.so (2013.1, Build901 2013/11/27)

>  <Rbt.Parameter_File>
/home/fstefaniak/progs/rDock//data/scripts/dock_solv.prm

>  <Rbt.Receptor>
4xnr.prm

>  <SCORE>
-36.7815

>  <SCORE.INTER>
-15.7005

>  <SCORE.INTER.CONST>
1

>  <SCORE.INTER.POLAR>
-2.33631

>  <SCORE.INTER.ROT>
3

>  <SCORE.INTER.SOLV>
24.6452

>  <SCORE.INTER.VDW>
-16.4943

>  <SCORE.INTER.norm>
-1.42731

>  <SCORE.INTRA>
-0.268329

>  <SCORE.INTRA.DIHEDRAL>
1.78842

>  <SCORE.INTRA.DIHEDRAL.0>
1.22126

>  <SCORE.INTRA.POLAR>
0.603385

>  <SCORE.INTRA.POLAR.0>
-0.603385

>  <SCORE.INTRA.REPUL>
0

>  <SCORE.INTRA.REPUL.0>
0

>  <SCORE.INTRA.SOLV>
-5.66471

>  <SCORE.INTRA.SOLV.lig_0>
-46.3245

>  <SCORE.INTRA.VDW>
-0.381697

>  <SCORE.INTRA.VDW.0>
1.16752

>  <SCORE.INTRA.norm>
-0.0243936

>  <SCORE.RESTR>
0

>  <SCORE.RESTR.CAVITY>
0

>  <SCORE.RESTR.norm>
0

>  <SCORE.SYSTEM>
-20.8128

>  <SCORE.SYSTEM.CONST>
0

>  <SCORE.SYSTEM.DIHEDRAL>
3.99087

>  <SCORE.SYSTEM.POLAR>
-2.98524

>  <SCORE.SYSTEM.SOLV>
0.287435

>  <SCORE.SYSTEM.VDW>
-5.35046

>  <SCORE.SYSTEM.norm>
-1.89207

>  <SCORE.heavy>
11

>  <SCORE.norm>
-3.34378

$$$$
P92124050
 OpenBabel12072022113D
libRbt.so/2013.1/901 2013/11/27
 14 14  0  0  0  0  0  0  0  0999 V2000
    0.6238   12.8801    2.3487 C   0  0  0  0  0  0  0  0  0  0  0  0
    1.4805   12.3997    3.5180 C   0  0  0  0  0  0  0  0  0  0  0  0
    2.2533   13.5166    4.2703 C   0  0  2  0  0  0  0  0  0  0  0  0
    1.2616   14.6136    4.7262 C   0  0  0  0  0  0  0  0  0  0  0  0
    1.8015   15.9318    4.1894 C   0  0  0  0  0  0  0  0  0  0  0  0
    3.1931   15.6331    3.7999 N   0  3  0  0  0  0  0  0  0  0  0  0
    3.6935   16.3237    3.2406 H   0  0  0  0  0  0  0  0  0  0  0  0
    3.7196   15.5745    4.7235 H   0  0  0  0  0  0  0  0  0  0  0  0
    3.2281   14.2251    3.3348 C   0  0  0  0  0  0  0  0  0  0  0  0
    3.0048   12.9241    5.4851 C   0  0  0  0  0  0  0  0  0  0  0  0
    3.1700   13.5951    6.5091 O   0  0  0  0  0  0  0  0  0  0  0  0
    3.5004   11.6396    5.4706 N   0  0  0  0  0  0  0  0  0  0  0  0
    3.1703   10.6750    6.3968 O   0  5  0  0  0  0  0  0  0  0  0  0
    3.7701   11.2860    4.5529 H   0  0  0  0  0  0  0  0  0  0  0  0
  1  2  1  0  0  0  0
  3  2  1  6  0  0  0
  3  4  1  0  0  0  0
  3  9  1  0  0  0  0
  3 10  1  0  0  0  0
  4  5  1  0  0  0  0
  5  6  1  0  0  0  0
  6  7  1  0  0  0  0
  6  8  1  0  0  0  0
  6  9  1  0  0  0  0
 10 11  2  0  0  0  0
 10 12  1  0  0  0  0
 12 13  1  0  0  0  0
 12 14  1  0  0  0  0
M  CHG  2   6   1  13  -1
M  END
>  <CHROM.0>
-61.90008878,-32.33631453,-74.19490899,-45.07566644,-63.91346596,-177.54902726
-171.75472359,-66.24726859,-168.15386969

>  <CHROM.1>
54.28603066,-147.67759102,-123.22559798,2.45267109,13.44486558,4.56774709
2.05699881,-0.94300259,-0.20972655

>  <Name>
P92124050

>  <RI>
3.02409e+07

>  <Rbt.Current_Directory>
/home/fstefaniak/projects/zuza/docking/adenine/4XNR

>  <Rbt.Executable>
rbdock ($Id: //depot/dev/client3/rdock/2013.1/src/exe/rbdock.cxx#4 $)

>  <Rbt.Library>
libRbt.so (2013.1, Build901 2013/11/27)

>  <Rbt.Parameter_File>
/home/fstefaniak/progs/rDock//data/scripts/dock_solv.prm

>  <Rbt.Receptor>
4xnr.prm

>  <SCORE>
-36.7167

>  <SCORE.INTER>
-17.1897

>  <SCORE.INTER.CONST>
1

>  <SCORE.INTER.POLAR>
-2.66473

>  <SCORE.INTER.ROT>
3

>  <SCORE.INTER.SOLV>
14.5427

>  <SCORE.INTER.VDW>
-13.0249

>  <SCORE.INTER.norm>
-1.5627

>  <SCORE.INTRA>
-1.72599

>  <SCORE.INTRA.DIHEDRAL>
1.58384

>  <SCORE.INTRA.DIHEDRAL.0>
1.22126

>  <SCORE.INTRA.POLAR>
0.603385

>  <SCORE.INTRA.POLAR.0>
-0.603385

>  <SCORE.INTRA.REPUL>
0

>  <SCORE.INTRA.REPUL.0>
0

>  <SCORE.INTRA.SOLV>
-9.70232

>  <SCORE.INTRA.SOLV.lig_0>
-46.3245

>  <SCORE.INTRA.VDW>
0.281745

>  <SCORE.INTRA.VDW.0>
1.16752

>  <SCORE.INTRA.norm>
-0.156908

>  <SCORE.RESTR>
0.00015874

>  <SCORE.RESTR.CAVITY>
0.00015874

>  <SCORE.RESTR.norm>
1.44309e-05

>  <SCORE.SYSTEM>
-17.8012

>  <SCORE.SYSTEM.CONST>
0

>  <SCORE.SYSTEM.DIHEDRAL>
8.33478

>  <SCORE.SYSTEM.POLAR>
-2.97207

>  <SCORE.SYSTEM.SOLV>
0.206961

>  <SCORE.SYSTEM.VDW>
-4.80781

>  <SCORE.SYSTEM.norm>
-1.61829

>  <SCORE.heavy>
11

>  <SCORE.norm>
-3.33788

$$$$
P92124050
 OpenBabel12072022113D
libRbt.so/2013.1/901 2013/11/27
 14 14  0  0  0  0  0  0  0  0999 V2000
    2.9910   11.8916    5.0301 C   0  0  0  0  0  0  0  0  0  0  0  0
    2.6191   13.3150    5.4394 C   0  0  0  0  0  0  0  0  0  0  0  0
    2.1865   14.2436    4.2726 C   0  0  2  0  0  0  0  0  0  0  0  0
    3.4321   14.6567    3.4525 C   0  0  0  0  0  0  0  0  0  0  0  0
    3.4230   16.1778    3.3929 C   0  0  0  0  0  0  0  0  0  0  0  0
    2.0617   16.5588    3.8162 N   0  3  0  0  0  0  0  0  0  0  0  0
    1.8830   17.5396    4.0310 H   0  0  0  0  0  0  0  0  0  0  0  0
    1.4500   16.3324    2.9746 H   0  0  0  0  0  0  0  0  0  0  0  0
    1.6098   15.5512    4.8064 C   0  0  0  0  0  0  0  0  0  0  0  0
    1.1549   13.5267    3.3707 C   0  0  0  0  0  0  0  0  0  0  0  0
    1.2498   13.5842    2.1403 O   0  0  0  0  0  0  0  0  0  0  0  0
    0.1135   12.7997    3.9025 N   0  0  0  0  0  0  0  0  0  0  0  0
   -0.5724   11.8209    3.2180 O   0  5  0  0  0  0  0  0  0  0  0  0
    0.1306   12.6897    4.9161 H   0  0  0  0  0  0  0  0  0  0  0  0
  1  2  1  0  0  0  0
  3  2  1  1  0  0  0
  3  4  1  0  0  0  0
  3  9  1  0  0  0  0
  3 10  1  0  0  0  0
  4  5  1  0  0  0  0
  5  6  1  0  0  0  0
  6  7  1  0  0  0  0
  6  8  1  0  0  0  0
  6  9  1  0  0  0  0
 10 11  2  0  0  0  0
 10 12  1  0  0  0  0
 12 13  1  0  0  0  0
 12 14  1  0  0  0  0
M  CHG  2   6   1  13  -1
M  END
>  <CHROM.0>
-55.92879158,-62.57578859,-65.43661463,-47.28799348,-57.18018562,-62.64260343
-68.72506422,-57.41619296,-167.77680350

>  <CHROM.1>
-74.32198916,-135.74648035,-158.82944389,1.80386877,13.99722154,3.87498513
-2.26578747,-0.57899293,-0.36929277

>  <Name>
P92124050

>  <RI>
3.02409e+07

>  <Rbt.Current_Directory>
/home/fstefaniak/projects/zuza/docking/adenine/4XNR

>  <Rbt.Executable>
rbdock ($Id: //depot/dev/client3/rdock/2013.1/src/exe/rbdock.cxx#4 $)

>  <Rbt.Library>
libRbt.so (2013.1, Build901 2013/11/27)

>  <Rbt.Parameter_File>
/home/fstefaniak/progs/rDock//data/scripts/dock_solv.prm

>  <Rbt.Receptor>
4xnr.prm

>  <SCORE>
-36.6972

>  <SCORE.INTER>
-13.4973

>  <SCORE.INTER.CONST>
1

>  <SCORE.INTER.POLAR>
-2.75697

>  <SCORE.INTER.ROT>
3

>  <SCORE.INTER.SOLV>
13.9069

>  <SCORE.INTER.VDW>
-10.0439

>  <SCORE.INTER.norm>
-1.22703

>  <SCORE.INTRA>
-2.60941

>  <SCORE.INTRA.DIHEDRAL>
0.723466

>  <SCORE.INTRA.DIHEDRAL.0>
1.22126

>  <SCORE.INTRA.POLAR>
0.603385

>  <SCORE.INTRA.POLAR.0>
-0.603385

>  <SCORE.INTRA.REPUL>
0

>  <SCORE.INTRA.REPUL.0>
0

>  <SCORE.INTRA.SOLV>
-8.8731

>  <SCORE.INTRA.SOLV.lig_0>
-46.3245

>  <SCORE.INTRA.VDW>
-0.586102

>  <SCORE.INTRA.VDW.0>
1.16752

>  <SCORE.INTRA.norm>
-0.237219

>  <SCORE.RESTR>
0.301927

>  <SCORE.RESTR.CAVITY>
0.301927

>  <SCORE.RESTR.norm>
0.0274479

>  <SCORE.SYSTEM>
-20.8924

>  <SCORE.SYSTEM.CONST>
0

>  <SCORE.SYSTEM.DIHEDRAL>
4.22364

>  <SCORE.SYSTEM.POLAR>
-3.01099

>  <SCORE.SYSTEM.SOLV>
0.290193

>  <SCORE.SYSTEM.VDW>
-5.39626

>  <SCORE.SYSTEM.norm>
-1.89931

>  <SCORE.heavy>
11

>  <SCORE.norm>
-3.33611

$$$$
P92298492
 OpenBabel12072022113D
libRbt.so/2013.1/901 2013/11/27
 14 15  0  0  0  0  0  0  0  0999 V2000
    6.0771   19.6011    6.1779 C   0  0  0  0  0  0  0  0  0  0  0  0
    7.2403   19.3892    5.2145 C   0  0  0  0  0  0  0  0  0  0  0  0
    6.8982   18.1146    4.4275 C   0  0  1  0  0  0  0  0  0  0  0  0
    5.7512   17.4183    5.2234 C   0  0  1  0  0  0  0  0  0  0  0  0
    5.6508   18.1858    6.5384 C   0  0  0  0  0  0  0  0  0  0  0  0
    4.4289   17.4741    4.5251 N   0  3  0  0  0  0  0  0  0  0  0  0
    4.3748   16.7629    3.7620 H   0  0  0  0  0  0  0  0  0  0  0  0
    3.7082   17.0351    5.1483 H   0  0  0  0  0  0  0  0  0  0  0  0
    4.0810   18.3749    4.2010 H   0  0  0  0  0  0  0  0  0  0  0  0
    6.4485   18.3442    3.0287 C   0  0  0  0  0  0  0  0  0  0  0  0
    7.0161   19.3705    2.3531 N   0  0  0  0  0  0  0  0  0  0  0  0
    7.2392   18.8785    1.1150 N   0  5  0  0  0  0  0  0  0  0  0  0
    6.7465   17.6264    1.0337 N   0  0  0  0  0  0  0  0  0  0  0  0
    6.2122   17.2776    2.2245 N   0  0  0  0  0  0  0  0  0  0  0  0
  1  2  1  0  0  0  0
  1  5  1  0  0  0  0
  2  3  1  0  0  0  0
  3 10  1  6  0  0  0
  3  4  1  0  0  0  0
  4  5  1  0  0  0  0
  4  6  1  6  0  0  0
  6  7  1  0  0  0  0
  6  8  1  0  0  0  0
  6  9  1  0  0  0  0
 10 11  2  0  0  0  0
 10 14  1  0  0  0  0
 11 12  1  0  0  0  0
 12 13  1  0  0  0  0
 13 14  2  0  0  0  0
M  CHG  2   6   1  12  -1
M  END
>  <CHROM.0>
-61.22143864,-59.61743876,-71.82245432,-47.55507313,-176.51439981,-62.87380160
-172.15224409,-59.34162756,-168.25108641

>  <CHROM.1>
34.94012561,78.32048394,6.29082762,18.32342731,3.81456749,-1.91117549,-0.80785622
-1.87282848

>  <Name>
P92298492

>  <RI>
1.00763e+07

>  <Rbt.Current_Directory>
/home/fstefaniak/projects/zuza/docking/adenine/4XNR

>  <Rbt.Executable>
rbdock ($Id: //depot/dev/client3/rdock/2013.1/src/exe/rbdock.cxx#4 $)

>  <Rbt.Library>
libRbt.so (2013.1, Build901 2013/11/27)

>  <Rbt.Parameter_File>
/home/fstefaniak/progs/rDock//data/scripts/dock_solv.prm

>  <Rbt.Receptor>
4xnr.prm

>  <SCORE>
-53.4128

>  <SCORE.INTER>
-30.6831

>  <SCORE.INTER.CONST>
1

>  <SCORE.INTER.POLAR>
-3.96421

>  <SCORE.INTER.ROT>
1

>  <SCORE.INTER.SOLV>
17.9374

>  <SCORE.INTER.VDW>
-17.4871

>  <SCORE.INTER.norm>
-2.78937

>  <SCORE.INTRA>
-2.33946

>  <SCORE.INTRA.DIHEDRAL>
0.334977

>  <SCORE.INTRA.DIHEDRAL.0>
0.390423

>  <SCORE.INTRA.POLAR>
0.00971992

>  <SCORE.INTRA.POLAR.0>
-0.0498415

>  <SCORE.INTRA.REPUL>
0

>  <SCORE.INTRA.REPUL.0>
0

>  <SCORE.INTRA.SOLV>
-4.53311

>  <SCORE.INTRA.SOLV.lig_0>
-23.693

>  <SCORE.INTRA.VDW>
-0.273442

>  <SCORE.INTRA.VDW.0>
-0.602652

>  <SCORE.INTRA.norm>
-0.212678

>  <SCORE.RESTR>
0

>  <SCORE.RESTR.CAVITY>
0

>  <SCORE.RESTR.norm>
0

>  <SCORE.SYSTEM>
-20.3902

>  <SCORE.SYSTEM.CONST>
0

>  <SCORE.SYSTEM.DIHEDRAL>
4.46153

>  <SCORE.SYSTEM.POLAR>
-2.94653

>  <SCORE.SYSTEM.SOLV>
0.0527743

>  <SCORE.SYSTEM.VDW>
-5.27646

>  <SCORE.SYSTEM.norm>
-1.85365

>  <SCORE.heavy>
11

>  <SCORE.norm>
-4.85571

$$$$
P92298492
 OpenBabel12072022113D
libRbt.so/2013.1/901 2013/11/27
 14 15  0  0  0  0  0  0  0  0999 V2000
    5.3786   17.5486    6.4952 C   0  0  0  0  0  0  0  0  0  0  0  0
    4.7854   17.5757    5.0905 C   0  0  0  0  0  0  0  0  0  0  0  0
    5.6143   18.6088    4.3117 C   0  0  1  0  0  0  0  0  0  0  0  0
    6.3978   19.4234    5.3870 C   0  0  1  0  0  0  0  0  0  0  0  0
    5.8114   18.9886    6.7270 C   0  0  0  0  0  0  0  0  0  0  0  0
    7.8677   19.1437    5.3852 N   0  3  0  0  0  0  0  0  0  0  0  0
    8.3630   19.7230    6.0995 H   0  0  0  0  0  0  0  0  0  0  0  0
    8.0277   18.2175    5.8514 H   0  0  0  0  0  0  0  0  0  0  0  0
    8.3707   19.1591    4.4996 H   0  0  0  0  0  0  0  0  0  0  0  0
    6.5810   18.0320    3.3399 C   0  0  0  0  0  0  0  0  0  0  0  0
    6.0732   17.3438    2.2909 N   0  0  0  0  0  0  0  0  0  0  0  0
    6.8178   17.7379    1.2351 N   0  5  0  0  0  0  0  0  0  0  0  0
    7.7891   18.5721    1.6569 N   0  0  0  0  0  0  0  0  0  0  0  0
    7.6788   18.7486    2.9917 N   0  0  0  0  0  0  0  0  0  0  0  0
  1  2  1  0  0  0  0
  1  5  1  0  0  0  0
  2  3  1  0  0  0  0
  3 10  1  6  0  0  0
  3  4  1  0  0  0  0
  4  5  1  0  0  0  0
  4  6  1  1  0  0  0
  6  7  1  0  0  0  0
  6  8  1  0  0  0  0
  6  9  1  0  0  0  0
 10 11  2  0  0  0  0
 10 14  1  0  0  0  0
 11 12  1  0  0  0  0
 12 13  1  0  0  0  0
 13 14  2  0  0  0  0
M  CHG  2   6   1  12  -1
M  END
>  <CHROM.0>
-57.66613374,-61.10509294,-67.73179514,-48.33579766,-61.35199597,-61.44484026
-64.30252476,-63.08426285,-168.28624904

>  <CHROM.1>
64.63746629,178.54391424,6.47502936,18.34731133,4.11107501,1.91599606,0.56052886
1.28894640

>  <Name>
P92298492

>  <RI>
1.00763e+07

>  <Rbt.Current_Directory>
/home/fstefaniak/projects/zuza/docking/adenine/4XNR

>  <Rbt.Executable>
rbdock ($Id: //depot/dev/client3/rdock/2013.1/src/exe/rbdock.cxx#4 $)

>  <Rbt.Library>
libRbt.so (2013.1, Build901 2013/11/27)

>  <Rbt.Parameter_File>
/home/fstefaniak/progs/rDock//data/scripts/dock_solv.prm

>  <Rbt.Receptor>
4xnr.prm

>  <SCORE>
-52.6378

>  <SCORE.INTER>
-29.8518

>  <SCORE.INTER.CONST>
1

>  <SCORE.INTER.POLAR>
-5.09672

>  <SCORE.INTER.ROT>
1

>  <SCORE.INTER.SOLV>
18.7976

>  <SCORE.INTER.VDW>
-13.4446

>  <SCORE.INTER.norm>
-2.7138

>  <SCORE.INTRA>
-1.9342

>  <SCORE.INTRA.DIHEDRAL>
0.37017

>  <SCORE.INTRA.DIHEDRAL.0>
0.390423

>  <SCORE.INTRA.POLAR>
-0.517217

>  <SCORE.INTRA.POLAR.0>
-0.0498415

>  <SCORE.INTRA.REPUL>
0

>  <SCORE.INTRA.REPUL.0>
0

>  <SCORE.INTRA.SOLV>
-3.3118

>  <SCORE.INTRA.SOLV.lig_0>
-23.693

>  <SCORE.INTRA.VDW>
1.29515

>  <SCORE.INTRA.VDW.0>
-0.602652

>  <SCORE.INTRA.norm>
-0.175837

>  <SCORE.RESTR>
0

>  <SCORE.RESTR.CAVITY>
0

>  <SCORE.RESTR.norm>
0

>  <SCORE.SYSTEM>
-20.8518

>  <SCORE.SYSTEM.CONST>
0

>  <SCORE.SYSTEM.DIHEDRAL>
3.82065

>  <SCORE.SYSTEM.POLAR>
-2.96484

>  <SCORE.SYSTEM.SOLV>
0.283585

>  <SCORE.SYSTEM.VDW>
-5.38647

>  <SCORE.SYSTEM.norm>
-1.89562

>  <SCORE.heavy>
11

>  <SCORE.norm>
-4.78525

$$$$
P92298492
 OpenBabel12072022113D
libRbt.so/2013.1/901 2013/11/27
 14 15  0  0  0  0  0  0  0  0999 V2000
    5.4753   17.6357    6.5784 C   0  0  0  0  0  0  0  0  0  0  0  0
    4.8926   17.5050    5.1751 C   0  0  0  0  0  0  0  0  0  0  0  0
    5.6249   18.5540    4.3241 C   0  0  1  0  0  0  0  0  0  0  0  0
    6.3194   19.5148    5.3382 C   0  0  1  0  0  0  0  0  0  0  0  0
    5.7673   19.1234    6.7057 C   0  0  0  0  0  0  0  0  0  0  0  0
    7.8093   19.3774    5.3572 N   0  3  0  0  0  0  0  0  0  0  0  0
    8.2324   19.9600    6.1139 H   0  0  0  0  0  0  0  0  0  0  0  0
    8.0492   18.4459    5.7760 H   0  0  0  0  0  0  0  0  0  0  0  0
    8.3253   19.4910    4.4864 H   0  0  0  0  0  0  0  0  0  0  0  0
    6.6493   18.0038    3.3970 C   0  0  0  0  0  0  0  0  0  0  0  0
    6.2120   17.2390    2.3695 N   0  0  0  0  0  0  0  0  0  0  0  0
    6.9516   17.6380    1.3118 N   0  5  0  0  0  0  0  0  0  0  0  0
    7.8551   18.5535    1.7154 N   0  0  0  0  0  0  0  0  0  0  0  0
    7.7040   18.7781    3.0389 N   0  0  0  0  0  0  0  0  0  0  0  0
  1  2  1  0  0  0  0
  1  5  1  0  0  0  0
  2  3  1  0  0  0  0
  3 10  1  6  0  0  0
  3  4  1  0  0  0  0
  4  5  1  0  0  0  0
  4  6  1  1  0  0  0
  6  7  1  0  0  0  0
  6  8  1  0  0  0  0
  6  9  1  0  0  0  0
 10 11  2  0  0  0  0
 10 14  1  0  0  0  0
 11 12  1  0  0  0  0
 12 13  1  0  0  0  0
 13 14  2  0  0  0  0
M  CHG  2   6   1  12  -1
M  END
>  <CHROM.0>
-57.59322859,-61.09582197,-64.59280398,-47.42437673,-58.51261833,-60.06205718
-66.72136484,-58.68532819,-168.20136894

>  <CHROM.1>
67.14482213,-174.05649328,6.51616009,18.37096066,4.14668919,1.96343547,0.63863822
1.19994283

>  <Name>
P92298492

>  <RI>
1.00763e+07

>  <Rbt.Current_Directory>
/home/fstefaniak/projects/zuza/docking/adenine/4XNR

>  <Rbt.Executable>
rbdock ($Id: //depot/dev/client3/rdock/2013.1/src/exe/rbdock.cxx#4 $)

>  <Rbt.Library>
libRbt.so (2013.1, Build901 2013/11/27)

>  <Rbt.Parameter_File>
/home/fstefaniak/progs/rDock//data/scripts/dock_solv.prm

>  <Rbt.Receptor>
4xnr.prm

>  <SCORE>
-52.5637

>  <SCORE.INTER>
-30.2203

>  <SCORE.INTER.CONST>
1

>  <SCORE.INTER.POLAR>
-4.78714

>  <SCORE.INTER.ROT>
1

>  <SCORE.INTER.SOLV>
19.2504

>  <SCORE.INTER.VDW>
-14.8732

>  <SCORE.INTER.norm>
-2.7473

>  <SCORE.INTRA>
-1.4812

>  <SCORE.INTRA.DIHEDRAL>
0.251803

>  <SCORE.INTRA.DIHEDRAL.0>
0.390423

>  <SCORE.INTRA.POLAR>
-0.397924

>  <SCORE.INTRA.POLAR.0>
-0.0498415

>  <SCORE.INTRA.REPUL>
0

>  <SCORE.INTRA.REPUL.0>
0

>  <SCORE.INTRA.SOLV>
-3.26669

>  <SCORE.INTRA.SOLV.lig_0>
-23.693

>  <SCORE.INTRA.VDW>
1.37919

>  <SCORE.INTRA.VDW.0>
-0.602652

>  <SCORE.INTRA.norm>
-0.134654

>  <SCORE.RESTR>
0

>  <SCORE.RESTR.CAVITY>
0

>  <SCORE.RESTR.norm>
0

>  <SCORE.SYSTEM>
-20.8623

>  <SCORE.SYSTEM.CONST>
0

>  <SCORE.SYSTEM.DIHEDRAL>
3.83388

>  <SCORE.SYSTEM.POLAR>
-2.99005

>  <SCORE.SYSTEM.SOLV>
0.297505

>  <SCORE.SYSTEM.VDW>
-5.31847

>  <SCORE.SYSTEM.norm>
-1.89657

>  <SCORE.heavy>
11

>  <SCORE.norm>
-4.77852

$$$$
P92298493
 OpenBabel12072022113D
libRbt.so/2013.1/901 2013/11/27
 14 15  0  0  0  0  0  0  0  0999 V2000
    2.1583   13.2664    4.3052 C   0  0  0  0  0  0  0  0  0  0  0  0
    3.4517   14.0869    4.1515 C   0  0  0  0  0  0  0  0  0  0  0  0
    2.9812   15.5350    4.1443 C   0  0  2  0  0  0  0  0  0  0  0  0
    1.6568   15.4186    3.3938 C   0  0  1  0  0  0  0  0  0  0  0  0
    0.9922   14.2406    4.0781 C   0  0  0  0  0  0  0  0  0  0  0  0
    0.8656   16.6667    3.4792 N   0  3  0  0  0  0  0  0  0  0  0  0
    1.3590   17.4529    3.9133 H   0  0  0  0  0  0  0  0  0  0  0  0
    0.7228   16.9571    2.4782 H   0  0  0  0  0  0  0  0  0  0  0  0
   -0.0675   16.5465    3.8795 H   0  0  0  0  0  0  0  0  0  0  0  0
    3.8614   16.5204    3.4991 C   0  0  0  0  0  0  0  0  0  0  0  0
    4.4355   17.5016    4.2375 N   0  0  0  0  0  0  0  0  0  0  0  0
    5.4046   17.9788    3.4368 N   0  5  0  0  0  0  0  0  0  0  0  0
    5.4019   17.2885    2.2731 N   0  0  0  0  0  0  0  0  0  0  0  0
    4.4344   16.3409    2.3044 N   0  0  0  0  0  0  0  0  0  0  0  0
  1  2  1  0  0  0  0
  1  5  1  0  0  0  0
  2  3  1  0  0  0  0
  3 10  1  6  0  0  0
  3  4  1  0  0  0  0
  4  5  1  0  0  0  0
  4  6  1  1  0  0  0
  6  7  1  0  0  0  0
  6  8  1  0  0  0  0
  6  9  1  0  0  0  0
 10 11  2  0  0  0  0
 10 14  1  0  0  0  0
 11 12  1  0  0  0  0
 12 13  1  0  0  0  0
 13 14  2  0  0  0  0
M  CHG  2   6   1  12  -1
M  END
>  <CHROM.0>
-63.91557841,166.26398638,-64.22311752,-48.23521168,-58.39070192,-60.75758246
-69.30090347,-60.82828649,-167.86588331

>  <CHROM.1>
-115.14827270,7.49817286,3.19301021,15.91292708,3.56872206,-2.40934613,0.07252962
-0.22476458

>  <Name>
P92298493

>  <RI>
1.00763e+07

>  <Rbt.Current_Directory>
/home/fstefaniak/projects/zuza/docking/adenine/4XNR

>  <Rbt.Executable>
rbdock ($Id: //depot/dev/client3/rdock/2013.1/src/exe/rbdock.cxx#4 $)

>  <Rbt.Library>
libRbt.so (2013.1, Build901 2013/11/27)

>  <Rbt.Parameter_File>
/home/fstefaniak/progs/rDock//data/scripts/dock_solv.prm

>  <Rbt.Receptor>
4xnr.prm

>  <SCORE>
-54.0035

>  <SCORE.INTER>
-37.4502

>  <SCORE.INTER.CONST>
1

>  <SCORE.INTER.POLAR>
-5.9001

>  <SCORE.INTER.ROT>
1

>  <SCORE.INTER.SOLV>
15.3117

>  <SCORE.INTER.VDW>
-14.6703

>  <SCORE.INTER.norm>
-3.40456

>  <SCORE.INTRA>
3.36102

>  <SCORE.INTRA.DIHEDRAL>
3.68171

>  <SCORE.INTRA.DIHEDRAL.0>
1.02163

>  <SCORE.INTRA.POLAR>
0.763587

>  <SCORE.INTRA.POLAR.0>
-0.763587

>  <SCORE.INTRA.REPUL>
0

>  <SCORE.INTRA.REPUL.0>
0

>  <SCORE.INTRA.SOLV>
-1.64625

>  <SCORE.INTRA.SOLV.lig_0>
-28.5849

>  <SCORE.INTRA.VDW>
-0.252907

>  <SCORE.INTRA.VDW.0>
-0.477911

>  <SCORE.INTRA.norm>
0.305547

>  <SCORE.RESTR>
0

>  <SCORE.RESTR.CAVITY>
0

>  <SCORE.RESTR.norm>
0

>  <SCORE.SYSTEM>
-19.9143

>  <SCORE.SYSTEM.CONST>
0

>  <SCORE.SYSTEM.DIHEDRAL>
4.85704

>  <SCORE.SYSTEM.POLAR>
-2.93805

>  <SCORE.SYSTEM.SOLV>
0.268613

>  <SCORE.SYSTEM.VDW>
-5.19124

>  <SCORE.SYSTEM.norm>
-1.81039

>  <SCORE.heavy>
11

>  <SCORE.norm>
-4.90941

$$$$
P92298493
 OpenBabel12072022113D
libRbt.so/2013.1/901 2013/11/27
 14 15  0  0  0  0  0  0  0  0999 V2000
    2.2110   12.6983    3.7455 C   0  0  0  0  0  0  0  0  0  0  0  0
    3.5745   13.4040    3.6330 C   0  0  0  0  0  0  0  0  0  0  0  0
    3.3495   14.7645    4.2782 C   0  0  2  0  0  0  0  0  0  0  0  0
    1.9155   15.0680    3.8512 C   0  0  1  0  0  0  0  0  0  0  0  0
    1.1959   13.7719    4.1669 C   0  0  0  0  0  0  0  0  0  0  0  0
    1.3622   16.2349    4.5747 N   0  3  0  0  0  0  0  0  0  0  0  0
    0.3540   16.3708    4.4523 H   0  0  0  0  0  0  0  0  0  0  0  0
    1.4807   15.9945    5.5920 H   0  0  0  0  0  0  0  0  0  0  0  0
    1.8760   17.1058    4.4233 H   0  0  0  0  0  0  0  0  0  0  0  0
    4.2543   15.8521    3.8774 C   0  0  0  0  0  0  0  0  0  0  0  0
    4.9651   15.7526    2.7274 N   0  0  0  0  0  0  0  0  0  0  0  0
    5.3899   17.0087    2.5044 N   0  5  0  0  0  0  0  0  0  0  0  0
    4.9305   17.8162    3.4882 N   0  0  0  0  0  0  0  0  0  0  0  0
    4.1877   17.0962    4.3628 N   0  0  0  0  0  0  0  0  0  0  0  0
  1  2  1  0  0  0  0
  1  5  1  0  0  0  0
  2  3  1  0  0  0  0
  3 10  1  6  0  0  0
  3  4  1  0  0  0  0
  4  5  1  0  0  0  0
  4  6  1  1  0  0  0
  6  7  1  0  0  0  0
  6  8  1  0  0  0  0
  6  9  1  0  0  0  0
 10 11  2  0  0  0  0
 10 14  1  0  0  0  0
 11 12  1  0  0  0  0
 12 13  1  0  0  0  0
 13 14  2  0  0  0  0
M  CHG  2   6   1  12  -1
M  END
>  <CHROM.0>
-55.93443617,-64.84966809,-65.92143384,-48.09312493,-59.38593173,-64.35609793
-64.18084041,-58.33784553,-167.59919879

>  <CHROM.1>
18.97457115,-169.21318335,3.34980052,15.42719521,3.76179765,-2.38827981,0.40388015
0.16562476

>  <Name>
P92298493

>  <RI>
1.00763e+07

>  <Rbt.Current_Directory>
/home/fstefaniak/projects/zuza/docking/adenine/4XNR

>  <Rbt.Executable>
rbdock ($Id: //depot/dev/client3/rdock/2013.1/src/exe/rbdock.cxx#4 $)

>  <Rbt.Library>
libRbt.so (2013.1, Build901 2013/11/27)

>  <Rbt.Parameter_File>
/home/fstefaniak/progs/rDock//data/scripts/dock_solv.prm

>  <Rbt.Receptor>
4xnr.prm

>  <SCORE>
-52.5502

>  <SCORE.INTER>
-32.7904

>  <SCORE.INTER.CONST>
1

>  <SCORE.INTER.POLAR>
-4.94807

>  <SCORE.INTER.ROT>
1

>  <SCORE.INTER.SOLV>
15.7704

>  <SCORE.INTER.VDW>
-14.8902

>  <SCORE.INTER.norm>
-2.98095

>  <SCORE.INTRA>
1.0782

>  <SCORE.INTRA.DIHEDRAL>
-0.0279729

>  <SCORE.INTRA.DIHEDRAL.0>
1.02163

>  <SCORE.INTRA.POLAR>
0.444065

>  <SCORE.INTRA.POLAR.0>
-0.763587

>  <SCORE.INTRA.REPUL>
0

>  <SCORE.INTRA.REPUL.0>
0

>  <SCORE.INTRA.SOLV>
-0.390631

>  <SCORE.INTRA.SOLV.lig_0>
-28.5849

>  <SCORE.INTRA.VDW>
-0.222316

>  <SCORE.INTRA.VDW.0>
-0.477911

>  <SCORE.INTRA.norm>
0.0980185

>  <SCORE.RESTR>
0

>  <SCORE.RESTR.CAVITY>
0

>  <SCORE.RESTR.norm>
0

>  <SCORE.SYSTEM>
-20.8379

>  <SCORE.SYSTEM.CONST>
0

>  <SCORE.SYSTEM.DIHEDRAL>
3.9984

>  <SCORE.SYSTEM.POLAR>
-2.99123

>  <SCORE.SYSTEM.SOLV>
0.290689

>  <SCORE.SYSTEM.VDW>
-5.3509

>  <SCORE.SYSTEM.norm>
-1.89436

>  <SCORE.heavy>
11

>  <SCORE.norm>
-4.77729

$$$$
P92298493
 OpenBabel12072022113D
libRbt.so/2013.1/901 2013/11/27
 14 15  0  0  0  0  0  0  0  0999 V2000
    2.3773   12.7624    3.9671 C   0  0  0  0  0  0  0  0  0  0  0  0
    3.6130   13.6210    3.6423 C   0  0  0  0  0  0  0  0  0  0  0  0
    3.2597   15.0051    4.1691 C   0  0  2  0  0  0  0  0  0  0  0  0
    1.7646   15.0708    3.8672 C   0  0  1  0  0  0  0  0  0  0  0  0
    1.2647   13.7364    4.3841 C   0  0  0  0  0  0  0  0  0  0  0  0
    1.1218   16.2305    4.5253 N   0  3  0  0  0  0  0  0  0  0  0  0
    1.5473   17.1351    4.3009 H   0  0  0  0  0  0  0  0  0  0  0  0
    0.1592   16.2727    4.1030 H   0  0  0  0  0  0  0  0  0  0  0  0
    0.9889   16.1216    5.5332 H   0  0  0  0  0  0  0  0  0  0  0  0
    3.9636   16.1483    3.5692 C   0  0  0  0  0  0  0  0  0  0  0  0
    4.5024   17.1049    4.3643 N   0  0  0  0  0  0  0  0  0  0  0  0
    5.3320   17.7728    3.5434 N   0  5  0  0  0  0  0  0  0  0  0  0
    5.2859   17.2145    2.3118 N   0  0  0  0  0  0  0  0  0  0  0  0
    4.4307   16.1639    2.3165 N   0  0  0  0  0  0  0  0  0  0  0  0
  1  2  1  0  0  0  0
  1  5  1  0  0  0  0
  2  3  1  0  0  0  0
  3 10  1  6  0  0  0
  3  4  1  0  0  0  0
  4  5  1  0  0  0  0
  4  6  1  1  0  0  0
  6  7  1  0  0  0  0
  6  8  1  0  0  0  0
  6  9  1  0  0  0  0
 10 11  2  0  0  0  0
 10 14  1  0  0  0  0
 11 12  1  0  0  0  0
 12 13  1  0  0  0  0
 13 14  2  0  0  0  0
M  CHG  2   6   1  12  -1
M  END
>  <CHROM.0>
-57.27546651,-62.09914917,-73.90007088,-49.54425570,-176.30309525,-63.95695707
-172.18996765,-61.17518348,-167.75759739

>  <CHROM.1>
-132.89703375,55.47284238,3.31005061,15.54683951,3.71276021,-2.41291738,0.42799240
0.12294508

>  <Name>
P92298493

>  <RI>
1.00763e+07

>  <Rbt.Current_Directory>
/home/fstefaniak/projects/zuza/docking/adenine/4XNR

>  <Rbt.Executable>
rbdock ($Id: //depot/dev/client3/rdock/2013.1/src/exe/rbdock.cxx#4 $)

>  <Rbt.Library>
libRbt.so (2013.1, Build901 2013/11/27)

>  <Rbt.Parameter_File>
/home/fstefaniak/progs/rDock//data/scripts/dock_solv.prm

>  <Rbt.Receptor>
4xnr.prm

>  <SCORE>
-51.5566

>  <SCORE.INTER>
-32.8354

>  <SCORE.INTER.CONST>
1

>  <SCORE.INTER.POLAR>
-4.57678

>  <SCORE.INTER.ROT>
1

>  <SCORE.INTER.SOLV>
15.608

>  <SCORE.INTER.VDW>
-16.1037

>  <SCORE.INTER.norm>
-2.98504

>  <SCORE.INTRA>
1.69871

>  <SCORE.INTRA.DIHEDRAL>
0.783519

>  <SCORE.INTRA.DIHEDRAL.0>
1.02163

>  <SCORE.INTRA.POLAR>
0.763587

>  <SCORE.INTRA.POLAR.0>
-0.763587

>  <SCORE.INTRA.REPUL>
0

>  <SCORE.INTRA.REPUL.0>
0

>  <SCORE.INTRA.SOLV>
-1.57145

>  <SCORE.INTRA.SOLV.lig_0>
-28.5849

>  <SCORE.INTRA.VDW>
-0.503523

>  <SCORE.INTRA.VDW.0>
-0.477911

>  <SCORE.INTRA.norm>
0.154428

>  <SCORE.RESTR>
0

>  <SCORE.RESTR.CAVITY>
0

>  <SCORE.RESTR.norm>
0

>  <SCORE.SYSTEM>
-20.4199

>  <SCORE.SYSTEM.CONST>
0

>  <SCORE.SYSTEM.DIHEDRAL>
4.62105

>  <SCORE.SYSTEM.POLAR>
-2.92894

>  <SCORE.SYSTEM.SOLV>
0.0428014

>  <SCORE.SYSTEM.VDW>
-5.40476

>  <SCORE.SYSTEM.norm>
-1.85635

>  <SCORE.heavy>
11

>  <SCORE.norm>
-4.68697

$$$$
P93947832
 OpenBabel12072022113D
libRbt.so/2013.1/901 2013/11/27
 16 16  0  0  0  0  0  0  0  0999 V2000
    7.2005   18.3689    1.3943 C   0  0  0  0  0  0  0  0  0  0  0  0
    6.6003   18.5558    2.7893 C   0  0  1  0  0  0  0  0  0  0  0  0
    5.6051   17.4659    3.1159 C   0  0  0  0  0  0  0  0  0  0  0  0
    4.1894   17.6576    3.2887 C   0  0  0  0  0  0  0  0  0  0  0  0
    3.5239   16.4893    3.5847 C   0  0  0  0  0  0  0  0  0  0  0  0
    4.5821   15.1512    3.6534 S   0  0  0  0  0  0  0  0  0  0  0  0
    5.9347   16.1329    3.2914 C   0  0  0  0  0  0  0  0  0  0  0  0
    7.6114   18.5425    3.8333 N   0  0  0  0  0  0  0  0  0  0  0  0
    7.2623   18.7599    5.1426 C   0  0  0  0  0  0  0  0  0  0  0  0
    6.1501   18.5555    5.6144 O   0  0  0  0  0  0  0  0  0  0  0  0
    8.3321   19.2496    5.8809 N   0  0  0  0  0  0  0  0  0  0  0  0
    9.2797   18.3299    6.3958 N   0  0  0  0  0  0  0  0  0  0  0  0
    8.3614   17.8760    3.7142 H   0  0  0  0  0  0  0  0  0  0  0  0
    8.1617   20.0928    6.4223 H   0  0  0  0  0  0  0  0  0  0  0  0
    8.7471   17.5934    6.8707 H   0  0  0  0  0  0  0  0  0  0  0  0
    9.7583   18.8014    7.1747 H   0  0  0  0  0  0  0  0  0  0  0  0
  2  1  1  6  0  0  0
  2  3  1  0  0  0  0
  2  8  1  0  0  0  0
  3  4  1  0  0  0  0
  3  7  2  0  0  0  0
  4  5  2  0  0  0  0
  5  6  1  0  0  0  0
  6  7  1  0  0  0  0
  8  9  1  0  0  0  0
  8 13  1  0  0  0  0
  9 10  2  0  0  0  0
  9 11  1  0  0  0  0
 11 12  1  0  0  0  0
 11 14  1  0  0  0  0
 12 15  1  0  0  0  0
 12 16  1  0  0  0  0
M  END
>  <CHROM.0>
-56.79905784,52.37357907,-76.02963384,-42.74389302,-176.97694271,-60.14209467
-173.42909412,-57.72624877,-167.95978665

>  <CHROM.1>
-113.24330074,176.90764714,24.55710610,-82.81419458,-49.61889297,6.26376774
17.55045066,4.02597315,-0.28273949,-0.71017233,-1.32279433

>  <Name>
P93947832

>  <RI>
2.22087e+07

>  <Rbt.Current_Directory>
/home/fstefaniak/projects/zuza/docking/adenine/4XNR

>  <Rbt.Executable>
rbdock ($Id: //depot/dev/client3/rdock/2013.1/src/exe/rbdock.cxx#4 $)

>  <Rbt.Library>
libRbt.so (2013.1, Build901 2013/11/27)

>  <Rbt.Parameter_File>
/home/fstefaniak/progs/rDock//data/scripts/dock_solv.prm

>  <Rbt.Receptor>
4xnr.prm

>  <SCORE>
-63.5545

>  <SCORE.INTER>
-43.5738

>  <SCORE.INTER.CONST>
1

>  <SCORE.INTER.POLAR>
-6.06066

>  <SCORE.INTER.ROT>
5

>  <SCORE.INTER.SOLV>
16.3577

>  <SCORE.INTER.VDW>
-21.2329

>  <SCORE.INTER.norm>
-3.63115

>  <SCORE.INTRA>
-0.615625

>  <SCORE.INTRA.DIHEDRAL>
-0.552826

>  <SCORE.INTRA.DIHEDRAL.0>
3.70088

>  <SCORE.INTRA.POLAR>
0

>  <SCORE.INTRA.POLAR.0>
0

>  <SCORE.INTRA.REPUL>
0

>  <SCORE.INTRA.REPUL.0>
0

>  <SCORE.INTRA.SOLV>
0.491076

>  <SCORE.INTRA.SOLV.lig_0>
-18.5501

>  <SCORE.INTRA.VDW>
-0.58475

>  <SCORE.INTRA.VDW.0>
-0.445886

>  <SCORE.INTRA.norm>
-0.0513021

>  <SCORE.RESTR>
0

>  <SCORE.RESTR.CAVITY>
0

>  <SCORE.RESTR.norm>
0

>  <SCORE.SYSTEM>
-19.3651

>  <SCORE.SYSTEM.CONST>
0

>  <SCORE.SYSTEM.DIHEDRAL>
5.801

>  <SCORE.SYSTEM.POLAR>
-3.05268

>  <SCORE.SYSTEM.SOLV>
0.168923

>  <SCORE.SYSTEM.VDW>
-4.72443

>  <SCORE.SYSTEM.norm>
-1.61376

>  <SCORE.heavy>
12

>  <SCORE.norm>
-5.29621

$$$$
P93947832
 OpenBabel12072022113D
libRbt.so/2013.1/901 2013/11/27
 16 16  0  0  0  0  0  0  0  0999 V2000
    7.2058   18.3230    1.3952 C   0  0  0  0  0  0  0  0  0  0  0  0
    6.5974   18.5532    2.7802 C   0  0  1  0  0  0  0  0  0  0  0  0
    5.5857   17.4849    3.1266 C   0  0  0  0  0  0  0  0  0  0  0  0
    5.8802   16.0874    3.3033 C   0  0  0  0  0  0  0  0  0  0  0  0
    4.7651   15.3408    3.6111 C   0  0  0  0  0  0  0  0  0  0  0  0
    3.3567   16.3021    3.6977 S   0  0  0  0  0  0  0  0  0  0  0  0
    4.2351   17.7197    3.3192 C   0  0  0  0  0  0  0  0  0  0  0  0
    7.6003   18.5537    3.8321 N   0  0  0  0  0  0  0  0  0  0  0  0
    7.2397   18.7790    5.1370 C   0  0  0  0  0  0  0  0  0  0  0  0
    6.1283   18.5609    5.6044 O   0  0  0  0  0  0  0  0  0  0  0  0
    8.2966   19.2942    5.8764 N   0  0  0  0  0  0  0  0  0  0  0  0
    9.2232   18.3922    6.4567 N   0  0  0  0  0  0  0  0  0  0  0  0
    8.3550   17.8906    3.7241 H   0  0  0  0  0  0  0  0  0  0  0  0
    8.1218   20.1637    6.3729 H   0  0  0  0  0  0  0  0  0  0  0  0
    8.6724   17.6530    6.9060 H   0  0  0  0  0  0  0  0  0  0  0  0
    9.6478   18.8773    7.2582 H   0  0  0  0  0  0  0  0  0  0  0  0
  2  1  1  6  0  0  0
  2  3  1  0  0  0  0
  2  8  1  0  0  0  0
  3  4  1  0  0  0  0
  3  7  2  0  0  0  0
  4  5  2  0  0  0  0
  5  6  1  0  0  0  0
  6  7  1  0  0  0  0
  8  9  1  0  0  0  0
  8 13  1  0  0  0  0
  9 10  2  0  0  0  0
  9 11  1  0  0  0  0
 11 12  1  0  0  0  0
 11 14  1  0  0  0  0
 12 15  1  0  0  0  0
 12 16  1  0  0  0  0
M  END
>  <CHROM.0>
-60.08080713,-172.71662682,59.36699789,-49.21937243,-57.75872574,-63.99946602
52.39108873,-58.08917121,-165.88140631

>  <CHROM.1>
64.37530557,178.39131135,25.21536910,-85.58788857,-46.33345698,6.12486500
17.67924789,4.04196385,-0.39743562,-0.54017585,-1.53484278

>  <Name>
P93947832

>  <RI>
2.22087e+07

>  <Rbt.Current_Directory>
/home/fstefaniak/projects/zuza/docking/adenine/4XNR

>  <Rbt.Executable>
rbdock ($Id: //depot/dev/client3/rdock/2013.1/src/exe/rbdock.cxx#4 $)

>  <Rbt.Library>
libRbt.so (2013.1, Build901 2013/11/27)

>  <Rbt.Parameter_File>
/home/fstefaniak/progs/rDock//data/scripts/dock_solv.prm

>  <Rbt.Receptor>
4xnr.prm

>  <SCORE>
-62.6963

>  <SCORE.INTER>
-43.5412

>  <SCORE.INTER.CONST>
1

>  <SCORE.INTER.POLAR>
-5.98704

>  <SCORE.INTER.ROT>
5

>  <SCORE.INTER.SOLV>
16.1822

>  <SCORE.INTER.VDW>
-21.3981

>  <SCORE.INTER.norm>
-3.62843

>  <SCORE.INTRA>
-0.531632

>  <SCORE.INTRA.DIHEDRAL>
-0.419732

>  <SCORE.INTRA.DIHEDRAL.0>
3.70088

>  <SCORE.INTRA.POLAR>
0

>  <SCORE.INTRA.POLAR.0>
0

>  <SCORE.INTRA.REPUL>
0

>  <SCORE.INTRA.REPUL.0>
0

>  <SCORE.INTRA.SOLV>
0.542164

>  <SCORE.INTRA.SOLV.lig_0>
-18.5501

>  <SCORE.INTRA.VDW>
-0.592849

>  <SCORE.INTRA.VDW.0>
-0.445886

>  <SCORE.INTRA.norm>
-0.0443027

>  <SCORE.RESTR>
0

>  <SCORE.RESTR.CAVITY>
0

>  <SCORE.RESTR.norm>
0

>  <SCORE.SYSTEM>
-18.6235

>  <SCORE.SYSTEM.CONST>
0

>  <SCORE.SYSTEM.DIHEDRAL>
4.17347

>  <SCORE.SYSTEM.POLAR>
-2.92371

>  <SCORE.SYSTEM.SOLV>
0.155238

>  <SCORE.SYSTEM.VDW>
-4.11286

>  <SCORE.SYSTEM.norm>
-1.55196

>  <SCORE.heavy>
12

>  <SCORE.norm>
-5.22469

$$$$
P93947832
 OpenBabel12072022113D
libRbt.so/2013.1/901 2013/11/27
 16 16  0  0  0  0  0  0  0  0999 V2000
    7.2482   18.3027    1.4076 C   0  0  0  0  0  0  0  0  0  0  0  0
    6.6324   18.5281    2.7901 C   0  0  1  0  0  0  0  0  0  0  0  0
    5.6277   17.4518    3.1323 C   0  0  0  0  0  0  0  0  0  0  0  0
    4.2230   17.6676    3.3583 C   0  0  0  0  0  0  0  0  0  0  0  0
    3.5451   16.5071    3.6570 C   0  0  0  0  0  0  0  0  0  0  0  0
    4.5782   15.1478    3.6648 S   0  0  0  0  0  0  0  0  0  0  0  0
    5.9366   16.1097    3.2727 C   0  0  0  0  0  0  0  0  0  0  0  0
    7.6309   18.5365    3.8461 N   0  0  0  0  0  0  0  0  0  0  0  0
    7.2655   18.7755    5.1472 C   0  0  0  0  0  0  0  0  0  0  0  0
    6.1501   18.5696    5.6107 O   0  0  0  0  0  0  0  0  0  0  0  0
    8.3224   19.2892    5.8875 N   0  0  0  0  0  0  0  0  0  0  0  0
    9.2692   18.3880    6.4357 N   0  0  0  0  0  0  0  0  0  0  0  0
    8.3844   17.8706    3.7478 H   0  0  0  0  0  0  0  0  0  0  0  0
    8.1398   20.1435    6.4071 H   0  0  0  0  0  0  0  0  0  0  0  0
    8.7347   17.6377    6.8864 H   0  0  0  0  0  0  0  0  0  0  0  0
    9.7064   18.8661    7.2346 H   0  0  0  0  0  0  0  0  0  0  0  0
  2  1  1  6  0  0  0
  2  3  1  0  0  0  0
  2  8  1  0  0  0  0
  3  4  1  0  0  0  0
  3  7  2  0  0  0  0
  4  5  2  0  0  0  0
  5  6  1  0  0  0  0
  6  7  1  0  0  0  0
  8  9  1  0  0  0  0
  8 13  1  0  0  0  0
  9 10  2  0  0  0  0
  9 11  1  0  0  0  0
 11 12  1  0  0  0  0
 11 14  1  0  0  0  0
 12 15  1  0  0  0  0
 12 16  1  0  0  0  0
M  END
>  <CHROM.0>
-50.61228132,49.43768180,59.33474405,-41.63773404,-60.97583955,-60.12221280
52.34858968,-56.75582086,-168.07167801

>  <CHROM.1>
-117.00555991,177.57460892,24.91695333,-83.11691210,-47.26260326,6.27446879
17.55193890,4.04377815,-0.31891111,-0.70473672,-1.38588932

>  <Name>
P93947832

>  <RI>
2.22087e+07

>  <Rbt.Current_Directory>
/home/fstefaniak/projects/zuza/docking/adenine/4XNR

>  <Rbt.Executable>
rbdock ($Id: //depot/dev/client3/rdock/2013.1/src/exe/rbdock.cxx#4 $)

>  <Rbt.Library>
libRbt.so (2013.1, Build901 2013/11/27)

>  <Rbt.Parameter_File>
/home/fstefaniak/progs/rDock//data/scripts/dock_solv.prm

>  <Rbt.Receptor>
4xnr.prm

>  <SCORE>
-62.0694

>  <SCORE.INTER>
-43.84

>  <SCORE.INTER.CONST>
1

>  <SCORE.INTER.POLAR>
-6.05828

>  <SCORE.INTER.ROT>
5

>  <SCORE.INTER.SOLV>
16.4077

>  <SCORE.INTER.VDW>
-21.435

>  <SCORE.INTER.norm>
-3.65333

>  <SCORE.INTRA>
-0.46517

>  <SCORE.INTRA.DIHEDRAL>
-0.46761

>  <SCORE.INTRA.DIHEDRAL.0>
3.70088

>  <SCORE.INTRA.POLAR>
0

>  <SCORE.INTRA.POLAR.0>
0

>  <SCORE.INTRA.REPUL>
0

>  <SCORE.INTRA.REPUL.0>
0

>  <SCORE.INTRA.SOLV>
0.507047

>  <SCORE.INTRA.SOLV.lig_0>
-18.5501

>  <SCORE.INTRA.VDW>
-0.484888

>  <SCORE.INTRA.VDW.0>
-0.445886

>  <SCORE.INTRA.norm>
-0.0387641

>  <SCORE.RESTR>
0

>  <SCORE.RESTR.CAVITY>
0

>  <SCORE.RESTR.norm>
0

>  <SCORE.SYSTEM>
-17.7642

>  <SCORE.SYSTEM.CONST>
0

>  <SCORE.SYSTEM.DIHEDRAL>
5.50117

>  <SCORE.SYSTEM.POLAR>
-3.16311

>  <SCORE.SYSTEM.SOLV>
0.329161

>  <SCORE.SYSTEM.VDW>
-3.24257

>  <SCORE.SYSTEM.norm>
-1.48035

>  <SCORE.heavy>
12

>  <SCORE.norm>
-5.17245

$$$$
P94260767
 OpenBabel12072022113D
libRbt.so/2013.1/901 2013/11/27
 18 18  0  0  0  0  0  0  0  0999 V2000
    1.1252   16.5503    4.2432 C   0  0  0  0  0  0  0  0  0  0  0  0
    1.6746   15.2180    3.8104 C   0  0  0  0  0  0  0  0  0  0  0  0
    0.7668   14.2306    3.3830 C   0  0  0  0  0  0  0  0  0  0  0  0
    1.2003   12.9695    2.9707 C   0  0  0  0  0  0  0  0  0  0  0  0
    2.5617   12.6907    2.9782 C   0  0  0  0  0  0  0  0  0  0  0  0
    3.4787   13.6622    3.4004 C   0  0  0  0  0  0  0  0  0  0  0  0
    3.0544   14.9275    3.8204 C   0  0  0  0  0  0  0  0  0  0  0  0
    3.9563   15.9189    4.2611 N   0  0  0  0  0  0  0  0  0  0  0  0
    5.0675   16.4173    3.6239 C   0  0  0  0  0  0  0  0  0  0  0  0
    5.4879   16.1141    2.5132 O   0  0  0  0  0  0  0  0  0  0  0  0
    5.7516   17.3687    4.3702 N   0  0  0  0  0  0  0  0  0  0  0  0
    5.4382   17.7542    5.6850 N   0  0  0  0  0  0  0  0  0  0  0  0
    0.2032   12.1159    2.5892 O   0  0  0  0  0  0  0  0  0  0  0  0
   -0.4495   12.4030    1.3585 C   0  0  0  0  0  0  0  0  0  0  0  0
    3.7715   16.3562    5.1458 H   0  0  0  0  0  0  0  0  0  0  0  0
    6.5923   17.7359    3.9262 H   0  0  0  0  0  0  0  0  0  0  0  0
    5.2867   18.7634    5.7250 H   0  0  0  0  0  0  0  0  0  0  0  0
    6.1954   17.4894    6.3160 H   0  0  0  0  0  0  0  0  0  0  0  0
  1  2  1  0  0  0  0
  2  3  2  0  0  0  0
  2  7  1  0  0  0  0
  3  4  1  0  0  0  0
  4  5  2  0  0  0  0
  4 13  1  0  0  0  0
  5  6  1  0  0  0  0
  6  7  2  0  0  0  0
  7  8  1  0  0  0  0
  8  9  1  0  0  0  0
  8 15  1  0  0  0  0
  9 10  2  0  0  0  0
  9 11  1  0  0  0  0
 11 12  1  0  0  0  0
 11 16  1  0  0  0  0
 12 17  1  0  0  0  0
 12 18  1  0  0  0  0
 13 14  1  0  0  0  0
M  END
>  <CHROM.0>
-57.83359209,-61.36399122,-72.73751310,-46.73295179,-59.48701460,-61.07485892
-171.57569642,-56.96809554,-167.71980147

>  <CHROM.1>
71.40255241,-126.98034101,-123.90233647,2.84849230,14.93791957,3.51194487
0.76395413,0.14345374,0.57195462

>  <Name>
P94260767

>  <RI>
2.22087e+07

>  <Rbt.Current_Directory>
/home/fstefaniak/projects/zuza/docking/adenine/4XNR

>  <Rbt.Executable>
rbdock ($Id: //depot/dev/client3/rdock/2013.1/src/exe/rbdock.cxx#4 $)

>  <Rbt.Library>
libRbt.so (2013.1, Build901 2013/11/27)

>  <Rbt.Parameter_File>
/home/fstefaniak/progs/rDock//data/scripts/dock_solv.prm

>  <Rbt.Receptor>
4xnr.prm

>  <SCORE>
-43.0841

>  <SCORE.INTER>
-26.0975

>  <SCORE.INTER.CONST>
1

>  <SCORE.INTER.POLAR>
-2.60761

>  <SCORE.INTER.ROT>
3

>  <SCORE.INTER.SOLV>
12.4943

>  <SCORE.INTER.VDW>
-18.4711

>  <SCORE.INTER.norm>
-1.86411

>  <SCORE.INTRA>
2.89298

>  <SCORE.INTRA.DIHEDRAL>
12.313

>  <SCORE.INTRA.DIHEDRAL.0>
0.489232

>  <SCORE.INTRA.POLAR>
-0.18154

>  <SCORE.INTRA.POLAR.0>
0

>  <SCORE.INTRA.REPUL>
0

>  <SCORE.INTRA.REPUL.0>
0

>  <SCORE.INTRA.SOLV>
-0.37051

>  <SCORE.INTRA.SOLV.lig_0>
-20.5172

>  <SCORE.INTRA.VDW>
-2.46105

>  <SCORE.INTRA.VDW.0>
2.18768

>  <SCORE.INTRA.norm>
0.206641

>  <SCORE.RESTR>
0.408138

>  <SCORE.RESTR.CAVITY>
0.408138

>  <SCORE.RESTR.norm>
0.0291527

>  <SCORE.SYSTEM>
-20.2878

>  <SCORE.SYSTEM.CONST>
0

>  <SCORE.SYSTEM.DIHEDRAL>
4.72331

>  <SCORE.SYSTEM.POLAR>
-2.98204

>  <SCORE.SYSTEM.SOLV>
0.237094

>  <SCORE.SYSTEM.VDW>
-5.2385

>  <SCORE.SYSTEM.norm>
-1.44913

>  <SCORE.heavy>
14

>  <SCORE.norm>
-3.07744

$$$$
P94260767
 OpenBabel12072022113D
libRbt.so/2013.1/901 2013/11/27
 18 18  0  0  0  0  0  0  0  0999 V2000
    1.0950   16.6820    4.0522 C   0  0  0  0  0  0  0  0  0  0  0  0
    1.6639   15.3200    3.7594 C   0  0  0  0  0  0  0  0  0  0  0  0
    0.7737   14.2886    3.4055 C   0  0  0  0  0  0  0  0  0  0  0  0
    1.2258   12.9985    3.1237 C   0  0  0  0  0  0  0  0  0  0  0  0
    2.5886   12.7342    3.1891 C   0  0  0  0  0  0  0  0  0  0  0  0
    3.4883   13.7495    3.5396 C   0  0  0  0  0  0  0  0  0  0  0  0
    3.0451   15.0445    3.8289 C   0  0  0  0  0  0  0  0  0  0  0  0
    3.9291   16.0812    4.1954 N   0  0  0  0  0  0  0  0  0  0  0  0
    5.0558   16.5233    3.5439 C   0  0  0  0  0  0  0  0  0  0  0  0
    5.5094   16.1161    2.4805 O   0  0  0  0  0  0  0  0  0  0  0  0
    5.7135   17.5484    4.2124 N   0  0  0  0  0  0  0  0  0  0  0  0
    5.3606   18.0582    5.4737 N   0  0  0  0  0  0  0  0  0  0  0  0
    0.2442   12.1037    2.8009 O   0  0  0  0  0  0  0  0  0  0  0  0
   -0.5011   11.5538    3.8803 C   0  0  0  0  0  0  0  0  0  0  0  0
    3.7169   16.6015    5.0275 H   0  0  0  0  0  0  0  0  0  0  0  0
    6.5648   17.8767    3.7583 H   0  0  0  0  0  0  0  0  0  0  0  0
    6.1799   18.4684    5.9249 H   0  0  0  0  0  0  0  0  0  0  0  0
    4.9775   17.3129    6.0564 H   0  0  0  0  0  0  0  0  0  0  0  0
  1  2  1  0  0  0  0
  2  3  2  0  0  0  0
  2  7  1  0  0  0  0
  3  4  1  0  0  0  0
  4  5  2  0  0  0  0
  4 13  1  0  0  0  0
  5  6  1  0  0  0  0
  6  7  2  0  0  0  0
  7  8  1  0  0  0  0
  8  9  1  0  0  0  0
  8 15  1  0  0  0  0
  9 10  2  0  0  0  0
  9 11  1  0  0  0  0
 11 12  1  0  0  0  0
 11 16  1  0  0  0  0
 12 17  1  0  0  0  0
 12 18  1  0  0  0  0
 13 14  1  0  0  0  0
M  END
>  <CHROM.0>
-54.75469683,29.99610099,-67.10977706,-48.10146851,-174.11562389,-58.57140811
-66.02311950,-56.05299760,-167.05243140

>  <CHROM.1>
-78.99440464,-127.35346511,154.48625092,2.83747657,14.96211497,3.69985733
0.75913020,0.21367995,0.40264842

>  <Name>
P94260767

>  <RI>
2.22087e+07

>  <Rbt.Current_Directory>
/home/fstefaniak/projects/zuza/docking/adenine/4XNR

>  <Rbt.Executable>
rbdock ($Id: //depot/dev/client3/rdock/2013.1/src/exe/rbdock.cxx#4 $)

>  <Rbt.Library>
libRbt.so (2013.1, Build901 2013/11/27)

>  <Rbt.Parameter_File>
/home/fstefaniak/progs/rDock//data/scripts/dock_solv.prm

>  <Rbt.Receptor>
4xnr.prm

>  <SCORE>
-41.0681

>  <SCORE.INTER>
-27.0096

>  <SCORE.INTER.CONST>
1

>  <SCORE.INTER.POLAR>
-2.83721

>  <SCORE.INTER.ROT>
3

>  <SCORE.INTER.SOLV>
11.1342

>  <SCORE.INTER.VDW>
-17.8604

>  <SCORE.INTER.norm>
-1.92926

>  <SCORE.INTRA>
4.34157

>  <SCORE.INTRA.DIHEDRAL>
12.467

>  <SCORE.INTRA.DIHEDRAL.0>
0.489232

>  <SCORE.INTRA.POLAR>
-0.041938

>  <SCORE.INTRA.POLAR.0>
0

>  <SCORE.INTRA.REPUL>
0

>  <SCORE.INTRA.REPUL.0>
0

>  <SCORE.INTRA.SOLV>
-0.229501

>  <SCORE.INTRA.SOLV.lig_0>
-20.5172

>  <SCORE.INTRA.VDW>
-1.63459

>  <SCORE.INTRA.VDW.0>
2.18768

>  <SCORE.INTRA.norm>
0.310112

>  <SCORE.RESTR>
0.466666

>  <SCORE.RESTR.CAVITY>
0.466666

>  <SCORE.RESTR.norm>
0.0333333

>  <SCORE.SYSTEM>
-18.8667

>  <SCORE.SYSTEM.CONST>
0

>  <SCORE.SYSTEM.DIHEDRAL>
7.802

>  <SCORE.SYSTEM.POLAR>
-3.18493

>  <SCORE.SYSTEM.SOLV>
0.279758

>  <SCORE.SYSTEM.VDW>
-4.65531

>  <SCORE.SYSTEM.norm>
-1.34762

>  <SCORE.heavy>
14

>  <SCORE.norm>
-2.93344

$$$$
P94260767
 OpenBabel12072022113D
libRbt.so/2013.1/901 2013/11/27
 18 18  0  0  0  0  0  0  0  0999 V2000
    0.1058   12.1405    3.5809 C   0  0  0  0  0  0  0  0  0  0  0  0
    1.2970   12.0639    4.4972 C   0  0  0  0  0  0  0  0  0  0  0  0
    1.8049   10.7924    4.8240 C   0  0  0  0  0  0  0  0  0  0  0  0
    2.9042   10.6407    5.6706 C   0  0  0  0  0  0  0  0  0  0  0  0
    3.5112   11.7757    6.1945 C   0  0  0  0  0  0  0  0  0  0  0  0
    3.0184   13.0488    5.8792 C   0  0  0  0  0  0  0  0  0  0  0  0
    1.9142   13.2117    5.0358 C   0  0  0  0  0  0  0  0  0  0  0  0
    1.3917   14.4817    4.7122 N   0  0  0  0  0  0  0  0  0  0  0  0
    1.0417   14.9809    3.4803 C   0  0  0  0  0  0  0  0  0  0  0  0
    1.0881   14.4014    2.4012 O   0  0  0  0  0  0  0  0  0  0  0  0
    0.5912   16.2944    3.5246 N   0  0  0  0  0  0  0  0  0  0  0  0
    0.5620   17.1087    4.6698 N   0  0  0  0  0  0  0  0  0  0  0  0
    3.2785    9.3460    5.8993 O   0  0  0  0  0  0  0  0  0  0  0  0
    4.6286    9.0084    5.6054 C   0  0  0  0  0  0  0  0  0  0  0  0
    1.2170   15.1194    5.4677 H   0  0  0  0  0  0  0  0  0  0  0  0
    0.3472   16.6927    2.6189 H   0  0  0  0  0  0  0  0  0  0  0  0
   -0.3760   17.4906    4.8015 H   0  0  0  0  0  0  0  0  0  0  0  0
    1.2379   17.8677    4.5754 H   0  0  0  0  0  0  0  0  0  0  0  0
  1  2  1  0  0  0  0
  2  3  2  0  0  0  0
  2  7  1  0  0  0  0
  3  4  1  0  0  0  0
  4  5  2  0  0  0  0
  4 13  1  0  0  0  0
  5  6  1  0  0  0  0
  6  7  2  0  0  0  0
  7  8  1  0  0  0  0
  8  9  1  0  0  0  0
  8 15  1  0  0  0  0
  9 10  2  0  0  0  0
  9 11  1  0  0  0  0
 11 12  1  0  0  0  0
 11 16  1  0  0  0  0
 12 17  1  0  0  0  0
 12 18  1  0  0  0  0
 13 14  1  0  0  0  0
M  END
>  <CHROM.0>
-57.94018562,-63.14966247,-62.08750851,-49.37873432,61.47276718,-63.16848110
-67.00047533,-55.97407741,-168.64741452

>  <CHROM.1>
124.49219919,-47.50655225,-126.70814952,1.91376165,12.86412842,4.68033224
2.21409524,-0.82601242,0.19045048

>  <Name>
P94260767

>  <RI>
2.22087e+07

>  <Rbt.Current_Directory>
/home/fstefaniak/projects/zuza/docking/adenine/4XNR

>  <Rbt.Executable>
rbdock ($Id: //depot/dev/client3/rdock/2013.1/src/exe/rbdock.cxx#4 $)

>  <Rbt.Library>
libRbt.so (2013.1, Build901 2013/11/27)

>  <Rbt.Parameter_File>
/home/fstefaniak/progs/rDock//data/scripts/dock_solv.prm

>  <Rbt.Receptor>
4xnr.prm

>  <SCORE>
-39.966

>  <SCORE.INTER>
-24.4674

>  <SCORE.INTER.CONST>
1

>  <SCORE.INTER.POLAR>
-4.05498

>  <SCORE.INTER.ROT>
3

>  <SCORE.INTER.SOLV>
12.6644

>  <SCORE.INTER.VDW>
-12.6165

>  <SCORE.INTER.norm>
-1.74767

>  <SCORE.INTRA>
3.8009

>  <SCORE.INTRA.DIHEDRAL>
10.3941

>  <SCORE.INTRA.DIHEDRAL.0>
0.489232

>  <SCORE.INTRA.POLAR>
-0.18154

>  <SCORE.INTRA.POLAR.0>
0

>  <SCORE.INTRA.REPUL>
0

>  <SCORE.INTRA.REPUL.0>
0

>  <SCORE.INTRA.SOLV>
0.0567216

>  <SCORE.INTRA.SOLV.lig_0>
-20.5172

>  <SCORE.INTRA.VDW>
-0.807265

>  <SCORE.INTRA.VDW.0>
2.18768

>  <SCORE.INTRA.norm>
0.271493

>  <SCORE.RESTR>
0.503777

>  <SCORE.RESTR.CAVITY>
0.503777

>  <SCORE.RESTR.norm>
0.0359841

>  <SCORE.SYSTEM>
-19.8033

>  <SCORE.SYSTEM.CONST>
0

>  <SCORE.SYSTEM.DIHEDRAL>
3.672

>  <SCORE.SYSTEM.POLAR>
-2.94915

>  <SCORE.SYSTEM.SOLV>
0.0825671

>  <SCORE.SYSTEM.VDW>
-4.62322

>  <SCORE.SYSTEM.norm>
-1.41452

>  <SCORE.heavy>
14

>  <SCORE.norm>
-2.85472

$$$$
P94512349
 OpenBabel12072022113D
libRbt.so/2013.1/901 2013/11/27
 13 13  0  0  0  0  0  0  0  0999 V2000
    2.5738   13.6945    4.4154 C   0  0  0  0  0  0  0  0  0  0  0  0
    3.9086   14.2746    3.9913 C   0  0  0  0  0  0  0  0  0  0  0  0
    3.8739   15.7219    3.9755 N   0  0  0  0  0  0  0  0  0  0  0  0
    4.8532   16.4174    3.3125 C   0  0  0  0  0  0  0  0  0  0  0  0
    5.0366   16.3249    2.1027 O   0  0  0  0  0  0  0  0  0  0  0  0
    5.6035   17.2390    4.1147 N   0  0  0  0  0  0  0  0  0  0  0  0
    6.6829   18.0342    3.5613 C   0  0  0  0  0  0  0  0  0  0  0  0
    7.3647   18.6418    4.7749 C   0  0  0  0  0  0  0  0  0  0  0  0
    6.2073   18.8411    5.7488 C   0  0  1  0  0  0  0  0  0  0  0  0
    5.3362   17.6082    5.4986 C   0  0  0  0  0  0  0  0  0  0  0  0
    6.6651   18.9052    7.0881 O   0  0  0  0  0  0  0  0  0  0  0  0
    3.5566   16.1727    4.8198 H   0  0  0  0  0  0  0  0  0  0  0  0
    7.1275   18.0706    7.2793 H   0  0  0  0  0  0  0  0  0  0  0  0
  1  2  1  0  0  0  0
  2  3  1  0  0  0  0
  3  4  1  0  0  0  0
  3 12  1  0  0  0  0
  4  5  2  0  0  0  0
  4  6  1  0  0  0  0
  6  7  1  0  0  0  0
  6 10  1  0  0  0  0
  7  8  1  0  0  0  0
  8  9  1  0  0  0  0
  9 10  1  0  0  0  0
  9 11  1  1  0  0  0
 11 13  1  0  0  0  0
M  END
>  <CHROM.0>
-57.73208723,-63.84328597,-64.10174406,-47.58921664,-175.80766787,-66.02741157
-64.97272476,-58.96232308,-168.11659892

>  <CHROM.1>
-163.86376603,62.36839366,-59.07534566,5.27973305,16.87664179,4.44766210
2.61770033,-0.84319908,-1.78459191

>  <Name>
P94512349

>  <RI>
3.4169e+07

>  <Rbt.Current_Directory>
/home/fstefaniak/projects/zuza/docking/adenine/4XNR

>  <Rbt.Executable>
rbdock ($Id: //depot/dev/client3/rdock/2013.1/src/exe/rbdock.cxx#4 $)

>  <Rbt.Library>
libRbt.so (2013.1, Build901 2013/11/27)

>  <Rbt.Parameter_File>
/home/fstefaniak/progs/rDock//data/scripts/dock_solv.prm

>  <Rbt.Receptor>
4xnr.prm

>  <SCORE>
-50.4577

>  <SCORE.INTER>
-29.6616

>  <SCORE.INTER.CONST>
1

>  <SCORE.INTER.POLAR>
-3.04945

>  <SCORE.INTER.ROT>
2

>  <SCORE.INTER.SOLV>
12.3661

>  <SCORE.INTER.VDW>
-18.6649

>  <SCORE.INTER.norm>
-2.69651

>  <SCORE.INTRA>
0.112569

>  <SCORE.INTRA.DIHEDRAL>
0.00346592

>  <SCORE.INTRA.DIHEDRAL.0>
0.815271

>  <SCORE.INTRA.POLAR>
0

>  <SCORE.INTRA.POLAR.0>
0

>  <SCORE.INTRA.REPUL>
0

>  <SCORE.INTRA.REPUL.0>
0

>  <SCORE.INTRA.SOLV>
-0.0197943

>  <SCORE.INTRA.SOLV.lig_0>
-15.4579

>  <SCORE.INTRA.VDW>
0.120733

>  <SCORE.INTRA.VDW.0>
0.765689

>  <SCORE.INTRA.norm>
0.0102335

>  <SCORE.RESTR>
0

>  <SCORE.RESTR.CAVITY>
0

>  <SCORE.RESTR.norm>
0

>  <SCORE.SYSTEM>
-20.9087

>  <SCORE.SYSTEM.CONST>
0

>  <SCORE.SYSTEM.DIHEDRAL>
4.00534

>  <SCORE.SYSTEM.POLAR>
-2.98393

>  <SCORE.SYSTEM.SOLV>
0.112188

>  <SCORE.SYSTEM.VDW>
-5.36524

>  <SCORE.SYSTEM.norm>
-1.90079

>  <SCORE.heavy>
11

>  <SCORE.norm>
-4.58707

$$$$
P94512349
 OpenBabel12072022113D
libRbt.so/2013.1/901 2013/11/27
 13 13  0  0  0  0  0  0  0  0999 V2000
    2.6184   13.6724    4.4250 C   0  0  0  0  0  0  0  0  0  0  0  0
    3.9408   14.2634    3.9773 C   0  0  0  0  0  0  0  0  0  0  0  0
    3.8829   15.7092    3.9279 N   0  0  0  0  0  0  0  0  0  0  0  0
    4.8707   16.4065    3.2798 C   0  0  0  0  0  0  0  0  0  0  0  0
    5.0717   16.3155    2.0726 O   0  0  0  0  0  0  0  0  0  0  0  0
    5.6083   17.2283    4.0935 N   0  0  0  0  0  0  0  0  0  0  0  0
    6.6945   18.0254    3.5565 C   0  0  0  0  0  0  0  0  0  0  0  0
    7.3580   18.6326    4.7805 C   0  0  0  0  0  0  0  0  0  0  0  0
    6.1864   18.8295    5.7377 C   0  0  1  0  0  0  0  0  0  0  0  0
    5.3206   17.5958    5.4738 C   0  0  0  0  0  0  0  0  0  0  0  0
    6.6248   18.8929    7.0835 O   0  0  0  0  0  0  0  0  0  0  0  0
    3.5321   16.1729    4.7516 H   0  0  0  0  0  0  0  0  0  0  0  0
    7.0883   18.0600    7.2796 H   0  0  0  0  0  0  0  0  0  0  0  0
  1  2  1  0  0  0  0
  2  3  1  0  0  0  0
  3  4  1  0  0  0  0
  3 12  1  0  0  0  0
  4  5  2  0  0  0  0
  4  6  1  0  0  0  0
  6  7  1  0  0  0  0
  6 10  1  0  0  0  0
  7  8  1  0  0  0  0
  8  9  1  0  0  0  0
  9 10  1  0  0  0  0
  9 11  1  1  0  0  0
 11 13  1  0  0  0  0
M  END
>  <CHROM.0>
-54.83405146,-67.30761005,-65.84148667,-47.83509761,-58.73869172,-65.10354433
-68.52179291,-61.48786371,-168.19855676

>  <CHROM.1>
-166.05620325,64.22746843,-58.87353360,5.28577453,16.86475464,4.43175761
2.60611944,-0.84834862,-1.79356169

>  <Name>
P94512349

>  <RI>
3.4169e+07

>  <Rbt.Current_Directory>
/home/fstefaniak/projects/zuza/docking/adenine/4XNR

>  <Rbt.Executable>
rbdock ($Id: //depot/dev/client3/rdock/2013.1/src/exe/rbdock.cxx#4 $)

>  <Rbt.Library>
libRbt.so (2013.1, Build901 2013/11/27)

>  <Rbt.Parameter_File>
/home/fstefaniak/progs/rDock//data/scripts/dock_solv.prm

>  <Rbt.Receptor>
4xnr.prm

>  <SCORE>
-50.3313

>  <SCORE.INTER>
-29.4699

>  <SCORE.INTER.CONST>
1

>  <SCORE.INTER.POLAR>
-3.02392

>  <SCORE.INTER.ROT>
2

>  <SCORE.INTER.SOLV>
12.4026

>  <SCORE.INTER.VDW>
-18.6344

>  <SCORE.INTER.norm>
-2.67908

>  <SCORE.INTRA>
0.0325274

>  <SCORE.INTRA.DIHEDRAL>
-0.0152514

>  <SCORE.INTRA.DIHEDRAL.0>
0.815271

>  <SCORE.INTRA.POLAR>
0

>  <SCORE.INTRA.POLAR.0>
0

>  <SCORE.INTRA.REPUL>
0

>  <SCORE.INTRA.REPUL.0>
0

>  <SCORE.INTRA.SOLV>
-0.0221092

>  <SCORE.INTRA.SOLV.lig_0>
-15.4579

>  <SCORE.INTRA.VDW>
0.0512077

>  <SCORE.INTRA.VDW.0>
0.765689

>  <SCORE.INTRA.norm>
0.00295704

>  <SCORE.RESTR>
0

>  <SCORE.RESTR.CAVITY>
0

>  <SCORE.RESTR.norm>
0

>  <SCORE.SYSTEM>
-20.8939

>  <SCORE.SYSTEM.CONST>
0

>  <SCORE.SYSTEM.DIHEDRAL>
4.43065

>  <SCORE.SYSTEM.POLAR>
-3.00381

>  <SCORE.SYSTEM.SOLV>
0.274555

>  <SCORE.SYSTEM.VDW>
-5.48497

>  <SCORE.SYSTEM.norm>
-1.89945

>  <SCORE.heavy>
11

>  <SCORE.norm>
-4.57557

$$$$
P94512349
 OpenBabel12072022113D
libRbt.so/2013.1/901 2013/11/27
 13 13  0  0  0  0  0  0  0  0999 V2000
    2.5064   13.7382    4.1260 C   0  0  0  0  0  0  0  0  0  0  0  0
    3.9065   14.2971    3.9667 C   0  0  0  0  0  0  0  0  0  0  0  0
    3.9003   15.7449    3.9704 N   0  0  0  0  0  0  0  0  0  0  0  0
    4.8933   16.4298    3.3170 C   0  0  0  0  0  0  0  0  0  0  0  0
    5.0901   16.3321    2.1096 O   0  0  0  0  0  0  0  0  0  0  0  0
    5.6414   17.2472    4.1256 N   0  0  0  0  0  0  0  0  0  0  0  0
    6.7341   18.0313    3.5826 C   0  0  0  0  0  0  0  0  0  0  0  0
    7.4070   18.6364    4.8024 C   0  0  0  0  0  0  0  0  0  0  0  0
    6.2400   18.8488    5.7620 C   0  0  1  0  0  0  0  0  0  0  0  0
    5.3611   17.6228    5.5051 C   0  0  0  0  0  0  0  0  0  0  0  0
    6.6827   18.9128    7.1064 O   0  0  0  0  0  0  0  0  0  0  0  0
    3.5916   16.1904    4.8206 H   0  0  0  0  0  0  0  0  0  0  0  0
    7.1228   18.0691    7.3098 H   0  0  0  0  0  0  0  0  0  0  0  0
  1  2  1  0  0  0  0
  2  3  1  0  0  0  0
  3  4  1  0  0  0  0
  3 12  1  0  0  0  0
  4  5  2  0  0  0  0
  4  6  1  0  0  0  0
  6  7  1  0  0  0  0
  6 10  1  0  0  0  0
  7  8  1  0  0  0  0
  8  9  1  0  0  0  0
  9 10  1  0  0  0  0
  9 11  1  1  0  0  0
 11 13  1  0  0  0  0
M  END
>  <CHROM.0>
-58.16490887,-62.53352360,-64.82986235,-49.37388546,-59.49057719,-66.25370341
-69.74132382,-59.04088639,-168.50786090

>  <CHROM.1>
-153.19916923,61.06685832,-59.97551014,5.30247406,16.88928844,4.42755750
2.57807664,-0.81881528,-1.80815361

>  <Name>
P94512349

>  <RI>
3.4169e+07

>  <Rbt.Current_Directory>
/home/fstefaniak/projects/zuza/docking/adenine/4XNR

>  <Rbt.Executable>
rbdock ($Id: //depot/dev/client3/rdock/2013.1/src/exe/rbdock.cxx#4 $)

>  <Rbt.Library>
libRbt.so (2013.1, Build901 2013/11/27)

>  <Rbt.Parameter_File>
/home/fstefaniak/progs/rDock//data/scripts/dock_solv.prm

>  <Rbt.Receptor>
4xnr.prm

>  <SCORE>
-50.2702

>  <SCORE.INTER>
-29.6295

>  <SCORE.INTER.CONST>
1

>  <SCORE.INTER.POLAR>
-3.09051

>  <SCORE.INTER.ROT>
2

>  <SCORE.INTER.SOLV>
12.2982

>  <SCORE.INTER.VDW>
-18.4841

>  <SCORE.INTER.norm>
-2.6936

>  <SCORE.INTRA>
0.225463

>  <SCORE.INTRA.DIHEDRAL>
0.267887

>  <SCORE.INTRA.DIHEDRAL.0>
0.815271

>  <SCORE.INTRA.POLAR>
0

>  <SCORE.INTRA.POLAR.0>
0

>  <SCORE.INTRA.REPUL>
0

>  <SCORE.INTRA.REPUL.0>
0

>  <SCORE.INTRA.SOLV>
-0.00863638

>  <SCORE.INTRA.SOLV.lig_0>
-15.4579

>  <SCORE.INTRA.VDW>
0.0958374

>  <SCORE.INTRA.VDW.0>
0.765689

>  <SCORE.INTRA.norm>
0.0204966

>  <SCORE.RESTR>
0

>  <SCORE.RESTR.CAVITY>
0

>  <SCORE.RESTR.norm>
0

>  <SCORE.SYSTEM>
-20.8661

>  <SCORE.SYSTEM.CONST>
0

>  <SCORE.SYSTEM.DIHEDRAL>
4.00798

>  <SCORE.SYSTEM.POLAR>
-2.94339

>  <SCORE.SYSTEM.SOLV>
0.267927

>  <SCORE.SYSTEM.VDW>
-5.52477

>  <SCORE.SYSTEM.norm>
-1.89692

>  <SCORE.heavy>
11

>  <SCORE.norm>
-4.57002

$$$$
P94512424
 OpenBabel12072022113D
libRbt.so/2013.1/901 2013/11/27
 14 14  0  0  0  0  0  0  0  0999 V2000
    3.4488   13.6314    4.1966 C   0  0  0  0  0  0  0  0  0  0  0  0
    3.6774   15.0389    3.6554 C   0  0  0  0  0  0  0  0  0  0  0  0
    2.4212   15.8922    3.8198 C   0  0  0  0  0  0  0  0  0  0  0  0
    4.8103   15.6523    4.3353 N   0  0  0  0  0  0  0  0  0  0  0  0
    5.5801   16.6041    3.7197 C   0  0  0  0  0  0  0  0  0  0  0  0
    6.0146   16.4727    2.5795 O   0  0  0  0  0  0  0  0  0  0  0  0
    5.8641   17.7031    4.4910 N   0  0  0  0  0  0  0  0  0  0  0  0
    5.4662   17.9656    5.8669 C   0  0  0  0  0  0  0  0  0  0  0  0
    5.9602   19.3783    6.1562 C   0  0  0  0  0  0  0  0  0  0  0  0
    7.1671   19.5176    5.2362 C   0  0  2  0  0  0  0  0  0  0  0  0
    6.7305   18.7602    3.9817 C   0  0  0  0  0  0  0  0  0  0  0  0
    8.3011   18.9001    5.8475 O   0  0  0  0  0  0  0  0  0  0  0  0
    4.7618   15.6975    5.3393 H   0  0  0  0  0  0  0  0  0  0  0  0
    8.5316   19.4218    6.6385 H   0  0  0  0  0  0  0  0  0  0  0  0
  1  2  1  0  0  0  0
  2  3  1  0  0  0  0
  2  4  1  0  0  0  0
  4  5  1  0  0  0  0
  4 13  1  0  0  0  0
  5  6  2  0  0  0  0
  5  7  1  0  0  0  0
  7  8  1  0  0  0  0
  7 11  1  0  0  0  0
  8  9  1  0  0  0  0
  9 10  1  0  0  0  0
 10 11  1  0  0  0  0
 10 12  1  1  0  0  0
 12 14  1  0  0  0  0
M  END
>  <CHROM.0>
-57.78513444,-61.80516287,-68.26351416,-47.27275323,-176.46531617,-63.79354438
-66.89099796,-174.30911795,-167.49785671

>  <CHROM.1>
151.79863938,-47.50486258,-66.81801028,5.47591425,17.12103498,4.50561552
2.38933826,-0.54163846,-2.26344860

>  <Name>
P94512424

>  <RI>
3.4169e+07

>  <Rbt.Current_Directory>
/home/fstefaniak/projects/zuza/docking/adenine/4XNR

>  <Rbt.Executable>
rbdock ($Id: //depot/dev/client3/rdock/2013.1/src/exe/rbdock.cxx#4 $)

>  <Rbt.Library>
libRbt.so (2013.1, Build901 2013/11/27)

>  <Rbt.Parameter_File>
/home/fstefaniak/progs/rDock//data/scripts/dock_solv.prm

>  <Rbt.Receptor>
4xnr.prm

>  <SCORE>
-59.6356

>  <SCORE.INTER>
-37.0975

>  <SCORE.INTER.CONST>
1

>  <SCORE.INTER.POLAR>
-3.93193

>  <SCORE.INTER.ROT>
2

>  <SCORE.INTER.SOLV>
13.3008

>  <SCORE.INTER.VDW>
-20.9922

>  <SCORE.INTER.norm>
-3.09146

>  <SCORE.INTRA>
-1.64191

>  <SCORE.INTRA.DIHEDRAL>
-1.5249

>  <SCORE.INTRA.DIHEDRAL.0>
2.93818

>  <SCORE.INTRA.POLAR>
0

>  <SCORE.INTRA.POLAR.0>
0

>  <SCORE.INTRA.REPUL>
0

>  <SCORE.INTRA.REPUL.0>
0

>  <SCORE.INTRA.SOLV>
-0.0187269

>  <SCORE.INTRA.SOLV.lig_0>
-14.4313

>  <SCORE.INTRA.VDW>
-0.870093

>  <SCORE.INTRA.VDW.0>
0.920594

>  <SCORE.INTRA.norm>
-0.136826

>  <SCORE.RESTR>
0

>  <SCORE.RESTR.CAVITY>
0

>  <SCORE.RESTR.norm>
0

>  <SCORE.SYSTEM>
-20.8962

>  <SCORE.SYSTEM.CONST>
0

>  <SCORE.SYSTEM.DIHEDRAL>
4.39971

>  <SCORE.SYSTEM.POLAR>
-2.98159

>  <SCORE.SYSTEM.SOLV>
-0.0295834

>  <SCORE.SYSTEM.VDW>
-5.44887

>  <SCORE.SYSTEM.norm>
-1.74135

>  <SCORE.heavy>
12

>  <SCORE.norm>
-4.96963

$$$$
P94512424
 OpenBabel12072022113D
libRbt.so/2013.1/901 2013/11/27
 14 14  0  0  0  0  0  0  0  0999 V2000
    3.5078   13.5550    3.8878 C   0  0  0  0  0  0  0  0  0  0  0  0
    3.5889   15.0363    3.5336 C   0  0  0  0  0  0  0  0  0  0  0  0
    2.2860   15.7496    3.8894 C   0  0  0  0  0  0  0  0  0  0  0  0
    4.7171   15.6485    4.2224 N   0  0  0  0  0  0  0  0  0  0  0  0
    5.5073   16.5820    3.6046 C   0  0  0  0  0  0  0  0  0  0  0  0
    5.9403   16.4378    2.4654 O   0  0  0  0  0  0  0  0  0  0  0  0
    5.8133   17.6773    4.3726 N   0  0  0  0  0  0  0  0  0  0  0  0
    5.4194   17.9527    5.7472 C   0  0  0  0  0  0  0  0  0  0  0  0
    5.9426   19.3557    6.0324 C   0  0  0  0  0  0  0  0  0  0  0  0
    7.1531   19.4667    5.1134 C   0  0  2  0  0  0  0  0  0  0  0  0
    6.7023   18.7144    3.8608 C   0  0  0  0  0  0  0  0  0  0  0  0
    8.2733   18.8276    5.7281 O   0  0  0  0  0  0  0  0  0  0  0  0
    4.6524   15.7105    5.2245 H   0  0  0  0  0  0  0  0  0  0  0  0
    8.4730   19.3089    6.5523 H   0  0  0  0  0  0  0  0  0  0  0  0
  1  2  1  0  0  0  0
  2  3  1  0  0  0  0
  2  4  1  0  0  0  0
  4  5  1  0  0  0  0
  4 13  1  0  0  0  0
  5  6  2  0  0  0  0
  5  7  1  0  0  0  0
  7  8  1  0  0  0  0
  7 11  1  0  0  0  0
  8  9  1  0  0  0  0
  9 10  1  0  0  0  0
 10 11  1  0  0  0  0
 10 12  1  1  0  0  0
 12 14  1  0  0  0  0
M  END
>  <CHROM.0>
-60.84182330,-61.18134594,-65.40629828,-45.79553312,-60.12219275,-66.01959454
-68.38237723,-62.52208227,-167.89064313

>  <CHROM.1>
140.55427164,-46.21637068,-62.76753161,5.42671593,17.07674043,4.38683468
-2.37020567,0.50560298,0.83861149

>  <Name>
P94512424

>  <RI>
3.4169e+07

>  <Rbt.Current_Directory>
/home/fstefaniak/projects/zuza/docking/adenine/4XNR

>  <Rbt.Executable>
rbdock ($Id: //depot/dev/client3/rdock/2013.1/src/exe/rbdock.cxx#4 $)

>  <Rbt.Library>
libRbt.so (2013.1, Build901 2013/11/27)

>  <Rbt.Parameter_File>
/home/fstefaniak/progs/rDock//data/scripts/dock_solv.prm

>  <Rbt.Receptor>
4xnr.prm

>  <SCORE>
-59.5266

>  <SCORE.INTER>
-37.0821

>  <SCORE.INTER.CONST>
1

>  <SCORE.INTER.POLAR>
-3.95941

>  <SCORE.INTER.ROT>
2

>  <SCORE.INTER.SOLV>
13.1134

>  <SCORE.INTER.VDW>
-20.8279

>  <SCORE.INTER.norm>
-3.09018

>  <SCORE.INTRA>
-1.53203

>  <SCORE.INTRA.DIHEDRAL>
-1.33811

>  <SCORE.INTRA.DIHEDRAL.0>
2.93818

>  <SCORE.INTRA.POLAR>
0

>  <SCORE.INTRA.POLAR.0>
0

>  <SCORE.INTRA.REPUL>
0

>  <SCORE.INTRA.REPUL.0>
0

>  <SCORE.INTRA.SOLV>
-0.0342906

>  <SCORE.INTRA.SOLV.lig_0>
-14.4313

>  <SCORE.INTRA.VDW>
-0.845832

>  <SCORE.INTRA.VDW.0>
0.920594

>  <SCORE.INTRA.norm>
-0.127669

>  <SCORE.RESTR>
0

>  <SCORE.RESTR.CAVITY>
0

>  <SCORE.RESTR.norm>
0

>  <SCORE.SYSTEM>
-20.9124

>  <SCORE.SYSTEM.CONST>
0

>  <SCORE.SYSTEM.DIHEDRAL>
4.35913

>  <SCORE.SYSTEM.POLAR>
-2.99119

>  <SCORE.SYSTEM.SOLV>
0.268574

>  <SCORE.SYSTEM.VDW>
-5.51356

>  <SCORE.SYSTEM.norm>
-1.7427

>  <SCORE.heavy>
12

>  <SCORE.norm>
-4.96055

$$$$
P94512424
 OpenBabel12072022113D
libRbt.so/2013.1/901 2013/11/27
 14 14  0  0  0  0  0  0  0  0999 V2000
    3.4983   13.5673    3.8937 C   0  0  0  0  0  0  0  0  0  0  0  0
    3.5842   15.0477    3.5367 C   0  0  0  0  0  0  0  0  0  0  0  0
    2.2829   15.7656    3.8896 C   0  0  0  0  0  0  0  0  0  0  0  0
    4.7133   15.6580    4.2256 N   0  0  0  0  0  0  0  0  0  0  0  0
    5.5113   16.5826    3.6045 C   0  0  0  0  0  0  0  0  0  0  0  0
    5.9435   16.4305    2.4660 O   0  0  0  0  0  0  0  0  0  0  0  0
    5.8259   17.6784    4.3684 N   0  0  0  0  0  0  0  0  0  0  0  0
    5.4338   17.9623    5.7417 C   0  0  0  0  0  0  0  0  0  0  0  0
    5.9682   19.3621    6.0217 C   0  0  0  0  0  0  0  0  0  0  0  0
    7.1799   19.4597    5.1027 C   0  0  2  0  0  0  0  0  0  0  0  0
    6.7234   18.7062    3.8529 C   0  0  0  0  0  0  0  0  0  0  0  0
    8.2946   18.8140    5.7204 O   0  0  0  0  0  0  0  0  0  0  0  0
    4.6453   15.7272    5.2270 H   0  0  0  0  0  0  0  0  0  0  0  0
    8.4956   19.2947    6.5446 H   0  0  0  0  0  0  0  0  0  0  0  0
  1  2  1  0  0  0  0
  2  3  1  0  0  0  0
  2  4  1  0  0  0  0
  4  5  1  0  0  0  0
  4 13  1  0  0  0  0
  5  6  2  0  0  0  0
  5  7  1  0  0  0  0
  7  8  1  0  0  0  0
  7 11  1  0  0  0  0
  8  9  1  0  0  0  0
  9 10  1  0  0  0  0
 10 11  1  0  0  0  0
 10 12  1  1  0  0  0
 12 14  1  0  0  0  0
M  END
>  <CHROM.0>
-60.59803875,-62.04049967,-63.77956207,-44.00104638,-179.02246536,-65.38775919
-69.64249621,-179.55024463,-168.41455706

>  <CHROM.1>
140.20275880,-45.93038804,-62.54035007,5.43562442,17.07916096,4.38404962
-2.37475121,0.49978486,0.83697582

>  <Name>
P94512424

>  <RI>
3.4169e+07

>  <Rbt.Current_Directory>
/home/fstefaniak/projects/zuza/docking/adenine/4XNR

>  <Rbt.Executable>
rbdock ($Id: //depot/dev/client3/rdock/2013.1/src/exe/rbdock.cxx#4 $)

>  <Rbt.Library>
libRbt.so (2013.1, Build901 2013/11/27)

>  <Rbt.Parameter_File>
/home/fstefaniak/progs/rDock//data/scripts/dock_solv.prm

>  <Rbt.Receptor>
4xnr.prm

>  <SCORE>
-59.4426

>  <SCORE.INTER>
-37.134

>  <SCORE.INTER.CONST>
1

>  <SCORE.INTER.POLAR>
-3.94414

>  <SCORE.INTER.ROT>
2

>  <SCORE.INTER.SOLV>
13.1168

>  <SCORE.INTER.VDW>
-20.9145

>  <SCORE.INTER.norm>
-3.0945

>  <SCORE.INTRA>
-1.51572

>  <SCORE.INTRA.DIHEDRAL>
-1.32983

>  <SCORE.INTRA.DIHEDRAL.0>
2.93818

>  <SCORE.INTRA.POLAR>
0

>  <SCORE.INTRA.POLAR.0>
0

>  <SCORE.INTRA.REPUL>
0

>  <SCORE.INTRA.REPUL.0>
0

>  <SCORE.INTRA.SOLV>
-0.0346679

>  <SCORE.INTRA.SOLV.lig_0>
-14.4313

>  <SCORE.INTRA.VDW>
-0.833475

>  <SCORE.INTRA.VDW.0>
0.920594

>  <SCORE.INTRA.norm>
-0.12631

>  <SCORE.RESTR>
0

>  <SCORE.RESTR.CAVITY>
0

>  <SCORE.RESTR.norm>
0

>  <SCORE.SYSTEM>
-20.7929

>  <SCORE.SYSTEM.CONST>
0

>  <SCORE.SYSTEM.DIHEDRAL>
4.52914

>  <SCORE.SYSTEM.POLAR>
-3.01687

>  <SCORE.SYSTEM.SOLV>
-0.0316784

>  <SCORE.SYSTEM.VDW>
-5.30486

>  <SCORE.SYSTEM.norm>
-1.73274

>  <SCORE.heavy>
12

>  <SCORE.norm>
-4.95355

$$$$
P94524995
 OpenBabel12072022113D
libRbt.so/2013.1/901 2013/11/27
 14 14  0  0  0  0  0  0  0  0999 V2000
    0.4127   16.8287    4.4362 C   0  0  0  0  0  0  0  0  0  0  0  0
    1.4693   16.1534    3.5802 C   0  0  0  0  0  0  0  0  0  0  0  0
    2.7940   16.3409    4.1221 N   0  0  0  0  0  0  0  0  0  0  0  0
    3.8717   16.7022    3.3413 C   0  0  0  0  0  0  0  0  0  0  0  0
    3.7804   17.0271    2.1608 O   0  0  0  0  0  0  0  0  0  0  0  0
    5.2015   16.7375    4.1042 C   0  0  0  0  0  0  0  0  0  0  0  0
    5.4532   18.0714    4.6985 N   0  0  0  0  0  0  0  0  0  0  0  0
    5.5046   18.0212    6.1682 C   0  0  0  0  0  0  0  0  0  0  0  0
    6.1490   19.3548    6.5069 C   0  0  0  0  0  0  0  0  0  0  0  0
    7.2317   19.4971    5.4470 C   0  0  2  0  0  0  0  0  0  0  0  0
    6.7730   18.5890    4.2951 C   0  0  0  0  0  0  0  0  0  0  0  0
    8.4675   19.0398    5.9935 O   0  0  0  0  0  0  0  0  0  0  0  0
    3.0360   15.9459    5.0276 H   0  0  0  0  0  0  0  0  0  0  0  0
    8.6605   19.5837    6.7764 H   0  0  0  0  0  0  0  0  0  0  0  0
  1  2  1  0  0  0  0
  2  3  1  0  0  0  0
  3  4  1  0  0  0  0
  3 13  1  0  0  0  0
  4  5  2  0  0  0  0
  4  6  1  0  0  0  0
  6  7  1  0  0  0  0
  7  8  1  0  0  0  0
  7 11  1  0  0  0  0
  8  9  1  0  0  0  0
  9 10  1  0  0  0  0
 10 11  1  0  0  0  0
 10 12  1  1  0  0  0
 12 14  1  0  0  0  0
M  END
>  <CHROM.0>
-57.11102726,-62.19065451,-68.02888477,-46.81033181,-172.40060588,-59.34938709
-65.99852119,-55.85023120,-167.55762794

>  <CHROM.1>
-134.38856026,-89.56844074,116.77470504,-59.15352884,4.77369674,17.70156777
4.58394679,2.66770301,-0.27746754,-1.96183459

>  <Name>
P94524995

>  <RI>
3.4169e+07

>  <Rbt.Current_Directory>
/home/fstefaniak/projects/zuza/docking/adenine/4XNR

>  <Rbt.Executable>
rbdock ($Id: //depot/dev/client3/rdock/2013.1/src/exe/rbdock.cxx#4 $)

>  <Rbt.Library>
libRbt.so (2013.1, Build901 2013/11/27)

>  <Rbt.Parameter_File>
/home/fstefaniak/progs/rDock//data/scripts/dock_solv.prm

>  <Rbt.Receptor>
4xnr.prm

>  <SCORE>
-54.6855

>  <SCORE.INTER>
-35.4868

>  <SCORE.INTER.CONST>
1

>  <SCORE.INTER.POLAR>
-3.91062

>  <SCORE.INTER.ROT>
3

>  <SCORE.INTER.SOLV>
14.7083

>  <SCORE.INTER.VDW>
-21.1253

>  <SCORE.INTER.norm>
-2.95723

>  <SCORE.INTRA>
1.57688

>  <SCORE.INTRA.DIHEDRAL>
2.5837

>  <SCORE.INTRA.DIHEDRAL.0>
2.19065

>  <SCORE.INTRA.POLAR>
0.175644

>  <SCORE.INTRA.POLAR.0>
-0.175644

>  <SCORE.INTRA.REPUL>
0

>  <SCORE.INTRA.REPUL.0>
0

>  <SCORE.INTRA.SOLV>
-0.696608

>  <SCORE.INTRA.SOLV.lig_0>
-17.6086

>  <SCORE.INTRA.VDW>
0.0361488

>  <SCORE.INTRA.VDW.0>
-0.952511

>  <SCORE.INTRA.norm>
0.131407

>  <SCORE.RESTR>
0

>  <SCORE.RESTR.CAVITY>
0

>  <SCORE.RESTR.norm>
0

>  <SCORE.SYSTEM>
-20.7756

>  <SCORE.SYSTEM.CONST>
0

>  <SCORE.SYSTEM.DIHEDRAL>
4.47185

>  <SCORE.SYSTEM.POLAR>
-3.00421

>  <SCORE.SYSTEM.SOLV>
0.12336

>  <SCORE.SYSTEM.VDW>
-5.36808

>  <SCORE.SYSTEM.norm>
-1.7313

>  <SCORE.heavy>
12

>  <SCORE.norm>
-4.55712

$$$$
P94524995
 OpenBabel12072022113D
libRbt.so/2013.1/901 2013/11/27
 14 14  0  0  0  0  0  0  0  0999 V2000
    6.2522   18.8499    6.3082 C   0  0  0  0  0  0  0  0  0  0  0  0
    5.8078   18.5340    4.8912 C   0  0  0  0  0  0  0  0  0  0  0  0
    5.3576   17.1682    4.7659 N   0  0  0  0  0  0  0  0  0  0  0  0
    5.2597   16.5270    3.5489 C   0  0  0  0  0  0  0  0  0  0  0  0
    5.6695   17.0011    2.4931 O   0  0  0  0  0  0  0  0  0  0  0  0
    4.6562   15.1202    3.6399 C   0  0  0  0  0  0  0  0  0  0  0  0
    3.2869   15.1504    4.2055 N   0  0  0  0  0  0  0  0  0  0  0  0
    2.4781   16.2407    3.6378 C   0  0  0  0  0  0  0  0  0  0  0  0
    1.0713   15.8327    4.0414 C   0  0  0  0  0  0  0  0  0  0  0  0
    1.0672   14.3279    3.8155 C   0  0  2  0  0  0  0  0  0  0  0  0
    2.5482   13.9207    3.8668 C   0  0  0  0  0  0  0  0  0  0  0  0
    0.5111   14.0616    2.5291 O   0  0  0  0  0  0  0  0  0  0  0  0
    4.8371   16.7306    5.5222 H   0  0  0  0  0  0  0  0  0  0  0  0
   -0.3841   14.4413    2.5128 H   0  0  0  0  0  0  0  0  0  0  0  0
  1  2  1  0  0  0  0
  2  3  1  0  0  0  0
  3  4  1  0  0  0  0
  3 13  1  0  0  0  0
  4  5  2  0  0  0  0
  4  6  1  0  0  0  0
  6  7  1  0  0  0  0
  7  8  1  0  0  0  0
  7 11  1  0  0  0  0
  8  9  1  0  0  0  0
  9 10  1  0  0  0  0
 10 11  1  0  0  0  0
 10 12  1  6  0  0  0
 12 14  1  0  0  0  0
M  END
>  <CHROM.0>
-58.73413171,47.31373247,-68.72153248,-48.50086680,59.12138118,-61.02146207
-67.03509752,-55.87518052,-167.87486872

>  <CHROM.1>
-161.44175179,59.78894291,43.56312980,-58.11292430,3.64536493,16.06449616
3.96492959,0.60673386,0.34125692,0.85619267

>  <Name>
P94524995

>  <RI>
3.4169e+07

>  <Rbt.Current_Directory>
/home/fstefaniak/projects/zuza/docking/adenine/4XNR

>  <Rbt.Executable>
rbdock ($Id: //depot/dev/client3/rdock/2013.1/src/exe/rbdock.cxx#4 $)

>  <Rbt.Library>
libRbt.so (2013.1, Build901 2013/11/27)

>  <Rbt.Parameter_File>
/home/fstefaniak/progs/rDock//data/scripts/dock_solv.prm

>  <Rbt.Receptor>
4xnr.prm

>  <SCORE>
-54.3765

>  <SCORE.INTER>
-37.4352

>  <SCORE.INTER.CONST>
1

>  <SCORE.INTER.POLAR>
-4.36426

>  <SCORE.INTER.ROT>
3

>  <SCORE.INTER.SOLV>
12.1835

>  <SCORE.INTER.VDW>
-20.0704

>  <SCORE.INTER.norm>
-3.1196

>  <SCORE.INTRA>
2.06894

>  <SCORE.INTRA.DIHEDRAL>
0.393724

>  <SCORE.INTRA.DIHEDRAL.0>
2.19065

>  <SCORE.INTRA.POLAR>
0.175644

>  <SCORE.INTRA.POLAR.0>
-0.175644

>  <SCORE.INTRA.REPUL>
0

>  <SCORE.INTRA.REPUL.0>
0

>  <SCORE.INTRA.SOLV>
-0.226023

>  <SCORE.INTRA.SOLV.lig_0>
-17.6086

>  <SCORE.INTRA.VDW>
1.3879

>  <SCORE.INTRA.VDW.0>
-0.952511

>  <SCORE.INTRA.norm>
0.172412

>  <SCORE.RESTR>
0

>  <SCORE.RESTR.CAVITY>
0

>  <SCORE.RESTR.norm>
0

>  <SCORE.SYSTEM>
-19.0103

>  <SCORE.SYSTEM.CONST>
0

>  <SCORE.SYSTEM.DIHEDRAL>
4.80559

>  <SCORE.SYSTEM.POLAR>
-3.01843

>  <SCORE.SYSTEM.SOLV>
0.195744

>  <SCORE.SYSTEM.VDW>
-4.27923

>  <SCORE.SYSTEM.norm>
-1.58419

>  <SCORE.heavy>
12

>  <SCORE.norm>
-4.53138

$$$$
P94524995
 OpenBabel12072022113D
libRbt.so/2013.1/901 2013/11/27
 14 14  0  0  0  0  0  0  0  0999 V2000
    0.4108   16.8014    4.4880 C   0  0  0  0  0  0  0  0  0  0  0  0
    1.4670   16.1707    3.5982 C   0  0  0  0  0  0  0  0  0  0  0  0
    2.7949   16.3582    4.1321 N   0  0  0  0  0  0  0  0  0  0  0  0
    3.8690   16.7144    3.3440 C   0  0  0  0  0  0  0  0  0  0  0  0
    3.7719   17.0346    2.1627 O   0  0  0  0  0  0  0  0  0  0  0  0
    5.2030   16.7506    4.0995 C   0  0  0  0  0  0  0  0  0  0  0  0
    5.4349   18.0703    4.7323 N   0  0  0  0  0  0  0  0  0  0  0  0
    5.5101   17.9749    6.1987 C   0  0  0  0  0  0  0  0  0  0  0  0
    6.1307   19.3110    6.5701 C   0  0  0  0  0  0  0  0  0  0  0  0
    7.1935   19.5106    5.4995 C   0  0  2  0  0  0  0  0  0  0  0  0
    6.7369   18.6294    4.3261 C   0  0  0  0  0  0  0  0  0  0  0  0
    8.4473   19.0638    6.0128 O   0  0  0  0  0  0  0  0  0  0  0  0
    3.0411   15.9665    5.0379 H   0  0  0  0  0  0  0  0  0  0  0  0
    8.6566   19.6096    6.7901 H   0  0  0  0  0  0  0  0  0  0  0  0
  1  2  1  0  0  0  0
  2  3  1  0  0  0  0
  3  4  1  0  0  0  0
  3 13  1  0  0  0  0
  4  5  2  0  0  0  0
  4  6  1  0  0  0  0
  6  7  1  0  0  0  0
  7  8  1  0  0  0  0
  7 11  1  0  0  0  0
  8  9  1  0  0  0  0
  9 10  1  0  0  0  0
 10 11  1  0  0  0  0
 10 12  1  1  0  0  0
 12 14  1  0  0  0  0
M  END
>  <CHROM.0>
-56.96678446,-63.16098360,-74.02790081,-46.17388786,-58.00372740,-173.00701529
-173.44620704,-58.74511167,-168.02941619

>  <CHROM.1>
-136.78418127,-87.30982570,117.33686956,-61.25835633,4.76234170,17.70399685
4.60953500,2.66884293,-0.28724285,-1.94282640

>  <Name>
P94524995

>  <RI>
3.4169e+07

>  <Rbt.Current_Directory>
/home/fstefaniak/projects/zuza/docking/adenine/4XNR

>  <Rbt.Executable>
rbdock ($Id: //depot/dev/client3/rdock/2013.1/src/exe/rbdock.cxx#4 $)

>  <Rbt.Library>
libRbt.so (2013.1, Build901 2013/11/27)

>  <Rbt.Parameter_File>
/home/fstefaniak/progs/rDock//data/scripts/dock_solv.prm

>  <Rbt.Receptor>
4xnr.prm

>  <SCORE>
-54.1081

>  <SCORE.INTER>
-35.5043

>  <SCORE.INTER.CONST>
1

>  <SCORE.INTER.POLAR>
-3.8954

>  <SCORE.INTER.ROT>
3

>  <SCORE.INTER.SOLV>
14.7753

>  <SCORE.INTER.VDW>
-21.21

>  <SCORE.INTER.norm>
-2.95869

>  <SCORE.INTRA>
1.52616

>  <SCORE.INTRA.DIHEDRAL>
2.52941

>  <SCORE.INTRA.DIHEDRAL.0>
2.19065

>  <SCORE.INTRA.POLAR>
0.175644

>  <SCORE.INTRA.POLAR.0>
-0.175644

>  <SCORE.INTRA.REPUL>
0

>  <SCORE.INTRA.REPUL.0>
0

>  <SCORE.INTRA.SOLV>
-0.684415

>  <SCORE.INTRA.SOLV.lig_0>
-17.6086

>  <SCORE.INTRA.VDW>
0.00647342

>  <SCORE.INTRA.VDW.0>
-0.952511

>  <SCORE.INTRA.norm>
0.12718

>  <SCORE.RESTR>
0

>  <SCORE.RESTR.CAVITY>
0

>  <SCORE.RESTR.norm>
0

>  <SCORE.SYSTEM>
-20.13

>  <SCORE.SYSTEM.CONST>
0

>  <SCORE.SYSTEM.DIHEDRAL>
5.03589

>  <SCORE.SYSTEM.POLAR>
-2.99125

>  <SCORE.SYSTEM.SOLV>
0.12249

>  <SCORE.SYSTEM.VDW>
-5.16863

>  <SCORE.SYSTEM.norm>
-1.6775

>  <SCORE.heavy>
12

>  <SCORE.norm>
-4.50901

$$$$
P94526040
 OpenBabel12072022113D
libRbt.so/2013.1/901 2013/11/27
 14 14  0  0  0  0  0  0  0  0999 V2000
    5.0919   15.8984    3.5196 C   0  0  0  0  0  0  0  0  0  0  0  0
    4.9273   17.4058    3.3072 C   0  0  2  0  0  0  0  0  0  0  0  0
    5.3139   17.7968    1.8619 C   0  0  0  0  0  0  0  0  0  0  0  0
    6.4559   18.0225    1.4768 O   0  0  0  0  0  0  0  0  0  0  0  0
    4.2617   17.8111    0.9843 N   0  0  0  0  0  0  0  0  0  0  0  0
    5.6366   18.2891    4.2627 N   0  0  0  0  0  0  0  0  0  0  0  0
    5.2574   18.0944    5.6597 C   0  0  0  0  0  0  0  0  0  0  0  0
    6.3039   18.9156    6.3875 C   0  0  0  0  0  0  0  0  0  0  0  0
    7.5813   18.5906    5.6284 C   0  0  1  0  0  0  0  0  0  0  0  0
    7.1077   18.2541    4.2051 C   0  0  0  0  0  0  0  0  0  0  0  0
    8.4816   19.6865    5.6505 O   0  0  0  0  0  0  0  0  0  0  0  0
    3.8148   18.7096    0.8313 H   0  0  0  0  0  0  0  0  0  0  0  0
    4.2970   17.1528    0.2194 H   0  0  0  0  0  0  0  0  0  0  0  0
    8.5953   19.9509    6.5795 H   0  0  0  0  0  0  0  0  0  0  0  0
  2  3  1  0  0  0  0
  2  6  1  0  0  0  0
  2  1  1  1  0  0  0
  3  4  2  0  0  0  0
  3  5  1  0  0  0  0
  5 12  1  0  0  0  0
  5 13  1  0  0  0  0
  6  7  1  0  0  0  0
  6 10  1  0  0  0  0
  7  8  1  0  0  0  0
  8  9  1  0  0  0  0
  9 10  1  0  0  0  0
  9 11  1  6  0  0  0
 11 14  1  0  0  0  0
M  END
>  <CHROM.0>
-65.80212444,-64.12413201,-67.56331105,-44.80868010,-60.61517047,62.20604395
-65.76639180,-57.92892174,-168.71285642

>  <CHROM.1>
-84.24876148,-58.97268537,95.12125543,52.29630328,6.06555581,18.08988731
3.88620706,2.18320335,-0.59287981,-1.55949091

>  <Name>
P94526040

>  <RI>
3.02409e+07

>  <Rbt.Current_Directory>
/home/fstefaniak/projects/zuza/docking/adenine/4XNR

>  <Rbt.Executable>
rbdock ($Id: //depot/dev/client3/rdock/2013.1/src/exe/rbdock.cxx#4 $)

>  <Rbt.Library>
libRbt.so (2013.1, Build901 2013/11/27)

>  <Rbt.Parameter_File>
/home/fstefaniak/progs/rDock//data/scripts/dock_solv.prm

>  <Rbt.Receptor>
4xnr.prm

>  <SCORE>
-47.1137

>  <SCORE.INTER>
-28.1428

>  <SCORE.INTER.CONST>
1

>  <SCORE.INTER.POLAR>
-4.08646

>  <SCORE.INTER.ROT>
3

>  <SCORE.INTER.SOLV>
15.4532

>  <SCORE.INTER.VDW>
-15.8914

>  <SCORE.INTER.norm>
-2.55844

>  <SCORE.INTRA>
0.670299

>  <SCORE.INTRA.DIHEDRAL>
1.10907

>  <SCORE.INTRA.DIHEDRAL.0>
1.56335

>  <SCORE.INTRA.POLAR>
0.0716951

>  <SCORE.INTRA.POLAR.0>
-0.0716951

>  <SCORE.INTRA.REPUL>
0

>  <SCORE.INTRA.REPUL.0>
0

>  <SCORE.INTRA.SOLV>
-0.369886

>  <SCORE.INTRA.SOLV.lig_0>
-16.709

>  <SCORE.INTRA.VDW>
0.0569429

>  <SCORE.INTRA.VDW.0>
1.47335

>  <SCORE.INTRA.norm>
0.0609363

>  <SCORE.RESTR>
0

>  <SCORE.RESTR.CAVITY>
0

>  <SCORE.RESTR.norm>
0

>  <SCORE.SYSTEM>
-19.6412

>  <SCORE.SYSTEM.CONST>
0

>  <SCORE.SYSTEM.DIHEDRAL>
4.43871

>  <SCORE.SYSTEM.POLAR>
-2.96406

>  <SCORE.SYSTEM.SOLV>
0.151013

>  <SCORE.SYSTEM.VDW>
-4.74386

>  <SCORE.SYSTEM.norm>
-1.78557

>  <SCORE.heavy>
11

>  <SCORE.norm>
-4.28307

$$$$
P94526040
 OpenBabel12072022113D
libRbt.so/2013.1/901 2013/11/27
 14 14  0  0  0  0  0  0  0  0999 V2000
    5.1353   15.9140    3.4360 C   0  0  0  0  0  0  0  0  0  0  0  0
    4.9711   17.4211    3.2209 C   0  0  2  0  0  0  0  0  0  0  0  0
    5.3727   17.8118    1.7797 C   0  0  0  0  0  0  0  0  0  0  0  0
    6.5211   18.0151    1.4011 O   0  0  0  0  0  0  0  0  0  0  0  0
    4.3252   17.8535    0.8974 N   0  0  0  0  0  0  0  0  0  0  0  0
    5.6689   18.3059    4.1835 N   0  0  0  0  0  0  0  0  0  0  0  0
    5.2608   18.1251    5.5742 C   0  0  0  0  0  0  0  0  0  0  0  0
    6.2997   18.9433    6.3162 C   0  0  0  0  0  0  0  0  0  0  0  0
    7.5889   18.6019    5.5848 C   0  0  1  0  0  0  0  0  0  0  0  0
    7.1405   18.2583    4.1551 C   0  0  0  0  0  0  0  0  0  0  0  0
    8.4977   19.6905    5.6164 O   0  0  0  0  0  0  0  0  0  0  0  0
    3.9789   18.7758    0.6524 H   0  0  0  0  0  0  0  0  0  0  0  0
    4.2853   17.1223    0.2022 H   0  0  0  0  0  0  0  0  0  0  0  0
    8.6088   19.9499    6.5471 H   0  0  0  0  0  0  0  0  0  0  0  0
  2  3  1  0  0  0  0
  2  6  1  0  0  0  0
  2  1  1  1  0  0  0
  3  4  2  0  0  0  0
  3  5  1  0  0  0  0
  5 12  1  0  0  0  0
  5 13  1  0  0  0  0
  6  7  1  0  0  0  0
  6 10  1  0  0  0  0
  7  8  1  0  0  0  0
  8  9  1  0  0  0  0
  9 10  1  0  0  0  0
  9 11  1  6  0  0  0
 11 14  1  0  0  0  0
M  END
>  <CHROM.0>
-54.33825918,60.41117562,-66.51046040,-50.05646654,61.06483822,-61.85613584
-72.49478482,-60.31718762,-168.11753109

>  <CHROM.1>
-82.85302812,-59.82447513,103.02363754,53.38304550,6.09894721,18.10537895
3.81571650,2.16429356,-0.58615760,-1.57199814

>  <Name>
P94526040

>  <RI>
3.02409e+07

>  <Rbt.Current_Directory>
/home/fstefaniak/projects/zuza/docking/adenine/4XNR

>  <Rbt.Executable>
rbdock ($Id: //depot/dev/client3/rdock/2013.1/src/exe/rbdock.cxx#4 $)

>  <Rbt.Library>
libRbt.so (2013.1, Build901 2013/11/27)

>  <Rbt.Parameter_File>
/home/fstefaniak/progs/rDock//data/scripts/dock_solv.prm

>  <Rbt.Receptor>
4xnr.prm

>  <SCORE>
-46.283

>  <SCORE.INTER>
-27.7717

>  <SCORE.INTER.CONST>
1

>  <SCORE.INTER.POLAR>
-4.05807

>  <SCORE.INTER.ROT>
3

>  <SCORE.INTER.SOLV>
15.5021

>  <SCORE.INTER.VDW>
-15.7549

>  <SCORE.INTER.norm>
-2.5247

>  <SCORE.INTRA>
0.536925

>  <SCORE.INTRA.DIHEDRAL>
1.09212

>  <SCORE.INTRA.DIHEDRAL.0>
1.56335

>  <SCORE.INTRA.POLAR>
0.0716951

>  <SCORE.INTRA.POLAR.0>
-0.0716951

>  <SCORE.INTRA.REPUL>
0

>  <SCORE.INTRA.REPUL.0>
0

>  <SCORE.INTRA.SOLV>
-0.377529

>  <SCORE.INTRA.SOLV.lig_0>
-16.709

>  <SCORE.INTRA.VDW>
-0.0641352

>  <SCORE.INTRA.VDW.0>
1.47335

>  <SCORE.INTRA.norm>
0.0488114

>  <SCORE.RESTR>
0

>  <SCORE.RESTR.CAVITY>
0

>  <SCORE.RESTR.norm>
0

>  <SCORE.SYSTEM>
-19.0483

>  <SCORE.SYSTEM.CONST>
0

>  <SCORE.SYSTEM.DIHEDRAL>
4.27201

>  <SCORE.SYSTEM.POLAR>
-2.96832

>  <SCORE.SYSTEM.SOLV>
0.136774

>  <SCORE.SYSTEM.VDW>
-4.27406

>  <SCORE.SYSTEM.norm>
-1.73166

>  <SCORE.heavy>
11

>  <SCORE.norm>
-4.20755

$$$$
P94526040
 OpenBabel12072022113D
libRbt.so/2013.1/901 2013/11/27
 14 14  0  0  0  0  0  0  0  0999 V2000
    4.2082   16.0425    3.5149 C   0  0  0  0  0  0  0  0  0  0  0  0
    4.7763   17.4530    3.3348 C   0  0  2  0  0  0  0  0  0  0  0  0
    5.2727   17.6583    1.8847 C   0  0  0  0  0  0  0  0  0  0  0  0
    6.4484   17.6493    1.5367 O   0  0  0  0  0  0  0  0  0  0  0  0
    4.2686   17.7906    0.9617 N   0  0  0  0  0  0  0  0  0  0  0  0
    5.8398   17.8629    4.2820 N   0  0  0  0  0  0  0  0  0  0  0  0
    6.4649   19.1453    3.9689 C   0  0  0  0  0  0  0  0  0  0  0  0
    7.2877   19.4073    5.2154 C   0  0  0  0  0  0  0  0  0  0  0  0
    6.3527   18.9816    6.3370 C   0  0  1  0  0  0  0  0  0  0  0  0
    5.4582   17.9036    5.7037 C   0  0  0  0  0  0  0  0  0  0  0  0
    7.0812   18.4898    7.4503 O   0  0  0  0  0  0  0  0  0  0  0  0
    3.9408   18.7349    0.7849 H   0  0  0  0  0  0  0  0  0  0  0  0
    4.2568   17.1251    0.2024 H   0  0  0  0  0  0  0  0  0  0  0  0
    7.5982   17.7248    7.1449 H   0  0  0  0  0  0  0  0  0  0  0  0
  2  3  1  0  0  0  0
  2  6  1  0  0  0  0
  2  1  1  6  0  0  0
  3  4  2  0  0  0  0
  3  5  1  0  0  0  0
  5 12  1  0  0  0  0
  5 13  1  0  0  0  0
  6  7  1  0  0  0  0
  6 10  1  0  0  0  0
  7  8  1  0  0  0  0
  8  9  1  0  0  0  0
  9 10  1  0  0  0  0
  9 11  1  1  0  0  0
 11 14  1  0  0  0  0
M  END
>  <CHROM.0>
-178.37776233,53.04205887,61.94365947,-47.75628443,-176.78264245,57.05786709
51.76510540,-63.88698424,-166.98713470

>  <CHROM.1>
-103.63431660,172.72260902,90.11329531,-59.93870629,5.78334625,18.02231593
4.01808642,2.07332949,-0.75776495,-1.47670683

>  <Name>
P94526040

>  <RI>
3.02409e+07

>  <Rbt.Current_Directory>
/home/fstefaniak/projects/zuza/docking/adenine/4XNR

>  <Rbt.Executable>
rbdock ($Id: //depot/dev/client3/rdock/2013.1/src/exe/rbdock.cxx#4 $)

>  <Rbt.Library>
libRbt.so (2013.1, Build901 2013/11/27)

>  <Rbt.Parameter_File>
/home/fstefaniak/progs/rDock//data/scripts/dock_solv.prm

>  <Rbt.Receptor>
4xnr.prm

>  <SCORE>
-45.9047

>  <SCORE.INTER>
-32.1655

>  <SCORE.INTER.CONST>
1

>  <SCORE.INTER.POLAR>
-4.49645

>  <SCORE.INTER.ROT>
3

>  <SCORE.INTER.SOLV>
14.9845

>  <SCORE.INTER.VDW>
-17.0504

>  <SCORE.INTER.norm>
-2.92414

>  <SCORE.INTRA>
0.107508

>  <SCORE.INTRA.DIHEDRAL>
0.0843481

>  <SCORE.INTRA.DIHEDRAL.0>
1.56335

>  <SCORE.INTRA.POLAR>
0.0716951

>  <SCORE.INTRA.POLAR.0>
-0.0716951

>  <SCORE.INTRA.REPUL>
0

>  <SCORE.INTRA.REPUL.0>
0

>  <SCORE.INTRA.SOLV>
-0.214977

>  <SCORE.INTRA.SOLV.lig_0>
-16.709

>  <SCORE.INTRA.VDW>
-0.0709405

>  <SCORE.INTRA.VDW.0>
1.47335

>  <SCORE.INTRA.norm>
0.00977349

>  <SCORE.RESTR>
0

>  <SCORE.RESTR.CAVITY>
0

>  <SCORE.RESTR.norm>
0

>  <SCORE.SYSTEM>
-13.8467

>  <SCORE.SYSTEM.CONST>
0

>  <SCORE.SYSTEM.DIHEDRAL>
4.29329

>  <SCORE.SYSTEM.POLAR>
-2.37936

>  <SCORE.SYSTEM.SOLV>
-0.0339228

>  <SCORE.SYSTEM.VDW>
-2.71969

>  <SCORE.SYSTEM.norm>
-1.25879

>  <SCORE.heavy>
11

>  <SCORE.norm>
-4.17315

$$$$
P94526490
 OpenBabel12072022113D
libRbt.so/2013.1/901 2013/11/27
 11 12  0  0  0  0  0  0  0  0999 V2000
    2.4406   13.4555    4.3913 C   0  0  0  0  0  0  0  0  0  0  0  0
    3.6557   14.3685    4.2263 C   0  0  0  0  0  0  0  0  0  0  0  0
    3.1364   15.5820    3.5805 N   0  0  0  0  0  0  0  0  0  0  0  0
    1.7902   15.7587    4.1524 C   0  0  0  0  0  0  0  0  0  0  0  0
    1.2426   14.3366    4.0571 C   0  0  1  0  0  0  0  0  0  0  0  0
    0.8242   14.0693    2.7159 O   0  0  0  0  0  0  0  0  0  0  0  0
    4.0192   16.7308    3.8020 C   0  0  0  0  0  0  0  0  0  0  0  0
    5.3647   16.4809    3.1951 C   0  0  2  0  0  0  0  0  0  0  0  0
    6.3790   17.5859    3.0642 C   0  0  0  0  0  0  0  0  0  0  0  0
    5.5928   17.1484    1.9453 O   0  0  0  0  0  0  0  0  0  0  0  0
   -0.0167   14.5559    2.6082 H   0  0  0  0  0  0  0  0  0  0  0  0
  1  2  1  0  0  0  0
  1  5  1  0  0  0  0
  2  3  1  0  0  0  0
  3  4  1  0  0  0  0
  3  7  1  0  0  0  0
  4  5  1  0  0  0  0
  5  6  1  6  0  0  0
  6 11  1  0  0  0  0
  8  9  1  0  0  0  0
  8 10  1  0  0  0  0
  8  7  1  1  0  0  0
  9 10  1  0  0  0  0
M  END
>  <CHROM.0>
-62.06850570,-63.49981731,-65.60716761,-46.59003668,-60.43447009,-62.38889978
-68.08960085,-59.80535023,-167.98818349

>  <CHROM.1>
62.24216452,171.68651918,169.07662906,3.41568742,15.54824136,3.47244742,-2.57733335
-0.30169059,-0.74009037

>  <Name>
P94526490

>  <RI>
3.1908e+07

>  <Rbt.Current_Directory>
/home/fstefaniak/projects/zuza/docking/adenine/4XNR

>  <Rbt.Executable>
rbdock ($Id: //depot/dev/client3/rdock/2013.1/src/exe/rbdock.cxx#4 $)

>  <Rbt.Library>
libRbt.so (2013.1, Build901 2013/11/27)

>  <Rbt.Parameter_File>
/home/fstefaniak/progs/rDock//data/scripts/dock_solv.prm

>  <Rbt.Receptor>
4xnr.prm

>  <SCORE>
-47.6559

>  <SCORE.INTER>
-26.9047

>  <SCORE.INTER.CONST>
1

>  <SCORE.INTER.POLAR>
-2.8744

>  <SCORE.INTER.ROT>
2

>  <SCORE.INTER.SOLV>
8.49325

>  <SCORE.INTER.VDW>
-16.1195

>  <SCORE.INTER.norm>
-2.69047

>  <SCORE.INTRA>
0.188068

>  <SCORE.INTRA.DIHEDRAL>
0.171968

>  <SCORE.INTRA.DIHEDRAL.0>
3.67346

>  <SCORE.INTRA.POLAR>
0.047351

>  <SCORE.INTRA.POLAR.0>
-0.047351

>  <SCORE.INTRA.REPUL>
0

>  <SCORE.INTRA.REPUL.0>
0

>  <SCORE.INTRA.SOLV>
-0.0157979

>  <SCORE.INTRA.SOLV.lig_0>
-11.6873

>  <SCORE.INTRA.VDW>
-0.0510105

>  <SCORE.INTRA.VDW.0>
0.492532

>  <SCORE.INTRA.norm>
0.0188068

>  <SCORE.RESTR>
0

>  <SCORE.RESTR.CAVITY>
0

>  <SCORE.RESTR.norm>
0

>  <SCORE.SYSTEM>
-20.9393

>  <SCORE.SYSTEM.CONST>
0

>  <SCORE.SYSTEM.DIHEDRAL>
4.14421

>  <SCORE.SYSTEM.POLAR>
-2.9723

>  <SCORE.SYSTEM.SOLV>
0.275953

>  <SCORE.SYSTEM.VDW>
-5.52522

>  <SCORE.SYSTEM.norm>
-2.09393

>  <SCORE.heavy>
10

>  <SCORE.norm>
-4.76559

$$$$
P94526490
 OpenBabel12072022113D
libRbt.so/2013.1/901 2013/11/27
 11 12  0  0  0  0  0  0  0  0999 V2000
    2.5001   13.5082    4.5057 C   0  0  0  0  0  0  0  0  0  0  0  0
    3.7213   14.4102    4.3257 C   0  0  0  0  0  0  0  0  0  0  0  0
    3.2161   15.6022    3.6303 N   0  0  0  0  0  0  0  0  0  0  0  0
    1.8628   15.8039    4.1767 C   0  0  0  0  0  0  0  0  0  0  0  0
    1.3106   14.3814    4.1238 C   0  0  1  0  0  0  0  0  0  0  0  0
    0.9098   14.0685    2.7872 O   0  0  0  0  0  0  0  0  0  0  0  0
    4.1005   16.7548    3.8237 C   0  0  0  0  0  0  0  0  0  0  0  0
    5.4301   16.5070    3.1816 C   0  0  2  0  0  0  0  0  0  0  0  0
    6.4459   17.6094    3.0405 C   0  0  0  0  0  0  0  0  0  0  0  0
    5.6313   17.1894    1.9353 O   0  0  0  0  0  0  0  0  0  0  0  0
    0.0780   14.5625    2.6471 H   0  0  0  0  0  0  0  0  0  0  0  0
  1  2  1  0  0  0  0
  1  5  1  0  0  0  0
  2  3  1  0  0  0  0
  3  4  1  0  0  0  0
  3  7  1  0  0  0  0
  4  5  1  0  0  0  0
  5  6  1  6  0  0  0
  6 11  1  0  0  0  0
  8  9  1  0  0  0  0
  8 10  1  0  0  0  0
  8  7  1  1  0  0  0
  9 10  1  0  0  0  0
M  END
>  <CHROM.0>
-59.13867157,-63.08650448,59.14212300,-47.22637224,-61.29135636,-63.26221034
52.38175854,-60.65820323,-168.03543401

>  <CHROM.1>
65.22781633,172.33029760,170.13609536,3.48403562,15.57951663,3.51242941,-2.57729324
-0.31885775,-0.78969791

>  <Name>
P94526490

>  <RI>
3.1908e+07

>  <Rbt.Current_Directory>
/home/fstefaniak/projects/zuza/docking/adenine/4XNR

>  <Rbt.Executable>
rbdock ($Id: //depot/dev/client3/rdock/2013.1/src/exe/rbdock.cxx#4 $)

>  <Rbt.Library>
libRbt.so (2013.1, Build901 2013/11/27)

>  <Rbt.Parameter_File>
/home/fstefaniak/progs/rDock//data/scripts/dock_solv.prm

>  <Rbt.Receptor>
4xnr.prm

>  <SCORE>
-45.7511

>  <SCORE.INTER>
-26.7681

>  <SCORE.INTER.CONST>
1

>  <SCORE.INTER.POLAR>
-2.8697

>  <SCORE.INTER.ROT>
2

>  <SCORE.INTER.SOLV>
8.47637

>  <SCORE.INTER.VDW>
-16.0385

>  <SCORE.INTER.norm>
-2.67681

>  <SCORE.INTRA>
0.0240211

>  <SCORE.INTRA.DIHEDRAL>
0.172725

>  <SCORE.INTRA.DIHEDRAL.0>
3.67346

>  <SCORE.INTRA.POLAR>
0.047351

>  <SCORE.INTRA.POLAR.0>
-0.047351

>  <SCORE.INTRA.REPUL>
0

>  <SCORE.INTRA.REPUL.0>
0

>  <SCORE.INTRA.SOLV>
-0.0235465

>  <SCORE.INTRA.SOLV.lig_0>
-11.6873

>  <SCORE.INTRA.VDW>
-0.211562

>  <SCORE.INTRA.VDW.0>
0.492532

>  <SCORE.INTRA.norm>
0.00240211

>  <SCORE.RESTR>
0

>  <SCORE.RESTR.CAVITY>
0

>  <SCORE.RESTR.norm>
0

>  <SCORE.SYSTEM>
-19.007

>  <SCORE.SYSTEM.CONST>
0

>  <SCORE.SYSTEM.DIHEDRAL>
3.89503

>  <SCORE.SYSTEM.POLAR>
-2.95432

>  <SCORE.SYSTEM.SOLV>
0.181825

>  <SCORE.SYSTEM.VDW>
-4.18257

>  <SCORE.SYSTEM.norm>
-1.9007

>  <SCORE.heavy>
10

>  <SCORE.norm>
-4.57511

$$$$
P94526490
 OpenBabel12072022113D
libRbt.so/2013.1/901 2013/11/27
 11 12  0  0  0  0  0  0  0  0999 V2000
    2.4672   13.4363    4.3500 C   0  0  0  0  0  0  0  0  0  0  0  0
    3.6882   14.3481    4.2266 C   0  0  0  0  0  0  0  0  0  0  0  0
    3.1839   15.5786    3.6013 N   0  0  0  0  0  0  0  0  0  0  0  0
    1.8290   15.7471    4.1550 C   0  0  0  0  0  0  0  0  0  0  0  0
    1.2780   14.3298    4.0170 C   0  0  1  0  0  0  0  0  0  0  0  0
    0.8809   14.0958    2.6632 O   0  0  0  0  0  0  0  0  0  0  0  0
    4.0669   16.7184    3.8644 C   0  0  0  0  0  0  0  0  0  0  0  0
    5.3911   16.5193    3.1950 C   0  0  2  0  0  0  0  0  0  0  0  0
    6.3322   17.6725    2.9688 C   0  0  0  0  0  0  0  0  0  0  0  0
    5.5152   17.1482    1.9110 O   0  0  0  0  0  0  0  0  0  0  0  0
    0.0239   14.5555    2.5648 H   0  0  0  0  0  0  0  0  0  0  0  0
  1  2  1  0  0  0  0
  1  5  1  0  0  0  0
  2  3  1  0  0  0  0
  3  4  1  0  0  0  0
  3  7  1  0  0  0  0
  4  5  1  0  0  0  0
  5  6  1  6  0  0  0
  6 11  1  0  0  0  0
  8  9  1  0  0  0  0
  8 10  1  0  0  0  0
  8  7  1  1  0  0  0
  9 10  1  0  0  0  0
M  END
>  <CHROM.0>
-60.49150628,-63.66196503,60.89590931,-46.85383969,-63.26783891,-63.15468559
52.89352614,-62.72506286,-167.25036533

>  <CHROM.1>
66.09475348,169.26504202,162.50440405,3.43359734,15.55597505,3.45382901,-2.57752043
-0.33937354,-0.78257216

>  <Name>
P94526490

>  <RI>
3.1908e+07

>  <Rbt.Current_Directory>
/home/fstefaniak/projects/zuza/docking/adenine/4XNR

>  <Rbt.Executable>
rbdock ($Id: //depot/dev/client3/rdock/2013.1/src/exe/rbdock.cxx#4 $)

>  <Rbt.Library>
libRbt.so (2013.1, Build901 2013/11/27)

>  <Rbt.Parameter_File>
/home/fstefaniak/progs/rDock//data/scripts/dock_solv.prm

>  <Rbt.Receptor>
4xnr.prm

>  <SCORE>
-45.7375

>  <SCORE.INTER>
-26.7487

>  <SCORE.INTER.CONST>
1

>  <SCORE.INTER.POLAR>
-2.8744

>  <SCORE.INTER.ROT>
2

>  <SCORE.INTER.SOLV>
8.49042

>  <SCORE.INTER.VDW>
-16.0146

>  <SCORE.INTER.norm>
-2.67487

>  <SCORE.INTRA>
-0.0174671

>  <SCORE.INTRA.DIHEDRAL>
0.233181

>  <SCORE.INTRA.DIHEDRAL.0>
3.67346

>  <SCORE.INTRA.POLAR>
0.047351

>  <SCORE.INTRA.POLAR.0>
-0.047351

>  <SCORE.INTRA.REPUL>
0

>  <SCORE.INTRA.REPUL.0>
0

>  <SCORE.INTRA.SOLV>
0.00514933

>  <SCORE.INTRA.SOLV.lig_0>
-11.6873

>  <SCORE.INTRA.VDW>
-0.297626

>  <SCORE.INTRA.VDW.0>
0.492532

>  <SCORE.INTRA.norm>
-0.00174671

>  <SCORE.RESTR>
0

>  <SCORE.RESTR.CAVITY>
0

>  <SCORE.RESTR.norm>
0

>  <SCORE.SYSTEM>
-18.9713

>  <SCORE.SYSTEM.CONST>
0

>  <SCORE.SYSTEM.DIHEDRAL>
4.07182

>  <SCORE.SYSTEM.POLAR>
-2.95718

>  <SCORE.SYSTEM.SOLV>
0.172388

>  <SCORE.SYSTEM.VDW>
-4.20504

>  <SCORE.SYSTEM.norm>
-1.89713

>  <SCORE.heavy>
10

>  <SCORE.norm>
-4.57375

$$$$
P94938241
 OpenBabel12072022113D
libRbt.so/2013.1/901 2013/11/27
 15 15  0  0  0  0  0  0  0  0999 V2000
    7.1546   18.5393    0.9575 C   0  0  0  0  0  0  0  0  0  0  0  0
    6.9260   17.9853    2.3610 C   0  0  1  0  0  0  0  0  0  0  0  0
    6.4036   19.1016    3.2869 C   0  0  0  0  0  0  0  0  0  0  0  0
    6.0612   18.5814    4.6147 N   0  0  0  0  0  0  0  0  0  0  0  0
    4.7827   17.8700    4.6560 C   0  0  0  0  0  0  0  0  0  0  0  0
    4.9669   16.3783    4.4128 C   0  0  0  0  0  0  0  0  0  0  0  0
    6.0030   16.0159    3.3542 C   0  0  0  0  0  0  0  0  0  0  0  0
    5.9935   16.8951    2.2288 O   0  0  0  0  0  0  0  0  0  0  0  0
    6.8710   18.6289    5.7210 C   0  0  0  0  0  0  0  0  0  0  0  0
    6.4922   18.2233    6.9009 N   0  0  0  0  0  0  0  0  0  0  0  0
    7.5245   18.3686    7.8445 O   0  0  0  0  0  0  0  0  0  0  0  0
    8.1194   19.1280    5.5061 N   0  0  0  0  0  0  0  0  0  0  0  0
    8.0315   17.5468    7.7087 H   0  0  0  0  0  0  0  0  0  0  0  0
    8.5929   19.3563    6.3677 H   0  0  0  0  0  0  0  0  0  0  0  0
    8.0093   19.9727    4.9484 H   0  0  0  0  0  0  0  0  0  0  0  0
  2  1  1  6  0  0  0
  2  3  1  0  0  0  0
  2  8  1  0  0  0  0
  3  4  1  0  0  0  0
  4  5  1  0  0  0  0
  4  9  1  0  0  0  0
  5  6  1  0  0  0  0
  6  7  1  0  0  0  0
  7  8  1  0  0  0  0
  9 10  2  0  0  0  0
  9 12  1  0  0  0  0
 10 11  1  0  0  0  0
 11 13  1  0  0  0  0
 12 14  1  0  0  0  0
 12 15  1  0  0  0  0
M  END
>  <CHROM.0>
-166.29389096,-61.97513063,-71.05617449,-45.87316055,-61.54599951,-58.69045420
-172.69418011,-60.58607094,-168.24771879

>  <CHROM.1>
165.84587237,-84.48936356,6.47586072,17.98102300,4.34703857,-1.80452731,0.80991541
1.55863115

>  <Name>
P94938241

>  <RI>
1.34432e+07

>  <Rbt.Current_Directory>
/home/fstefaniak/projects/zuza/docking/adenine/4XNR

>  <Rbt.Executable>
rbdock ($Id: //depot/dev/client3/rdock/2013.1/src/exe/rbdock.cxx#4 $)

>  <Rbt.Library>
libRbt.so (2013.1, Build901 2013/11/27)

>  <Rbt.Parameter_File>
/home/fstefaniak/progs/rDock//data/scripts/dock_solv.prm

>  <Rbt.Receptor>
4xnr.prm

>  <SCORE>
-39.8185

>  <SCORE.INTER>
-23.5347

>  <SCORE.INTER.CONST>
1

>  <SCORE.INTER.POLAR>
-4.71069

>  <SCORE.INTER.ROT>
1

>  <SCORE.INTER.SOLV>
13.3307

>  <SCORE.INTER.VDW>
-8.69775

>  <SCORE.INTER.norm>
-1.96122

>  <SCORE.INTRA>
0.515472

>  <SCORE.INTRA.DIHEDRAL>
-1.95438

>  <SCORE.INTRA.DIHEDRAL.0>
2.45565

>  <SCORE.INTRA.POLAR>
0.239973

>  <SCORE.INTRA.POLAR.0>
-0.261431

>  <SCORE.INTRA.REPUL>
0

>  <SCORE.INTRA.REPUL.0>
0

>  <SCORE.INTRA.SOLV>
0.0225612

>  <SCORE.INTRA.SOLV.lig_0>
-10.6076

>  <SCORE.INTRA.VDW>
0.665471

>  <SCORE.INTRA.VDW.0>
-0.381057

>  <SCORE.INTRA.norm>
0.042956

>  <SCORE.RESTR>
0

>  <SCORE.RESTR.CAVITY>
0

>  <SCORE.RESTR.norm>
0

>  <SCORE.SYSTEM>
-16.7993

>  <SCORE.SYSTEM.CONST>
0

>  <SCORE.SYSTEM.DIHEDRAL>
5.30835

>  <SCORE.SYSTEM.POLAR>
-2.40423

>  <SCORE.SYSTEM.SOLV>
0.20837

>  <SCORE.SYSTEM.VDW>
-5.02436

>  <SCORE.SYSTEM.norm>
-1.39994

>  <SCORE.heavy>
12

>  <SCORE.norm>
-3.31821

$$$$
P94938241
 OpenBabel12072022113D
libRbt.so/2013.1/901 2013/11/27
 15 15  0  0  0  0  0  0  0  0999 V2000
    7.2598   18.4787    0.9087 C   0  0  0  0  0  0  0  0  0  0  0  0
    6.9687   17.9353    2.3046 C   0  0  1  0  0  0  0  0  0  0  0  0
    6.3877   19.0538    3.1922 C   0  0  0  0  0  0  0  0  0  0  0  0
    5.9863   18.5421    4.5067 N   0  0  0  0  0  0  0  0  0  0  0  0
    4.7159   17.8153    4.4921 C   0  0  0  0  0  0  0  0  0  0  0  0
    4.9297   16.3237    4.2734 C   0  0  0  0  0  0  0  0  0  0  0  0
    6.0212   15.9642    3.2710 C   0  0  0  0  0  0  0  0  0  0  0  0
    6.0569   16.8324    2.1377 O   0  0  0  0  0  0  0  0  0  0  0  0
    6.7397   18.6102    5.6512 C   0  0  0  0  0  0  0  0  0  0  0  0
    6.3078   18.2112    6.8150 N   0  0  0  0  0  0  0  0  0  0  0  0
    7.2904   18.3784    7.8069 O   0  0  0  0  0  0  0  0  0  0  0  0
    7.9912   19.1228    5.4931 N   0  0  0  0  0  0  0  0  0  0  0  0
    7.8220   17.5687    7.6949 H   0  0  0  0  0  0  0  0  0  0  0  0
    8.4295   19.3392    6.3760 H   0  0  0  0  0  0  0  0  0  0  0  0
    7.8953   19.9764    4.9466 H   0  0  0  0  0  0  0  0  0  0  0  0
  2  1  1  6  0  0  0
  2  3  1  0  0  0  0
  2  8  1  0  0  0  0
  3  4  1  0  0  0  0
  4  5  1  0  0  0  0
  4  9  1  0  0  0  0
  5  6  1  0  0  0  0
  6  7  1  0  0  0  0
  7  8  1  0  0  0  0
  9 10  2  0  0  0  0
  9 12  1  0  0  0  0
 10 11  1  0  0  0  0
 11 13  1  0  0  0  0
 12 14  1  0  0  0  0
 12 15  1  0  0  0  0
M  END
>  <CHROM.0>
-57.05918783,-63.46814498,-75.22490617,-48.26237341,-59.05382203,-62.99822535
-173.45724718,-55.57523616,-167.71454660

>  <CHROM.1>
167.57470040,-83.59987219,6.42090625,17.94435615,4.26610488,-1.73190698,0.81976445
1.49580435

>  <Name>
P94938241

>  <RI>
1.34432e+07

>  <Rbt.Current_Directory>
/home/fstefaniak/projects/zuza/docking/adenine/4XNR

>  <Rbt.Executable>
rbdock ($Id: //depot/dev/client3/rdock/2013.1/src/exe/rbdock.cxx#4 $)

>  <Rbt.Library>
libRbt.so (2013.1, Build901 2013/11/27)

>  <Rbt.Parameter_File>
/home/fstefaniak/progs/rDock//data/scripts/dock_solv.prm

>  <Rbt.Receptor>
4xnr.prm

>  <SCORE>
-39.7923

>  <SCORE.INTER>
-19.9203

>  <SCORE.INTER.CONST>
1

>  <SCORE.INTER.POLAR>
-4.12729

>  <SCORE.INTER.ROT>
1

>  <SCORE.INTER.SOLV>
13.3412

>  <SCORE.INTER.VDW>
-8.23629

>  <SCORE.INTER.norm>
-1.66002

>  <SCORE.INTRA>
0.449609

>  <SCORE.INTRA.DIHEDRAL>
-1.94826

>  <SCORE.INTRA.DIHEDRAL.0>
2.45565

>  <SCORE.INTRA.POLAR>
0.240345

>  <SCORE.INTRA.POLAR.0>
-0.261431

>  <SCORE.INTRA.REPUL>
0

>  <SCORE.INTRA.REPUL.0>
0

>  <SCORE.INTRA.SOLV>
0.0230523

>  <SCORE.INTRA.SOLV.lig_0>
-10.6076

>  <SCORE.INTRA.VDW>
0.595039

>  <SCORE.INTRA.VDW.0>
-0.381057

>  <SCORE.INTRA.norm>
0.0374674

>  <SCORE.RESTR>
0

>  <SCORE.RESTR.CAVITY>
0

>  <SCORE.RESTR.norm>
0

>  <SCORE.SYSTEM>
-20.3216

>  <SCORE.SYSTEM.CONST>
0

>  <SCORE.SYSTEM.DIHEDRAL>
4.86908

>  <SCORE.SYSTEM.POLAR>
-2.95581

>  <SCORE.SYSTEM.SOLV>
0.226201

>  <SCORE.SYSTEM.VDW>
-5.39347

>  <SCORE.SYSTEM.norm>
-1.69347

>  <SCORE.heavy>
12

>  <SCORE.norm>
-3.31603

$$$$
P94938241
 OpenBabel12072022113D
libRbt.so/2013.1/901 2013/11/27
 15 15  0  0  0  0  0  0  0  0999 V2000
    7.3087   18.4203    0.8885 C   0  0  0  0  0  0  0  0  0  0  0  0
    6.9946   17.9015    2.2889 C   0  0  1  0  0  0  0  0  0  0  0  0
    6.4033   19.0365    3.1483 C   0  0  0  0  0  0  0  0  0  0  0  0
    5.9802   18.5483    4.4650 N   0  0  0  0  0  0  0  0  0  0  0  0
    4.7081   17.8247    4.4431 C   0  0  0  0  0  0  0  0  0  0  0  0
    4.9210   16.3291    4.2531 C   0  0  0  0  0  0  0  0  0  0  0  0
    6.0267   15.9496    3.2739 C   0  0  0  0  0  0  0  0  0  0  0  0
    6.0823   16.7984    2.1267 O   0  0  0  0  0  0  0  0  0  0  0  0
    6.7162   18.6339    5.6196 C   0  0  0  0  0  0  0  0  0  0  0  0
    6.2653   18.2558    6.7832 N   0  0  0  0  0  0  0  0  0  0  0  0
    7.2330   18.4373    7.7871 O   0  0  0  0  0  0  0  0  0  0  0  0
    7.9714   19.1403    5.4721 N   0  0  0  0  0  0  0  0  0  0  0  0
    7.7757   17.6338    7.6840 H   0  0  0  0  0  0  0  0  0  0  0  0
    8.4069   19.3457    6.3591 H   0  0  0  0  0  0  0  0  0  0  0  0
    7.8832   19.9997    4.9333 H   0  0  0  0  0  0  0  0  0  0  0  0
  2  1  1  6  0  0  0
  2  3  1  0  0  0  0
  2  8  1  0  0  0  0
  3  4  1  0  0  0  0
  4  5  1  0  0  0  0
  4  9  1  0  0  0  0
  5  6  1  0  0  0  0
  6  7  1  0  0  0  0
  7  8  1  0  0  0  0
  9 10  2  0  0  0  0
  9 12  1  0  0  0  0
 10 11  1  0  0  0  0
 11 13  1  0  0  0  0
 12 14  1  0  0  0  0
 12 15  1  0  0  0  0
M  END
>  <CHROM.0>
-56.09258307,-62.30740736,-66.26803842,-46.34820153,-175.07205435,58.13159837
-65.83641656,-60.10014672,-167.99480536

>  <CHROM.1>
169.22366317,-82.40455961,6.41688708,17.94539502,4.24130223,-1.71008388,0.81537260
1.46276871

>  <Name>
P94938241

>  <RI>
1.34432e+07

>  <Rbt.Current_Directory>
/home/fstefaniak/projects/zuza/docking/adenine/4XNR

>  <Rbt.Executable>
rbdock ($Id: //depot/dev/client3/rdock/2013.1/src/exe/rbdock.cxx#4 $)

>  <Rbt.Library>
libRbt.so (2013.1, Build901 2013/11/27)

>  <Rbt.Parameter_File>
/home/fstefaniak/progs/rDock//data/scripts/dock_solv.prm

>  <Rbt.Receptor>
4xnr.prm

>  <SCORE>
-39.314

>  <SCORE.INTER>
-19.8695

>  <SCORE.INTER.CONST>
1

>  <SCORE.INTER.POLAR>
-4.1456

>  <SCORE.INTER.ROT>
1

>  <SCORE.INTER.SOLV>
13.351

>  <SCORE.INTER.VDW>
-8.14462

>  <SCORE.INTER.norm>
-1.65579

>  <SCORE.INTRA>
0.416518

>  <SCORE.INTRA.DIHEDRAL>
-1.93846

>  <SCORE.INTRA.DIHEDRAL.0>
2.45565

>  <SCORE.INTRA.POLAR>
0.24197

>  <SCORE.INTRA.POLAR.0>
-0.261431

>  <SCORE.INTRA.REPUL>
0

>  <SCORE.INTRA.REPUL.0>
0

>  <SCORE.INTRA.SOLV>
0.0236958

>  <SCORE.INTRA.SOLV.lig_0>
-10.6076

>  <SCORE.INTRA.VDW>
0.551204

>  <SCORE.INTRA.VDW.0>
-0.381057

>  <SCORE.INTRA.norm>
0.0347098

>  <SCORE.RESTR>
0

>  <SCORE.RESTR.CAVITY>
0

>  <SCORE.RESTR.norm>
0

>  <SCORE.SYSTEM>
-19.8611

>  <SCORE.SYSTEM.CONST>
0

>  <SCORE.SYSTEM.DIHEDRAL>
4.18247

>  <SCORE.SYSTEM.POLAR>
-3.01454

>  <SCORE.SYSTEM.SOLV>
-0.00715974

>  <SCORE.SYSTEM.VDW>
-4.58401

>  <SCORE.SYSTEM.norm>
-1.65509

>  <SCORE.heavy>
12

>  <SCORE.norm>
-3.27617

$$$$
P96217416
 OpenBabel12072022113D
libRbt.so/2013.1/901 2013/11/27
 13 13  0  0  0  0  0  0  0  0999 V2000
    5.8516   18.3681    6.7909 C   0  0  0  0  0  0  0  0  0  0  0  0
    7.2392   18.8899    6.4447 C   0  0  0  0  0  0  0  0  0  0  0  0
    7.0539   19.3816    4.7191 S   0  0  0  0  0  0  0  0  0  0  0  0
    5.7831   18.2159    4.5487 C   0  0  0  0  0  0  0  0  0  0  0  0
    5.2461   17.7187    5.6060 N   0  0  0  0  0  0  0  0  0  0  0  0
    5.4671   17.9193    3.2586 N   0  0  0  0  0  0  0  0  0  0  0  0
    4.5267   17.0461    2.7644 C   0  0  0  0  0  0  0  0  0  0  0  0
    4.1448   17.1804    1.5974 O   0  0  0  0  0  0  0  0  0  0  0  0
    3.9486   15.9753    3.6979 C   0  0  0  0  0  0  0  0  0  0  0  0
    4.7367   14.7350    3.5909 N   0  0  0  0  0  0  0  0  0  0  0  0
    5.8496   18.5410    2.5610 H   0  0  0  0  0  0  0  0  0  0  0  0
    5.7089   14.9577    3.8201 H   0  0  0  0  0  0  0  0  0  0  0  0
    4.7265   14.4144    2.6254 H   0  0  0  0  0  0  0  0  0  0  0  0
  1  2  1  0  0  0  0
  1  5  1  0  0  0  0
  2  3  1  0  0  0  0
  3  4  1  0  0  0  0
  4  5  2  0  0  0  0
  4  6  1  0  0  0  0
  6  7  1  0  0  0  0
  6 11  1  0  0  0  0
  7  8  2  0  0  0  0
  7  9  1  0  0  0  0
  9 10  1  0  0  0  0
 10 12  1  0  0  0  0
 10 13  1  0  0  0  0
M  END
>  <CHROM.0>
-61.83146240,178.21028319,-75.55359635,-48.12156212,-61.05007779,-62.97434492
-173.99653616,65.58521368,-167.30931298

>  <CHROM.1>
179.66205298,-92.07767201,57.57195127,5.57842991,17.71499340,4.30731283,0.35138320
0.99441545,1.96703499

>  <Name>
P96217416

>  <RI>
1.00763e+07

>  <Rbt.Current_Directory>
/home/fstefaniak/projects/zuza/docking/adenine/4XNR

>  <Rbt.Executable>
rbdock ($Id: //depot/dev/client3/rdock/2013.1/src/exe/rbdock.cxx#4 $)

>  <Rbt.Library>
libRbt.so (2013.1, Build901 2013/11/27)

>  <Rbt.Parameter_File>
/home/fstefaniak/progs/rDock//data/scripts/dock_solv.prm

>  <Rbt.Receptor>
4xnr.prm

>  <SCORE>
-46.3116

>  <SCORE.INTER>
-27.24

>  <SCORE.INTER.CONST>
1

>  <SCORE.INTER.POLAR>
-3.22176

>  <SCORE.INTER.ROT>
3

>  <SCORE.INTER.SOLV>
12.8423

>  <SCORE.INTER.VDW>
-17.3016

>  <SCORE.INTER.norm>
-2.724

>  <SCORE.INTRA>
-0.109394

>  <SCORE.INTRA.DIHEDRAL>
-0.0170957

>  <SCORE.INTRA.DIHEDRAL.0>
2.6552

>  <SCORE.INTRA.POLAR>
0

>  <SCORE.INTRA.POLAR.0>
0

>  <SCORE.INTRA.REPUL>
0

>  <SCORE.INTRA.REPUL.0>
0

>  <SCORE.INTRA.SOLV>
0.577589

>  <SCORE.INTRA.SOLV.lig_0>
-17.754

>  <SCORE.INTRA.VDW>
-0.38964

>  <SCORE.INTRA.VDW.0>
-0.358972

>  <SCORE.INTRA.norm>
-0.0109394

>  <SCORE.RESTR>
0

>  <SCORE.RESTR.CAVITY>
0

>  <SCORE.RESTR.norm>
0

>  <SCORE.SYSTEM>
-18.9622

>  <SCORE.SYSTEM.CONST>
0

>  <SCORE.SYSTEM.DIHEDRAL>
4.92315

>  <SCORE.SYSTEM.POLAR>
-2.91543

>  <SCORE.SYSTEM.SOLV>
0.0208896

>  <SCORE.SYSTEM.VDW>
-4.57136

>  <SCORE.SYSTEM.norm>
-1.89622

>  <SCORE.heavy>
10

>  <SCORE.norm>
-4.63116

$$$$
P96217416
 OpenBabel12072022113D
libRbt.so/2013.1/901 2013/11/27
 13 13  0  0  0  0  0  0  0  0999 V2000
    5.8449   18.3462    6.7936 C   0  0  0  0  0  0  0  0  0  0  0  0
    7.2345   18.8692    6.4568 C   0  0  0  0  0  0  0  0  0  0  0  0
    7.0616   19.3572    4.7289 S   0  0  0  0  0  0  0  0  0  0  0  0
    5.7936   18.1895    4.5513 C   0  0  0  0  0  0  0  0  0  0  0  0
    5.2493   17.6937    5.6055 N   0  0  0  0  0  0  0  0  0  0  0  0
    5.4876   17.8899    3.2594 N   0  0  0  0  0  0  0  0  0  0  0  0
    4.5446   17.0227    2.7599 C   0  0  0  0  0  0  0  0  0  0  0  0
    4.1753   17.1551    1.5885 O   0  0  0  0  0  0  0  0  0  0  0  0
    3.9481   15.9610    3.6922 C   0  0  0  0  0  0  0  0  0  0  0  0
    4.7382   14.7199    3.6132 N   0  0  0  0  0  0  0  0  0  0  0  0
    5.8823   18.5052    2.5629 H   0  0  0  0  0  0  0  0  0  0  0  0
    5.7169   14.9563    3.7964 H   0  0  0  0  0  0  0  0  0  0  0  0
    4.6947   14.3555    2.6643 H   0  0  0  0  0  0  0  0  0  0  0  0
  1  2  1  0  0  0  0
  1  5  1  0  0  0  0
  2  3  1  0  0  0  0
  3  4  1  0  0  0  0
  4  5  2  0  0  0  0
  4  6  1  0  0  0  0
  6  7  1  0  0  0  0
  6 11  1  0  0  0  0
  7  8  2  0  0  0  0
  7  9  1  0  0  0  0
  9 10  1  0  0  0  0
 10 12  1  0  0  0  0
 10 13  1  0  0  0  0
M  END
>  <CHROM.0>
-56.84603276,179.47399991,-175.03679911,-46.75863303,-57.50564533,-62.56919592
-56.68760636,-61.06594741,-168.21886198

>  <CHROM.1>
-179.73763691,-91.25206310,53.75240414,5.58639525,17.69204152,4.31115120
0.36687401,0.99308209,1.95108221

>  <Name>
P96217416

>  <RI>
1.00763e+07

>  <Rbt.Current_Directory>
/home/fstefaniak/projects/zuza/docking/adenine/4XNR

>  <Rbt.Executable>
rbdock ($Id: //depot/dev/client3/rdock/2013.1/src/exe/rbdock.cxx#4 $)

>  <Rbt.Library>
libRbt.so (2013.1, Build901 2013/11/27)

>  <Rbt.Parameter_File>
/home/fstefaniak/progs/rDock//data/scripts/dock_solv.prm

>  <Rbt.Receptor>
4xnr.prm

>  <SCORE>
-45.9354

>  <SCORE.INTER>
-27.1513

>  <SCORE.INTER.CONST>
1

>  <SCORE.INTER.POLAR>
-3.18297

>  <SCORE.INTER.ROT>
3

>  <SCORE.INTER.SOLV>
12.8077

>  <SCORE.INTER.VDW>
-17.3602

>  <SCORE.INTER.norm>
-2.71513

>  <SCORE.INTRA>
-0.141389

>  <SCORE.INTRA.DIHEDRAL>
-0.100084

>  <SCORE.INTRA.DIHEDRAL.0>
2.6552

>  <SCORE.INTRA.POLAR>
0

>  <SCORE.INTRA.POLAR.0>
0

>  <SCORE.INTRA.REPUL>
0

>  <SCORE.INTRA.REPUL.0>
0

>  <SCORE.INTRA.SOLV>
0.586335

>  <SCORE.INTRA.SOLV.lig_0>
-17.754

>  <SCORE.INTRA.VDW>
-0.384514

>  <SCORE.INTRA.VDW.0>
-0.358972

>  <SCORE.INTRA.norm>
-0.0141389

>  <SCORE.RESTR>
0

>  <SCORE.RESTR.CAVITY>
0

>  <SCORE.RESTR.norm>
0

>  <SCORE.SYSTEM>
-18.6427

>  <SCORE.SYSTEM.CONST>
0

>  <SCORE.SYSTEM.DIHEDRAL>
3.83

>  <SCORE.SYSTEM.POLAR>
-2.55245

>  <SCORE.SYSTEM.SOLV>
0.24028

>  <SCORE.SYSTEM.VDW>
-5.27705

>  <SCORE.SYSTEM.norm>
-1.86427

>  <SCORE.heavy>
10

>  <SCORE.norm>
-4.59354

$$$$
P96217416
 OpenBabel12072022113D
libRbt.so/2013.1/901 2013/11/27
 13 13  0  0  0  0  0  0  0  0999 V2000
    5.9002   18.3277    6.7953 C   0  0  0  0  0  0  0  0  0  0  0  0
    7.2754   18.8504    6.4040 C   0  0  0  0  0  0  0  0  0  0  0  0
    7.0199   19.3901    4.7018 S   0  0  0  0  0  0  0  0  0  0  0  0
    5.7346   18.2371    4.5549 C   0  0  0  0  0  0  0  0  0  0  0  0
    5.2399   17.7145    5.6206 N   0  0  0  0  0  0  0  0  0  0  0  0
    5.3615   17.9776    3.2721 N   0  0  0  0  0  0  0  0  0  0  0  0
    4.3752   17.1456    2.7967 C   0  0  0  0  0  0  0  0  0  0  0  0
    3.9550   17.3163    1.6477 O   0  0  0  0  0  0  0  0  0  0  0  0
    3.7972   16.0747    3.7302 C   0  0  0  0  0  0  0  0  0  0  0  0
    2.4001   16.4002    4.0664 N   0  0  0  0  0  0  0  0  0  0  0  0
    5.7381   18.6011    2.5728 H   0  0  0  0  0  0  0  0  0  0  0  0
    2.3085   17.4193    4.0829 H   0  0  0  0  0  0  0  0  0  0  0  0
    2.1968   16.0698    5.0069 H   0  0  0  0  0  0  0  0  0  0  0  0
  1  2  1  0  0  0  0
  1  5  1  0  0  0  0
  2  3  1  0  0  0  0
  3  4  1  0  0  0  0
  4  5  2  0  0  0  0
  4  6  1  0  0  0  0
  6  7  1  0  0  0  0
  6 11  1  0  0  0  0
  7  8  2  0  0  0  0
  7  9  1  0  0  0  0
  9 10  1  0  0  0  0
 10 12  1  0  0  0  0
 10 13  1  0  0  0  0
M  END
>  <CHROM.0>
-55.62737930,-172.52740506,-73.39944989,-47.67242781,-61.58344888,-60.72943778
-173.39616915,-60.86340079,-168.66120805

>  <CHROM.1>
-178.76713600,111.56529573,-32.08277324,5.27788367,17.91887397,4.37255406
0.53371404,0.63547444,1.66108079

>  <Name>
P96217416

>  <RI>
1.00763e+07

>  <Rbt.Current_Directory>
/home/fstefaniak/projects/zuza/docking/adenine/4XNR

>  <Rbt.Executable>
rbdock ($Id: //depot/dev/client3/rdock/2013.1/src/exe/rbdock.cxx#4 $)

>  <Rbt.Library>
libRbt.so (2013.1, Build901 2013/11/27)

>  <Rbt.Parameter_File>
/home/fstefaniak/progs/rDock//data/scripts/dock_solv.prm

>  <Rbt.Receptor>
4xnr.prm

>  <SCORE>
-45.8006

>  <SCORE.INTER>
-26.1384

>  <SCORE.INTER.CONST>
1

>  <SCORE.INTER.POLAR>
-3.21196

>  <SCORE.INTER.ROT>
3

>  <SCORE.INTER.SOLV>
12.2283

>  <SCORE.INTER.VDW>
-16.3952

>  <SCORE.INTER.norm>
-2.61384

>  <SCORE.INTRA>
0.420728

>  <SCORE.INTRA.DIHEDRAL>
0.830044

>  <SCORE.INTRA.DIHEDRAL.0>
2.6552

>  <SCORE.INTRA.POLAR>
0

>  <SCORE.INTRA.POLAR.0>
0

>  <SCORE.INTRA.REPUL>
0

>  <SCORE.INTRA.REPUL.0>
0

>  <SCORE.INTRA.SOLV>
0.443513

>  <SCORE.INTRA.SOLV.lig_0>
-17.754

>  <SCORE.INTRA.VDW>
-0.216051

>  <SCORE.INTRA.VDW.0>
-0.358972

>  <SCORE.INTRA.norm>
0.0420728

>  <SCORE.RESTR>
0

>  <SCORE.RESTR.CAVITY>
0

>  <SCORE.RESTR.norm>
0

>  <SCORE.SYSTEM>
-20.0829

>  <SCORE.SYSTEM.CONST>
0

>  <SCORE.SYSTEM.DIHEDRAL>
4.76486

>  <SCORE.SYSTEM.POLAR>
-2.96563

>  <SCORE.SYSTEM.SOLV>
0.203298

>  <SCORE.SYSTEM.VDW>
-5.1592

>  <SCORE.SYSTEM.norm>
-2.00829

>  <SCORE.heavy>
10

>  <SCORE.norm>
-4.58006

$$$$
P96377371
 OpenBabel12072022113D
libRbt.so/2013.1/901 2013/11/27
 11 11  0  0  0  0  0  0  0  0999 V2000
    6.9439   18.3747    3.9342 C   0  0  0  0  0  0  0  0  0  0  0  0
    6.7074   18.8987    5.3664 C   0  0  0  0  0  0  0  0  0  0  0  0
    5.5164   17.9196    5.4474 C   0  0  0  0  0  0  0  0  0  0  0  0
    5.5774   17.8755    3.9962 N   0  0  0  0  0  0  0  0  0  0  0  0
    4.9595   17.0629    3.1004 C   0  0  0  0  0  0  0  0  0  0  0  0
    3.9178   17.3410    2.5200 O   0  0  0  0  0  0  0  0  0  0  0  0
    5.5884   15.8817    2.8747 N   0  0  0  0  0  0  0  0  0  0  0  0
    6.3906   20.3060    5.4966 O   0  0  0  0  0  0  0  0  0  0  0  0
    6.4060   15.6789    3.4296 H   0  0  0  0  0  0  0  0  0  0  0  0
    4.9538   15.1064    2.7320 H   0  0  0  0  0  0  0  0  0  0  0  0
    7.1178   20.7648    5.0383 H   0  0  0  0  0  0  0  0  0  0  0  0
  1  2  1  0  0  0  0
  1  4  1  0  0  0  0
  2  3  1  0  0  0  0
  2  8  1  0  0  0  0
  3  4  1  0  0  0  0
  4  5  1  0  0  0  0
  5  6  2  0  0  0  0
  5  7  1  0  0  0  0
  7  9  1  0  0  0  0
  7 10  1  0  0  0  0
  8 11  1  0  0  0  0
M  END
>  <CHROM.0>
-54.71067628,60.66756355,-66.50652220,-45.53385453,-173.14832950,-59.59111394
-67.34108128,-174.65518956,-168.85964998

>  <CHROM.1>
-54.43347962,-123.13066512,4.43504661,5.69772984,17.97450132,4.08618703,-1.10791034
0.45417596,-2.63727419

>  <Name>
P96377371

>  <RI>
1.00763e+07

>  <Rbt.Current_Directory>
/home/fstefaniak/projects/zuza/docking/adenine/4XNR

>  <Rbt.Executable>
rbdock ($Id: //depot/dev/client3/rdock/2013.1/src/exe/rbdock.cxx#4 $)

>  <Rbt.Library>
libRbt.so (2013.1, Build901 2013/11/27)

>  <Rbt.Parameter_File>
/home/fstefaniak/progs/rDock//data/scripts/dock_solv.prm

>  <Rbt.Receptor>
4xnr.prm

>  <SCORE>
-50.6895

>  <SCORE.INTER>
-29.7793

>  <SCORE.INTER.CONST>
1

>  <SCORE.INTER.POLAR>
-4.10876

>  <SCORE.INTER.ROT>
2

>  <SCORE.INTER.SOLV>
12.5517

>  <SCORE.INTER.VDW>
-15.2742

>  <SCORE.INTER.norm>
-3.72241

>  <SCORE.INTRA>
-1.03065

>  <SCORE.INTRA.DIHEDRAL>
-0.60968

>  <SCORE.INTRA.DIHEDRAL.0>
2.79528

>  <SCORE.INTRA.POLAR>
0

>  <SCORE.INTRA.POLAR.0>
0

>  <SCORE.INTRA.REPUL>
0

>  <SCORE.INTRA.REPUL.0>
0

>  <SCORE.INTRA.SOLV>
0.0129819

>  <SCORE.INTRA.SOLV.lig_0>
-18.4608

>  <SCORE.INTRA.VDW>
-0.732299

>  <SCORE.INTRA.VDW.0>
0.250528

>  <SCORE.INTRA.norm>
-0.128831

>  <SCORE.RESTR>
0

>  <SCORE.RESTR.CAVITY>
0

>  <SCORE.RESTR.norm>
0

>  <SCORE.SYSTEM>
-19.8796

>  <SCORE.SYSTEM.CONST>
0

>  <SCORE.SYSTEM.DIHEDRAL>
4.54861

>  <SCORE.SYSTEM.POLAR>
-3.02293

>  <SCORE.SYSTEM.SOLV>
0.0615863

>  <SCORE.SYSTEM.VDW>
-4.71338

>  <SCORE.SYSTEM.norm>
-2.48495

>  <SCORE.heavy>
8

>  <SCORE.norm>
-6.33619

$$$$
P96377371
 OpenBabel12072022113D
libRbt.so/2013.1/901 2013/11/27
 11 11  0  0  0  0  0  0  0  0999 V2000
    6.7557   18.4906    3.1540 C   0  0  0  0  0  0  0  0  0  0  0  0
    5.6457   17.4614    2.8537 C   0  0  0  0  0  0  0  0  0  0  0  0
    5.0612   17.7988    4.2424 C   0  0  0  0  0  0  0  0  0  0  0  0
    6.3674   18.3558    4.5509 N   0  0  0  0  0  0  0  0  0  0  0  0
    6.7923   19.1108    5.5969 C   0  0  0  0  0  0  0  0  0  0  0  0
    6.0796   19.8829    6.2255 O   0  0  0  0  0  0  0  0  0  0  0  0
    8.1009   18.9518    5.9193 N   0  0  0  0  0  0  0  0  0  0  0  0
    6.0705   16.0914    2.6525 O   0  0  0  0  0  0  0  0  0  0  0  0
    8.5155   19.6424    6.5264 H   0  0  0  0  0  0  0  0  0  0  0  0
    8.3564   17.9915    6.1112 H   0  0  0  0  0  0  0  0  0  0  0  0
    6.5538   15.8621    3.4669 H   0  0  0  0  0  0  0  0  0  0  0  0
  1  2  1  0  0  0  0
  1  4  1  0  0  0  0
  2  3  1  0  0  0  0
  2  8  1  0  0  0  0
  3  4  1  0  0  0  0
  4  5  1  0  0  0  0
  5  6  2  0  0  0  0
  5  7  1  0  0  0  0
  7  9  1  0  0  0  0
  7 10  1  0  0  0  0
  8 11  1  0  0  0  0
M  END
>  <CHROM.0>
-62.63883945,-175.01524951,-72.18499376,-46.64664035,-59.60023024,-61.85365967
-172.21960619,-61.48945805,-167.95535439

>  <CHROM.1>
56.72448273,112.21090955,165.32093332,6.38562809,18.23927479,4.41830992,-1.84209055
-0.12380374,0.85389735

>  <Name>
P96377371

>  <RI>
1.00763e+07

>  <Rbt.Current_Directory>
/home/fstefaniak/projects/zuza/docking/adenine/4XNR

>  <Rbt.Executable>
rbdock ($Id: //depot/dev/client3/rdock/2013.1/src/exe/rbdock.cxx#4 $)

>  <Rbt.Library>
libRbt.so (2013.1, Build901 2013/11/27)

>  <Rbt.Parameter_File>
/home/fstefaniak/progs/rDock//data/scripts/dock_solv.prm

>  <Rbt.Receptor>
4xnr.prm

>  <SCORE>
-50.6019

>  <SCORE.INTER>
-29.6487

>  <SCORE.INTER.CONST>
1

>  <SCORE.INTER.POLAR>
-4.94732

>  <SCORE.INTER.ROT>
2

>  <SCORE.INTER.SOLV>
12.4267

>  <SCORE.INTER.VDW>
-12.3503

>  <SCORE.INTER.norm>
-3.70609

>  <SCORE.INTRA>
-0.779284

>  <SCORE.INTRA.DIHEDRAL>
-0.678742

>  <SCORE.INTRA.DIHEDRAL.0>
2.79528

>  <SCORE.INTRA.POLAR>
0

>  <SCORE.INTRA.POLAR.0>
0

>  <SCORE.INTRA.REPUL>
0

>  <SCORE.INTRA.REPUL.0>
0

>  <SCORE.INTRA.SOLV>
-0.0423281

>  <SCORE.INTRA.SOLV.lig_0>
-18.4608

>  <SCORE.INTRA.VDW>
-0.418749

>  <SCORE.INTRA.VDW.0>
0.250528

>  <SCORE.INTRA.norm>
-0.0974104

>  <SCORE.RESTR>
0

>  <SCORE.RESTR.CAVITY>
0

>  <SCORE.RESTR.norm>
0

>  <SCORE.SYSTEM>
-20.1739

>  <SCORE.SYSTEM.CONST>
0

>  <SCORE.SYSTEM.DIHEDRAL>
4.70354

>  <SCORE.SYSTEM.POLAR>
-2.95255

>  <SCORE.SYSTEM.SOLV>
0.197994

>  <SCORE.SYSTEM.VDW>
-5.24124

>  <SCORE.SYSTEM.norm>
-2.52173

>  <SCORE.heavy>
8

>  <SCORE.norm>
-6.32523

$$$$
P96377371
 OpenBabel12072022113D
libRbt.so/2013.1/901 2013/11/27
 11 11  0  0  0  0  0  0  0  0999 V2000
    6.9203   18.4225    3.3199 C   0  0  0  0  0  0  0  0  0  0  0  0
    5.7732   17.4951    2.8665 C   0  0  0  0  0  0  0  0  0  0  0  0
    5.1071   17.7762    4.2307 C   0  0  0  0  0  0  0  0  0  0  0  0
    6.4188   18.2197    4.6719 N   0  0  0  0  0  0  0  0  0  0  0  0
    6.8098   18.8703    5.7981 C   0  0  0  0  0  0  0  0  0  0  0  0
    6.0432   19.4160    6.5815 O   0  0  0  0  0  0  0  0  0  0  0  0
    8.1494   18.8785    6.0149 N   0  0  0  0  0  0  0  0  0  0  0  0
    6.1241   16.1161    2.5963 O   0  0  0  0  0  0  0  0  0  0  0  0
    8.5252   19.6370    6.5633 H   0  0  0  0  0  0  0  0  0  0  0  0
    8.5324   17.9632    6.2147 H   0  0  0  0  0  0  0  0  0  0  0  0
    6.5024   15.7906    3.4332 H   0  0  0  0  0  0  0  0  0  0  0  0
  1  2  1  0  0  0  0
  1  4  1  0  0  0  0
  2  3  1  0  0  0  0
  2  8  1  0  0  0  0
  3  4  1  0  0  0  0
  4  5  1  0  0  0  0
  5  6  2  0  0  0  0
  5  7  1  0  0  0  0
  7  9  1  0  0  0  0
  7 10  1  0  0  0  0
  8 11  1  0  0  0  0
M  END
>  <CHROM.0>
-57.86723502,-172.93769149,-63.30798375,-48.11702643,-60.27210846,-60.82953619
-69.40500539,58.88062147,-167.91368308

>  <CHROM.1>
58.46265835,128.19611917,154.15890157,6.44274552,18.12012100,4.52753107,-1.82400323
0.02465492,0.98693713

>  <Name>
P96377371

>  <RI>
1.00763e+07

>  <Rbt.Current_Directory>
/home/fstefaniak/projects/zuza/docking/adenine/4XNR

>  <Rbt.Executable>
rbdock ($Id: //depot/dev/client3/rdock/2013.1/src/exe/rbdock.cxx#4 $)

>  <Rbt.Library>
libRbt.so (2013.1, Build901 2013/11/27)

>  <Rbt.Parameter_File>
/home/fstefaniak/progs/rDock//data/scripts/dock_solv.prm

>  <Rbt.Receptor>
4xnr.prm

>  <SCORE>
-50.2075

>  <SCORE.INTER>
-29.9023

>  <SCORE.INTER.CONST>
1

>  <SCORE.INTER.POLAR>
-4.77305

>  <SCORE.INTER.ROT>
2

>  <SCORE.INTER.SOLV>
12.1911

>  <SCORE.INTER.VDW>
-13.0217

>  <SCORE.INTER.norm>
-3.73779

>  <SCORE.INTRA>
-0.637563

>  <SCORE.INTRA.DIHEDRAL>
-0.705219

>  <SCORE.INTRA.DIHEDRAL.0>
2.79528

>  <SCORE.INTRA.POLAR>
0

>  <SCORE.INTRA.POLAR.0>
0

>  <SCORE.INTRA.REPUL>
0

>  <SCORE.INTRA.REPUL.0>
0

>  <SCORE.INTRA.SOLV>
-0.0328163

>  <SCORE.INTRA.SOLV.lig_0>
-18.4608

>  <SCORE.INTRA.VDW>
-0.268546

>  <SCORE.INTRA.VDW.0>
0.250528

>  <SCORE.INTRA.norm>
-0.0796954

>  <SCORE.RESTR>
0

>  <SCORE.RESTR.CAVITY>
0

>  <SCORE.RESTR.norm>
0

>  <SCORE.SYSTEM>
-19.6677

>  <SCORE.SYSTEM.CONST>
0

>  <SCORE.SYSTEM.DIHEDRAL>
4.15079

>  <SCORE.SYSTEM.POLAR>
-2.97319

>  <SCORE.SYSTEM.SOLV>
0.0835045

>  <SCORE.SYSTEM.VDW>
-4.61257

>  <SCORE.SYSTEM.norm>
-2.45846

>  <SCORE.heavy>
8

>  <SCORE.norm>
-6.27594

$$$$
adenine
 OpenBabel12072022113D
libRbt.so/2013.1/901 2013/11/27
 13 14  0  0  0  0  0  0  0  0999 V2000
    5.9022   18.9227    6.1123 C   0  0  0  0  0  0  0  0  0  0  0  0
    6.5559   19.5908    5.1121 N   0  0  0  0  0  0  0  0  0  0  0  0
    6.9904   20.4994    5.1694 H   0  0  0  0  0  0  0  0  0  0  0  0
    6.5234   18.8009    4.0003 C   0  0  0  0  0  0  0  0  0  0  0  0
    5.8247   17.6691    4.3821 C   0  0  0  0  0  0  0  0  0  0  0  0
    5.4502   17.7532    5.7095 N   0  0  0  0  0  0  0  0  0  0  0  0
    5.6455   16.6827    3.3981 C   0  0  0  0  0  0  0  0  0  0  0  0
    6.1782   16.8913    2.1714 N   0  0  0  0  0  0  0  0  0  0  0  0
    6.8335   18.0524    1.9447 C   0  0  0  0  0  0  0  0  0  0  0  0
    7.0577   19.0710    2.8011 N   0  0  0  0  0  0  0  0  0  0  0  0
    4.9668   15.4919    3.6265 N   0  0  0  0  0  0  0  0  0  0  0  0
    4.8320   15.2912    4.6111 H   0  0  0  0  0  0  0  0  0  0  0  0
    5.3052   14.7445    3.0355 H   0  0  0  0  0  0  0  0  0  0  0  0
  1  2  1  0  0  0  0
  1  6  2  0  0  0  0
  2  3  1  0  0  0  0
  2  4  1  0  0  0  0
  4  5  2  0  0  0  0
  4 10  1  0  0  0  0
  5  6  1  0  0  0  0
  5  7  1  0  0  0  0
  7  8  2  0  0  0  0
  7 11  1  0  0  0  0
  8  9  1  0  0  0  0
  9 10  2  0  0  0  0
 11 12  1  0  0  0  0
 11 13  1  0  0  0  0
M  END
>  <CHROM.0>
-62.75774544,-176.90731375,-67.51236805,-48.92850762,-61.96222664,-64.45258714
-67.35037851,-58.52911415,-168.19449013

>  <CHROM.1>
-15.37189482,6.08546277,17.86822309,3.93199706,1.37146765,1.03474453,0.98738048

>  <Name>
adenine

>  <RI>
3.51561e+07

>  <Rbt.Current_Directory>
/home/fstefaniak/projects/zuza/docking/adenine/4XNR

>  <Rbt.Executable>
rbdock ($Id: //depot/dev/client3/rdock/2013.1/src/exe/rbdock.cxx#4 $)

>  <Rbt.Library>
libRbt.so (2013.1, Build901 2013/11/27)

>  <Rbt.Parameter_File>
/home/fstefaniak/progs/rDock//data/scripts/dock_solv.prm

>  <Rbt.Receptor>
4xnr.prm

>  <SCORE>
-64.7379

>  <SCORE.INTER>
-43.9329

>  <SCORE.INTER.CONST>
1

>  <SCORE.INTER.POLAR>
-5.17227

>  <SCORE.INTER.ROT>
1

>  <SCORE.INTER.SOLV>
13.8693

>  <SCORE.INTER.VDW>
-20.9375

>  <SCORE.INTER.norm>
-4.39329

>  <SCORE.INTRA>
-0.00657401

>  <SCORE.INTRA.DIHEDRAL>
0.000617049

>  <SCORE.INTRA.DIHEDRAL.0>
0.467566

>  <SCORE.INTRA.POLAR>
0

>  <SCORE.INTRA.POLAR.0>
0

>  <SCORE.INTRA.REPUL>
0

>  <SCORE.INTRA.REPUL.0>
0

>  <SCORE.INTRA.SOLV>
-0.00332323

>  <SCORE.INTRA.SOLV.lig_0>
-16.6672

>  <SCORE.INTRA.VDW>
-0.00522092

>  <SCORE.INTRA.VDW.0>
-0.139743

>  <SCORE.INTRA.norm>
-0.000657401

>  <SCORE.RESTR>
0

>  <SCORE.RESTR.CAVITY>
0

>  <SCORE.RESTR.norm>
0

>  <SCORE.SYSTEM>
-20.7984

>  <SCORE.SYSTEM.CONST>
0

>  <SCORE.SYSTEM.DIHEDRAL>
4.02026

>  <SCORE.SYSTEM.POLAR>
-2.9292

>  <SCORE.SYSTEM.SOLV>
0.243353

>  <SCORE.SYSTEM.VDW>
-5.52283

>  <SCORE.SYSTEM.norm>
-2.07984

>  <SCORE.heavy>
10

>  <SCORE.norm>
-6.47379

$$$$
adenine
 OpenBabel12072022113D
libRbt.so/2013.1/901 2013/11/27
 13 14  0  0  0  0  0  0  0  0999 V2000
    5.9320   18.9731    6.0927 C   0  0  0  0  0  0  0  0  0  0  0  0
    6.5683   19.6501    5.0873 N   0  0  0  0  0  0  0  0  0  0  0  0
    7.0011   20.5595    5.1442 H   0  0  0  0  0  0  0  0  0  0  0  0
    6.5207   18.8679    3.9706 C   0  0  0  0  0  0  0  0  0  0  0  0
    5.8311   17.7315    4.3551 C   0  0  0  0  0  0  0  0  0  0  0  0
    5.4770   17.8052    5.6887 N   0  0  0  0  0  0  0  0  0  0  0  0
    5.6394   16.7515    3.3670 C   0  0  0  0  0  0  0  0  0  0  0  0
    6.1524   16.9703    2.1338 N   0  0  0  0  0  0  0  0  0  0  0  0
    6.8009   18.1348    1.9052 C   0  0  0  0  0  0  0  0  0  0  0  0
    7.0356   19.1480    2.7652 N   0  0  0  0  0  0  0  0  0  0  0  0
    4.9675   15.5573    3.5975 N   0  0  0  0  0  0  0  0  0  0  0  0
    4.8344   15.3572    4.5825 H   0  0  0  0  0  0  0  0  0  0  0  0
    5.3099   14.8109    3.0074 H   0  0  0  0  0  0  0  0  0  0  0  0
  1  2  1  0  0  0  0
  1  6  2  0  0  0  0
  2  3  1  0  0  0  0
  2  4  1  0  0  0  0
  4  5  2  0  0  0  0
  4 10  1  0  0  0  0
  5  6  1  0  0  0  0
  5  7  1  0  0  0  0
  7  8  2  0  0  0  0
  7 11  1  0  0  0  0
  8  9  1  0  0  0  0
  9 10  2  0  0  0  0
 11 12  1  0  0  0  0
 11 13  1  0  0  0  0
M  END
>  <CHROM.0>
-57.21877969,-175.55633833,-68.33081219,-49.35077635,-61.07673786,-63.08012472
-68.97982928,-176.47266311,-167.98539441

>  <CHROM.1>
-14.37330402,6.08426932,17.93453939,3.90255639,1.34888494,1.04539348,1.01391774

>  <Name>
adenine

>  <RI>
3.51561e+07

>  <Rbt.Current_Directory>
/home/fstefaniak/projects/zuza/docking/adenine/4XNR

>  <Rbt.Executable>
rbdock ($Id: //depot/dev/client3/rdock/2013.1/src/exe/rbdock.cxx#4 $)

>  <Rbt.Library>
libRbt.so (2013.1, Build901 2013/11/27)

>  <Rbt.Parameter_File>
/home/fstefaniak/progs/rDock//data/scripts/dock_solv.prm

>  <Rbt.Receptor>
4xnr.prm

>  <SCORE>
-64.6376

>  <SCORE.INTER>
-43.9074

>  <SCORE.INTER.CONST>
1

>  <SCORE.INTER.POLAR>
-5.17227

>  <SCORE.INTER.ROT>
1

>  <SCORE.INTER.SOLV>
13.9076

>  <SCORE.INTER.VDW>
-20.9332

>  <SCORE.INTER.norm>
-4.39074

>  <SCORE.INTRA>
-0.00584665

>  <SCORE.INTRA.DIHEDRAL>
0.000836873

>  <SCORE.INTRA.DIHEDRAL.0>
0.467566

>  <SCORE.INTRA.POLAR>
0

>  <SCORE.INTRA.POLAR.0>
0

>  <SCORE.INTRA.REPUL>
0

>  <SCORE.INTRA.REPUL.0>
0

>  <SCORE.INTRA.SOLV>
-0.00399926

>  <SCORE.INTRA.SOLV.lig_0>
-16.6672

>  <SCORE.INTRA.VDW>
-0.00426546

>  <SCORE.INTRA.VDW.0>
-0.139743

>  <SCORE.INTRA.norm>
-0.000584665

>  <SCORE.RESTR>
0

>  <SCORE.RESTR.CAVITY>
0

>  <SCORE.RESTR.norm>
0

>  <SCORE.SYSTEM>
-20.7244

>  <SCORE.SYSTEM.CONST>
0

>  <SCORE.SYSTEM.DIHEDRAL>
4.21188

>  <SCORE.SYSTEM.POLAR>
-2.95178

>  <SCORE.SYSTEM.SOLV>
0.110988

>  <SCORE.SYSTEM.VDW>
-5.41797

>  <SCORE.SYSTEM.norm>
-2.07244

>  <SCORE.heavy>
10

>  <SCORE.norm>
-6.46376

$$$$
adenine
 OpenBabel12072022113D
libRbt.so/2013.1/901 2013/11/27
 13 14  0  0  0  0  0  0  0  0999 V2000
    5.9011   18.9737    6.1290 C   0  0  0  0  0  0  0  0  0  0  0  0
    6.5687   19.6294    5.1298 N   0  0  0  0  0  0  0  0  0  0  0  0
    7.0135   20.5330    5.1855 H   0  0  0  0  0  0  0  0  0  0  0  0
    6.5334   18.8348    4.0214 C   0  0  0  0  0  0  0  0  0  0  0  0
    5.8191   17.7131    4.4041 C   0  0  0  0  0  0  0  0  0  0  0  0
    5.4376   17.8078    5.7288 N   0  0  0  0  0  0  0  0  0  0  0  0
    5.6341   16.7244    3.4235 C   0  0  0  0  0  0  0  0  0  0  0  0
    6.1765   16.9210    2.1992 N   0  0  0  0  0  0  0  0  0  0  0  0
    6.8469   18.0732    1.9711 C   0  0  0  0  0  0  0  0  0  0  0  0
    7.0781   19.0930    2.8242 N   0  0  0  0  0  0  0  0  0  0  0  0
    4.9399   15.5428    3.6533 N   0  0  0  0  0  0  0  0  0  0  0  0
    5.0923   14.8435    2.9351 H   0  0  0  0  0  0  0  0  0  0  0  0
    3.9883   15.7147    3.9488 H   0  0  0  0  0  0  0  0  0  0  0  0
  1  2  1  0  0  0  0
  1  6  2  0  0  0  0
  2  3  1  0  0  0  0
  2  4  1  0  0  0  0
  4  5  2  0  0  0  0
  4 10  1  0  0  0  0
  5  6  1  0  0  0  0
  5  7  1  0  0  0  0
  7  8  2  0  0  0  0
  7 11  1  0  0  0  0
  8  9  1  0  0  0  0
  9 10  2  0  0  0  0
 11 12  1  0  0  0  0
 11 13  1  0  0  0  0
M  END
>  <CHROM.0>
-57.42688578,-175.78308884,-64.49233558,-47.84018840,-58.81845171,-61.70799203
-69.28949513,-60.19840505,-168.13938590

>  <CHROM.1>
-165.48859876,6.07747405,17.91018046,3.94858608,1.35645154,1.00629046,0.99362684

>  <Name>
adenine

>  <RI>
3.51561e+07

>  <Rbt.Current_Directory>
/home/fstefaniak/projects/zuza/docking/adenine/4XNR

>  <Rbt.Executable>
rbdock ($Id: //depot/dev/client3/rdock/2013.1/src/exe/rbdock.cxx#4 $)

>  <Rbt.Library>
libRbt.so (2013.1, Build901 2013/11/27)

>  <Rbt.Parameter_File>
/home/fstefaniak/progs/rDock//data/scripts/dock_solv.prm

>  <Rbt.Receptor>
4xnr.prm

>  <SCORE>
-64.3439

>  <SCORE.INTER>
-43.5798

>  <SCORE.INTER.CONST>
1

>  <SCORE.INTER.POLAR>
-5.17227

>  <SCORE.INTER.ROT>
1

>  <SCORE.INTER.SOLV>
13.6669

>  <SCORE.INTER.VDW>
-20.6346

>  <SCORE.INTER.norm>
-4.35798

>  <SCORE.INTRA>
-0.0293579

>  <SCORE.INTRA.DIHEDRAL>
0.00860949

>  <SCORE.INTRA.DIHEDRAL.0>
0.467566

>  <SCORE.INTRA.POLAR>
0

>  <SCORE.INTRA.POLAR.0>
0

>  <SCORE.INTRA.REPUL>
0

>  <SCORE.INTRA.REPUL.0>
0

>  <SCORE.INTRA.SOLV>
0.014274

>  <SCORE.INTRA.SOLV.lig_0>
-16.6672

>  <SCORE.INTRA.VDW>
-0.0407996

>  <SCORE.INTRA.VDW.0>
-0.139743

>  <SCORE.INTRA.norm>
-0.00293579

>  <SCORE.RESTR>
0

>  <SCORE.RESTR.CAVITY>
0

>  <SCORE.RESTR.norm>
0

>  <SCORE.SYSTEM>
-20.7347

>  <SCORE.SYSTEM.CONST>
0

>  <SCORE.SYSTEM.DIHEDRAL>
4.05789

>  <SCORE.SYSTEM.POLAR>
-2.98237

>  <SCORE.SYSTEM.SOLV>
0.260421

>  <SCORE.SYSTEM.VDW>
-5.32134

>  <SCORE.SYSTEM.norm>
-2.07347

>  <SCORE.heavy>
10

>  <SCORE.norm>
-6.43439

$$$$
guanine
 OpenBabel12072022113D
libRbt.so/2013.1/901 2013/11/27
 15 16  0  0  0  0  0  0  0  0999 V2000
    6.1146   18.4258    6.0971 C   0  0  0  0  0  0  0  0  0  0  0  0
    5.0745   17.8937    5.3815 N   0  0  0  0  0  0  0  0  0  0  0  0
    4.2188   17.5017    5.7523 H   0  0  0  0  0  0  0  0  0  0  0  0
    5.4151   17.9949    4.0664 C   0  0  0  0  0  0  0  0  0  0  0  0
    4.7215   17.6075    2.8973 C   0  0  0  0  0  0  0  0  0  0  0  0
    3.6118   17.0892    2.8742 O   0  0  0  0  0  0  0  0  0  0  0  0
    5.4457   17.8845    1.7633 N   0  0  0  0  0  0  0  0  0  0  0  0
    4.9962   17.6811    0.8868 H   0  0  0  0  0  0  0  0  0  0  0  0
    6.6763   18.4974    1.7812 C   0  0  0  0  0  0  0  0  0  0  0  0
    7.3154   18.8654    2.8530 N   0  0  0  0  0  0  0  0  0  0  0  0
    6.6438   18.5904    4.0456 C   0  0  0  0  0  0  0  0  0  0  0  0
    7.0806   18.8539    5.3102 N   0  0  0  0  0  0  0  0  0  0  0  0
    7.2419   18.7128    0.5638 N   0  0  0  0  0  0  0  0  0  0  0  0
    7.1452   17.9667   -0.1120 H   0  0  0  0  0  0  0  0  0  0  0  0
    8.2083   19.0155    0.6611 H   0  0  0  0  0  0  0  0  0  0  0  0
  1  2  1  0  0  0  0
  1 12  2  0  0  0  0
  2  3  1  0  0  0  0
  2  4  1  0  0  0  0
  4  5  1  0  0  0  0
  4 11  2  0  0  0  0
  5  6  2  0  0  0  0
  5  7  1  0  0  0  0
  7  8  1  0  0  0  0
  7  9  1  0  0  0  0
  9 10  2  0  0  0  0
  9 13  1  0  0  0  0
 10 11  1  0  0  0  0
 11 12  1  0  0  0  0
 13 14  1  0  0  0  0
 13 15  1  0  0  0  0
M  END
>  <CHROM.0>
-59.03347387,-63.42631451,-65.80445685,-44.98950452,-60.13562761,-62.76351215
-69.76736792,-62.55274774,-167.68512799

>  <CHROM.1>
-40.69489571,5.91765130,18.20107531,3.36502373,-1.76131310,-0.44391293,-1.62340765

>  <Name>
guanine

>  <RI>
3.51561e+07

>  <Rbt.Current_Directory>
/home/fstefaniak/projects/zuza/docking/adenine/4XNR

>  <Rbt.Executable>
rbdock ($Id: //depot/dev/client3/rdock/2013.1/src/exe/rbdock.cxx#4 $)

>  <Rbt.Library>
libRbt.so (2013.1, Build901 2013/11/27)

>  <Rbt.Parameter_File>
/home/fstefaniak/progs/rDock//data/scripts/dock_solv.prm

>  <Rbt.Receptor>
4xnr.prm

>  <SCORE>
-61.3697

>  <SCORE.INTER>
-40.4644

>  <SCORE.INTER.CONST>
1

>  <SCORE.INTER.POLAR>
-5.12498

>  <SCORE.INTER.ROT>
1

>  <SCORE.INTER.SOLV>
14.5713

>  <SCORE.INTER.VDW>
-19.0168

>  <SCORE.INTER.norm>
-3.67858

>  <SCORE.INTRA>
-0.00167975

>  <SCORE.INTRA.DIHEDRAL>
0.000161094

>  <SCORE.INTRA.DIHEDRAL.0>
0.476907

>  <SCORE.INTRA.POLAR>
0

>  <SCORE.INTRA.POLAR.0>
0

>  <SCORE.INTRA.REPUL>
0

>  <SCORE.INTRA.REPUL.0>
0

>  <SCORE.INTRA.SOLV>
-0.000326499

>  <SCORE.INTRA.SOLV.lig_0>
-19.5088

>  <SCORE.INTRA.VDW>
-0.00159705

>  <SCORE.INTRA.VDW.0>
-0.187702

>  <SCORE.INTRA.norm>
-0.000152704

>  <SCORE.RESTR>
0

>  <SCORE.RESTR.CAVITY>
0

>  <SCORE.RESTR.norm>
0

>  <SCORE.SYSTEM>
-20.9036

>  <SCORE.SYSTEM.CONST>
0

>  <SCORE.SYSTEM.DIHEDRAL>
4.53609

>  <SCORE.SYSTEM.POLAR>
-3.01175

>  <SCORE.SYSTEM.SOLV>
0.274021

>  <SCORE.SYSTEM.VDW>
-5.49994

>  <SCORE.SYSTEM.norm>
-1.90033

>  <SCORE.heavy>
11

>  <SCORE.norm>
-5.57906

$$$$
guanine
 OpenBabel12072022113D
libRbt.so/2013.1/901 2013/11/27
 15 16  0  0  0  0  0  0  0  0999 V2000
    6.1263   18.4255    6.1020 C   0  0  0  0  0  0  0  0  0  0  0  0
    5.0831   17.9041    5.3831 N   0  0  0  0  0  0  0  0  0  0  0  0
    4.2237   17.5179    5.7512 H   0  0  0  0  0  0  0  0  0  0  0  0
    5.4266   18.0070    4.0688 C   0  0  0  0  0  0  0  0  0  0  0  0
    4.7316   17.6292    2.8973 C   0  0  0  0  0  0  0  0  0  0  0  0
    3.6178   17.1199    2.8708 O   0  0  0  0  0  0  0  0  0  0  0  0
    5.4598   17.9042    1.7654 N   0  0  0  0  0  0  0  0  0  0  0  0
    5.0100   17.7073    0.8875 H   0  0  0  0  0  0  0  0  0  0  0  0
    6.6952   18.5070    1.7873 C   0  0  0  0  0  0  0  0  0  0  0  0
    7.3357   18.8663    2.8612 N   0  0  0  0  0  0  0  0  0  0  0  0
    6.6600   18.5927    4.0519 C   0  0  0  0  0  0  0  0  0  0  0  0
    7.0969   18.8485    5.3181 N   0  0  0  0  0  0  0  0  0  0  0  0
    7.2645   18.7220    0.5714 N   0  0  0  0  0  0  0  0  0  0  0  0
    7.1258   17.9981   -0.1210 H   0  0  0  0  0  0  0  0  0  0  0  0
    8.2456   18.9723    0.6693 H   0  0  0  0  0  0  0  0  0  0  0  0
  1  2  1  0  0  0  0
  1 12  2  0  0  0  0
  2  3  1  0  0  0  0
  2  4  1  0  0  0  0
  4  5  1  0  0  0  0
  4 11  2  0  0  0  0
  5  6  2  0  0  0  0
  5  7  1  0  0  0  0
  7  8  1  0  0  0  0
  7  9  1  0  0  0  0
  9 10  2  0  0  0  0
  9 13  1  0  0  0  0
 10 11  1  0  0  0  0
 11 12  1  0  0  0  0
 13 14  1  0  0  0  0
 13 15  1  0  0  0  0
M  END
>  <CHROM.0>
-52.36275466,-61.04001356,-45.98458746,-46.63064188,-176.01574530,-63.71174951
-64.01924915,-58.77209305,-167.80875092

>  <CHROM.1>
-37.91881782,5.93165912,18.21135083,3.36878575,-1.76193839,-0.43556548,-1.62058006

>  <Name>
guanine

>  <RI>
3.51561e+07

>  <Rbt.Current_Directory>
/home/fstefaniak/projects/zuza/docking/adenine/4XNR

>  <Rbt.Executable>
rbdock ($Id: //depot/dev/client3/rdock/2013.1/src/exe/rbdock.cxx#4 $)

>  <Rbt.Library>
libRbt.so (2013.1, Build901 2013/11/27)

>  <Rbt.Parameter_File>
/home/fstefaniak/progs/rDock//data/scripts/dock_solv.prm

>  <Rbt.Receptor>
4xnr.prm

>  <SCORE>
-60.8865

>  <SCORE.INTER>
-40.4919

>  <SCORE.INTER.CONST>
1

>  <SCORE.INTER.POLAR>
-5.13667

>  <SCORE.INTER.ROT>
1

>  <SCORE.INTER.SOLV>
14.5617

>  <SCORE.INTER.VDW>
-18.9929

>  <SCORE.INTER.norm>
-3.68108

>  <SCORE.INTRA>
0.0031223

>  <SCORE.INTRA.DIHEDRAL>
-0.000258306

>  <SCORE.INTRA.DIHEDRAL.0>
0.476907

>  <SCORE.INTRA.POLAR>
0

>  <SCORE.INTRA.POLAR.0>
0

>  <SCORE.INTRA.REPUL>
0

>  <SCORE.INTRA.REPUL.0>
0

>  <SCORE.INTRA.SOLV>
0.000552048

>  <SCORE.INTRA.SOLV.lig_0>
-19.5088

>  <SCORE.INTRA.VDW>
0.00297542

>  <SCORE.INTRA.VDW.0>
-0.187702

>  <SCORE.INTRA.norm>
0.000283845

>  <SCORE.RESTR>
0

>  <SCORE.RESTR.CAVITY>
0

>  <SCORE.RESTR.norm>
0

>  <SCORE.SYSTEM>
-20.3978

>  <SCORE.SYSTEM.CONST>
0

>  <SCORE.SYSTEM.DIHEDRAL>
4.9552

>  <SCORE.SYSTEM.POLAR>
-3.15503

>  <SCORE.SYSTEM.SOLV>
0.153839

>  <SCORE.SYSTEM.VDW>
-4.7848

>  <SCORE.SYSTEM.norm>
-1.85435

>  <SCORE.heavy>
11

>  <SCORE.norm>
-5.53514

$$$$
guanine
 OpenBabel12072022113D
libRbt.so/2013.1/901 2013/11/27
 15 16  0  0  0  0  0  0  0  0999 V2000
    6.1315   18.3974    6.0997 C   0  0  0  0  0  0  0  0  0  0  0  0
    5.0845   17.8799    5.3836 N   0  0  0  0  0  0  0  0  0  0  0  0
    4.2264   17.4929    5.7542 H   0  0  0  0  0  0  0  0  0  0  0  0
    5.4219   17.9877    4.0682 C   0  0  0  0  0  0  0  0  0  0  0  0
    4.7212   17.6151    2.8984 C   0  0  0  0  0  0  0  0  0  0  0  0
    3.6068   17.1070    2.8751 O   0  0  0  0  0  0  0  0  0  0  0  0
    5.4443   17.8940    1.7642 N   0  0  0  0  0  0  0  0  0  0  0  0
    4.9903   17.7010    0.8877 H   0  0  0  0  0  0  0  0  0  0  0  0
    6.6804   18.4956    1.7827 C   0  0  0  0  0  0  0  0  0  0  0  0
    7.3262   18.8500    2.8551 N   0  0  0  0  0  0  0  0  0  0  0  0
    6.6558   18.5723    4.0478 C   0  0  0  0  0  0  0  0  0  0  0  0
    7.0989   18.8226    5.3130 N   0  0  0  0  0  0  0  0  0  0  0  0
    7.2442   18.7149    0.5651 N   0  0  0  0  0  0  0  0  0  0  0  0
    7.1330   17.9775   -0.1180 H   0  0  0  0  0  0  0  0  0  0  0  0
    8.2156   19.0014    0.6613 H   0  0  0  0  0  0  0  0  0  0  0  0
  1  2  1  0  0  0  0
  1 12  2  0  0  0  0
  2  3  1  0  0  0  0
  2  4  1  0  0  0  0
  4  5  1  0  0  0  0
  4 11  2  0  0  0  0
  5  6  2  0  0  0  0
  5  7  1  0  0  0  0
  7  8  1  0  0  0  0
  7  9  1  0  0  0  0
  9 10  2  0  0  0  0
  9 13  1  0  0  0  0
 10 11  1  0  0  0  0
 11 12  1  0  0  0  0
 13 14  1  0  0  0  0
 13 15  1  0  0  0  0
M  END
>  <CHROM.0>
-56.11565347,-63.89332313,-74.14819476,-47.49286315,-60.10013258,-64.59027546
-173.53141192,-63.64016475,-167.96508166

>  <CHROM.1>
-40.26914039,5.92407454,18.19445698,3.36670131,-1.75728456,-0.43506790,-1.61441017

>  <Name>
guanine

>  <RI>
3.51561e+07

>  <Rbt.Current_Directory>
/home/fstefaniak/projects/zuza/docking/adenine/4XNR

>  <Rbt.Executable>
rbdock ($Id: //depot/dev/client3/rdock/2013.1/src/exe/rbdock.cxx#4 $)

>  <Rbt.Library>
libRbt.so (2013.1, Build901 2013/11/27)

>  <Rbt.Parameter_File>
/home/fstefaniak/progs/rDock//data/scripts/dock_solv.prm

>  <Rbt.Receptor>
4xnr.prm

>  <SCORE>
-60.8696

>  <SCORE.INTER>
-40.4867

>  <SCORE.INTER.CONST>
1

>  <SCORE.INTER.POLAR>
-5.13461

>  <SCORE.INTER.ROT>
1

>  <SCORE.INTER.SOLV>
14.5457

>  <SCORE.INTER.VDW>
-18.991

>  <SCORE.INTER.norm>
-3.68061

>  <SCORE.INTRA>
-0.000986414

>  <SCORE.INTRA.DIHEDRAL>
9.25218e-05

>  <SCORE.INTRA.DIHEDRAL.0>
0.476907

>  <SCORE.INTRA.POLAR>
0

>  <SCORE.INTRA.POLAR.0>
0

>  <SCORE.INTRA.REPUL>
0

>  <SCORE.INTRA.REPUL.0>
0

>  <SCORE.INTRA.SOLV>
-0.000188919

>  <SCORE.INTRA.SOLV.lig_0>
-19.5088

>  <SCORE.INTRA.VDW>
-0.000938216

>  <SCORE.INTRA.VDW.0>
-0.187702

>  <SCORE.INTRA.norm>
-8.9674e-05

>  <SCORE.RESTR>
0

>  <SCORE.RESTR.CAVITY>
0

>  <SCORE.RESTR.norm>
0

>  <SCORE.SYSTEM>
-20.3819

>  <SCORE.SYSTEM.CONST>
0

>  <SCORE.SYSTEM.DIHEDRAL>
4.85888

>  <SCORE.SYSTEM.POLAR>
-2.97188

>  <SCORE.SYSTEM.SOLV>
0.215688

>  <SCORE.SYSTEM.VDW>
-5.37321

>  <SCORE.SYSTEM.norm>
-1.8529

>  <SCORE.heavy>
11

>  <SCORE.norm>
-5.5336

$$$$
hypoxanthine
 OpenBabel12072022113D
libRbt.so/2013.1/901 2013/11/27
 12 13  0  0  0  0  0  0  0  0999 V2000
    6.4543   19.1472    6.4663 C   0  0  0  0  0  0  0  0  0  0  0  0
    6.9966   19.4298    5.2405 N   0  0  0  0  0  0  0  0  0  0  0  0
    7.7653   20.0582    5.0462 H   0  0  0  0  0  0  0  0  0  0  0  0
    6.2981   18.6981    4.3272 C   0  0  0  0  0  0  0  0  0  0  0  0
    6.4311   18.6042    2.9212 C   0  0  0  0  0  0  0  0  0  0  0  0
    7.2552   19.2092    2.2472 O   0  0  0  0  0  0  0  0  0  0  0  0
    5.5115   17.7387    2.3824 N   0  0  0  0  0  0  0  0  0  0  0  0
    5.5405   17.6157    1.3816 H   0  0  0  0  0  0  0  0  0  0  0  0
    4.5890   17.0640    3.1529 C   0  0  0  0  0  0  0  0  0  0  0  0
    4.4523   17.1368    4.4384 N   0  0  0  0  0  0  0  0  0  0  0  0
    5.3633   18.0050    5.0453 C   0  0  0  0  0  0  0  0  0  0  0  0
    5.4619   18.2856    6.3751 N   0  0  0  0  0  0  0  0  0  0  0  0
  1  2  1  0  0  0  0
  1 12  2  0  0  0  0
  2  3  1  0  0  0  0
  2  4  1  0  0  0  0
  4  5  1  0  0  0  0
  4 11  2  0  0  0  0
  5  6  2  0  0  0  0
  5  7  1  0  0  0  0
  7  8  1  0  0  0  0
  7  9  1  0  0  0  0
  9 10  2  0  0  0  0
 10 11  1  0  0  0  0
 11 12  1  0  0  0  0
M  END
>  <CHROM.0>
-61.03644045,173.76732175,-67.23978277,-47.93898471,-178.67413631,-62.89697707
-68.70685226,-59.58667527,-166.65264457

>  <CHROM.1>
5.91152256,18.35089476,4.21382712,-1.52402406,-0.70191215,-1.71730969

>  <Name>
hypoxanthine

>  <RI>
3.51561e+07

>  <Rbt.Current_Directory>
/home/fstefaniak/projects/zuza/docking/adenine/4XNR

>  <Rbt.Executable>
rbdock ($Id: //depot/dev/client3/rdock/2013.1/src/exe/rbdock.cxx#4 $)

>  <Rbt.Library>
libRbt.so (2013.1, Build901 2013/11/27)

>  <Rbt.Parameter_File>
/home/fstefaniak/progs/rDock//data/scripts/dock_solv.prm

>  <Rbt.Receptor>
4xnr.prm

>  <SCORE>
-54.0433

>  <SCORE.INTER>
-33.5632

>  <SCORE.INTER.CONST>
1

>  <SCORE.INTER.POLAR>
-3.95822

>  <SCORE.INTER.ROT>
0

>  <SCORE.INTER.SOLV>
11.3443

>  <SCORE.INTER.VDW>
-16.5628

>  <SCORE.INTER.norm>
-3.35632

>  <SCORE.INTRA>
0

>  <SCORE.INTRA.DIHEDRAL>
0

>  <SCORE.INTRA.DIHEDRAL.0>
0

>  <SCORE.INTRA.POLAR>
0

>  <SCORE.INTRA.POLAR.0>
0

>  <SCORE.INTRA.REPUL>
0

>  <SCORE.INTRA.REPUL.0>
0

>  <SCORE.INTRA.SOLV>
0

>  <SCORE.INTRA.SOLV.lig_0>
-17.0136

>  <SCORE.INTRA.VDW>
0

>  <SCORE.INTRA.VDW.0>
0

>  <SCORE.INTRA.norm>
0

>  <SCORE.RESTR>
0

>  <SCORE.RESTR.CAVITY>
0

>  <SCORE.RESTR.norm>
0

>  <SCORE.SYSTEM>
-20.4801

>  <SCORE.SYSTEM.CONST>
0

>  <SCORE.SYSTEM.DIHEDRAL>
4.40505

>  <SCORE.SYSTEM.POLAR>
-2.95348

>  <SCORE.SYSTEM.SOLV>
0.0872006

>  <SCORE.SYSTEM.VDW>
-5.30587

>  <SCORE.SYSTEM.norm>
-2.04801

>  <SCORE.heavy>
10

>  <SCORE.norm>
-5.40433

$$$$
hypoxanthine
 OpenBabel12072022113D
libRbt.so/2013.1/901 2013/11/27
 12 13  0  0  0  0  0  0  0  0999 V2000
    6.4484   19.1199    6.4503 C   0  0  0  0  0  0  0  0  0  0  0  0
    6.9758   19.4310    5.2249 N   0  0  0  0  0  0  0  0  0  0  0  0
    7.7396   20.0669    5.0357 H   0  0  0  0  0  0  0  0  0  0  0  0
    6.2705   18.7156    4.3040 C   0  0  0  0  0  0  0  0  0  0  0  0
    6.3884   18.6522    2.8949 C   0  0  0  0  0  0  0  0  0  0  0  0
    7.2023   19.2752    2.2250 O   0  0  0  0  0  0  0  0  0  0  0  0
    5.4667   17.7941    2.3479 N   0  0  0  0  0  0  0  0  0  0  0  0
    5.4852   17.6925    1.3445 H   0  0  0  0  0  0  0  0  0  0  0  0
    4.5558   17.0989    3.1139 C   0  0  0  0  0  0  0  0  0  0  0  0
    4.4330   17.1438    4.4022 N   0  0  0  0  0  0  0  0  0  0  0  0
    5.3468   18.0031    5.0174 C   0  0  0  0  0  0  0  0  0  0  0  0
    5.4589   18.2559    6.3517 N   0  0  0  0  0  0  0  0  0  0  0  0
  1  2  1  0  0  0  0
  1 12  2  0  0  0  0
  2  3  1  0  0  0  0
  2  4  1  0  0  0  0
  4  5  1  0  0  0  0
  4 11  2  0  0  0  0
  5  6  2  0  0  0  0
  5  7  1  0  0  0  0
  7  8  1  0  0  0  0
  7  9  1  0  0  0  0
  9 10  2  0  0  0  0
 10 11  1  0  0  0  0
 11 12  1  0  0  0  0
M  END
>  <CHROM.0>
-57.53684509,172.74715104,-65.64912813,-46.22529446,-177.42086796,-61.71684761
-66.42736242,-56.91569752,-168.31885107

>  <CHROM.1>
5.88426679,18.36912206,4.18748281,-1.51047264,-0.70785543,-1.68727821

>  <Name>
hypoxanthine

>  <RI>
3.51561e+07

>  <Rbt.Current_Directory>
/home/fstefaniak/projects/zuza/docking/adenine/4XNR

>  <Rbt.Executable>
rbdock ($Id: //depot/dev/client3/rdock/2013.1/src/exe/rbdock.cxx#4 $)

>  <Rbt.Library>
libRbt.so (2013.1, Build901 2013/11/27)

>  <Rbt.Parameter_File>
/home/fstefaniak/progs/rDock//data/scripts/dock_solv.prm

>  <Rbt.Receptor>
4xnr.prm

>  <SCORE>
-54.0373

>  <SCORE.INTER>
-33.629

>  <SCORE.INTER.CONST>
1

>  <SCORE.INTER.POLAR>
-3.97161

>  <SCORE.INTER.ROT>
0

>  <SCORE.INTER.SOLV>
11.397

>  <SCORE.INTER.VDW>
-16.5796

>  <SCORE.INTER.norm>
-3.3629

>  <SCORE.INTRA>
0

>  <SCORE.INTRA.DIHEDRAL>
0

>  <SCORE.INTRA.DIHEDRAL.0>
0

>  <SCORE.INTRA.POLAR>
0

>  <SCORE.INTRA.POLAR.0>
0

>  <SCORE.INTRA.REPUL>
0

>  <SCORE.INTRA.REPUL.0>
0

>  <SCORE.INTRA.SOLV>
0

>  <SCORE.INTRA.SOLV.lig_0>
-17.0136

>  <SCORE.INTRA.VDW>
0

>  <SCORE.INTRA.VDW.0>
0

>  <SCORE.INTRA.norm>
0

>  <SCORE.RESTR>
0

>  <SCORE.RESTR.CAVITY>
0

>  <SCORE.RESTR.norm>
0

>  <SCORE.SYSTEM>
-20.4083

>  <SCORE.SYSTEM.CONST>
0

>  <SCORE.SYSTEM.DIHEDRAL>
4.30853

>  <SCORE.SYSTEM.POLAR>
-3.00822

>  <SCORE.SYSTEM.SOLV>
0.11325

>  <SCORE.SYSTEM.VDW>
-5.05206

>  <SCORE.SYSTEM.norm>
-2.04083

>  <SCORE.heavy>
10

>  <SCORE.norm>
-5.40373

$$$$
hypoxanthine
 OpenBabel12072022113D
libRbt.so/2013.1/901 2013/11/27
 12 13  0  0  0  0  0  0  0  0999 V2000
    4.6317   16.3771    3.0930 C   0  0  0  0  0  0  0  0  0  0  0  0
    4.5082   16.6698    4.4256 N   0  0  0  0  0  0  0  0  0  0  0  0
    3.7970   16.3291    5.0593 H   0  0  0  0  0  0  0  0  0  0  0  0
    5.5330   17.5128    4.7361 C   0  0  0  0  0  0  0  0  0  0  0  0
    5.8868   18.1256    5.9619 C   0  0  0  0  0  0  0  0  0  0  0  0
    5.2861   17.9884    7.0201 O   0  0  0  0  0  0  0  0  0  0  0  0
    7.0056   18.9107    5.8311 N   0  0  0  0  0  0  0  0  0  0  0  0
    7.3240   19.3842    6.6630 H   0  0  0  0  0  0  0  0  0  0  0  0
    7.6724   19.0565    4.6336 C   0  0  0  0  0  0  0  0  0  0  0  0
    7.3643   18.5047    3.5035 N   0  0  0  0  0  0  0  0  0  0  0  0
    6.2306   17.6912    3.5736 C   0  0  0  0  0  0  0  0  0  0  0  0
    5.6686   16.9844    2.5532 N   0  0  0  0  0  0  0  0  0  0  0  0
  1  2  1  0  0  0  0
  1 12  2  0  0  0  0
  2  3  1  0  0  0  0
  2  4  1  0  0  0  0
  4  5  1  0  0  0  0
  4 11  2  0  0  0  0
  5  6  2  0  0  0  0
  5  7  1  0  0  0  0
  7  8  1  0  0  0  0
  7  9  1  0  0  0  0
  9 10  2  0  0  0  0
 10 11  1  0  0  0  0
 11 12  1  0  0  0  0
M  END
>  <CHROM.0>
-58.61977725,-63.57147892,-67.24161626,-48.31690455,-60.65117989,-63.27459810
-66.75971330,-63.09390213,-168.27142477

>  <CHROM.1>
5.96407305,17.78743438,4.58913575,2.05196100,-0.61521127,-1.85096650

>  <Name>
hypoxanthine

>  <RI>
3.51561e+07

>  <Rbt.Current_Directory>
/home/fstefaniak/projects/zuza/docking/adenine/4XNR

>  <Rbt.Executable>
rbdock ($Id: //depot/dev/client3/rdock/2013.1/src/exe/rbdock.cxx#4 $)

>  <Rbt.Library>
libRbt.so (2013.1, Build901 2013/11/27)

>  <Rbt.Parameter_File>
/home/fstefaniak/progs/rDock//data/scripts/dock_solv.prm

>  <Rbt.Receptor>
4xnr.prm

>  <SCORE>
-50.9226

>  <SCORE.INTER>
-29.9563

>  <SCORE.INTER.CONST>
1

>  <SCORE.INTER.POLAR>
-3.53011

>  <SCORE.INTER.ROT>
0

>  <SCORE.INTER.SOLV>
11.2956

>  <SCORE.INTER.VDW>
-15.569

>  <SCORE.INTER.norm>
-2.99563

>  <SCORE.INTRA>
0

>  <SCORE.INTRA.DIHEDRAL>
0

>  <SCORE.INTRA.DIHEDRAL.0>
0

>  <SCORE.INTRA.POLAR>
0

>  <SCORE.INTRA.POLAR.0>
0

>  <SCORE.INTRA.REPUL>
0

>  <SCORE.INTRA.REPUL.0>
0

>  <SCORE.INTRA.SOLV>
0

>  <SCORE.INTRA.SOLV.lig_0>
-17.0136

>  <SCORE.INTRA.VDW>
0

>  <SCORE.INTRA.VDW.0>
0

>  <SCORE.INTRA.norm>
0

>  <SCORE.RESTR>
0

>  <SCORE.RESTR.CAVITY>
0

>  <SCORE.RESTR.norm>
0

>  <SCORE.SYSTEM>
-20.9663

>  <SCORE.SYSTEM.CONST>
0

>  <SCORE.SYSTEM.DIHEDRAL>
3.9865

>  <SCORE.SYSTEM.POLAR>
-2.95848

>  <SCORE.SYSTEM.SOLV>
0.271993

>  <SCORE.SYSTEM.VDW>
-5.53542

>  <SCORE.SYSTEM.norm>
-2.09663

>  <SCORE.heavy>
10

>  <SCORE.norm>
-5.09226

$$$$
purine
 OpenBabel12072022113D
libRbt.so/2013.1/901 2013/11/27
 10 11  0  0  0  0  0  0  0  0999 V2000
    5.4079   16.8757    3.7289 C   0  0  0  0  0  0  0  0  0  0  0  0
    5.7083   17.8337    4.6907 C   0  0  0  0  0  0  0  0  0  0  0  0
    6.4709   18.9076    4.2619 C   0  0  0  0  0  0  0  0  0  0  0  0
    6.6280   19.6930    5.3660 N   0  0  0  0  0  0  0  0  0  0  0  0
    7.1388   20.5622    5.3956 H   0  0  0  0  0  0  0  0  0  0  0  0
    5.9712   19.0831    6.4006 C   0  0  0  0  0  0  0  0  0  0  0  0
    5.4032   17.9552    6.0263 N   0  0  0  0  0  0  0  0  0  0  0  0
    6.9548   19.1354    3.0316 N   0  0  0  0  0  0  0  0  0  0  0  0
    6.6000   18.1424    2.1891 C   0  0  0  0  0  0  0  0  0  0  0  0
    5.8649   17.0395    2.4591 N   0  0  0  0  0  0  0  0  0  0  0  0
  1  2  2  0  0  0  0
  1 10  1  0  0  0  0
  2  3  1  0  0  0  0
  2  7  1  0  0  0  0
  3  4  1  0  0  0  0
  3  8  2  0  0  0  0
  4  5  1  0  0  0  0
  4  6  1  0  0  0  0
  6  7  2  0  0  0  0
  8  9  1  0  0  0  0
  9 10  2  0  0  0  0
M  END
>  <CHROM.0>
-61.99885536,-174.69463815,-67.15875059,-46.29646155,-60.81827896,-62.80608245
-69.06625159,-61.54668627,-168.16564672

>  <CHROM.1>
6.12445147,18.31920529,4.24446314,1.47453979,-0.98683525,-2.01285803

>  <Name>
purine

>  <RI>
3.51561e+07

>  <Rbt.Current_Directory>
/home/fstefaniak/projects/zuza/docking/adenine/4XNR

>  <Rbt.Executable>
rbdock ($Id: //depot/dev/client3/rdock/2013.1/src/exe/rbdock.cxx#4 $)

>  <Rbt.Library>
libRbt.so (2013.1, Build901 2013/11/27)

>  <Rbt.Parameter_File>
/home/fstefaniak/progs/rDock//data/scripts/dock_solv.prm

>  <Rbt.Receptor>
4xnr.prm

>  <SCORE>
-58.6392

>  <SCORE.INTER>
-37.8255

>  <SCORE.INTER.CONST>
1

>  <SCORE.INTER.POLAR>
-4.2131

>  <SCORE.INTER.ROT>
0

>  <SCORE.INTER.SOLV>
11.3563

>  <SCORE.INTER.VDW>
-18.5587

>  <SCORE.INTER.norm>
-4.20283

>  <SCORE.INTRA>
0

>  <SCORE.INTRA.DIHEDRAL>
0

>  <SCORE.INTRA.DIHEDRAL.0>
0

>  <SCORE.INTRA.POLAR>
0

>  <SCORE.INTRA.POLAR.0>
0

>  <SCORE.INTRA.REPUL>
0

>  <SCORE.INTRA.REPUL.0>
0

>  <SCORE.INTRA.SOLV>
0

>  <SCORE.INTRA.SOLV.lig_0>
-13.6323

>  <SCORE.INTRA.VDW>
0

>  <SCORE.INTRA.VDW.0>
0

>  <SCORE.INTRA.norm>
0

>  <SCORE.RESTR>
0

>  <SCORE.RESTR.CAVITY>
0

>  <SCORE.RESTR.norm>
0

>  <SCORE.SYSTEM>
-20.8137

>  <SCORE.SYSTEM.CONST>
0

>  <SCORE.SYSTEM.DIHEDRAL>
4.42164

>  <SCORE.SYSTEM.POLAR>
-2.97505

>  <SCORE.SYSTEM.SOLV>
0.244087

>  <SCORE.SYSTEM.VDW>
-5.51422

>  <SCORE.SYSTEM.norm>
-2.31263

>  <SCORE.heavy>
9

>  <SCORE.norm>
-6.51546

$$$$
purine
 OpenBabel12072022113D
libRbt.so/2013.1/901 2013/11/27
 10 11  0  0  0  0  0  0  0  0999 V2000
    5.4987   16.8448    3.4963 C   0  0  0  0  0  0  0  0  0  0  0  0
    5.7701   17.7791    4.4895 C   0  0  0  0  0  0  0  0  0  0  0  0
    6.5581   18.8546    4.1137 C   0  0  0  0  0  0  0  0  0  0  0  0
    6.6793   19.6146    5.2400 N   0  0  0  0  0  0  0  0  0  0  0  0
    7.1961   20.4781    5.3081 H   0  0  0  0  0  0  0  0  0  0  0  0
    5.9777   18.9890    6.2350 C   0  0  0  0  0  0  0  0  0  0  0  0
    5.4148   17.8749    5.8147 N   0  0  0  0  0  0  0  0  0  0  0  0
    7.0910   19.1041    2.9082 N   0  0  0  0  0  0  0  0  0  0  0  0
    6.7603   18.1328    2.0313 C   0  0  0  0  0  0  0  0  0  0  0  0
    6.0057   17.0315    2.2488 N   0  0  0  0  0  0  0  0  0  0  0  0
  1  2  2  0  0  0  0
  1 10  1  0  0  0  0
  2  3  1  0  0  0  0
  2  7  1  0  0  0  0
  3  4  1  0  0  0  0
  3  8  2  0  0  0  0
  4  5  1  0  0  0  0
  4  6  1  0  0  0  0
  6  7  2  0  0  0  0
  8  9  1  0  0  0  0
  9 10  2  0  0  0  0
M  END
>  <CHROM.0>
-59.59668380,-176.82635565,-66.15953193,-47.30711515,-58.80065984,-63.61366748
-69.81802507,-61.41248284,-168.24346791

>  <CHROM.1>
6.20737819,18.27006004,4.07025086,1.42007286,-0.96170379,-2.03632153

>  <Name>
purine

>  <RI>
3.51561e+07

>  <Rbt.Current_Directory>
/home/fstefaniak/projects/zuza/docking/adenine/4XNR

>  <Rbt.Executable>
rbdock ($Id: //depot/dev/client3/rdock/2013.1/src/exe/rbdock.cxx#4 $)

>  <Rbt.Library>
libRbt.so (2013.1, Build901 2013/11/27)

>  <Rbt.Parameter_File>
/home/fstefaniak/progs/rDock//data/scripts/dock_solv.prm

>  <Rbt.Receptor>
4xnr.prm

>  <SCORE>
-58.6185

>  <SCORE.INTER>
-37.8248

>  <SCORE.INTER.CONST>
1

>  <SCORE.INTER.POLAR>
-4.2131

>  <SCORE.INTER.ROT>
0

>  <SCORE.INTER.SOLV>
11.4837

>  <SCORE.INTER.VDW>
-18.6007

>  <SCORE.INTER.norm>
-4.20275

>  <SCORE.INTRA>
0

>  <SCORE.INTRA.DIHEDRAL>
0

>  <SCORE.INTRA.DIHEDRAL.0>
0

>  <SCORE.INTRA.POLAR>
0

>  <SCORE.INTRA.POLAR.0>
0

>  <SCORE.INTRA.REPUL>
0

>  <SCORE.INTRA.REPUL.0>
0

>  <SCORE.INTRA.SOLV>
0

>  <SCORE.INTRA.SOLV.lig_0>
-13.6323

>  <SCORE.INTRA.VDW>
0

>  <SCORE.INTRA.VDW.0>
0

>  <SCORE.INTRA.norm>
0

>  <SCORE.RESTR>
0

>  <SCORE.RESTR.CAVITY>
0

>  <SCORE.RESTR.norm>
0

>  <SCORE.SYSTEM>
-20.7937

>  <SCORE.SYSTEM.CONST>
0

>  <SCORE.SYSTEM.DIHEDRAL>
4.21967

>  <SCORE.SYSTEM.POLAR>
-2.97268

>  <SCORE.SYSTEM.SOLV>
0.249326

>  <SCORE.SYSTEM.VDW>
-5.44324

>  <SCORE.SYSTEM.norm>
-2.31042

>  <SCORE.heavy>
9

>  <SCORE.norm>
-6.51317

$$$$
purine
 OpenBabel12072022113D
libRbt.so/2013.1/901 2013/11/27
 10 11  0  0  0  0  0  0  0  0999 V2000
    5.5093   16.8483    3.5861 C   0  0  0  0  0  0  0  0  0  0  0  0
    5.7719   17.8017    4.5635 C   0  0  0  0  0  0  0  0  0  0  0  0
    6.5122   18.9000    4.1582 C   0  0  0  0  0  0  0  0  0  0  0  0
    6.6341   19.6755    5.2739 N   0  0  0  0  0  0  0  0  0  0  0  0
    7.1218   20.5571    5.3210 H   0  0  0  0  0  0  0  0  0  0  0  0
    5.9794   19.0361    6.2918 C   0  0  0  0  0  0  0  0  0  0  0  0
    5.4458   17.8987    5.8961 N   0  0  0  0  0  0  0  0  0  0  0  0
    7.0066   19.1555    2.9376 N   0  0  0  0  0  0  0  0  0  0  0  0
    6.6889   18.1643    2.0783 C   0  0  0  0  0  0  0  0  0  0  0  0
    5.9789   17.0396    2.3248 N   0  0  0  0  0  0  0  0  0  0  0  0
  1  2  2  0  0  0  0
  1 10  1  0  0  0  0
  2  3  1  0  0  0  0
  2  7  1  0  0  0  0
  3  4  1  0  0  0  0
  3  8  2  0  0  0  0
  4  5  1  0  0  0  0
  4  6  1  0  0  0  0
  6  7  2  0  0  0  0
  8  9  1  0  0  0  0
  9 10  2  0  0  0  0
M  END
>  <CHROM.0>
-60.74777277,-176.45623936,-66.16938607,-49.58236943,-175.49692016,-63.48324171
-69.14080033,-59.55245040,-167.43788308

>  <CHROM.1>
6.18131156,18.30324192,4.12893066,1.43127230,-1.00399687,-2.03690573

>  <Name>
purine

>  <RI>
3.51561e+07

>  <Rbt.Current_Directory>
/home/fstefaniak/projects/zuza/docking/adenine/4XNR

>  <Rbt.Executable>
rbdock ($Id: //depot/dev/client3/rdock/2013.1/src/exe/rbdock.cxx#4 $)

>  <Rbt.Library>
libRbt.so (2013.1, Build901 2013/11/27)

>  <Rbt.Parameter_File>
/home/fstefaniak/progs/rDock//data/scripts/dock_solv.prm

>  <Rbt.Receptor>
4xnr.prm

>  <SCORE>
-58.6179

>  <SCORE.INTER>
-37.835

>  <SCORE.INTER.CONST>
1

>  <SCORE.INTER.POLAR>
-4.2131

>  <SCORE.INTER.ROT>
0

>  <SCORE.INTER.SOLV>
11.5283

>  <SCORE.INTER.VDW>
-18.6224

>  <SCORE.INTER.norm>
-4.20389

>  <SCORE.INTRA>
0

>  <SCORE.INTRA.DIHEDRAL>
0

>  <SCORE.INTRA.DIHEDRAL.0>
0

>  <SCORE.INTRA.POLAR>
0

>  <SCORE.INTRA.POLAR.0>
0

>  <SCORE.INTRA.REPUL>
0

>  <SCORE.INTRA.REPUL.0>
0

>  <SCORE.INTRA.SOLV>
0

>  <SCORE.INTRA.SOLV.lig_0>
-13.6323

>  <SCORE.INTRA.VDW>
0

>  <SCORE.INTRA.VDW.0>
0

>  <SCORE.INTRA.norm>
0

>  <SCORE.RESTR>
0

>  <SCORE.RESTR.CAVITY>
0

>  <SCORE.RESTR.norm>
0

>  <SCORE.SYSTEM>
-20.7829

>  <SCORE.SYSTEM.CONST>
0

>  <SCORE.SYSTEM.DIHEDRAL>
4.09542

>  <SCORE.SYSTEM.POLAR>
-2.92904

>  <SCORE.SYSTEM.SOLV>
0.071768

>  <SCORE.SYSTEM.VDW>
-5.48084

>  <SCORE.SYSTEM.norm>
-2.30921

>  <SCORE.heavy>
9

>  <SCORE.norm>
-6.51309

$$$$
xanthine
 OpenBabel12072022113D
libRbt.so/2013.1/901 2013/11/27
 14 15  0  0  0  0  0  0  0  0999 V2000
    6.4593   19.1051    6.6895 C   0  0  0  0  0  0  0  0  0  0  0  0
    6.9688   19.4294    5.4550 N   0  0  0  0  0  0  0  0  0  0  0  0
    7.7094   20.0902    5.2567 H   0  0  0  0  0  0  0  0  0  0  0  0
    6.2797   18.6847    4.5453 C   0  0  0  0  0  0  0  0  0  0  0  0
    5.3956   17.9551    5.2807 C   0  0  0  0  0  0  0  0  0  0  0  0
    5.4963   18.2055    6.6068 N   0  0  0  0  0  0  0  0  0  0  0  0
    4.5362   17.0896    4.6780 N   0  0  0  0  0  0  0  0  0  0  0  0
    3.8904   16.5602    5.2450 H   0  0  0  0  0  0  0  0  0  0  0  0
    4.5474   16.9381    3.3138 C   0  0  0  0  0  0  0  0  0  0  0  0
    3.7849   16.1655    2.7389 O   0  0  0  0  0  0  0  0  0  0  0  0
    5.4597   17.6970    2.6046 N   0  0  0  0  0  0  0  0  0  0  0  0
    5.4602   17.5787    1.6039 H   0  0  0  0  0  0  0  0  0  0  0  0
    6.3659   18.5967    3.1305 C   0  0  0  0  0  0  0  0  0  0  0  0
    7.1486   19.2381    2.4408 O   0  0  0  0  0  0  0  0  0  0  0  0
  1  2  1  0  0  0  0
  1  6  2  0  0  0  0
  2  3  1  0  0  0  0
  2  4  1  0  0  0  0
  4  5  2  0  0  0  0
  4 13  1  0  0  0  0
  5  6  1  0  0  0  0
  5  7  1  0  0  0  0
  7  8  1  0  0  0  0
  7  9  1  0  0  0  0
  9 10  2  0  0  0  0
  9 11  1  0  0  0  0
 11 12  1  0  0  0  0
 11 13  1  0  0  0  0
 13 14  2  0  0  0  0
M  END
>  <CHROM.0>
-62.17327349,-63.37082889,-67.86317078,-46.97526101,-61.52911558,-64.64721659
-69.51311249,-61.45026317,-167.68477150

>  <CHROM.1>
5.66775090,18.08595279,4.26353195,0.91259785,0.74242352,1.45273609

>  <Name>
xanthine

>  <RI>
3.51561e+07

>  <Rbt.Current_Directory>
/home/fstefaniak/projects/zuza/docking/adenine/4XNR

>  <Rbt.Executable>
rbdock ($Id: //depot/dev/client3/rdock/2013.1/src/exe/rbdock.cxx#4 $)

>  <Rbt.Library>
libRbt.so (2013.1, Build901 2013/11/27)

>  <Rbt.Parameter_File>
/home/fstefaniak/progs/rDock//data/scripts/dock_solv.prm

>  <Rbt.Receptor>
4xnr.prm

>  <SCORE>
-52.7178

>  <SCORE.INTER>
-31.7545

>  <SCORE.INTER.CONST>
1

>  <SCORE.INTER.POLAR>
-3.30426

>  <SCORE.INTER.ROT>
0

>  <SCORE.INTER.SOLV>
12.5582

>  <SCORE.INTER.VDW>
-17.9415

>  <SCORE.INTER.norm>
-2.88677

>  <SCORE.INTRA>
0

>  <SCORE.INTRA.DIHEDRAL>
0

>  <SCORE.INTRA.DIHEDRAL.0>
0

>  <SCORE.INTRA.POLAR>
0

>  <SCORE.INTRA.POLAR.0>
0

>  <SCORE.INTRA.REPUL>
0

>  <SCORE.INTRA.REPUL.0>
0

>  <SCORE.INTRA.SOLV>
0

>  <SCORE.INTRA.SOLV.lig_0>
-20.3028

>  <SCORE.INTRA.VDW>
0

>  <SCORE.INTRA.VDW.0>
0

>  <SCORE.INTRA.norm>
0

>  <SCORE.RESTR>
0

>  <SCORE.RESTR.CAVITY>
0

>  <SCORE.RESTR.norm>
0

>  <SCORE.SYSTEM>
-20.9633

>  <SCORE.SYSTEM.CONST>
0

>  <SCORE.SYSTEM.DIHEDRAL>
4.46547

>  <SCORE.SYSTEM.POLAR>
-2.96189

>  <SCORE.SYSTEM.SOLV>
0.25829

>  <SCORE.SYSTEM.VDW>
-5.67716

>  <SCORE.SYSTEM.norm>
-1.90576

>  <SCORE.heavy>
11

>  <SCORE.norm>
-4.79253

$$$$
xanthine
 OpenBabel12072022113D
libRbt.so/2013.1/901 2013/11/27
 14 15  0  0  0  0  0  0  0  0999 V2000
    6.5105   19.0616    6.6869 C   0  0  0  0  0  0  0  0  0  0  0  0
    7.0016   19.4039    5.4499 N   0  0  0  0  0  0  0  0  0  0  0  0
    7.7421   20.0645    5.2505 H   0  0  0  0  0  0  0  0  0  0  0  0
    6.2943   18.6776    4.5393 C   0  0  0  0  0  0  0  0  0  0  0  0
    5.4186   17.9400    5.2768 C   0  0  0  0  0  0  0  0  0  0  0  0
    5.5419   18.1680    6.6051 N   0  0  0  0  0  0  0  0  0  0  0  0
    4.5454   17.0885    4.6740 N   0  0  0  0  0  0  0  0  0  0  0  0
    3.9062   16.5529    5.2425 H   0  0  0  0  0  0  0  0  0  0  0  0
    4.5339   16.9595    3.3075 C   0  0  0  0  0  0  0  0  0  0  0  0
    3.7585   16.2000    2.7323 O   0  0  0  0  0  0  0  0  0  0  0  0
    5.4384   17.7258    2.5961 N   0  0  0  0  0  0  0  0  0  0  0  0
    5.4222   17.6241    1.5937 H   0  0  0  0  0  0  0  0  0  0  0  0
    6.3573   18.6125    3.1220 C   0  0  0  0  0  0  0  0  0  0  0  0
    7.1320   19.2616    2.4304 O   0  0  0  0  0  0  0  0  0  0  0  0
  1  2  1  0  0  0  0
  1  6  2  0  0  0  0
  2  3  1  0  0  0  0
  2  4  1  0  0  0  0
  4  5  2  0  0  0  0
  4 13  1  0  0  0  0
  5  6  1  0  0  0  0
  5  7  1  0  0  0  0
  7  8  1  0  0  0  0
  7  9  1  0  0  0  0
  9 10  2  0  0  0  0
  9 11  1  0  0  0  0
 11 12  1  0  0  0  0
 11 13  1  0  0  0  0
 13 14  2  0  0  0  0
M  END
>  <CHROM.0>
-57.55969600,-63.54635412,-69.34314329,-46.60745789,-59.15170055,-62.85905062
-67.81860281,-61.03186445,-168.34497813

>  <CHROM.1>
5.67501455,18.08635910,4.25765087,0.89017538,0.73933782,1.48435436

>  <Name>
xanthine

>  <RI>
3.51561e+07

>  <Rbt.Current_Directory>
/home/fstefaniak/projects/zuza/docking/adenine/4XNR

>  <Rbt.Executable>
rbdock ($Id: //depot/dev/client3/rdock/2013.1/src/exe/rbdock.cxx#4 $)

>  <Rbt.Library>
libRbt.so (2013.1, Build901 2013/11/27)

>  <Rbt.Parameter_File>
/home/fstefaniak/progs/rDock//data/scripts/dock_solv.prm

>  <Rbt.Receptor>
4xnr.prm

>  <SCORE>
-52.7086

>  <SCORE.INTER>
-31.7864

>  <SCORE.INTER.CONST>
1

>  <SCORE.INTER.POLAR>
-3.32997

>  <SCORE.INTER.ROT>
0

>  <SCORE.INTER.SOLV>
12.5388

>  <SCORE.INTER.VDW>
-17.8706

>  <SCORE.INTER.norm>
-2.88967

>  <SCORE.INTRA>
0

>  <SCORE.INTRA.DIHEDRAL>
0

>  <SCORE.INTRA.DIHEDRAL.0>
0

>  <SCORE.INTRA.POLAR>
0

>  <SCORE.INTRA.POLAR.0>
0

>  <SCORE.INTRA.REPUL>
0

>  <SCORE.INTRA.REPUL.0>
0

>  <SCORE.INTRA.SOLV>
0

>  <SCORE.INTRA.SOLV.lig_0>
-20.3028

>  <SCORE.INTRA.VDW>
0

>  <SCORE.INTRA.VDW.0>
0

>  <SCORE.INTRA.norm>
0

>  <SCORE.RESTR>
0

>  <SCORE.RESTR.CAVITY>
0

>  <SCORE.RESTR.norm>
0

>  <SCORE.SYSTEM>
-20.9222

>  <SCORE.SYSTEM.CONST>
0

>  <SCORE.SYSTEM.DIHEDRAL>
4.3628

>  <SCORE.SYSTEM.POLAR>
-2.98998

>  <SCORE.SYSTEM.SOLV>
0.276806

>  <SCORE.SYSTEM.VDW>
-5.52808

>  <SCORE.SYSTEM.norm>
-1.90202

>  <SCORE.heavy>
11

>  <SCORE.norm>
-4.79169

$$$$
xanthine
 OpenBabel12072022113D
libRbt.so/2013.1/901 2013/11/27
 14 15  0  0  0  0  0  0  0  0999 V2000
    6.4793   19.0919    6.6748 C   0  0  0  0  0  0  0  0  0  0  0  0
    6.9946   19.4042    5.4397 N   0  0  0  0  0  0  0  0  0  0  0  0
    7.7468   20.0512    5.2398 H   0  0  0  0  0  0  0  0  0  0  0  0
    6.2923   18.6698    4.5316 C   0  0  0  0  0  0  0  0  0  0  0  0
    5.3953   17.9578    5.2687 C   0  0  0  0  0  0  0  0  0  0  0  0
    5.5005   18.2095    6.5943 N   0  0  0  0  0  0  0  0  0  0  0  0
    4.5206   17.1064    4.6681 N   0  0  0  0  0  0  0  0  0  0  0  0
    3.8654   16.5899    5.2363 H   0  0  0  0  0  0  0  0  0  0  0  0
    4.5290   16.9514    3.3043 C   0  0  0  0  0  0  0  0  0  0  0  0
    3.7529   16.1912    2.7311 O   0  0  0  0  0  0  0  0  0  0  0  0
    5.4548   17.6922    2.5932 N   0  0  0  0  0  0  0  0  0  0  0  0
    5.4532   17.5717    1.5928 H   0  0  0  0  0  0  0  0  0  0  0  0
    6.3769   18.5768    3.1171 C   0  0  0  0  0  0  0  0  0  0  0  0
    7.1710   19.2025    2.4259 O   0  0  0  0  0  0  0  0  0  0  0  0
  1  2  1  0  0  0  0
  1  6  2  0  0  0  0
  2  3  1  0  0  0  0
  2  4  1  0  0  0  0
  4  5  2  0  0  0  0
  4 13  1  0  0  0  0
  5  6  1  0  0  0  0
  5  7  1  0  0  0  0
  7  8  1  0  0  0  0
  7  9  1  0  0  0  0
  9 10  2  0  0  0  0
  9 11  1  0  0  0  0
 11 12  1  0  0  0  0
 11 13  1  0  0  0  0
 13 14  2  0  0  0  0
M  END
>  <CHROM.0>
-58.90754752,-62.24966914,-66.59903491,-46.02895580,-61.41890273,-63.21763665
-69.00205181,-60.27025131,-167.96789415

>  <CHROM.1>
5.66974072,18.08134692,4.25127937,0.90979338,0.72468152,1.45225301

>  <Name>
xanthine

>  <RI>
3.51561e+07

>  <Rbt.Current_Directory>
/home/fstefaniak/projects/zuza/docking/adenine/4XNR

>  <Rbt.Executable>
rbdock ($Id: //depot/dev/client3/rdock/2013.1/src/exe/rbdock.cxx#4 $)

>  <Rbt.Library>
libRbt.so (2013.1, Build901 2013/11/27)

>  <Rbt.Parameter_File>
/home/fstefaniak/progs/rDock//data/scripts/dock_solv.prm

>  <Rbt.Receptor>
4xnr.prm

>  <SCORE>
-52.6879

>  <SCORE.INTER>
-31.7406

>  <SCORE.INTER.CONST>
1

>  <SCORE.INTER.POLAR>
-3.3139

>  <SCORE.INTER.ROT>
0

>  <SCORE.INTER.SOLV>
12.5145

>  <SCORE.INTER.VDW>
-17.8856

>  <SCORE.INTER.norm>
-2.88551

>  <SCORE.INTRA>
0

>  <SCORE.INTRA.DIHEDRAL>
0

>  <SCORE.INTRA.DIHEDRAL.0>
0

>  <SCORE.INTRA.POLAR>
0

>  <SCORE.INTRA.POLAR.0>
0

>  <SCORE.INTRA.REPUL>
0

>  <SCORE.INTRA.REPUL.0>
0

>  <SCORE.INTRA.SOLV>
0

>  <SCORE.INTRA.SOLV.lig_0>
-20.3028

>  <SCORE.INTRA.VDW>
0

>  <SCORE.INTRA.VDW.0>
0

>  <SCORE.INTRA.norm>
0

>  <SCORE.RESTR>
0

>  <SCORE.RESTR.CAVITY>
0

>  <SCORE.RESTR.norm>
0

>  <SCORE.SYSTEM>
-20.9473

>  <SCORE.SYSTEM.CONST>
0

>  <SCORE.SYSTEM.DIHEDRAL>
4.31818

>  <SCORE.SYSTEM.POLAR>
-2.99532

>  <SCORE.SYSTEM.SOLV>
0.275224

>  <SCORE.SYSTEM.VDW>
-5.51156

>  <SCORE.SYSTEM.norm>
-1.9043

>  <SCORE.heavy>
11

>  <SCORE.norm>
-4.78981

$$$$
