1-deazapurine
 OpenBabel12072022103D
libRbt.so/2013.1/901 2013/11/27
 10 11  0  0  0  0  0  0  0  0999 V2000
   19.5630  -17.0202    3.2534 C   0  0  0  0  0  0  0  0  0  0  0  0
   20.0260  -16.9502    4.5708 C   0  0  0  0  0  0  0  0  0  0  0  0
   19.6934  -18.0115    5.4186 C   0  0  0  0  0  0  0  0  0  0  0  0
   18.9333  -19.0453    4.8876 C   0  0  0  0  0  0  0  0  0  0  0  0
   18.7646  -19.9217    5.9185 N   0  0  0  0  0  0  0  0  0  0  0  0
   18.2532  -20.7887    5.8650 H   0  0  0  0  0  0  0  0  0  0  0  0
   19.4097  -19.4046    7.0087 C   0  0  0  0  0  0  0  0  0  0  0  0
   19.9823  -18.2493    6.7406 N   0  0  0  0  0  0  0  0  0  0  0  0
   18.4582  -19.1735    3.6359 N   0  0  0  0  0  0  0  0  0  0  0  0
   18.8070  -18.1210    2.8537 C   0  0  0  0  0  0  0  0  0  0  0  0
  1  2  2  0  0  0  0
  1 10  1  0  0  0  0
  2  3  1  0  0  0  0
  3  4  2  0  0  0  0
  3  8  1  0  0  0  0
  4  5  1  0  0  0  0
  4  9  1  0  0  0  0
  5  6  1  0  0  0  0
  5  7  1  0  0  0  0
  7  8  2  0  0  0  0
  9 10  2  0  0  0  0
M  END
>  <CHROM.0>
-50.53668938,-169.56784156,-55.27529469,-51.08851000,-174.69225933,-60.78536155
-61.18152010,-178.36049928,-166.36794864,160.64388515

>  <CHROM.1>
19.27832247,-18.46831221,4.93764036,-1.66304781,0.99132802,2.08379562

>  <Name>
1-deazapurine

>  <RI>
0

>  <Rbt.Current_Directory>
/home/fstefaniak/projects/zuza/docking/adenine/1Y26

>  <Rbt.Executable>
rbdock ($Id: //depot/dev/client3/rdock/2013.1/src/exe/rbdock.cxx#4 $)

>  <Rbt.Library>
libRbt.so (2013.1, Build901 2013/11/27)

>  <Rbt.Parameter_File>
/home/fstefaniak/progs/rDock//data/scripts/dock_solv.prm

>  <Rbt.Receptor>
1y26.prm

>  <SCORE>
-55.602

>  <SCORE.INTER>
-32.8769

>  <SCORE.INTER.CONST>
1

>  <SCORE.INTER.POLAR>
-3.15897

>  <SCORE.INTER.ROT>
0

>  <SCORE.INTER.SOLV>
10.476

>  <SCORE.INTER.VDW>
-18.48

>  <SCORE.INTER.norm>
-3.65299

>  <SCORE.INTRA>
0

>  <SCORE.INTRA.DIHEDRAL>
0

>  <SCORE.INTRA.DIHEDRAL.0>
0

>  <SCORE.INTRA.POLAR>
0

>  <SCORE.INTRA.POLAR.0>
0

>  <SCORE.INTRA.REPUL>
0

>  <SCORE.INTRA.REPUL.0>
0

>  <SCORE.INTRA.SOLV>
0

>  <SCORE.INTRA.SOLV.lig_0>
-10.015

>  <SCORE.INTRA.VDW>
0

>  <SCORE.INTRA.VDW.0>
0

>  <SCORE.INTRA.norm>
0

>  <SCORE.RESTR>
0

>  <SCORE.RESTR.CAVITY>
0

>  <SCORE.RESTR.norm>
0

>  <SCORE.SYSTEM>
-22.7251

>  <SCORE.SYSTEM.CONST>
0

>  <SCORE.SYSTEM.DIHEDRAL>
6.01651

>  <SCORE.SYSTEM.POLAR>
-3.47558

>  <SCORE.SYSTEM.SOLV>
0.219782

>  <SCORE.SYSTEM.VDW>
-5.64352

>  <SCORE.SYSTEM.norm>
-2.52501

>  <SCORE.heavy>
9

>  <SCORE.norm>
-6.178

$$$$
1-deazapurine
 OpenBabel12072022103D
libRbt.so/2013.1/901 2013/11/27
 10 11  0  0  0  0  0  0  0  0999 V2000
   19.6056  -16.9754    3.2439 C   0  0  0  0  0  0  0  0  0  0  0  0
   20.0459  -16.8897    4.5681 C   0  0  0  0  0  0  0  0  0  0  0  0
   19.7085  -17.9464    5.4197 C   0  0  0  0  0  0  0  0  0  0  0  0
   18.9666  -18.9917    4.8853 C   0  0  0  0  0  0  0  0  0  0  0  0
   18.7885  -19.8605    5.9210 N   0  0  0  0  0  0  0  0  0  0  0  0
   18.2858  -20.7326    5.8667 H   0  0  0  0  0  0  0  0  0  0  0  0
   19.4106  -19.3280    7.0172 C   0  0  0  0  0  0  0  0  0  0  0  0
   19.9774  -18.1700    6.7483 N   0  0  0  0  0  0  0  0  0  0  0  0
   18.5137  -19.1351    3.6271 N   0  0  0  0  0  0  0  0  0  0  0  0
   18.8662  -18.0864    2.8414 C   0  0  0  0  0  0  0  0  0  0  0  0
  1  2  2  0  0  0  0
  1 10  1  0  0  0  0
  2  3  1  0  0  0  0
  3  4  2  0  0  0  0
  3  8  1  0  0  0  0
  4  5  1  0  0  0  0
  4  9  1  0  0  0  0
  5  6  1  0  0  0  0
  5  7  1  0  0  0  0
  7  8  2  0  0  0  0
  9 10  2  0  0  0  0
M  END
>  <CHROM.0>
-50.64504462,-168.82747068,-58.05988816,-52.02060445,-56.30988149,-62.99483881
-61.94881296,-174.74368106,-167.11471510,160.37172417

>  <CHROM.1>
19.30564408,-18.41117633,4.93594025,-1.64391438,1.00720594,2.05887080

>  <Name>
1-deazapurine

>  <RI>
0

>  <Rbt.Current_Directory>
/home/fstefaniak/projects/zuza/docking/adenine/1Y26

>  <Rbt.Executable>
rbdock ($Id: //depot/dev/client3/rdock/2013.1/src/exe/rbdock.cxx#4 $)

>  <Rbt.Library>
libRbt.so (2013.1, Build901 2013/11/27)

>  <Rbt.Parameter_File>
/home/fstefaniak/progs/rDock//data/scripts/dock_solv.prm

>  <Rbt.Receptor>
1y26.prm

>  <SCORE>
-55.5475

>  <SCORE.INTER>
-32.807

>  <SCORE.INTER.CONST>
1

>  <SCORE.INTER.POLAR>
-3.17355

>  <SCORE.INTER.ROT>
0

>  <SCORE.INTER.SOLV>
10.3264

>  <SCORE.INTER.VDW>
-18.3349

>  <SCORE.INTER.norm>
-3.64522

>  <SCORE.INTRA>
0

>  <SCORE.INTRA.DIHEDRAL>
0

>  <SCORE.INTRA.DIHEDRAL.0>
0

>  <SCORE.INTRA.POLAR>
0

>  <SCORE.INTRA.POLAR.0>
0

>  <SCORE.INTRA.REPUL>
0

>  <SCORE.INTRA.REPUL.0>
0

>  <SCORE.INTRA.SOLV>
0

>  <SCORE.INTRA.SOLV.lig_0>
-10.015

>  <SCORE.INTRA.VDW>
0

>  <SCORE.INTRA.VDW.0>
0

>  <SCORE.INTRA.norm>
0

>  <SCORE.RESTR>
0

>  <SCORE.RESTR.CAVITY>
0

>  <SCORE.RESTR.norm>
0

>  <SCORE.SYSTEM>
-22.7405

>  <SCORE.SYSTEM.CONST>
0

>  <SCORE.SYSTEM.DIHEDRAL>
5.97809

>  <SCORE.SYSTEM.POLAR>
-3.43605

>  <SCORE.SYSTEM.SOLV>
0.37126

>  <SCORE.SYSTEM.VDW>
-5.82329

>  <SCORE.SYSTEM.norm>
-2.52672

>  <SCORE.heavy>
9

>  <SCORE.norm>
-6.17194

$$$$
1-deazapurine
 OpenBabel12072022103D
libRbt.so/2013.1/901 2013/11/27
 10 11  0  0  0  0  0  0  0  0999 V2000
   20.0290  -17.2789    3.0711 C   0  0  0  0  0  0  0  0  0  0  0  0
   20.4632  -17.1701    4.3957 C   0  0  0  0  0  0  0  0  0  0  0  0
   19.9034  -18.0549    5.3227 C   0  0  0  0  0  0  0  0  0  0  0  0
   18.9653  -18.9667    4.8566 C   0  0  0  0  0  0  0  0  0  0  0  0
   18.5985  -19.6852    5.9559 N   0  0  0  0  0  0  0  0  0  0  0  0
   17.9253  -20.4355    5.9604 H   0  0  0  0  0  0  0  0  0  0  0  0
   19.3063  -19.1989    7.0211 C   0  0  0  0  0  0  0  0  0  0  0  0
   20.1053  -18.2116    6.6726 N   0  0  0  0  0  0  0  0  0  0  0  0
   18.5060  -19.1233    3.6023 N   0  0  0  0  0  0  0  0  0  0  0  0
   19.0782  -18.2436    2.7420 C   0  0  0  0  0  0  0  0  0  0  0  0
  1  2  2  0  0  0  0
  1 10  1  0  0  0  0
  2  3  1  0  0  0  0
  3  4  2  0  0  0  0
  3  8  1  0  0  0  0
  4  5  1  0  0  0  0
  4  9  1  0  0  0  0
  5  6  1  0  0  0  0
  5  7  1  0  0  0  0
  7  8  2  0  0  0  0
  9 10  2  0  0  0  0
M  END
>  <CHROM.0>
-52.52420438,-167.78026038,-58.30282091,-52.71328332,-55.27463122,-62.24269668
-62.01125609,-177.74459711,-167.59256208,160.65736318

>  <CHROM.1>
19.41753001,-18.46685923,4.86818977,-1.48584282,0.81943206,1.84615494

>  <Name>
1-deazapurine

>  <RI>
0

>  <Rbt.Current_Directory>
/home/fstefaniak/projects/zuza/docking/adenine/1Y26

>  <Rbt.Executable>
rbdock ($Id: //depot/dev/client3/rdock/2013.1/src/exe/rbdock.cxx#4 $)

>  <Rbt.Library>
libRbt.so (2013.1, Build901 2013/11/27)

>  <Rbt.Parameter_File>
/home/fstefaniak/progs/rDock//data/scripts/dock_solv.prm

>  <Rbt.Receptor>
1y26.prm

>  <SCORE>
-55.3575

>  <SCORE.INTER>
-32.6626

>  <SCORE.INTER.CONST>
1

>  <SCORE.INTER.POLAR>
-3.25154

>  <SCORE.INTER.ROT>
0

>  <SCORE.INTER.SOLV>
9.76872

>  <SCORE.INTER.VDW>
-17.7928

>  <SCORE.INTER.norm>
-3.62918

>  <SCORE.INTRA>
0

>  <SCORE.INTRA.DIHEDRAL>
0

>  <SCORE.INTRA.DIHEDRAL.0>
0

>  <SCORE.INTRA.POLAR>
0

>  <SCORE.INTRA.POLAR.0>
0

>  <SCORE.INTRA.REPUL>
0

>  <SCORE.INTRA.REPUL.0>
0

>  <SCORE.INTRA.SOLV>
0

>  <SCORE.INTRA.SOLV.lig_0>
-10.015

>  <SCORE.INTRA.VDW>
0

>  <SCORE.INTRA.VDW.0>
0

>  <SCORE.INTRA.norm>
0

>  <SCORE.RESTR>
0

>  <SCORE.RESTR.CAVITY>
0

>  <SCORE.RESTR.norm>
0

>  <SCORE.SYSTEM>
-22.6949

>  <SCORE.SYSTEM.CONST>
0

>  <SCORE.SYSTEM.DIHEDRAL>
5.71368

>  <SCORE.SYSTEM.POLAR>
-3.38605

>  <SCORE.SYSTEM.SOLV>
0.370879

>  <SCORE.SYSTEM.VDW>
-5.87129

>  <SCORE.SYSTEM.norm>
-2.52166

>  <SCORE.heavy>
9

>  <SCORE.norm>
-6.15083

$$$$
1-methyladenine
 OpenBabel12072022103D
libRbt.so/2013.1/901 2013/11/27
 13 14  0  0  0  0  0  0  0  0999 V2000
   19.7402  -18.4178    7.1576 C   0  0  0  0  0  0  0  0  0  0  0  0
   19.5809  -18.1892    5.7255 N   0  0  0  0  0  0  0  0  0  0  0  0
   20.6678  -17.7563    4.9761 C   0  0  0  0  0  0  0  0  0  0  0  0
   20.7397  -17.6246    3.6894 N   0  0  0  0  0  0  0  0  0  0  0  0
   19.6059  -17.9778    3.0281 C   0  0  0  0  0  0  0  0  0  0  0  0
   19.3900  -17.9399    1.7504 N   0  0  0  0  0  0  0  0  0  0  0  0
   18.0855  -18.4086    1.6535 C   0  0  0  0  0  0  0  0  0  0  0  0
   17.4675  -18.7307    2.7594 N   0  0  0  0  0  0  0  0  0  0  0  0
   18.4171  -18.4747    3.7121 C   0  0  0  0  0  0  0  0  0  0  0  0
   18.4129  -18.5788    5.0528 C   0  0  0  0  0  0  0  0  0  0  0  0
   17.2859  -19.0463    5.7166 N   0  0  0  0  0  0  0  0  0  0  0  0
   16.9673  -18.3445    6.3901 H   0  0  0  0  0  0  0  0  0  0  0  0
   17.4794  -19.9218    6.1925 H   0  0  0  0  0  0  0  0  0  0  0  0
  1  2  1  0  0  0  0
  2  3  1  0  0  0  0
  2 10  1  0  0  0  0
  3  4  2  0  0  0  0
  4  5  1  0  0  0  0
  5  6  2  0  0  0  0
  5  9  1  0  0  0  0
  6  7  1  0  0  0  0
  7  8  2  0  0  0  0
  8  9  1  0  0  0  0
  9 10  2  0  0  0  0
 10 11  1  0  0  0  0
 11 12  1  0  0  0  0
 11 13  1  0  0  0  0
M  END
>  <CHROM.0>
-48.44429278,-56.60813502,-55.93412809,-53.84501565,-56.80824034,-58.99875728
-60.12684014,-176.49676021,-167.59356933,160.23078548

>  <CHROM.1>
57.30471202,19.02059093,-18.29861301,4.17928787,-1.40451519,-0.34381944,-1.47315865

>  <Name>
1-methyladenine

>  <RI>
0

>  <Rbt.Current_Directory>
/home/fstefaniak/projects/zuza/docking/adenine/1Y26

>  <Rbt.Executable>
rbdock ($Id: //depot/dev/client3/rdock/2013.1/src/exe/rbdock.cxx#4 $)

>  <Rbt.Library>
libRbt.so (2013.1, Build901 2013/11/27)

>  <Rbt.Parameter_File>
/home/fstefaniak/progs/rDock//data/scripts/dock_solv.prm

>  <Rbt.Receptor>
1y26.prm

>  <SCORE>
-58.9361

>  <SCORE.INTER>
-36.0747

>  <SCORE.INTER.CONST>
1

>  <SCORE.INTER.POLAR>
-4.72932

>  <SCORE.INTER.ROT>
1

>  <SCORE.INTER.SOLV>
10.4794

>  <SCORE.INTER.VDW>
-16.0452

>  <SCORE.INTER.norm>
-3.27952

>  <SCORE.INTRA>
-0.231417

>  <SCORE.INTRA.DIHEDRAL>
0.00133255

>  <SCORE.INTRA.DIHEDRAL.0>
0.477737

>  <SCORE.INTRA.POLAR>
0.0117728

>  <SCORE.INTRA.POLAR.0>
-0.0117728

>  <SCORE.INTRA.REPUL>
0

>  <SCORE.INTRA.REPUL.0>
0

>  <SCORE.INTRA.SOLV>
-0.000715753

>  <SCORE.INTRA.SOLV.lig_0>
-9.36054

>  <SCORE.INTRA.VDW>
-0.271753

>  <SCORE.INTRA.VDW.0>
-0.0766114

>  <SCORE.INTRA.norm>
-0.0210379

>  <SCORE.RESTR>
0

>  <SCORE.RESTR.CAVITY>
0

>  <SCORE.RESTR.norm>
0

>  <SCORE.SYSTEM>
-22.6299

>  <SCORE.SYSTEM.CONST>
0

>  <SCORE.SYSTEM.DIHEDRAL>
5.4406

>  <SCORE.SYSTEM.POLAR>
-3.441

>  <SCORE.SYSTEM.SOLV>
0.454764

>  <SCORE.SYSTEM.VDW>
-5.58172

>  <SCORE.SYSTEM.norm>
-2.05726

>  <SCORE.heavy>
11

>  <SCORE.norm>
-5.35782

$$$$
1-methyladenine
 OpenBabel12072022103D
libRbt.so/2013.1/901 2013/11/27
 13 14  0  0  0  0  0  0  0  0999 V2000
   19.7403  -18.4102    7.1601 C   0  0  0  0  0  0  0  0  0  0  0  0
   19.5821  -18.1834    5.7276 N   0  0  0  0  0  0  0  0  0  0  0  0
   20.6703  -17.7546    4.9779 C   0  0  0  0  0  0  0  0  0  0  0  0
   20.7429  -17.6251    3.6910 N   0  0  0  0  0  0  0  0  0  0  0  0
   19.6084  -17.9764    3.0299 C   0  0  0  0  0  0  0  0  0  0  0  0
   19.3930  -17.9400    1.7521 N   0  0  0  0  0  0  0  0  0  0  0  0
   18.0874  -18.4055    1.6554 C   0  0  0  0  0  0  0  0  0  0  0  0
   17.4682  -18.7243    2.7617 N   0  0  0  0  0  0  0  0  0  0  0  0
   18.4181  -18.4692    3.7142 C   0  0  0  0  0  0  0  0  0  0  0  0
   18.4133  -18.5711    5.0552 C   0  0  0  0  0  0  0  0  0  0  0  0
   17.2849  -19.0347    5.7193 N   0  0  0  0  0  0  0  0  0  0  0  0
   16.9829  -18.3419    6.4096 H   0  0  0  0  0  0  0  0  0  0  0  0
   17.4688  -19.9225    6.1757 H   0  0  0  0  0  0  0  0  0  0  0  0
  1  2  1  0  0  0  0
  2  3  1  0  0  0  0
  2 10  1  0  0  0  0
  3  4  2  0  0  0  0
  4  5  1  0  0  0  0
  5  6  2  0  0  0  0
  5  9  1  0  0  0  0
  6  7  1  0  0  0  0
  7  8  2  0  0  0  0
  8  9  1  0  0  0  0
  9 10  2  0  0  0  0
 10 11  1  0  0  0  0
 11 12  1  0  0  0  0
 11 13  1  0  0  0  0
M  END
>  <CHROM.0>
-45.50401082,-61.98390536,-55.16451227,-52.77388679,-56.20874566,-60.91459585
-54.49052058,-176.81303569,-168.29512552,159.57946078

>  <CHROM.1>
55.76133350,19.02199646,-18.29406001,4.18136035,-1.40507813,-0.34161099,-1.47486895

>  <Name>
1-methyladenine

>  <RI>
0

>  <Rbt.Current_Directory>
/home/fstefaniak/projects/zuza/docking/adenine/1Y26

>  <Rbt.Executable>
rbdock ($Id: //depot/dev/client3/rdock/2013.1/src/exe/rbdock.cxx#4 $)

>  <Rbt.Library>
libRbt.so (2013.1, Build901 2013/11/27)

>  <Rbt.Parameter_File>
/home/fstefaniak/progs/rDock//data/scripts/dock_solv.prm

>  <Rbt.Receptor>
1y26.prm

>  <SCORE>
-58.8966

>  <SCORE.INTER>
-36.1068

>  <SCORE.INTER.CONST>
1

>  <SCORE.INTER.POLAR>
-4.75902

>  <SCORE.INTER.ROT>
1

>  <SCORE.INTER.SOLV>
10.4809

>  <SCORE.INTER.VDW>
-15.9681

>  <SCORE.INTER.norm>
-3.28244

>  <SCORE.INTRA>
-0.229512

>  <SCORE.INTRA.DIHEDRAL>
0.000917266

>  <SCORE.INTRA.DIHEDRAL.0>
0.477737

>  <SCORE.INTRA.POLAR>
0.0117728

>  <SCORE.INTRA.POLAR.0>
-0.0117728

>  <SCORE.INTRA.REPUL>
0

>  <SCORE.INTRA.REPUL.0>
0

>  <SCORE.INTRA.SOLV>
-0.000700841

>  <SCORE.INTRA.SOLV.lig_0>
-9.36054

>  <SCORE.INTRA.VDW>
-0.269648

>  <SCORE.INTRA.VDW.0>
-0.0766114

>  <SCORE.INTRA.norm>
-0.0208647

>  <SCORE.RESTR>
0

>  <SCORE.RESTR.CAVITY>
0

>  <SCORE.RESTR.norm>
0

>  <SCORE.SYSTEM>
-22.5603

>  <SCORE.SYSTEM.CONST>
0

>  <SCORE.SYSTEM.DIHEDRAL>
6.02331

>  <SCORE.SYSTEM.POLAR>
-3.51924

>  <SCORE.SYSTEM.SOLV>
0.466545

>  <SCORE.SYSTEM.VDW>
-5.47266

>  <SCORE.SYSTEM.norm>
-2.05093

>  <SCORE.heavy>
11

>  <SCORE.norm>
-5.35424

$$$$
1-methyladenine
 OpenBabel12072022103D
libRbt.so/2013.1/901 2013/11/27
 13 14  0  0  0  0  0  0  0  0999 V2000
   19.7241  -18.3993    7.1539 C   0  0  0  0  0  0  0  0  0  0  0  0
   19.5899  -18.1700    5.7194 N   0  0  0  0  0  0  0  0  0  0  0  0
   20.6853  -17.7209    4.9923 C   0  0  0  0  0  0  0  0  0  0  0  0
   20.7806  -17.5856    3.7075 N   0  0  0  0  0  0  0  0  0  0  0  0
   19.6649  -17.9529    3.0234 C   0  0  0  0  0  0  0  0  0  0  0  0
   19.4737  -17.9154    1.7418 N   0  0  0  0  0  0  0  0  0  0  0  0
   18.1780  -18.4017    1.6183 C   0  0  0  0  0  0  0  0  0  0  0  0
   17.5428  -18.7344    2.7113 N   0  0  0  0  0  0  0  0  0  0  0  0
   18.4699  -18.4674    3.6829 C   0  0  0  0  0  0  0  0  0  0  0  0
   18.4408  -18.5742    5.0232 C   0  0  0  0  0  0  0  0  0  0  0  0
   17.3075  -19.0584    5.6638 N   0  0  0  0  0  0  0  0  0  0  0  0
   16.9468  -18.3493    6.3079 H   0  0  0  0  0  0  0  0  0  0  0  0
   17.5114  -19.9149    6.1689 H   0  0  0  0  0  0  0  0  0  0  0  0
  1  2  1  0  0  0  0
  2  3  1  0  0  0  0
  2 10  1  0  0  0  0
  3  4  2  0  0  0  0
  4  5  1  0  0  0  0
  5  6  2  0  0  0  0
  5  9  1  0  0  0  0
  6  7  1  0  0  0  0
  7  8  2  0  0  0  0
  8  9  1  0  0  0  0
  9 10  2  0  0  0  0
 10 11  1  0  0  0  0
 11 12  1  0  0  0  0
 11 13  1  0  0  0  0
M  END
>  <CHROM.0>
-47.06512385,-63.58315365,-53.91949192,-52.06287908,-56.46115969,-57.41607514
-59.90779832,-52.82443976,-166.92231315,161.36001780

>  <CHROM.1>
59.30077480,19.06153555,-18.28381009,4.16228373,-1.42403419,-0.35889596,-1.47809555

>  <Name>
1-methyladenine

>  <RI>
0

>  <Rbt.Current_Directory>
/home/fstefaniak/projects/zuza/docking/adenine/1Y26

>  <Rbt.Executable>
rbdock ($Id: //depot/dev/client3/rdock/2013.1/src/exe/rbdock.cxx#4 $)

>  <Rbt.Library>
libRbt.so (2013.1, Build901 2013/11/27)

>  <Rbt.Parameter_File>
/home/fstefaniak/progs/rDock//data/scripts/dock_solv.prm

>  <Rbt.Receptor>
1y26.prm

>  <SCORE>
-58.5901

>  <SCORE.INTER>
-36.1223

>  <SCORE.INTER.CONST>
1

>  <SCORE.INTER.POLAR>
-4.6286

>  <SCORE.INTER.ROT>
1

>  <SCORE.INTER.SOLV>
10.4642

>  <SCORE.INTER.VDW>
-16.4076

>  <SCORE.INTER.norm>
-3.28385

>  <SCORE.INTRA>
-0.23031

>  <SCORE.INTRA.DIHEDRAL>
0.00187825

>  <SCORE.INTRA.DIHEDRAL.0>
0.477737

>  <SCORE.INTRA.POLAR>
0.0117728

>  <SCORE.INTRA.POLAR.0>
-0.0117728

>  <SCORE.INTRA.REPUL>
0

>  <SCORE.INTRA.REPUL.0>
0

>  <SCORE.INTRA.SOLV>
-0.000729533

>  <SCORE.INTRA.SOLV.lig_0>
-9.36054

>  <SCORE.INTRA.VDW>
-0.270912

>  <SCORE.INTRA.VDW.0>
-0.0766114

>  <SCORE.INTRA.norm>
-0.0209373

>  <SCORE.RESTR>
0

>  <SCORE.RESTR.CAVITY>
0

>  <SCORE.RESTR.norm>
0

>  <SCORE.SYSTEM>
-22.2374

>  <SCORE.SYSTEM.CONST>
0

>  <SCORE.SYSTEM.DIHEDRAL>
5.93125

>  <SCORE.SYSTEM.POLAR>
-3.52223

>  <SCORE.SYSTEM.SOLV>
0.670788

>  <SCORE.SYSTEM.VDW>
-5.28489

>  <SCORE.SYSTEM.norm>
-2.02159

>  <SCORE.heavy>
11

>  <SCORE.norm>
-5.32637

$$$$
2,4,6-triaminopyrimidine
 OpenBabel12072022103D
libRbt.so/2013.1/901 2013/11/27
 16 16  0  0  0  0  0  0  0  0999 V2000
   19.3619  -18.0324    5.1842 C   0  0  0  0  0  0  0  0  0  0  0  0
   20.2489  -17.6349    4.1924 C   0  0  0  0  0  0  0  0  0  0  0  0
   19.9357  -17.8914    2.9225 N   0  3  0  0  0  0  0  0  0  0  0  0
   20.5555  -17.6309    2.1709 H   0  0  0  0  0  0  0  0  0  0  0  0
   18.7808  -18.4698    2.6069 C   0  0  0  0  0  0  0  0  0  0  0  0
   17.8622  -18.8298    3.5110 N   0  0  0  0  0  0  0  0  0  0  0  0
   18.1669  -18.6094    4.7958 C   0  0  0  0  0  0  0  0  0  0  0  0
   17.2682  -19.0701    5.7429 N   0  0  0  0  0  0  0  0  0  0  0  0
   18.5002  -18.6903    1.2714 N   0  0  0  0  0  0  0  0  0  0  0  0
   21.4844  -17.0908    4.4981 N   0  0  0  0  0  0  0  0  0  0  0  0
   17.1235  -18.3749    6.4728 H   0  0  0  0  0  0  0  0  0  0  0  0
   17.4843  -19.9808    6.1361 H   0  0  0  0  0  0  0  0  0  0  0  0
   19.0756  -19.3863    0.8105 H   0  0  0  0  0  0  0  0  0  0  0  0
   17.5098  -18.9280    1.1909 H   0  0  0  0  0  0  0  0  0  0  0  0
   22.2871  -17.6924    4.3131 H   0  0  0  0  0  0  0  0  0  0  0  0
   21.6144  -16.5364    5.3368 H   0  0  0  0  0  0  0  0  0  0  0  0
  1  2  2  0  0  0  0
  1  7  1  0  0  0  0
  2  3  1  0  0  0  0
  2 10  1  0  0  0  0
  3  4  1  0  0  0  0
  3  5  2  0  0  0  0
  5  6  1  0  0  0  0
  5  9  1  0  0  0  0
  6  7  2  0  0  0  0
  7  8  1  0  0  0  0
  8 11  1  0  0  0  0
  8 12  1  0  0  0  0
  9 13  1  0  0  0  0
  9 14  1  0  0  0  0
 10 15  1  0  0  0  0
 10 16  1  0  0  0  0
M  CHG  1   3   1
M  END
>  <CHROM.0>
-43.89344717,-66.37946563,-54.39988396,-52.89758043,-175.24730488,179.74109213
-62.83192038,-52.08331095,-166.94386166,160.11559039

>  <CHROM.1>
108.00213419,68.36624385,47.52204045,19.08287779,-18.26614986,3.84303764
-0.14416270,0.44616892,1.50958403

>  <Name>
2,4,6-triaminopyrimidine

>  <RI>
0

>  <Rbt.Current_Directory>
/home/fstefaniak/projects/zuza/docking/adenine/1Y26

>  <Rbt.Executable>
rbdock ($Id: //depot/dev/client3/rdock/2013.1/src/exe/rbdock.cxx#4 $)

>  <Rbt.Library>
libRbt.so (2013.1, Build901 2013/11/27)

>  <Rbt.Parameter_File>
/home/fstefaniak/progs/rDock//data/scripts/dock_solv.prm

>  <Rbt.Receptor>
1y26.prm

>  <SCORE>
-63.478

>  <SCORE.INTER>
-41.353

>  <SCORE.INTER.CONST>
1

>  <SCORE.INTER.POLAR>
-6.91159

>  <SCORE.INTER.ROT>
3

>  <SCORE.INTER.SOLV>
18.2283

>  <SCORE.INTER.VDW>
-16.2061

>  <SCORE.INTER.norm>
-4.59477

>  <SCORE.INTRA>
-0.247164

>  <SCORE.INTRA.DIHEDRAL>
0.0181319

>  <SCORE.INTRA.DIHEDRAL.0>
1.50958

>  <SCORE.INTRA.POLAR>
0

>  <SCORE.INTRA.POLAR.0>
0

>  <SCORE.INTRA.REPUL>
0

>  <SCORE.INTRA.REPUL.0>
0

>  <SCORE.INTRA.SOLV>
-0.563043

>  <SCORE.INTRA.SOLV.lig_0>
-35.25

>  <SCORE.INTRA.VDW>
0.025292

>  <SCORE.INTRA.VDW.0>
-0.396343

>  <SCORE.INTRA.norm>
-0.0274626

>  <SCORE.RESTR>
0

>  <SCORE.RESTR.CAVITY>
0

>  <SCORE.RESTR.norm>
0

>  <SCORE.SYSTEM>
-21.8778

>  <SCORE.SYSTEM.CONST>
0

>  <SCORE.SYSTEM.DIHEDRAL>
6.67003

>  <SCORE.SYSTEM.POLAR>
-3.57804

>  <SCORE.SYSTEM.SOLV>
0.351409

>  <SCORE.SYSTEM.VDW>
-4.99889

>  <SCORE.SYSTEM.norm>
-2.43087

>  <SCORE.heavy>
9

>  <SCORE.norm>
-7.05311

$$$$
2,4,6-triaminopyrimidine
 OpenBabel12072022103D
libRbt.so/2013.1/901 2013/11/27
 16 16  0  0  0  0  0  0  0  0999 V2000
   19.3327  -18.0164    5.1677 C   0  0  0  0  0  0  0  0  0  0  0  0
   20.2119  -17.6401    4.1607 C   0  0  0  0  0  0  0  0  0  0  0  0
   19.9023  -17.9485    2.9016 N   0  3  0  0  0  0  0  0  0  0  0  0
   20.5170  -17.7049    2.1400 H   0  0  0  0  0  0  0  0  0  0  0  0
   18.7576  -18.5581    2.6089 C   0  0  0  0  0  0  0  0  0  0  0  0
   17.8460  -18.9007    3.5268 N   0  0  0  0  0  0  0  0  0  0  0  0
   18.1478  -18.6280    4.8023 C   0  0  0  0  0  0  0  0  0  0  0  0
   17.2580  -19.0694    5.7669 N   0  0  0  0  0  0  0  0  0  0  0  0
   18.4799  -18.8324    1.2828 N   0  0  0  0  0  0  0  0  0  0  0  0
   21.4380  -17.0637    4.4446 N   0  0  0  0  0  0  0  0  0  0  0  0
   17.1434  -18.3717    6.4998 H   0  0  0  0  0  0  0  0  0  0  0  0
   17.4614  -19.9850    6.1554 H   0  0  0  0  0  0  0  0  0  0  0  0
   18.3133  -18.0251    0.6925 H   0  0  0  0  0  0  0  0  0  0  0  0
   19.2422  -19.4020    0.9108 H   0  0  0  0  0  0  0  0  0  0  0  0
   21.5383  -16.6868    5.3871 H   0  0  0  0  0  0  0  0  0  0  0  0
   21.9139  -16.4908    3.7570 H   0  0  0  0  0  0  0  0  0  0  0  0
  1  2  2  0  0  0  0
  1  7  1  0  0  0  0
  2  3  1  0  0  0  0
  2 10  1  0  0  0  0
  3  4  1  0  0  0  0
  3  5  2  0  0  0  0
  5  6  1  0  0  0  0
  5  9  1  0  0  0  0
  6  7  2  0  0  0  0
  7  8  1  0  0  0  0
  8 11  1  0  0  0  0
  8 12  1  0  0  0  0
  9 13  1  0  0  0  0
  9 14  1  0  0  0  0
 10 15  1  0  0  0  0
 10 16  1  0  0  0  0
M  CHG  1   3   1
M  END
>  <CHROM.0>
-49.42231358,-59.01175477,-63.84523828,-50.67751292,-174.70142463,-58.15714321
-171.47095666,-51.25801041,-166.20113070,161.62523543

>  <CHROM.1>
-17.28513572,-67.66050078,44.21404887,19.06210783,-18.28720637,3.82944992
-2.71938853,-0.47610741,-1.65995913

>  <Name>
2,4,6-triaminopyrimidine

>  <RI>
0

>  <Rbt.Current_Directory>
/home/fstefaniak/projects/zuza/docking/adenine/1Y26

>  <Rbt.Executable>
rbdock ($Id: //depot/dev/client3/rdock/2013.1/src/exe/rbdock.cxx#4 $)

>  <Rbt.Library>
libRbt.so (2013.1, Build901 2013/11/27)

>  <Rbt.Parameter_File>
/home/fstefaniak/progs/rDock//data/scripts/dock_solv.prm

>  <Rbt.Receptor>
1y26.prm

>  <SCORE>
-63.4101

>  <SCORE.INTER>
-42.6217

>  <SCORE.INTER.CONST>
1

>  <SCORE.INTER.POLAR>
-7.25171

>  <SCORE.INTER.ROT>
3

>  <SCORE.INTER.SOLV>
17.8367

>  <SCORE.INTER.VDW>
-15.7876

>  <SCORE.INTER.norm>
-4.73574

>  <SCORE.INTRA>
0.422539

>  <SCORE.INTRA.DIHEDRAL>
0.0415362

>  <SCORE.INTRA.DIHEDRAL.0>
1.50958

>  <SCORE.INTRA.POLAR>
0

>  <SCORE.INTRA.POLAR.0>
0

>  <SCORE.INTRA.REPUL>
0

>  <SCORE.INTRA.REPUL.0>
0

>  <SCORE.INTRA.SOLV>
0.580467

>  <SCORE.INTRA.SOLV.lig_0>
-35.25

>  <SCORE.INTRA.VDW>
0.111538

>  <SCORE.INTRA.VDW.0>
-0.396343

>  <SCORE.INTRA.norm>
0.0469488

>  <SCORE.RESTR>
0

>  <SCORE.RESTR.CAVITY>
0

>  <SCORE.RESTR.norm>
0

>  <SCORE.SYSTEM>
-21.211

>  <SCORE.SYSTEM.CONST>
0

>  <SCORE.SYSTEM.DIHEDRAL>
6.17877

>  <SCORE.SYSTEM.POLAR>
-3.46628

>  <SCORE.SYSTEM.SOLV>
0.452294

>  <SCORE.SYSTEM.VDW>
-4.79675

>  <SCORE.SYSTEM.norm>
-2.35678

>  <SCORE.heavy>
9

>  <SCORE.norm>
-7.04557

$$$$
2,4,6-triaminopyrimidine
 OpenBabel12072022103D
libRbt.so/2013.1/901 2013/11/27
 16 16  0  0  0  0  0  0  0  0999 V2000
   18.7795  -18.7172    3.8852 C   0  0  0  0  0  0  0  0  0  0  0  0
   19.3137  -18.1303    5.0249 C   0  0  0  0  0  0  0  0  0  0  0  0
   20.1452  -17.0993    4.8761 N   0  3  0  0  0  0  0  0  0  0  0  0
   20.5652  -16.6501    5.6754 H   0  0  0  0  0  0  0  0  0  0  0  0
   20.4200  -16.6114    3.6702 C   0  0  0  0  0  0  0  0  0  0  0  0
   19.8982  -17.0989    2.5383 N   0  0  0  0  0  0  0  0  0  0  0  0
   19.0832  -18.1539    2.6596 C   0  0  0  0  0  0  0  0  0  0  0  0
   18.6193  -18.7278    1.4880 N   0  0  0  0  0  0  0  0  0  0  0  0
   21.2716  -15.5263    3.5792 N   0  0  0  0  0  0  0  0  0  0  0  0
   19.0949  -18.6592    6.2852 N   0  0  0  0  0  0  0  0  0  0  0  0
   19.3170  -19.3544    1.0911 H   0  0  0  0  0  0  0  0  0  0  0  0
   18.2721  -18.0728    0.7944 H   0  0  0  0  0  0  0  0  0  0  0  0
   22.2495  -15.7466    3.4274 H   0  0  0  0  0  0  0  0  0  0  0  0
   20.9208  -14.9092    2.8443 H   0  0  0  0  0  0  0  0  0  0  0  0
   19.0512  -19.6772    6.3327 H   0  0  0  0  0  0  0  0  0  0  0  0
   18.4397  -18.2237    6.9244 H   0  0  0  0  0  0  0  0  0  0  0  0
  1  2  2  0  0  0  0
  1  7  1  0  0  0  0
  2  3  1  0  0  0  0
  2 10  1  0  0  0  0
  3  4  1  0  0  0  0
  3  5  2  0  0  0  0
  5  6  1  0  0  0  0
  5  9  1  0  0  0  0
  6  7  2  0  0  0  0
  7  8  1  0  0  0  0
  8 11  1  0  0  0  0
  8 12  1  0  0  0  0
  9 13  1  0  0  0  0
  9 14  1  0  0  0  0
 10 15  1  0  0  0  0
 10 16  1  0  0  0  0
M  CHG  1   3   1
M  END
>  <CHROM.0>
-50.91234663,-58.77671187,-55.30571533,-52.33629401,-54.17729593,-55.98449415
-57.09206367,-176.84416987,-166.71154432,161.43424013

>  <CHROM.1>
35.43176777,93.58435306,-94.62157628,19.64412922,-17.62122892,3.78250572
1.61005873,0.90685109,1.67890604

>  <Name>
2,4,6-triaminopyrimidine

>  <RI>
0

>  <Rbt.Current_Directory>
/home/fstefaniak/projects/zuza/docking/adenine/1Y26

>  <Rbt.Executable>
rbdock ($Id: //depot/dev/client3/rdock/2013.1/src/exe/rbdock.cxx#4 $)

>  <Rbt.Library>
libRbt.so (2013.1, Build901 2013/11/27)

>  <Rbt.Parameter_File>
/home/fstefaniak/progs/rDock//data/scripts/dock_solv.prm

>  <Rbt.Receptor>
1y26.prm

>  <SCORE>
-63.2438

>  <SCORE.INTER>
-40.247

>  <SCORE.INTER.CONST>
1

>  <SCORE.INTER.POLAR>
-6.55831

>  <SCORE.INTER.ROT>
3

>  <SCORE.INTER.SOLV>
20.1097

>  <SCORE.INTER.VDW>
-17.2735

>  <SCORE.INTER.norm>
-4.47189

>  <SCORE.INTRA>
-0.462882

>  <SCORE.INTRA.DIHEDRAL>
-0.10039

>  <SCORE.INTRA.DIHEDRAL.0>
1.50958

>  <SCORE.INTRA.POLAR>
0

>  <SCORE.INTRA.POLAR.0>
0

>  <SCORE.INTRA.REPUL>
0

>  <SCORE.INTRA.REPUL.0>
0

>  <SCORE.INTRA.SOLV>
-0.756947

>  <SCORE.INTRA.SOLV.lig_0>
-35.25

>  <SCORE.INTRA.VDW>
-0.0342126

>  <SCORE.INTRA.VDW.0>
-0.396343

>  <SCORE.INTRA.norm>
-0.0514313

>  <SCORE.RESTR>
0

>  <SCORE.RESTR.CAVITY>
0

>  <SCORE.RESTR.norm>
0

>  <SCORE.SYSTEM>
-22.5339

>  <SCORE.SYSTEM.CONST>
0

>  <SCORE.SYSTEM.DIHEDRAL>
5.40163

>  <SCORE.SYSTEM.POLAR>
-3.43303

>  <SCORE.SYSTEM.SOLV>
0.468902

>  <SCORE.SYSTEM.VDW>
-5.536

>  <SCORE.SYSTEM.norm>
-2.50377

>  <SCORE.heavy>
9

>  <SCORE.norm>
-7.02709

$$$$
2,6-diaminopurine
 OpenBabel12072022103D
libRbt.so/2013.1/901 2013/11/27
 16 17  0  0  0  0  0  0  0  0999 V2000
   19.3459  -18.9353    6.5693 C   0  0  0  0  0  0  0  0  0  0  0  0
   18.7631  -19.6850    5.5829 N   0  0  0  0  0  0  0  0  0  0  0  0
   18.3138  -20.5824    5.6850 H   0  0  0  0  0  0  0  0  0  0  0  0
   18.9055  -19.0020    4.4108 C   0  0  0  0  0  0  0  0  0  0  0  0
   19.5736  -17.8411    4.7482 C   0  0  0  0  0  0  0  0  0  0  0  0
   19.8503  -17.8126    6.1007 N   0  0  0  0  0  0  0  0  0  0  0  0
   19.8408  -16.9564    3.6943 C   0  0  0  0  0  0  0  0  0  0  0  0
   19.4548  -17.3083    2.4452 N   0  0  0  0  0  0  0  0  0  0  0  0
   18.8195  -18.4804    2.2574 C   0  0  0  0  0  0  0  0  0  0  0  0
   18.4886  -19.3813    3.1969 N   0  0  0  0  0  0  0  0  0  0  0  0
   18.4291  -18.7631    0.9617 N   0  0  0  0  0  0  0  0  0  0  0  0
   20.5006  -15.7436    3.8649 N   0  0  0  0  0  0  0  0  0  0  0  0
   18.7258  -18.0099    0.3559 H   0  0  0  0  0  0  0  0  0  0  0  0
   17.4495  -19.0086    0.9464 H   0  0  0  0  0  0  0  0  0  0  0  0
   20.1868  -15.0278    3.2185 H   0  0  0  0  0  0  0  0  0  0  0  0
   20.5698  -15.4910    4.8422 H   0  0  0  0  0  0  0  0  0  0  0  0
  1  2  1  0  0  0  0
  1  6  2  0  0  0  0
  2  3  1  0  0  0  0
  2  4  1  0  0  0  0
  4  5  2  0  0  0  0
  4 10  1  0  0  0  0
  5  6  1  0  0  0  0
  5  7  1  0  0  0  0
  7  8  2  0  0  0  0
  7 12  1  0  0  0  0
  8  9  1  0  0  0  0
  9 10  2  0  0  0  0
  9 11  1  0  0  0  0
 11 13  1  0  0  0  0
 11 14  1  0  0  0  0
 12 15  1  0  0  0  0
 12 16  1  0  0  0  0
M  END
>  <CHROM.0>
-51.14187772,-173.25522975,-52.13084204,-51.96733332,-175.46549676,-176.98791902
-60.81227445,-52.03119824,-165.77425422,160.75164853

>  <CHROM.1>
-147.80999978,1.37635407,19.26147855,-18.15560336,3.94601863,1.28110313,1.07087322
1.91546627

>  <Name>
2,6-diaminopurine

>  <RI>
0

>  <Rbt.Current_Directory>
/home/fstefaniak/projects/zuza/docking/adenine/1Y26

>  <Rbt.Executable>
rbdock ($Id: //depot/dev/client3/rdock/2013.1/src/exe/rbdock.cxx#4 $)

>  <Rbt.Library>
libRbt.so (2013.1, Build901 2013/11/27)

>  <Rbt.Parameter_File>
/home/fstefaniak/progs/rDock//data/scripts/dock_solv.prm

>  <Rbt.Receptor>
1y26.prm

>  <SCORE>
-77.7402

>  <SCORE.INTER>
-55.6602

>  <SCORE.INTER.CONST>
1

>  <SCORE.INTER.POLAR>
-7.38907

>  <SCORE.INTER.ROT>
2

>  <SCORE.INTER.SOLV>
16.1342

>  <SCORE.INTER.VDW>
-22.7879

>  <SCORE.INTER.norm>
-5.06001

>  <SCORE.INTRA>
0.0436169

>  <SCORE.INTRA.DIHEDRAL>
0.0401396

>  <SCORE.INTRA.DIHEDRAL.0>
0.924116

>  <SCORE.INTRA.POLAR>
0

>  <SCORE.INTRA.POLAR.0>
0

>  <SCORE.INTRA.REPUL>
0

>  <SCORE.INTRA.REPUL.0>
0

>  <SCORE.INTRA.SOLV>
-0.00663908

>  <SCORE.INTRA.SOLV.lig_0>
-19.4041

>  <SCORE.INTRA.VDW>
0.0268667

>  <SCORE.INTRA.VDW.0>
-0.225225

>  <SCORE.INTRA.norm>
0.00396517

>  <SCORE.RESTR>
0

>  <SCORE.RESTR.CAVITY>
0

>  <SCORE.RESTR.norm>
0

>  <SCORE.SYSTEM>
-22.1236

>  <SCORE.SYSTEM.CONST>
0

>  <SCORE.SYSTEM.DIHEDRAL>
6.11901

>  <SCORE.SYSTEM.POLAR>
-3.50538

>  <SCORE.SYSTEM.SOLV>
0.297325

>  <SCORE.SYSTEM.VDW>
-5.20327

>  <SCORE.SYSTEM.norm>
-2.01124

>  <SCORE.heavy>
11

>  <SCORE.norm>
-7.06729

$$$$
2,6-diaminopurine
 OpenBabel12072022103D
libRbt.so/2013.1/901 2013/11/27
 16 17  0  0  0  0  0  0  0  0999 V2000
   19.3345  -18.9196    6.5803 C   0  0  0  0  0  0  0  0  0  0  0  0
   18.7258  -19.6579    5.6010 N   0  0  0  0  0  0  0  0  0  0  0  0
   18.2389  -20.5343    5.7128 H   0  0  0  0  0  0  0  0  0  0  0  0
   18.9025  -18.9977    4.4206 C   0  0  0  0  0  0  0  0  0  0  0  0
   19.6168  -17.8611    4.7458 C   0  0  0  0  0  0  0  0  0  0  0  0
   19.8877  -17.8255    6.0993 N   0  0  0  0  0  0  0  0  0  0  0  0
   19.9260  -17.0030    3.6815 C   0  0  0  0  0  0  0  0  0  0  0  0
   19.5319  -17.3558    2.4351 N   0  0  0  0  0  0  0  0  0  0  0  0
   18.8491  -18.5029    2.2597 C   0  0  0  0  0  0  0  0  0  0  0  0
   18.4762  -19.3761    3.2096 N   0  0  0  0  0  0  0  0  0  0  0  0
   18.4537  -18.7870    0.9659 N   0  0  0  0  0  0  0  0  0  0  0  0
   20.6351  -15.8166    3.8392 N   0  0  0  0  0  0  0  0  0  0  0  0
   18.7526  -18.0368    0.3573 H   0  0  0  0  0  0  0  0  0  0  0  0
   17.4728  -19.0274    0.9539 H   0  0  0  0  0  0  0  0  0  0  0  0
   21.6392  -15.9437    3.7737 H   0  0  0  0  0  0  0  0  0  0  0  0
   20.2248  -15.0630    3.3029 H   0  0  0  0  0  0  0  0  0  0  0  0
  1  2  1  0  0  0  0
  1  6  2  0  0  0  0
  2  3  1  0  0  0  0
  2  4  1  0  0  0  0
  4  5  2  0  0  0  0
  4 10  1  0  0  0  0
  5  6  1  0  0  0  0
  5  7  1  0  0  0  0
  7  8  2  0  0  0  0
  7 12  1  0  0  0  0
  8  9  1  0  0  0  0
  9 10  2  0  0  0  0
  9 11  1  0  0  0  0
 11 13  1  0  0  0  0
 11 14  1  0  0  0  0
 12 15  1  0  0  0  0
 12 16  1  0  0  0  0
M  END
>  <CHROM.0>
-44.90054470,-175.21829143,-50.75635327,-51.59232106,-56.29820832,-63.30319519
-54.31160789,-52.38745269,-167.99478459,161.06151106

>  <CHROM.1>
88.25820474,-0.86419416,19.30104727,-18.17593912,3.94016566,1.33444605,1.02139762
1.86532689

>  <Name>
2,6-diaminopurine

>  <RI>
0

>  <Rbt.Current_Directory>
/home/fstefaniak/projects/zuza/docking/adenine/1Y26

>  <Rbt.Executable>
rbdock ($Id: //depot/dev/client3/rdock/2013.1/src/exe/rbdock.cxx#4 $)

>  <Rbt.Library>
libRbt.so (2013.1, Build901 2013/11/27)

>  <Rbt.Parameter_File>
/home/fstefaniak/progs/rDock//data/scripts/dock_solv.prm

>  <Rbt.Receptor>
1y26.prm

>  <SCORE>
-77.5375

>  <SCORE.INTER>
-55.2689

>  <SCORE.INTER.CONST>
1

>  <SCORE.INTER.POLAR>
-7.42289

>  <SCORE.INTER.ROT>
2

>  <SCORE.INTER.SOLV>
15.7583

>  <SCORE.INTER.VDW>
-22.2891

>  <SCORE.INTER.norm>
-5.02445

>  <SCORE.INTRA>
-0.0171119

>  <SCORE.INTRA.DIHEDRAL>
0.0383642

>  <SCORE.INTRA.DIHEDRAL.0>
0.924116

>  <SCORE.INTRA.POLAR>
0

>  <SCORE.INTRA.POLAR.0>
0

>  <SCORE.INTRA.REPUL>
0

>  <SCORE.INTRA.REPUL.0>
0

>  <SCORE.INTRA.SOLV>
0.011176

>  <SCORE.INTRA.SOLV.lig_0>
-19.4041

>  <SCORE.INTRA.VDW>
-0.041882

>  <SCORE.INTRA.VDW.0>
-0.225225

>  <SCORE.INTRA.norm>
-0.00155563

>  <SCORE.RESTR>
0

>  <SCORE.RESTR.CAVITY>
0

>  <SCORE.RESTR.norm>
0

>  <SCORE.SYSTEM>
-22.2515

>  <SCORE.SYSTEM.CONST>
0

>  <SCORE.SYSTEM.DIHEDRAL>
6.63993

>  <SCORE.SYSTEM.POLAR>
-3.59265

>  <SCORE.SYSTEM.SOLV>
0.624078

>  <SCORE.SYSTEM.VDW>
-5.28018

>  <SCORE.SYSTEM.norm>
-2.02286

>  <SCORE.heavy>
11

>  <SCORE.norm>
-7.04887

$$$$
2,6-diaminopurine
 OpenBabel12072022103D
libRbt.so/2013.1/901 2013/11/27
 16 17  0  0  0  0  0  0  0  0999 V2000
   19.3229  -18.9229    6.5910 C   0  0  0  0  0  0  0  0  0  0  0  0
   18.7417  -19.6773    5.6073 N   0  0  0  0  0  0  0  0  0  0  0  0
   18.2855  -20.5707    5.7143 H   0  0  0  0  0  0  0  0  0  0  0  0
   18.8969  -19.0059    4.4302 C   0  0  0  0  0  0  0  0  0  0  0  0
   19.5707  -17.8467    4.7618 C   0  0  0  0  0  0  0  0  0  0  0  0
   19.8383  -17.8079    6.1158 N   0  0  0  0  0  0  0  0  0  0  0  0
   19.8513  -16.9733    3.7019 C   0  0  0  0  0  0  0  0  0  0  0  0
   19.4715  -17.3338    2.4533 N   0  0  0  0  0  0  0  0  0  0  0  0
   18.8293  -18.5032    2.2716 C   0  0  0  0  0  0  0  0  0  0  0  0
   18.4858  -19.3933    3.2168 N   0  0  0  0  0  0  0  0  0  0  0  0
   18.4460  -18.7949    0.9758 N   0  0  0  0  0  0  0  0  0  0  0  0
   20.5183  -15.7636    3.8662 N   0  0  0  0  0  0  0  0  0  0  0  0
   18.7578  -18.0523    0.3644 H   0  0  0  0  0  0  0  0  0  0  0  0
   17.4633  -19.0273    0.9549 H   0  0  0  0  0  0  0  0  0  0  0  0
   20.2023  -15.0466    3.2222 H   0  0  0  0  0  0  0  0  0  0  0  0
   20.5971  -15.5109    4.8427 H   0  0  0  0  0  0  0  0  0  0  0  0
  1  2  1  0  0  0  0
  1  6  2  0  0  0  0
  2  3  1  0  0  0  0
  2  4  1  0  0  0  0
  4  5  2  0  0  0  0
  4 10  1  0  0  0  0
  5  6  1  0  0  0  0
  5  7  1  0  0  0  0
  7  8  2  0  0  0  0
  7 12  1  0  0  0  0
  8  9  1  0  0  0  0
  9 10  2  0  0  0  0
  9 11  1  0  0  0  0
 11 13  1  0  0  0  0
 11 14  1  0  0  0  0
 12 15  1  0  0  0  0
 12 16  1  0  0  0  0
M  END
>  <CHROM.0>
-46.05373987,-174.19050956,-57.44595429,-52.36500870,-56.71487761,-60.41941038
-61.45810390,64.07572017,-166.35404250,160.90248953

>  <CHROM.1>
-146.78725707,1.77814013,19.26199699,-18.16622652,3.96037245,1.29919012,1.06658676
1.89050541

>  <Name>
2,6-diaminopurine

>  <RI>
0

>  <Rbt.Current_Directory>
/home/fstefaniak/projects/zuza/docking/adenine/1Y26

>  <Rbt.Executable>
rbdock ($Id: //depot/dev/client3/rdock/2013.1/src/exe/rbdock.cxx#4 $)

>  <Rbt.Library>
libRbt.so (2013.1, Build901 2013/11/27)

>  <Rbt.Parameter_File>
/home/fstefaniak/progs/rDock//data/scripts/dock_solv.prm

>  <Rbt.Receptor>
1y26.prm

>  <SCORE>
-77.303

>  <SCORE.INTER>
-55.719

>  <SCORE.INTER.CONST>
1

>  <SCORE.INTER.POLAR>
-7.38581

>  <SCORE.INTER.ROT>
2

>  <SCORE.INTER.SOLV>
16.0699

>  <SCORE.INTER.VDW>
-22.8166

>  <SCORE.INTER.norm>
-5.06537

>  <SCORE.INTRA>
0.0444833

>  <SCORE.INTRA.DIHEDRAL>
0.0403179

>  <SCORE.INTRA.DIHEDRAL.0>
0.924116

>  <SCORE.INTRA.POLAR>
0

>  <SCORE.INTRA.POLAR.0>
0

>  <SCORE.INTRA.REPUL>
0

>  <SCORE.INTRA.REPUL.0>
0

>  <SCORE.INTRA.SOLV>
-0.00724101

>  <SCORE.INTRA.SOLV.lig_0>
-19.4041

>  <SCORE.INTRA.VDW>
0.0279449

>  <SCORE.INTRA.VDW.0>
-0.225225

>  <SCORE.INTRA.norm>
0.00404394

>  <SCORE.RESTR>
0

>  <SCORE.RESTR.CAVITY>
0

>  <SCORE.RESTR.norm>
0

>  <SCORE.SYSTEM>
-21.6284

>  <SCORE.SYSTEM.CONST>
0

>  <SCORE.SYSTEM.DIHEDRAL>
5.93486

>  <SCORE.SYSTEM.POLAR>
-3.49108

>  <SCORE.SYSTEM.SOLV>
0.365416

>  <SCORE.SYSTEM.VDW>
-4.8821

>  <SCORE.SYSTEM.norm>
-1.96622

>  <SCORE.heavy>
11

>  <SCORE.norm>
-7.02754

$$$$
2-aminopurine
 OpenBabel12072022103D
libRbt.so/2013.1/901 2013/11/27
 13 14  0  0  0  0  0  0  0  0999 V2000
   19.9616  -17.0518    3.7006 C   0  0  0  0  0  0  0  0  0  0  0  0
   19.6655  -17.9102    4.7495 C   0  0  0  0  0  0  0  0  0  0  0  0
   18.9454  -19.0414    4.4117 C   0  0  0  0  0  0  0  0  0  0  0  0
   18.7791  -19.7188    5.5837 N   0  0  0  0  0  0  0  0  0  0  0  0
   18.2957  -20.5981    5.6867 H   0  0  0  0  0  0  0  0  0  0  0  0
   19.3895  -18.9892    6.5684 C   0  0  0  0  0  0  0  0  0  0  0  0
   19.9341  -17.8862    6.0973 N   0  0  0  0  0  0  0  0  0  0  0  0
   18.5047  -19.4009    3.1986 N   0  0  0  0  0  0  0  0  0  0  0  0
   18.8616  -18.5129    2.2563 C   0  0  0  0  0  0  0  0  0  0  0  0
   19.5422  -17.3663    2.4457 N   0  0  0  0  0  0  0  0  0  0  0  0
   18.4489  -18.7724    0.9643 N   0  0  0  0  0  0  0  0  0  0  0  0
   17.4664  -19.0051    0.9572 H   0  0  0  0  0  0  0  0  0  0  0  0
   18.7537  -18.0223    0.3595 H   0  0  0  0  0  0  0  0  0  0  0  0
  1  2  2  0  0  0  0
  1 10  1  0  0  0  0
  2  3  1  0  0  0  0
  2  7  1  0  0  0  0
  3  4  1  0  0  0  0
  3  8  2  0  0  0  0
  4  5  1  0  0  0  0
  4  6  1  0  0  0  0
  6  7  2  0  0  0  0
  8  9  1  0  0  0  0
  9 10  2  0  0  0  0
  9 11  1  0  0  0  0
 11 12  1  0  0  0  0
 11 13  1  0  0  0  0
M  END
>  <CHROM.0>
-45.55622569,-174.94484761,-56.67787741,-51.21032800,-56.03374251,-57.50082457
-59.48269601,-176.44972983,-167.82993942,161.02079926

>  <CHROM.1>
48.06433826,19.17529965,-18.48711449,3.95226810,-1.85419852,1.01609918,1.89329180

>  <Name>
2-aminopurine

>  <RI>
0

>  <Rbt.Current_Directory>
/home/fstefaniak/projects/zuza/docking/adenine/1Y26

>  <Rbt.Executable>
rbdock ($Id: //depot/dev/client3/rdock/2013.1/src/exe/rbdock.cxx#4 $)

>  <Rbt.Library>
libRbt.so (2013.1, Build901 2013/11/27)

>  <Rbt.Parameter_File>
/home/fstefaniak/progs/rDock//data/scripts/dock_solv.prm

>  <Rbt.Receptor>
1y26.prm

>  <SCORE>
-72.4986

>  <SCORE.INTER>
-49.749

>  <SCORE.INTER.CONST>
1

>  <SCORE.INTER.POLAR>
-6.45095

>  <SCORE.INTER.ROT>
1

>  <SCORE.INTER.SOLV>
13.8649

>  <SCORE.INTER.VDW>
-20.5511

>  <SCORE.INTER.norm>
-4.9749

>  <SCORE.INTRA>
0.0107323

>  <SCORE.INTRA.DIHEDRAL>
0.0193613

>  <SCORE.INTRA.DIHEDRAL.0>
0.452546

>  <SCORE.INTRA.POLAR>
0

>  <SCORE.INTRA.POLAR.0>
0

>  <SCORE.INTRA.REPUL>
0

>  <SCORE.INTRA.REPUL.0>
0

>  <SCORE.INTRA.SOLV>
0.00155689

>  <SCORE.INTRA.SOLV.lig_0>
-16.2208

>  <SCORE.INTRA.VDW>
0.000273139

>  <SCORE.INTRA.VDW.0>
-0.0899246

>  <SCORE.INTRA.norm>
0.00107323

>  <SCORE.RESTR>
0

>  <SCORE.RESTR.CAVITY>
0

>  <SCORE.RESTR.norm>
0

>  <SCORE.SYSTEM>
-22.7603

>  <SCORE.SYSTEM.CONST>
0

>  <SCORE.SYSTEM.DIHEDRAL>
5.90672

>  <SCORE.SYSTEM.POLAR>
-3.50923

>  <SCORE.SYSTEM.SOLV>
0.404207

>  <SCORE.SYSTEM.VDW>
-5.57978

>  <SCORE.SYSTEM.norm>
-2.27603

>  <SCORE.heavy>
10

>  <SCORE.norm>
-7.24986

$$$$
2-aminopurine
 OpenBabel12072022103D
libRbt.so/2013.1/901 2013/11/27
 13 14  0  0  0  0  0  0  0  0999 V2000
   20.0301  -17.0649    3.6695 C   0  0  0  0  0  0  0  0  0  0  0  0
   19.7092  -17.8976    4.7316 C   0  0  0  0  0  0  0  0  0  0  0  0
   18.9442  -19.0049    4.4137 C   0  0  0  0  0  0  0  0  0  0  0  0
   18.7608  -19.6602    5.5957 N   0  0  0  0  0  0  0  0  0  0  0  0
   18.2450  -20.5191    5.7136 H   0  0  0  0  0  0  0  0  0  0  0  0
   19.4056  -18.9417    6.5665 C   0  0  0  0  0  0  0  0  0  0  0  0
   19.9883  -17.8664    6.0771 N   0  0  0  0  0  0  0  0  0  0  0  0
   18.4813  -19.3630    3.2085 N   0  0  0  0  0  0  0  0  0  0  0  0
   18.8649  -18.5016    2.2521 C   0  0  0  0  0  0  0  0  0  0  0  0
   19.5899  -17.3795    2.4217 N   0  0  0  0  0  0  0  0  0  0  0  0
   18.4333  -18.7620    0.9665 N   0  0  0  0  0  0  0  0  0  0  0  0
   17.4524  -19.0016    0.9748 H   0  0  0  0  0  0  0  0  0  0  0  0
   18.7230  -18.0088    0.3581 H   0  0  0  0  0  0  0  0  0  0  0  0
  1  2  2  0  0  0  0
  1 10  1  0  0  0  0
  2  3  1  0  0  0  0
  2  7  1  0  0  0  0
  3  4  1  0  0  0  0
  3  8  2  0  0  0  0
  4  5  1  0  0  0  0
  4  6  1  0  0  0  0
  6  7  2  0  0  0  0
  8  9  1  0  0  0  0
  9 10  2  0  0  0  0
  9 11  1  0  0  0  0
 11 12  1  0  0  0  0
 11 13  1  0  0  0  0
M  END
>  <CHROM.0>
-51.61727069,-174.03151127,-55.35118666,-51.49812786,-56.55260840,-59.05149830
-59.75861676,-174.90475931,-166.86030497,159.45397256

>  <CHROM.1>
45.29672901,19.19142368,-18.46595920,3.94553656,-1.84555756,0.97789234,1.87274681

>  <Name>
2-aminopurine

>  <RI>
0

>  <Rbt.Current_Directory>
/home/fstefaniak/projects/zuza/docking/adenine/1Y26

>  <Rbt.Executable>
rbdock ($Id: //depot/dev/client3/rdock/2013.1/src/exe/rbdock.cxx#4 $)

>  <Rbt.Library>
libRbt.so (2013.1, Build901 2013/11/27)

>  <Rbt.Parameter_File>
/home/fstefaniak/progs/rDock//data/scripts/dock_solv.prm

>  <Rbt.Receptor>
1y26.prm

>  <SCORE>
-72.4413

>  <SCORE.INTER>
-49.6472

>  <SCORE.INTER.CONST>
1

>  <SCORE.INTER.POLAR>
-6.46643

>  <SCORE.INTER.ROT>
1

>  <SCORE.INTER.SOLV>
13.7017

>  <SCORE.INTER.VDW>
-20.3773

>  <SCORE.INTER.norm>
-4.96472

>  <SCORE.INTRA>
0.00875533

>  <SCORE.INTRA.DIHEDRAL>
0.0156482

>  <SCORE.INTRA.DIHEDRAL.0>
0.452546

>  <SCORE.INTRA.POLAR>
0

>  <SCORE.INTRA.POLAR.0>
0

>  <SCORE.INTRA.REPUL>
0

>  <SCORE.INTRA.REPUL.0>
0

>  <SCORE.INTRA.SOLV>
0.00155182

>  <SCORE.INTRA.SOLV.lig_0>
-16.2208

>  <SCORE.INTRA.VDW>
0.000155314

>  <SCORE.INTRA.VDW.0>
-0.0899246

>  <SCORE.INTRA.norm>
0.000875533

>  <SCORE.RESTR>
0

>  <SCORE.RESTR.CAVITY>
0

>  <SCORE.RESTR.norm>
0

>  <SCORE.SYSTEM>
-22.8029

>  <SCORE.SYSTEM.CONST>
0

>  <SCORE.SYSTEM.DIHEDRAL>
5.70066

>  <SCORE.SYSTEM.POLAR>
-3.46403

>  <SCORE.SYSTEM.SOLV>
0.392288

>  <SCORE.SYSTEM.VDW>
-5.68612

>  <SCORE.SYSTEM.norm>
-2.28029

>  <SCORE.heavy>
10

>  <SCORE.norm>
-7.24413

$$$$
2-aminopurine
 OpenBabel12072022103D
libRbt.so/2013.1/901 2013/11/27
 13 14  0  0  0  0  0  0  0  0999 V2000
   20.0617  -17.0609    3.6484 C   0  0  0  0  0  0  0  0  0  0  0  0
   19.6903  -17.8525    4.7255 C   0  0  0  0  0  0  0  0  0  0  0  0
   18.8792  -18.9311    4.4236 C   0  0  0  0  0  0  0  0  0  0  0  0
   18.6519  -19.5489    5.6182 N   0  0  0  0  0  0  0  0  0  0  0  0
   18.0960  -20.3803    5.7494 H   0  0  0  0  0  0  0  0  0  0  0  0
   19.3173  -18.8373    6.5801 C   0  0  0  0  0  0  0  0  0  0  0  0
   19.9544  -17.8017    6.0734 N   0  0  0  0  0  0  0  0  0  0  0  0
   18.4149  -19.2966    3.2212 N   0  0  0  0  0  0  0  0  0  0  0  0
   18.8489  -18.4768    2.2499 C   0  0  0  0  0  0  0  0  0  0  0  0
   19.6225  -17.3850    2.4027 N   0  0  0  0  0  0  0  0  0  0  0  0
   18.4212  -18.7480    0.9653 N   0  0  0  0  0  0  0  0  0  0  0  0
   17.4423  -18.9954    0.9736 H   0  0  0  0  0  0  0  0  0  0  0  0
   18.7058  -17.9960    0.3530 H   0  0  0  0  0  0  0  0  0  0  0  0
  1  2  2  0  0  0  0
  1 10  1  0  0  0  0
  2  3  1  0  0  0  0
  2  7  1  0  0  0  0
  3  4  1  0  0  0  0
  3  8  2  0  0  0  0
  4  5  1  0  0  0  0
  4  6  1  0  0  0  0
  6  7  2  0  0  0  0
  8  9  1  0  0  0  0
  9 10  2  0  0  0  0
  9 11  1  0  0  0  0
 11 12  1  0  0  0  0
 11 13  1  0  0  0  0
M  END
>  <CHROM.0>
-51.56326749,-172.42255374,-61.00592232,-51.44470604,-178.95653480,-61.02562068
-64.71291392,-176.35497068,-166.67351722,160.50163550

>  <CHROM.1>
41.98804091,19.15622714,-18.41556513,3.94633596,-1.80395257,0.93752552,1.81481496

>  <Name>
2-aminopurine

>  <RI>
0

>  <Rbt.Current_Directory>
/home/fstefaniak/projects/zuza/docking/adenine/1Y26

>  <Rbt.Executable>
rbdock ($Id: //depot/dev/client3/rdock/2013.1/src/exe/rbdock.cxx#4 $)

>  <Rbt.Library>
libRbt.so (2013.1, Build901 2013/11/27)

>  <Rbt.Parameter_File>
/home/fstefaniak/progs/rDock//data/scripts/dock_solv.prm

>  <Rbt.Receptor>
1y26.prm

>  <SCORE>
-72.3301

>  <SCORE.INTER>
-49.579

>  <SCORE.INTER.CONST>
1

>  <SCORE.INTER.POLAR>
-6.51884

>  <SCORE.INTER.ROT>
1

>  <SCORE.INTER.SOLV>
13.4326

>  <SCORE.INTER.VDW>
-20.0674

>  <SCORE.INTER.norm>
-4.9579

>  <SCORE.INTRA>
0.00655428

>  <SCORE.INTRA.DIHEDRAL>
0.0115403

>  <SCORE.INTRA.DIHEDRAL.0>
0.452546

>  <SCORE.INTRA.POLAR>
0

>  <SCORE.INTRA.POLAR.0>
0

>  <SCORE.INTRA.REPUL>
0

>  <SCORE.INTRA.REPUL.0>
0

>  <SCORE.INTRA.SOLV>
0.00148377

>  <SCORE.INTRA.SOLV.lig_0>
-16.2208

>  <SCORE.INTRA.VDW>
4.22714e-05

>  <SCORE.INTRA.VDW.0>
-0.0899246

>  <SCORE.INTRA.norm>
0.000655428

>  <SCORE.RESTR>
0

>  <SCORE.RESTR.CAVITY>
0

>  <SCORE.RESTR.norm>
0

>  <SCORE.SYSTEM>
-22.7577

>  <SCORE.SYSTEM.CONST>
0

>  <SCORE.SYSTEM.DIHEDRAL>
5.58197

>  <SCORE.SYSTEM.POLAR>
-3.43057

>  <SCORE.SYSTEM.SOLV>
0.201007

>  <SCORE.SYSTEM.VDW>
-5.66421

>  <SCORE.SYSTEM.norm>
-2.27577

>  <SCORE.heavy>
10

>  <SCORE.norm>
-7.23301

$$$$
2-chloroadenine
 OpenBabel12072022103D
libRbt.so/2013.1/901 2013/11/27
 14 15  0  0  0  0  0  0  0  0999 V2000
   19.1701  -18.8787    7.0085 C   0  0  0  0  0  0  0  0  0  0  0  0
   18.4658  -19.5203    6.0253 N   0  0  0  0  0  0  0  0  0  0  0  0
   17.8793  -20.3350    6.1301 H   0  0  0  0  0  0  0  0  0  0  0  0
   18.6949  -18.8544    4.8565 C   0  0  0  0  0  0  0  0  0  0  0  0
   19.5559  -17.8230    5.1897 C   0  0  0  0  0  0  0  0  0  0  0  0
   19.8374  -17.8443    6.5404 N   0  0  0  0  0  0  0  0  0  0  0  0
   19.9576  -16.9758    4.1417 C   0  0  0  0  0  0  0  0  0  0  0  0
   19.4695  -17.2032    2.9024 N   0  0  0  0  0  0  0  0  0  0  0  0
   18.6406  -18.2547    2.7370 C   0  0  0  0  0  0  0  0  0  0  0  0
   18.1905  -19.1415    3.6490 N   0  0  0  0  0  0  0  0  0  0  0  0
   18.0629  -18.4897    1.1425 Cl  0  0  0  0  0  0  0  0  0  0  0  0
   20.8217  -15.9044    4.3225 N   0  0  0  0  0  0  0  0  0  0  0  0
   21.0879  -15.7493    5.2886 H   0  0  0  0  0  0  0  0  0  0  0  0
   20.5683  -15.0980    3.7667 H   0  0  0  0  0  0  0  0  0  0  0  0
  1  2  1  0  0  0  0
  1  6  2  0  0  0  0
  2  3  1  0  0  0  0
  2  4  1  0  0  0  0
  4  5  2  0  0  0  0
  4 10  1  0  0  0  0
  5  6  1  0  0  0  0
  5  7  1  0  0  0  0
  7  8  2  0  0  0  0
  7 12  1  0  0  0  0
  8  9  1  0  0  0  0
  9 10  2  0  0  0  0
  9 11  1  0  0  0  0
 12 13  1  0  0  0  0
 12 14  1  0  0  0  0
M  END
>  <CHROM.0>
-49.28689944,-170.76050081,-51.96595821,-53.48285839,-54.83362340,-61.29870583
-61.80421558,-175.90064579,-166.85335204,161.02823953

>  <CHROM.1>
-3.91195153,19.03977768,-18.11466663,4.00211461,1.15963078,0.90253059,1.87961489

>  <Name>
2-chloroadenine

>  <RI>
0

>  <Rbt.Current_Directory>
/home/fstefaniak/projects/zuza/docking/adenine/1Y26

>  <Rbt.Executable>
rbdock ($Id: //depot/dev/client3/rdock/2013.1/src/exe/rbdock.cxx#4 $)

>  <Rbt.Library>
libRbt.so (2013.1, Build901 2013/11/27)

>  <Rbt.Parameter_File>
/home/fstefaniak/progs/rDock//data/scripts/dock_solv.prm

>  <Rbt.Receptor>
1y26.prm

>  <SCORE>
-69.2509

>  <SCORE.INTER>
-46.4966

>  <SCORE.INTER.CONST>
1

>  <SCORE.INTER.POLAR>
-5.30697

>  <SCORE.INTER.ROT>
1

>  <SCORE.INTER.SOLV>
13.2129

>  <SCORE.INTER.VDW>
-21.9788

>  <SCORE.INTER.norm>
-4.22696

>  <SCORE.INTRA>
-0.00313175

>  <SCORE.INTRA.DIHEDRAL>
0.00316921

>  <SCORE.INTRA.DIHEDRAL.0>
0.471229

>  <SCORE.INTRA.POLAR>
0

>  <SCORE.INTRA.POLAR.0>
0

>  <SCORE.INTRA.REPUL>
0

>  <SCORE.INTRA.REPUL.0>
0

>  <SCORE.INTRA.SOLV>
-0.00943704

>  <SCORE.INTRA.SOLV.lig_0>
-16.2646

>  <SCORE.INTRA.VDW>
2.16281e-06

>  <SCORE.INTRA.VDW.0>
-0.134537

>  <SCORE.INTRA.norm>
-0.000284705

>  <SCORE.RESTR>
0

>  <SCORE.RESTR.CAVITY>
0

>  <SCORE.RESTR.norm>
0

>  <SCORE.SYSTEM>
-22.7512

>  <SCORE.SYSTEM.CONST>
0

>  <SCORE.SYSTEM.DIHEDRAL>
6.01914

>  <SCORE.SYSTEM.POLAR>
-3.46063

>  <SCORE.SYSTEM.SOLV>
0.385712

>  <SCORE.SYSTEM.VDW>
-5.767

>  <SCORE.SYSTEM.norm>
-2.06829

>  <SCORE.heavy>
11

>  <SCORE.norm>
-6.29554

$$$$
2-chloroadenine
 OpenBabel12072022103D
libRbt.so/2013.1/901 2013/11/27
 14 15  0  0  0  0  0  0  0  0999 V2000
   19.1598  -18.8308    6.9667 C   0  0  0  0  0  0  0  0  0  0  0  0
   18.5353  -19.5338    5.9717 N   0  0  0  0  0  0  0  0  0  0  0  0
   17.9668  -20.3612    6.0761 H   0  0  0  0  0  0  0  0  0  0  0  0
   18.8165  -18.9099    4.7911 C   0  0  0  0  0  0  0  0  0  0  0  0
   19.6260  -17.8396    5.1306 C   0  0  0  0  0  0  0  0  0  0  0  0
   19.8249  -17.7965    6.4954 N   0  0  0  0  0  0  0  0  0  0  0  0
   20.0668  -17.0243    4.0730 C   0  0  0  0  0  0  0  0  0  0  0  0
   19.6619  -17.3175    2.8177 N   0  0  0  0  0  0  0  0  0  0  0  0
   18.8748  -18.4000    2.6483 C   0  0  0  0  0  0  0  0  0  0  0  0
   18.3951  -19.2619    3.5690 N   0  0  0  0  0  0  0  0  0  0  0  0
   18.4025  -18.7183    1.0337 Cl  0  0  0  0  0  0  0  0  0  0  0  0
   20.8875  -15.9202    4.2589 N   0  0  0  0  0  0  0  0  0  0  0  0
   21.1499  -15.7608    5.2255 H   0  0  0  0  0  0  0  0  0  0  0  0
   20.6004  -15.1210    3.7091 H   0  0  0  0  0  0  0  0  0  0  0  0
  1  2  1  0  0  0  0
  1  6  2  0  0  0  0
  2  3  1  0  0  0  0
  2  4  1  0  0  0  0
  4  5  2  0  0  0  0
  4 10  1  0  0  0  0
  5  6  1  0  0  0  0
  5  7  1  0  0  0  0
  7  8  2  0  0  0  0
  7 12  1  0  0  0  0
  8  9  1  0  0  0  0
  9 10  2  0  0  0  0
  9 11  1  0  0  0  0
 12 13  1  0  0  0  0
 12 14  1  0  0  0  0
M  END
>  <CHROM.0>
-51.59682670,-174.23263809,-50.62606332,-51.07417840,-56.91886972,-177.63372962
-61.29510213,-174.24354616,-166.24329203,159.76570404

>  <CHROM.1>
0.69501088,19.19190203,-18.19583284,3.92814815,1.24402707,0.94627290,1.76977536

>  <Name>
2-chloroadenine

>  <RI>
0

>  <Rbt.Current_Directory>
/home/fstefaniak/projects/zuza/docking/adenine/1Y26

>  <Rbt.Executable>
rbdock ($Id: //depot/dev/client3/rdock/2013.1/src/exe/rbdock.cxx#4 $)

>  <Rbt.Library>
libRbt.so (2013.1, Build901 2013/11/27)

>  <Rbt.Parameter_File>
/home/fstefaniak/progs/rDock//data/scripts/dock_solv.prm

>  <Rbt.Receptor>
1y26.prm

>  <SCORE>
-69.0612

>  <SCORE.INTER>
-46.4966

>  <SCORE.INTER.CONST>
1

>  <SCORE.INTER.POLAR>
-5.27379

>  <SCORE.INTER.ROT>
1

>  <SCORE.INTER.SOLV>
13.0161

>  <SCORE.INTER.VDW>
-22.0238

>  <SCORE.INTER.norm>
-4.22696

>  <SCORE.INTRA>
-0.00418555

>  <SCORE.INTRA.DIHEDRAL>
0.00494529

>  <SCORE.INTRA.DIHEDRAL.0>
0.471229

>  <SCORE.INTRA.POLAR>
0

>  <SCORE.INTRA.POLAR.0>
0

>  <SCORE.INTRA.REPUL>
0

>  <SCORE.INTRA.REPUL.0>
0

>  <SCORE.INTRA.SOLV>
-0.0128173

>  <SCORE.INTRA.SOLV.lig_0>
-16.2646

>  <SCORE.INTRA.VDW>
-0.000249558

>  <SCORE.INTRA.VDW.0>
-0.134537

>  <SCORE.INTRA.norm>
-0.000380504

>  <SCORE.RESTR>
0

>  <SCORE.RESTR.CAVITY>
0

>  <SCORE.RESTR.norm>
0

>  <SCORE.SYSTEM>
-22.5604

>  <SCORE.SYSTEM.CONST>
0

>  <SCORE.SYSTEM.DIHEDRAL>
6.10097

>  <SCORE.SYSTEM.POLAR>
-3.51235

>  <SCORE.SYSTEM.SOLV>
0.253449

>  <SCORE.SYSTEM.VDW>
-5.45056

>  <SCORE.SYSTEM.norm>
-2.05095

>  <SCORE.heavy>
11

>  <SCORE.norm>
-6.27829

$$$$
2-chloroadenine
 OpenBabel12072022103D
libRbt.so/2013.1/901 2013/11/27
 14 15  0  0  0  0  0  0  0  0999 V2000
   19.1448  -18.8158    6.9723 C   0  0  0  0  0  0  0  0  0  0  0  0
   18.5148  -19.5137    5.9770 N   0  0  0  0  0  0  0  0  0  0  0  0
   17.9402  -20.3369    6.0812 H   0  0  0  0  0  0  0  0  0  0  0  0
   18.8003  -18.8913    4.7967 C   0  0  0  0  0  0  0  0  0  0  0  0
   19.6178  -17.8272    5.1365 C   0  0  0  0  0  0  0  0  0  0  0  0
   19.8174  -17.7862    6.5013 N   0  0  0  0  0  0  0  0  0  0  0  0
   20.0644  -17.0147    4.0792 C   0  0  0  0  0  0  0  0  0  0  0  0
   19.6571  -17.3042    2.8239 N   0  0  0  0  0  0  0  0  0  0  0  0
   18.8619  -18.3808    2.6542 C   0  0  0  0  0  0  0  0  0  0  0  0
   18.3760  -19.2396    3.5745 N   0  0  0  0  0  0  0  0  0  0  0  0
   18.3868  -18.6948    1.0395 Cl  0  0  0  0  0  0  0  0  0  0  0  0
   20.8934  -15.9168    4.2655 N   0  0  0  0  0  0  0  0  0  0  0  0
   21.1536  -15.7573    5.2326 H   0  0  0  0  0  0  0  0  0  0  0  0
   20.6147  -15.1167    3.7128 H   0  0  0  0  0  0  0  0  0  0  0  0
  1  2  1  0  0  0  0
  1  6  2  0  0  0  0
  2  3  1  0  0  0  0
  2  4  1  0  0  0  0
  4  5  2  0  0  0  0
  4 10  1  0  0  0  0
  5  6  1  0  0  0  0
  5  7  1  0  0  0  0
  7  8  2  0  0  0  0
  7 12  1  0  0  0  0
  8  9  1  0  0  0  0
  9 10  2  0  0  0  0
  9 11  1  0  0  0  0
 12 13  1  0  0  0  0
 12 14  1  0  0  0  0
M  END
>  <CHROM.0>
-51.30722832,-172.25464702,-50.78896391,-50.89955185,-57.07737052,-63.37777102
-57.15219157,-52.41929561,-166.52113150,160.89003648

>  <CHROM.1>
0.42112597,19.18081607,-18.17961022,3.93399632,1.24614482,0.93896108,1.76856464

>  <Name>
2-chloroadenine

>  <RI>
0

>  <Rbt.Current_Directory>
/home/fstefaniak/projects/zuza/docking/adenine/1Y26

>  <Rbt.Executable>
rbdock ($Id: //depot/dev/client3/rdock/2013.1/src/exe/rbdock.cxx#4 $)

>  <Rbt.Library>
libRbt.so (2013.1, Build901 2013/11/27)

>  <Rbt.Parameter_File>
/home/fstefaniak/progs/rDock//data/scripts/dock_solv.prm

>  <Rbt.Receptor>
1y26.prm

>  <SCORE>
-68.8304

>  <SCORE.INTER>
-46.4812

>  <SCORE.INTER.CONST>
1

>  <SCORE.INTER.POLAR>
-5.31845

>  <SCORE.INTER.ROT>
1

>  <SCORE.INTER.SOLV>
12.9868

>  <SCORE.INTER.VDW>
-21.8549

>  <SCORE.INTER.norm>
-4.22556

>  <SCORE.INTRA>
-0.00407493

>  <SCORE.INTRA.DIHEDRAL>
0.00483242

>  <SCORE.INTRA.DIHEDRAL.0>
0.471229

>  <SCORE.INTRA.POLAR>
0

>  <SCORE.INTRA.POLAR.0>
0

>  <SCORE.INTRA.REPUL>
0

>  <SCORE.INTRA.REPUL.0>
0

>  <SCORE.INTRA.SOLV>
-0.0126088

>  <SCORE.INTRA.SOLV.lig_0>
-16.2646

>  <SCORE.INTRA.VDW>
-0.00018676

>  <SCORE.INTRA.VDW.0>
-0.134537

>  <SCORE.INTRA.norm>
-0.000370448

>  <SCORE.RESTR>
0

>  <SCORE.RESTR.CAVITY>
0

>  <SCORE.RESTR.norm>
0

>  <SCORE.SYSTEM>
-22.3451

>  <SCORE.SYSTEM.CONST>
0

>  <SCORE.SYSTEM.DIHEDRAL>
6.21595

>  <SCORE.SYSTEM.POLAR>
-3.52605

>  <SCORE.SYSTEM.SOLV>
0.606777

>  <SCORE.SYSTEM.VDW>
-5.41751

>  <SCORE.SYSTEM.norm>
-2.03138

>  <SCORE.heavy>
11

>  <SCORE.norm>
-6.25731

$$$$
3-methyladenine
 OpenBabel12072022103D
libRbt.so/2013.1/901 2013/11/27
 13 14  0  0  0  0  0  0  0  0999 V2000
   19.4949  -18.7365    6.7551 C   0  0  0  0  0  0  0  0  0  0  0  0
   19.0934  -18.5055    5.3842 N   0  0  0  0  0  0  0  0  0  0  0  0
   17.9309  -19.0234    4.8580 C   0  0  0  0  0  0  0  0  0  0  0  0
   17.5078  -18.8702    3.6372 N   0  0  0  0  0  0  0  0  0  0  0  0
   18.3059  -18.1342    2.7665 C   0  0  0  0  0  0  0  0  0  0  0  0
   19.4603  -17.5580    3.1663 C   0  0  0  0  0  0  0  0  0  0  0  0
   20.3906  -16.7759    2.5408 N   0  0  0  0  0  0  0  0  0  0  0  0
   21.2627  -16.5650    3.4855 C   0  0  0  0  0  0  0  0  0  0  0  0
   21.0093  -17.1305    4.7304 N   0  0  0  0  0  0  0  0  0  0  0  0
   19.8838  -17.7568    4.5551 C   0  0  0  0  0  0  0  0  0  0  0  0
   17.8760  -17.9768    1.4614 N   0  0  0  0  0  0  0  0  0  0  0  0
   18.6623  -18.0632    0.8265 H   0  0  0  0  0  0  0  0  0  0  0  0
   17.0982  -18.5975    1.2483 H   0  0  0  0  0  0  0  0  0  0  0  0
  1  2  1  0  0  0  0
  2  3  1  0  0  0  0
  2 10  1  0  0  0  0
  3  4  2  0  0  0  0
  4  5  1  0  0  0  0
  5  6  2  0  0  0  0
  5 11  1  0  0  0  0
  6  7  1  0  0  0  0
  6 10  1  0  0  0  0
  7  8  2  0  0  0  0
  8  9  1  0  0  0  0
  9 10  2  0  0  0  0
 11 12  1  0  0  0  0
 11 13  1  0  0  0  0
M  END
>  <CHROM.0>
-49.64462413,156.54081512,-54.76525975,-51.84760778,-173.55180608,-58.63493939
-58.53952446,-51.53334842,-166.52209554,160.10493488

>  <CHROM.1>
-139.52607867,19.27363596,-17.92880944,3.93497402,1.23499433,0.52561821,1.88106119

>  <Name>
3-methyladenine

>  <RI>
0

>  <Rbt.Current_Directory>
/home/fstefaniak/projects/zuza/docking/adenine/1Y26

>  <Rbt.Executable>
rbdock ($Id: //depot/dev/client3/rdock/2013.1/src/exe/rbdock.cxx#4 $)

>  <Rbt.Library>
libRbt.so (2013.1, Build901 2013/11/27)

>  <Rbt.Parameter_File>
/home/fstefaniak/progs/rDock//data/scripts/dock_solv.prm

>  <Rbt.Receptor>
1y26.prm

>  <SCORE>
-57.594

>  <SCORE.INTER>
-36.9119

>  <SCORE.INTER.CONST>
1

>  <SCORE.INTER.POLAR>
-4.10117

>  <SCORE.INTER.ROT>
1

>  <SCORE.INTER.SOLV>
11.0884

>  <SCORE.INTER.VDW>
-18.9001

>  <SCORE.INTER.norm>
-3.35562

>  <SCORE.INTRA>
-0.0447599

>  <SCORE.INTRA.DIHEDRAL>
0.0251238

>  <SCORE.INTRA.DIHEDRAL.0>
0.465519

>  <SCORE.INTRA.POLAR>
0

>  <SCORE.INTRA.POLAR.0>
0

>  <SCORE.INTRA.REPUL>
0

>  <SCORE.INTRA.REPUL.0>
0

>  <SCORE.INTRA.SOLV>
0.0078723

>  <SCORE.INTRA.SOLV.lig_0>
-9.50567

>  <SCORE.INTRA.VDW>
-0.061258

>  <SCORE.INTRA.VDW.0>
-0.0334473

>  <SCORE.INTRA.norm>
-0.00406909

>  <SCORE.RESTR>
0

>  <SCORE.RESTR.CAVITY>
0

>  <SCORE.RESTR.norm>
0

>  <SCORE.SYSTEM>
-20.6374

>  <SCORE.SYSTEM.CONST>
0

>  <SCORE.SYSTEM.DIHEDRAL>
8.318

>  <SCORE.SYSTEM.POLAR>
-3.52067

>  <SCORE.SYSTEM.SOLV>
0.481864

>  <SCORE.SYSTEM.VDW>
-4.956

>  <SCORE.SYSTEM.norm>
-1.87613

>  <SCORE.heavy>
11

>  <SCORE.norm>
-5.23582

$$$$
3-methyladenine
 OpenBabel12072022103D
libRbt.so/2013.1/901 2013/11/27
 13 14  0  0  0  0  0  0  0  0999 V2000
   21.4338  -16.0869    3.7931 C   0  0  0  0  0  0  0  0  0  0  0  0
   20.3597  -16.9470    4.2406 N   0  0  0  0  0  0  0  0  0  0  0  0
   20.1645  -17.2545    5.5687 C   0  0  0  0  0  0  0  0  0  0  0  0
   19.2322  -18.0255    6.0475 N   0  0  0  0  0  0  0  0  0  0  0  0
   18.3574  -18.6174    5.1413 C   0  0  0  0  0  0  0  0  0  0  0  0
   18.4320  -18.3800    3.8136 C   0  0  0  0  0  0  0  0  0  0  0  0
   17.6967  -18.7939    2.7383 N   0  0  0  0  0  0  0  0  0  0  0  0
   18.2993  -18.2085    1.7426 C   0  0  0  0  0  0  0  0  0  0  0  0
   19.3956  -17.4056    2.0386 N   0  0  0  0  0  0  0  0  0  0  0  0
   19.4971  -17.4964    3.3314 C   0  0  0  0  0  0  0  0  0  0  0  0
   17.3712  -19.4519    5.6352 N   0  0  0  0  0  0  0  0  0  0  0  0
   17.5291  -20.4007    5.3128 H   0  0  0  0  0  0  0  0  0  0  0  0
   17.2810  -19.3646    6.6450 H   0  0  0  0  0  0  0  0  0  0  0  0
  1  2  1  0  0  0  0
  2  3  1  0  0  0  0
  2 10  1  0  0  0  0
  3  4  2  0  0  0  0
  4  5  1  0  0  0  0
  5  6  2  0  0  0  0
  5 11  1  0  0  0  0
  6  7  1  0  0  0  0
  6 10  1  0  0  0  0
  7  8  2  0  0  0  0
  8  9  1  0  0  0  0
  9 10  2  0  0  0  0
 11 12  1  0  0  0  0
 11 13  1  0  0  0  0
M  END
>  <CHROM.0>
-48.61761925,-62.75805875,-54.26448305,-51.44461936,-54.41886542,-62.55460048
-59.92673335,-178.28868642,-168.51373607,160.00487609

>  <CHROM.1>
-114.69162057,19.11809429,-17.88408608,4.03458399,-0.43315970,0.65738327
1.70178817

>  <Name>
3-methyladenine

>  <RI>
0

>  <Rbt.Current_Directory>
/home/fstefaniak/projects/zuza/docking/adenine/1Y26

>  <Rbt.Executable>
rbdock ($Id: //depot/dev/client3/rdock/2013.1/src/exe/rbdock.cxx#4 $)

>  <Rbt.Library>
libRbt.so (2013.1, Build901 2013/11/27)

>  <Rbt.Parameter_File>
/home/fstefaniak/progs/rDock//data/scripts/dock_solv.prm

>  <Rbt.Receptor>
1y26.prm

>  <SCORE>
-57.5445

>  <SCORE.INTER>
-34.7888

>  <SCORE.INTER.CONST>
1

>  <SCORE.INTER.POLAR>
-4.03754

>  <SCORE.INTER.ROT>
1

>  <SCORE.INTER.SOLV>
10.8169

>  <SCORE.INTER.VDW>
-17.6064

>  <SCORE.INTER.norm>
-3.16262

>  <SCORE.INTRA>
-0.131432

>  <SCORE.INTRA.DIHEDRAL>
0.00721058

>  <SCORE.INTRA.DIHEDRAL.0>
0.465519

>  <SCORE.INTRA.POLAR>
0

>  <SCORE.INTRA.POLAR.0>
0

>  <SCORE.INTRA.REPUL>
0

>  <SCORE.INTRA.REPUL.0>
0

>  <SCORE.INTRA.SOLV>
0.0153342

>  <SCORE.INTRA.SOLV.lig_0>
-9.50567

>  <SCORE.INTRA.VDW>
-0.142704

>  <SCORE.INTRA.VDW.0>
-0.0334473

>  <SCORE.INTRA.norm>
-0.0119483

>  <SCORE.RESTR>
0

>  <SCORE.RESTR.CAVITY>
0

>  <SCORE.RESTR.norm>
0

>  <SCORE.SYSTEM>
-22.6242

>  <SCORE.SYSTEM.CONST>
0

>  <SCORE.SYSTEM.DIHEDRAL>
5.64999

>  <SCORE.SYSTEM.POLAR>
-3.48793

>  <SCORE.SYSTEM.SOLV>
0.453028

>  <SCORE.SYSTEM.VDW>
-5.49073

>  <SCORE.SYSTEM.norm>
-2.05675

>  <SCORE.heavy>
11

>  <SCORE.norm>
-5.23131

$$$$
3-methyladenine
 OpenBabel12072022103D
libRbt.so/2013.1/901 2013/11/27
 13 14  0  0  0  0  0  0  0  0999 V2000
   19.4832  -18.7237    6.7814 C   0  0  0  0  0  0  0  0  0  0  0  0
   19.0870  -18.4976    5.4081 N   0  0  0  0  0  0  0  0  0  0  0  0
   17.9286  -19.0207    4.8781 C   0  0  0  0  0  0  0  0  0  0  0  0
   17.5105  -18.8720    3.6550 N   0  0  0  0  0  0  0  0  0  0  0  0
   18.3100  -18.1355    2.7860 C   0  0  0  0  0  0  0  0  0  0  0  0
   19.4607  -17.5543    3.1895 C   0  0  0  0  0  0  0  0  0  0  0  0
   20.3911  -16.7706    2.5662 N   0  0  0  0  0  0  0  0  0  0  0  0
   21.2581  -16.5543    3.5143 C   0  0  0  0  0  0  0  0  0  0  0  0
   21.0011  -17.1176    4.7595 N   0  0  0  0  0  0  0  0  0  0  0  0
   19.8785  -17.7481    4.5808 C   0  0  0  0  0  0  0  0  0  0  0  0
   17.8854  -17.9828    1.4786 N   0  0  0  0  0  0  0  0  0  0  0  0
   18.6714  -18.0885    0.8462 H   0  0  0  0  0  0  0  0  0  0  0  0
   17.0976  -18.5922    1.2695 H   0  0  0  0  0  0  0  0  0  0  0  0
  1  2  1  0  0  0  0
  2  3  1  0  0  0  0
  2 10  1  0  0  0  0
  3  4  2  0  0  0  0
  4  5  1  0  0  0  0
  5  6  2  0  0  0  0
  5 11  1  0  0  0  0
  6  7  1  0  0  0  0
  6 10  1  0  0  0  0
  7  8  2  0  0  0  0
  8  9  1  0  0  0  0
  9 10  2  0  0  0  0
 11 12  1  0  0  0  0
 11 13  1  0  0  0  0
M  END
>  <CHROM.0>
-48.04716396,158.75583621,-50.88125298,-53.12174958,-175.25453716,-57.91894103
-57.68555534,-50.94630162,-167.36355350,160.78003978

>  <CHROM.1>
-138.28522899,19.27165137,-17.92388046,3.95833383,1.23781071,0.53016638,1.87667750

>  <Name>
3-methyladenine

>  <RI>
0

>  <Rbt.Current_Directory>
/home/fstefaniak/projects/zuza/docking/adenine/1Y26

>  <Rbt.Executable>
rbdock ($Id: //depot/dev/client3/rdock/2013.1/src/exe/rbdock.cxx#4 $)

>  <Rbt.Library>
libRbt.so (2013.1, Build901 2013/11/27)

>  <Rbt.Parameter_File>
/home/fstefaniak/progs/rDock//data/scripts/dock_solv.prm

>  <Rbt.Receptor>
1y26.prm

>  <SCORE>
-57.4932

>  <SCORE.INTER>
-36.5871

>  <SCORE.INTER.CONST>
1

>  <SCORE.INTER.POLAR>
-3.98538

>  <SCORE.INTER.ROT>
1

>  <SCORE.INTER.SOLV>
11.0767

>  <SCORE.INTER.VDW>
-19.0657

>  <SCORE.INTER.norm>
-3.3261

>  <SCORE.INTRA>
-0.0506076

>  <SCORE.INTRA.DIHEDRAL>
0.02442

>  <SCORE.INTRA.DIHEDRAL.0>
0.465519

>  <SCORE.INTRA.POLAR>
0

>  <SCORE.INTRA.POLAR.0>
0

>  <SCORE.INTRA.REPUL>
0

>  <SCORE.INTRA.REPUL.0>
0

>  <SCORE.INTRA.SOLV>
0.00826135

>  <SCORE.INTRA.SOLV.lig_0>
-9.50567

>  <SCORE.INTRA.VDW>
-0.0669483

>  <SCORE.INTRA.VDW.0>
-0.0334473

>  <SCORE.INTRA.norm>
-0.00460069

>  <SCORE.RESTR>
0

>  <SCORE.RESTR.CAVITY>
0

>  <SCORE.RESTR.norm>
0

>  <SCORE.SYSTEM>
-20.8555

>  <SCORE.SYSTEM.CONST>
0

>  <SCORE.SYSTEM.DIHEDRAL>
8.0759

>  <SCORE.SYSTEM.POLAR>
-3.53326

>  <SCORE.SYSTEM.SOLV>
0.48924

>  <SCORE.SYSTEM.VDW>
-4.9812

>  <SCORE.SYSTEM.norm>
-1.89596

>  <SCORE.heavy>
11

>  <SCORE.norm>
-5.22666

$$$$
6-cyanopurine
 OpenBabel12072022103D
libRbt.so/2013.1/901 2013/11/27
 12 13  0  0  0  0  0  0  0  0999 V2000
   19.4252  -19.0858    6.7171 C   0  0  0  0  0  0  0  0  0  0  0  0
   18.8089  -19.7368    5.6833 N   0  0  0  0  0  0  0  0  0  0  0  0
   18.3245  -20.6214    5.7230 H   0  0  0  0  0  0  0  0  0  0  0  0
   18.9651  -18.9687    4.5661 C   0  0  0  0  0  0  0  0  0  0  0  0
   19.6857  -17.8604    4.9815 C   0  0  0  0  0  0  0  0  0  0  0  0
   19.9649  -17.9495    6.3282 N   0  0  0  0  0  0  0  0  0  0  0  0
   19.9627  -16.9296    3.9881 C   0  0  0  0  0  0  0  0  0  0  0  0
   19.5364  -17.1346    2.7122 N   0  0  0  0  0  0  0  0  0  0  0  0
   18.8446  -18.2647    2.4640 C   0  0  0  0  0  0  0  0  0  0  0  0
   18.5125  -19.2396    3.3333 N   0  0  0  0  0  0  0  0  0  0  0  0
   20.6980  -15.7472    4.2941 C   0  0  0  0  0  0  0  0  0  0  0  0
   21.2962  -14.7772    4.5249 N   0  0  0  0  0  0  0  0  0  0  0  0
  1  2  1  0  0  0  0
  1  6  2  0  0  0  0
  2  3  1  0  0  0  0
  2  4  1  0  0  0  0
  4  5  2  0  0  0  0
  4 10  1  0  0  0  0
  5  6  1  0  0  0  0
  5  7  1  0  0  0  0
  7  8  2  0  0  0  0
  7 11  1  0  0  0  0
  8  9  1  0  0  0  0
  9 10  2  0  0  0  0
 11 12  3  0  0  0  0
M  END
>  <CHROM.0>
-49.56098859,-173.83245618,-55.09431200,-53.68092972,-56.20506667,-60.44564035
-60.94979116,-177.41959732,-167.18900552,160.11178848

>  <CHROM.1>
19.59459905,-17.82075525,4.51855345,-2.48686240,-1.02329334,-1.15839930

>  <Name>
6-cyanopurine

>  <RI>
0

>  <Rbt.Current_Directory>
/home/fstefaniak/projects/zuza/docking/adenine/1Y26

>  <Rbt.Executable>
rbdock ($Id: //depot/dev/client3/rdock/2013.1/src/exe/rbdock.cxx#4 $)

>  <Rbt.Library>
libRbt.so (2013.1, Build901 2013/11/27)

>  <Rbt.Parameter_File>
/home/fstefaniak/progs/rDock//data/scripts/dock_solv.prm

>  <Rbt.Receptor>
1y26.prm

>  <SCORE>
-64.4376

>  <SCORE.INTER>
-41.5576

>  <SCORE.INTER.CONST>
1

>  <SCORE.INTER.POLAR>
-4.17125

>  <SCORE.INTER.ROT>
0

>  <SCORE.INTER.SOLV>
13.2734

>  <SCORE.INTER.VDW>
-21.8254

>  <SCORE.INTER.norm>
-3.77797

>  <SCORE.INTRA>
0

>  <SCORE.INTRA.DIHEDRAL>
0

>  <SCORE.INTRA.DIHEDRAL.0>
0

>  <SCORE.INTRA.POLAR>
0

>  <SCORE.INTRA.POLAR.0>
0

>  <SCORE.INTRA.REPUL>
0

>  <SCORE.INTRA.REPUL.0>
0

>  <SCORE.INTRA.SOLV>
0

>  <SCORE.INTRA.SOLV.lig_0>
-16.4455

>  <SCORE.INTRA.VDW>
0

>  <SCORE.INTRA.VDW.0>
0

>  <SCORE.INTRA.norm>
0

>  <SCORE.RESTR>
0

>  <SCORE.RESTR.CAVITY>
0

>  <SCORE.RESTR.norm>
0

>  <SCORE.SYSTEM>
-22.88

>  <SCORE.SYSTEM.CONST>
0

>  <SCORE.SYSTEM.DIHEDRAL>
5.55157

>  <SCORE.SYSTEM.POLAR>
-3.44188

>  <SCORE.SYSTEM.SOLV>
0.386717

>  <SCORE.SYSTEM.VDW>
-5.75983

>  <SCORE.SYSTEM.norm>
-2.08

>  <SCORE.heavy>
11

>  <SCORE.norm>
-5.85797

$$$$
6-cyanopurine
 OpenBabel12072022103D
libRbt.so/2013.1/901 2013/11/27
 12 13  0  0  0  0  0  0  0  0999 V2000
   19.3342  -19.0923    6.7141 C   0  0  0  0  0  0  0  0  0  0  0  0
   18.7065  -19.7293    5.6786 N   0  0  0  0  0  0  0  0  0  0  0  0
   18.1957  -20.5989    5.7183 H   0  0  0  0  0  0  0  0  0  0  0  0
   18.8937  -18.9711    4.5593 C   0  0  0  0  0  0  0  0  0  0  0  0
   19.6438  -17.8829    4.9754 C   0  0  0  0  0  0  0  0  0  0  0  0
   19.9103  -17.9743    6.3245 N   0  0  0  0  0  0  0  0  0  0  0  0
   19.9558  -16.9652    3.9802 C   0  0  0  0  0  0  0  0  0  0  0  0
   19.5331  -17.1631    2.7020 N   0  0  0  0  0  0  0  0  0  0  0  0
   18.8097  -18.2732    2.4534 C   0  0  0  0  0  0  0  0  0  0  0  0
   18.4423  -19.2339    3.3243 N   0  0  0  0  0  0  0  0  0  0  0  0
   20.7236  -15.8038    4.2868 C   0  0  0  0  0  0  0  0  0  0  0  0
   21.3487  -14.8510    4.5180 N   0  0  0  0  0  0  0  0  0  0  0  0
  1  2  1  0  0  0  0
  1  6  2  0  0  0  0
  2  3  1  0  0  0  0
  2  4  1  0  0  0  0
  4  5  2  0  0  0  0
  4 10  1  0  0  0  0
  5  6  1  0  0  0  0
  5  7  1  0  0  0  0
  7  8  2  0  0  0  0
  7 11  1  0  0  0  0
  8  9  1  0  0  0  0
  9 10  2  0  0  0  0
 11 12  3  0  0  0  0
M  END
>  <CHROM.0>
-49.90027178,-176.85570520,-54.83841299,-53.21740378,-58.33223288,-57.22698537
-59.69756922,-176.56974376,-167.52764654,160.83367558

>  <CHROM.1>
19.55740930,-17.84263132,4.51165624,-2.52142244,-0.99871836,-1.19201622

>  <Name>
6-cyanopurine

>  <RI>
0

>  <Rbt.Current_Directory>
/home/fstefaniak/projects/zuza/docking/adenine/1Y26

>  <Rbt.Executable>
rbdock ($Id: //depot/dev/client3/rdock/2013.1/src/exe/rbdock.cxx#4 $)

>  <Rbt.Library>
libRbt.so (2013.1, Build901 2013/11/27)

>  <Rbt.Parameter_File>
/home/fstefaniak/progs/rDock//data/scripts/dock_solv.prm

>  <Rbt.Receptor>
1y26.prm

>  <SCORE>
-64.3933

>  <SCORE.INTER>
-41.5497

>  <SCORE.INTER.CONST>
1

>  <SCORE.INTER.POLAR>
-4.17748

>  <SCORE.INTER.ROT>
0

>  <SCORE.INTER.SOLV>
13.1665

>  <SCORE.INTER.VDW>
-21.7637

>  <SCORE.INTER.norm>
-3.77725

>  <SCORE.INTRA>
0

>  <SCORE.INTRA.DIHEDRAL>
0

>  <SCORE.INTRA.DIHEDRAL.0>
0

>  <SCORE.INTRA.POLAR>
0

>  <SCORE.INTRA.POLAR.0>
0

>  <SCORE.INTRA.REPUL>
0

>  <SCORE.INTRA.REPUL.0>
0

>  <SCORE.INTRA.SOLV>
0

>  <SCORE.INTRA.SOLV.lig_0>
-16.4455

>  <SCORE.INTRA.VDW>
0

>  <SCORE.INTRA.VDW.0>
0

>  <SCORE.INTRA.norm>
0

>  <SCORE.RESTR>
0

>  <SCORE.RESTR.CAVITY>
0

>  <SCORE.RESTR.norm>
0

>  <SCORE.SYSTEM>
-22.8436

>  <SCORE.SYSTEM.CONST>
0

>  <SCORE.SYSTEM.DIHEDRAL>
5.2846

>  <SCORE.SYSTEM.POLAR>
-3.43461

>  <SCORE.SYSTEM.SOLV>
0.398499

>  <SCORE.SYSTEM.VDW>
-5.67475

>  <SCORE.SYSTEM.norm>
-2.07669

>  <SCORE.heavy>
11

>  <SCORE.norm>
-5.85394

$$$$
6-cyanopurine
 OpenBabel12072022103D
libRbt.so/2013.1/901 2013/11/27
 12 13  0  0  0  0  0  0  0  0999 V2000
   19.3718  -19.1137    6.6889 C   0  0  0  0  0  0  0  0  0  0  0  0
   18.7460  -19.7475    5.6502 N   0  0  0  0  0  0  0  0  0  0  0  0
   18.2482  -20.6248    5.6832 H   0  0  0  0  0  0  0  0  0  0  0  0
   18.9140  -18.9735    4.5388 C   0  0  0  0  0  0  0  0  0  0  0  0
   19.6513  -17.8794    4.9626 C   0  0  0  0  0  0  0  0  0  0  0  0
   19.9288  -17.9828    6.3086 N   0  0  0  0  0  0  0  0  0  0  0  0
   19.9427  -16.9455    3.9762 C   0  0  0  0  0  0  0  0  0  0  0  0
   19.5137  -17.1344    2.6988 N   0  0  0  0  0  0  0  0  0  0  0  0
   18.8047  -18.2520    2.4420 C   0  0  0  0  0  0  0  0  0  0  0  0
   18.4576  -19.2282    3.3040 N   0  0  0  0  0  0  0  0  0  0  0  0
   20.6958  -15.7767    4.2912 C   0  0  0  0  0  0  0  0  0  0  0  0
   21.3086  -14.8177    4.5294 N   0  0  0  0  0  0  0  0  0  0  0  0
  1  2  1  0  0  0  0
  1  6  2  0  0  0  0
  2  3  1  0  0  0  0
  2  4  1  0  0  0  0
  4  5  2  0  0  0  0
  4 10  1  0  0  0  0
  5  6  1  0  0  0  0
  5  7  1  0  0  0  0
  7  8  2  0  0  0  0
  7 11  1  0  0  0  0
  8  9  1  0  0  0  0
  9 10  2  0  0  0  0
 11 12  3  0  0  0  0
M  END
>  <CHROM.0>
-49.06734176,-174.12470962,-56.11056581,-51.33689291,-57.25652150,-59.11813914
-58.79049035,-175.59039168,-167.29151922,160.77280333

>  <CHROM.1>
19.56095798,-17.83488544,4.49994945,-2.49872448,-1.00942392,-1.16098483

>  <Name>
6-cyanopurine

>  <RI>
0

>  <Rbt.Current_Directory>
/home/fstefaniak/projects/zuza/docking/adenine/1Y26

>  <Rbt.Executable>
rbdock ($Id: //depot/dev/client3/rdock/2013.1/src/exe/rbdock.cxx#4 $)

>  <Rbt.Library>
libRbt.so (2013.1, Build901 2013/11/27)

>  <Rbt.Parameter_File>
/home/fstefaniak/progs/rDock//data/scripts/dock_solv.prm

>  <Rbt.Receptor>
1y26.prm

>  <SCORE>
-64.3641

>  <SCORE.INTER>
-41.5178

>  <SCORE.INTER.CONST>
1

>  <SCORE.INTER.POLAR>
-4.17379

>  <SCORE.INTER.ROT>
0

>  <SCORE.INTER.SOLV>
13.2926

>  <SCORE.INTER.VDW>
-21.7968

>  <SCORE.INTER.norm>
-3.77435

>  <SCORE.INTRA>
0

>  <SCORE.INTRA.DIHEDRAL>
0

>  <SCORE.INTRA.DIHEDRAL.0>
0

>  <SCORE.INTRA.POLAR>
0

>  <SCORE.INTRA.POLAR.0>
0

>  <SCORE.INTRA.REPUL>
0

>  <SCORE.INTRA.REPUL.0>
0

>  <SCORE.INTRA.SOLV>
0

>  <SCORE.INTRA.SOLV.lig_0>
-16.4455

>  <SCORE.INTRA.VDW>
0

>  <SCORE.INTRA.VDW.0>
0

>  <SCORE.INTRA.norm>
0

>  <SCORE.RESTR>
0

>  <SCORE.RESTR.CAVITY>
0

>  <SCORE.RESTR.norm>
0

>  <SCORE.SYSTEM>
-22.8463

>  <SCORE.SYSTEM.CONST>
0

>  <SCORE.SYSTEM.DIHEDRAL>
5.62328

>  <SCORE.SYSTEM.POLAR>
-3.47003

>  <SCORE.SYSTEM.SOLV>
0.397165

>  <SCORE.SYSTEM.VDW>
-5.67091

>  <SCORE.SYSTEM.norm>
-2.07693

>  <SCORE.heavy>
11

>  <SCORE.norm>
-5.85128

$$$$
6-mercaptopurine
 OpenBabel12072022103D
libRbt.so/2013.1/901 2013/11/27
 12 13  0  0  0  0  0  0  0  0999 V2000
   19.3356  -19.0795    6.9029 C   0  0  0  0  0  0  0  0  0  0  0  0
   18.5710  -19.5980    5.8893 N   0  0  0  0  0  0  0  0  0  0  0  0
   17.8243  -20.2715    5.9737 H   0  0  0  0  0  0  0  0  0  0  0  0
   19.0075  -19.0320    4.7299 C   0  0  0  0  0  0  0  0  0  0  0  0
   20.0299  -18.1860    5.1029 C   0  0  0  0  0  0  0  0  0  0  0  0
   20.2304  -18.2193    6.4590 N   0  0  0  0  0  0  0  0  0  0  0  0
   20.6791  -17.4485    4.0501 C   0  0  0  0  0  0  0  0  0  0  0  0
   21.9214  -16.3955    4.3431 S   0  0  0  0  0  0  0  0  0  0  0  0
   20.1671  -17.7054    2.7894 N   0  0  0  0  0  0  0  0  0  0  0  0
   20.5859  -17.2143    2.0125 H   0  0  0  0  0  0  0  0  0  0  0  0
   19.1238  -18.5940    2.5720 C   0  0  0  0  0  0  0  0  0  0  0  0
   18.5123  -19.2779    3.4940 N   0  0  0  0  0  0  0  0  0  0  0  0
  1  2  1  0  0  0  0
  1  6  2  0  0  0  0
  2  3  1  0  0  0  0
  2  4  1  0  0  0  0
  4  5  2  0  0  0  0
  4 12  1  0  0  0  0
  5  6  1  0  0  0  0
  5  7  1  0  0  0  0
  7  8  2  0  0  0  0
  7  9  1  0  0  0  0
  9 10  1  0  0  0  0
  9 11  1  0  0  0  0
 11 12  2  0  0  0  0
M  END
>  <CHROM.0>
-49.11100697,-168.34550507,-59.25766874,-52.20524812,-173.70906998,-61.40525503
-59.33879815,-176.26201969,-167.13793382,160.53732426

>  <CHROM.1>
20.00822426,-18.12537277,4.58921875,-2.63997785,-0.71808966,-1.41670053

>  <Name>
6-mercaptopurine

>  <RI>
0

>  <Rbt.Current_Directory>
/home/fstefaniak/projects/zuza/docking/adenine/1Y26

>  <Rbt.Executable>
rbdock ($Id: //depot/dev/client3/rdock/2013.1/src/exe/rbdock.cxx#4 $)

>  <Rbt.Library>
libRbt.so (2013.1, Build901 2013/11/27)

>  <Rbt.Parameter_File>
/home/fstefaniak/progs/rDock//data/scripts/dock_solv.prm

>  <Rbt.Receptor>
1y26.prm

>  <SCORE>
-56.6863

>  <SCORE.INTER>
-34.0064

>  <SCORE.INTER.CONST>
1

>  <SCORE.INTER.POLAR>
-3.18872

>  <SCORE.INTER.ROT>
0

>  <SCORE.INTER.SOLV>
11.4495

>  <SCORE.INTER.VDW>
-19.4584

>  <SCORE.INTER.norm>
-3.40064

>  <SCORE.INTRA>
0

>  <SCORE.INTRA.DIHEDRAL>
0

>  <SCORE.INTRA.DIHEDRAL.0>
0

>  <SCORE.INTRA.POLAR>
0

>  <SCORE.INTRA.POLAR.0>
0

>  <SCORE.INTRA.REPUL>
0

>  <SCORE.INTRA.REPUL.0>
0

>  <SCORE.INTRA.SOLV>
0

>  <SCORE.INTRA.SOLV.lig_0>
-15.5074

>  <SCORE.INTRA.VDW>
0

>  <SCORE.INTRA.VDW.0>
0

>  <SCORE.INTRA.norm>
0

>  <SCORE.RESTR>
0

>  <SCORE.RESTR.CAVITY>
0

>  <SCORE.RESTR.norm>
0

>  <SCORE.SYSTEM>
-22.6799

>  <SCORE.SYSTEM.CONST>
0

>  <SCORE.SYSTEM.DIHEDRAL>
6.12295

>  <SCORE.SYSTEM.POLAR>
-3.4489

>  <SCORE.SYSTEM.SOLV>
0.21559

>  <SCORE.SYSTEM.VDW>
-5.73644

>  <SCORE.SYSTEM.norm>
-2.26799

>  <SCORE.heavy>
10

>  <SCORE.norm>
-5.66863

$$$$
6-mercaptopurine
 OpenBabel12072022103D
libRbt.so/2013.1/901 2013/11/27
 12 13  0  0  0  0  0  0  0  0999 V2000
   19.3284  -19.0791    6.8543 C   0  0  0  0  0  0  0  0  0  0  0  0
   18.5631  -19.5820    5.8333 N   0  0  0  0  0  0  0  0  0  0  0  0
   17.8101  -20.2494    5.9092 H   0  0  0  0  0  0  0  0  0  0  0  0
   19.0092  -19.0101    4.6805 C   0  0  0  0  0  0  0  0  0  0  0  0
   20.0377  -18.1766    5.0646 C   0  0  0  0  0  0  0  0  0  0  0  0
   20.2327  -18.2233    6.4212 N   0  0  0  0  0  0  0  0  0  0  0  0
   20.6975  -17.4359    4.0207 C   0  0  0  0  0  0  0  0  0  0  0  0
   21.9482  -16.3968    4.3274 S   0  0  0  0  0  0  0  0  0  0  0  0
   20.1881  -17.6774    2.7559 N   0  0  0  0  0  0  0  0  0  0  0  0
   20.6144  -17.1835    1.9848 H   0  0  0  0  0  0  0  0  0  0  0  0
   19.1377  -18.5546    2.5270 C   0  0  0  0  0  0  0  0  0  0  0  0
   18.5166  -19.2409    3.4407 N   0  0  0  0  0  0  0  0  0  0  0  0
  1  2  1  0  0  0  0
  1  6  2  0  0  0  0
  2  3  1  0  0  0  0
  2  4  1  0  0  0  0
  4  5  2  0  0  0  0
  4 12  1  0  0  0  0
  5  6  1  0  0  0  0
  5  7  1  0  0  0  0
  7  8  2  0  0  0  0
  7  9  1  0  0  0  0
  9 10  1  0  0  0  0
  9 11  1  0  0  0  0
 11 12  2  0  0  0  0
M  END
>  <CHROM.0>
-51.30657586,-168.17289431,-55.81727888,-52.06396480,-57.05468371,-62.84118812
-62.06382375,-51.83186097,-166.26390446,160.78967784

>  <CHROM.1>
20.01854024,-18.11133260,4.55144748,-2.64682889,-0.70976520,-1.41260682

>  <Name>
6-mercaptopurine

>  <RI>
0

>  <Rbt.Current_Directory>
/home/fstefaniak/projects/zuza/docking/adenine/1Y26

>  <Rbt.Executable>
rbdock ($Id: //depot/dev/client3/rdock/2013.1/src/exe/rbdock.cxx#4 $)

>  <Rbt.Library>
libRbt.so (2013.1, Build901 2013/11/27)

>  <Rbt.Parameter_File>
/home/fstefaniak/progs/rDock//data/scripts/dock_solv.prm

>  <Rbt.Receptor>
1y26.prm

>  <SCORE>
-56.2837

>  <SCORE.INTER>
-33.9657

>  <SCORE.INTER.CONST>
1

>  <SCORE.INTER.POLAR>
-3.15986

>  <SCORE.INTER.ROT>
0

>  <SCORE.INTER.SOLV>
11.4694

>  <SCORE.INTER.VDW>
-19.5341

>  <SCORE.INTER.norm>
-3.39657

>  <SCORE.INTRA>
0

>  <SCORE.INTRA.DIHEDRAL>
0

>  <SCORE.INTRA.DIHEDRAL.0>
0

>  <SCORE.INTRA.POLAR>
0

>  <SCORE.INTRA.POLAR.0>
0

>  <SCORE.INTRA.REPUL>
0

>  <SCORE.INTRA.REPUL.0>
0

>  <SCORE.INTRA.SOLV>
0

>  <SCORE.INTRA.SOLV.lig_0>
-15.5074

>  <SCORE.INTRA.VDW>
0

>  <SCORE.INTRA.VDW.0>
0

>  <SCORE.INTRA.norm>
0

>  <SCORE.RESTR>
0

>  <SCORE.RESTR.CAVITY>
0

>  <SCORE.RESTR.norm>
0

>  <SCORE.SYSTEM>
-22.318

>  <SCORE.SYSTEM.CONST>
0

>  <SCORE.SYSTEM.DIHEDRAL>
6.23801

>  <SCORE.SYSTEM.POLAR>
-3.46972

>  <SCORE.SYSTEM.SOLV>
0.584299

>  <SCORE.SYSTEM.VDW>
-5.58702

>  <SCORE.SYSTEM.norm>
-2.2318

>  <SCORE.heavy>
10

>  <SCORE.norm>
-5.62837

$$$$
6-mercaptopurine
 OpenBabel12072022103D
libRbt.so/2013.1/901 2013/11/27
 12 13  0  0  0  0  0  0  0  0999 V2000
   19.3542  -19.1153    6.9044 C   0  0  0  0  0  0  0  0  0  0  0  0
   18.5802  -19.6194    5.8907 N   0  0  0  0  0  0  0  0  0  0  0  0
   17.8310  -20.2903    5.9732 H   0  0  0  0  0  0  0  0  0  0  0  0
   19.0112  -19.0431    4.7343 C   0  0  0  0  0  0  0  0  0  0  0  0
   20.0401  -18.2058    5.1091 C   0  0  0  0  0  0  0  0  0  0  0  0
   20.2499  -18.2544    6.4634 N   0  0  0  0  0  0  0  0  0  0  0  0
   20.6853  -17.4600    4.0597 C   0  0  0  0  0  0  0  0  0  0  0  0
   21.9345  -16.4159    4.3551 S   0  0  0  0  0  0  0  0  0  0  0  0
   20.1633  -17.7011    2.8000 N   0  0  0  0  0  0  0  0  0  0  0  0
   20.5790  -17.2037    2.0254 H   0  0  0  0  0  0  0  0  0  0  0  0
   19.1145  -18.5826    2.5805 C   0  0  0  0  0  0  0  0  0  0  0  0
   18.5063  -19.2735    3.4994 N   0  0  0  0  0  0  0  0  0  0  0  0
  1  2  1  0  0  0  0
  1  6  2  0  0  0  0
  2  3  1  0  0  0  0
  2  4  1  0  0  0  0
  4  5  2  0  0  0  0
  4 12  1  0  0  0  0
  5  6  1  0  0  0  0
  5  7  1  0  0  0  0
  7  8  2  0  0  0  0
  7  9  1  0  0  0  0
  9 10  1  0  0  0  0
  9 11  1  0  0  0  0
 11 12  2  0  0  0  0
M  END
>  <CHROM.0>
-50.10608748,-170.55513118,-55.82256532,-51.69023126,-175.50050110,-63.65093761
-62.29574837,-50.89109921,-165.89803737,160.86198461

>  <CHROM.1>
20.01509606,-18.13955761,4.59628011,-2.63179225,-0.71242360,-1.40068045

>  <Name>
6-mercaptopurine

>  <RI>
0

>  <Rbt.Current_Directory>
/home/fstefaniak/projects/zuza/docking/adenine/1Y26

>  <Rbt.Executable>
rbdock ($Id: //depot/dev/client3/rdock/2013.1/src/exe/rbdock.cxx#4 $)

>  <Rbt.Library>
libRbt.so (2013.1, Build901 2013/11/27)

>  <Rbt.Parameter_File>
/home/fstefaniak/progs/rDock//data/scripts/dock_solv.prm

>  <Rbt.Receptor>
1y26.prm

>  <SCORE>
-56.2716

>  <SCORE.INTER>
-33.9573

>  <SCORE.INTER.CONST>
1

>  <SCORE.INTER.POLAR>
-3.19546

>  <SCORE.INTER.ROT>
0

>  <SCORE.INTER.SOLV>
11.4762

>  <SCORE.INTER.VDW>
-19.4121

>  <SCORE.INTER.norm>
-3.39573

>  <SCORE.INTRA>
0

>  <SCORE.INTRA.DIHEDRAL>
0

>  <SCORE.INTRA.DIHEDRAL.0>
0

>  <SCORE.INTRA.POLAR>
0

>  <SCORE.INTRA.POLAR.0>
0

>  <SCORE.INTRA.REPUL>
0

>  <SCORE.INTRA.REPUL.0>
0

>  <SCORE.INTRA.SOLV>
0

>  <SCORE.INTRA.SOLV.lig_0>
-15.5074

>  <SCORE.INTRA.VDW>
0

>  <SCORE.INTRA.VDW.0>
0

>  <SCORE.INTRA.norm>
0

>  <SCORE.RESTR>
0

>  <SCORE.RESTR.CAVITY>
0

>  <SCORE.RESTR.norm>
0

>  <SCORE.SYSTEM>
-22.3142

>  <SCORE.SYSTEM.CONST>
0

>  <SCORE.SYSTEM.DIHEDRAL>
6.32439

>  <SCORE.SYSTEM.POLAR>
-3.49601

>  <SCORE.SYSTEM.SOLV>
0.42033

>  <SCORE.SYSTEM.VDW>
-5.47104

>  <SCORE.SYSTEM.norm>
-2.23142

>  <SCORE.heavy>
10

>  <SCORE.norm>
-5.62716

$$$$
8-azaadenine
 OpenBabel12072022103D
libRbt.so/2013.1/901 2013/11/27
 12 13  0  0  0  0  0  0  0  0999 V2000
   20.7378  -15.8178    4.1827 C   0  0  0  0  0  0  0  0  0  0  0  0
   20.4815  -16.4689    5.3453 N   0  0  0  0  0  0  0  0  0  0  0  0
   19.8360  -17.6668    5.2805 C   0  0  0  0  0  0  0  0  0  0  0  0
   19.4256  -18.1604    4.0256 C   0  0  0  0  0  0  0  0  0  0  0  0
   19.7400  -17.3878    2.9196 C   0  0  0  0  0  0  0  0  0  0  0  0
   20.4167  -16.1805    2.9317 N   0  0  0  0  0  0  0  0  0  0  0  0
   19.2681  -17.9648    1.8051 N   0  0  0  0  0  0  0  0  0  0  0  0
   18.6513  -19.1044    2.2498 N   0  5  0  0  0  0  0  0  0  0  0  0
   18.7307  -19.2488    3.6079 N   0  0  0  0  0  0  0  0  0  0  0  0
   19.5628  -18.3263    6.4881 N   0  0  0  0  0  0  0  0  0  0  0  0
   18.7172  -17.9587    6.8991 H   0  0  0  0  0  0  0  0  0  0  0  0
   19.6032  -19.3321    6.3279 H   0  0  0  0  0  0  0  0  0  0  0  0
  1  2  1  0  0  0  0
  1  6  2  0  0  0  0
  2  3  2  0  0  0  0
  3  4  1  0  0  0  0
  3 10  1  0  0  0  0
  4  5  1  0  0  0  0
  4  9  2  0  0  0  0
  5  6  1  0  0  0  0
  5  7  2  0  0  0  0
  7  8  1  0  0  0  0
  8  9  1  0  0  0  0
 10 11  1  0  0  0  0
 10 12  1  0  0  0  0
M  CHG  1   8  -1
M  END
>  <CHROM.0>
-177.03300548,-174.34150630,-55.99600930,-51.82545989,-174.80869489,-59.99206816
-59.41484804,-176.62985867,-166.15142981,160.36141135

>  <CHROM.1>
82.96676069,19.67031675,-17.65634147,3.91368550,-0.91349614,-1.04602777,-1.39514650

>  <Name>
8-azaadenine

>  <RI>
0

>  <Rbt.Current_Directory>
/home/fstefaniak/projects/zuza/docking/adenine/1Y26

>  <Rbt.Executable>
rbdock ($Id: //depot/dev/client3/rdock/2013.1/src/exe/rbdock.cxx#4 $)

>  <Rbt.Library>
libRbt.so (2013.1, Build901 2013/11/27)

>  <Rbt.Parameter_File>
/home/fstefaniak/progs/rDock//data/scripts/dock_solv.prm

>  <Rbt.Receptor>
1y26.prm

>  <SCORE>
-60.7875

>  <SCORE.INTER>
-39.024

>  <SCORE.INTER.CONST>
1

>  <SCORE.INTER.POLAR>
-6.41472

>  <SCORE.INTER.ROT>
1

>  <SCORE.INTER.SOLV>
13.4481

>  <SCORE.INTER.VDW>
-13.383

>  <SCORE.INTER.norm>
-3.9024

>  <SCORE.INTRA>
-0.0346835

>  <SCORE.INTRA.DIHEDRAL>
0.0635332

>  <SCORE.INTRA.DIHEDRAL.0>
0.449342

>  <SCORE.INTRA.POLAR>
0

>  <SCORE.INTRA.POLAR.0>
0

>  <SCORE.INTRA.REPUL>
0

>  <SCORE.INTRA.REPUL.0>
0

>  <SCORE.INTRA.SOLV>
-0.0413117

>  <SCORE.INTRA.SOLV.lig_0>
-16.5613

>  <SCORE.INTRA.VDW>
-0.0457942

>  <SCORE.INTRA.VDW.0>
-0.0951435

>  <SCORE.INTRA.norm>
-0.00346835

>  <SCORE.RESTR>
0

>  <SCORE.RESTR.CAVITY>
0

>  <SCORE.RESTR.norm>
0

>  <SCORE.SYSTEM>
-21.7288

>  <SCORE.SYSTEM.CONST>
0

>  <SCORE.SYSTEM.DIHEDRAL>
5.28289

>  <SCORE.SYSTEM.POLAR>
-3.24022

>  <SCORE.SYSTEM.SOLV>
0.177998

>  <SCORE.SYSTEM.VDW>
-5.50543

>  <SCORE.SYSTEM.norm>
-2.17288

>  <SCORE.heavy>
10

>  <SCORE.norm>
-6.07875

$$$$
8-azaadenine
 OpenBabel12072022103D
libRbt.so/2013.1/901 2013/11/27
 12 13  0  0  0  0  0  0  0  0999 V2000
   20.5413  -16.0225    4.4077 C   0  0  0  0  0  0  0  0  0  0  0  0
   20.2073  -16.7858    5.4787 N   0  0  0  0  0  0  0  0  0  0  0  0
   19.5344  -17.9485    5.2525 C   0  0  0  0  0  0  0  0  0  0  0  0
   19.1771  -18.2913    3.9327 C   0  0  0  0  0  0  0  0  0  0  0  0
   19.5696  -17.4153    2.9340 C   0  0  0  0  0  0  0  0  0  0  0  0
   20.2767  -16.2386    3.1104 N   0  0  0  0  0  0  0  0  0  0  0  0
   19.1415  -17.8541    1.7415 N   0  0  0  0  0  0  0  0  0  0  0  0
   18.4721  -19.0143    2.0290 N   0  5  0  0  0  0  0  0  0  0  0  0
   18.4763  -19.3059    3.3655 N   0  0  0  0  0  0  0  0  0  0  0  0
   19.1808  -18.7244    6.3663 N   0  0  0  0  0  0  0  0  0  0  0  0
   20.0114  -19.0409    6.8449 H   0  0  0  0  0  0  0  0  0  0  0  0
   18.4931  -18.2118    6.9171 H   0  0  0  0  0  0  0  0  0  0  0  0
  1  2  1  0  0  0  0
  1  6  2  0  0  0  0
  2  3  2  0  0  0  0
  3  4  1  0  0  0  0
  3 10  1  0  0  0  0
  4  5  1  0  0  0  0
  4  9  2  0  0  0  0
  5  6  1  0  0  0  0
  5  7  2  0  0  0  0
  7  8  1  0  0  0  0
  8  9  1  0  0  0  0
 10 11  1  0  0  0  0
 10 12  1  0  0  0  0
M  CHG  1   8  -1
M  END
>  <CHROM.0>
-53.67677382,179.83534157,-57.33306315,-51.89479999,-57.60493705,-60.37564622
-61.79884141,-178.97765738,-166.35584575,160.65973492

>  <CHROM.1>
-63.07186259,19.44806168,-17.78014471,3.89500656,-1.02601965,-1.02596841
-1.37223858

>  <Name>
8-azaadenine

>  <RI>
0

>  <Rbt.Current_Directory>
/home/fstefaniak/projects/zuza/docking/adenine/1Y26

>  <Rbt.Executable>
rbdock ($Id: //depot/dev/client3/rdock/2013.1/src/exe/rbdock.cxx#4 $)

>  <Rbt.Library>
libRbt.so (2013.1, Build901 2013/11/27)

>  <Rbt.Parameter_File>
/home/fstefaniak/progs/rDock//data/scripts/dock_solv.prm

>  <Rbt.Receptor>
1y26.prm

>  <SCORE>
-60.648

>  <SCORE.INTER>
-37.7264

>  <SCORE.INTER.CONST>
1

>  <SCORE.INTER.POLAR>
-5.37226

>  <SCORE.INTER.ROT>
1

>  <SCORE.INTER.SOLV>
13.3131

>  <SCORE.INTER.VDW>
-15.9478

>  <SCORE.INTER.norm>
-3.77264

>  <SCORE.INTRA>
-0.0718556

>  <SCORE.INTRA.DIHEDRAL>
0.0358884

>  <SCORE.INTRA.DIHEDRAL.0>
0.449342

>  <SCORE.INTRA.POLAR>
0

>  <SCORE.INTRA.POLAR.0>
0

>  <SCORE.INTRA.REPUL>
0

>  <SCORE.INTRA.REPUL.0>
0

>  <SCORE.INTRA.SOLV>
0.0215226

>  <SCORE.INTRA.SOLV.lig_0>
-16.5613

>  <SCORE.INTRA.VDW>
-0.100561

>  <SCORE.INTRA.VDW.0>
-0.0951435

>  <SCORE.INTRA.norm>
-0.00718556

>  <SCORE.RESTR>
0

>  <SCORE.RESTR.CAVITY>
0

>  <SCORE.RESTR.norm>
0

>  <SCORE.SYSTEM>
-22.8497

>  <SCORE.SYSTEM.CONST>
0

>  <SCORE.SYSTEM.DIHEDRAL>
5.04063

>  <SCORE.SYSTEM.POLAR>
-3.40242

>  <SCORE.SYSTEM.SOLV>
0.385675

>  <SCORE.SYSTEM.VDW>
-5.70047

>  <SCORE.SYSTEM.norm>
-2.28497

>  <SCORE.heavy>
10

>  <SCORE.norm>
-6.0648

$$$$
8-azaadenine
 OpenBabel12072022103D
libRbt.so/2013.1/901 2013/11/27
 12 13  0  0  0  0  0  0  0  0999 V2000
   20.8121  -15.8677    4.1254 C   0  0  0  0  0  0  0  0  0  0  0  0
   20.5567  -16.5176    5.2888 N   0  0  0  0  0  0  0  0  0  0  0  0
   19.8823  -17.6997    5.2282 C   0  0  0  0  0  0  0  0  0  0  0  0
   19.4430  -18.1781    3.9772 C   0  0  0  0  0  0  0  0  0  0  0  0
   19.7603  -17.4083    2.8701 C   0  0  0  0  0  0  0  0  0  0  0  0
   20.4654  -16.2173    2.8775 N   0  0  0  0  0  0  0  0  0  0  0  0
   19.2596  -17.9692    1.7598 N   0  0  0  0  0  0  0  0  0  0  0  0
   18.6223  -19.0959    2.2086 N   0  5  0  0  0  0  0  0  0  0  0  0
   18.7170  -19.2481    3.5648 N   0  0  0  0  0  0  0  0  0  0  0  0
   19.6104  -18.3579    6.4368 N   0  0  0  0  0  0  0  0  0  0  0  0
   18.7630  -17.9926    6.8463 H   0  0  0  0  0  0  0  0  0  0  0  0
   19.6546  -19.3639    6.2786 H   0  0  0  0  0  0  0  0  0  0  0  0
  1  2  1  0  0  0  0
  1  6  2  0  0  0  0
  2  3  2  0  0  0  0
  3  4  1  0  0  0  0
  3 10  1  0  0  0  0
  4  5  1  0  0  0  0
  4  9  2  0  0  0  0
  5  6  1  0  0  0  0
  5  7  2  0  0  0  0
  7  8  1  0  0  0  0
  8  9  1  0  0  0  0
 10 11  1  0  0  0  0
 10 12  1  0  0  0  0
M  CHG  1   8  -1
M  END
>  <CHROM.0>
-48.83271582,-178.28452020,-55.19810648,-51.53513448,-56.11478149,58.12009564
-61.02720186,-51.23456573,-167.06764220,161.14243299

>  <CHROM.1>
84.77626208,19.69812807,-17.67958968,3.86382166,-0.89495289,-1.02035666,-1.37483799

>  <Name>
8-azaadenine

>  <RI>
0

>  <Rbt.Current_Directory>
/home/fstefaniak/projects/zuza/docking/adenine/1Y26

>  <Rbt.Executable>
rbdock ($Id: //depot/dev/client3/rdock/2013.1/src/exe/rbdock.cxx#4 $)

>  <Rbt.Library>
libRbt.so (2013.1, Build901 2013/11/27)

>  <Rbt.Parameter_File>
/home/fstefaniak/progs/rDock//data/scripts/dock_solv.prm

>  <Rbt.Receptor>
1y26.prm

>  <SCORE>
-60.44

>  <SCORE.INTER>
-38.8184

>  <SCORE.INTER.CONST>
1

>  <SCORE.INTER.POLAR>
-6.40807

>  <SCORE.INTER.ROT>
1

>  <SCORE.INTER.SOLV>
13.3184

>  <SCORE.INTER.VDW>
-13.2249

>  <SCORE.INTER.norm>
-3.88184

>  <SCORE.INTRA>
-0.0400632

>  <SCORE.INTRA.DIHEDRAL>
0.0635345

>  <SCORE.INTRA.DIHEDRAL.0>
0.449342

>  <SCORE.INTRA.POLAR>
0

>  <SCORE.INTRA.POLAR.0>
0

>  <SCORE.INTRA.REPUL>
0

>  <SCORE.INTRA.REPUL.0>
0

>  <SCORE.INTRA.SOLV>
-0.0422326

>  <SCORE.INTRA.SOLV.lig_0>
-16.5613

>  <SCORE.INTRA.VDW>
-0.0507142

>  <SCORE.INTRA.VDW.0>
-0.0951435

>  <SCORE.INTRA.norm>
-0.00400632

>  <SCORE.RESTR>
0

>  <SCORE.RESTR.CAVITY>
0

>  <SCORE.RESTR.norm>
0

>  <SCORE.SYSTEM>
-21.5815

>  <SCORE.SYSTEM.CONST>
0

>  <SCORE.SYSTEM.DIHEDRAL>
5.79355

>  <SCORE.SYSTEM.POLAR>
-3.50324

>  <SCORE.SYSTEM.SOLV>
0.448828

>  <SCORE.SYSTEM.VDW>
-4.79104

>  <SCORE.SYSTEM.norm>
-2.15815

>  <SCORE.heavy>
10

>  <SCORE.norm>
-6.044

$$$$
8-chloroadenine
 OpenBabel12072022103D
libRbt.so/2013.1/901 2013/11/27
 14 15  0  0  0  0  0  0  0  0999 V2000
   19.9664  -18.3107    6.9095 C   0  0  0  0  0  0  0  0  0  0  0  0
   18.6730  -18.6710    7.1874 N   0  0  0  0  0  0  0  0  0  0  0  0
   18.4014  -18.9572    8.1190 H   0  0  0  0  0  0  0  0  0  0  0  0
   17.7652  -18.9291    6.1848 C   0  0  0  0  0  0  0  0  0  0  0  0
   18.2038  -18.7568    4.9271 C   0  0  0  0  0  0  0  0  0  0  0  0
   17.6094  -18.8810    3.7034 N   0  0  0  0  0  0  0  0  0  0  0  0
   18.5846  -18.5522    2.8981 C   0  0  0  0  0  0  0  0  0  0  0  0
   19.8117  -18.2031    3.4380 N   0  0  0  0  0  0  0  0  0  0  0  0
   19.5879  -18.3278    4.7076 C   0  0  0  0  0  0  0  0  0  0  0  0
   20.4656  -18.1164    5.7300 N   0  0  0  0  0  0  0  0  0  0  0  0
   18.3876  -18.5357    1.2137 Cl  0  0  0  0  0  0  0  0  0  0  0  0
   16.4827  -19.3382    6.4789 N   0  0  0  0  0  0  0  0  0  0  0  0
   16.4694  -20.2079    7.0037 H   0  0  0  0  0  0  0  0  0  0  0  0
   15.9779  -18.6059    6.9846 H   0  0  0  0  0  0  0  0  0  0  0  0
  1  2  1  0  0  0  0
  1 10  2  0  0  0  0
  2  3  1  0  0  0  0
  2  4  1  0  0  0  0
  4  5  2  0  0  0  0
  4 12  1  0  0  0  0
  5  6  1  0  0  0  0
  5  9  1  0  0  0  0
  6  7  2  0  0  0  0
  7  8  1  0  0  0  0
  7 11  1  0  0  0  0
  8  9  2  0  0  0  0
  9 10  1  0  0  0  0
 12 13  1  0  0  0  0
 12 14  1  0  0  0  0
M  END
>  <CHROM.0>
-43.37533143,-62.93726516,-53.35326714,-51.35519216,-56.56453708,-58.43312140
-59.11598102,-176.94410086,-167.76664700,160.52751877

>  <CHROM.1>
-59.72367421,18.61625561,-18.60513340,4.43341502,-1.55971011,-0.29014670
-1.52881656

>  <Name>
8-chloroadenine

>  <RI>
0

>  <Rbt.Current_Directory>
/home/fstefaniak/projects/zuza/docking/adenine/1Y26

>  <Rbt.Executable>
rbdock ($Id: //depot/dev/client3/rdock/2013.1/src/exe/rbdock.cxx#4 $)

>  <Rbt.Library>
libRbt.so (2013.1, Build901 2013/11/27)

>  <Rbt.Parameter_File>
/home/fstefaniak/progs/rDock//data/scripts/dock_solv.prm

>  <Rbt.Receptor>
1y26.prm

>  <SCORE>
-57.7294

>  <SCORE.INTER>
-34.9692

>  <SCORE.INTER.CONST>
1

>  <SCORE.INTER.POLAR>
-3.9347

>  <SCORE.INTER.ROT>
1

>  <SCORE.INTER.SOLV>
14.213

>  <SCORE.INTER.VDW>
-19.2015

>  <SCORE.INTER.norm>
-3.17902

>  <SCORE.INTRA>
-0.175505

>  <SCORE.INTRA.DIHEDRAL>
0.000939575

>  <SCORE.INTRA.DIHEDRAL.0>
0.479227

>  <SCORE.INTRA.POLAR>
0

>  <SCORE.INTRA.POLAR.0>
0

>  <SCORE.INTRA.REPUL>
0

>  <SCORE.INTRA.REPUL.0>
0

>  <SCORE.INTRA.SOLV>
0.0450945

>  <SCORE.INTRA.SOLV.lig_0>
-14.9066

>  <SCORE.INTRA.VDW>
-0.198523

>  <SCORE.INTRA.VDW.0>
-0.188036

>  <SCORE.INTRA.norm>
-0.015955

>  <SCORE.RESTR>
0

>  <SCORE.RESTR.CAVITY>
0

>  <SCORE.RESTR.norm>
0

>  <SCORE.SYSTEM>
-22.5846

>  <SCORE.SYSTEM.CONST>
0

>  <SCORE.SYSTEM.DIHEDRAL>
6.29488

>  <SCORE.SYSTEM.POLAR>
-3.57998

>  <SCORE.SYSTEM.SOLV>
0.467539

>  <SCORE.SYSTEM.VDW>
-5.37727

>  <SCORE.SYSTEM.norm>
-2.05315

>  <SCORE.heavy>
11

>  <SCORE.norm>
-5.24812

$$$$
8-chloroadenine
 OpenBabel12072022103D
libRbt.so/2013.1/901 2013/11/27
 14 15  0  0  0  0  0  0  0  0999 V2000
   19.9805  -18.3169    6.9044 C   0  0  0  0  0  0  0  0  0  0  0  0
   18.6856  -18.6747    7.1781 N   0  0  0  0  0  0  0  0  0  0  0  0
   18.4099  -18.9582    8.1093 H   0  0  0  0  0  0  0  0  0  0  0  0
   17.7813  -18.9340    6.1725 C   0  0  0  0  0  0  0  0  0  0  0  0
   18.2252  -18.7653    4.9161 C   0  0  0  0  0  0  0  0  0  0  0  0
   17.6354  -18.8917    3.6904 N   0  0  0  0  0  0  0  0  0  0  0  0
   18.6142  -18.5662    2.8882 C   0  0  0  0  0  0  0  0  0  0  0  0
   19.8397  -18.2175    3.4321 N   0  0  0  0  0  0  0  0  0  0  0  0
   19.6108  -18.3388    4.7012 C   0  0  0  0  0  0  0  0  0  0  0  0
   20.4847  -18.1262    5.7265 N   0  0  0  0  0  0  0  0  0  0  0  0
   18.4240  -18.5536    1.2030 Cl  0  0  0  0  0  0  0  0  0  0  0  0
   16.4971  -19.3405    6.4625 N   0  0  0  0  0  0  0  0  0  0  0  0
   16.4810  -20.1998    7.0041 H   0  0  0  0  0  0  0  0  0  0  0  0
   15.9858  -18.5997    6.9491 H   0  0  0  0  0  0  0  0  0  0  0  0
  1  2  1  0  0  0  0
  1 10  2  0  0  0  0
  2  3  1  0  0  0  0
  2  4  1  0  0  0  0
  4  5  2  0  0  0  0
  4 12  1  0  0  0  0
  5  6  1  0  0  0  0
  5  9  1  0  0  0  0
  6  7  2  0  0  0  0
  7  8  1  0  0  0  0
  7 11  1  0  0  0  0
  8  9  2  0  0  0  0
  9 10  1  0  0  0  0
 12 13  1  0  0  0  0
 12 14  1  0  0  0  0
M  END
>  <CHROM.0>
-42.91227811,-61.94691052,-52.73116103,-51.83656802,-55.16884716,-60.99301558
-59.78657938,-176.78664419,-166.29612993,160.12154373

>  <CHROM.1>
-58.66936563,18.63975530,-18.61536835,4.42375663,-1.56389496,-0.28867051
-1.53247146

>  <Name>
8-chloroadenine

>  <RI>
0

>  <Rbt.Current_Directory>
/home/fstefaniak/projects/zuza/docking/adenine/1Y26

>  <Rbt.Executable>
rbdock ($Id: //depot/dev/client3/rdock/2013.1/src/exe/rbdock.cxx#4 $)

>  <Rbt.Library>
libRbt.so (2013.1, Build901 2013/11/27)

>  <Rbt.Parameter_File>
/home/fstefaniak/progs/rDock//data/scripts/dock_solv.prm

>  <Rbt.Receptor>
1y26.prm

>  <SCORE>
-57.7061

>  <SCORE.INTER>
-34.9294

>  <SCORE.INTER.CONST>
1

>  <SCORE.INTER.POLAR>
-3.95474

>  <SCORE.INTER.ROT>
1

>  <SCORE.INTER.SOLV>
14.204

>  <SCORE.INTER.VDW>
-19.1051

>  <SCORE.INTER.norm>
-3.1754

>  <SCORE.INTRA>
-0.175288

>  <SCORE.INTRA.DIHEDRAL>
0.00101607

>  <SCORE.INTRA.DIHEDRAL.0>
0.479227

>  <SCORE.INTRA.POLAR>
0

>  <SCORE.INTRA.POLAR.0>
0

>  <SCORE.INTRA.REPUL>
0

>  <SCORE.INTRA.REPUL.0>
0

>  <SCORE.INTRA.SOLV>
0.0450345

>  <SCORE.INTRA.SOLV.lig_0>
-14.9066

>  <SCORE.INTRA.VDW>
-0.198314

>  <SCORE.INTRA.VDW.0>
-0.188036

>  <SCORE.INTRA.norm>
-0.0159353

>  <SCORE.RESTR>
0

>  <SCORE.RESTR.CAVITY>
0

>  <SCORE.RESTR.norm>
0

>  <SCORE.SYSTEM>
-22.6014

>  <SCORE.SYSTEM.CONST>
0

>  <SCORE.SYSTEM.DIHEDRAL>
6.61015

>  <SCORE.SYSTEM.POLAR>
-3.60403

>  <SCORE.SYSTEM.SOLV>
0.462193

>  <SCORE.SYSTEM.VDW>
-5.41161

>  <SCORE.SYSTEM.norm>
-2.05467

>  <SCORE.heavy>
11

>  <SCORE.norm>
-5.24601

$$$$
8-chloroadenine
 OpenBabel12072022103D
libRbt.so/2013.1/901 2013/11/27
 14 15  0  0  0  0  0  0  0  0999 V2000
   19.9936  -18.3322    6.8906 C   0  0  0  0  0  0  0  0  0  0  0  0
   18.6978  -18.6777    7.1758 N   0  0  0  0  0  0  0  0  0  0  0  0
   18.4275  -18.9576    8.1097 H   0  0  0  0  0  0  0  0  0  0  0  0
   17.7827  -18.9300    6.1783 C   0  0  0  0  0  0  0  0  0  0  0  0
   18.2173  -18.7671    4.9180 C   0  0  0  0  0  0  0  0  0  0  0  0
   17.6160  -18.8896    3.6975 N   0  0  0  0  0  0  0  0  0  0  0  0
   18.5908  -18.5741    2.8865 C   0  0  0  0  0  0  0  0  0  0  0  0
   19.8240  -18.2360    3.4195 N   0  0  0  0  0  0  0  0  0  0  0  0
   19.6049  -18.3536    4.6906 C   0  0  0  0  0  0  0  0  0  0  0  0
   20.4894  -18.1476    5.7081 N   0  0  0  0  0  0  0  0  0  0  0  0
   18.3863  -18.5619    1.2030 Cl  0  0  0  0  0  0  0  0  0  0  0  0
   16.4974  -19.3245    6.4798 N   0  0  0  0  0  0  0  0  0  0  0  0
   16.4770  -20.1953    7.0024 H   0  0  0  0  0  0  0  0  0  0  0  0
   16.0048  -18.5875    6.9909 H   0  0  0  0  0  0  0  0  0  0  0  0
  1  2  1  0  0  0  0
  1 10  2  0  0  0  0
  2  3  1  0  0  0  0
  2  4  1  0  0  0  0
  4  5  2  0  0  0  0
  4 12  1  0  0  0  0
  5  6  1  0  0  0  0
  5  9  1  0  0  0  0
  6  7  2  0  0  0  0
  7  8  1  0  0  0  0
  7 11  1  0  0  0  0
  8  9  2  0  0  0  0
  9 10  1  0  0  0  0
 12 13  1  0  0  0  0
 12 14  1  0  0  0  0
M  END
>  <CHROM.0>
-41.36228299,-62.42823159,-54.83463825,-51.22776279,-55.21234680,-57.22075823
-57.01038284,-177.00263818,-167.20422777,159.83524688

>  <CHROM.1>
-60.12610106,18.62907245,-18.62169173,4.42187716,-1.55537571,-0.27947829
-1.53136987

>  <Name>
8-chloroadenine

>  <RI>
0

>  <Rbt.Current_Directory>
/home/fstefaniak/projects/zuza/docking/adenine/1Y26

>  <Rbt.Executable>
rbdock ($Id: //depot/dev/client3/rdock/2013.1/src/exe/rbdock.cxx#4 $)

>  <Rbt.Library>
libRbt.so (2013.1, Build901 2013/11/27)

>  <Rbt.Parameter_File>
/home/fstefaniak/progs/rDock//data/scripts/dock_solv.prm

>  <Rbt.Receptor>
1y26.prm

>  <SCORE>
-57.6936

>  <SCORE.INTER>
-35.057

>  <SCORE.INTER.CONST>
1

>  <SCORE.INTER.POLAR>
-3.96622

>  <SCORE.INTER.ROT>
1

>  <SCORE.INTER.SOLV>
14.2226

>  <SCORE.INTER.VDW>
-19.1581

>  <SCORE.INTER.norm>
-3.187

>  <SCORE.INTRA>
-0.175565

>  <SCORE.INTRA.DIHEDRAL>
0.000910232

>  <SCORE.INTRA.DIHEDRAL.0>
0.479227

>  <SCORE.INTRA.POLAR>
0

>  <SCORE.INTRA.POLAR.0>
0

>  <SCORE.INTRA.REPUL>
0

>  <SCORE.INTRA.REPUL.0>
0

>  <SCORE.INTRA.SOLV>
0.0451145

>  <SCORE.INTRA.SOLV.lig_0>
-14.9066

>  <SCORE.INTRA.VDW>
-0.198577

>  <SCORE.INTRA.VDW.0>
-0.188036

>  <SCORE.INTRA.norm>
-0.0159605

>  <SCORE.RESTR>
0

>  <SCORE.RESTR.CAVITY>
0

>  <SCORE.RESTR.norm>
0

>  <SCORE.SYSTEM>
-22.461

>  <SCORE.SYSTEM.CONST>
0

>  <SCORE.SYSTEM.DIHEDRAL>
6.7837

>  <SCORE.SYSTEM.POLAR>
-3.62034

>  <SCORE.SYSTEM.SOLV>
0.474721

>  <SCORE.SYSTEM.VDW>
-5.32571

>  <SCORE.SYSTEM.norm>
-2.04191

>  <SCORE.heavy>
11

>  <SCORE.norm>
-5.24487

$$$$
N6,N6-dimethyladenine
 OpenBabel12072022103D
libRbt.so/2013.1/901 2013/11/27
 13 14  0  0  0  0  0  0  0  0999 V2000
   21.3169  -14.7932    4.2994 C   0  0  0  0  0  0  0  0  0  0  0  0
   21.6789  -16.1967    4.4374 N   0  0  0  0  0  0  0  0  0  0  0  0
   23.0411  -16.5647    4.0775 C   0  0  0  0  0  0  0  0  0  0  0  0
   20.6644  -17.1023    4.0871 C   0  0  0  0  0  0  0  0  0  0  0  0
   20.0122  -17.9972    4.9786 C   0  0  0  0  0  0  0  0  0  0  0  0
   19.0115  -18.7984    4.4498 C   0  0  0  0  0  0  0  0  0  0  0  0
   18.5528  -19.5491    5.4923 N   0  0  0  0  0  0  0  0  0  0  0  0
   17.8139  -20.2329    5.4344 H   0  0  0  0  0  0  0  0  0  0  0  0
   19.2702  -19.2004    6.6007 C   0  0  0  0  0  0  0  0  0  0  0  0
   20.1622  -18.2724    6.3313 N   0  0  0  0  0  0  0  0  0  0  0  0
   18.5658  -18.8464    3.1883 N   0  0  0  0  0  0  0  0  0  0  0  0
   19.2358  -17.9688    2.4224 C   0  0  0  0  0  0  0  0  0  0  0  0
   20.2275  -17.1291    2.7868 N   0  0  0  0  0  0  0  0  0  0  0  0
  1  2  1  0  0  0  0
  2  3  1  0  0  0  0
  2  4  1  0  0  0  0
  4  5  2  0  0  0  0
  4 13  1  0  0  0  0
  5  6  1  0  0  0  0
  5 10  1  0  0  0  0
  6  7  1  0  0  0  0
  6 11  2  0  0  0  0
  7  8  1  0  0  0  0
  7  9  1  0  0  0  0
  9 10  2  0  0  0  0
 11 12  1  0  0  0  0
 12 13  2  0  0  0  0
M  END
>  <CHROM.0>
-47.69412977,-172.09249785,-55.29857601,-51.66653450,-174.30099629,-55.17273073
-54.54445206,-176.28028307,-166.71185575,161.18251028

>  <CHROM.1>
-114.71495967,20.17610981,-17.67130776,4.42869871,-0.48080861,0.73324479
1.90122072

>  <Name>
N6,N6-dimethyladenine

>  <RI>
0

>  <Rbt.Current_Directory>
/home/fstefaniak/projects/zuza/docking/adenine/1Y26

>  <Rbt.Executable>
rbdock ($Id: //depot/dev/client3/rdock/2013.1/src/exe/rbdock.cxx#4 $)

>  <Rbt.Library>
libRbt.so (2013.1, Build901 2013/11/27)

>  <Rbt.Parameter_File>
/home/fstefaniak/progs/rDock//data/scripts/dock_solv.prm

>  <Rbt.Receptor>
1y26.prm

>  <SCORE>
-63.6709

>  <SCORE.INTER>
-38.452

>  <SCORE.INTER.CONST>
1

>  <SCORE.INTER.POLAR>
-4.17211

>  <SCORE.INTER.ROT>
1

>  <SCORE.INTER.SOLV>
12.6491

>  <SCORE.INTER.VDW>
-20.2107

>  <SCORE.INTER.norm>
-3.20434

>  <SCORE.INTRA>
-2.61373

>  <SCORE.INTRA.DIHEDRAL>
-0.0192233

>  <SCORE.INTRA.DIHEDRAL.0>
0.494379

>  <SCORE.INTRA.POLAR>
0

>  <SCORE.INTRA.POLAR.0>
0

>  <SCORE.INTRA.REPUL>
0

>  <SCORE.INTRA.REPUL.0>
0

>  <SCORE.INTRA.SOLV>
0.0231957

>  <SCORE.INTRA.SOLV.lig_0>
-15.6396

>  <SCORE.INTRA.VDW>
-2.61572

>  <SCORE.INTRA.VDW.0>
2.19664

>  <SCORE.INTRA.norm>
-0.217811

>  <SCORE.RESTR>
0

>  <SCORE.RESTR.CAVITY>
0

>  <SCORE.RESTR.norm>
0

>  <SCORE.SYSTEM>
-22.6052

>  <SCORE.SYSTEM.CONST>
0

>  <SCORE.SYSTEM.DIHEDRAL>
6.23718

>  <SCORE.SYSTEM.POLAR>
-3.51142

>  <SCORE.SYSTEM.SOLV>
0.248646

>  <SCORE.SYSTEM.VDW>
-5.52734

>  <SCORE.SYSTEM.norm>
-1.88377

>  <SCORE.heavy>
12

>  <SCORE.norm>
-5.30591

$$$$
N6,N6-dimethyladenine
 OpenBabel12072022103D
libRbt.so/2013.1/901 2013/11/27
 13 14  0  0  0  0  0  0  0  0999 V2000
   21.3443  -14.8125    4.2918 C   0  0  0  0  0  0  0  0  0  0  0  0
   21.6915  -16.2198    4.4289 N   0  0  0  0  0  0  0  0  0  0  0  0
   23.0489  -16.6023    4.0662 C   0  0  0  0  0  0  0  0  0  0  0  0
   20.6666  -17.1144    4.0806 C   0  0  0  0  0  0  0  0  0  0  0  0
   20.0084  -18.0042    4.9728 C   0  0  0  0  0  0  0  0  0  0  0  0
   18.9978  -18.7942    4.4460 C   0  0  0  0  0  0  0  0  0  0  0  0
   18.5351  -19.5421    5.4889 N   0  0  0  0  0  0  0  0  0  0  0  0
   17.7891  -20.2183    5.4323 H   0  0  0  0  0  0  0  0  0  0  0  0
   19.2598  -19.2027    6.5954 C   0  0  0  0  0  0  0  0  0  0  0  0
   20.1604  -18.2834    6.3244 N   0  0  0  0  0  0  0  0  0  0  0  0
   18.5473  -18.8355    3.1861 N   0  0  0  0  0  0  0  0  0  0  0  0
   19.2235  -17.9633    2.4194 C   0  0  0  0  0  0  0  0  0  0  0  0
   20.2250  -17.1344    2.7818 N   0  0  0  0  0  0  0  0  0  0  0  0
  1  2  1  0  0  0  0
  2  3  1  0  0  0  0
  2  4  1  0  0  0  0
  4  5  2  0  0  0  0
  4 13  1  0  0  0  0
  5  6  1  0  0  0  0
  5 10  1  0  0  0  0
  6  7  1  0  0  0  0
  6 11  2  0  0  0  0
  7  8  1  0  0  0  0
  7  9  1  0  0  0  0
  9 10  2  0  0  0  0
 11 12  1  0  0  0  0
 12 13  2  0  0  0  0
M  END
>  <CHROM.0>
-51.02725966,-172.56696070,-51.84632652,-52.13856227,-57.19921664,-57.19787823
-63.66603290,-52.79373758,-167.54471321,160.40863681

>  <CHROM.1>
-114.84354255,20.17385811,-17.67914735,4.42286815,-0.48115991,0.72219881
1.90354561

>  <Name>
N6,N6-dimethyladenine

>  <RI>
0

>  <Rbt.Current_Directory>
/home/fstefaniak/projects/zuza/docking/adenine/1Y26

>  <Rbt.Executable>
rbdock ($Id: //depot/dev/client3/rdock/2013.1/src/exe/rbdock.cxx#4 $)

>  <Rbt.Library>
libRbt.so (2013.1, Build901 2013/11/27)

>  <Rbt.Parameter_File>
/home/fstefaniak/progs/rDock//data/scripts/dock_solv.prm

>  <Rbt.Receptor>
1y26.prm

>  <SCORE>
-63.453

>  <SCORE.INTER>
-38.4577

>  <SCORE.INTER.CONST>
1

>  <SCORE.INTER.POLAR>
-4.17355

>  <SCORE.INTER.ROT>
1

>  <SCORE.INTER.SOLV>
12.63

>  <SCORE.INTER.VDW>
-20.2033

>  <SCORE.INTER.norm>
-3.2048

>  <SCORE.INTRA>
-2.61241

>  <SCORE.INTRA.DIHEDRAL>
-0.0193143

>  <SCORE.INTRA.DIHEDRAL.0>
0.494379

>  <SCORE.INTRA.POLAR>
0

>  <SCORE.INTRA.POLAR.0>
0

>  <SCORE.INTRA.REPUL>
0

>  <SCORE.INTRA.REPUL.0>
0

>  <SCORE.INTRA.SOLV>
0.0232022

>  <SCORE.INTRA.SOLV.lig_0>
-15.6396

>  <SCORE.INTRA.VDW>
-2.61436

>  <SCORE.INTRA.VDW.0>
2.19664

>  <SCORE.INTRA.norm>
-0.217701

>  <SCORE.RESTR>
0

>  <SCORE.RESTR.CAVITY>
0

>  <SCORE.RESTR.norm>
0

>  <SCORE.SYSTEM>
-22.383

>  <SCORE.SYSTEM.CONST>
0

>  <SCORE.SYSTEM.DIHEDRAL>
5.98005

>  <SCORE.SYSTEM.POLAR>
-3.5021

>  <SCORE.SYSTEM.SOLV>
0.599424

>  <SCORE.SYSTEM.VDW>
-5.44146

>  <SCORE.SYSTEM.norm>
-1.86525

>  <SCORE.heavy>
12

>  <SCORE.norm>
-5.28775

$$$$
N6,N6-dimethyladenine
 OpenBabel12072022103D
libRbt.so/2013.1/901 2013/11/27
 13 14  0  0  0  0  0  0  0  0999 V2000
   21.3389  -14.8173    4.2715 C   0  0  0  0  0  0  0  0  0  0  0  0
   21.6909  -16.2221    4.4212 N   0  0  0  0  0  0  0  0  0  0  0  0
   23.0532  -16.6010    4.0732 C   0  0  0  0  0  0  0  0  0  0  0  0
   20.6731  -17.1235    4.0699 C   0  0  0  0  0  0  0  0  0  0  0  0
   20.0122  -18.0115    4.9619 C   0  0  0  0  0  0  0  0  0  0  0  0
   19.0095  -18.8093    4.4316 C   0  0  0  0  0  0  0  0  0  0  0  0
   18.5422  -19.5536    5.4750 N   0  0  0  0  0  0  0  0  0  0  0  0
   17.7999  -20.2337    5.4164 H   0  0  0  0  0  0  0  0  0  0  0  0
   19.2566  -19.2046    6.5852 C   0  0  0  0  0  0  0  0  0  0  0  0
   20.1548  -18.2824    6.3162 N   0  0  0  0  0  0  0  0  0  0  0  0
   18.5692  -18.8598    3.1684 N   0  0  0  0  0  0  0  0  0  0  0  0
   19.2473  -17.9886    2.4022 C   0  0  0  0  0  0  0  0  0  0  0  0
   20.2418  -17.1529    2.7678 N   0  0  0  0  0  0  0  0  0  0  0  0
  1  2  1  0  0  0  0
  2  3  1  0  0  0  0
  2  4  1  0  0  0  0
  4  5  2  0  0  0  0
  4 13  1  0  0  0  0
  5  6  1  0  0  0  0
  5 10  1  0  0  0  0
  6  7  1  0  0  0  0
  6 11  2  0  0  0  0
  7  8  1  0  0  0  0
  7  9  1  0  0  0  0
  9 10  2  0  0  0  0
 11 12  1  0  0  0  0
 12 13  2  0  0  0  0
M  END
>  <CHROM.0>
-55.81276589,-168.09141268,-55.15446555,-51.42292498,-55.50287153,-174.08892725
-54.78331203,-175.28233893,-166.57602139,160.80092845

>  <CHROM.1>
-114.93664503,20.18048988,-17.68882161,4.41141762,-0.47355492,0.72907819
1.89314310

>  <Name>
N6,N6-dimethyladenine

>  <RI>
0

>  <Rbt.Current_Directory>
/home/fstefaniak/projects/zuza/docking/adenine/1Y26

>  <Rbt.Executable>
rbdock ($Id: //depot/dev/client3/rdock/2013.1/src/exe/rbdock.cxx#4 $)

>  <Rbt.Library>
libRbt.so (2013.1, Build901 2013/11/27)

>  <Rbt.Parameter_File>
/home/fstefaniak/progs/rDock//data/scripts/dock_solv.prm

>  <Rbt.Receptor>
1y26.prm

>  <SCORE>
-63.4432

>  <SCORE.INTER>
-38.4987

>  <SCORE.INTER.CONST>
1

>  <SCORE.INTER.POLAR>
-4.16302

>  <SCORE.INTER.ROT>
1

>  <SCORE.INTER.SOLV>
12.6565

>  <SCORE.INTER.VDW>
-20.2746

>  <SCORE.INTER.norm>
-3.20823

>  <SCORE.INTRA>
-2.61145

>  <SCORE.INTRA.DIHEDRAL>
-0.0193801

>  <SCORE.INTRA.DIHEDRAL.0>
0.494379

>  <SCORE.INTRA.POLAR>
0

>  <SCORE.INTRA.POLAR.0>
0

>  <SCORE.INTRA.REPUL>
0

>  <SCORE.INTRA.REPUL.0>
0

>  <SCORE.INTRA.SOLV>
0.023207

>  <SCORE.INTRA.SOLV.lig_0>
-15.6396

>  <SCORE.INTRA.VDW>
-2.61336

>  <SCORE.INTRA.VDW.0>
2.19664

>  <SCORE.INTRA.norm>
-0.21762

>  <SCORE.RESTR>
0

>  <SCORE.RESTR.CAVITY>
0

>  <SCORE.RESTR.norm>
0

>  <SCORE.SYSTEM>
-22.3331

>  <SCORE.SYSTEM.CONST>
0

>  <SCORE.SYSTEM.DIHEDRAL>
6.08807

>  <SCORE.SYSTEM.POLAR>
-3.41017

>  <SCORE.SYSTEM.SOLV>
0.253086

>  <SCORE.SYSTEM.VDW>
-5.6352

>  <SCORE.SYSTEM.norm>
-1.86109

>  <SCORE.heavy>
12

>  <SCORE.norm>
-5.28694

$$$$
N6-methyladenine
 OpenBabel12072022103D
libRbt.so/2013.1/901 2013/11/27
 13 14  0  0  0  0  0  0  0  0999 V2000
   21.7770  -15.2727    3.7911 C   0  0  0  0  0  0  0  0  0  0  0  0
   20.6417  -15.6439    4.6060 N   0  0  0  0  0  0  0  0  0  0  0  0
   19.9679  -16.7992    4.1955 C   0  0  0  0  0  0  0  0  0  0  0  0
   19.6676  -17.8362    5.1013 C   0  0  0  0  0  0  0  0  0  0  0  0
   18.9804  -18.9269    4.5990 C   0  0  0  0  0  0  0  0  0  0  0  0
   18.8185  -19.7663    5.6622 N   0  0  0  0  0  0  0  0  0  0  0  0
   18.3473  -20.6577    5.6342 H   0  0  0  0  0  0  0  0  0  0  0  0
   19.4081  -19.1768    6.7477 C   0  0  0  0  0  0  0  0  0  0  0  0
   19.9382  -18.0099    6.4464 N   0  0  0  0  0  0  0  0  0  0  0  0
   18.5591  -19.1268    3.3430 N   0  0  0  0  0  0  0  0  0  0  0  0
   18.8991  -18.0814    2.5616 C   0  0  0  0  0  0  0  0  0  0  0  0
   19.5684  -16.9582    2.9043 N   0  0  0  0  0  0  0  0  0  0  0  0
   20.8107  -15.6831    5.6094 H   0  0  0  0  0  0  0  0  0  0  0  0
  1  2  1  0  0  0  0
  2  3  1  0  0  0  0
  2 13  1  0  0  0  0
  3  4  2  0  0  0  0
  3 12  1  0  0  0  0
  4  5  1  0  0  0  0
  4  9  1  0  0  0  0
  5  6  1  0  0  0  0
  5 10  2  0  0  0  0
  6  7  1  0  0  0  0
  6  8  1  0  0  0  0
  8  9  2  0  0  0  0
 10 11  1  0  0  0  0
 11 12  2  0  0  0  0
M  END
>  <CHROM.0>
-49.93738182,-170.04168652,-58.75362557,-52.05589704,-56.03985956,-56.95479120
-61.14976095,-177.92597828,-168.24665706,160.45163531

>  <CHROM.1>
130.03581093,19.68189100,-17.75550149,4.54593768,-0.73349171,0.94751122,1.95944860

>  <Name>
N6-methyladenine

>  <RI>
0

>  <Rbt.Current_Directory>
/home/fstefaniak/projects/zuza/docking/adenine/1Y26

>  <Rbt.Executable>
rbdock ($Id: //depot/dev/client3/rdock/2013.1/src/exe/rbdock.cxx#4 $)

>  <Rbt.Library>
libRbt.so (2013.1, Build901 2013/11/27)

>  <Rbt.Parameter_File>
/home/fstefaniak/progs/rDock//data/scripts/dock_solv.prm

>  <Rbt.Receptor>
1y26.prm

>  <SCORE>
-67.9364

>  <SCORE.INTER>
-44.6842

>  <SCORE.INTER.CONST>
1

>  <SCORE.INTER.POLAR>
-5.30462

>  <SCORE.INTER.ROT>
1

>  <SCORE.INTER.SOLV>
14.1275

>  <SCORE.INTER.VDW>
-21.0832

>  <SCORE.INTER.norm>
-4.0622

>  <SCORE.INTRA>
-0.517437

>  <SCORE.INTRA.DIHEDRAL>
-0.00455681

>  <SCORE.INTRA.DIHEDRAL.0>
0.485619

>  <SCORE.INTRA.POLAR>
0

>  <SCORE.INTRA.POLAR.0>
0

>  <SCORE.INTRA.REPUL>
0

>  <SCORE.INTRA.REPUL.0>
0

>  <SCORE.INTRA.SOLV>
-0.0298961

>  <SCORE.INTRA.SOLV.lig_0>
-16.3399

>  <SCORE.INTRA.VDW>
-0.50021

>  <SCORE.INTRA.VDW.0>
0.597698

>  <SCORE.INTRA.norm>
-0.0470397

>  <SCORE.RESTR>
0

>  <SCORE.RESTR.CAVITY>
0

>  <SCORE.RESTR.norm>
0

>  <SCORE.SYSTEM>
-22.7348

>  <SCORE.SYSTEM.CONST>
0

>  <SCORE.SYSTEM.DIHEDRAL>
5.67382

>  <SCORE.SYSTEM.POLAR>
-3.43483

>  <SCORE.SYSTEM.SOLV>
0.386379

>  <SCORE.SYSTEM.VDW>
-5.72717

>  <SCORE.SYSTEM.norm>
-2.0668

>  <SCORE.heavy>
11

>  <SCORE.norm>
-6.17604

$$$$
N6-methyladenine
 OpenBabel12072022103D
libRbt.so/2013.1/901 2013/11/27
 13 14  0  0  0  0  0  0  0  0999 V2000
   21.7599  -15.3135    3.7858 C   0  0  0  0  0  0  0  0  0  0  0  0
   20.6207  -15.6672    4.6030 N   0  0  0  0  0  0  0  0  0  0  0  0
   19.9468  -16.8292    4.2122 C   0  0  0  0  0  0  0  0  0  0  0  0
   19.6506  -17.8529    5.1344 C   0  0  0  0  0  0  0  0  0  0  0  0
   18.9630  -18.9517    4.6508 C   0  0  0  0  0  0  0  0  0  0  0  0
   18.8055  -19.7752    5.7270 N   0  0  0  0  0  0  0  0  0  0  0  0
   18.3352  -20.6674    5.7140 H   0  0  0  0  0  0  0  0  0  0  0  0
   19.3980  -19.1689    6.8016 C   0  0  0  0  0  0  0  0  0  0  0  0
   19.9259  -18.0060    6.4811 N   0  0  0  0  0  0  0  0  0  0  0  0
   18.5378  -19.1709    3.3994 N   0  0  0  0  0  0  0  0  0  0  0  0
   18.8740  -18.1370    2.6012 C   0  0  0  0  0  0  0  0  0  0  0  0
   19.5432  -17.0081    2.9248 N   0  0  0  0  0  0  0  0  0  0  0  0
   20.7855  -15.6872    5.6076 H   0  0  0  0  0  0  0  0  0  0  0  0
  1  2  1  0  0  0  0
  2  3  1  0  0  0  0
  2 13  1  0  0  0  0
  3  4  2  0  0  0  0
  3 12  1  0  0  0  0
  4  5  1  0  0  0  0
  4  9  1  0  0  0  0
  5  6  1  0  0  0  0
  5 10  2  0  0  0  0
  6  7  1  0  0  0  0
  6  8  1  0  0  0  0
  8  9  2  0  0  0  0
 10 11  1  0  0  0  0
 11 12  2  0  0  0  0
M  END
>  <CHROM.0>
-53.23705097,-169.67632286,-56.02399883,-53.59640204,-55.95901489,-58.96242877
-58.18431290,-176.88454693,-167.31056985,160.52193309

>  <CHROM.1>
129.52187447,19.66364338,-17.78112046,4.57855994,-0.73797117,0.94639162,1.94911124

>  <Name>
N6-methyladenine

>  <RI>
0

>  <Rbt.Current_Directory>
/home/fstefaniak/projects/zuza/docking/adenine/1Y26

>  <Rbt.Executable>
rbdock ($Id: //depot/dev/client3/rdock/2013.1/src/exe/rbdock.cxx#4 $)

>  <Rbt.Library>
libRbt.so (2013.1, Build901 2013/11/27)

>  <Rbt.Parameter_File>
/home/fstefaniak/progs/rDock//data/scripts/dock_solv.prm

>  <Rbt.Receptor>
1y26.prm

>  <SCORE>
-67.8725

>  <SCORE.INTER>
-44.6163

>  <SCORE.INTER.CONST>
1

>  <SCORE.INTER.POLAR>
-5.27842

>  <SCORE.INTER.ROT>
1

>  <SCORE.INTER.SOLV>
14.1374

>  <SCORE.INTER.VDW>
-21.1286

>  <SCORE.INTER.norm>
-4.05603

>  <SCORE.INTRA>
-0.5292

>  <SCORE.INTRA.DIHEDRAL>
-0.00471493

>  <SCORE.INTRA.DIHEDRAL.0>
0.485619

>  <SCORE.INTRA.POLAR>
0

>  <SCORE.INTRA.POLAR.0>
0

>  <SCORE.INTRA.REPUL>
0

>  <SCORE.INTRA.REPUL.0>
0

>  <SCORE.INTRA.SOLV>
-0.0307773

>  <SCORE.INTRA.SOLV.lig_0>
-16.3399

>  <SCORE.INTRA.VDW>
-0.511454

>  <SCORE.INTRA.VDW.0>
0.597698

>  <SCORE.INTRA.norm>
-0.0481091

>  <SCORE.RESTR>
0

>  <SCORE.RESTR.CAVITY>
0

>  <SCORE.RESTR.norm>
0

>  <SCORE.SYSTEM>
-22.727

>  <SCORE.SYSTEM.CONST>
0

>  <SCORE.SYSTEM.DIHEDRAL>
5.50183

>  <SCORE.SYSTEM.POLAR>
-3.38119

>  <SCORE.SYSTEM.SOLV>
0.386993

>  <SCORE.SYSTEM.VDW>
-5.84366

>  <SCORE.SYSTEM.norm>
-2.06609

>  <SCORE.heavy>
11

>  <SCORE.norm>
-6.17023

$$$$
N6-methyladenine
 OpenBabel12072022103D
libRbt.so/2013.1/901 2013/11/27
 13 14  0  0  0  0  0  0  0  0999 V2000
   21.7550  -15.2537    3.8216 C   0  0  0  0  0  0  0  0  0  0  0  0
   20.6176  -15.6342    4.6292 N   0  0  0  0  0  0  0  0  0  0  0  0
   19.9672  -16.8052    4.2256 C   0  0  0  0  0  0  0  0  0  0  0  0
   19.6489  -17.8240    5.1458 C   0  0  0  0  0  0  0  0  0  0  0  0
   18.9873  -18.9327    4.6484 C   0  0  0  0  0  0  0  0  0  0  0  0
   18.8007  -19.7489    5.7256 N   0  0  0  0  0  0  0  0  0  0  0  0
   18.3387  -20.6453    5.7042 H   0  0  0  0  0  0  0  0  0  0  0  0
   19.3514  -19.1288    6.8144 C   0  0  0  0  0  0  0  0  0  0  0  0
   19.8798  -17.9639    6.5022 N   0  0  0  0  0  0  0  0  0  0  0  0
   18.6065  -19.1657    3.3853 N   0  0  0  0  0  0  0  0  0  0  0  0
   18.9607  -18.1353    2.5903 C   0  0  0  0  0  0  0  0  0  0  0  0
   19.6089  -16.9980    2.9269 N   0  0  0  0  0  0  0  0  0  0  0  0
   20.7768  -15.6589    5.6347 H   0  0  0  0  0  0  0  0  0  0  0  0
  1  2  1  0  0  0  0
  2  3  1  0  0  0  0
  2 13  1  0  0  0  0
  3  4  2  0  0  0  0
  3 12  1  0  0  0  0
  4  5  1  0  0  0  0
  4  9  1  0  0  0  0
  5  6  1  0  0  0  0
  5 10  2  0  0  0  0
  6  7  1  0  0  0  0
  6  8  1  0  0  0  0
  8  9  2  0  0  0  0
 10 11  1  0  0  0  0
 11 12  2  0  0  0  0
M  END
>  <CHROM.0>
-50.59116977,-166.66713236,-58.90293092,-52.51481985,-57.68842114,-61.73816275
-64.25483244,-176.28862890,-167.05683968,160.06589221

>  <CHROM.1>
131.42807183,19.67761827,-17.75434958,4.58744378,-0.69346229,0.96957367,1.90059520

>  <Name>
N6-methyladenine

>  <RI>
0

>  <Rbt.Current_Directory>
/home/fstefaniak/projects/zuza/docking/adenine/1Y26

>  <Rbt.Executable>
rbdock ($Id: //depot/dev/client3/rdock/2013.1/src/exe/rbdock.cxx#4 $)

>  <Rbt.Library>
libRbt.so (2013.1, Build901 2013/11/27)

>  <Rbt.Parameter_File>
/home/fstefaniak/progs/rDock//data/scripts/dock_solv.prm

>  <Rbt.Receptor>
1y26.prm

>  <SCORE>
-67.8124

>  <SCORE.INTER>
-44.6749

>  <SCORE.INTER.CONST>
1

>  <SCORE.INTER.POLAR>
-5.25401

>  <SCORE.INTER.ROT>
1

>  <SCORE.INTER.SOLV>
14.0384

>  <SCORE.INTER.VDW>
-21.216

>  <SCORE.INTER.norm>
-4.06135

>  <SCORE.INTRA>
-0.485033

>  <SCORE.INTRA.DIHEDRAL>
-0.00413266

>  <SCORE.INTRA.DIHEDRAL.0>
0.485619

>  <SCORE.INTRA.POLAR>
0

>  <SCORE.INTRA.POLAR.0>
0

>  <SCORE.INTRA.REPUL>
0

>  <SCORE.INTRA.REPUL.0>
0

>  <SCORE.INTRA.SOLV>
-0.0275322

>  <SCORE.INTRA.SOLV.lig_0>
-16.3399

>  <SCORE.INTRA.VDW>
-0.4692

>  <SCORE.INTRA.VDW.0>
0.597698

>  <SCORE.INTRA.norm>
-0.0440939

>  <SCORE.RESTR>
0

>  <SCORE.RESTR.CAVITY>
0

>  <SCORE.RESTR.norm>
0

>  <SCORE.SYSTEM>
-22.6525

>  <SCORE.SYSTEM.CONST>
0

>  <SCORE.SYSTEM.DIHEDRAL>
6.16608

>  <SCORE.SYSTEM.POLAR>
-3.4295

>  <SCORE.SYSTEM.SOLV>
0.364186

>  <SCORE.SYSTEM.VDW>
-5.84678

>  <SCORE.SYSTEM.norm>
-2.05932

>  <SCORE.heavy>
11

>  <SCORE.norm>
-6.16477

$$$$
P04819452
 OpenBabel12072022103D
libRbt.so/2013.1/901 2013/11/27
 13 13  0  0  0  0  0  0  0  0999 V2000
   21.7034  -15.0914    4.7345 C   0  0  0  0  0  0  0  0  0  0  0  0
   23.1891  -15.1503    4.9836 C   0  0  2  0  0  0  0  0  0  0  0  0
   22.4254  -13.8786    5.2645 C   0  0  1  0  0  0  0  0  0  0  0  0
   22.5142  -12.6391    4.4371 C   0  0  0  0  0  0  0  0  0  0  0  0
   23.4304  -12.4844    3.5849 O   0  0  0  0  0  0  0  0  0  0  0  0
   21.5300  -11.8579    4.6706 O   0  5  0  0  0  0  0  0  0  0  0  0
   22.2566  -13.5369    6.7083 N   0  3  0  0  0  0  0  0  0  0  0  0
   22.9309  -12.8463    7.0307 H   0  0  0  0  0  0  0  0  0  0  0  0
   21.2854  -13.3500    6.9516 H   0  0  0  0  0  0  0  0  0  0  0  0
   22.5149  -14.4584    7.1551 H   0  0  0  0  0  0  0  0  0  0  0  0
   24.1625  -15.2520    3.8599 C   0  0  0  0  0  0  0  0  0  0  0  0
   24.4896  -16.6280    3.7127 O   0  0  0  0  0  0  0  0  0  0  0  0
   25.1265  -16.6763    2.9771 H   0  0  0  0  0  0  0  0  0  0  0  0
  1  2  1  0  0  0  0
  1  3  1  0  0  0  0
  2  3  1  0  0  0  0
  2 11  1  6  0  0  0
  3  4  1  6  0  0  0
  3  7  1  0  0  0  0
  4  5  2  0  0  0  0
  4  6  1  0  0  0  0
  7  8  1  0  0  0  0
  7  9  1  0  0  0  0
  7 10  1  0  0  0  0
 11 12  1  0  0  0  0
 12 13  1  0  0  0  0
M  CHG  2   6  -1   7   1
M  END
>  <CHROM.0>
-50.75741941,-176.97130604,-59.76025593,-49.97053915,-55.09044764,-64.61703117
-55.30746535,-52.42030423,-167.11184934,161.03588294

>  <CHROM.1>
-96.60576024,-86.00333662,166.90770921,-179.89724248,22.88172577,-14.06424213
4.66486639,0.66430578,-0.90771160,2.65796464

>  <Name>
P04819452

>  <RI>
0

>  <Rbt.Current_Directory>
/home/fstefaniak/projects/zuza/docking/adenine/1Y26

>  <Rbt.Executable>
rbdock ($Id: //depot/dev/client3/rdock/2013.1/src/exe/rbdock.cxx#4 $)

>  <Rbt.Library>
libRbt.so (2013.1, Build901 2013/11/27)

>  <Rbt.Parameter_File>
/home/fstefaniak/progs/rDock//data/scripts/dock_solv.prm

>  <Rbt.Receptor>
1y26.prm

>  <SCORE>
-53.0443

>  <SCORE.INTER>
-28.5275

>  <SCORE.INTER.CONST>
1

>  <SCORE.INTER.POLAR>
-5.21721

>  <SCORE.INTER.ROT>
2

>  <SCORE.INTER.SOLV>
17.3379

>  <SCORE.INTER.VDW>
-12.3402

>  <SCORE.INTER.norm>
-3.16972

>  <SCORE.INTRA>
-2.2445

>  <SCORE.INTRA.DIHEDRAL>
-2.54549

>  <SCORE.INTRA.DIHEDRAL.0>
7.09876

>  <SCORE.INTRA.POLAR>
0

>  <SCORE.INTRA.POLAR.0>
0

>  <SCORE.INTRA.REPUL>
0

>  <SCORE.INTRA.REPUL.0>
0

>  <SCORE.INTRA.SOLV>
-0.97552

>  <SCORE.INTRA.SOLV.lig_0>
-48.565

>  <SCORE.INTRA.VDW>
-0.483995

>  <SCORE.INTRA.VDW.0>
0.225516

>  <SCORE.INTRA.norm>
-0.249389

>  <SCORE.RESTR>
0.0421057

>  <SCORE.RESTR.CAVITY>
0.0421057

>  <SCORE.RESTR.norm>
0.00467841

>  <SCORE.SYSTEM>
-22.3144

>  <SCORE.SYSTEM.CONST>
0

>  <SCORE.SYSTEM.DIHEDRAL>
5.80457

>  <SCORE.SYSTEM.POLAR>
-3.48705

>  <SCORE.SYSTEM.SOLV>
0.603309

>  <SCORE.SYSTEM.VDW>
-5.38874

>  <SCORE.SYSTEM.norm>
-2.47938

>  <SCORE.heavy>
9

>  <SCORE.norm>
-5.89381

$$$$
P04819452
 OpenBabel12072022103D
libRbt.so/2013.1/901 2013/11/27
 13 13  0  0  0  0  0  0  0  0999 V2000
   21.8540  -13.6665    3.9827 C   0  0  0  0  0  0  0  0  0  0  0  0
   21.1287  -14.8497    4.5715 C   0  0  2  0  0  0  0  0  0  0  0  0
   22.4462  -14.4025    5.1577 C   0  0  1  0  0  0  0  0  0  0  0  0
   23.7336  -15.1430    5.0058 C   0  0  0  0  0  0  0  0  0  0  0  0
   23.7619  -16.4019    4.9426 O   0  0  0  0  0  0  0  0  0  0  0  0
   24.7171  -14.3364    4.8820 O   0  5  0  0  0  0  0  0  0  0  0  0
   22.3647  -13.7584    6.5025 N   0  3  0  0  0  0  0  0  0  0  0  0
   23.0511  -13.0175    6.6262 H   0  0  0  0  0  0  0  0  0  0  0  0
   21.4088  -13.5196    6.7608 H   0  0  0  0  0  0  0  0  0  0  0  0
   22.6591  -14.5636    7.1192 H   0  0  0  0  0  0  0  0  0  0  0  0
   20.9947  -16.1310    3.8227 C   0  0  0  0  0  0  0  0  0  0  0  0
   19.7410  -16.0952    3.1527 O   0  0  0  0  0  0  0  0  0  0  0  0
   19.0745  -15.9078    3.8381 H   0  0  0  0  0  0  0  0  0  0  0  0
  1  2  1  0  0  0  0
  1  3  1  0  0  0  0
  2  3  1  0  0  0  0
  2 11  1  6  0  0  0
  3  4  1  6  0  0  0
  3  7  1  0  0  0  0
  4  5  2  0  0  0  0
  4  6  1  0  0  0  0
  7  8  1  0  0  0  0
  7  9  1  0  0  0  0
  7 10  1  0  0  0  0
 11 12  1  0  0  0  0
 12 13  1  0  0  0  0
M  CHG  2   6  -1   7   1
M  END
>  <CHROM.0>
-45.10712912,-175.29224154,-51.25211902,-52.39658108,-53.93886823,-59.27349426
-58.09745700,-49.23499437,-167.75474603,160.53748682

>  <CHROM.1>
-94.69932507,-105.41951003,-77.41062793,-54.07663330,22.28594352,-14.98987543
4.68478615,2.65562200,0.24890237,-2.59723241

>  <Name>
P04819452

>  <RI>
0

>  <Rbt.Current_Directory>
/home/fstefaniak/projects/zuza/docking/adenine/1Y26

>  <Rbt.Executable>
rbdock ($Id: //depot/dev/client3/rdock/2013.1/src/exe/rbdock.cxx#4 $)

>  <Rbt.Library>
libRbt.so (2013.1, Build901 2013/11/27)

>  <Rbt.Parameter_File>
/home/fstefaniak/progs/rDock//data/scripts/dock_solv.prm

>  <Rbt.Receptor>
1y26.prm

>  <SCORE>
-51.992

>  <SCORE.INTER>
-27.2384

>  <SCORE.INTER.CONST>
1

>  <SCORE.INTER.POLAR>
-4.89476

>  <SCORE.INTER.ROT>
2

>  <SCORE.INTER.SOLV>
23.8798

>  <SCORE.INTER.VDW>
-14.7363

>  <SCORE.INTER.norm>
-3.02648

>  <SCORE.INTRA>
-2.50336

>  <SCORE.INTRA.DIHEDRAL>
-2.45368

>  <SCORE.INTRA.DIHEDRAL.0>
7.09876

>  <SCORE.INTRA.POLAR>
0

>  <SCORE.INTRA.POLAR.0>
0

>  <SCORE.INTRA.REPUL>
0

>  <SCORE.INTRA.REPUL.0>
0

>  <SCORE.INTRA.SOLV>
-0.956784

>  <SCORE.INTRA.SOLV.lig_0>
-48.565

>  <SCORE.INTRA.VDW>
-0.798128

>  <SCORE.INTRA.VDW.0>
0.225516

>  <SCORE.INTRA.norm>
-0.278151

>  <SCORE.RESTR>
0

>  <SCORE.RESTR.CAVITY>
0

>  <SCORE.RESTR.norm>
0

>  <SCORE.SYSTEM>
-22.2502

>  <SCORE.SYSTEM.CONST>
0

>  <SCORE.SYSTEM.DIHEDRAL>
6.78661

>  <SCORE.SYSTEM.POLAR>
-3.59832

>  <SCORE.SYSTEM.SOLV>
0.624759

>  <SCORE.SYSTEM.VDW>
-5.30954

>  <SCORE.SYSTEM.norm>
-2.47225

>  <SCORE.heavy>
9

>  <SCORE.norm>
-5.77688

$$$$
P04819452
 OpenBabel12072022103D
libRbt.so/2013.1/901 2013/11/27
 13 13  0  0  0  0  0  0  0  0999 V2000
   21.7798  -15.0888    4.6677 C   0  0  0  0  0  0  0  0  0  0  0  0
   23.2617  -15.1495    4.9386 C   0  0  2  0  0  0  0  0  0  0  0  0
   22.4950  -13.8776    5.2107 C   0  0  1  0  0  0  0  0  0  0  0  0
   22.5971  -12.6366    4.3872 C   0  0  0  0  0  0  0  0  0  0  0  0
   23.5230  -12.4834    3.5452 O   0  0  0  0  0  0  0  0  0  0  0  0
   21.6134  -11.8523    4.6120 O   0  5  0  0  0  0  0  0  0  0  0  0
   22.3052  -13.5387    6.6526 N   0  3  0  0  0  0  0  0  0  0  0  0
   22.9713  -12.8448    6.9847 H   0  0  0  0  0  0  0  0  0  0  0  0
   21.3298  -13.3574    6.8832 H   0  0  0  0  0  0  0  0  0  0  0  0
   22.5626  -14.4592    7.1017 H   0  0  0  0  0  0  0  0  0  0  0  0
   24.2515  -15.2499    3.8293 C   0  0  0  0  0  0  0  0  0  0  0  0
   24.5106  -16.6328    3.6234 O   0  0  0  0  0  0  0  0  0  0  0  0
   25.1282  -16.6822    2.8716 H   0  0  0  0  0  0  0  0  0  0  0  0
  1  2  1  0  0  0  0
  1  3  1  0  0  0  0
  2  3  1  0  0  0  0
  2 11  1  6  0  0  0
  3  4  1  6  0  0  0
  3  7  1  0  0  0  0
  4  5  2  0  0  0  0
  4  6  1  0  0  0  0
  7  8  1  0  0  0  0
  7  9  1  0  0  0  0
  7 10  1  0  0  0  0
 11 12  1  0  0  0  0
 12 13  1  0  0  0  0
M  CHG  2   6  -1   7   1
M  END
>  <CHROM.0>
-48.32210449,-111.86522527,-53.51331092,-49.64220625,-57.76542123,-58.31113057
-60.16901867,-177.54470721,-167.17260930,161.10383401

>  <CHROM.1>
-92.71629025,-85.71901445,167.28682283,177.61302836,22.95084962,-14.06340433
4.60954098,0.67972179,-0.90889047,2.67860353

>  <Name>
P04819452

>  <RI>
0

>  <Rbt.Current_Directory>
/home/fstefaniak/projects/zuza/docking/adenine/1Y26

>  <Rbt.Executable>
rbdock ($Id: //depot/dev/client3/rdock/2013.1/src/exe/rbdock.cxx#4 $)

>  <Rbt.Library>
libRbt.so (2013.1, Build901 2013/11/27)

>  <Rbt.Parameter_File>
/home/fstefaniak/progs/rDock//data/scripts/dock_solv.prm

>  <Rbt.Receptor>
1y26.prm

>  <SCORE>
-50.5684

>  <SCORE.INTER>
-28.6562

>  <SCORE.INTER.CONST>
1

>  <SCORE.INTER.POLAR>
-5.20981

>  <SCORE.INTER.ROT>
2

>  <SCORE.INTER.SOLV>
17.2381

>  <SCORE.INTER.VDW>
-12.4175

>  <SCORE.INTER.norm>
-3.18402

>  <SCORE.INTRA>
-2.14305

>  <SCORE.INTRA.DIHEDRAL>
-2.37821

>  <SCORE.INTRA.DIHEDRAL.0>
7.09876

>  <SCORE.INTRA.POLAR>
0

>  <SCORE.INTRA.POLAR.0>
0

>  <SCORE.INTRA.REPUL>
0

>  <SCORE.INTRA.REPUL.0>
0

>  <SCORE.INTRA.SOLV>
-0.95471

>  <SCORE.INTRA.SOLV.lig_0>
-48.565

>  <SCORE.INTRA.VDW>
-0.476589

>  <SCORE.INTRA.VDW.0>
0.225516

>  <SCORE.INTRA.norm>
-0.238117

>  <SCORE.RESTR>
0.0476638

>  <SCORE.RESTR.CAVITY>
0.0476638

>  <SCORE.RESTR.norm>
0.00529598

>  <SCORE.SYSTEM>
-19.8168

>  <SCORE.SYSTEM.CONST>
0

>  <SCORE.SYSTEM.DIHEDRAL>
12.3667

>  <SCORE.SYSTEM.POLAR>
-3.52628

>  <SCORE.SYSTEM.SOLV>
0.433632

>  <SCORE.SYSTEM.VDW>
-5.72372

>  <SCORE.SYSTEM.norm>
-2.20187

>  <SCORE.heavy>
9

>  <SCORE.norm>
-5.61871

$$$$
P05621203
 OpenBabel12072022103D
libRbt.so/2013.1/901 2013/11/27
 16 16  0  0  0  0  0  0  0  0999 V2000
   18.6707  -18.3705    3.0066 C   0  0  0  0  0  0  0  0  0  0  0  0
   18.9683  -18.1341    4.5067 C   0  0  2  0  0  0  0  0  0  0  0  0
   20.4767  -17.7950    4.5937 C   0  0  1  0  0  0  0  0  0  0  0  0
   21.0267  -18.1595    3.2137 C   0  0  1  0  0  0  0  0  0  0  0  0
   19.8678  -17.7551    2.3080 C   0  0  1  0  0  0  0  0  0  0  0  0
   20.0863  -18.2714    0.9402 N   0  3  0  0  0  0  0  0  0  0  0  0
   20.8171  -17.6867    0.5009 H   0  0  0  0  0  0  0  0  0  0  0  0
   20.4313  -19.2383    0.9150 H   0  0  0  0  0  0  0  0  0  0  0  0
   19.2445  -18.2019    0.3561 H   0  0  0  0  0  0  0  0  0  0  0  0
   22.1965  -17.4510    2.8361 O   0  0  0  0  0  0  0  0  0  0  0  0
   20.6420  -16.3818    4.7438 O   0  0  0  0  0  0  0  0  0  0  0  0
   18.5945  -19.3427    5.3602 C   0  0  0  0  0  0  0  0  0  0  0  0
   17.2283  -19.2240    5.7166 O   0  0  0  0  0  0  0  0  0  0  0  0
   22.8795  -17.6771    3.5077 H   0  0  0  0  0  0  0  0  0  0  0  0
   20.7637  -16.2141    5.7017 H   0  0  0  0  0  0  0  0  0  0  0  0
   17.0191  -19.9378    6.3482 H   0  0  0  0  0  0  0  0  0  0  0  0
  1  2  1  0  0  0  0
  1  5  1  0  0  0  0
  2  3  1  0  0  0  0
  2 12  1  1  0  0  0
  3 11  1  6  0  0  0
  3  4  1  0  0  0  0
  4 10  1  6  0  0  0
  4  5  1  0  0  0  0
  5  6  1  6  0  0  0
  6  7  1  0  0  0  0
  6  8  1  0  0  0  0
  6  9  1  0  0  0  0
 10 14  1  0  0  0  0
 11 15  1  0  0  0  0
 12 13  1  0  0  0  0
 13 16  1  0  0  0  0
M  CHG  1   6   1
M  END
>  <CHROM.0>
-54.44492906,53.57915950,-59.13305023,-54.55937074,-172.68806490,-58.77897630
-59.65370046,63.56353187,-167.96116713,161.19730876

>  <CHROM.1>
-87.07964494,97.48511446,60.76868141,170.90846473,-173.29889847,19.79417287
-18.07875293,3.71905455,2.48308939,0.52353632,1.40467188

>  <Name>
P05621203

>  <RI>
0

>  <Rbt.Current_Directory>
/home/fstefaniak/projects/zuza/docking/adenine/1Y26

>  <Rbt.Executable>
rbdock ($Id: //depot/dev/client3/rdock/2013.1/src/exe/rbdock.cxx#4 $)

>  <Rbt.Library>
libRbt.so (2013.1, Build901 2013/11/27)

>  <Rbt.Parameter_File>
/home/fstefaniak/progs/rDock//data/scripts/dock_solv.prm

>  <Rbt.Receptor>
1y26.prm

>  <SCORE>
-57.7032

>  <SCORE.INTER>
-37.0391

>  <SCORE.INTER.CONST>
1

>  <SCORE.INTER.POLAR>
-7.12161

>  <SCORE.INTER.ROT>
1

>  <SCORE.INTER.SOLV>
21.907

>  <SCORE.INTER.VDW>
-12.523

>  <SCORE.INTER.norm>
-3.70391

>  <SCORE.INTRA>
0.0534325

>  <SCORE.INTRA.DIHEDRAL>
-0.210103

>  <SCORE.INTRA.DIHEDRAL.0>
7.97804

>  <SCORE.INTRA.POLAR>
0.277109

>  <SCORE.INTRA.POLAR.0>
-0.277109

>  <SCORE.INTRA.REPUL>
0

>  <SCORE.INTRA.REPUL.0>
0

>  <SCORE.INTRA.SOLV>
-0.469764

>  <SCORE.INTRA.SOLV.lig_0>
-36.6266

>  <SCORE.INTRA.VDW>
-0.548804

>  <SCORE.INTRA.VDW.0>
-0.310771

>  <SCORE.INTRA.norm>
0.00534325

>  <SCORE.RESTR>
0

>  <SCORE.RESTR.CAVITY>
0

>  <SCORE.RESTR.norm>
0

>  <SCORE.SYSTEM>
-20.7175

>  <SCORE.SYSTEM.CONST>
0

>  <SCORE.SYSTEM.DIHEDRAL>
5.00534

>  <SCORE.SYSTEM.POLAR>
-3.32751

>  <SCORE.SYSTEM.SOLV>
0.31608

>  <SCORE.SYSTEM.VDW>
-4.49378

>  <SCORE.SYSTEM.norm>
-2.07175

>  <SCORE.heavy>
10

>  <SCORE.norm>
-5.77032

$$$$
P05621203
 OpenBabel12072022103D
libRbt.so/2013.1/901 2013/11/27
 16 16  0  0  0  0  0  0  0  0999 V2000
   20.2776  -17.7495    5.4644 C   0  0  0  0  0  0  0  0  0  0  0  0
   20.6234  -16.6817    4.3990 C   0  0  2  0  0  0  0  0  0  0  0  0
   20.0008  -17.1850    3.0736 C   0  0  1  0  0  0  0  0  0  0  0  0
   19.6144  -18.6363    3.3640 C   0  0  1  0  0  0  0  0  0  0  0  0
   19.1604  -18.5450    4.8174 C   0  0  1  0  0  0  0  0  0  0  0  0
   18.9916  -19.8997    5.3843 N   0  3  0  0  0  0  0  0  0  0  0  0
   19.0946  -19.8220    6.4101 H   0  0  0  0  0  0  0  0  0  0  0  0
   18.0636  -20.3050    5.2136 H   0  0  0  0  0  0  0  0  0  0  0  0
   19.7086  -20.5555    5.0520 H   0  0  0  0  0  0  0  0  0  0  0  0
   18.5555  -19.1388    2.5645 O   0  0  0  0  0  0  0  0  0  0  0  0
   18.7841  -16.4774    2.8169 O   0  0  0  0  0  0  0  0  0  0  0  0
   22.1283  -16.4556    4.2848 C   0  0  0  0  0  0  0  0  0  0  0  0
   22.4494  -15.2683    4.9883 O   0  0  0  0  0  0  0  0  0  0  0  0
   18.9185  -19.2206    1.6534 H   0  0  0  0  0  0  0  0  0  0  0  0
   18.3622  -16.3204    3.6875 H   0  0  0  0  0  0  0  0  0  0  0  0
   22.2478  -15.4139    5.9319 H   0  0  0  0  0  0  0  0  0  0  0  0
  1  2  1  0  0  0  0
  1  5  1  0  0  0  0
  2  3  1  0  0  0  0
  2 12  1  6  0  0  0
  3 11  1  1  0  0  0
  3  4  1  0  0  0  0
  4 10  1  6  0  0  0
  4  5  1  0  0  0  0
  5  6  1  1  0  0  0
  6  7  1  0  0  0  0
  6  8  1  0  0  0  0
  6  9  1  0  0  0  0
 10 14  1  0  0  0  0
 11 15  1  0  0  0  0
 12 13  1  0  0  0  0
 13 16  1  0  0  0  0
M  CHG  1   6   1
M  END
>  <CHROM.0>
63.00657478,-66.19026993,-58.76693791,-49.11005637,-56.73726203,-60.05960637
-54.03618653,-51.97512683,-166.38040429,-61.84515520

>  <CHROM.1>
-101.17508354,-35.50474708,69.53833585,41.27973018,64.17652878,20.03230779
-17.61437678,4.11687319,-0.33057877,0.77368745,2.28323300

>  <Name>
P05621203

>  <RI>
0

>  <Rbt.Current_Directory>
/home/fstefaniak/projects/zuza/docking/adenine/1Y26

>  <Rbt.Executable>
rbdock ($Id: //depot/dev/client3/rdock/2013.1/src/exe/rbdock.cxx#4 $)

>  <Rbt.Library>
libRbt.so (2013.1, Build901 2013/11/27)

>  <Rbt.Parameter_File>
/home/fstefaniak/progs/rDock//data/scripts/dock_solv.prm

>  <Rbt.Receptor>
1y26.prm

>  <SCORE>
-57.5802

>  <SCORE.INTER>
-40.3083

>  <SCORE.INTER.CONST>
1

>  <SCORE.INTER.POLAR>
-6.77407

>  <SCORE.INTER.ROT>
1

>  <SCORE.INTER.SOLV>
22.5945

>  <SCORE.INTER.VDW>
-16.0902

>  <SCORE.INTER.norm>
-4.03083

>  <SCORE.INTRA>
1.0854

>  <SCORE.INTRA.DIHEDRAL>
0.243111

>  <SCORE.INTRA.DIHEDRAL.0>
7.97804

>  <SCORE.INTRA.POLAR>
0.277109

>  <SCORE.INTRA.POLAR.0>
-0.277109

>  <SCORE.INTRA.REPUL>
0

>  <SCORE.INTRA.REPUL.0>
0

>  <SCORE.INTRA.SOLV>
-0.626459

>  <SCORE.INTRA.SOLV.lig_0>
-36.6266

>  <SCORE.INTRA.VDW>
0.334899

>  <SCORE.INTRA.VDW.0>
-0.310771

>  <SCORE.INTRA.norm>
0.10854

>  <SCORE.RESTR>
0

>  <SCORE.RESTR.CAVITY>
0

>  <SCORE.RESTR.norm>
0

>  <SCORE.SYSTEM>
-18.3572

>  <SCORE.SYSTEM.CONST>
0

>  <SCORE.SYSTEM.DIHEDRAL>
4.21905

>  <SCORE.SYSTEM.POLAR>
-2.45993

>  <SCORE.SYSTEM.SOLV>
0.712662

>  <SCORE.SYSTEM.VDW>
-5.68231

>  <SCORE.SYSTEM.norm>
-1.83572

>  <SCORE.heavy>
10

>  <SCORE.norm>
-5.75802

$$$$
P05621203
 OpenBabel12072022103D
libRbt.so/2013.1/901 2013/11/27
 16 16  0  0  0  0  0  0  0  0999 V2000
   18.6078  -18.3984    2.9956 C   0  0  0  0  0  0  0  0  0  0  0  0
   18.8360  -18.1710    4.5092 C   0  0  2  0  0  0  0  0  0  0  0  0
   20.3308  -17.7975    4.6634 C   0  0  1  0  0  0  0  0  0  0  0  0
   20.9472  -18.1342    3.3046 C   0  0  1  0  0  0  0  0  0  0  0  0
   19.8182  -17.7476    2.3544 C   0  0  1  0  0  0  0  0  0  0  0  0
   20.1066  -18.2441    0.9922 N   0  3  0  0  0  0  0  0  0  0  0  0
   19.2312  -18.1784    0.4462 H   0  0  0  0  0  0  0  0  0  0  0  0
   20.8069  -17.6857    0.4899 H   0  0  0  0  0  0  0  0  0  0  0  0
   20.3988  -19.2286    0.9878 H   0  0  0  0  0  0  0  0  0  0  0  0
   22.1145  -17.3944    2.9838 O   0  0  0  0  0  0  0  0  0  0  0  0
   20.4557  -16.3824    4.8340 O   0  0  0  0  0  0  0  0  0  0  0  0
   18.4555  -19.3970    5.3344 C   0  0  0  0  0  0  0  0  0  0  0  0
   17.1790  -19.1653    5.9039 O   0  0  0  0  0  0  0  0  0  0  0  0
   22.7271  -17.5101    3.7455 H   0  0  0  0  0  0  0  0  0  0  0  0
   20.6938  -16.2333    5.7729 H   0  0  0  0  0  0  0  0  0  0  0  0
   17.2460  -18.3837    6.4843 H   0  0  0  0  0  0  0  0  0  0  0  0
  1  2  1  0  0  0  0
  1  5  1  0  0  0  0
  2  3  1  0  0  0  0
  2 12  1  1  0  0  0
  3 11  1  6  0  0  0
  3  4  1  0  0  0  0
  4 10  1  6  0  0  0
  4  5  1  0  0  0  0
  5  6  1  6  0  0  0
  6  7  1  0  0  0  0
  6  8  1  0  0  0  0
  6  9  1  0  0  0  0
 10 14  1  0  0  0  0
 11 15  1  0  0  0  0
 12 13  1  0  0  0  0
 13 16  1  0  0  0  0
M  CHG  1   6   1
M  END
>  <CHROM.0>
-58.88369898,-63.69730170,-61.22418747,-53.34077451,-171.51070182,-59.80696436
-169.69349438,-177.76868295,-164.58813264,160.43894576

>  <CHROM.1>
-101.00012316,107.46263088,52.97305445,51.34526293,-61.26085153,19.70656095
-18.06034921,3.78887325,2.46978998,0.52860044,1.38108312

>  <Name>
P05621203

>  <RI>
0

>  <Rbt.Current_Directory>
/home/fstefaniak/projects/zuza/docking/adenine/1Y26

>  <Rbt.Executable>
rbdock ($Id: //depot/dev/client3/rdock/2013.1/src/exe/rbdock.cxx#4 $)

>  <Rbt.Library>
libRbt.so (2013.1, Build901 2013/11/27)

>  <Rbt.Parameter_File>
/home/fstefaniak/progs/rDock//data/scripts/dock_solv.prm

>  <Rbt.Receptor>
1y26.prm

>  <SCORE>
-57.0346

>  <SCORE.INTER>
-37.409

>  <SCORE.INTER.CONST>
1

>  <SCORE.INTER.POLAR>
-7.20986

>  <SCORE.INTER.ROT>
1

>  <SCORE.INTER.SOLV>
21.8982

>  <SCORE.INTER.VDW>
-12.4726

>  <SCORE.INTER.norm>
-3.7409

>  <SCORE.INTRA>
1.86633

>  <SCORE.INTRA.DIHEDRAL>
3.02674

>  <SCORE.INTRA.DIHEDRAL.0>
7.97804

>  <SCORE.INTRA.POLAR>
0.277109

>  <SCORE.INTRA.POLAR.0>
-0.277109

>  <SCORE.INTRA.REPUL>
0

>  <SCORE.INTRA.REPUL.0>
0

>  <SCORE.INTRA.SOLV>
-0.567997

>  <SCORE.INTRA.SOLV.lig_0>
-36.6266

>  <SCORE.INTRA.VDW>
-0.305216

>  <SCORE.INTRA.VDW.0>
-0.310771

>  <SCORE.INTRA.norm>
0.186633

>  <SCORE.RESTR>
0

>  <SCORE.RESTR.CAVITY>
0

>  <SCORE.RESTR.norm>
0

>  <SCORE.SYSTEM>
-21.4919

>  <SCORE.SYSTEM.CONST>
0

>  <SCORE.SYSTEM.DIHEDRAL>
5.83912

>  <SCORE.SYSTEM.POLAR>
-3.32785

>  <SCORE.SYSTEM.SOLV>
0.215627

>  <SCORE.SYSTEM.VDW>
-5.25336

>  <SCORE.SYSTEM.norm>
-2.14919

>  <SCORE.heavy>
10

>  <SCORE.norm>
-5.70346

$$$$
P06850086
 OpenBabel12072022103D
libRbt.so/2013.1/901 2013/11/27
 14 13  0  0  0  0  0  0  0  0999 V2000
   21.6802  -14.6340    4.2620 C   0  0  0  0  0  0  0  0  0  0  0  0
   22.5561  -15.8156    4.6652 C   0  0  2  0  0  0  0  0  0  0  0  0
   24.0104  -15.7365    4.1629 C   0  0  2  0  0  0  0  0  0  0  0  0
   24.8456  -16.9706    4.4905 C   0  0  0  0  0  0  0  0  0  0  0  0
   24.8067  -17.9524    3.7513 O   0  0  0  0  0  0  0  0  0  0  0  0
   25.6243  -16.9437    5.6037 N   0  0  0  0  0  0  0  0  0  0  0  0
   24.6385  -14.5056    4.7782 N   0  3  0  0  0  0  0  0  0  0  0  0
   25.6468  -14.4586    4.6027 H   0  0  0  0  0  0  0  0  0  0  0  0
   24.1682  -13.6736    4.3877 H   0  0  0  0  0  0  0  0  0  0  0  0
   24.5086  -14.5284    5.8001 H   0  0  0  0  0  0  0  0  0  0  0  0
   21.9895  -17.0000    4.0714 O   0  0  0  0  0  0  0  0  0  0  0  0
   25.5888  -16.2402    6.3326 H   0  0  0  0  0  0  0  0  0  0  0  0
   26.1462  -17.7883    5.8285 H   0  0  0  0  0  0  0  0  0  0  0  0
   22.5461  -17.7613    4.3393 H   0  0  0  0  0  0  0  0  0  0  0  0
  2 11  1  0  0  0  0
  2  1  1  6  0  0  0
  3  4  1  1  0  0  0
  3  7  1  0  0  0  0
  3  2  1  0  0  0  0
  4  5  2  0  0  0  0
  4  6  1  0  0  0  0
  6 12  1  0  0  0  0
  6 13  1  0  0  0  0
  7  8  1  0  0  0  0
  7  9  1  0  0  0  0
  7 10  1  0  0  0  0
 11 14  1  0  0  0  0
M  CHG  1   7   1
M  END
>  <CHROM.0>
-46.52833525,-60.60939480,-54.65326590,-52.58190513,-174.99122155,-68.66541292
-51.33724128,-172.76396866,-166.59570957,161.73392006

>  <CHROM.1>
-179.32733260,84.40733696,171.54475115,-175.92141835,23.77919678,-16.19515795
4.49087461,-2.67124630,0.25476515,-2.92703041

>  <Name>
P06850086

>  <RI>
0

>  <Rbt.Current_Directory>
/home/fstefaniak/projects/zuza/docking/adenine/1Y26

>  <Rbt.Executable>
rbdock ($Id: //depot/dev/client3/rdock/2013.1/src/exe/rbdock.cxx#4 $)

>  <Rbt.Library>
libRbt.so (2013.1, Build901 2013/11/27)

>  <Rbt.Parameter_File>
/home/fstefaniak/progs/rDock//data/scripts/dock_solv.prm

>  <Rbt.Receptor>
1y26.prm

>  <SCORE>
-56.9801

>  <SCORE.INTER>
-34.5431

>  <SCORE.INTER.CONST>
1

>  <SCORE.INTER.POLAR>
-5.37093

>  <SCORE.INTER.ROT>
2

>  <SCORE.INTER.SOLV>
16.4925

>  <SCORE.INTER.VDW>
-15.5565

>  <SCORE.INTER.norm>
-4.31789

>  <SCORE.INTRA>
-0.14503

>  <SCORE.INTRA.DIHEDRAL>
-0.546516

>  <SCORE.INTRA.DIHEDRAL.0>
2.68325

>  <SCORE.INTRA.POLAR>
0.30659

>  <SCORE.INTRA.POLAR.0>
-0.30659

>  <SCORE.INTRA.REPUL>
0

>  <SCORE.INTRA.REPUL.0>
0

>  <SCORE.INTRA.SOLV>
-0.280454

>  <SCORE.INTRA.SOLV.lig_0>
-33.0667

>  <SCORE.INTRA.VDW>
-0.773951

>  <SCORE.INTRA.VDW.0>
0.205649

>  <SCORE.INTRA.norm>
-0.0181287

>  <SCORE.RESTR>
0

>  <SCORE.RESTR.CAVITY>
0

>  <SCORE.RESTR.norm>
0

>  <SCORE.SYSTEM>
-22.292

>  <SCORE.SYSTEM.CONST>
0

>  <SCORE.SYSTEM.DIHEDRAL>
6.56734

>  <SCORE.SYSTEM.POLAR>
-3.50414

>  <SCORE.SYSTEM.SOLV>
0.28972

>  <SCORE.SYSTEM.VDW>
-5.46653

>  <SCORE.SYSTEM.norm>
-2.78649

>  <SCORE.heavy>
8

>  <SCORE.norm>
-7.12251

$$$$
P06850086
 OpenBabel12072022103D
libRbt.so/2013.1/901 2013/11/27
 14 13  0  0  0  0  0  0  0  0999 V2000
   21.6949  -14.6208    4.2299 C   0  0  0  0  0  0  0  0  0  0  0  0
   22.5693  -15.7990    4.6459 C   0  0  2  0  0  0  0  0  0  0  0  0
   24.0323  -15.7107    4.1712 C   0  0  2  0  0  0  0  0  0  0  0  0
   24.8636  -16.9481    4.4965 C   0  0  0  0  0  0  0  0  0  0  0  0
   24.8134  -17.9323    3.7611 O   0  0  0  0  0  0  0  0  0  0  0  0
   25.6514  -16.9215    5.6031 N   0  0  0  0  0  0  0  0  0  0  0  0
   24.6470  -14.4878    4.8152 N   0  3  0  0  0  0  0  0  0  0  0  0
   24.4996  -14.4705    5.8289 H   0  0  0  0  0  0  0  0  0  0  0  0
   25.6568  -14.4830    4.6005 H   0  0  0  0  0  0  0  0  0  0  0  0
   24.2077  -13.6393    4.4297 H   0  0  0  0  0  0  0  0  0  0  0  0
   22.0202  -16.9845    4.0378 O   0  0  0  0  0  0  0  0  0  0  0  0
   25.6256  -16.2152    6.3299 H   0  0  0  0  0  0  0  0  0  0  0  0
   26.1706  -17.7680    5.8267 H   0  0  0  0  0  0  0  0  0  0  0  0
   22.5701  -17.7450    4.3214 H   0  0  0  0  0  0  0  0  0  0  0  0
  2 11  1  0  0  0  0
  2  1  1  6  0  0  0
  3  4  1  1  0  0  0
  3  7  1  0  0  0  0
  3  2  1  0  0  0  0
  4  5  2  0  0  0  0
  4  6  1  0  0  0  0
  6 12  1  0  0  0  0
  6 13  1  0  0  0  0
  7  8  1  0  0  0  0
  7  9  1  0  0  0  0
  7 10  1  0  0  0  0
 11 14  1  0  0  0  0
M  CHG  1   7   1
M  END
>  <CHROM.0>
-49.31209579,-178.50050877,-52.21519179,-49.74395986,-54.41291046,61.84523662
-53.31882047,-51.81869576,-166.66228979,162.15158901

>  <CHROM.1>
-178.74682592,82.54924901,51.17379079,-175.25568427,23.79696664,-16.17601138
4.48771834,-2.68113021,0.26892855,-2.91879504

>  <Name>
P06850086

>  <RI>
0

>  <Rbt.Current_Directory>
/home/fstefaniak/projects/zuza/docking/adenine/1Y26

>  <Rbt.Executable>
rbdock ($Id: //depot/dev/client3/rdock/2013.1/src/exe/rbdock.cxx#4 $)

>  <Rbt.Library>
libRbt.so (2013.1, Build901 2013/11/27)

>  <Rbt.Parameter_File>
/home/fstefaniak/progs/rDock//data/scripts/dock_solv.prm

>  <Rbt.Receptor>
1y26.prm

>  <SCORE>
-56.5428

>  <SCORE.INTER>
-35.0971

>  <SCORE.INTER.CONST>
1

>  <SCORE.INTER.POLAR>
-5.47685

>  <SCORE.INTER.ROT>
2

>  <SCORE.INTER.SOLV>
16.6802

>  <SCORE.INTER.VDW>
-15.6353

>  <SCORE.INTER.norm>
-4.38713

>  <SCORE.INTRA>
-0.178414

>  <SCORE.INTRA.DIHEDRAL>
-0.432244

>  <SCORE.INTRA.DIHEDRAL.0>
2.68325

>  <SCORE.INTRA.POLAR>
0.30659

>  <SCORE.INTRA.POLAR.0>
-0.30659

>  <SCORE.INTRA.REPUL>
0

>  <SCORE.INTRA.REPUL.0>
0

>  <SCORE.INTRA.SOLV>
-0.287282

>  <SCORE.INTRA.SOLV.lig_0>
-33.0667

>  <SCORE.INTRA.VDW>
-0.861057

>  <SCORE.INTRA.VDW.0>
0.205649

>  <SCORE.INTRA.norm>
-0.0223018

>  <SCORE.RESTR>
0

>  <SCORE.RESTR.CAVITY>
0

>  <SCORE.RESTR.norm>
0

>  <SCORE.SYSTEM>
-21.2673

>  <SCORE.SYSTEM.CONST>
0

>  <SCORE.SYSTEM.DIHEDRAL>
6.19992

>  <SCORE.SYSTEM.POLAR>
-3.54316

>  <SCORE.SYSTEM.SOLV>
0.474493

>  <SCORE.SYSTEM.VDW>
-4.59247

>  <SCORE.SYSTEM.norm>
-2.65841

>  <SCORE.heavy>
8

>  <SCORE.norm>
-7.06785

$$$$
P06850086
 OpenBabel12072022103D
libRbt.so/2013.1/901 2013/11/27
 14 13  0  0  0  0  0  0  0  0999 V2000
   20.7450  -15.8482    4.2395 C   0  0  0  0  0  0  0  0  0  0  0  0
   19.7292  -16.9759    4.0905 C   0  0  2  0  0  0  0  0  0  0  0  0
   20.0669  -18.2521    4.8846 C   0  0  2  0  0  0  0  0  0  0  0  0
   19.1622  -19.4379    4.5631 C   0  0  0  0  0  0  0  0  0  0  0  0
   18.5522  -19.4734    3.4961 O   0  0  0  0  0  0  0  0  0  0  0  0
   19.0619  -20.4375    5.4780 N   0  0  0  0  0  0  0  0  0  0  0  0
   19.9738  -17.9113    6.3555 N   0  3  0  0  0  0  0  0  0  0  0  0
   20.5500  -17.1004    6.6006 H   0  0  0  0  0  0  0  0  0  0  0  0
   18.9835  -17.7281    6.5823 H   0  0  0  0  0  0  0  0  0  0  0  0
   20.3150  -18.7067    6.9144 H   0  0  0  0  0  0  0  0  0  0  0  0
   19.7067  -17.3606    2.7019 O   0  0  0  0  0  0  0  0  0  0  0  0
   19.4075  -20.4036    6.4304 H   0  0  0  0  0  0  0  0  0  0  0  0
   18.4256  -21.2029    5.2649 H   0  0  0  0  0  0  0  0  0  0  0  0
   18.9499  -17.9709    2.5756 H   0  0  0  0  0  0  0  0  0  0  0  0
  2 11  1  0  0  0  0
  2  1  1  6  0  0  0
  3  4  1  6  0  0  0
  3  7  1  0  0  0  0
  3  2  1  0  0  0  0
  4  5  2  0  0  0  0
  4  6  1  0  0  0  0
  6 12  1  0  0  0  0
  6 13  1  0  0  0  0
  7  8  1  0  0  0  0
  7  9  1  0  0  0  0
  7 10  1  0  0  0  0
 11 14  1  0  0  0  0
M  CHG  1   7   1
M  END
>  <CHROM.0>
-48.05088276,56.28742907,-55.05460703,-52.97074643,-53.37968682,-56.79946729
-60.49482686,-56.62857955,-166.95411515,160.48799014

>  <CHROM.1>
-170.32763921,21.96440680,-53.75600540,-171.24152382,19.61160598,-18.22043433
4.48993628,-0.75105948,1.10024847,2.07619696

>  <Name>
P06850086

>  <RI>
0

>  <Rbt.Current_Directory>
/home/fstefaniak/projects/zuza/docking/adenine/1Y26

>  <Rbt.Executable>
rbdock ($Id: //depot/dev/client3/rdock/2013.1/src/exe/rbdock.cxx#4 $)

>  <Rbt.Library>
libRbt.so (2013.1, Build901 2013/11/27)

>  <Rbt.Parameter_File>
/home/fstefaniak/progs/rDock//data/scripts/dock_solv.prm

>  <Rbt.Receptor>
1y26.prm

>  <SCORE>
-55.7001

>  <SCORE.INTER>
-34.232

>  <SCORE.INTER.CONST>
1

>  <SCORE.INTER.POLAR>
-4.9334

>  <SCORE.INTER.ROT>
2

>  <SCORE.INTER.SOLV>
21.9552

>  <SCORE.INTER.VDW>
-18.6284

>  <SCORE.INTER.norm>
-4.279

>  <SCORE.INTRA>
0.108185

>  <SCORE.INTRA.DIHEDRAL>
-0.4941

>  <SCORE.INTRA.DIHEDRAL.0>
2.68325

>  <SCORE.INTRA.POLAR>
0.192586

>  <SCORE.INTRA.POLAR.0>
-0.30659

>  <SCORE.INTRA.REPUL>
0

>  <SCORE.INTRA.REPUL.0>
0

>  <SCORE.INTRA.SOLV>
-0.397769

>  <SCORE.INTRA.SOLV.lig_0>
-33.0667

>  <SCORE.INTRA.VDW>
-0.100672

>  <SCORE.INTRA.VDW.0>
0.205649

>  <SCORE.INTRA.norm>
0.0135231

>  <SCORE.RESTR>
0

>  <SCORE.RESTR.CAVITY>
0

>  <SCORE.RESTR.norm>
0

>  <SCORE.SYSTEM>
-21.5762

>  <SCORE.SYSTEM.CONST>
0

>  <SCORE.SYSTEM.DIHEDRAL>
5.80208

>  <SCORE.SYSTEM.POLAR>
-3.50754

>  <SCORE.SYSTEM.SOLV>
0.720087

>  <SCORE.SYSTEM.VDW>
-4.86642

>  <SCORE.SYSTEM.norm>
-2.69703

>  <SCORE.heavy>
8

>  <SCORE.norm>
-6.96251

$$$$
P07497363
 OpenBabel12072022103D
libRbt.so/2013.1/901 2013/11/27
 16 16  0  0  0  0  0  0  0  0999 V2000
   19.9842  -17.3519    5.5128 C   0  0  0  0  0  0  0  0  0  0  0  0
   19.2981  -17.5908    4.1456 C   0  0  2  0  0  0  0  0  0  0  0  0
   18.6275  -18.9658    4.2801 C   0  0  1  0  0  0  0  0  0  0  0  0
   19.5900  -19.7325    5.2015 C   0  0  1  0  0  0  0  0  0  0  0  0
   19.9024  -18.6781    6.2720 C   0  0  2  0  0  0  0  0  0  0  0  0
   18.7471  -18.6679    7.2210 N   0  3  0  0  0  0  0  0  0  0  0  0
   18.0343  -19.3445    6.8807 H   0  0  0  0  0  0  0  0  0  0  0  0
   19.0709  -19.0907    8.1054 H   0  0  0  0  0  0  0  0  0  0  0  0
   18.3183  -17.7564    7.3968 H   0  0  0  0  0  0  0  0  0  0  0  0
   18.9944  -20.8716    5.8217 O   0  0  0  0  0  0  0  0  0  0  0  0
   17.3764  -18.7712    4.9727 O   0  0  0  0  0  0  0  0  0  0  0  0
   20.3011  -17.5385    2.9915 C   0  0  0  0  0  0  0  0  0  0  0  0
   19.6309  -17.9144    1.8017 O   0  0  0  0  0  0  0  0  0  0  0  0
   18.4828  -21.3463    5.1361 H   0  0  0  0  0  0  0  0  0  0  0  0
   16.9407  -18.0128    4.5263 H   0  0  0  0  0  0  0  0  0  0  0  0
   19.6932  -18.8849    1.7167 H   0  0  0  0  0  0  0  0  0  0  0  0
  1  2  1  0  0  0  0
  1  5  1  0  0  0  0
  2  3  1  0  0  0  0
  2 12  1  6  0  0  0
  3  4  1  0  0  0  0
  3 11  1  1  0  0  0
  4 10  1  1  0  0  0
  4  5  1  0  0  0  0
  5  6  1  1  0  0  0
  6  7  1  0  0  0  0
  6  8  1  0  0  0  0
  6  9  1  0  0  0  0
 10 14  1  0  0  0  0
 11 15  1  0  0  0  0
 12 13  1  0  0  0  0
 13 16  1  0  0  0  0
M  CHG  1   6   1
M  END
>  <CHROM.0>
62.91175447,59.58644424,-55.93827780,-53.20483222,-173.83519037,-57.98503977
-56.37691924,-173.80966800,-167.24030927,162.02573932

>  <CHROM.1>
173.44237250,47.65012185,44.42147798,111.59289715,-88.54278741,19.18567376
-18.64664254,4.82553221,-1.12326498,1.07927380,1.58540842

>  <Name>
P07497363

>  <RI>
0

>  <Rbt.Current_Directory>
/home/fstefaniak/projects/zuza/docking/adenine/1Y26

>  <Rbt.Executable>
rbdock ($Id: //depot/dev/client3/rdock/2013.1/src/exe/rbdock.cxx#4 $)

>  <Rbt.Library>
libRbt.so (2013.1, Build901 2013/11/27)

>  <Rbt.Parameter_File>
/home/fstefaniak/progs/rDock//data/scripts/dock_solv.prm

>  <Rbt.Receptor>
1y26.prm

>  <SCORE>
-54.9379

>  <SCORE.INTER>
-39.1768

>  <SCORE.INTER.CONST>
1

>  <SCORE.INTER.POLAR>
-6.64105

>  <SCORE.INTER.ROT>
1

>  <SCORE.INTER.SOLV>
22.6301

>  <SCORE.INTER.VDW>
-15.791

>  <SCORE.INTER.norm>
-3.91768

>  <SCORE.INTRA>
5.20376

>  <SCORE.INTRA.DIHEDRAL>
4.64067

>  <SCORE.INTRA.DIHEDRAL.0>
4.17105

>  <SCORE.INTRA.POLAR>
0.573554

>  <SCORE.INTRA.POLAR.0>
-0.89341

>  <SCORE.INTRA.REPUL>
0

>  <SCORE.INTRA.REPUL.0>
0

>  <SCORE.INTRA.SOLV>
-0.226196

>  <SCORE.INTRA.SOLV.lig_0>
-32.1591

>  <SCORE.INTRA.VDW>
1.04644

>  <SCORE.INTRA.VDW.0>
-0.592581

>  <SCORE.INTRA.norm>
0.520376

>  <SCORE.RESTR>
0

>  <SCORE.RESTR.CAVITY>
0

>  <SCORE.RESTR.norm>
0

>  <SCORE.SYSTEM>
-20.9649

>  <SCORE.SYSTEM.CONST>
0

>  <SCORE.SYSTEM.DIHEDRAL>
4.93308

>  <SCORE.SYSTEM.POLAR>
-3.16077

>  <SCORE.SYSTEM.SOLV>
0.310736

>  <SCORE.SYSTEM.VDW>
-5.18867

>  <SCORE.SYSTEM.norm>
-2.09649

>  <SCORE.heavy>
10

>  <SCORE.norm>
-5.49379

$$$$
P07497363
 OpenBabel12072022103D
libRbt.so/2013.1/901 2013/11/27
 16 16  0  0  0  0  0  0  0  0999 V2000
   19.9441  -17.3696    5.6251 C   0  0  0  0  0  0  0  0  0  0  0  0
   19.3190  -17.6053    4.2284 C   0  0  2  0  0  0  0  0  0  0  0  0
   18.6525  -18.9853    4.3266 C   0  0  1  0  0  0  0  0  0  0  0  0
   19.5795  -19.7510    5.2845 C   0  0  1  0  0  0  0  0  0  0  0  0
   19.8386  -18.7005    6.3730 C   0  0  2  0  0  0  0  0  0  0  0  0
   18.6435  -18.7031    7.2715 N   0  3  0  0  0  0  0  0  0  0  0  0
   18.3846  -17.7175    7.4794 H   0  0  0  0  0  0  0  0  0  0  0  0
   17.8424  -19.0461    6.7179 H   0  0  0  0  0  0  0  0  0  0  0  0
   18.7342  -19.2383    8.1380 H   0  0  0  0  0  0  0  0  0  0  0  0
   18.9654  -20.8973    5.8724 O   0  0  0  0  0  0  0  0  0  0  0  0
   17.3714  -18.8026    4.9658 O   0  0  0  0  0  0  0  0  0  0  0  0
   20.3704  -17.5400    3.1189 C   0  0  0  0  0  0  0  0  0  0  0  0
   19.7494  -17.8933    1.8958 O   0  0  0  0  0  0  0  0  0  0  0  0
   18.5005  -21.3803    5.1599 H   0  0  0  0  0  0  0  0  0  0  0  0
   16.9518  -18.0422    4.5075 H   0  0  0  0  0  0  0  0  0  0  0  0
   19.7849  -18.8653    1.8117 H   0  0  0  0  0  0  0  0  0  0  0  0
  1  2  1  0  0  0  0
  1  5  1  0  0  0  0
  2  3  1  0  0  0  0
  2 12  1  6  0  0  0
  3  4  1  0  0  0  0
  3 11  1  1  0  0  0
  4 10  1  1  0  0  0
  4  5  1  0  0  0  0
  5  6  1  1  0  0  0
  6  7  1  0  0  0  0
  6  8  1  0  0  0  0
  6  9  1  0  0  0  0
 10 14  1  0  0  0  0
 11 15  1  0  0  0  0
 12 13  1  0  0  0  0
 13 16  1  0  0  0  0
M  CHG  1   6   1
M  END
>  <CHROM.0>
-39.88892306,-61.89552912,-56.11007718,-51.64524003,-56.54122276,58.10484942
-55.56915607,-53.23504926,-166.53466588,159.14548372

>  <CHROM.1>
174.34337881,47.42927995,45.44165824,-22.50595044,-86.73333767,19.18293549
-18.66125165,4.89576783,-1.03076728,1.08624509,1.51070660

>  <Name>
P07497363

>  <RI>
0

>  <Rbt.Current_Directory>
/home/fstefaniak/projects/zuza/docking/adenine/1Y26

>  <Rbt.Executable>
rbdock ($Id: //depot/dev/client3/rdock/2013.1/src/exe/rbdock.cxx#4 $)

>  <Rbt.Library>
libRbt.so (2013.1, Build901 2013/11/27)

>  <Rbt.Parameter_File>
/home/fstefaniak/progs/rDock//data/scripts/dock_solv.prm

>  <Rbt.Receptor>
1y26.prm

>  <SCORE>
-54.6126

>  <SCORE.INTER>
-36.8296

>  <SCORE.INTER.CONST>
1

>  <SCORE.INTER.POLAR>
-6.2747

>  <SCORE.INTER.ROT>
1

>  <SCORE.INTER.SOLV>
22.619

>  <SCORE.INTER.VDW>
-15.4437

>  <SCORE.INTER.norm>
-3.68296

>  <SCORE.INTRA>
3.32861

>  <SCORE.INTRA.DIHEDRAL>
3.08659

>  <SCORE.INTRA.DIHEDRAL.0>
4.17105

>  <SCORE.INTRA.POLAR>
0.147622

>  <SCORE.INTRA.POLAR.0>
-0.89341

>  <SCORE.INTRA.REPUL>
0

>  <SCORE.INTRA.REPUL.0>
0

>  <SCORE.INTRA.SOLV>
-0.0611567

>  <SCORE.INTRA.SOLV.lig_0>
-32.1591

>  <SCORE.INTRA.VDW>
1.31398

>  <SCORE.INTRA.VDW.0>
-0.592581

>  <SCORE.INTRA.norm>
0.332861

>  <SCORE.RESTR>
0

>  <SCORE.RESTR.CAVITY>
0

>  <SCORE.RESTR.norm>
0

>  <SCORE.SYSTEM>
-21.1116

>  <SCORE.SYSTEM.CONST>
0

>  <SCORE.SYSTEM.DIHEDRAL>
7.25023

>  <SCORE.SYSTEM.POLAR>
-3.66187

>  <SCORE.SYSTEM.SOLV>
0.519175

>  <SCORE.SYSTEM.VDW>
-4.45796

>  <SCORE.SYSTEM.norm>
-2.11116

>  <SCORE.heavy>
10

>  <SCORE.norm>
-5.46126

$$$$
P07497363
 OpenBabel12072022103D
libRbt.so/2013.1/901 2013/11/27
 16 16  0  0  0  0  0  0  0  0999 V2000
   20.0184  -17.3796    5.5163 C   0  0  0  0  0  0  0  0  0  0  0  0
   19.3145  -17.6195    4.1584 C   0  0  2  0  0  0  0  0  0  0  0  0
   18.6217  -18.9813    4.3127 C   0  0  1  0  0  0  0  0  0  0  0  0
   19.5800  -19.7559    5.2319 C   0  0  1  0  0  0  0  0  0  0  0  0
   19.9214  -18.6969    6.2890 C   0  0  2  0  0  0  0  0  0  0  0  0
   18.7761  -18.6577    7.2493 N   0  3  0  0  0  0  0  0  0  0  0  0
   18.0546  -19.3357    6.9306 H   0  0  0  0  0  0  0  0  0  0  0  0
   19.1057  -19.0643    8.1391 H   0  0  0  0  0  0  0  0  0  0  0  0
   18.3561  -17.7394    7.4102 H   0  0  0  0  0  0  0  0  0  0  0  0
   18.9710  -20.8785    5.8689 O   0  0  0  0  0  0  0  0  0  0  0  0
   17.3811  -18.7584    5.0158 O   0  0  0  0  0  0  0  0  0  0  0  0
   20.3066  -17.5955    2.9939 C   0  0  0  0  0  0  0  0  0  0  0  0
   19.6108  -17.9390    1.8090 O   0  0  0  0  0  0  0  0  0  0  0  0
   18.4975  -21.3869    5.1801 H   0  0  0  0  0  0  0  0  0  0  0  0
   16.9349  -18.0238    4.5411 H   0  0  0  0  0  0  0  0  0  0  0  0
   19.5761  -18.9131    1.7537 H   0  0  0  0  0  0  0  0  0  0  0  0
  1  2  1  0  0  0  0
  1  5  1  0  0  0  0
  2  3  1  0  0  0  0
  2 12  1  6  0  0  0
  3  4  1  0  0  0  0
  3 11  1  1  0  0  0
  4 10  1  1  0  0  0
  4  5  1  0  0  0  0
  5  6  1  1  0  0  0
  6  7  1  0  0  0  0
  6  8  1  0  0  0  0
  6  9  1  0  0  0  0
 10 14  1  0  0  0  0
 11 15  1  0  0  0  0
 12 13  1  0  0  0  0
 13 16  1  0  0  0  0
M  CHG  1   6   1
M  END
>  <CHROM.0>
64.86178758,-61.96547341,-49.43844194,-50.98180196,-56.85520114,-174.58244432
-51.07775376,-52.07462213,-163.88558695,163.14951183

>  <CHROM.1>
174.85702806,50.17802025,48.45020066,112.45052123,-84.15381236,19.18960459
-18.66351903,4.84877384,-1.15126644,1.05878473,1.60573290

>  <Name>
P07497363

>  <RI>
0

>  <Rbt.Current_Directory>
/home/fstefaniak/projects/zuza/docking/adenine/1Y26

>  <Rbt.Executable>
rbdock ($Id: //depot/dev/client3/rdock/2013.1/src/exe/rbdock.cxx#4 $)

>  <Rbt.Library>
libRbt.so (2013.1, Build901 2013/11/27)

>  <Rbt.Parameter_File>
/home/fstefaniak/progs/rDock//data/scripts/dock_solv.prm

>  <Rbt.Receptor>
1y26.prm

>  <SCORE>
-54.4754

>  <SCORE.INTER>
-38.1657

>  <SCORE.INTER.CONST>
1

>  <SCORE.INTER.POLAR>
-6.50751

>  <SCORE.INTER.ROT>
1

>  <SCORE.INTER.SOLV>
22.7414

>  <SCORE.INTER.VDW>
-15.5992

>  <SCORE.INTER.norm>
-3.81657

>  <SCORE.INTRA>
4.34539

>  <SCORE.INTRA.DIHEDRAL>
3.10549

>  <SCORE.INTRA.DIHEDRAL.0>
4.17105

>  <SCORE.INTRA.POLAR>
0.573613

>  <SCORE.INTRA.POLAR.0>
-0.89341

>  <SCORE.INTRA.REPUL>
0

>  <SCORE.INTRA.REPUL.0>
0

>  <SCORE.INTRA.SOLV>
-0.264653

>  <SCORE.INTRA.SOLV.lig_0>
-32.1591

>  <SCORE.INTRA.VDW>
0.974687

>  <SCORE.INTRA.VDW.0>
-0.592581

>  <SCORE.INTRA.norm>
0.434539

>  <SCORE.RESTR>
0

>  <SCORE.RESTR.CAVITY>
0

>  <SCORE.RESTR.norm>
0

>  <SCORE.SYSTEM>
-20.6551

>  <SCORE.SYSTEM.CONST>
0

>  <SCORE.SYSTEM.DIHEDRAL>
6.27762

>  <SCORE.SYSTEM.POLAR>
-3.28939

>  <SCORE.SYSTEM.SOLV>
0.520481

>  <SCORE.SYSTEM.VDW>
-5.07146

>  <SCORE.SYSTEM.norm>
-2.06551

>  <SCORE.heavy>
10

>  <SCORE.norm>
-5.44754

$$$$
P08390249
 OpenBabel12072022103D
libRbt.so/2013.1/901 2013/11/27
 12 12  0  0  0  0  0  0  0  0999 V2000
   19.5626  -18.7676    4.1450 C   0  0  0  0  0  0  0  0  0  0  0  0
   20.4589  -17.9680    5.0903 C   0  0  1  0  0  0  0  0  0  0  0  0
   21.0953  -16.7596    4.3836 C   0  0  2  0  0  0  0  0  0  0  0  0
   20.0397  -15.9673    3.6080 C   0  0  0  0  0  0  0  0  0  0  0  0
   19.3708  -16.8358    2.6836 O   0  0  0  0  0  0  0  0  0  0  0  0
   18.6357  -17.8517    3.3527 C   0  0  1  0  0  0  0  0  0  0  0  0
   17.9257  -18.5957    2.3825 O   0  0  0  0  0  0  0  0  0  0  0  0
   22.0933  -17.2211    3.4631 O   0  0  0  0  0  0  0  0  0  0  0  0
   19.7276  -17.5637    6.2505 O   0  0  0  0  0  0  0  0  0  0  0  0
   17.3747  -17.9552    1.9044 H   0  0  0  0  0  0  0  0  0  0  0  0
   22.7935  -17.6548    3.9874 H   0  0  0  0  0  0  0  0  0  0  0  0
   20.3057  -17.0883    6.8687 H   0  0  0  0  0  0  0  0  0  0  0  0
  1  2  1  0  0  0  0
  1  6  1  0  0  0  0
  2  9  1  1  0  0  0
  2  3  1  0  0  0  0
  3  4  1  0  0  0  0
  3  8  1  6  0  0  0
  4  5  1  0  0  0  0
  5  6  1  0  0  0  0
  6  7  1  6  0  0  0
  7 10  1  0  0  0  0
  8 11  1  0  0  0  0
  9 12  1  0  0  0  0
M  END
>  <CHROM.0>
-52.16482260,-53.43122358,-51.99436956,-52.04712107,-57.50718377,178.85673395
-58.22658468,-51.24800291,-168.17909064,160.47527106

>  <CHROM.1>
177.60220985,-63.84557123,-178.72511429,19.87511314,-17.50724837,3.91454752
2.61694454,-0.49579341,-1.30107022

>  <Name>
P08390249

>  <RI>
0

>  <Rbt.Current_Directory>
/home/fstefaniak/projects/zuza/docking/adenine/1Y26

>  <Rbt.Executable>
rbdock ($Id: //depot/dev/client3/rdock/2013.1/src/exe/rbdock.cxx#4 $)

>  <Rbt.Library>
libRbt.so (2013.1, Build901 2013/11/27)

>  <Rbt.Parameter_File>
/home/fstefaniak/progs/rDock//data/scripts/dock_solv.prm

>  <Rbt.Receptor>
1y26.prm

>  <SCORE>
-52.7136

>  <SCORE.INTER>
-28.0845

>  <SCORE.INTER.CONST>
1

>  <SCORE.INTER.POLAR>
-3.78137

>  <SCORE.INTER.ROT>
0

>  <SCORE.INTER.SOLV>
12.518

>  <SCORE.INTER.VDW>
-13.8911

>  <SCORE.INTER.norm>
-3.1205

>  <SCORE.INTRA>
-2.85627

>  <SCORE.INTRA.DIHEDRAL>
-3.23434

>  <SCORE.INTRA.DIHEDRAL.0>
3.42521

>  <SCORE.INTRA.POLAR>
0.0344378

>  <SCORE.INTRA.POLAR.0>
-0.0344378

>  <SCORE.INTRA.REPUL>
0

>  <SCORE.INTRA.REPUL.0>
0

>  <SCORE.INTRA.SOLV>
0.0990499

>  <SCORE.INTRA.SOLV.lig_0>
-17.1361

>  <SCORE.INTRA.VDW>
-1.40572

>  <SCORE.INTRA.VDW.0>
1.11222

>  <SCORE.INTRA.norm>
-0.317364

>  <SCORE.RESTR>
0

>  <SCORE.RESTR.CAVITY>
0

>  <SCORE.RESTR.norm>
0

>  <SCORE.SYSTEM>
-21.7728

>  <SCORE.SYSTEM.CONST>
0

>  <SCORE.SYSTEM.DIHEDRAL>
5.77624

>  <SCORE.SYSTEM.POLAR>
-3.47889

>  <SCORE.SYSTEM.SOLV>
0.535158

>  <SCORE.SYSTEM.VDW>
-5.02272

>  <SCORE.SYSTEM.norm>
-2.4192

>  <SCORE.heavy>
9

>  <SCORE.norm>
-5.85706

$$$$
P08390249
 OpenBabel12072022103D
libRbt.so/2013.1/901 2013/11/27
 12 12  0  0  0  0  0  0  0  0999 V2000
   18.0266  -18.4653    4.6221 C   0  0  0  0  0  0  0  0  0  0  0  0
   18.3857  -18.3412    3.1416 C   0  0  1  0  0  0  0  0  0  0  0  0
   19.6543  -17.4972    2.9335 C   0  0  2  0  0  0  0  0  0  0  0  0
   20.7721  -17.9579    3.8724 C   0  0  0  0  0  0  0  0  0  0  0  0
   20.3116  -17.9050    5.2294 O   0  0  0  0  0  0  0  0  0  0  0  0
   19.2494  -18.8204    5.4613 C   0  0  1  0  0  0  0  0  0  0  0  0
   18.9256  -18.7827    6.8371 O   0  0  0  0  0  0  0  0  0  0  0  0
   19.3583  -16.1216    3.2098 O   0  0  0  0  0  0  0  0  0  0  0  0
   18.5217  -19.6355    2.5496 O   0  0  0  0  0  0  0  0  0  0  0  0
   18.5882  -17.8887    7.0084 H   0  0  0  0  0  0  0  0  0  0  0  0
   19.0112  -16.0768    4.1213 H   0  0  0  0  0  0  0  0  0  0  0  0
   18.7577  -19.5576    1.6112 H   0  0  0  0  0  0  0  0  0  0  0  0
  1  2  1  0  0  0  0
  1  6  1  0  0  0  0
  2  9  1  1  0  0  0
  2  3  1  0  0  0  0
  3  4  1  0  0  0  0
  3  8  1  1  0  0  0
  4  5  1  0  0  0  0
  5  6  1  0  0  0  0
  6  7  1  1  0  0  0
  7 10  1  0  0  0  0
  8 11  1  0  0  0  0
  9 12  1  0  0  0  0
M  END
>  <CHROM.0>
-46.77735045,179.31359078,-55.86421443,-53.92713745,-175.17009390,-59.79193307
-59.71706391,-49.52176199,-167.03848793,160.64144767

>  <CHROM.1>
-179.48616712,56.87581986,-56.99672954,19.24002584,-18.15768806,4.23008642
1.55477953,0.92844822,1.81123042

>  <Name>
P08390249

>  <RI>
0

>  <Rbt.Current_Directory>
/home/fstefaniak/projects/zuza/docking/adenine/1Y26

>  <Rbt.Executable>
rbdock ($Id: //depot/dev/client3/rdock/2013.1/src/exe/rbdock.cxx#4 $)

>  <Rbt.Library>
libRbt.so (2013.1, Build901 2013/11/27)

>  <Rbt.Parameter_File>
/home/fstefaniak/progs/rDock//data/scripts/dock_solv.prm

>  <Rbt.Receptor>
1y26.prm

>  <SCORE>
-51.4727

>  <SCORE.INTER>
-27.0717

>  <SCORE.INTER.CONST>
1

>  <SCORE.INTER.POLAR>
-4.38018

>  <SCORE.INTER.ROT>
0

>  <SCORE.INTER.SOLV>
13.9897

>  <SCORE.INTER.VDW>
-11.7105

>  <SCORE.INTER.norm>
-3.00797

>  <SCORE.INTRA>
-2.06426

>  <SCORE.INTRA.DIHEDRAL>
-3.24919

>  <SCORE.INTRA.DIHEDRAL.0>
3.42521

>  <SCORE.INTRA.POLAR>
0.0344378

>  <SCORE.INTRA.POLAR.0>
-0.0344378

>  <SCORE.INTRA.REPUL>
0

>  <SCORE.INTRA.REPUL.0>
0

>  <SCORE.INTRA.SOLV>
0.0351025

>  <SCORE.INTRA.SOLV.lig_0>
-17.1361

>  <SCORE.INTRA.VDW>
-0.57431

>  <SCORE.INTRA.VDW.0>
1.11222

>  <SCORE.INTRA.norm>
-0.229363

>  <SCORE.RESTR>
0

>  <SCORE.RESTR.CAVITY>
0

>  <SCORE.RESTR.norm>
0

>  <SCORE.SYSTEM>
-22.3367

>  <SCORE.SYSTEM.CONST>
0

>  <SCORE.SYSTEM.DIHEDRAL>
6.06527

>  <SCORE.SYSTEM.POLAR>
-3.50843

>  <SCORE.SYSTEM.SOLV>
0.446997

>  <SCORE.SYSTEM.VDW>
-5.36713

>  <SCORE.SYSTEM.norm>
-2.48186

>  <SCORE.heavy>
9

>  <SCORE.norm>
-5.71919

$$$$
P08390249
 OpenBabel12072022103D
libRbt.so/2013.1/901 2013/11/27
 12 12  0  0  0  0  0  0  0  0999 V2000
   18.0698  -18.4839    4.6211 C   0  0  0  0  0  0  0  0  0  0  0  0
   18.4482  -18.1150    3.1869 C   0  0  1  0  0  0  0  0  0  0  0  0
   19.6401  -17.1441    3.1456 C   0  0  2  0  0  0  0  0  0  0  0  0
   20.7742  -17.6391    4.0467 C   0  0  0  0  0  0  0  0  0  0  0  0
   20.2816  -17.8242    5.3807 O   0  0  0  0  0  0  0  0  0  0  0  0
   19.3012  -18.8513    5.4424 C   0  0  1  0  0  0  0  0  0  0  0  0
   18.9457  -19.0424    6.7974 O   0  0  0  0  0  0  0  0  0  0  0  0
   19.2158  -15.8539    3.6058 O   0  0  0  0  0  0  0  0  0  0  0  0
   18.7127  -19.2928    2.4207 O   0  0  0  0  0  0  0  0  0  0  0  0
   18.4986  -18.2265    7.0746 H   0  0  0  0  0  0  0  0  0  0  0  0
   19.8893  -15.2076    3.3195 H   0  0  0  0  0  0  0  0  0  0  0  0
   18.9394  -19.0599    1.5059 H   0  0  0  0  0  0  0  0  0  0  0  0
  1  2  1  0  0  0  0
  1  6  1  0  0  0  0
  2  9  1  6  0  0  0
  2  3  1  0  0  0  0
  3  4  1  0  0  0  0
  3  8  1  1  0  0  0
  4  5  1  0  0  0  0
  5  6  1  0  0  0  0
  6  7  1  1  0  0  0
  7 10  1  0  0  0  0
  8 11  1  0  0  0  0
  9 12  1  0  0  0  0
M  END
>  <CHROM.0>
-46.09063930,-179.42128183,-59.46096685,-52.62361386,-174.63264053,-57.49131640
-58.06225626,-52.04231953,-166.07008075,161.27574162

>  <CHROM.1>
179.10244823,-163.08952774,-55.11123572,19.26640563,-18.01385923,4.31019289
1.58175972,1.01418846,1.96102853

>  <Name>
P08390249

>  <RI>
0

>  <Rbt.Current_Directory>
/home/fstefaniak/projects/zuza/docking/adenine/1Y26

>  <Rbt.Executable>
rbdock ($Id: //depot/dev/client3/rdock/2013.1/src/exe/rbdock.cxx#4 $)

>  <Rbt.Library>
libRbt.so (2013.1, Build901 2013/11/27)

>  <Rbt.Parameter_File>
/home/fstefaniak/progs/rDock//data/scripts/dock_solv.prm

>  <Rbt.Receptor>
1y26.prm

>  <SCORE>
-51.2743

>  <SCORE.INTER>
-27.2384

>  <SCORE.INTER.CONST>
1

>  <SCORE.INTER.POLAR>
-3.97059

>  <SCORE.INTER.ROT>
0

>  <SCORE.INTER.SOLV>
13.9302

>  <SCORE.INTER.VDW>
-13.167

>  <SCORE.INTER.norm>
-3.02649

>  <SCORE.INTRA>
-1.72639

>  <SCORE.INTRA.DIHEDRAL>
-1.9017

>  <SCORE.INTRA.DIHEDRAL.0>
3.42521

>  <SCORE.INTRA.POLAR>
0.0344378

>  <SCORE.INTRA.POLAR.0>
-0.0344378

>  <SCORE.INTRA.REPUL>
0

>  <SCORE.INTRA.REPUL.0>
0

>  <SCORE.INTRA.SOLV>
0.0932442

>  <SCORE.INTRA.SOLV.lig_0>
-17.1361

>  <SCORE.INTRA.VDW>
-0.939247

>  <SCORE.INTRA.VDW.0>
1.11222

>  <SCORE.INTRA.norm>
-0.191821

>  <SCORE.RESTR>
0

>  <SCORE.RESTR.CAVITY>
0

>  <SCORE.RESTR.norm>
0

>  <SCORE.SYSTEM>
-22.3096

>  <SCORE.SYSTEM.CONST>
0

>  <SCORE.SYSTEM.DIHEDRAL>
6.03196

>  <SCORE.SYSTEM.POLAR>
-3.50553

>  <SCORE.SYSTEM.SOLV>
0.448853

>  <SCORE.SYSTEM.VDW>
-5.3482

>  <SCORE.SYSTEM.norm>
-2.47884

>  <SCORE.heavy>
9

>  <SCORE.norm>
-5.69715

$$$$
P09082078
 OpenBabel12072022103D
libRbt.so/2013.1/901 2013/11/27
 10 10  0  0  0  0  0  0  0  0999 V2000
   19.9031  -18.2082    5.1780 C   0  0  0  0  0  0  0  0  0  0  0  0
   18.5562  -18.0576    4.4789 C   0  0  0  0  0  0  0  0  0  0  0  0
   18.9241  -18.1040    2.7312 S   0  0  0  0  0  0  0  0  0  0  0  0
   18.4311  -16.8853    2.1225 O   0  0  0  0  0  0  0  0  0  0  0  0
   18.5976  -19.4153    2.2124 O   0  0  0  0  0  0  0  0  0  0  0  0
   20.6998  -17.9755    2.8854 C   0  0  0  0  0  0  0  0  0  0  0  0
   20.9531  -17.4883    4.3126 C   0  0  1  0  0  0  0  0  0  0  0  0
   20.8704  -15.9609    4.4106 C   0  0  0  0  0  0  0  0  0  0  0  0
   22.1641  -15.4475    4.6899 O   0  0  0  0  0  0  0  0  0  0  0  0
   22.4104  -15.7542    5.5808 H   0  0  0  0  0  0  0  0  0  0  0  0
  1  2  1  0  0  0  0
  1  7  1  0  0  0  0
  2  3  1  0  0  0  0
  3  4  2  0  0  0  0
  3  5  2  0  0  0  0
  3  6  1  0  0  0  0
  6  7  1  0  0  0  0
  7  8  1  6  0  0  0
  8  9  1  0  0  0  0
  9 10  1  0  0  0  0
M  END
>  <CHROM.0>
-45.84617852,-62.85840773,-52.53241150,-52.03367188,-57.22877609,-64.71021719
-58.85370000,-52.91609478,-168.88788916,160.55863114

>  <CHROM.1>
129.45677376,-66.17176353,19.78589178,-17.55497831,3.53891866,0.07335072
0.82170854,2.20395186

>  <Name>
P09082078

>  <RI>
0

>  <Rbt.Current_Directory>
/home/fstefaniak/projects/zuza/docking/adenine/1Y26

>  <Rbt.Executable>
rbdock ($Id: //depot/dev/client3/rdock/2013.1/src/exe/rbdock.cxx#4 $)

>  <Rbt.Library>
libRbt.so (2013.1, Build901 2013/11/27)

>  <Rbt.Parameter_File>
/home/fstefaniak/progs/rDock//data/scripts/dock_solv.prm

>  <Rbt.Receptor>
1y26.prm

>  <SCORE>
-42.7679

>  <SCORE.INTER>
-22.873

>  <SCORE.INTER.CONST>
1

>  <SCORE.INTER.POLAR>
-2.8434

>  <SCORE.INTER.ROT>
1

>  <SCORE.INTER.SOLV>
9.53144

>  <SCORE.INTER.VDW>
-13.2145

>  <SCORE.INTER.norm>
-2.54144

>  <SCORE.INTRA>
2.30194

>  <SCORE.INTRA.DIHEDRAL>
5.09467

>  <SCORE.INTRA.DIHEDRAL.0>
0.0449445

>  <SCORE.INTRA.POLAR>
0

>  <SCORE.INTRA.POLAR.0>
0

>  <SCORE.INTRA.REPUL>
0

>  <SCORE.INTRA.REPUL.0>
0

>  <SCORE.INTRA.SOLV>
-0.307682

>  <SCORE.INTRA.SOLV.lig_0>
-10.6788

>  <SCORE.INTRA.VDW>
-0.0915559

>  <SCORE.INTRA.VDW.0>
-0.232893

>  <SCORE.INTRA.norm>
0.255771

>  <SCORE.RESTR>
0

>  <SCORE.RESTR.CAVITY>
0

>  <SCORE.RESTR.norm>
0

>  <SCORE.SYSTEM>
-22.1968

>  <SCORE.SYSTEM.CONST>
0

>  <SCORE.SYSTEM.DIHEDRAL>
6.10475

>  <SCORE.SYSTEM.POLAR>
-3.5441

>  <SCORE.SYSTEM.SOLV>
0.662956

>  <SCORE.SYSTEM.VDW>
-5.24014

>  <SCORE.SYSTEM.norm>
-2.46631

>  <SCORE.heavy>
9

>  <SCORE.norm>
-4.75199

$$$$
P09082078
 OpenBabel12072022103D
libRbt.so/2013.1/901 2013/11/27
 10 10  0  0  0  0  0  0  0  0999 V2000
   19.8062  -18.2114    5.1226 C   0  0  0  0  0  0  0  0  0  0  0  0
   18.4738  -18.0901    4.3908 C   0  0  0  0  0  0  0  0  0  0  0  0
   18.8847  -18.1324    2.6526 S   0  0  0  0  0  0  0  0  0  0  0  0
   18.3815  -16.9254    2.0291 O   0  0  0  0  0  0  0  0  0  0  0  0
   18.5979  -19.4512    2.1294 O   0  0  0  0  0  0  0  0  0  0  0  0
   20.6532  -17.9669    2.8493 C   0  0  0  0  0  0  0  0  0  0  0  0
   20.8618  -17.4717    4.2810 C   0  0  1  0  0  0  0  0  0  0  0  0
   20.7453  -15.9462    4.3731 C   0  0  0  0  0  0  0  0  0  0  0  0
   22.0370  -15.3988    4.5896 O   0  0  0  0  0  0  0  0  0  0  0  0
   22.3480  -15.7253    5.4529 H   0  0  0  0  0  0  0  0  0  0  0  0
  1  2  1  0  0  0  0
  1  7  1  0  0  0  0
  2  3  1  0  0  0  0
  3  4  2  0  0  0  0
  3  5  2  0  0  0  0
  3  6  1  0  0  0  0
  6  7  1  0  0  0  0
  7  8  1  6  0  0  0
  8  9  1  0  0  0  0
  9 10  1  0  0  0  0
M  END
>  <CHROM.0>
-49.40887618,-169.96940926,-53.69841003,-50.55235328,-174.31051616,-60.19105686
-63.01858036,-51.92274099,-167.36410541,160.36084884

>  <CHROM.1>
133.47826288,-63.67518904,19.71758709,-17.56347329,3.46880837,0.08464399
0.84471545,2.17726635

>  <Name>
P09082078

>  <RI>
0

>  <Rbt.Current_Directory>
/home/fstefaniak/projects/zuza/docking/adenine/1Y26

>  <Rbt.Executable>
rbdock ($Id: //depot/dev/client3/rdock/2013.1/src/exe/rbdock.cxx#4 $)

>  <Rbt.Library>
libRbt.so (2013.1, Build901 2013/11/27)

>  <Rbt.Parameter_File>
/home/fstefaniak/progs/rDock//data/scripts/dock_solv.prm

>  <Rbt.Receptor>
1y26.prm

>  <SCORE>
-42.4064

>  <SCORE.INTER>
-22.2687

>  <SCORE.INTER.CONST>
1

>  <SCORE.INTER.POLAR>
-2.63937

>  <SCORE.INTER.ROT>
1

>  <SCORE.INTER.SOLV>
9.54923

>  <SCORE.INTER.VDW>
-13.4977

>  <SCORE.INTER.norm>
-2.4743

>  <SCORE.INTRA>
2.11942

>  <SCORE.INTRA.DIHEDRAL>
4.6603

>  <SCORE.INTRA.DIHEDRAL.0>
0.0449445

>  <SCORE.INTRA.POLAR>
0

>  <SCORE.INTRA.POLAR.0>
0

>  <SCORE.INTRA.REPUL>
0

>  <SCORE.INTRA.REPUL.0>
0

>  <SCORE.INTRA.SOLV>
-0.309324

>  <SCORE.INTRA.SOLV.lig_0>
-10.6788

>  <SCORE.INTRA.VDW>
-0.0560634

>  <SCORE.INTRA.VDW.0>
-0.232893

>  <SCORE.INTRA.norm>
0.235492

>  <SCORE.RESTR>
0

>  <SCORE.RESTR.CAVITY>
0

>  <SCORE.RESTR.norm>
0

>  <SCORE.SYSTEM>
-22.2571

>  <SCORE.SYSTEM.CONST>
0

>  <SCORE.SYSTEM.DIHEDRAL>
6.47448

>  <SCORE.SYSTEM.POLAR>
-3.53886

>  <SCORE.SYSTEM.SOLV>
0.431197

>  <SCORE.SYSTEM.VDW>
-5.34375

>  <SCORE.SYSTEM.norm>
-2.47301

>  <SCORE.heavy>
9

>  <SCORE.norm>
-4.71182

$$$$
P09082078
 OpenBabel12072022103D
libRbt.so/2013.1/901 2013/11/27
 10 10  0  0  0  0  0  0  0  0999 V2000
   19.9460  -18.1706    5.1940 C   0  0  0  0  0  0  0  0  0  0  0  0
   18.5928  -18.0322    4.5047 C   0  0  0  0  0  0  0  0  0  0  0  0
   18.9473  -18.0861    2.7543 S   0  0  0  0  0  0  0  0  0  0  0  0
   18.4421  -16.8740    2.1428 O   0  0  0  0  0  0  0  0  0  0  0  0
   18.6249  -19.4023    2.2455 O   0  0  0  0  0  0  0  0  0  0  0  0
   20.7234  -17.9459    2.8940 C   0  0  0  0  0  0  0  0  0  0  0  0
   20.9848  -17.4491    4.3164 C   0  0  1  0  0  0  0  0  0  0  0  0
   20.8935  -15.9218    4.4065 C   0  0  0  0  0  0  0  0  0  0  0  0
   22.1794  -15.4014    4.7074 O   0  0  0  0  0  0  0  0  0  0  0  0
   22.4259  -15.7327    5.5894 H   0  0  0  0  0  0  0  0  0  0  0  0
  1  2  1  0  0  0  0
  1  7  1  0  0  0  0
  2  3  1  0  0  0  0
  3  4  2  0  0  0  0
  3  5  2  0  0  0  0
  3  6  1  0  0  0  0
  6  7  1  0  0  0  0
  7  8  1  6  0  0  0
  8  9  1  0  0  0  0
  9 10  1  0  0  0  0
M  END
>  <CHROM.0>
61.51264905,-62.00803804,-49.66635627,-52.04646750,-56.89290868,-58.95404045
-60.70943022,-51.52248798,-166.57259319,160.86874799

>  <CHROM.1>
127.95024850,-63.94269113,19.81120368,-17.52779784,3.55611710,0.05843103
0.82463142,2.21563947

>  <Name>
P09082078

>  <RI>
0

>  <Rbt.Current_Directory>
/home/fstefaniak/projects/zuza/docking/adenine/1Y26

>  <Rbt.Executable>
rbdock ($Id: //depot/dev/client3/rdock/2013.1/src/exe/rbdock.cxx#4 $)

>  <Rbt.Library>
libRbt.so (2013.1, Build901 2013/11/27)

>  <Rbt.Parameter_File>
/home/fstefaniak/progs/rDock//data/scripts/dock_solv.prm

>  <Rbt.Receptor>
1y26.prm

>  <SCORE>
-41.9143

>  <SCORE.INTER>
-22.884

>  <SCORE.INTER.CONST>
1

>  <SCORE.INTER.POLAR>
-2.89044

>  <SCORE.INTER.ROT>
1

>  <SCORE.INTER.SOLV>
9.4884

>  <SCORE.INTER.VDW>
-13.0507

>  <SCORE.INTER.norm>
-2.54267

>  <SCORE.INTRA>
2.30931

>  <SCORE.INTRA.DIHEDRAL>
5.07688

>  <SCORE.INTRA.DIHEDRAL.0>
0.0449445

>  <SCORE.INTRA.POLAR>
0

>  <SCORE.INTRA.POLAR.0>
0

>  <SCORE.INTRA.REPUL>
0

>  <SCORE.INTRA.REPUL.0>
0

>  <SCORE.INTRA.SOLV>
-0.309291

>  <SCORE.INTRA.SOLV.lig_0>
-10.6788

>  <SCORE.INTRA.VDW>
-0.0744779

>  <SCORE.INTRA.VDW.0>
-0.232893

>  <SCORE.INTRA.norm>
0.256591

>  <SCORE.RESTR>
0

>  <SCORE.RESTR.CAVITY>
0

>  <SCORE.RESTR.norm>
0

>  <SCORE.SYSTEM>
-21.3396

>  <SCORE.SYSTEM.CONST>
0

>  <SCORE.SYSTEM.DIHEDRAL>
5.59579

>  <SCORE.SYSTEM.POLAR>
-3.3076

>  <SCORE.SYSTEM.SOLV>
0.645297

>  <SCORE.SYSTEM.VDW>
-5.28144

>  <SCORE.SYSTEM.norm>
-2.37107

>  <SCORE.heavy>
9

>  <SCORE.norm>
-4.65715

$$$$
P09577449
 OpenBabel12072022103D
libRbt.so/2013.1/901 2013/11/27
 14 14  0  0  0  0  0  0  0  0999 V2000
   22.9297  -16.6290    4.0913 C   0  0  0  0  0  0  0  0  0  0  0  0
   21.4053  -16.5703    4.1886 C   0  0  1  0  0  0  0  0  0  0  0  0
   21.0189  -15.2624    4.8111 C   0  0  0  0  0  0  0  0  0  0  0  0
   21.9890  -14.3472    4.9200 C   0  0  0  0  0  0  0  0  0  0  0  0
   23.4796  -14.9369    4.2694 S   0  0  0  0  0  0  0  0  0  0  0  0
   24.5034  -14.8822    5.2918 O   0  0  0  0  0  0  0  0  0  0  0  0
   23.6767  -14.3658    2.9536 O   0  0  0  0  0  0  0  0  0  0  0  0
   20.7560  -16.6380    2.8899 N   0  0  0  0  0  0  0  0  0  0  0  0
   20.2793  -17.7435    2.2755 C   0  0  0  0  0  0  0  0  0  0  0  0
   18.9024  -18.4923    2.8124 S   0  0  0  0  0  0  0  0  0  0  0  0
   20.9353  -18.1995    1.1906 N   0  0  0  0  0  0  0  0  0  0  0  0
   20.9351  -15.8762    2.2396 H   0  0  0  0  0  0  0  0  0  0  0  0
   20.7692  -19.1462    0.8802 H   0  0  0  0  0  0  0  0  0  0  0  0
   21.0202  -17.5313    0.4307 H   0  0  0  0  0  0  0  0  0  0  0  0
  1  2  1  0  0  0  0
  1  5  1  0  0  0  0
  2  3  1  0  0  0  0
  2  8  1  6  0  0  0
  3  4  2  0  0  0  0
  4  5  1  0  0  0  0
  5  6  2  0  0  0  0
  5  7  2  0  0  0  0
  8  9  1  0  0  0  0
  8 12  1  0  0  0  0
  9 10  2  0  0  0  0
  9 11  1  0  0  0  0
 11 13  1  0  0  0  0
 11 14  1  0  0  0  0
M  END
>  <CHROM.0>
-50.72829916,-58.11410915,-57.67201084,-50.24926000,-173.89046123,-61.57046107
-63.45308077,66.54551943,-168.14992558,161.66389767

>  <CHROM.1>
94.55969783,72.35786750,162.53705016,21.74557066,-16.27147381,3.56635048
-0.68184725,-0.43849149,-2.11943297

>  <Name>
P09577449

>  <RI>
0

>  <Rbt.Current_Directory>
/home/fstefaniak/projects/zuza/docking/adenine/1Y26

>  <Rbt.Executable>
rbdock ($Id: //depot/dev/client3/rdock/2013.1/src/exe/rbdock.cxx#4 $)

>  <Rbt.Library>
libRbt.so (2013.1, Build901 2013/11/27)

>  <Rbt.Parameter_File>
/home/fstefaniak/progs/rDock//data/scripts/dock_solv.prm

>  <Rbt.Receptor>
1y26.prm

>  <SCORE>
-56.2016

>  <SCORE.INTER>
-34.4236

>  <SCORE.INTER.CONST>
1

>  <SCORE.INTER.POLAR>
-5.19317

>  <SCORE.INTER.ROT>
3

>  <SCORE.INTER.SOLV>
12.9198

>  <SCORE.INTER.VDW>
-15.5451

>  <SCORE.INTER.norm>
-3.12942

>  <SCORE.INTRA>
-0.505283

>  <SCORE.INTRA.DIHEDRAL>
0.19491

>  <SCORE.INTRA.DIHEDRAL.0>
1.51463

>  <SCORE.INTRA.POLAR>
0

>  <SCORE.INTRA.POLAR.0>
0

>  <SCORE.INTRA.REPUL>
0

>  <SCORE.INTRA.REPUL.0>
0

>  <SCORE.INTRA.SOLV>
-0.156791

>  <SCORE.INTRA.SOLV.lig_0>
-16.5034

>  <SCORE.INTRA.VDW>
-0.524343

>  <SCORE.INTRA.VDW.0>
-0.810208

>  <SCORE.INTRA.norm>
-0.0459348

>  <SCORE.RESTR>
0

>  <SCORE.RESTR.CAVITY>
0

>  <SCORE.RESTR.norm>
0

>  <SCORE.SYSTEM>
-21.2728

>  <SCORE.SYSTEM.CONST>
0

>  <SCORE.SYSTEM.DIHEDRAL>
5.44188

>  <SCORE.SYSTEM.POLAR>
-3.41391

>  <SCORE.SYSTEM.SOLV>
0.256003

>  <SCORE.SYSTEM.VDW>
-4.70145

>  <SCORE.SYSTEM.norm>
-1.93389

>  <SCORE.heavy>
11

>  <SCORE.norm>
-5.10924

$$$$
P09577449
 OpenBabel12072022103D
libRbt.so/2013.1/901 2013/11/27
 14 14  0  0  0  0  0  0  0  0999 V2000
   20.8963  -15.2896    4.0529 C   0  0  0  0  0  0  0  0  0  0  0  0
   21.2742  -16.7680    3.9628 C   0  0  1  0  0  0  0  0  0  0  0  0
   22.7665  -16.8718    3.8638 C   0  0  0  0  0  0  0  0  0  0  0  0
   23.4573  -15.7538    4.1156 C   0  0  0  0  0  0  0  0  0  0  0  0
   22.4010  -14.4454    4.5224 S   0  0  0  0  0  0  0  0  0  0  0  0
   22.6262  -13.3459    3.6076 O   0  0  0  0  0  0  0  0  0  0  0  0
   22.4094  -14.2638    5.9588 O   0  0  0  0  0  0  0  0  0  0  0  0
   20.8662  -17.5251    5.1345 N   0  0  0  0  0  0  0  0  0  0  0  0
   19.7112  -18.2072    5.3006 C   0  0  0  0  0  0  0  0  0  0  0  0
   18.7761  -18.6325    4.0008 S   0  0  0  0  0  0  0  0  0  0  0  0
   19.3589  -18.5640    6.5511 N   0  0  0  0  0  0  0  0  0  0  0  0
   21.3122  -17.2909    6.0185 H   0  0  0  0  0  0  0  0  0  0  0  0
   18.6493  -18.0291    7.0312 H   0  0  0  0  0  0  0  0  0  0  0  0
   19.2876  -19.5652    6.7055 H   0  0  0  0  0  0  0  0  0  0  0  0
  1  2  1  0  0  0  0
  1  5  1  0  0  0  0
  2  3  1  0  0  0  0
  2  8  1  1  0  0  0
  3  4  2  0  0  0  0
  4  5  1  0  0  0  0
  5  6  2  0  0  0  0
  5  7  2  0  0  0  0
  8  9  1  0  0  0  0
  8 12  1  0  0  0  0
  9 10  2  0  0  0  0
  9 11  1  0  0  0  0
 11 13  1  0  0  0  0
 11 14  1  0  0  0  0
M  END
>  <CHROM.0>
-47.12423387,24.38056543,-55.73933094,-51.06217764,-55.89350298,-62.91592991
-60.30268984,-173.23490525,-168.03077526,160.54325354

>  <CHROM.1>
92.86001707,18.09824571,102.20867014,21.18292047,-16.32882459,4.60799579
0.02614472,-0.88908909,-1.65755293

>  <Name>
P09577449

>  <RI>
0

>  <Rbt.Current_Directory>
/home/fstefaniak/projects/zuza/docking/adenine/1Y26

>  <Rbt.Executable>
rbdock ($Id: //depot/dev/client3/rdock/2013.1/src/exe/rbdock.cxx#4 $)

>  <Rbt.Library>
libRbt.so (2013.1, Build901 2013/11/27)

>  <Rbt.Parameter_File>
/home/fstefaniak/progs/rDock//data/scripts/dock_solv.prm

>  <Rbt.Receptor>
1y26.prm

>  <SCORE>
-55.1542

>  <SCORE.INTER>
-34.4345

>  <SCORE.INTER.CONST>
1

>  <SCORE.INTER.POLAR>
-4.02244

>  <SCORE.INTER.ROT>
3

>  <SCORE.INTER.SOLV>
12.2463

>  <SCORE.INTER.VDW>
-19.2303

>  <SCORE.INTER.norm>
-3.13041

>  <SCORE.INTRA>
-0.285473

>  <SCORE.INTRA.DIHEDRAL>
0.16039

>  <SCORE.INTRA.DIHEDRAL.0>
1.51463

>  <SCORE.INTRA.POLAR>
0

>  <SCORE.INTRA.POLAR.0>
0

>  <SCORE.INTRA.REPUL>
0

>  <SCORE.INTRA.REPUL.0>
0

>  <SCORE.INTRA.SOLV>
-0.257115

>  <SCORE.INTRA.SOLV.lig_0>
-16.5034

>  <SCORE.INTRA.VDW>
-0.237111

>  <SCORE.INTRA.VDW.0>
-0.810208

>  <SCORE.INTRA.norm>
-0.0259521

>  <SCORE.RESTR>
0

>  <SCORE.RESTR.CAVITY>
0

>  <SCORE.RESTR.norm>
0

>  <SCORE.SYSTEM>
-20.4343

>  <SCORE.SYSTEM.CONST>
0

>  <SCORE.SYSTEM.DIHEDRAL>
10.3538

>  <SCORE.SYSTEM.POLAR>
-3.73389

>  <SCORE.SYSTEM.SOLV>
0.592281

>  <SCORE.SYSTEM.VDW>
-4.82525

>  <SCORE.SYSTEM.norm>
-1.85766

>  <SCORE.heavy>
11

>  <SCORE.norm>
-5.01402

$$$$
P09577449
 OpenBabel12072022103D
libRbt.so/2013.1/901 2013/11/27
 14 14  0  0  0  0  0  0  0  0999 V2000
   22.9195  -16.5607    4.6385 C   0  0  0  0  0  0  0  0  0  0  0  0
   21.5027  -17.0436    4.3287 C   0  0  1  0  0  0  0  0  0  0  0  0
   20.5823  -15.8604    4.3488 C   0  0  0  0  0  0  0  0  0  0  0  0
   21.1646  -14.6558    4.3743 C   0  0  0  0  0  0  0  0  0  0  0  0
   22.8889  -14.7953    4.3563 S   0  0  0  0  0  0  0  0  0  0  0  0
   23.4358  -14.1257    5.5178 O   0  0  0  0  0  0  0  0  0  0  0  0
   23.3682  -14.5250    3.0171 O   0  0  0  0  0  0  0  0  0  0  0  0
   21.3915  -17.6538    3.0142 N   0  0  0  0  0  0  0  0  0  0  0  0
   20.2531  -17.9807    2.3629 C   0  0  0  0  0  0  0  0  0  0  0  0
   18.8433  -18.2505    3.1901 S   0  0  0  0  0  0  0  0  0  0  0  0
   20.2877  -18.0456    1.0176 N   0  0  0  0  0  0  0  0  0  0  0  0
   22.2000  -18.1658    2.6687 H   0  0  0  0  0  0  0  0  0  0  0  0
   20.8614  -17.3869    0.5104 H   0  0  0  0  0  0  0  0  0  0  0  0
   20.3142  -18.9862    0.6359 H   0  0  0  0  0  0  0  0  0  0  0  0
  1  2  1  0  0  0  0
  1  5  1  0  0  0  0
  2  3  1  0  0  0  0
  2  8  1  6  0  0  0
  3  4  2  0  0  0  0
  4  5  1  0  0  0  0
  5  6  2  0  0  0  0
  5  7  2  0  0  0  0
  8  9  1  0  0  0  0
  8 12  1  0  0  0  0
  9 10  2  0  0  0  0
  9 11  1  0  0  0  0
 11 13  1  0  0  0  0
 11 14  1  0  0  0  0
M  END
>  <CHROM.0>
-175.69236358,-169.83145603,-62.39037700,-53.07262775,-60.87157001,-62.24724422
-62.93528472,-45.59983823,-166.07307766,160.86057247

>  <CHROM.1>
-168.57908995,-23.36073186,-36.23022796,21.44402784,-16.33431073,3.65237443
-0.70237593,-0.55822227,-2.06718765

>  <Name>
P09577449

>  <RI>
0

>  <Rbt.Current_Directory>
/home/fstefaniak/projects/zuza/docking/adenine/1Y26

>  <Rbt.Executable>
rbdock ($Id: //depot/dev/client3/rdock/2013.1/src/exe/rbdock.cxx#4 $)

>  <Rbt.Library>
libRbt.so (2013.1, Build901 2013/11/27)

>  <Rbt.Parameter_File>
/home/fstefaniak/progs/rDock//data/scripts/dock_solv.prm

>  <Rbt.Receptor>
1y26.prm

>  <SCORE>
-53.3682

>  <SCORE.INTER>
-32.5266

>  <SCORE.INTER.CONST>
1

>  <SCORE.INTER.POLAR>
-4.46063

>  <SCORE.INTER.ROT>
3

>  <SCORE.INTER.SOLV>
12.5176

>  <SCORE.INTER.VDW>
-16.5882

>  <SCORE.INTER.norm>
-2.95696

>  <SCORE.INTRA>
0.235839

>  <SCORE.INTRA.DIHEDRAL>
0.0261698

>  <SCORE.INTRA.DIHEDRAL.0>
1.51463

>  <SCORE.INTRA.POLAR>
0

>  <SCORE.INTRA.POLAR.0>
0

>  <SCORE.INTRA.REPUL>
0

>  <SCORE.INTRA.REPUL.0>
0

>  <SCORE.INTRA.SOLV>
-0.09748

>  <SCORE.INTRA.SOLV.lig_0>
-16.5034

>  <SCORE.INTRA.VDW>
0.271494

>  <SCORE.INTRA.VDW.0>
-0.810208

>  <SCORE.INTRA.norm>
0.0214399

>  <SCORE.RESTR>
0

>  <SCORE.RESTR.CAVITY>
0

>  <SCORE.RESTR.norm>
0

>  <SCORE.SYSTEM>
-21.0775

>  <SCORE.SYSTEM.CONST>
0

>  <SCORE.SYSTEM.DIHEDRAL>
6.27018

>  <SCORE.SYSTEM.POLAR>
-3.24766

>  <SCORE.SYSTEM.SOLV>
0.520257

>  <SCORE.SYSTEM.VDW>
-5.48958

>  <SCORE.SYSTEM.norm>
-1.91613

>  <SCORE.heavy>
11

>  <SCORE.norm>
-4.85166

$$$$
P101123070
 OpenBabel12072022103D
libRbt.so/2013.1/901 2013/11/27
 12 11  0  0  0  0  0  0  0  0999 V2000
   18.6536  -18.2462    2.1480 C   0  0  0  0  0  0  0  0  0  0  0  0
   18.8539  -18.4037    3.6404 C   0  0  0  0  0  0  0  0  0  0  0  0
   19.6561  -17.5730    4.3345 C   0  0  0  0  0  0  0  0  0  0  0  0
   20.4791  -16.3742    4.0061 C   0  0  0  0  0  0  0  0  0  0  0  0
   20.6111  -16.0037    2.8429 O   0  0  0  0  0  0  0  0  0  0  0  0
   21.0624  -15.8148    5.0881 O   0  0  0  0  0  0  0  0  0  0  0  0
   21.8855  -14.6845    4.8004 C   0  0  0  0  0  0  0  0  0  0  0  0
   19.6962  -17.9861    5.7002 N   0  3  0  0  0  0  0  0  0  0  0  0
   20.0344  -18.9391    5.8033 H   0  0  0  0  0  0  0  0  0  0  0  0
   20.4099  -17.3403    6.1155 H   0  0  0  0  0  0  0  0  0  0  0  0
   18.8087  -17.8279    6.1709 H   0  0  0  0  0  0  0  0  0  0  0  0
   18.2141  -19.3869    4.1212 O   0  5  0  0  0  0  0  0  0  0  0  0
  1  2  1  0  0  0  0
  2  3  2  0  0  0  0
  2 12  1  0  0  0  0
  3  4  1  0  0  0  0
  3  8  1  0  0  0  0
  4  5  2  0  0  0  0
  4  6  1  0  0  0  0
  6  7  1  0  0  0  0
  8  9  1  0  0  0  0
  8 10  1  0  0  0  0
  8 11  1  0  0  0  0
M  CHG  2   8   1  12  -1
M  END
>  <CHROM.0>
-47.40767207,-62.39490381,-52.44169094,-53.70342336,-55.71280679,-61.62448106
-60.12054513,-53.12179985,-165.84356623,161.01130365

>  <CHROM.1>
-6.16901519,58.78133584,178.45633851,19.91731223,-17.15539817,4.11247109
3.13865257,0.90818407,1.84171732

>  <Name>
P101123070

>  <RI>
0

>  <Rbt.Current_Directory>
/home/fstefaniak/projects/zuza/docking/adenine/1Y26

>  <Rbt.Executable>
rbdock ($Id: //depot/dev/client3/rdock/2013.1/src/exe/rbdock.cxx#4 $)

>  <Rbt.Library>
libRbt.so (2013.1, Build901 2013/11/27)

>  <Rbt.Parameter_File>
/home/fstefaniak/progs/rDock//data/scripts/dock_solv.prm

>  <Rbt.Receptor>
1y26.prm

>  <SCORE>
-47.3086

>  <SCORE.INTER>
-21.9411

>  <SCORE.INTER.CONST>
1

>  <SCORE.INTER.POLAR>
-3.80493

>  <SCORE.INTER.ROT>
2

>  <SCORE.INTER.SOLV>
23.5043

>  <SCORE.INTER.VDW>
-14.7124

>  <SCORE.INTER.norm>
-2.4379

>  <SCORE.INTRA>
-3.11859

>  <SCORE.INTRA.DIHEDRAL>
-0.132301

>  <SCORE.INTRA.DIHEDRAL.0>
1.44363

>  <SCORE.INTRA.POLAR>
-0.467693

>  <SCORE.INTRA.POLAR.0>
0

>  <SCORE.INTRA.REPUL>
0

>  <SCORE.INTRA.REPUL.0>
0

>  <SCORE.INTRA.SOLV>
0.308826

>  <SCORE.INTRA.SOLV.lig_0>
-48.0682

>  <SCORE.INTRA.VDW>
-1.61669

>  <SCORE.INTRA.VDW.0>
3.1995

>  <SCORE.INTRA.norm>
-0.34651

>  <SCORE.RESTR>
0

>  <SCORE.RESTR.CAVITY>
0

>  <SCORE.RESTR.norm>
0

>  <SCORE.SYSTEM>
-22.2489

>  <SCORE.SYSTEM.CONST>
0

>  <SCORE.SYSTEM.DIHEDRAL>
6.0093

>  <SCORE.SYSTEM.POLAR>
-3.51032

>  <SCORE.SYSTEM.SOLV>
0.66153

>  <SCORE.SYSTEM.VDW>
-5.35511

>  <SCORE.SYSTEM.norm>
-2.4721

>  <SCORE.heavy>
9

>  <SCORE.norm>
-5.25651

$$$$
P101123070
 OpenBabel12072022103D
libRbt.so/2013.1/901 2013/11/27
 12 11  0  0  0  0  0  0  0  0999 V2000
   18.6075  -18.2029    2.1693 C   0  0  0  0  0  0  0  0  0  0  0  0
   18.8272  -18.3807    3.6567 C   0  0  0  0  0  0  0  0  0  0  0  0
   19.6279  -17.5514    4.3541 C   0  0  0  0  0  0  0  0  0  0  0  0
   20.4330  -16.3381    4.0346 C   0  0  0  0  0  0  0  0  0  0  0  0
   20.5534  -15.9529    2.8750 O   0  0  0  0  0  0  0  0  0  0  0  0
   21.0151  -15.7831    5.1196 O   0  0  0  0  0  0  0  0  0  0  0  0
   21.7853  -14.6126    4.8461 C   0  0  0  0  0  0  0  0  0  0  0  0
   19.6889  -17.9846    5.7128 N   0  3  0  0  0  0  0  0  0  0  0  0
   20.0134  -18.9444    5.7955 H   0  0  0  0  0  0  0  0  0  0  0  0
   20.4213  -17.3564    6.1224 H   0  0  0  0  0  0  0  0  0  0  0  0
   18.8137  -17.8189    6.2037 H   0  0  0  0  0  0  0  0  0  0  0  0
   18.2045  -19.3785    4.1298 O   0  5  0  0  0  0  0  0  0  0  0  0
  1  2  1  0  0  0  0
  2  3  2  0  0  0  0
  2 12  1  0  0  0  0
  3  4  1  0  0  0  0
  3  8  1  0  0  0  0
  4  5  2  0  0  0  0
  4  6  1  0  0  0  0
  6  7  1  0  0  0  0
  8  9  1  0  0  0  0
  8 10  1  0  0  0  0
  8 11  1  0  0  0  0
M  CHG  2   8   1  12  -1
M  END
>  <CHROM.0>
-45.75657245,-60.71642153,-58.98605447,-54.65902052,-59.96388093,-58.48377464
-47.98320050,-51.10249079,-167.70666712,160.93363023

>  <CHROM.1>
-6.59300286,57.10580724,-179.54892188,19.87648568,-17.12365497,4.13644475
3.11687886,0.92210399,1.87284558

>  <Name>
P101123070

>  <RI>
0

>  <Rbt.Current_Directory>
/home/fstefaniak/projects/zuza/docking/adenine/1Y26

>  <Rbt.Executable>
rbdock ($Id: //depot/dev/client3/rdock/2013.1/src/exe/rbdock.cxx#4 $)

>  <Rbt.Library>
libRbt.so (2013.1, Build901 2013/11/27)

>  <Rbt.Parameter_File>
/home/fstefaniak/progs/rDock//data/scripts/dock_solv.prm

>  <Rbt.Receptor>
1y26.prm

>  <SCORE>
-47.0936

>  <SCORE.INTER>
-22.0224

>  <SCORE.INTER.CONST>
1

>  <SCORE.INTER.POLAR>
-3.86043

>  <SCORE.INTER.ROT>
2

>  <SCORE.INTER.SOLV>
23.5784

>  <SCORE.INTER.VDW>
-14.6063

>  <SCORE.INTER.norm>
-2.44693

>  <SCORE.INTRA>
-3.07401

>  <SCORE.INTRA.DIHEDRAL>
-0.0992261

>  <SCORE.INTRA.DIHEDRAL.0>
1.44363

>  <SCORE.INTRA.POLAR>
-0.456356

>  <SCORE.INTRA.POLAR.0>
0

>  <SCORE.INTRA.REPUL>
0

>  <SCORE.INTRA.REPUL.0>
0

>  <SCORE.INTRA.SOLV>
0.304314

>  <SCORE.INTRA.SOLV.lig_0>
-48.0682

>  <SCORE.INTRA.VDW>
-1.62494

>  <SCORE.INTRA.VDW.0>
3.1995

>  <SCORE.INTRA.norm>
-0.341557

>  <SCORE.RESTR>
0

>  <SCORE.RESTR.CAVITY>
0

>  <SCORE.RESTR.norm>
0

>  <SCORE.SYSTEM>
-21.9973

>  <SCORE.SYSTEM.CONST>
0

>  <SCORE.SYSTEM.DIHEDRAL>
6.40951

>  <SCORE.SYSTEM.POLAR>
-3.52392

>  <SCORE.SYSTEM.SOLV>
0.681031

>  <SCORE.SYSTEM.VDW>
-5.28194

>  <SCORE.SYSTEM.norm>
-2.44414

>  <SCORE.heavy>
9

>  <SCORE.norm>
-5.23263

$$$$
P101123070
 OpenBabel12072022103D
libRbt.so/2013.1/901 2013/11/27
 12 11  0  0  0  0  0  0  0  0999 V2000
   18.6202  -18.2435    2.1295 C   0  0  0  0  0  0  0  0  0  0  0  0
   18.8789  -18.4363    3.6088 C   0  0  0  0  0  0  0  0  0  0  0  0
   19.7347  -17.6436    4.2829 C   0  0  0  0  0  0  0  0  0  0  0  0
   20.5788  -16.4632    3.9416 C   0  0  0  0  0  0  0  0  0  0  0  0
   20.6433  -16.0513    2.7867 O   0  0  0  0  0  0  0  0  0  0  0  0
   21.2581  -15.9694    4.9992 O   0  0  0  0  0  0  0  0  0  0  0  0
   22.1020  -14.8585    4.6960 C   0  0  0  0  0  0  0  0  0  0  0  0
   19.8203  -18.0845    5.6377 N   0  3  0  0  0  0  0  0  0  0  0  0
   20.5290  -17.5783    6.1621 H   0  0  0  0  0  0  0  0  0  0  0  0
   18.8812  -17.8250    6.0245 H   0  0  0  0  0  0  0  0  0  0  0  0
   19.9256  -19.0939    5.7025 H   0  0  0  0  0  0  0  0  0  0  0  0
   18.2307  -19.4096    4.0984 O   0  5  0  0  0  0  0  0  0  0  0  0
  1  2  1  0  0  0  0
  2  3  2  0  0  0  0
  2 12  1  0  0  0  0
  3  4  1  0  0  0  0
  3  8  1  0  0  0  0
  4  5  2  0  0  0  0
  4  6  1  0  0  0  0
  6  7  1  0  0  0  0
  8  9  1  0  0  0  0
  8 10  1  0  0  0  0
  8 11  1  0  0  0  0
M  CHG  2   8   1  12  -1
M  END
>  <CHROM.0>
-49.86405223,-62.97392161,-50.52947548,-52.80011775,-57.37132705,-53.94419012
-63.73350334,-177.80052207,-167.50360664,161.18135942

>  <CHROM.1>
-4.14340166,173.92724642,178.49301464,20.00063813,-17.23359441,4.05616510
3.07873251,0.86024034,1.91085682

>  <Name>
P101123070

>  <RI>
0

>  <Rbt.Current_Directory>
/home/fstefaniak/projects/zuza/docking/adenine/1Y26

>  <Rbt.Executable>
rbdock ($Id: //depot/dev/client3/rdock/2013.1/src/exe/rbdock.cxx#4 $)

>  <Rbt.Library>
libRbt.so (2013.1, Build901 2013/11/27)

>  <Rbt.Parameter_File>
/home/fstefaniak/progs/rDock//data/scripts/dock_solv.prm

>  <Rbt.Receptor>
1y26.prm

>  <SCORE>
-46.4835

>  <SCORE.INTER>
-21.487

>  <SCORE.INTER.CONST>
1

>  <SCORE.INTER.POLAR>
-3.6825

>  <SCORE.INTER.ROT>
2

>  <SCORE.INTER.SOLV>
23.2124

>  <SCORE.INTER.VDW>
-14.7205

>  <SCORE.INTER.norm>
-2.38745

>  <SCORE.INTRA>
-2.41785

>  <SCORE.INTRA.DIHEDRAL>
-0.190194

>  <SCORE.INTRA.DIHEDRAL.0>
1.44363

>  <SCORE.INTRA.POLAR>
-0.224049

>  <SCORE.INTRA.POLAR.0>
0

>  <SCORE.INTRA.REPUL>
0

>  <SCORE.INTRA.REPUL.0>
0

>  <SCORE.INTRA.SOLV>
0.39427

>  <SCORE.INTRA.SOLV.lig_0>
-48.0682

>  <SCORE.INTRA.VDW>
-1.75812

>  <SCORE.INTRA.VDW.0>
3.1995

>  <SCORE.INTRA.norm>
-0.26865

>  <SCORE.RESTR>
0

>  <SCORE.RESTR.CAVITY>
0

>  <SCORE.RESTR.norm>
0

>  <SCORE.SYSTEM>
-22.5786

>  <SCORE.SYSTEM.CONST>
0

>  <SCORE.SYSTEM.DIHEDRAL>
5.7333

>  <SCORE.SYSTEM.POLAR>
-3.48301

>  <SCORE.SYSTEM.SOLV>
0.45705

>  <SCORE.SYSTEM.VDW>
-5.50584

>  <SCORE.SYSTEM.norm>
-2.50874

>  <SCORE.heavy>
9

>  <SCORE.norm>
-5.16483

$$$$
P101128085
 OpenBabel12072022103D
libRbt.so/2013.1/901 2013/11/27
 13 13  0  0  0  0  0  0  0  0999 V2000
   21.4647  -16.9745    4.5243 C   0  0  0  0  0  0  0  0  0  0  0  0
   20.2510  -17.8132    4.1834 C   0  0  2  0  0  0  0  0  0  0  0  0
   19.6464  -17.1497    3.0497 O   0  0  0  0  0  0  0  0  0  0  0  0
   20.0385  -15.7877    3.0766 N   0  0  0  0  0  0  0  0  0  0  0  0
   21.0285  -15.7136    3.8988 C   0  0  0  0  0  0  0  0  0  0  0  0
   21.8224  -14.2608    4.2453 Cl  0  0  0  0  0  0  0  0  0  0  0  0
   19.1709  -18.0021    5.2827 C   0  0  1  0  0  0  0  0  0  0  0  0
   18.2162  -19.1637    4.9541 C   0  0  0  0  0  0  0  0  0  0  0  0
   17.1093  -19.1852    5.8513 O   0  0  0  0  0  0  0  0  0  0  0  0
   19.7186  -18.1670    6.6485 N   0  0  0  0  0  0  0  0  0  0  0  0
   17.4675  -19.5492    6.6835 H   0  0  0  0  0  0  0  0  0  0  0  0
   18.9858  -17.8863    7.3106 H   0  0  0  0  0  0  0  0  0  0  0  0
   20.4793  -17.5071    6.8034 H   0  0  0  0  0  0  0  0  0  0  0  0
  1  2  1  0  0  0  0
  1  5  1  0  0  0  0
  2  3  1  0  0  0  0
  2  7  1  1  0  0  0
  3  4  1  0  0  0  0
  4  5  2  0  0  0  0
  5  6  1  0  0  0  0
  7  8  1  6  0  0  0
  7 10  1  0  0  0  0
  8  9  1  0  0  0  0
  9 11  1  0  0  0  0
 10 12  1  0  0  0  0
 10 13  1  0  0  0  0
M  END
>  <CHROM.0>
-178.44558312,-55.53785729,-52.37662551,-52.02657785,-58.45721401,-178.77723131
-56.93100620,-177.63218444,-168.28346213,160.33696891

>  <CHROM.1>
-164.11364219,-170.47656735,156.30040424,-75.85077842,20.03983664,-16.88915876
4.57568008,-0.51849929,0.79658884,1.87113859

>  <Name>
P101128085

>  <RI>
0

>  <Rbt.Current_Directory>
/home/fstefaniak/projects/zuza/docking/adenine/1Y26

>  <Rbt.Executable>
rbdock ($Id: //depot/dev/client3/rdock/2013.1/src/exe/rbdock.cxx#4 $)

>  <Rbt.Library>
libRbt.so (2013.1, Build901 2013/11/27)

>  <Rbt.Parameter_File>
/home/fstefaniak/progs/rDock//data/scripts/dock_solv.prm

>  <Rbt.Receptor>
1y26.prm

>  <SCORE>
-53.8147

>  <SCORE.INTER>
-33.0655

>  <SCORE.INTER.CONST>
1

>  <SCORE.INTER.POLAR>
-4.77678

>  <SCORE.INTER.ROT>
3

>  <SCORE.INTER.SOLV>
11.7464

>  <SCORE.INTER.VDW>
-15.6365

>  <SCORE.INTER.norm>
-3.30655

>  <SCORE.INTRA>
0.428784

>  <SCORE.INTRA.DIHEDRAL>
0.709308

>  <SCORE.INTRA.DIHEDRAL.0>
2.47533

>  <SCORE.INTRA.POLAR>
0

>  <SCORE.INTRA.POLAR.0>
0

>  <SCORE.INTRA.REPUL>
0

>  <SCORE.INTRA.REPUL.0>
0

>  <SCORE.INTRA.SOLV>
-1.23933

>  <SCORE.INTRA.SOLV.lig_0>
-9.65475

>  <SCORE.INTRA.VDW>
0.693797

>  <SCORE.INTRA.VDW.0>
-1.18991

>  <SCORE.INTRA.norm>
0.0428784

>  <SCORE.RESTR>
0

>  <SCORE.RESTR.CAVITY>
0

>  <SCORE.RESTR.norm>
0

>  <SCORE.SYSTEM>
-21.178

>  <SCORE.SYSTEM.CONST>
0

>  <SCORE.SYSTEM.DIHEDRAL>
5.05967

>  <SCORE.SYSTEM.POLAR>
-3.2428

>  <SCORE.SYSTEM.SOLV>
0.278038

>  <SCORE.SYSTEM.VDW>
-5.08855

>  <SCORE.SYSTEM.norm>
-2.1178

>  <SCORE.heavy>
10

>  <SCORE.norm>
-5.38147

$$$$
P101128085
 OpenBabel12072022103D
libRbt.so/2013.1/901 2013/11/27
 13 13  0  0  0  0  0  0  0  0999 V2000
   21.3459  -17.0399    4.3374 C   0  0  0  0  0  0  0  0  0  0  0  0
   20.0971  -17.8699    4.1270 C   0  0  2  0  0  0  0  0  0  0  0  0
   19.3324  -17.1475    3.1349 O   0  0  0  0  0  0  0  0  0  0  0  0
   19.7216  -15.7853    3.1858 N   0  0  0  0  0  0  0  0  0  0  0  0
   20.8208  -15.7491    3.8582 C   0  0  0  0  0  0  0  0  0  0  0  0
   21.6538  -14.3109    4.1717 Cl  0  0  0  0  0  0  0  0  0  0  0  0
   19.1891  -18.1345    5.3585 C   0  0  1  0  0  0  0  0  0  0  0  0
   18.0261  -19.0837    5.0191 C   0  0  0  0  0  0  0  0  0  0  0  0
   17.0952  -19.1570    6.0956 O   0  0  0  0  0  0  0  0  0  0  0  0
   19.9144  -18.6278    6.5514 N   0  0  0  0  0  0  0  0  0  0  0  0
   17.5420  -19.6941    6.7779 H   0  0  0  0  0  0  0  0  0  0  0  0
   19.2595  -18.6047    7.3419 H   0  0  0  0  0  0  0  0  0  0  0  0
   20.6556  -17.9766    6.8054 H   0  0  0  0  0  0  0  0  0  0  0  0
  1  2  1  0  0  0  0
  1  5  1  0  0  0  0
  2  3  1  0  0  0  0
  2  7  1  1  0  0  0
  3  4  1  0  0  0  0
  4  5  2  0  0  0  0
  5  6  1  0  0  0  0
  7  8  1  6  0  0  0
  7 10  1  0  0  0  0
  8  9  1  0  0  0  0
  9 11  1  0  0  0  0
 10 12  1  0  0  0  0
 10 13  1  0  0  0  0
M  END
>  <CHROM.0>
-50.08297058,-49.12943483,-51.35395122,-52.08844302,-57.39056628,59.83022001
-57.23681501,-51.87062407,-168.05978444,161.32417631

>  <CHROM.1>
-175.29431763,-171.27604843,169.90058703,-73.71872390,19.91231875,-16.96049305
4.58185054,-0.74969918,0.66560567,2.14646966

>  <Name>
P101128085

>  <RI>
0

>  <Rbt.Current_Directory>
/home/fstefaniak/projects/zuza/docking/adenine/1Y26

>  <Rbt.Executable>
rbdock ($Id: //depot/dev/client3/rdock/2013.1/src/exe/rbdock.cxx#4 $)

>  <Rbt.Library>
libRbt.so (2013.1, Build901 2013/11/27)

>  <Rbt.Parameter_File>
/home/fstefaniak/progs/rDock//data/scripts/dock_solv.prm

>  <Rbt.Receptor>
1y26.prm

>  <SCORE>
-53.6359

>  <SCORE.INTER>
-32.2727

>  <SCORE.INTER.CONST>
1

>  <SCORE.INTER.POLAR>
-4.10409

>  <SCORE.INTER.ROT>
3

>  <SCORE.INTER.SOLV>
11.7598

>  <SCORE.INTER.VDW>
-17.3547

>  <SCORE.INTER.norm>
-3.22727

>  <SCORE.INTRA>
-0.500839

>  <SCORE.INTRA.DIHEDRAL>
-0.880981

>  <SCORE.INTRA.DIHEDRAL.0>
2.47533

>  <SCORE.INTRA.POLAR>
0

>  <SCORE.INTRA.POLAR.0>
0

>  <SCORE.INTRA.REPUL>
0

>  <SCORE.INTRA.REPUL.0>
0

>  <SCORE.INTRA.SOLV>
-1.27798

>  <SCORE.INTRA.SOLV.lig_0>
-9.65475

>  <SCORE.INTRA.VDW>
0.578643

>  <SCORE.INTRA.VDW.0>
-1.18991

>  <SCORE.INTRA.norm>
-0.0500839

>  <SCORE.RESTR>
0

>  <SCORE.RESTR.CAVITY>
0

>  <SCORE.RESTR.norm>
0

>  <SCORE.SYSTEM>
-20.8624

>  <SCORE.SYSTEM.CONST>
0

>  <SCORE.SYSTEM.DIHEDRAL>
6.20375

>  <SCORE.SYSTEM.POLAR>
-3.48342

>  <SCORE.SYSTEM.SOLV>
0.524201

>  <SCORE.SYSTEM.VDW>
-4.53951

>  <SCORE.SYSTEM.norm>
-2.08624

>  <SCORE.heavy>
10

>  <SCORE.norm>
-5.36359

$$$$
P101128085
 OpenBabel12072022103D
libRbt.so/2013.1/901 2013/11/27
 13 13  0  0  0  0  0  0  0  0999 V2000
   21.3917  -17.0198    4.3893 C   0  0  0  0  0  0  0  0  0  0  0  0
   20.1696  -17.8683    4.1079 C   0  0  2  0  0  0  0  0  0  0  0  0
   19.5003  -17.2052    3.0109 O   0  0  0  0  0  0  0  0  0  0  0  0
   19.8807  -15.8396    3.0244 N   0  0  0  0  0  0  0  0  0  0  0  0
   20.9118  -15.7601    3.7941 C   0  0  0  0  0  0  0  0  0  0  0  0
   21.7092  -14.3015    4.1062 Cl  0  0  0  0  0  0  0  0  0  0  0  0
   19.1503  -18.0726    5.2613 C   0  0  1  0  0  0  0  0  0  0  0  0
   18.3119  -19.3484    5.0654 C   0  0  0  0  0  0  0  0  0  0  0  0
   17.1631  -19.3397    5.9085 O   0  0  0  0  0  0  0  0  0  0  0  0
   19.7551  -18.0661    6.6128 N   0  0  0  0  0  0  0  0  0  0  0  0
   17.4776  -19.6871    6.7651 H   0  0  0  0  0  0  0  0  0  0  0  0
   20.0729  -19.0217    6.8131 H   0  0  0  0  0  0  0  0  0  0  0  0
   19.0425  -17.8737    7.3151 H   0  0  0  0  0  0  0  0  0  0  0  0
  1  2  1  0  0  0  0
  1  5  1  0  0  0  0
  2  3  1  0  0  0  0
  2  7  1  1  0  0  0
  3  4  1  0  0  0  0
  4  5  2  0  0  0  0
  5  6  1  0  0  0  0
  7  8  1  6  0  0  0
  7 10  1  0  0  0  0
  8  9  1  0  0  0  0
  9 11  1  0  0  0  0
 10 12  1  0  0  0  0
 10 13  1  0  0  0  0
M  END
>  <CHROM.0>
-44.40310698,-170.21152758,-52.03332329,-51.11536889,-172.49935359,56.66562332
-53.53233401,-48.69606263,-166.67320726,159.90950598

>  <CHROM.1>
-156.71770611,-164.37815678,-86.12867824,-84.62655921,19.97944084,-16.95715339
4.52327504,-0.57978124,0.81225686,1.90277855

>  <Name>
P101128085

>  <RI>
0

>  <Rbt.Current_Directory>
/home/fstefaniak/projects/zuza/docking/adenine/1Y26

>  <Rbt.Executable>
rbdock ($Id: //depot/dev/client3/rdock/2013.1/src/exe/rbdock.cxx#4 $)

>  <Rbt.Library>
libRbt.so (2013.1, Build901 2013/11/27)

>  <Rbt.Parameter_File>
/home/fstefaniak/progs/rDock//data/scripts/dock_solv.prm

>  <Rbt.Receptor>
1y26.prm

>  <SCORE>
-52.1844

>  <SCORE.INTER>
-32.9839

>  <SCORE.INTER.CONST>
1

>  <SCORE.INTER.POLAR>
-4.58357

>  <SCORE.INTER.ROT>
3

>  <SCORE.INTER.SOLV>
11.8422

>  <SCORE.INTER.VDW>
-16.2581

>  <SCORE.INTER.norm>
-3.29839

>  <SCORE.INTRA>
1.93768

>  <SCORE.INTRA.DIHEDRAL>
3.61325

>  <SCORE.INTRA.DIHEDRAL.0>
2.47533

>  <SCORE.INTRA.POLAR>
0

>  <SCORE.INTRA.POLAR.0>
0

>  <SCORE.INTRA.REPUL>
0

>  <SCORE.INTRA.REPUL.0>
0

>  <SCORE.INTRA.SOLV>
-1.13814

>  <SCORE.INTRA.SOLV.lig_0>
-9.65475

>  <SCORE.INTRA.VDW>
0.70012

>  <SCORE.INTRA.VDW.0>
-1.18991

>  <SCORE.INTRA.norm>
0.193768

>  <SCORE.RESTR>
0

>  <SCORE.RESTR.CAVITY>
0

>  <SCORE.RESTR.norm>
0

>  <SCORE.SYSTEM>
-21.1381

>  <SCORE.SYSTEM.CONST>
0

>  <SCORE.SYSTEM.DIHEDRAL>
7.83588

>  <SCORE.SYSTEM.POLAR>
-3.66489

>  <SCORE.SYSTEM.SOLV>
0.30131

>  <SCORE.SYSTEM.VDW>
-4.58815

>  <SCORE.SYSTEM.norm>
-2.11381

>  <SCORE.heavy>
10

>  <SCORE.norm>
-5.21844

$$$$
P105879035
 OpenBabel12072022103D
libRbt.so/2013.1/901 2013/11/27
 15 15  0  0  0  0  0  0  0  0999 V2000
   20.4567  -17.9761    5.9405 C   0  0  0  0  0  0  0  0  0  0  0  0
   20.3899  -16.7680    5.0054 C   0  0  0  0  0  0  0  0  0  0  0  0
   19.7400  -17.0373    3.6355 C   0  0  2  0  0  0  0  0  0  0  0  0
   18.3305  -17.5993    3.7525 C   0  0  0  0  0  0  0  0  0  0  0  0
   18.2571  -19.0614    4.7462 S   0  0  0  0  0  0  0  0  0  0  0  0
   19.0378  -20.0982    4.1052 O   0  0  0  0  0  0  0  0  0  0  0  0
   16.8640  -19.2898    5.0802 O   0  0  0  0  0  0  0  0  0  0  0  0
   19.0875  -18.5578    6.2352 C   0  0  0  0  0  0  0  0  0  0  0  0
   20.6389  -17.8949    2.7147 C   0  0  0  0  0  0  0  0  0  0  0  0
   21.7002  -18.3967    3.0659 O   0  0  0  0  0  0  0  0  0  0  0  0
   20.2109  -18.0030    1.4214 N   0  0  0  0  0  0  0  0  0  0  0  0
   19.6118  -15.7581    2.9692 O   0  0  0  0  0  0  0  0  0  0  0  0
   20.6686  -17.4786    0.6854 H   0  0  0  0  0  0  0  0  0  0  0  0
   19.7331  -18.8585    1.1673 H   0  0  0  0  0  0  0  0  0  0  0  0
   19.1065  -15.1723    3.5649 H   0  0  0  0  0  0  0  0  0  0  0  0
  1  2  1  0  0  0  0
  1  8  1  0  0  0  0
  2  3  1  0  0  0  0
  3  4  1  0  0  0  0
  3  9  1  6  0  0  0
  3 12  1  0  0  0  0
  4  5  1  0  0  0  0
  5  6  2  0  0  0  0
  5  7  2  0  0  0  0
  5  8  1  0  0  0  0
  9 10  2  0  0  0  0
  9 11  1  0  0  0  0
 11 13  1  0  0  0  0
 11 14  1  0  0  0  0
 12 15  1  0  0  0  0
M  END
>  <CHROM.0>
-49.21830213,-59.25626012,-56.56216736,-50.71983925,-58.44707943,-177.12729302
-57.45381912,-49.40737529,-167.31736000,160.89002653

>  <CHROM.1>
5.52681299,-55.66073327,104.32705091,19.39038384,-18.14493226,4.09360134
-2.61971046,-0.77745398,-1.81413798

>  <Name>
P105879035

>  <RI>
0

>  <Rbt.Current_Directory>
/home/fstefaniak/projects/zuza/docking/adenine/1Y26

>  <Rbt.Executable>
rbdock ($Id: //depot/dev/client3/rdock/2013.1/src/exe/rbdock.cxx#4 $)

>  <Rbt.Library>
libRbt.so (2013.1, Build901 2013/11/27)

>  <Rbt.Parameter_File>
/home/fstefaniak/progs/rDock//data/scripts/dock_solv.prm

>  <Rbt.Receptor>
1y26.prm

>  <SCORE>
-41.9917

>  <SCORE.INTER>
-20.1951

>  <SCORE.INTER.CONST>
1

>  <SCORE.INTER.POLAR>
-4.30257

>  <SCORE.INTER.ROT>
2

>  <SCORE.INTER.SOLV>
16.2824

>  <SCORE.INTER.VDW>
-9.48231

>  <SCORE.INTER.norm>
-1.68292

>  <SCORE.INTRA>
0.166028

>  <SCORE.INTRA.DIHEDRAL>
0.113874

>  <SCORE.INTRA.DIHEDRAL.0>
0.752795

>  <SCORE.INTRA.POLAR>
0

>  <SCORE.INTRA.POLAR.0>
0

>  <SCORE.INTRA.REPUL>
0

>  <SCORE.INTRA.REPUL.0>
0

>  <SCORE.INTRA.SOLV>
-0.128328

>  <SCORE.INTRA.SOLV.lig_0>
-16.6204

>  <SCORE.INTRA.VDW>
0.173255

>  <SCORE.INTRA.VDW.0>
-0.42874

>  <SCORE.INTRA.norm>
0.0138356

>  <SCORE.RESTR>
0

>  <SCORE.RESTR.CAVITY>
0

>  <SCORE.RESTR.norm>
0

>  <SCORE.SYSTEM>
-21.9626

>  <SCORE.SYSTEM.CONST>
0

>  <SCORE.SYSTEM.DIHEDRAL>
5.90952

>  <SCORE.SYSTEM.POLAR>
-3.51554

>  <SCORE.SYSTEM.SOLV>
0.53123

>  <SCORE.SYSTEM.VDW>
-5.0702

>  <SCORE.SYSTEM.norm>
-1.83022

>  <SCORE.heavy>
12

>  <SCORE.norm>
-3.49931

$$$$
P105879035
 OpenBabel12072022103D
libRbt.so/2013.1/901 2013/11/27
 15 15  0  0  0  0  0  0  0  0999 V2000
   20.4445  -17.9524    5.9360 C   0  0  0  0  0  0  0  0  0  0  0  0
   20.3619  -16.7546    4.9889 C   0  0  0  0  0  0  0  0  0  0  0  0
   19.7138  -17.0457    3.6225 C   0  0  2  0  0  0  0  0  0  0  0  0
   18.3115  -17.6238    3.7470 C   0  0  0  0  0  0  0  0  0  0  0  0
   18.2571  -19.0765    4.7554 S   0  0  0  0  0  0  0  0  0  0  0  0
   19.0498  -20.1101    4.1239 O   0  0  0  0  0  0  0  0  0  0  0  0
   16.8673  -19.3186    5.0934 O   0  0  0  0  0  0  0  0  0  0  0  0
   19.0829  -18.5478    6.2383 C   0  0  0  0  0  0  0  0  0  0  0  0
   20.6221  -17.9015    2.7093 C   0  0  0  0  0  0  0  0  0  0  0  0
   21.6782  -18.4066    3.0713 O   0  0  0  0  0  0  0  0  0  0  0  0
   20.2096  -18.0038    1.4105 N   0  0  0  0  0  0  0  0  0  0  0  0
   19.5692  -15.7749    2.9435 O   0  0  0  0  0  0  0  0  0  0  0  0
   20.6861  -17.4887    0.6801 H   0  0  0  0  0  0  0  0  0  0  0  0
   19.7201  -18.8513    1.1512 H   0  0  0  0  0  0  0  0  0  0  0  0
   19.0721  -15.1840    3.5410 H   0  0  0  0  0  0  0  0  0  0  0  0
  1  2  1  0  0  0  0
  1  8  1  0  0  0  0
  2  3  1  0  0  0  0
  3  4  1  0  0  0  0
  3  9  1  6  0  0  0
  3 12  1  0  0  0  0
  4  5  1  0  0  0  0
  5  6  2  0  0  0  0
  5  7  2  0  0  0  0
  5  8  1  0  0  0  0
  9 10  2  0  0  0  0
  9 11  1  0  0  0  0
 11 13  1  0  0  0  0
 11 14  1  0  0  0  0
 12 15  1  0  0  0  0
M  END
>  <CHROM.0>
-51.75121575,-64.08861768,-55.54722459,-51.47498543,54.89242662,-55.03301497
-61.00504010,-50.98557361,-165.47713798,160.48704386

>  <CHROM.1>
6.88916798,-54.59959696,105.28118939,19.37875295,-18.15246515,4.09222879
-2.62172078,-0.79179500,-1.82710952

>  <Name>
P105879035

>  <RI>
0

>  <Rbt.Current_Directory>
/home/fstefaniak/projects/zuza/docking/adenine/1Y26

>  <Rbt.Executable>
rbdock ($Id: //depot/dev/client3/rdock/2013.1/src/exe/rbdock.cxx#4 $)

>  <Rbt.Library>
libRbt.so (2013.1, Build901 2013/11/27)

>  <Rbt.Parameter_File>
/home/fstefaniak/progs/rDock//data/scripts/dock_solv.prm

>  <Rbt.Receptor>
1y26.prm

>  <SCORE>
-40.7705

>  <SCORE.INTER>
-20.3322

>  <SCORE.INTER.CONST>
1

>  <SCORE.INTER.POLAR>
-4.30511

>  <SCORE.INTER.ROT>
2

>  <SCORE.INTER.SOLV>
16.333

>  <SCORE.INTER.VDW>
-9.58211

>  <SCORE.INTER.norm>
-1.69435

>  <SCORE.INTRA>
0.201342

>  <SCORE.INTRA.DIHEDRAL>
0.179315

>  <SCORE.INTRA.DIHEDRAL.0>
0.752795

>  <SCORE.INTRA.POLAR>
0

>  <SCORE.INTRA.POLAR.0>
0

>  <SCORE.INTRA.REPUL>
0

>  <SCORE.INTRA.REPUL.0>
0

>  <SCORE.INTRA.SOLV>
-0.128936

>  <SCORE.INTRA.SOLV.lig_0>
-16.6204

>  <SCORE.INTRA.VDW>
0.176153

>  <SCORE.INTRA.VDW.0>
-0.42874

>  <SCORE.INTRA.norm>
0.0167785

>  <SCORE.RESTR>
0

>  <SCORE.RESTR.CAVITY>
0

>  <SCORE.RESTR.norm>
0

>  <SCORE.SYSTEM>
-20.6397

>  <SCORE.SYSTEM.CONST>
0

>  <SCORE.SYSTEM.DIHEDRAL>
6.02605

>  <SCORE.SYSTEM.POLAR>
-3.5075

>  <SCORE.SYSTEM.SOLV>
0.461793

>  <SCORE.SYSTEM.VDW>
-4.23074

>  <SCORE.SYSTEM.norm>
-1.71997

>  <SCORE.heavy>
12

>  <SCORE.norm>
-3.39755

$$$$
P105879035
 OpenBabel12072022103D
libRbt.so/2013.1/901 2013/11/27
 15 15  0  0  0  0  0  0  0  0999 V2000
   20.4312  -17.9331    5.9365 C   0  0  0  0  0  0  0  0  0  0  0  0
   20.3422  -16.7442    4.9789 C   0  0  0  0  0  0  0  0  0  0  0  0
   19.6948  -17.0504    3.6155 C   0  0  2  0  0  0  0  0  0  0  0  0
   18.2954  -17.6342    3.7458 C   0  0  0  0  0  0  0  0  0  0  0  0
   18.2486  -19.0782    4.7671 S   0  0  0  0  0  0  0  0  0  0  0  0
   19.0460  -20.1135    4.1442 O   0  0  0  0  0  0  0  0  0  0  0  0
   16.8602  -19.3241    5.1080 O   0  0  0  0  0  0  0  0  0  0  0  0
   19.0726  -18.5324    6.2447 C   0  0  0  0  0  0  0  0  0  0  0  0
   20.6068  -17.9098    2.7093 C   0  0  0  0  0  0  0  0  0  0  0  0
   21.6577  -18.4196    3.0797 O   0  0  0  0  0  0  0  0  0  0  0  0
   20.2044  -18.0098    1.4072 N   0  0  0  0  0  0  0  0  0  0  0  0
   19.5437  -15.7864    2.9254 O   0  0  0  0  0  0  0  0  0  0  0  0
   20.6821  -17.4877    0.6824 H   0  0  0  0  0  0  0  0  0  0  0  0
   19.7236  -18.8599    1.1407 H   0  0  0  0  0  0  0  0  0  0  0  0
   19.0538  -15.1891    3.5225 H   0  0  0  0  0  0  0  0  0  0  0  0
  1  2  1  0  0  0  0
  1  8  1  0  0  0  0
  2  3  1  0  0  0  0
  3  4  1  0  0  0  0
  3  9  1  6  0  0  0
  3 12  1  0  0  0  0
  4  5  1  0  0  0  0
  5  6  2  0  0  0  0
  5  7  2  0  0  0  0
  5  8  1  0  0  0  0
  9 10  2  0  0  0  0
  9 11  1  0  0  0  0
 11 13  1  0  0  0  0
 11 14  1  0  0  0  0
 12 15  1  0  0  0  0
M  END
>  <CHROM.0>
-58.17668976,51.34394815,-59.86197559,-52.35005502,-58.68225964,-177.29866950
-60.63528934,59.64140363,-166.33407005,161.24872371

>  <CHROM.1>
7.78861903,-53.90938957,104.53824657,19.36572210,-18.15429564,4.09512532
-2.62288351,-0.79843459,-1.83804088

>  <Name>
P105879035

>  <RI>
0

>  <Rbt.Current_Directory>
/home/fstefaniak/projects/zuza/docking/adenine/1Y26

>  <Rbt.Executable>
rbdock ($Id: //depot/dev/client3/rdock/2013.1/src/exe/rbdock.cxx#4 $)

>  <Rbt.Library>
libRbt.so (2013.1, Build901 2013/11/27)

>  <Rbt.Parameter_File>
/home/fstefaniak/progs/rDock//data/scripts/dock_solv.prm

>  <Rbt.Receptor>
1y26.prm

>  <SCORE>
-40.572

>  <SCORE.INTER>
-20.3036

>  <SCORE.INTER.CONST>
1

>  <SCORE.INTER.POLAR>
-4.29996

>  <SCORE.INTER.ROT>
2

>  <SCORE.INTER.SOLV>
16.3345

>  <SCORE.INTER.VDW>
-9.58072

>  <SCORE.INTER.norm>
-1.69197

>  <SCORE.INTRA>
0.23243

>  <SCORE.INTRA.DIHEDRAL>
0.234111

>  <SCORE.INTRA.DIHEDRAL.0>
0.752795

>  <SCORE.INTRA.POLAR>
0

>  <SCORE.INTRA.POLAR.0>
0

>  <SCORE.INTRA.REPUL>
0

>  <SCORE.INTRA.REPUL.0>
0

>  <SCORE.INTRA.SOLV>
-0.129321

>  <SCORE.INTRA.SOLV.lig_0>
-16.6204

>  <SCORE.INTRA.VDW>
0.180035

>  <SCORE.INTRA.VDW.0>
-0.42874

>  <SCORE.INTRA.norm>
0.0193692

>  <SCORE.RESTR>
0

>  <SCORE.RESTR.CAVITY>
0

>  <SCORE.RESTR.norm>
0

>  <SCORE.SYSTEM>
-20.5008

>  <SCORE.SYSTEM.CONST>
0

>  <SCORE.SYSTEM.DIHEDRAL>
5.06539

>  <SCORE.SYSTEM.POLAR>
-3.36842

>  <SCORE.SYSTEM.SOLV>
0.33706

>  <SCORE.SYSTEM.VDW>
-4.23992

>  <SCORE.SYSTEM.norm>
-1.7084

>  <SCORE.heavy>
12

>  <SCORE.norm>
-3.381

$$$$
P107007207
 OpenBabel12072022103D
libRbt.so/2013.1/901 2013/11/27
 16 16  0  0  0  0  0  0  0  0999 V2000
   23.9682  -10.0573    4.9569 C   0  0  0  0  0  0  0  0  0  0  0  0
   24.0185  -11.2752    4.0384 C   0  0  0  0  0  0  0  0  0  0  0  0
   22.6630  -12.0050    3.8513 C   0  0  1  0  0  0  0  0  0  0  0  0
   22.8519  -13.4780    3.4207 C   0  0  0  0  0  0  0  0  0  0  0  0
   23.1939  -14.4379    4.5576 C   0  0  1  0  0  0  0  0  0  0  0  0
   22.3407  -14.1812    5.7957 C   0  0  0  0  0  0  0  0  0  0  0  0
   22.2985  -12.7050    6.1450 C   0  0  0  0  0  0  0  0  0  0  0  0
   21.8666  -11.9260    5.0390 O   0  0  0  0  0  0  0  0  0  0  0  0
   22.9572  -15.9401    4.1555 C   0  0  0  0  0  0  0  0  0  0  0  0
   23.8829  -16.7602    4.3060 O   0  0  0  0  0  0  0  0  0  0  0  0
   21.7500  -16.0606    3.7466 O   0  5  0  0  0  0  0  0  0  0  0  0
   24.6742  -14.3186    4.9294 N   0  3  0  0  0  0  0  0  0  0  0  0
   25.3016  -14.7466    4.2466 H   0  0  0  0  0  0  0  0  0  0  0  0
   24.9936  -13.4210    5.2885 H   0  0  0  0  0  0  0  0  0  0  0  0
   24.7010  -15.0031    5.7369 H   0  0  0  0  0  0  0  0  0  0  0  0
   21.8439  -11.2926    2.7577 C   0  0  0  0  0  0  0  0  0  0  0  0
  1  2  1  0  0  0  0
  3  2  1  0  0  0  0
  3  4  1  0  0  0  0
  3  8  1  0  0  0  0
  3 16  1  6  0  0  0
  4  5  1  0  0  0  0
  5  6  1  0  0  0  0
  5 12  1  0  0  0  0
  5  9  1  6  0  0  0
  6  7  1  0  0  0  0
  7  8  1  0  0  0  0
  9 10  2  0  0  0  0
  9 11  1  0  0  0  0
 12 13  1  0  0  0  0
 12 14  1  0  0  0  0
 12 15  1  0  0  0  0
M  CHG  2  11  -1  12   1
M  END
>  <CHROM.0>
-45.16433467,-67.55730636,-55.70123068,-51.70554702,-53.62322392,-59.57704943
-55.69675811,-52.72675644,-166.04664019,161.80652178

>  <CHROM.1>
-156.97298893,-74.07947543,127.00643913,22.96556036,-13.42876178,4.44839619
-1.59565742,0.59563842,-3.12244198

>  <Name>
P107007207

>  <RI>
0

>  <Rbt.Current_Directory>
/home/fstefaniak/projects/zuza/docking/adenine/1Y26

>  <Rbt.Executable>
rbdock ($Id: //depot/dev/client3/rdock/2013.1/src/exe/rbdock.cxx#4 $)

>  <Rbt.Library>
libRbt.so (2013.1, Build901 2013/11/27)

>  <Rbt.Parameter_File>
/home/fstefaniak/progs/rDock//data/scripts/dock_solv.prm

>  <Rbt.Receptor>
1y26.prm

>  <SCORE>
-37.3237

>  <SCORE.INTER>
-17.4558

>  <SCORE.INTER.CONST>
1

>  <SCORE.INTER.POLAR>
-3.16248

>  <SCORE.INTER.ROT>
2

>  <SCORE.INTER.SOLV>
17.0249

>  <SCORE.INTER.VDW>
-11.7039

>  <SCORE.INTER.norm>
-1.34276

>  <SCORE.INTRA>
-1.63597

>  <SCORE.INTRA.DIHEDRAL>
-0.403863

>  <SCORE.INTRA.DIHEDRAL.0>
3.53771

>  <SCORE.INTRA.POLAR>
0

>  <SCORE.INTRA.POLAR.0>
0

>  <SCORE.INTRA.REPUL>
0

>  <SCORE.INTRA.REPUL.0>
0

>  <SCORE.INTRA.SOLV>
0.0675665

>  <SCORE.INTRA.SOLV.lig_0>
-41.78

>  <SCORE.INTRA.VDW>
-1.46782

>  <SCORE.INTRA.VDW.0>
2.76684

>  <SCORE.INTRA.norm>
-0.125844

>  <SCORE.RESTR>
3.80583

>  <SCORE.RESTR.CAVITY>
3.80583

>  <SCORE.RESTR.norm>
0.292756

>  <SCORE.SYSTEM>
-22.0377

>  <SCORE.SYSTEM.CONST>
0

>  <SCORE.SYSTEM.DIHEDRAL>
6.54377

>  <SCORE.SYSTEM.POLAR>
-3.53717

>  <SCORE.SYSTEM.SOLV>
0.674942

>  <SCORE.SYSTEM.VDW>
-5.30745

>  <SCORE.SYSTEM.norm>
-1.69521

>  <SCORE.heavy>
13

>  <SCORE.norm>
-2.87105

$$$$
P107007207
 OpenBabel12072022103D
libRbt.so/2013.1/901 2013/11/27
 16 16  0  0  0  0  0  0  0  0999 V2000
   24.0112  -10.1074    4.9934 C   0  0  0  0  0  0  0  0  0  0  0  0
   24.0544  -11.3339    4.0860 C   0  0  0  0  0  0  0  0  0  0  0  0
   22.6847  -12.0261    3.8627 C   0  0  1  0  0  0  0  0  0  0  0  0
   22.8443  -13.5035    3.4352 C   0  0  0  0  0  0  0  0  0  0  0  0
   23.1300  -14.4730    4.5793 C   0  0  1  0  0  0  0  0  0  0  0  0
   22.2523  -14.1938    5.7951 C   0  0  0  0  0  0  0  0  0  0  0  0
   22.2414  -12.7173    6.1452 C   0  0  0  0  0  0  0  0  0  0  0  0
   21.8601  -11.9260    5.0293 O   0  0  0  0  0  0  0  0  0  0  0  0
   22.8628  -15.9680    4.1692 C   0  0  0  0  0  0  0  0  0  0  0  0
   21.7845  -16.2610    3.6181 O   0  0  0  0  0  0  0  0  0  0  0  0
   23.8984  -16.6578    4.4700 O   0  5  0  0  0  0  0  0  0  0  0  0
   24.6029  -14.3947    4.9897 N   0  3  0  0  0  0  0  0  0  0  0  0
   25.2377  -14.8215    4.3131 H   0  0  0  0  0  0  0  0  0  0  0  0
   24.9325  -13.5124    5.3765 H   0  0  0  0  0  0  0  0  0  0  0  0
   24.5948  -15.0970    5.7821 H   0  0  0  0  0  0  0  0  0  0  0  0
   21.9142  -11.2908    2.7491 C   0  0  0  0  0  0  0  0  0  0  0  0
  1  2  1  0  0  0  0
  3  2  1  0  0  0  0
  3  4  1  0  0  0  0
  3  8  1  0  0  0  0
  3 16  1  6  0  0  0
  4  5  1  0  0  0  0
  5  6  1  0  0  0  0
  5 12  1  0  0  0  0
  5  9  1  6  0  0  0
  6  7  1  0  0  0  0
  7  8  1  0  0  0  0
  9 10  2  0  0  0  0
  9 11  1  0  0  0  0
 12 13  1  0  0  0  0
 12 14  1  0  0  0  0
 12 15  1  0  0  0  0
M  CHG  2  11  -1  12   1
M  END
>  <CHROM.0>
-53.56935341,-68.93927529,-50.71496220,-53.35229520,-53.84588562,58.54922552
-59.72789951,-176.34430435,-166.36055192,160.48990125

>  <CHROM.1>
-157.55171878,-72.82639252,-49.40418058,22.95424142,-13.46167962,4.46605846
-1.57525526,0.66458263,-3.13311224

>  <Name>
P107007207

>  <RI>
0

>  <Rbt.Current_Directory>
/home/fstefaniak/projects/zuza/docking/adenine/1Y26

>  <Rbt.Executable>
rbdock ($Id: //depot/dev/client3/rdock/2013.1/src/exe/rbdock.cxx#4 $)

>  <Rbt.Library>
libRbt.so (2013.1, Build901 2013/11/27)

>  <Rbt.Parameter_File>
/home/fstefaniak/progs/rDock//data/scripts/dock_solv.prm

>  <Rbt.Receptor>
1y26.prm

>  <SCORE>
-36.508

>  <SCORE.INTER>
-17.0851

>  <SCORE.INTER.CONST>
1

>  <SCORE.INTER.POLAR>
-3.14408

>  <SCORE.INTER.ROT>
2

>  <SCORE.INTER.SOLV>
17.2139

>  <SCORE.INTER.VDW>
-11.5811

>  <SCORE.INTER.norm>
-1.31424

>  <SCORE.INTRA>
-1.4446

>  <SCORE.INTRA.DIHEDRAL>
-0.505313

>  <SCORE.INTRA.DIHEDRAL.0>
3.53771

>  <SCORE.INTRA.POLAR>
0

>  <SCORE.INTRA.POLAR.0>
0

>  <SCORE.INTRA.REPUL>
0

>  <SCORE.INTRA.REPUL.0>
0

>  <SCORE.INTRA.SOLV>
0.300906

>  <SCORE.INTRA.SOLV.lig_0>
-41.78

>  <SCORE.INTRA.VDW>
-1.34239

>  <SCORE.INTRA.VDW.0>
2.76684

>  <SCORE.INTRA.norm>
-0.111123

>  <SCORE.RESTR>
3.70622

>  <SCORE.RESTR.CAVITY>
3.70622

>  <SCORE.RESTR.norm>
0.285093

>  <SCORE.SYSTEM>
-21.6846

>  <SCORE.SYSTEM.CONST>
0

>  <SCORE.SYSTEM.DIHEDRAL>
5.90744

>  <SCORE.SYSTEM.POLAR>
-3.43854

>  <SCORE.SYSTEM.SOLV>
0.288066

>  <SCORE.SYSTEM.VDW>
-5.05975

>  <SCORE.SYSTEM.norm>
-1.66804

>  <SCORE.heavy>
13

>  <SCORE.norm>
-2.80831

$$$$
P107007207
 OpenBabel12072022103D
libRbt.so/2013.1/901 2013/11/27
 16 16  0  0  0  0  0  0  0  0999 V2000
   19.8782  -18.4161    5.8583 C   0  0  0  0  0  0  0  0  0  0  0  0
   20.1874  -16.9379    5.6374 C   0  0  0  0  0  0  0  0  0  0  0  0
   20.5910  -16.5677    4.1864 C   0  0  1  0  0  0  0  0  0  0  0  0
   20.7037  -15.0384    3.9880 C   0  0  0  0  0  0  0  0  0  0  0  0
   22.0069  -14.4225    4.4909 C   0  0  1  0  0  0  0  0  0  0  0  0
   23.2200  -15.2631    4.1055 C   0  0  0  0  0  0  0  0  0  0  0  0
   23.0000  -16.7317    4.4177 C   0  0  0  0  0  0  0  0  0  0  0  0
   21.8114  -17.2153    3.8095 O   0  0  0  0  0  0  0  0  0  0  0  0
   22.2512  -12.9867    3.8966 C   0  0  0  0  0  0  0  0  0  0  0  0
   23.0378  -12.8534    2.9397 O   0  0  0  0  0  0  0  0  0  0  0  0
   21.5125  -12.1577    4.5338 O   0  5  0  0  0  0  0  0  0  0  0  0
   21.9673  -14.2589    6.0126 N   0  3  0  0  0  0  0  0  0  0  0  0
   21.0513  -13.9815    6.3689 H   0  0  0  0  0  0  0  0  0  0  0  0
   22.4373  -14.9695    6.5701 H   0  0  0  0  0  0  0  0  0  0  0  0
   22.5349  -13.3693    6.1013 H   0  0  0  0  0  0  0  0  0  0  0  0
   19.5247  -17.0956    3.2073 C   0  0  0  0  0  0  0  0  0  0  0  0
  1  2  1  0  0  0  0
  3  2  1  0  0  0  0
  3  4  1  0  0  0  0
  3  8  1  0  0  0  0
  3 16  1  6  0  0  0
  4  5  1  0  0  0  0
  5  6  1  0  0  0  0
  5 12  1  0  0  0  0
  5  9  1  6  0  0  0
  6  7  1  0  0  0  0
  7  8  1  0  0  0  0
  9 10  2  0  0  0  0
  9 11  1  0  0  0  0
 12 13  1  0  0  0  0
 12 14  1  0  0  0  0
 12 15  1  0  0  0  0
M  CHG  2  11  -1  12   1
M  END
>  <CHROM.0>
-51.64098830,-81.23114271,-52.85967067,-52.11621323,-55.49946372,-52.53192834
-52.24978320,-48.94847389,-165.01448726,162.15210045

>  <CHROM.1>
172.29327117,-37.67971579,-100.40961765,21.51903660,-15.36756193,4.41052965
2.07844854,-0.60073727,-2.99655910

>  <Name>
P107007207

>  <RI>
0

>  <Rbt.Current_Directory>
/home/fstefaniak/projects/zuza/docking/adenine/1Y26

>  <Rbt.Executable>
rbdock ($Id: //depot/dev/client3/rdock/2013.1/src/exe/rbdock.cxx#4 $)

>  <Rbt.Library>
libRbt.so (2013.1, Build901 2013/11/27)

>  <Rbt.Parameter_File>
/home/fstefaniak/progs/rDock//data/scripts/dock_solv.prm

>  <Rbt.Receptor>
1y26.prm

>  <SCORE>
-29.7508

>  <SCORE.INTER>
-8.67196

>  <SCORE.INTER.CONST>
1

>  <SCORE.INTER.POLAR>
-2.81216

>  <SCORE.INTER.ROT>
2

>  <SCORE.INTER.SOLV>
19.3017

>  <SCORE.INTER.VDW>
-7.77469

>  <SCORE.INTER.norm>
-0.667074

>  <SCORE.INTRA>
0.000420196

>  <SCORE.INTRA.DIHEDRAL>
-0.701617

>  <SCORE.INTRA.DIHEDRAL.0>
3.53771

>  <SCORE.INTRA.POLAR>
0

>  <SCORE.INTRA.POLAR.0>
0

>  <SCORE.INTRA.REPUL>
0

>  <SCORE.INTRA.REPUL.0>
0

>  <SCORE.INTRA.SOLV>
-0.332373

>  <SCORE.INTRA.SOLV.lig_0>
-41.78

>  <SCORE.INTRA.VDW>
0.517416

>  <SCORE.INTRA.VDW.0>
2.76684

>  <SCORE.INTRA.norm>
3.23228e-05

>  <SCORE.RESTR>
0

>  <SCORE.RESTR.CAVITY>
0

>  <SCORE.RESTR.norm>
0

>  <SCORE.SYSTEM>
-21.0793

>  <SCORE.SYSTEM.CONST>
0

>  <SCORE.SYSTEM.DIHEDRAL>
8.39072

>  <SCORE.SYSTEM.POLAR>
-3.51872

>  <SCORE.SYSTEM.SOLV>
0.677412

>  <SCORE.SYSTEM.VDW>
-5.34649

>  <SCORE.SYSTEM.norm>
-1.62148

>  <SCORE.heavy>
13

>  <SCORE.norm>
-2.28852

$$$$
P107007208
 OpenBabel12072022103D
libRbt.so/2013.1/901 2013/11/27
 16 16  0  0  0  0  0  0  0  0999 V2000
   20.7848  -15.8327    4.0578 C   0  0  0  0  0  0  0  0  0  0  0  0
   22.2858  -15.6093    4.1756 C   0  0  0  0  0  0  0  0  0  0  0  0
   22.7433  -14.1434    4.4227 C   0  0  2  0  0  0  0  0  0  0  0  0
   22.1439  -13.2178    3.3404 C   0  0  0  0  0  0  0  0  0  0  0  0
   22.9020  -11.8979    3.1417 C   0  0  2  0  0  0  0  0  0  0  0  0
   24.4104  -12.0826    3.1424 C   0  0  0  0  0  0  0  0  0  0  0  0
   24.8488  -12.9454    4.3123 C   0  0  0  0  0  0  0  0  0  0  0  0
   24.1726  -14.1983    4.2698 O   0  0  0  0  0  0  0  0  0  0  0  0
   22.3603  -10.8143    4.1431 C   0  0  0  0  0  0  0  0  0  0  0  0
   23.1594   -9.8180    4.1437 O   0  0  0  0  0  0  0  0  0  0  0  0
   21.4058  -11.1197    4.8856 O   0  5  0  0  0  0  0  0  0  0  0  0
   22.5024  -11.3743    1.7421 N   0  3  0  0  0  0  0  0  0  0  0  0
   22.8846  -10.4721    1.4650 H   0  0  0  0  0  0  0  0  0  0  0  0
   22.8816  -12.1421    1.1334 H   0  0  0  0  0  0  0  0  0  0  0  0
   21.4906  -11.4456    1.6061 H   0  0  0  0  0  0  0  0  0  0  0  0
   22.3580  -13.7389    5.8533 C   0  0  0  0  0  0  0  0  0  0  0  0
  1  2  1  0  0  0  0
  3  4  1  0  0  0  0
  3  8  1  0  0  0  0
  3 16  1  1  0  0  0
  3  2  1  0  0  0  0
  4  5  1  0  0  0  0
  5  6  1  0  0  0  0
  5  9  1  1  0  0  0
  5 12  1  0  0  0  0
  6  7  1  0  0  0  0
  7  8  1  0  0  0  0
  9 10  2  0  0  0  0
  9 11  1  0  0  0  0
 12 13  1  0  0  0  0
 12 14  1  0  0  0  0
 12 15  1  0  0  0  0
M  CHG  2  11  -1  12   1
M  END
>  <CHROM.0>
-49.64175850,69.55952321,-53.46022707,-54.49844293,-176.63652827,-62.18559690
-61.84304932,-177.85720874,-165.94070193,161.87601669

>  <CHROM.1>
-53.83420803,167.79211372,177.05335126,22.76429633,-12.80980940,3.95771006
1.74840049,-0.16286376,2.97340417

>  <Name>
P107007208

>  <RI>
0

>  <Rbt.Current_Directory>
/home/fstefaniak/projects/zuza/docking/adenine/1Y26

>  <Rbt.Executable>
rbdock ($Id: //depot/dev/client3/rdock/2013.1/src/exe/rbdock.cxx#4 $)

>  <Rbt.Library>
libRbt.so (2013.1, Build901 2013/11/27)

>  <Rbt.Parameter_File>
/home/fstefaniak/progs/rDock//data/scripts/dock_solv.prm

>  <Rbt.Receptor>
1y26.prm

>  <SCORE>
-28.0132

>  <SCORE.INTER>
-11.316

>  <SCORE.INTER.CONST>
1

>  <SCORE.INTER.POLAR>
-2.42366

>  <SCORE.INTER.ROT>
2

>  <SCORE.INTER.SOLV>
9.53826

>  <SCORE.INTER.VDW>
-7.57787

>  <SCORE.INTER.norm>
-0.870461

>  <SCORE.INTRA>
-0.185534

>  <SCORE.INTRA.DIHEDRAL>
-0.66251

>  <SCORE.INTRA.DIHEDRAL.0>
1.91281

>  <SCORE.INTRA.POLAR>
0

>  <SCORE.INTRA.POLAR.0>
0

>  <SCORE.INTRA.REPUL>
0

>  <SCORE.INTRA.REPUL.0>
0

>  <SCORE.INTRA.SOLV>
-0.886208

>  <SCORE.INTRA.SOLV.lig_0>
-41.8455

>  <SCORE.INTRA.VDW>
0.588824

>  <SCORE.INTRA.VDW.0>
2.55128

>  <SCORE.INTRA.norm>
-0.0142719

>  <SCORE.RESTR>
5.17264

>  <SCORE.RESTR.CAVITY>
5.17264

>  <SCORE.RESTR.norm>
0.397895

>  <SCORE.SYSTEM>
-21.6843

>  <SCORE.SYSTEM.CONST>
0

>  <SCORE.SYSTEM.DIHEDRAL>
5.73362

>  <SCORE.SYSTEM.POLAR>
-3.40009

>  <SCORE.SYSTEM.SOLV>
0.277471

>  <SCORE.SYSTEM.VDW>
-5.12626

>  <SCORE.SYSTEM.norm>
-1.66802

>  <SCORE.heavy>
13

>  <SCORE.norm>
-2.15486

$$$$
P107007208
 OpenBabel12072022103D
libRbt.so/2013.1/901 2013/11/27
 16 16  0  0  0  0  0  0  0  0999 V2000
   20.9184  -16.4443    3.5654 C   0  0  0  0  0  0  0  0  0  0  0  0
   20.9188  -15.5613    4.8052 C   0  0  0  0  0  0  0  0  0  0  0  0
   22.0556  -14.5034    4.8929 C   0  0  2  0  0  0  0  0  0  0  0  0
   21.9048  -13.4759    3.7488 C   0  0  0  0  0  0  0  0  0  0  0  0
   23.1952  -12.7230    3.3963 C   0  0  2  0  0  0  0  0  0  0  0  0
   24.4126  -13.6317    3.3600 C   0  0  0  0  0  0  0  0  0  0  0  0
   24.4617  -14.5192    4.5909 C   0  0  0  0  0  0  0  0  0  0  0  0
   23.2561  -15.2706    4.6942 O   0  0  0  0  0  0  0  0  0  0  0  0
   23.3374  -11.4502    4.3074 C   0  0  0  0  0  0  0  0  0  0  0  0
   24.5447  -11.3691    4.7161 O   0  0  0  0  0  0  0  0  0  0  0  0
   22.3004  -10.8421    4.6402 O   0  5  0  0  0  0  0  0  0  0  0  0
   22.9948  -12.1635    1.9681 N   0  3  0  0  0  0  0  0  0  0  0  0
   22.1637  -11.5966    1.8114 H   0  0  0  0  0  0  0  0  0  0  0  0
   23.8654  -11.5847    1.8638 H   0  0  0  0  0  0  0  0  0  0  0  0
   23.1196  -12.9023    1.2710 H   0  0  0  0  0  0  0  0  0  0  0  0
   22.0338  -13.8678    6.2909 C   0  0  0  0  0  0  0  0  0  0  0  0
  1  2  1  0  0  0  0
  3  4  1  0  0  0  0
  3  8  1  0  0  0  0
  3 16  1  1  0  0  0
  3  2  1  0  0  0  0
  4  5  1  0  0  0  0
  5  6  1  0  0  0  0
  5  9  1  1  0  0  0
  5 12  1  0  0  0  0
  6  7  1  0  0  0  0
  7  8  1  0  0  0  0
  9 10  2  0  0  0  0
  9 11  1  0  0  0  0
 12 13  1  0  0  0  0
 12 14  1  0  0  0  0
 12 15  1  0  0  0  0
M  CHG  2  11  -1  12   1
M  END
>  <CHROM.0>
62.50583379,-75.68846622,-49.59162537,-51.69026592,57.72981756,-58.55074039
-57.03821249,-52.65332740,-167.71057143,159.65846694

>  <CHROM.1>
64.25276978,136.21354404,54.02053635,22.80072670,-13.50616532,4.21039760
-2.58241832,1.04147972,0.79805502

>  <Name>
P107007208

>  <RI>
0

>  <Rbt.Current_Directory>
/home/fstefaniak/projects/zuza/docking/adenine/1Y26

>  <Rbt.Executable>
rbdock ($Id: //depot/dev/client3/rdock/2013.1/src/exe/rbdock.cxx#4 $)

>  <Rbt.Library>
libRbt.so (2013.1, Build901 2013/11/27)

>  <Rbt.Parameter_File>
/home/fstefaniak/progs/rDock//data/scripts/dock_solv.prm

>  <Rbt.Receptor>
1y26.prm

>  <SCORE>
-25.0554

>  <SCORE.INTER>
-7.79667

>  <SCORE.INTER.CONST>
1

>  <SCORE.INTER.POLAR>
-1.13301

>  <SCORE.INTER.ROT>
2

>  <SCORE.INTER.SOLV>
11.3052

>  <SCORE.INTER.VDW>
-10.1228

>  <SCORE.INTER.norm>
-0.599744

>  <SCORE.INTRA>
-1.21865

>  <SCORE.INTRA.DIHEDRAL>
-0.669663

>  <SCORE.INTRA.DIHEDRAL.0>
1.91281

>  <SCORE.INTRA.POLAR>
0

>  <SCORE.INTRA.POLAR.0>
0

>  <SCORE.INTRA.REPUL>
0

>  <SCORE.INTRA.REPUL.0>
0

>  <SCORE.INTRA.SOLV>
-0.788587

>  <SCORE.INTRA.SOLV.lig_0>
-41.8455

>  <SCORE.INTRA.VDW>
-0.489526

>  <SCORE.INTRA.VDW.0>
2.55128

>  <SCORE.INTRA.norm>
-0.0937424

>  <SCORE.RESTR>
3.24719

>  <SCORE.RESTR.CAVITY>
3.24719

>  <SCORE.RESTR.norm>
0.249784

>  <SCORE.SYSTEM>
-19.2873

>  <SCORE.SYSTEM.CONST>
0

>  <SCORE.SYSTEM.DIHEDRAL>
6.73834

>  <SCORE.SYSTEM.POLAR>
-3.3153

>  <SCORE.SYSTEM.SOLV>
0.439193

>  <SCORE.SYSTEM.VDW>
-4.1997

>  <SCORE.SYSTEM.norm>
-1.48364

>  <SCORE.heavy>
13

>  <SCORE.norm>
-1.92734

$$$$
P107007208
 OpenBabel12072022103D
libRbt.so/2013.1/901 2013/11/27
 16 16  0  0  0  0  0  0  0  0999 V2000
   20.9470  -16.8331    4.7069 C   0  0  0  0  0  0  0  0  0  0  0  0
   20.8823  -15.4409    4.0951 C   0  0  0  0  0  0  0  0  0  0  0  0
   22.0512  -14.4796    4.4539 C   0  0  2  0  0  0  0  0  0  0  0  0
   22.1160  -13.3269    3.4270 C   0  0  0  0  0  0  0  0  0  0  0  0
   23.4815  -12.6314    3.3373 C   0  0  2  0  0  0  0  0  0  0  0  0
   24.6415  -13.6128    3.3565 C   0  0  0  0  0  0  0  0  0  0  0  0
   24.4716  -14.6289    4.4718 C   0  0  0  0  0  0  0  0  0  0  0  0
   23.2247  -15.3020    4.3274 O   0  0  0  0  0  0  0  0  0  0  0  0
   23.5642  -11.4770    4.4007 C   0  0  0  0  0  0  0  0  0  0  0  0
   23.0509  -10.4194    3.9014 O   0  0  0  0  0  0  0  0  0  0  0  0
   24.2336  -11.6723    5.4349 O   0  5  0  0  0  0  0  0  0  0  0  0
   23.5115  -11.9089    1.9699 N   0  3  0  0  0  0  0  0  0  0  0  0
   23.3138  -12.4767    1.1481 H   0  0  0  0  0  0  0  0  0  0  0  0
   22.7596  -11.1897    2.1151 H   0  0  0  0  0  0  0  0  0  0  0  0
   24.3607  -11.3451    1.8788 H   0  0  0  0  0  0  0  0  0  0  0  0
   21.8701  -13.9982    5.9011 C   0  0  0  0  0  0  0  0  0  0  0  0
  1  2  1  0  0  0  0
  3  4  1  0  0  0  0
  3  8  1  0  0  0  0
  3 16  1  1  0  0  0
  3  2  1  0  0  0  0
  4  5  1  0  0  0  0
  5  6  1  0  0  0  0
  5  9  1  1  0  0  0
  5 12  1  0  0  0  0
  6  7  1  0  0  0  0
  7  8  1  0  0  0  0
  9 10  2  0  0  0  0
  9 11  1  0  0  0  0
 12 13  1  0  0  0  0
 12 14  1  0  0  0  0
 12 15  1  0  0  0  0
M  CHG  2  11  -1  12   1
M  END
>  <CHROM.0>
-51.98745759,-70.32779034,-65.24887990,-53.01552297,-174.63059354,-59.06888736
-171.01741252,-53.22264479,-167.24412668,161.08918497

>  <CHROM.1>
160.95316320,-85.54448269,-53.98403423,22.93393049,-13.49644093,4.12644156
2.46876416,-0.99024902,-2.53949941

>  <Name>
P107007208

>  <RI>
0

>  <Rbt.Current_Directory>
/home/fstefaniak/projects/zuza/docking/adenine/1Y26

>  <Rbt.Executable>
rbdock ($Id: //depot/dev/client3/rdock/2013.1/src/exe/rbdock.cxx#4 $)

>  <Rbt.Library>
libRbt.so (2013.1, Build901 2013/11/27)

>  <Rbt.Parameter_File>
/home/fstefaniak/progs/rDock//data/scripts/dock_solv.prm

>  <Rbt.Receptor>
1y26.prm

>  <SCORE>
-24.4518

>  <SCORE.INTER>
-6.15824

>  <SCORE.INTER.CONST>
1

>  <SCORE.INTER.POLAR>
-1.27802

>  <SCORE.INTER.ROT>
2

>  <SCORE.INTER.SOLV>
9.43561

>  <SCORE.INTER.VDW>
-7.92397

>  <SCORE.INTER.norm>
-0.473711

>  <SCORE.INTRA>
-0.810129

>  <SCORE.INTRA.DIHEDRAL>
0.106864

>  <SCORE.INTRA.DIHEDRAL.0>
1.91281

>  <SCORE.INTRA.POLAR>
0

>  <SCORE.INTRA.POLAR.0>
0

>  <SCORE.INTRA.REPUL>
0

>  <SCORE.INTRA.REPUL.0>
0

>  <SCORE.INTRA.SOLV>
0.012701

>  <SCORE.INTRA.SOLV.lig_0>
-41.8455

>  <SCORE.INTRA.VDW>
-0.869912

>  <SCORE.INTRA.VDW.0>
2.55128

>  <SCORE.INTRA.norm>
-0.0623176

>  <SCORE.RESTR>
3.65219

>  <SCORE.RESTR.CAVITY>
3.65219

>  <SCORE.RESTR.norm>
0.280938

>  <SCORE.SYSTEM>
-21.1356

>  <SCORE.SYSTEM.CONST>
0

>  <SCORE.SYSTEM.DIHEDRAL>
6.19059

>  <SCORE.SYSTEM.POLAR>
-3.37422

>  <SCORE.SYSTEM.SOLV>
0.430099

>  <SCORE.SYSTEM.VDW>
-5.04989

>  <SCORE.SYSTEM.norm>
-1.62581

>  <SCORE.heavy>
13

>  <SCORE.norm>
-1.8809

$$$$
P107221164
 OpenBabel12072022103D
libRbt.so/2013.1/901 2013/11/27
 14 14  0  0  0  0  0  0  0  0999 V2000
   18.6248  -18.7262    1.1523 C   0  0  0  0  0  0  0  0  0  0  0  0
   19.3895  -18.3762    2.4262 C   0  0  2  0  0  0  0  0  0  0  0  0
   18.4388  -18.3858    3.6461 C   0  0  0  0  0  0  0  0  0  0  0  0
   19.1741  -17.9757    4.8425 N   0  0  0  0  0  0  0  0  0  0  0  0
   19.7550  -16.6402    4.7200 C   0  0  0  0  0  0  0  0  0  0  0  0
   20.6892  -16.5622    3.4840 C   0  0  2  0  0  0  0  0  0  0  0  0
   20.0504  -17.0649    2.2425 N   0  0  0  0  0  0  0  0  0  0  0  0
   22.0246  -17.2677    3.7456 C   0  0  0  0  0  0  0  0  0  0  0  0
   19.5819  -18.7875    5.8664 C   0  0  0  0  0  0  0  0  0  0  0  0
   20.2560  -18.4181    6.8223 O   0  0  0  0  0  0  0  0  0  0  0  0
   19.2055  -20.0871    5.7956 N   0  0  0  0  0  0  0  0  0  0  0  0
   20.7470  -17.1319    1.5011 H   0  0  0  0  0  0  0  0  0  0  0  0
   18.2169  -20.2774    5.7661 H   0  0  0  0  0  0  0  0  0  0  0  0
   19.7339  -20.5932    5.0954 H   0  0  0  0  0  0  0  0  0  0  0  0
  2  3  1  0  0  0  0
  2  7  1  0  0  0  0
  2  1  1  6  0  0  0
  3  4  1  0  0  0  0
  4  5  1  0  0  0  0
  4  9  1  0  0  0  0
  5  6  1  0  0  0  0
  6  7  1  0  0  0  0
  6  8  1  1  0  0  0
  7 12  1  0  0  0  0
  9 10  2  0  0  0  0
  9 11  1  0  0  0  0
 11 13  1  0  0  0  0
 11 14  1  0  0  0  0
M  END
>  <CHROM.0>
-48.54133080,-170.43029395,-51.00369383,-52.68377158,-55.70496625,-61.38021241
-62.36485735,-175.87443375,-166.98756092,159.85847617

>  <CHROM.1>
-59.36468608,19.75334445,-18.05344247,4.07354983,1.61928637,-0.77505522,-1.28928845

>  <Name>
P107221164

>  <RI>
0

>  <Rbt.Current_Directory>
/home/fstefaniak/projects/zuza/docking/adenine/1Y26

>  <Rbt.Executable>
rbdock ($Id: //depot/dev/client3/rdock/2013.1/src/exe/rbdock.cxx#4 $)

>  <Rbt.Library>
libRbt.so (2013.1, Build901 2013/11/27)

>  <Rbt.Parameter_File>
/home/fstefaniak/progs/rDock//data/scripts/dock_solv.prm

>  <Rbt.Receptor>
1y26.prm

>  <SCORE>
-39.3493

>  <SCORE.INTER>
-16.3532

>  <SCORE.INTER.CONST>
1

>  <SCORE.INTER.POLAR>
-3.82373

>  <SCORE.INTER.ROT>
1

>  <SCORE.INTER.SOLV>
14.7901

>  <SCORE.INTER.VDW>
-7.35307

>  <SCORE.INTER.norm>
-1.48665

>  <SCORE.INTRA>
-0.256751

>  <SCORE.INTRA.DIHEDRAL>
0.00196406

>  <SCORE.INTRA.DIHEDRAL.0>
0.478811

>  <SCORE.INTRA.POLAR>
0

>  <SCORE.INTRA.POLAR.0>
0

>  <SCORE.INTRA.REPUL>
0

>  <SCORE.INTRA.REPUL.0>
0

>  <SCORE.INTRA.SOLV>
-0.00115299

>  <SCORE.INTRA.SOLV.lig_0>
-13.7031

>  <SCORE.INTRA.VDW>
-0.257157

>  <SCORE.INTRA.VDW.0>
-0.125422

>  <SCORE.INTRA.norm>
-0.023341

>  <SCORE.RESTR>
0

>  <SCORE.RESTR.CAVITY>
0

>  <SCORE.RESTR.norm>
0

>  <SCORE.SYSTEM>
-22.7394

>  <SCORE.SYSTEM.CONST>
0

>  <SCORE.SYSTEM.DIHEDRAL>
6.37952

>  <SCORE.SYSTEM.POLAR>
-3.51499

>  <SCORE.SYSTEM.SOLV>
0.38594

>  <SCORE.SYSTEM.VDW>
-5.69813

>  <SCORE.SYSTEM.norm>
-2.06722

>  <SCORE.heavy>
11

>  <SCORE.norm>
-3.57721

$$$$
P107221164
 OpenBabel12072022103D
libRbt.so/2013.1/901 2013/11/27
 14 14  0  0  0  0  0  0  0  0999 V2000
   18.6296  -18.7798    1.0999 C   0  0  0  0  0  0  0  0  0  0  0  0
   19.3830  -18.4141    2.3761 C   0  0  2  0  0  0  0  0  0  0  0  0
   18.4211  -18.4062    3.5872 C   0  0  0  0  0  0  0  0  0  0  0  0
   19.1458  -17.9813    4.7848 N   0  0  0  0  0  0  0  0  0  0  0  0
   19.7299  -16.6483    4.6500 C   0  0  0  0  0  0  0  0  0  0  0  0
   20.6756  -16.5880    3.4218 C   0  0  2  0  0  0  0  0  0  0  0  0
   20.0476  -17.1063    2.1812 N   0  0  0  0  0  0  0  0  0  0  0  0
   22.0074  -17.2919    3.7052 C   0  0  0  0  0  0  0  0  0  0  0  0
   19.5428  -18.7800    5.8231 C   0  0  0  0  0  0  0  0  0  0  0  0
   20.2086  -18.3989    6.7802 O   0  0  0  0  0  0  0  0  0  0  0  0
   19.1652  -20.0799    5.7660 N   0  0  0  0  0  0  0  0  0  0  0  0
   20.7510  -17.1841    1.4473 H   0  0  0  0  0  0  0  0  0  0  0  0
   18.1786  -20.2680    5.6911 H   0  0  0  0  0  0  0  0  0  0  0  0
   19.7263  -20.6051    5.1066 H   0  0  0  0  0  0  0  0  0  0  0  0
  2  3  1  0  0  0  0
  2  7  1  0  0  0  0
  2  1  1  6  0  0  0
  3  4  1  0  0  0  0
  4  5  1  0  0  0  0
  4  9  1  0  0  0  0
  5  6  1  0  0  0  0
  6  7  1  0  0  0  0
  6  8  1  1  0  0  0
  7 12  1  0  0  0  0
  9 10  2  0  0  0  0
  9 11  1  0  0  0  0
 11 13  1  0  0  0  0
 11 14  1  0  0  0  0
M  END
>  <CHROM.0>
-47.63123421,-173.22516118,-49.96417899,-49.37759268,-57.09328784,-58.14422772
-60.90218212,-174.87970177,-166.86494325,161.77982734

>  <CHROM.1>
-56.88351646,19.73223202,-18.07008165,4.02229587,1.60671649,-0.77624051,-1.31137089

>  <Name>
P107221164

>  <RI>
0

>  <Rbt.Current_Directory>
/home/fstefaniak/projects/zuza/docking/adenine/1Y26

>  <Rbt.Executable>
rbdock ($Id: //depot/dev/client3/rdock/2013.1/src/exe/rbdock.cxx#4 $)

>  <Rbt.Library>
libRbt.so (2013.1, Build901 2013/11/27)

>  <Rbt.Parameter_File>
/home/fstefaniak/progs/rDock//data/scripts/dock_solv.prm

>  <Rbt.Receptor>
1y26.prm

>  <SCORE>
-39.2347

>  <SCORE.INTER>
-16.3063

>  <SCORE.INTER.CONST>
1

>  <SCORE.INTER.POLAR>
-3.89387

>  <SCORE.INTER.ROT>
1

>  <SCORE.INTER.SOLV>
14.7558

>  <SCORE.INTER.VDW>
-7.07656

>  <SCORE.INTER.norm>
-1.48239

>  <SCORE.INTRA>
-0.247779

>  <SCORE.INTRA.DIHEDRAL>
0.00220616

>  <SCORE.INTRA.DIHEDRAL.0>
0.478811

>  <SCORE.INTRA.POLAR>
0

>  <SCORE.INTRA.POLAR.0>
0

>  <SCORE.INTRA.REPUL>
0

>  <SCORE.INTRA.REPUL.0>
0

>  <SCORE.INTRA.SOLV>
-0.00103298

>  <SCORE.INTRA.SOLV.lig_0>
-13.7031

>  <SCORE.INTRA.VDW>
-0.248366

>  <SCORE.INTRA.VDW.0>
-0.125422

>  <SCORE.INTRA.norm>
-0.0225254

>  <SCORE.RESTR>
0

>  <SCORE.RESTR.CAVITY>
0

>  <SCORE.RESTR.norm>
0

>  <SCORE.SYSTEM>
-22.6807

>  <SCORE.SYSTEM.CONST>
0

>  <SCORE.SYSTEM.DIHEDRAL>
6.3333

>  <SCORE.SYSTEM.POLAR>
-3.55269

>  <SCORE.SYSTEM.SOLV>
0.406611

>  <SCORE.SYSTEM.VDW>
-5.52478

>  <SCORE.SYSTEM.norm>
-2.06188

>  <SCORE.heavy>
11

>  <SCORE.norm>
-3.56679

$$$$
P107221164
 OpenBabel12072022103D
libRbt.so/2013.1/901 2013/11/27
 14 14  0  0  0  0  0  0  0  0999 V2000
   19.1073  -18.9379    6.9607 C   0  0  0  0  0  0  0  0  0  0  0  0
   19.3523  -18.2661    5.6121 C   0  0  2  0  0  0  0  0  0  0  0  0
   19.2298  -19.2968    4.4655 C   0  0  0  0  0  0  0  0  0  0  0  0
   19.5412  -18.6499    3.1909 N   0  0  0  0  0  0  0  0  0  0  0  0
   20.8869  -18.0807    3.1587 C   0  0  0  0  0  0  0  0  0  0  0  0
   21.0788  -17.0662    4.3166 C   0  0  2  0  0  0  0  0  0  0  0  0
   20.6798  -17.6126    5.6373 N   0  0  0  0  0  0  0  0  0  0  0  0
   20.3641  -15.7419    4.0253 C   0  0  0  0  0  0  0  0  0  0  0  0
   18.6474  -18.3010    2.2146 C   0  0  0  0  0  0  0  0  0  0  0  0
   18.9385  -17.6982    1.1867 O   0  0  0  0  0  0  0  0  0  0  0  0
   17.3558  -18.6535    2.4219 N   0  0  0  0  0  0  0  0  0  0  0  0
   20.6826  -16.8665    6.3323 H   0  0  0  0  0  0  0  0  0  0  0  0
   16.8627  -18.1760    3.1589 H   0  0  0  0  0  0  0  0  0  0  0  0
   16.8357  -18.7006    1.5543 H   0  0  0  0  0  0  0  0  0  0  0  0
  2  3  1  0  0  0  0
  2  7  1  0  0  0  0
  2  1  1  1  0  0  0
  3  4  1  0  0  0  0
  4  5  1  0  0  0  0
  4  9  1  0  0  0  0
  5  6  1  0  0  0  0
  6  7  1  0  0  0  0
  6  8  1  6  0  0  0
  7 12  1  0  0  0  0
  9 10  2  0  0  0  0
  9 11  1  0  0  0  0
 11 13  1  0  0  0  0
 11 14  1  0  0  0  0
M  END
>  <CHROM.0>
-49.80236045,-54.80139797,-56.30507764,-52.43149387,-58.03028181,-58.88158911
-55.20000634,-173.89261104,-166.66059854,161.08424853

>  <CHROM.1>
69.03690406,19.53227355,-18.01359111,3.91612212,1.11601488,0.71368471,1.85406338

>  <Name>
P107221164

>  <RI>
0

>  <Rbt.Current_Directory>
/home/fstefaniak/projects/zuza/docking/adenine/1Y26

>  <Rbt.Executable>
rbdock ($Id: //depot/dev/client3/rdock/2013.1/src/exe/rbdock.cxx#4 $)

>  <Rbt.Library>
libRbt.so (2013.1, Build901 2013/11/27)

>  <Rbt.Parameter_File>
/home/fstefaniak/progs/rDock//data/scripts/dock_solv.prm

>  <Rbt.Receptor>
1y26.prm

>  <SCORE>
-39.0234

>  <SCORE.INTER>
-16.3606

>  <SCORE.INTER.CONST>
1

>  <SCORE.INTER.POLAR>
-1.71656

>  <SCORE.INTER.ROT>
1

>  <SCORE.INTER.SOLV>
14.5044

>  <SCORE.INTER.VDW>
-14.2867

>  <SCORE.INTER.norm>
-1.48733

>  <SCORE.INTRA>
-0.192797

>  <SCORE.INTRA.DIHEDRAL>
0.00270753

>  <SCORE.INTRA.DIHEDRAL.0>
0.478811

>  <SCORE.INTRA.POLAR>
0

>  <SCORE.INTRA.POLAR.0>
0

>  <SCORE.INTRA.REPUL>
0

>  <SCORE.INTRA.REPUL.0>
0

>  <SCORE.INTRA.SOLV>
-0.0116126

>  <SCORE.INTRA.SOLV.lig_0>
-13.7031

>  <SCORE.INTRA.VDW>
-0.188344

>  <SCORE.INTRA.VDW.0>
-0.125422

>  <SCORE.INTRA.norm>
-0.017527

>  <SCORE.RESTR>
0

>  <SCORE.RESTR.CAVITY>
0

>  <SCORE.RESTR.norm>
0

>  <SCORE.SYSTEM>
-22.47

>  <SCORE.SYSTEM.CONST>
0

>  <SCORE.SYSTEM.DIHEDRAL>
5.6264

>  <SCORE.SYSTEM.POLAR>
-3.44472

>  <SCORE.SYSTEM.SOLV>
0.466138

>  <SCORE.SYSTEM.VDW>
-5.52841

>  <SCORE.SYSTEM.norm>
-2.04272

>  <SCORE.heavy>
11

>  <SCORE.norm>
-3.54758

$$$$
P107223365
 OpenBabel12072022103D
libRbt.so/2013.1/901 2013/11/27
 15 15  0  0  0  0  0  0  0  0999 V2000
   20.0005  -17.9068    5.9833 C   0  0  0  0  0  0  0  0  0  0  0  0
   20.4728  -16.6844    5.2014 C   0  0  0  0  0  0  0  0  0  0  0  0
   20.8233  -17.0419    3.7551 C   0  0  0  0  0  0  0  0  0  0  0  0
   19.6765  -17.7645    3.0198 C   0  0  0  0  0  0  0  0  0  0  0  0
   19.1900  -18.9758    3.8412 C   0  0  0  0  0  0  0  0  0  0  0  0
   18.8419  -18.6148    5.2871 C   0  0  0  0  0  0  0  0  0  0  0  0
   20.1419  -18.2206    1.6045 C   0  0  0  0  0  0  0  0  0  0  0  0
   21.3155  -18.1465    1.2285 O   0  0  0  0  0  0  0  0  0  0  0  0
   19.1663  -18.7139    0.7721 N   0  0  0  0  0  0  0  0  0  0  0  0
   18.1833  -19.5240    1.3867 O   0  0  0  0  0  0  0  0  0  0  0  0
   18.5453  -16.8145    2.8546 N   0  0  0  0  0  0  0  0  0  0  0  0
   18.9169  -18.3029   -0.1203 H   0  0  0  0  0  0  0  0  0  0  0  0
   17.4704  -19.5415    0.7099 H   0  0  0  0  0  0  0  0  0  0  0  0
   18.5199  -16.2060    3.6772 H   0  0  0  0  0  0  0  0  0  0  0  0
   17.6733  -17.3455    2.9286 H   0  0  0  0  0  0  0  0  0  0  0  0
  1  2  1  0  0  0  0
  1  6  1  0  0  0  0
  2  3  1  0  0  0  0
  3  4  1  0  0  0  0
  4  5  1  0  0  0  0
  4  7  1  0  0  0  0
  4 11  1  0  0  0  0
  5  6  1  0  0  0  0
  7  8  2  0  0  0  0
  7  9  1  0  0  0  0
  9 10  1  0  0  0  0
  9 12  1  0  0  0  0
 10 13  1  0  0  0  0
 11 14  1  0  0  0  0
 11 15  1  0  0  0  0
M  END
>  <CHROM.0>
-48.62824753,-62.01239612,-52.97643043,-50.48599270,-174.63547076,-52.63386144
-58.00669405,-51.62055325,-167.88310802,161.16687344

>  <CHROM.1>
8.31862705,-34.53697685,-38.89949911,163.91158208,19.62609340,-18.05337108
3.11649721,1.42744166,0.56902092,1.38244678

>  <Name>
P107223365

>  <RI>
0

>  <Rbt.Current_Directory>
/home/fstefaniak/projects/zuza/docking/adenine/1Y26

>  <Rbt.Executable>
rbdock ($Id: //depot/dev/client3/rdock/2013.1/src/exe/rbdock.cxx#4 $)

>  <Rbt.Library>
libRbt.so (2013.1, Build901 2013/11/27)

>  <Rbt.Parameter_File>
/home/fstefaniak/progs/rDock//data/scripts/dock_solv.prm

>  <Rbt.Receptor>
1y26.prm

>  <SCORE>
-46.1797

>  <SCORE.INTER>
-27.0608

>  <SCORE.INTER.CONST>
1

>  <SCORE.INTER.POLAR>
-4.76026

>  <SCORE.INTER.ROT>
3

>  <SCORE.INTER.SOLV>
16.0345

>  <SCORE.INTER.VDW>
-13.1178

>  <SCORE.INTER.norm>
-2.46007

>  <SCORE.INTRA>
2.90427

>  <SCORE.INTRA.DIHEDRAL>
1.25367

>  <SCORE.INTRA.DIHEDRAL.0>
1.25103

>  <SCORE.INTRA.POLAR>
0

>  <SCORE.INTRA.POLAR.0>
0

>  <SCORE.INTRA.REPUL>
0

>  <SCORE.INTRA.REPUL.0>
0

>  <SCORE.INTRA.SOLV>
1.1165

>  <SCORE.INTRA.SOLV.lig_0>
-16.9138

>  <SCORE.INTRA.VDW>
1.71918

>  <SCORE.INTRA.VDW.0>
-0.037037

>  <SCORE.INTRA.norm>
0.264024

>  <SCORE.RESTR>
0

>  <SCORE.RESTR.CAVITY>
0

>  <SCORE.RESTR.norm>
0

>  <SCORE.SYSTEM>
-22.0232

>  <SCORE.SYSTEM.CONST>
0

>  <SCORE.SYSTEM.DIHEDRAL>
6.206

>  <SCORE.SYSTEM.POLAR>
-3.55856

>  <SCORE.SYSTEM.SOLV>
0.522433

>  <SCORE.SYSTEM.VDW>
-5.06305

>  <SCORE.SYSTEM.norm>
-2.00211

>  <SCORE.heavy>
11

>  <SCORE.norm>
-4.19815

$$$$
P107223365
 OpenBabel12072022103D
libRbt.so/2013.1/901 2013/11/27
 15 15  0  0  0  0  0  0  0  0999 V2000
   22.4104  -15.3220    3.8569 C   0  0  0  0  0  0  0  0  0  0  0  0
   21.0697  -14.9789    4.5000 C   0  0  0  0  0  0  0  0  0  0  0  0
   19.9366  -15.8361    3.9310 C   0  0  0  0  0  0  0  0  0  0  0  0
   20.2252  -17.3485    4.0176 C   0  0  0  0  0  0  0  0  0  0  0  0
   21.5985  -17.6703    3.3939 C   0  0  0  0  0  0  0  0  0  0  0  0
   22.7288  -16.8104    3.9641 C   0  0  0  0  0  0  0  0  0  0  0  0
   19.1017  -18.1569    3.3023 C   0  0  0  0  0  0  0  0  0  0  0  0
   18.4850  -19.0761    3.8492 O   0  0  0  0  0  0  0  0  0  0  0  0
   18.8253  -17.7986    2.0048 N   0  0  0  0  0  0  0  0  0  0  0  0
   19.4136  -18.6060    1.0037 O   0  0  0  0  0  0  0  0  0  0  0  0
   20.2461  -17.7467    5.4495 N   0  0  0  0  0  0  0  0  0  0  0  0
   18.0219  -17.2480    1.7242 H   0  0  0  0  0  0  0  0  0  0  0  0
   19.1314  -18.1561    0.1763 H   0  0  0  0  0  0  0  0  0  0  0  0
   20.3141  -18.7670    5.4936 H   0  0  0  0  0  0  0  0  0  0  0  0
   19.3211  -17.5559    5.8442 H   0  0  0  0  0  0  0  0  0  0  0  0
  1  2  1  0  0  0  0
  1  6  1  0  0  0  0
  2  3  1  0  0  0  0
  3  4  1  0  0  0  0
  4  5  1  0  0  0  0
  4  7  1  0  0  0  0
  4 11  1  0  0  0  0
  5  6  1  0  0  0  0
  7  8  2  0  0  0  0
  7  9  1  0  0  0  0
  9 10  1  0  0  0  0
  9 12  1  0  0  0  0
 10 13  1  0  0  0  0
 11 14  1  0  0  0  0
 11 15  1  0  0  0  0
M  END
>  <CHROM.0>
-41.05328637,-179.43399441,-51.39685477,-51.16599180,-53.18504976,-49.65705432
-47.91008831,-46.38971636,-168.89538228,161.95061103

>  <CHROM.1>
-126.88775978,172.62628745,99.13524852,-177.23110148,20.32031160,-17.25869086
3.53278503,-0.51304697,-0.69638850,-1.68546305

>  <Name>
P107223365

>  <RI>
0

>  <Rbt.Current_Directory>
/home/fstefaniak/projects/zuza/docking/adenine/1Y26

>  <Rbt.Executable>
rbdock ($Id: //depot/dev/client3/rdock/2013.1/src/exe/rbdock.cxx#4 $)

>  <Rbt.Library>
libRbt.so (2013.1, Build901 2013/11/27)

>  <Rbt.Parameter_File>
/home/fstefaniak/progs/rDock//data/scripts/dock_solv.prm

>  <Rbt.Receptor>
1y26.prm

>  <SCORE>
-44.8955

>  <SCORE.INTER>
-22.2988

>  <SCORE.INTER.CONST>
1

>  <SCORE.INTER.POLAR>
-4.22185

>  <SCORE.INTER.ROT>
3

>  <SCORE.INTER.SOLV>
13.6468

>  <SCORE.INTER.VDW>
-10.942

>  <SCORE.INTER.norm>
-2.02716

>  <SCORE.INTRA>
-1.04393

>  <SCORE.INTRA.DIHEDRAL>
-0.0670874

>  <SCORE.INTRA.DIHEDRAL.0>
1.25103

>  <SCORE.INTRA.POLAR>
0

>  <SCORE.INTRA.POLAR.0>
0

>  <SCORE.INTRA.REPUL>
0

>  <SCORE.INTRA.REPUL.0>
0

>  <SCORE.INTRA.SOLV>
0.268787

>  <SCORE.INTRA.SOLV.lig_0>
-16.9138

>  <SCORE.INTRA.VDW>
-1.14478

>  <SCORE.INTRA.VDW.0>
-0.037037

>  <SCORE.INTRA.norm>
-0.0949031

>  <SCORE.RESTR>
0

>  <SCORE.RESTR.CAVITY>
0

>  <SCORE.RESTR.norm>
0

>  <SCORE.SYSTEM>
-21.5528

>  <SCORE.SYSTEM.CONST>
0

>  <SCORE.SYSTEM.DIHEDRAL>
8.5076

>  <SCORE.SYSTEM.POLAR>
-3.74038

>  <SCORE.SYSTEM.SOLV>
0.67163

>  <SCORE.SYSTEM.VDW>
-4.96031

>  <SCORE.SYSTEM.norm>
-1.95934

>  <SCORE.heavy>
11

>  <SCORE.norm>
-4.08141

$$$$
P107223365
 OpenBabel12072022103D
libRbt.so/2013.1/901 2013/11/27
 15 15  0  0  0  0  0  0  0  0999 V2000
   19.9291  -17.3156    3.1640 C   0  0  0  0  0  0  0  0  0  0  0  0
   20.7551  -17.6813    4.3939 C   0  0  0  0  0  0  0  0  0  0  0  0
   19.8799  -17.8049    5.6434 C   0  0  0  0  0  0  0  0  0  0  0  0
   18.6986  -18.7783    5.4561 C   0  0  0  0  0  0  0  0  0  0  0  0
   17.8970  -18.4135    4.1901 C   0  0  0  0  0  0  0  0  0  0  0  0
   18.7754  -18.2895    2.9430 C   0  0  0  0  0  0  0  0  0  0  0  0
   17.7731  -18.7558    6.7093 C   0  0  0  0  0  0  0  0  0  0  0  0
   18.2089  -18.7329    7.8643 O   0  0  0  0  0  0  0  0  0  0  0  0
   16.4205  -18.7694    6.4679 N   0  0  0  0  0  0  0  0  0  0  0  0
   15.8352  -20.0472    6.3106 O   0  0  0  0  0  0  0  0  0  0  0  0
   19.2377  -20.1547    5.2997 N   0  0  0  0  0  0  0  0  0  0  0  0
   15.7907  -18.0127    6.7090 H   0  0  0  0  0  0  0  0  0  0  0  0
   16.2633  -20.5656    7.0280 H   0  0  0  0  0  0  0  0  0  0  0  0
   19.9156  -20.1441    4.5329 H   0  0  0  0  0  0  0  0  0  0  0  0
   18.4862  -20.7494    4.9401 H   0  0  0  0  0  0  0  0  0  0  0  0
  1  2  1  0  0  0  0
  1  6  1  0  0  0  0
  2  3  1  0  0  0  0
  3  4  1  0  0  0  0
  4  5  1  0  0  0  0
  4  7  1  0  0  0  0
  4 11  1  0  0  0  0
  5  6  1  0  0  0  0
  7  8  2  0  0  0  0
  7  9  1  0  0  0  0
  9 10  1  0  0  0  0
  9 12  1  0  0  0  0
 10 13  1  0  0  0  0
 11 14  1  0  0  0  0
 11 15  1  0  0  0  0
M  END
>  <CHROM.0>
-165.24194096,-58.08188126,-50.78337926,-49.26569246,-51.74402098,-46.95360203
-47.98904949,-47.10311921,-166.76882247,161.81903567

>  <CHROM.1>
-42.02223655,-54.61903707,86.45623726,42.75982406,18.43951525,-18.66024060
5.34990659,0.76045719,-0.37350393,-1.47708108

>  <Name>
P107223365

>  <RI>
0

>  <Rbt.Current_Directory>
/home/fstefaniak/projects/zuza/docking/adenine/1Y26

>  <Rbt.Executable>
rbdock ($Id: //depot/dev/client3/rdock/2013.1/src/exe/rbdock.cxx#4 $)

>  <Rbt.Library>
libRbt.so (2013.1, Build901 2013/11/27)

>  <Rbt.Parameter_File>
/home/fstefaniak/progs/rDock//data/scripts/dock_solv.prm

>  <Rbt.Receptor>
1y26.prm

>  <SCORE>
-44.6387

>  <SCORE.INTER>
-26.8012

>  <SCORE.INTER.CONST>
1

>  <SCORE.INTER.POLAR>
-4.89631

>  <SCORE.INTER.ROT>
3

>  <SCORE.INTER.SOLV>
17.0643

>  <SCORE.INTER.VDW>
-12.8345

>  <SCORE.INTER.norm>
-2.43647

>  <SCORE.INTRA>
2.15322

>  <SCORE.INTRA.DIHEDRAL>
2.8319

>  <SCORE.INTRA.DIHEDRAL.0>
1.25103

>  <SCORE.INTRA.POLAR>
0

>  <SCORE.INTRA.POLAR.0>
0

>  <SCORE.INTRA.REPUL>
0

>  <SCORE.INTRA.REPUL.0>
0

>  <SCORE.INTRA.SOLV>
0.521041

>  <SCORE.INTRA.SOLV.lig_0>
-16.9138

>  <SCORE.INTRA.VDW>
0.476753

>  <SCORE.INTRA.VDW.0>
-0.037037

>  <SCORE.INTRA.norm>
0.195747

>  <SCORE.RESTR>
0

>  <SCORE.RESTR.CAVITY>
0

>  <SCORE.RESTR.norm>
0

>  <SCORE.SYSTEM>
-19.9908

>  <SCORE.SYSTEM.CONST>
0

>  <SCORE.SYSTEM.DIHEDRAL>
8.64835

>  <SCORE.SYSTEM.POLAR>
-3.47178

>  <SCORE.SYSTEM.SOLV>
0.667603

>  <SCORE.SYSTEM.VDW>
-4.85992

>  <SCORE.SYSTEM.norm>
-1.81735

>  <SCORE.heavy>
11

>  <SCORE.norm>
-4.05807

$$$$
P107232038
 OpenBabel12072022103D
libRbt.so/2013.1/901 2013/11/27
 14 14  0  0  0  0  0  0  0  0999 V2000
   22.5775  -13.8575    4.9371 C   0  0  0  0  0  0  0  0  0  0  0  0
   21.5919  -14.7881    4.2321 C   0  0  0  0  0  0  0  0  0  0  0  0
   21.9876  -16.2645    4.4107 C   0  0  2  0  0  0  0  0  0  0  0  0
   23.4337  -16.4926    3.9654 C   0  0  0  0  0  0  0  0  0  0  0  0
   24.3278  -15.5620    4.7377 N   0  3  0  0  0  0  0  0  0  0  0  0
   24.2779  -15.8063    5.7324 H   0  0  0  0  0  0  0  0  0  0  0  0
   25.2861  -15.7647    4.4282 H   0  0  0  0  0  0  0  0  0  0  0  0
   24.0092  -14.1297    4.5050 C   0  0  0  0  0  0  0  0  0  0  0  0
   21.0009  -17.2110    3.7118 C   0  0  0  0  0  0  0  0  0  0  0  0
   19.8042  -17.5750    4.5772 C   0  0  0  0  0  0  0  0  0  0  0  0
   19.8103  -17.3223    5.7846 O   0  0  0  0  0  0  0  0  0  0  0  0
   18.6701  -18.0594    3.9703 N   0  0  0  0  0  0  0  0  0  0  0  0
   18.2985  -19.3831    4.1265 O   0  5  0  0  0  0  0  0  0  0  0  0
   17.9078  -17.3989    3.8417 H   0  0  0  0  0  0  0  0  0  0  0  0
  1  2  1  0  0  0  0
  1  8  1  0  0  0  0
  2  3  1  0  0  0  0
  3  4  1  0  0  0  0
  3  9  1  6  0  0  0
  4  5  1  0  0  0  0
  5  6  1  0  0  0  0
  5  7  1  0  0  0  0
  5  8  1  0  0  0  0
  9 10  1  0  0  0  0
 10 11  2  0  0  0  0
 10 12  1  0  0  0  0
 12 13  1  0  0  0  0
 12 14  1  0  0  0  0
M  CHG  2   5   1  13  -1
M  END
>  <CHROM.0>
-52.63698407,-178.19651564,-55.56009080,-51.06982941,-57.58102588,-57.18884036
-63.09348351,-50.04846794,-166.18715506,161.15348392

>  <CHROM.1>
-86.38243908,-12.96896374,110.09320754,21.38882396,-16.45476256,4.46616614
0.63865507,0.15396997,0.25955345

>  <Name>
P107232038

>  <RI>
0

>  <Rbt.Current_Directory>
/home/fstefaniak/projects/zuza/docking/adenine/1Y26

>  <Rbt.Executable>
rbdock ($Id: //depot/dev/client3/rdock/2013.1/src/exe/rbdock.cxx#4 $)

>  <Rbt.Library>
libRbt.so (2013.1, Build901 2013/11/27)

>  <Rbt.Parameter_File>
/home/fstefaniak/progs/rDock//data/scripts/dock_solv.prm

>  <Rbt.Receptor>
1y26.prm

>  <SCORE>
-55.2862

>  <SCORE.INTER>
-31.3869

>  <SCORE.INTER.CONST>
1

>  <SCORE.INTER.POLAR>
-5.09541

>  <SCORE.INTER.ROT>
3

>  <SCORE.INTER.SOLV>
26.7115

>  <SCORE.INTER.VDW>
-18.4438

>  <SCORE.INTER.norm>
-2.85336

>  <SCORE.INTRA>
-1.49622

>  <SCORE.INTRA.DIHEDRAL>
1.84341

>  <SCORE.INTRA.DIHEDRAL.0>
2.07924

>  <SCORE.INTRA.POLAR>
0

>  <SCORE.INTRA.POLAR.0>
0

>  <SCORE.INTRA.REPUL>
0

>  <SCORE.INTRA.REPUL.0>
0

>  <SCORE.INTRA.SOLV>
-4.12186

>  <SCORE.INTRA.SOLV.lig_0>
-54.5256

>  <SCORE.INTRA.VDW>
-0.356997

>  <SCORE.INTRA.VDW.0>
-0.252638

>  <SCORE.INTRA.norm>
-0.13602

>  <SCORE.RESTR>
0

>  <SCORE.RESTR.CAVITY>
0

>  <SCORE.RESTR.norm>
0

>  <SCORE.SYSTEM>
-22.4031

>  <SCORE.SYSTEM.CONST>
0

>  <SCORE.SYSTEM.DIHEDRAL>
5.70005

>  <SCORE.SYSTEM.POLAR>
-3.47701

>  <SCORE.SYSTEM.SOLV>
0.602755

>  <SCORE.SYSTEM.VDW>
-5.44632

>  <SCORE.SYSTEM.norm>
-2.03665

>  <SCORE.heavy>
11

>  <SCORE.norm>
-5.02602

$$$$
P107232038
 OpenBabel12072022103D
libRbt.so/2013.1/901 2013/11/27
 14 14  0  0  0  0  0  0  0  0999 V2000
   22.5776  -13.9051    5.0063 C   0  0  0  0  0  0  0  0  0  0  0  0
   21.5982  -14.8348    4.2913 C   0  0  0  0  0  0  0  0  0  0  0  0
   22.0120  -16.3093    4.4419 C   0  0  2  0  0  0  0  0  0  0  0  0
   23.4578  -16.5130    3.9839 C   0  0  0  0  0  0  0  0  0  0  0  0
   24.3460  -15.5856    4.7667 N   0  3  0  0  0  0  0  0  0  0  0  0
   24.3052  -15.8475    5.7573 H   0  0  0  0  0  0  0  0  0  0  0  0
   25.3046  -15.7718    4.4478 H   0  0  0  0  0  0  0  0  0  0  0  0
   24.0095  -14.1532    4.5607 C   0  0  0  0  0  0  0  0  0  0  0  0
   21.0319  -17.2550    3.7328 C   0  0  0  0  0  0  0  0  0  0  0  0
   19.8174  -17.6043    4.5792 C   0  0  0  0  0  0  0  0  0  0  0  0
   19.8053  -17.3464    5.7855 O   0  0  0  0  0  0  0  0  0  0  0  0
   18.6892  -18.0808    3.9551 N   0  0  0  0  0  0  0  0  0  0  0  0
   18.3477  -19.4188    4.0435 O   0  5  0  0  0  0  0  0  0  0  0  0
   17.9118  -17.4315    3.8669 H   0  0  0  0  0  0  0  0  0  0  0  0
  1  2  1  0  0  0  0
  1  8  1  0  0  0  0
  2  3  1  0  0  0  0
  3  4  1  0  0  0  0
  3  9  1  6  0  0  0
  4  5  1  0  0  0  0
  5  6  1  0  0  0  0
  5  7  1  0  0  0  0
  5  8  1  0  0  0  0
  9 10  1  0  0  0  0
 10 11  2  0  0  0  0
 10 12  1  0  0  0  0
 12 13  1  0  0  0  0
 12 14  1  0  0  0  0
M  CHG  2   5   1  13  -1
M  END
>  <CHROM.0>
-46.57295336,-172.93813752,-56.11486282,-54.31238185,-56.98135550,-175.86691034
-57.72908788,-51.59774321,-167.39857994,161.22742889

>  <CHROM.1>
-84.12232377,-13.24004818,106.11157212,21.40539330,-16.48736705,4.48206712
0.63808692,0.16410167,0.29613492

>  <Name>
P107232038

>  <RI>
0

>  <Rbt.Current_Directory>
/home/fstefaniak/projects/zuza/docking/adenine/1Y26

>  <Rbt.Executable>
rbdock ($Id: //depot/dev/client3/rdock/2013.1/src/exe/rbdock.cxx#4 $)

>  <Rbt.Library>
libRbt.so (2013.1, Build901 2013/11/27)

>  <Rbt.Parameter_File>
/home/fstefaniak/progs/rDock//data/scripts/dock_solv.prm

>  <Rbt.Receptor>
1y26.prm

>  <SCORE>
-54.9592

>  <SCORE.INTER>
-31.2039

>  <SCORE.INTER.CONST>
1

>  <SCORE.INTER.POLAR>
-5.06429

>  <SCORE.INTER.ROT>
3

>  <SCORE.INTER.SOLV>
27.0934

>  <SCORE.INTER.VDW>
-18.5528

>  <SCORE.INTER.norm>
-2.83672

>  <SCORE.INTRA>
-1.62109

>  <SCORE.INTRA.DIHEDRAL>
1.56386

>  <SCORE.INTRA.DIHEDRAL.0>
2.07924

>  <SCORE.INTRA.POLAR>
0

>  <SCORE.INTRA.POLAR.0>
0

>  <SCORE.INTRA.REPUL>
0

>  <SCORE.INTRA.REPUL.0>
0

>  <SCORE.INTRA.SOLV>
-4.10377

>  <SCORE.INTRA.SOLV.lig_0>
-54.5256

>  <SCORE.INTRA.VDW>
-0.351131

>  <SCORE.INTRA.VDW.0>
-0.252638

>  <SCORE.INTRA.norm>
-0.147371

>  <SCORE.RESTR>
0

>  <SCORE.RESTR.CAVITY>
0

>  <SCORE.RESTR.norm>
0

>  <SCORE.SYSTEM>
-22.1342

>  <SCORE.SYSTEM.CONST>
0

>  <SCORE.SYSTEM.DIHEDRAL>
6.03573

>  <SCORE.SYSTEM.POLAR>
-3.46668

>  <SCORE.SYSTEM.SOLV>
0.464831

>  <SCORE.SYSTEM.VDW>
-5.36735

>  <SCORE.SYSTEM.norm>
-2.0122

>  <SCORE.heavy>
11

>  <SCORE.norm>
-4.99629

$$$$
P107232038
 OpenBabel12072022103D
libRbt.so/2013.1/901 2013/11/27
 14 14  0  0  0  0  0  0  0  0999 V2000
   22.5286  -13.8799    5.0257 C   0  0  0  0  0  0  0  0  0  0  0  0
   21.5611  -14.8167    4.3039 C   0  0  0  0  0  0  0  0  0  0  0  0
   21.9979  -16.2862    4.4371 C   0  0  2  0  0  0  0  0  0  0  0  0
   23.4450  -16.4628    3.9721 C   0  0  0  0  0  0  0  0  0  0  0  0
   24.3217  -15.5304    4.7620 N   0  3  0  0  0  0  0  0  0  0  0  0
   24.2883  -15.8036    5.7498 H   0  0  0  0  0  0  0  0  0  0  0  0
   25.2819  -15.6984    4.4379 H   0  0  0  0  0  0  0  0  0  0  0  0
   23.9626  -14.1012    4.5727 C   0  0  0  0  0  0  0  0  0  0  0  0
   21.0298  -17.2391    3.7209 C   0  0  0  0  0  0  0  0  0  0  0  0
   19.8065  -17.5887    4.5544 C   0  0  0  0  0  0  0  0  0  0  0  0
   19.7905  -17.3517    5.7649 O   0  0  0  0  0  0  0  0  0  0  0  0
   18.6765  -18.0409    3.9159 N   0  0  0  0  0  0  0  0  0  0  0  0
   18.3835  -19.3927    3.8762 O   0  5  0  0  0  0  0  0  0  0  0  0
   17.8750  -17.4152    3.9158 H   0  0  0  0  0  0  0  0  0  0  0  0
  1  2  1  0  0  0  0
  1  8  1  0  0  0  0
  2  3  1  0  0  0  0
  3  4  1  0  0  0  0
  3  9  1  6  0  0  0
  4  5  1  0  0  0  0
  5  6  1  0  0  0  0
  5  7  1  0  0  0  0
  5  8  1  0  0  0  0
  9 10  1  0  0  0  0
 10 11  2  0  0  0  0
 10 12  1  0  0  0  0
 12 13  1  0  0  0  0
 12 14  1  0  0  0  0
M  CHG  2   5   1  13  -1
M  END
>  <CHROM.0>
-45.53311308,-177.27278026,-53.47752324,-52.30709157,-173.10486804,-175.47200442
-57.68932261,-51.89545018,-167.55898041,161.55789912

>  <CHROM.1>
-82.68985388,-14.84430463,100.21236827,21.38863634,-16.45860938,4.45890926
0.64480314,0.16998439,0.32493736

>  <Name>
P107232038

>  <RI>
0

>  <Rbt.Current_Directory>
/home/fstefaniak/projects/zuza/docking/adenine/1Y26

>  <Rbt.Executable>
rbdock ($Id: //depot/dev/client3/rdock/2013.1/src/exe/rbdock.cxx#4 $)

>  <Rbt.Library>
libRbt.so (2013.1, Build901 2013/11/27)

>  <Rbt.Parameter_File>
/home/fstefaniak/progs/rDock//data/scripts/dock_solv.prm

>  <Rbt.Receptor>
1y26.prm

>  <SCORE>
-54.8971

>  <SCORE.INTER>
-31.2075

>  <SCORE.INTER.CONST>
1

>  <SCORE.INTER.POLAR>
-5.151

>  <SCORE.INTER.ROT>
3

>  <SCORE.INTER.SOLV>
27.1608

>  <SCORE.INTER.VDW>
-18.2886

>  <SCORE.INTER.norm>
-2.83705

>  <SCORE.INTRA>
-1.67837

>  <SCORE.INTRA.DIHEDRAL>
1.43481

>  <SCORE.INTRA.DIHEDRAL.0>
2.07924

>  <SCORE.INTRA.POLAR>
0

>  <SCORE.INTRA.POLAR.0>
0

>  <SCORE.INTRA.REPUL>
0

>  <SCORE.INTRA.REPUL.0>
0

>  <SCORE.INTRA.SOLV>
-4.08465

>  <SCORE.INTRA.SOLV.lig_0>
-54.5256

>  <SCORE.INTRA.VDW>
-0.353445

>  <SCORE.INTRA.VDW.0>
-0.252638

>  <SCORE.INTRA.norm>
-0.152579

>  <SCORE.RESTR>
0

>  <SCORE.RESTR.CAVITY>
0

>  <SCORE.RESTR.norm>
0

>  <SCORE.SYSTEM>
-22.0112

>  <SCORE.SYSTEM.CONST>
0

>  <SCORE.SYSTEM.DIHEDRAL>
6.31218

>  <SCORE.SYSTEM.POLAR>
-3.52711

>  <SCORE.SYSTEM.SOLV>
0.314276

>  <SCORE.SYSTEM.VDW>
-5.1259

>  <SCORE.SYSTEM.norm>
-2.00101

>  <SCORE.heavy>
11

>  <SCORE.norm>
-4.99064

$$$$
P107375654
 OpenBabel12072022103D
libRbt.so/2013.1/901 2013/11/27
 15 15  0  0  0  0  0  0  0  0999 V2000
   25.2787  -12.2734    4.1941 C   0  0  0  0  0  0  0  0  0  0  0  0
   24.2749  -13.2758    4.7654 C   0  0  2  0  0  0  0  0  0  0  0  0
   24.5966  -14.7042    4.3003 C   0  0  0  0  0  0  0  0  0  0  0  0
   23.5947  -15.7372    4.8328 C   0  0  0  0  0  0  0  0  0  0  0  0
   22.1765  -15.3928    4.7476 N   0  0  0  0  0  0  0  0  0  0  0  0
   21.8643  -13.9907    5.0455 C   0  0  0  0  0  0  0  0  0  0  0  0
   22.8140  -12.9111    4.4516 C   0  0  2  0  0  0  0  0  0  0  0  0
   22.6179  -12.7376    2.9948 N   0  3  0  0  0  0  0  0  0  0  0  0
   21.6121  -12.8321    2.7143 H   0  0  0  0  0  0  0  0  0  0  0  0
   22.7455  -11.7318    2.7054 H   0  0  0  0  0  0  0  0  0  0  0  0
   23.1743  -13.3097    2.3648 H   0  0  0  0  0  0  0  0  0  0  0  0
   21.4423  -15.9822    3.5889 C   0  0  0  0  0  0  0  0  0  0  0  0
   20.0960  -16.5777    4.0168 C   0  0  0  0  0  0  0  0  0  0  0  0
   19.2652  -16.7852    3.0710 O   0  0  0  0  0  0  0  0  0  0  0  0
   20.0610  -17.1968    5.1222 O   0  5  0  0  0  0  0  0  0  0  0  0
  2  3  1  0  0  0  0
  2  1  1  6  0  0  0
  2  7  1  0  0  0  0
  3  4  1  0  0  0  0
  4  5  1  0  0  0  0
  5  6  1  0  0  0  0
  5 12  1  0  0  0  0
  6  7  1  0  0  0  0
  7  8  1  6  0  0  0
  8  9  1  0  0  0  0
  8 10  1  0  0  0  0
  8 11  1  0  0  0  0
 12 13  1  0  0  0  0
 13 14  2  0  0  0  0
 13 15  1  0  0  0  0
M  CHG  2   8   1  15  -1
M  END
>  <CHROM.0>
-47.38670516,170.61391884,-57.84458363,-52.96236752,-173.73472805,-176.85304080
-56.85700273,-52.04869103,-166.85868031,161.16213888

>  <CHROM.1>
134.25412610,159.41627379,162.66504022,22.31118058,-14.79365671,4.22638174
0.62313356,-0.39201097,-0.43874708

>  <Name>
P107375654

>  <RI>
0

>  <Rbt.Current_Directory>
/home/fstefaniak/projects/zuza/docking/adenine/1Y26

>  <Rbt.Executable>
rbdock ($Id: //depot/dev/client3/rdock/2013.1/src/exe/rbdock.cxx#4 $)

>  <Rbt.Library>
libRbt.so (2013.1, Build901 2013/11/27)

>  <Rbt.Parameter_File>
/home/fstefaniak/progs/rDock//data/scripts/dock_solv.prm

>  <Rbt.Receptor>
1y26.prm

>  <SCORE>
-50.6137

>  <SCORE.INTER>
-21.2339

>  <SCORE.INTER.CONST>
1

>  <SCORE.INTER.POLAR>
-3.4139

>  <SCORE.INTER.ROT>
2

>  <SCORE.INTER.SOLV>
19.822

>  <SCORE.INTER.VDW>
-14.3169

>  <SCORE.INTER.norm>
-1.76949

>  <SCORE.INTRA>
-8.63583

>  <SCORE.INTRA.DIHEDRAL>
1.54471

>  <SCORE.INTRA.DIHEDRAL.0>
2.41111

>  <SCORE.INTRA.POLAR>
0

>  <SCORE.INTRA.POLAR.0>
0

>  <SCORE.INTRA.REPUL>
0

>  <SCORE.INTRA.REPUL.0>
0

>  <SCORE.INTRA.SOLV>
-12.8482

>  <SCORE.INTRA.SOLV.lig_0>
-37.2252

>  <SCORE.INTRA.VDW>
-2.98408

>  <SCORE.INTRA.VDW.0>
1.86258

>  <SCORE.INTRA.norm>
-0.719652

>  <SCORE.RESTR>
0.970046

>  <SCORE.RESTR.CAVITY>
0.970046

>  <SCORE.RESTR.norm>
0.0808372

>  <SCORE.SYSTEM>
-21.7141

>  <SCORE.SYSTEM.CONST>
0

>  <SCORE.SYSTEM.DIHEDRAL>
6.30494

>  <SCORE.SYSTEM.POLAR>
-3.4773

>  <SCORE.SYSTEM.SOLV>
0.320702

>  <SCORE.SYSTEM.VDW>
-5.0936

>  <SCORE.SYSTEM.norm>
-1.80951

>  <SCORE.heavy>
12

>  <SCORE.norm>
-4.21781

$$$$
P107375654
 OpenBabel12072022103D
libRbt.so/2013.1/901 2013/11/27
 15 15  0  0  0  0  0  0  0  0999 V2000
   25.3381  -12.3267    4.1869 C   0  0  0  0  0  0  0  0  0  0  0  0
   24.3228  -13.3182    4.7568 C   0  0  2  0  0  0  0  0  0  0  0  0
   24.6060  -14.7441    4.2602 C   0  0  0  0  0  0  0  0  0  0  0  0
   23.5913  -15.7656    4.7909 C   0  0  0  0  0  0  0  0  0  0  0  0
   22.1795  -15.3897    4.7363 N   0  0  0  0  0  0  0  0  0  0  0  0
   21.9024  -13.9871    5.0652 C   0  0  0  0  0  0  0  0  0  0  0  0
   22.8650  -12.9170    4.4750 C   0  0  2  0  0  0  0  0  0  0  0  0
   22.6482  -12.7122    3.0252 N   0  3  0  0  0  0  0  0  0  0  0  0
   21.6389  -12.8038    2.7565 H   0  0  0  0  0  0  0  0  0  0  0  0
   22.7687  -11.6999    2.7563 H   0  0  0  0  0  0  0  0  0  0  0  0
   23.1976  -13.2685    2.3751 H   0  0  0  0  0  0  0  0  0  0  0  0
   21.4136  -15.9418    3.5799 C   0  0  0  0  0  0  0  0  0  0  0  0
   20.0699  -16.5325    4.0223 C   0  0  0  0  0  0  0  0  0  0  0  0
   19.2171  -16.7089    3.0898 O   0  0  0  0  0  0  0  0  0  0  0  0
   20.0511  -17.1769    5.1135 O   0  5  0  0  0  0  0  0  0  0  0  0
  2  3  1  0  0  0  0
  2  1  1  6  0  0  0
  2  7  1  0  0  0  0
  3  4  1  0  0  0  0
  4  5  1  0  0  0  0
  5  6  1  0  0  0  0
  5 12  1  0  0  0  0
  6  7  1  0  0  0  0
  7  8  1  6  0  0  0
  8  9  1  0  0  0  0
  8 10  1  0  0  0  0
  8 11  1  0  0  0  0
 12 13  1  0  0  0  0
 13 14  2  0  0  0  0
 13 15  1  0  0  0  0
M  CHG  2   8   1  15  -1
M  END
>  <CHROM.0>
-51.16489001,170.87617993,-55.32978114,60.68686910,-175.65174035,-58.08963108
-57.67900404,-53.33011979,-167.86966000,161.85262033

>  <CHROM.1>
133.53665137,157.99134429,162.76350518,22.32102669,-14.78894709,4.22455306
0.61396171,-0.36884593,-0.42384630

>  <Name>
P107375654

>  <RI>
0

>  <Rbt.Current_Directory>
/home/fstefaniak/projects/zuza/docking/adenine/1Y26

>  <Rbt.Executable>
rbdock ($Id: //depot/dev/client3/rdock/2013.1/src/exe/rbdock.cxx#4 $)

>  <Rbt.Library>
libRbt.so (2013.1, Build901 2013/11/27)

>  <Rbt.Parameter_File>
/home/fstefaniak/progs/rDock//data/scripts/dock_solv.prm

>  <Rbt.Receptor>
1y26.prm

>  <SCORE>
-48.1232

>  <SCORE.INTER>
-21.3731

>  <SCORE.INTER.CONST>
1

>  <SCORE.INTER.POLAR>
-3.38607

>  <SCORE.INTER.ROT>
2

>  <SCORE.INTER.SOLV>
19.8743

>  <SCORE.INTER.VDW>
-14.52

>  <SCORE.INTER.norm>
-1.7811

>  <SCORE.INTRA>
-8.53786

>  <SCORE.INTRA.DIHEDRAL>
1.71019

>  <SCORE.INTRA.DIHEDRAL.0>
2.41111

>  <SCORE.INTRA.POLAR>
0

>  <SCORE.INTRA.POLAR.0>
0

>  <SCORE.INTRA.REPUL>
0

>  <SCORE.INTRA.REPUL.0>
0

>  <SCORE.INTRA.SOLV>
-12.8466

>  <SCORE.INTRA.SOLV.lig_0>
-37.2252

>  <SCORE.INTRA.VDW>
-2.96965

>  <SCORE.INTRA.VDW.0>
1.86258

>  <SCORE.INTRA.norm>
-0.711489

>  <SCORE.RESTR>
0.958077

>  <SCORE.RESTR.CAVITY>
0.958077

>  <SCORE.RESTR.norm>
0.0798398

>  <SCORE.SYSTEM>
-19.1703

>  <SCORE.SYSTEM.CONST>
0

>  <SCORE.SYSTEM.DIHEDRAL>
5.33671

>  <SCORE.SYSTEM.POLAR>
-2.85469

>  <SCORE.SYSTEM.SOLV>
0.402448

>  <SCORE.SYSTEM.VDW>
-5.17761

>  <SCORE.SYSTEM.norm>
-1.59752

>  <SCORE.heavy>
12

>  <SCORE.norm>
-4.01027

$$$$
P107375654
 OpenBabel12072022103D
libRbt.so/2013.1/901 2013/11/27
 15 15  0  0  0  0  0  0  0  0999 V2000
   25.2628  -12.2687    4.2065 C   0  0  0  0  0  0  0  0  0  0  0  0
   24.3002  -13.3157    4.7683 C   0  0  2  0  0  0  0  0  0  0  0  0
   24.6206  -14.7126    4.2151 C   0  0  0  0  0  0  0  0  0  0  0  0
   23.6586  -15.7883    4.7367 C   0  0  0  0  0  0  0  0  0  0  0  0
   22.2332  -15.4632    4.7327 N   0  0  0  0  0  0  0  0  0  0  0  0
   21.9150  -14.0838    5.1174 C   0  0  0  0  0  0  0  0  0  0  0  0
   22.8216  -12.9594    4.5394 C   0  0  2  0  0  0  0  0  0  0  0  0
   22.5573  -12.7140    3.1039 N   0  3  0  0  0  0  0  0  0  0  0  0
   22.9327  -11.7894    2.7822 H   0  0  0  0  0  0  0  0  0  0  0  0
   23.1588  -13.3254    2.4908 H   0  0  0  0  0  0  0  0  0  0  0  0
   21.5997  -12.7964    2.7719 H   0  0  0  0  0  0  0  0  0  0  0  0
   21.4558  -16.0038    3.5786 C   0  0  0  0  0  0  0  0  0  0  0  0
   20.0960  -16.5556    4.0220 C   0  0  0  0  0  0  0  0  0  0  0  0
   19.2548  -16.7547    3.0835 O   0  0  0  0  0  0  0  0  0  0  0  0
   20.0498  -17.1566    5.1369 O   0  5  0  0  0  0  0  0  0  0  0  0
  2  3  1  0  0  0  0
  2  1  1  6  0  0  0
  2  7  1  0  0  0  0
  3  4  1  0  0  0  0
  4  5  1  0  0  0  0
  5  6  1  0  0  0  0
  5 12  1  0  0  0  0
  6  7  1  0  0  0  0
  7  8  1  6  0  0  0
  8  9  1  0  0  0  0
  8 10  1  0  0  0  0
  8 11  1  0  0  0  0
 12 13  1  0  0  0  0
 13 14  2  0  0  0  0
 13 15  1  0  0  0  0
M  CHG  2   8   1  15  -1
M  END
>  <CHROM.0>
-49.28965018,173.22945494,-52.38614565,62.09500531,-172.45498961,61.34527962
-52.05180557,-44.82430527,-165.96836474,161.15211851

>  <CHROM.1>
138.18796371,-74.65083838,164.78818642,22.32329364,-14.81005245,4.23665488
0.63355871,-0.35512906,-0.38776114

>  <Name>
P107375654

>  <RI>
0

>  <Rbt.Current_Directory>
/home/fstefaniak/projects/zuza/docking/adenine/1Y26

>  <Rbt.Executable>
rbdock ($Id: //depot/dev/client3/rdock/2013.1/src/exe/rbdock.cxx#4 $)

>  <Rbt.Library>
libRbt.so (2013.1, Build901 2013/11/27)

>  <Rbt.Parameter_File>
/home/fstefaniak/progs/rDock//data/scripts/dock_solv.prm

>  <Rbt.Receptor>
1y26.prm

>  <SCORE>
-46.9408

>  <SCORE.INTER>
-21.2293

>  <SCORE.INTER.CONST>
1

>  <SCORE.INTER.POLAR>
-3.36657

>  <SCORE.INTER.ROT>
2

>  <SCORE.INTER.SOLV>
19.6108

>  <SCORE.INTER.VDW>
-14.4012

>  <SCORE.INTER.norm>
-1.76911

>  <SCORE.INTRA>
-8.54213

>  <SCORE.INTRA.DIHEDRAL>
0.831781

>  <SCORE.INTRA.DIHEDRAL.0>
2.41111

>  <SCORE.INTRA.POLAR>
0

>  <SCORE.INTRA.POLAR.0>
0

>  <SCORE.INTRA.REPUL>
0

>  <SCORE.INTRA.REPUL.0>
0

>  <SCORE.INTRA.SOLV>
-12.4496

>  <SCORE.INTRA.SOLV.lig_0>
-37.2252

>  <SCORE.INTRA.VDW>
-2.73321

>  <SCORE.INTRA.VDW.0>
1.86258

>  <SCORE.INTRA.norm>
-0.711844

>  <SCORE.RESTR>
0.960025

>  <SCORE.RESTR.CAVITY>
0.960025

>  <SCORE.RESTR.norm>
0.0800021

>  <SCORE.SYSTEM>
-18.1294

>  <SCORE.SYSTEM.CONST>
0

>  <SCORE.SYSTEM.DIHEDRAL>
7.06512

>  <SCORE.SYSTEM.POLAR>
-3.01994

>  <SCORE.SYSTEM.SOLV>
0.251486

>  <SCORE.SYSTEM.VDW>
-4.45866

>  <SCORE.SYSTEM.norm>
-1.51078

>  <SCORE.heavy>
12

>  <SCORE.norm>
-3.91173

$$$$
P107405414
 OpenBabel12072022103D
libRbt.so/2013.1/901 2013/11/27
 15 15  0  0  0  0  0  0  0  0999 V2000
   24.9330  -13.4113    4.2928 C   0  0  0  0  0  0  0  0  0  0  0  0
   23.8301  -14.3554    4.7836 C   0  0  1  0  0  0  0  0  0  0  0  0
   22.4950  -13.9733    4.1210 C   0  0  0  0  0  0  0  0  0  0  0  0
   21.3491  -14.8699    4.5658 C   0  0  0  0  0  0  0  0  0  0  0  0
   21.7032  -16.2857    4.3291 N   0  3  1  0  0  0  0  0  0  0  0  0
   21.8250  -16.4821    3.3060 H   0  0  0  0  0  0  0  0  0  0  0  0
   22.9825  -16.7425    4.9598 C   0  0  0  0  0  0  0  0  0  0  0  0
   24.1572  -15.8428    4.5067 C   0  0  2  0  0  0  0  0  0  0  0  0
   25.4203  -16.2200    5.1496 N   0  0  0  0  0  0  0  0  0  0  0  0
   20.5531  -17.2852    4.6035 C   0  0  0  0  0  0  0  0  0  0  0  0
   19.5919  -17.3615    3.3877 C   0  0  0  0  0  0  0  0  0  0  0  0
   18.9538  -18.4267    3.2422 O   0  0  0  0  0  0  0  0  0  0  0  0
   19.6749  -16.3001    2.6902 O   0  5  0  0  0  0  0  0  0  0  0  0
   25.4593  -15.8533    6.1027 H   0  0  0  0  0  0  0  0  0  0  0  0
   26.2245  -15.8359    4.6550 H   0  0  0  0  0  0  0  0  0  0  0  0
  2  3  1  0  0  0  0
  2  8  1  0  0  0  0
  2  1  1  6  0  0  0
  3  4  1  0  0  0  0
  4  5  1  0  0  0  0
  5  6  1  6  0  0  0
  5  7  1  0  0  0  0
  5 10  1  0  0  0  0
  7  8  1  0  0  0  0
  8  9  1  1  0  0  0
  9 14  1  0  0  0  0
  9 15  1  0  0  0  0
 10 11  1  0  0  0  0
 11 12  2  0  0  0  0
 11 13  1  0  0  0  0
M  CHG  2   5   1  13  -1
M  END
>  <CHROM.0>
-49.47957441,-59.74596812,-53.62723249,-53.82801443,-175.89058006,-60.94942761
-59.53747406,-177.84846231,-167.07492006,160.77155558

>  <CHROM.1>
81.82683622,44.47402959,153.79404887,22.13798032,-15.93625186,4.20389511
0.42888111,-0.33537252,-0.17759457

>  <Name>
P107405414

>  <RI>
0

>  <Rbt.Current_Directory>
/home/fstefaniak/projects/zuza/docking/adenine/1Y26

>  <Rbt.Executable>
rbdock ($Id: //depot/dev/client3/rdock/2013.1/src/exe/rbdock.cxx#4 $)

>  <Rbt.Library>
libRbt.so (2013.1, Build901 2013/11/27)

>  <Rbt.Parameter_File>
/home/fstefaniak/progs/rDock//data/scripts/dock_solv.prm

>  <Rbt.Receptor>
1y26.prm

>  <SCORE>
-42.6484

>  <SCORE.INTER>
-20.2815

>  <SCORE.INTER.CONST>
1

>  <SCORE.INTER.POLAR>
-3.55409

>  <SCORE.INTER.ROT>
3

>  <SCORE.INTER.SOLV>
21.873

>  <SCORE.INTER.VDW>
-14.565

>  <SCORE.INTER.norm>
-1.69013

>  <SCORE.INTRA>
0.102942

>  <SCORE.INTRA.DIHEDRAL>
0.12765

>  <SCORE.INTRA.DIHEDRAL.0>
3.14483

>  <SCORE.INTRA.POLAR>
0

>  <SCORE.INTRA.POLAR.0>
0

>  <SCORE.INTRA.REPUL>
0

>  <SCORE.INTRA.REPUL.0>
0

>  <SCORE.INTRA.SOLV>
-0.313042

>  <SCORE.INTRA.SOLV.lig_0>
-43.7048

>  <SCORE.INTRA.VDW>
0.195638

>  <SCORE.INTRA.VDW.0>
-0.200963

>  <SCORE.INTRA.norm>
0.00857849

>  <SCORE.RESTR>
0.174424

>  <SCORE.RESTR.CAVITY>
0.174424

>  <SCORE.RESTR.norm>
0.0145353

>  <SCORE.SYSTEM>
-22.6443

>  <SCORE.SYSTEM.CONST>
0

>  <SCORE.SYSTEM.DIHEDRAL>
5.36555

>  <SCORE.SYSTEM.POLAR>
-3.44104

>  <SCORE.SYSTEM.SOLV>
0.288318

>  <SCORE.SYSTEM.VDW>
-5.5107

>  <SCORE.SYSTEM.norm>
-1.88702

>  <SCORE.heavy>
12

>  <SCORE.norm>
-3.55404

$$$$
P107405414
 OpenBabel12072022103D
libRbt.so/2013.1/901 2013/11/27
 15 15  0  0  0  0  0  0  0  0999 V2000
   24.8480  -13.2985    4.3974 C   0  0  0  0  0  0  0  0  0  0  0  0
   23.7768  -14.2966    4.8505 C   0  0  1  0  0  0  0  0  0  0  0  0
   22.4336  -13.9436    4.1881 C   0  0  0  0  0  0  0  0  0  0  0  0
   21.3181  -14.8944    4.5962 C   0  0  0  0  0  0  0  0  0  0  0  0
   21.7257  -16.2886    4.3206 N   0  3  1  0  0  0  0  0  0  0  0  0
   21.8622  -16.4496    3.2932 H   0  0  0  0  0  0  0  0  0  0  0  0
   23.0160  -16.7171    4.9484 C   0  0  0  0  0  0  0  0  0  0  0  0
   24.1603  -15.7620    4.5323 C   0  0  2  0  0  0  0  0  0  0  0  0
   25.4315  -16.1121    5.1745 N   0  0  0  0  0  0  0  0  0  0  0  0
   20.6110  -17.3371    4.5553 C   0  0  0  0  0  0  0  0  0  0  0  0
   19.5955  -17.3292    3.3820 C   0  0  0  0  0  0  0  0  0  0  0  0
   18.4887  -17.8708    3.5933 O   0  0  0  0  0  0  0  0  0  0  0  0
   20.1179  -16.8023    2.3478 O   0  5  0  0  0  0  0  0  0  0  0  0
   25.3966  -15.9015    6.1739 H   0  0  0  0  0  0  0  0  0  0  0  0
   26.2086  -15.5763    4.7895 H   0  0  0  0  0  0  0  0  0  0  0  0
  2  3  1  0  0  0  0
  2  8  1  0  0  0  0
  2  1  1  6  0  0  0
  3  4  1  0  0  0  0
  4  5  1  0  0  0  0
  5  6  1  6  0  0  0
  5  7  1  0  0  0  0
  5 10  1  0  0  0  0
  7  8  1  0  0  0  0
  8  9  1  1  0  0  0
  9 14  1  0  0  0  0
  9 15  1  0  0  0  0
 10 11  1  0  0  0  0
 11 12  2  0  0  0  0
 11 13  1  0  0  0  0
M  CHG  2   5   1  13  -1
M  END
>  <CHROM.0>
-50.66867624,-61.95973948,-50.62146960,-50.97143661,-56.55598125,-177.37914905
-55.33082021,-50.56976322,-166.03672499,160.36951148

>  <CHROM.1>
77.14467565,53.08046183,-162.64255623,22.12736326,-15.90037547,4.22599627
0.42341841,-0.33434048,-0.17507915

>  <Name>
P107405414

>  <RI>
0

>  <Rbt.Current_Directory>
/home/fstefaniak/projects/zuza/docking/adenine/1Y26

>  <Rbt.Executable>
rbdock ($Id: //depot/dev/client3/rdock/2013.1/src/exe/rbdock.cxx#4 $)

>  <Rbt.Library>
libRbt.so (2013.1, Build901 2013/11/27)

>  <Rbt.Parameter_File>
/home/fstefaniak/progs/rDock//data/scripts/dock_solv.prm

>  <Rbt.Receptor>
1y26.prm

>  <SCORE>
-42.458

>  <SCORE.INTER>
-20.1279

>  <SCORE.INTER.CONST>
1

>  <SCORE.INTER.POLAR>
-3.42738

>  <SCORE.INTER.ROT>
3

>  <SCORE.INTER.SOLV>
21.8441

>  <SCORE.INTER.VDW>
-14.8754

>  <SCORE.INTER.norm>
-1.67732

>  <SCORE.INTRA>
-0.543077

>  <SCORE.INTRA.DIHEDRAL>
-0.677827

>  <SCORE.INTRA.DIHEDRAL.0>
3.14483

>  <SCORE.INTRA.POLAR>
0

>  <SCORE.INTRA.POLAR.0>
0

>  <SCORE.INTRA.REPUL>
0

>  <SCORE.INTRA.REPUL.0>
0

>  <SCORE.INTRA.SOLV>
-0.356275

>  <SCORE.INTRA.SOLV.lig_0>
-43.7048

>  <SCORE.INTRA.VDW>
-0.0260256

>  <SCORE.INTRA.VDW.0>
-0.200963

>  <SCORE.INTRA.norm>
-0.0452564

>  <SCORE.RESTR>
0.179884

>  <SCORE.RESTR.CAVITY>
0.179884

>  <SCORE.RESTR.norm>
0.0149904

>  <SCORE.SYSTEM>
-21.9669

>  <SCORE.SYSTEM.CONST>
0

>  <SCORE.SYSTEM.DIHEDRAL>
6.34508

>  <SCORE.SYSTEM.POLAR>
-3.56656

>  <SCORE.SYSTEM.SOLV>
0.540745

>  <SCORE.SYSTEM.VDW>
-5.05134

>  <SCORE.SYSTEM.norm>
-1.83057

>  <SCORE.heavy>
12

>  <SCORE.norm>
-3.53816

$$$$
P107405414
 OpenBabel12072022103D
libRbt.so/2013.1/901 2013/11/27
 15 15  0  0  0  0  0  0  0  0999 V2000
   25.0077  -13.3761    4.3703 C   0  0  0  0  0  0  0  0  0  0  0  0
   23.8926  -14.3208    4.8320 C   0  0  1  0  0  0  0  0  0  0  0  0
   22.5740  -13.9354    4.1392 C   0  0  0  0  0  0  0  0  0  0  0  0
   21.4171  -14.8324    4.5540 C   0  0  0  0  0  0  0  0  0  0  0  0
   21.7755  -16.2478    4.3213 N   0  3  1  0  0  0  0  0  0  0  0  0
   21.9213  -16.4411    3.3009 H   0  0  0  0  0  0  0  0  0  0  0  0
   23.0391  -16.7076    4.9807 C   0  0  0  0  0  0  0  0  0  0  0  0
   24.2250  -15.8075    4.5584 C   0  0  2  0  0  0  0  0  0  0  0  0
   25.4722  -16.1879    5.2298 N   0  0  0  0  0  0  0  0  0  0  0  0
   20.6184  -17.2470    4.5654 C   0  0  0  0  0  0  0  0  0  0  0  0
   19.5773  -17.1706    3.4173 C   0  0  0  0  0  0  0  0  0  0  0  0
   18.4158  -17.5469    3.6863 O   0  0  0  0  0  0  0  0  0  0  0  0
   20.1324  -16.7777    2.3415 O   0  5  0  0  0  0  0  0  0  0  0  0
   25.4386  -15.9301    6.2181 H   0  0  0  0  0  0  0  0  0  0  0  0
   26.2774  -15.7081    4.8293 H   0  0  0  0  0  0  0  0  0  0  0  0
  2  3  1  0  0  0  0
  2  8  1  0  0  0  0
  2  1  1  6  0  0  0
  3  4  1  0  0  0  0
  4  5  1  0  0  0  0
  5  6  1  6  0  0  0
  5  7  1  0  0  0  0
  5 10  1  0  0  0  0
  7  8  1  0  0  0  0
  8  9  1  1  0  0  0
  9 14  1  0  0  0  0
  9 15  1  0  0  0  0
 10 11  1  0  0  0  0
 11 12  2  0  0  0  0
 11 13  1  0  0  0  0
M  CHG  2   5   1  13  -1
M  END
>  <CHROM.0>
60.51567272,-60.85546893,-53.39206152,-52.62006416,-172.65914163,-61.22983788
-57.80021546,-175.72586335,-166.63979454,161.15958493

>  <CHROM.1>
73.73198324,51.78155043,-156.05632058,22.17859812,-15.85887863,4.23584539
0.36685257,-0.32842564,-0.21441821

>  <Name>
P107405414

>  <RI>
0

>  <Rbt.Current_Directory>
/home/fstefaniak/projects/zuza/docking/adenine/1Y26

>  <Rbt.Executable>
rbdock ($Id: //depot/dev/client3/rdock/2013.1/src/exe/rbdock.cxx#4 $)

>  <Rbt.Library>
libRbt.so (2013.1, Build901 2013/11/27)

>  <Rbt.Parameter_File>
/home/fstefaniak/progs/rDock//data/scripts/dock_solv.prm

>  <Rbt.Receptor>
1y26.prm

>  <SCORE>
-41.9972

>  <SCORE.INTER>
-19.6379

>  <SCORE.INTER.CONST>
1

>  <SCORE.INTER.POLAR>
-3.47979

>  <SCORE.INTER.ROT>
3

>  <SCORE.INTER.SOLV>
22.6303

>  <SCORE.INTER.VDW>
-14.636

>  <SCORE.INTER.norm>
-1.63649

>  <SCORE.INTRA>
-0.826264

>  <SCORE.INTRA.DIHEDRAL>
-0.928626

>  <SCORE.INTRA.DIHEDRAL.0>
3.14483

>  <SCORE.INTRA.POLAR>
0

>  <SCORE.INTRA.POLAR.0>
0

>  <SCORE.INTRA.REPUL>
0

>  <SCORE.INTRA.REPUL.0>
0

>  <SCORE.INTRA.SOLV>
-0.462497

>  <SCORE.INTRA.SOLV.lig_0>
-43.7048

>  <SCORE.INTRA.VDW>
-0.130702

>  <SCORE.INTRA.VDW.0>
-0.200963

>  <SCORE.INTRA.norm>
-0.0688553

>  <SCORE.RESTR>
0.134763

>  <SCORE.RESTR.CAVITY>
0.134763

>  <SCORE.RESTR.norm>
0.0112303

>  <SCORE.SYSTEM>
-21.6679

>  <SCORE.SYSTEM.CONST>
0

>  <SCORE.SYSTEM.DIHEDRAL>
5.17357

>  <SCORE.SYSTEM.POLAR>
-3.22251

>  <SCORE.SYSTEM.SOLV>
0.267916

>  <SCORE.SYSTEM.VDW>
-5.51739

>  <SCORE.SYSTEM.norm>
-1.80566

>  <SCORE.heavy>
12

>  <SCORE.norm>
-3.49977

$$$$
P107707251
 OpenBabel12072022103D
libRbt.so/2013.1/901 2013/11/27
 13 13  0  0  0  0  0  0  0  0999 V2000
   22.0853  -15.8618    4.0606 C   0  0  0  0  0  0  0  0  0  0  0  0
   20.7178  -16.5149    3.9138 C   0  0  2  0  0  0  0  0  0  0  0  0
   20.4004  -17.4042    5.1150 C   0  0  0  0  0  0  0  0  0  0  0  0
   19.0741  -18.1315    4.8940 C   0  0  1  0  0  0  0  0  0  0  0  0
   19.0770  -18.8553    3.5473 C   0  0  0  0  0  0  0  0  0  0  0  0
   19.4706  -17.8974    2.4357 C   0  0  0  0  0  0  0  0  0  0  0  0
   20.7327  -17.2966    2.7170 O   0  0  0  0  0  0  0  0  0  0  0  0
   18.7147  -19.2942    6.2160 S   0  0  0  0  0  0  0  0  0  0  0  0
   19.0217  -20.6334    5.7708 O   0  0  0  0  0  0  0  0  0  0  0  0
   19.1799  -18.7781    7.4809 O   0  0  0  0  0  0  0  0  0  0  0  0
   17.0414  -19.2400    6.2993 N   0  0  0  0  0  0  0  0  0  0  0  0
   16.7025  -19.9745    6.9242 H   0  0  0  0  0  0  0  0  0  0  0  0
   16.7396  -18.3047    6.5812 H   0  0  0  0  0  0  0  0  0  0  0  0
  2  3  1  0  0  0  0
  2  7  1  0  0  0  0
  2  1  1  1  0  0  0
  3  4  1  0  0  0  0
  4  5  1  0  0  0  0
  4  8  1  1  0  0  0
  5  6  1  0  0  0  0
  6  7  1  0  0  0  0
  8  9  2  0  0  0  0
  8 10  2  0  0  0  0
  8 11  1  0  0  0  0
 11 12  1  0  0  0  0
 11 13  1  0  0  0  0
M  END
>  <CHROM.0>
-165.10446764,-57.76516723,-53.90356002,-53.03690957,-55.17559040,-57.95061005
-60.71597340,-49.91373826,-166.06067169,159.49114999

>  <CHROM.1>
-101.69380778,171.21672154,19.48437021,-18.31755361,4.95445508,-0.71106933
0.78805666,1.60703890

>  <Name>
P107707251

>  <RI>
0

>  <Rbt.Current_Directory>
/home/fstefaniak/projects/zuza/docking/adenine/1Y26

>  <Rbt.Executable>
rbdock ($Id: //depot/dev/client3/rdock/2013.1/src/exe/rbdock.cxx#4 $)

>  <Rbt.Library>
libRbt.so (2013.1, Build901 2013/11/27)

>  <Rbt.Parameter_File>
/home/fstefaniak/progs/rDock//data/scripts/dock_solv.prm

>  <Rbt.Receptor>
1y26.prm

>  <SCORE>
-53.0433

>  <SCORE.INTER>
-32.6385

>  <SCORE.INTER.CONST>
1

>  <SCORE.INTER.POLAR>
-3.87088

>  <SCORE.INTER.ROT>
2

>  <SCORE.INTER.SOLV>
12.5762

>  <SCORE.INTER.VDW>
-17.9815

>  <SCORE.INTER.norm>
-2.96714

>  <SCORE.INTRA>
0.239618

>  <SCORE.INTRA.DIHEDRAL>
-0.356031

>  <SCORE.INTRA.DIHEDRAL.0>
2.50279

>  <SCORE.INTRA.POLAR>
0

>  <SCORE.INTRA.POLAR.0>
0

>  <SCORE.INTRA.REPUL>
0

>  <SCORE.INTRA.REPUL.0>
0

>  <SCORE.INTRA.SOLV>
-0.0218604

>  <SCORE.INTRA.SOLV.lig_0>
-11.4332

>  <SCORE.INTRA.VDW>
0.428563

>  <SCORE.INTRA.VDW.0>
-0.708663

>  <SCORE.INTRA.norm>
0.0217834

>  <SCORE.RESTR>
0

>  <SCORE.RESTR.CAVITY>
0

>  <SCORE.RESTR.norm>
0

>  <SCORE.SYSTEM>
-20.6444

>  <SCORE.SYSTEM.CONST>
0

>  <SCORE.SYSTEM.DIHEDRAL>
6.70741

>  <SCORE.SYSTEM.POLAR>
-3.29211

>  <SCORE.SYSTEM.SOLV>
0.612055

>  <SCORE.SYSTEM.VDW>
-5.22903

>  <SCORE.SYSTEM.norm>
-1.87676

>  <SCORE.heavy>
11

>  <SCORE.norm>
-4.82212

$$$$
P107707251
 OpenBabel12072022103D
libRbt.so/2013.1/901 2013/11/27
 13 13  0  0  0  0  0  0  0  0999 V2000
   22.2408  -16.0053    4.0505 C   0  0  0  0  0  0  0  0  0  0  0  0
   20.8486  -16.6030    3.8994 C   0  0  2  0  0  0  0  0  0  0  0  0
   20.4964  -17.4876    5.0943 C   0  0  0  0  0  0  0  0  0  0  0  0
   19.1425  -18.1605    4.8686 C   0  0  1  0  0  0  0  0  0  0  0  0
   19.1169  -18.8742    3.5167 C   0  0  0  0  0  0  0  0  0  0  0  0
   19.5479  -17.9247    2.4119 C   0  0  0  0  0  0  0  0  0  0  0  0
   20.8326  -17.3761    2.6970 O   0  0  0  0  0  0  0  0  0  0  0  0
   18.7376  -19.3175    6.1823 S   0  0  0  0  0  0  0  0  0  0  0  0
   19.0334  -20.6612    5.7434 O   0  0  0  0  0  0  0  0  0  0  0  0
   19.1837  -18.8085    7.4569 O   0  0  0  0  0  0  0  0  0  0  0  0
   17.0639  -19.2378    6.2303 N   0  0  0  0  0  0  0  0  0  0  0  0
   16.6984  -19.9946    6.8122 H   0  0  0  0  0  0  0  0  0  0  0  0
   16.7710  -18.3115    6.5489 H   0  0  0  0  0  0  0  0  0  0  0  0
  2  3  1  0  0  0  0
  2  7  1  0  0  0  0
  2  1  1  1  0  0  0
  3  4  1  0  0  0  0
  4  5  1  0  0  0  0
  4  8  1  1  0  0  0
  5  6  1  0  0  0  0
  6  7  1  0  0  0  0
  8  9  2  0  0  0  0
  8 10  2  0  0  0  0
  8 11  1  0  0  0  0
 11 12  1  0  0  0  0
 11 13  1  0  0  0  0
M  END
>  <CHROM.0>
-164.98228758,-60.68001929,-57.52071253,-52.68054760,-57.56735824,-53.53669124
-60.71536685,-48.25158600,-166.91583064,160.19046803

>  <CHROM.1>
-99.80445200,168.53598408,19.54485890,-18.36467339,4.92625066,-0.70833289
0.74889308,1.61352425

>  <Name>
P107707251

>  <RI>
0

>  <Rbt.Current_Directory>
/home/fstefaniak/projects/zuza/docking/adenine/1Y26

>  <Rbt.Executable>
rbdock ($Id: //depot/dev/client3/rdock/2013.1/src/exe/rbdock.cxx#4 $)

>  <Rbt.Library>
libRbt.so (2013.1, Build901 2013/11/27)

>  <Rbt.Parameter_File>
/home/fstefaniak/progs/rDock//data/scripts/dock_solv.prm

>  <Rbt.Receptor>
1y26.prm

>  <SCORE>
-52.9838

>  <SCORE.INTER>
-32.4927

>  <SCORE.INTER.CONST>
1

>  <SCORE.INTER.POLAR>
-3.98255

>  <SCORE.INTER.ROT>
2

>  <SCORE.INTER.SOLV>
12.606

>  <SCORE.INTER.VDW>
-17.522

>  <SCORE.INTER.norm>
-2.95388

>  <SCORE.INTRA>
0.167241

>  <SCORE.INTRA.DIHEDRAL>
-0.459107

>  <SCORE.INTRA.DIHEDRAL.0>
2.50279

>  <SCORE.INTRA.POLAR>
0

>  <SCORE.INTRA.POLAR.0>
0

>  <SCORE.INTRA.REPUL>
0

>  <SCORE.INTRA.REPUL.0>
0

>  <SCORE.INTRA.SOLV>
-0.0210127

>  <SCORE.INTRA.SOLV.lig_0>
-11.4332

>  <SCORE.INTRA.VDW>
0.407301

>  <SCORE.INTRA.VDW.0>
-0.708663

>  <SCORE.INTRA.norm>
0.0152037

>  <SCORE.RESTR>
0

>  <SCORE.RESTR.CAVITY>
0

>  <SCORE.RESTR.norm>
0

>  <SCORE.SYSTEM>
-20.6583

>  <SCORE.SYSTEM.CONST>
0

>  <SCORE.SYSTEM.DIHEDRAL>
6.62852

>  <SCORE.SYSTEM.POLAR>
-3.28438

>  <SCORE.SYSTEM.SOLV>
0.610826

>  <SCORE.SYSTEM.VDW>
-5.23738

>  <SCORE.SYSTEM.norm>
-1.87803

>  <SCORE.heavy>
11

>  <SCORE.norm>
-4.8167

$$$$
P107707251
 OpenBabel12072022103D
libRbt.so/2013.1/901 2013/11/27
 13 13  0  0  0  0  0  0  0  0999 V2000
   22.6692  -16.4538    4.0910 C   0  0  0  0  0  0  0  0  0  0  0  0
   21.2115  -16.8122    3.8366 C   0  0  2  0  0  0  0  0  0  0  0  0
   20.6058  -17.5398    5.0358 C   0  0  0  0  0  0  0  0  0  0  0  0
   19.1787  -17.9838    4.7148 C   0  0  1  0  0  0  0  0  0  0  0  0
   19.1440  -18.7728    3.4056 C   0  0  0  0  0  0  0  0  0  0  0  0
   19.8306  -17.9888    2.3002 C   0  0  0  0  0  0  0  0  0  0  0  0
   21.1627  -17.6511    2.6800 O   0  0  0  0  0  0  0  0  0  0  0  0
   18.4628  -18.9619    6.0411 S   0  0  0  0  0  0  0  0  0  0  0  0
   19.0432  -18.5570    7.3001 O   0  0  0  0  0  0  0  0  0  0  0  0
   17.0373  -19.0927    5.8576 O   0  0  0  0  0  0  0  0  0  0  0  0
   19.0932  -20.4868    5.7459 N   0  0  0  0  0  0  0  0  0  0  0  0
   18.3327  -21.1478    5.5736 H   0  0  0  0  0  0  0  0  0  0  0  0
   19.7643  -20.4402    4.9761 H   0  0  0  0  0  0  0  0  0  0  0  0
  2  3  1  0  0  0  0
  2  7  1  0  0  0  0
  2  1  1  1  0  0  0
  3  4  1  0  0  0  0
  4  5  1  0  0  0  0
  4  8  1  1  0  0  0
  5  6  1  0  0  0  0
  6  7  1  0  0  0  0
  8  9  2  0  0  0  0
  8 10  2  0  0  0  0
  8 11  1  0  0  0  0
 11 12  1  0  0  0  0
 11 13  1  0  0  0  0
M  END
>  <CHROM.0>
-167.30017071,44.27988283,-50.10351511,-51.61137926,-175.23515245,-58.31747387
-53.45763983,-51.70786770,-167.25267190,159.92590328

>  <CHROM.1>
29.19304470,-119.40448386,19.61677579,-18.32038854,4.80765848,-0.62775507
0.60067332,1.54280484

>  <Name>
P107707251

>  <RI>
0

>  <Rbt.Current_Directory>
/home/fstefaniak/projects/zuza/docking/adenine/1Y26

>  <Rbt.Executable>
rbdock ($Id: //depot/dev/client3/rdock/2013.1/src/exe/rbdock.cxx#4 $)

>  <Rbt.Library>
libRbt.so (2013.1, Build901 2013/11/27)

>  <Rbt.Parameter_File>
/home/fstefaniak/progs/rDock//data/scripts/dock_solv.prm

>  <Rbt.Receptor>
1y26.prm

>  <SCORE>
-52.4219

>  <SCORE.INTER>
-34.5767

>  <SCORE.INTER.CONST>
1

>  <SCORE.INTER.POLAR>
-4.48237

>  <SCORE.INTER.ROT>
2

>  <SCORE.INTER.SOLV>
12.7373

>  <SCORE.INTER.VDW>
-17.289

>  <SCORE.INTER.norm>
-3.14333

>  <SCORE.INTRA>
1.99757

>  <SCORE.INTRA.DIHEDRAL>
0.966447

>  <SCORE.INTRA.DIHEDRAL.0>
2.50279

>  <SCORE.INTRA.POLAR>
0

>  <SCORE.INTRA.POLAR.0>
0

>  <SCORE.INTRA.REPUL>
0

>  <SCORE.INTRA.REPUL.0>
0

>  <SCORE.INTRA.SOLV>
0.16485

>  <SCORE.INTRA.SOLV.lig_0>
-11.4332

>  <SCORE.INTRA.VDW>
1.43192

>  <SCORE.INTRA.VDW.0>
-0.708663

>  <SCORE.INTRA.norm>
0.181597

>  <SCORE.RESTR>
0

>  <SCORE.RESTR.CAVITY>
0

>  <SCORE.RESTR.norm>
0

>  <SCORE.SYSTEM>
-19.8428

>  <SCORE.SYSTEM.CONST>
0

>  <SCORE.SYSTEM.DIHEDRAL>
7.75055

>  <SCORE.SYSTEM.POLAR>
-3.43507

>  <SCORE.SYSTEM.SOLV>
0.561768

>  <SCORE.SYSTEM.VDW>
-4.54906

>  <SCORE.SYSTEM.norm>
-1.80389

>  <SCORE.heavy>
11

>  <SCORE.norm>
-4.76562

$$$$
P107730030
 OpenBabel12072022103D
libRbt.so/2013.1/901 2013/11/27
 17 17  0  0  0  0  0  0  0  0999 V2000
   19.9078  -18.0906    5.4347 C   0  0  0  0  0  0  0  0  0  0  0  0
   20.1251  -16.9773    4.4076 C   0  0  0  0  0  0  0  0  0  0  0  0
   20.3297  -17.6027    3.0211 C   0  0  0  0  0  0  0  0  0  0  0  0
   21.3104  -16.0504    4.7722 C   0  0  2  0  0  0  0  0  0  0  0  0
   21.2653  -14.7077    4.0280 C   0  0  0  0  0  0  0  0  0  0  0  0
   22.5112  -13.8588    4.3400 C   0  0  2  0  0  0  0  0  0  0  0  0
   23.7898  -14.6832    4.1402 C   0  0  0  0  0  0  0  0  0  0  0  0
   23.6907  -16.0344    4.8376 C   0  0  0  0  0  0  0  0  0  0  0  0
   22.5220  -16.7285    4.4080 O   0  0  0  0  0  0  0  0  0  0  0  0
   22.4275  -13.2972    5.7918 C   0  0  0  0  0  0  0  0  0  0  0  0
   21.9216  -13.8810    6.7430 O   0  0  0  0  0  0  0  0  0  0  0  0
   22.9789  -12.0532    5.9467 N   0  0  0  0  0  0  0  0  0  0  0  0
   22.5190  -12.6751    3.4299 N   0  0  0  0  0  0  0  0  0  0  0  0
   23.8655  -12.0161    6.4403 H   0  0  0  0  0  0  0  0  0  0  0  0
   22.3334  -11.2857    6.0715 H   0  0  0  0  0  0  0  0  0  0  0  0
   22.4309  -11.8291    3.9954 H   0  0  0  0  0  0  0  0  0  0  0  0
   21.6713  -12.7050    2.8592 H   0  0  0  0  0  0  0  0  0  0  0  0
  1  2  1  0  0  0  0
  2  3  1  0  0  0  0
  4  5  1  0  0  0  0
  4  9  1  0  0  0  0
  4  2  1  6  0  0  0
  5  6  1  0  0  0  0
  6  7  1  0  0  0  0
  6 10  1  1  0  0  0
  6 13  1  0  0  0  0
  7  8  1  0  0  0  0
  8  9  1  0  0  0  0
 10 11  2  0  0  0  0
 10 12  1  0  0  0  0
 12 14  1  0  0  0  0
 12 15  1  0  0  0  0
 13 16  1  0  0  0  0
 13 17  1  0  0  0  0
M  END
>  <CHROM.0>
-52.12825038,-45.17193857,-63.92337049,-50.86060595,-58.32730876,60.18413712
-171.70872306,-177.30166803,-167.69900985,160.21118840

>  <CHROM.1>
-161.73227359,34.13768542,116.27395402,-106.91560519,21.94755317,-15.10991209
4.72489834,2.32855465,-0.88419464,-2.31710037

>  <Name>
P107730030

>  <RI>
0

>  <Rbt.Current_Directory>
/home/fstefaniak/projects/zuza/docking/adenine/1Y26

>  <Rbt.Executable>
rbdock ($Id: //depot/dev/client3/rdock/2013.1/src/exe/rbdock.cxx#4 $)

>  <Rbt.Library>
libRbt.so (2013.1, Build901 2013/11/27)

>  <Rbt.Parameter_File>
/home/fstefaniak/progs/rDock//data/scripts/dock_solv.prm

>  <Rbt.Receptor>
1y26.prm

>  <SCORE>
-37.5183

>  <SCORE.INTER>
-20.6461

>  <SCORE.INTER.CONST>
1

>  <SCORE.INTER.POLAR>
-2.04387

>  <SCORE.INTER.ROT>
4

>  <SCORE.INTER.SOLV>
10.0173

>  <SCORE.INTER.VDW>
-16.557

>  <SCORE.INTER.norm>
-1.58816

>  <SCORE.INTRA>
3.23093

>  <SCORE.INTRA.DIHEDRAL>
5.36645

>  <SCORE.INTRA.DIHEDRAL.0>
0.892037

>  <SCORE.INTRA.POLAR>
-0.252401

>  <SCORE.INTRA.POLAR.0>
-0.0386943

>  <SCORE.INTRA.REPUL>
0

>  <SCORE.INTRA.REPUL.0>
0

>  <SCORE.INTRA.SOLV>
0.260483

>  <SCORE.INTRA.SOLV.lig_0>
-11.4209

>  <SCORE.INTRA.VDW>
1.27563

>  <SCORE.INTRA.VDW.0>
0.561936

>  <SCORE.INTRA.norm>
0.248533

>  <SCORE.RESTR>
0

>  <SCORE.RESTR.CAVITY>
0

>  <SCORE.RESTR.norm>
0

>  <SCORE.SYSTEM>
-20.1031

>  <SCORE.SYSTEM.CONST>
0

>  <SCORE.SYSTEM.DIHEDRAL>
6.5058

>  <SCORE.SYSTEM.POLAR>
-3.4102

>  <SCORE.SYSTEM.SOLV>
0.246912

>  <SCORE.SYSTEM.VDW>
-4.28565

>  <SCORE.SYSTEM.norm>
-1.54639

>  <SCORE.heavy>
13

>  <SCORE.norm>
-2.88602

$$$$
P107730030
 OpenBabel12072022103D
libRbt.so/2013.1/901 2013/11/27
 17 17  0  0  0  0  0  0  0  0999 V2000
   19.9058  -18.1886    5.4762 C   0  0  0  0  0  0  0  0  0  0  0  0
   20.0308  -17.0314    4.4827 C   0  0  0  0  0  0  0  0  0  0  0  0
   20.1539  -17.5973    3.0615 C   0  0  0  0  0  0  0  0  0  0  0  0
   21.2191  -16.0926    4.8047 C   0  0  2  0  0  0  0  0  0  0  0  0
   21.0942  -14.7213    4.1246 C   0  0  0  0  0  0  0  0  0  0  0  0
   22.3410  -13.8569    4.3866 C   0  0  2  0  0  0  0  0  0  0  0  0
   23.6193  -14.6416    4.0633 C   0  0  0  0  0  0  0  0  0  0  0  0
   23.5973  -16.0228    4.7065 C   0  0  0  0  0  0  0  0  0  0  0  0
   22.4162  -16.7258    4.3287 O   0  0  0  0  0  0  0  0  0  0  0  0
   22.3473  -13.3589    5.8637 C   0  0  0  0  0  0  0  0  0  0  0  0
   21.8996  -13.9839    6.8179 O   0  0  0  0  0  0  0  0  0  0  0  0
   22.9094  -12.1223    6.0384 N   0  0  0  0  0  0  0  0  0  0  0  0
   22.2605  -12.6361    3.5306 N   0  0  0  0  0  0  0  0  0  0  0  0
   23.7941  -12.1003    6.5364 H   0  0  0  0  0  0  0  0  0  0  0  0
   22.2705  -11.3507    6.1710 H   0  0  0  0  0  0  0  0  0  0  0  0
   21.7350  -12.8653    2.6853 H   0  0  0  0  0  0  0  0  0  0  0  0
   23.2034  -12.4102    3.2066 H   0  0  0  0  0  0  0  0  0  0  0  0
  1  2  1  0  0  0  0
  2  3  1  0  0  0  0
  4  5  1  0  0  0  0
  4  9  1  0  0  0  0
  4  2  1  6  0  0  0
  5  6  1  0  0  0  0
  6  7  1  0  0  0  0
  6 10  1  1  0  0  0
  6 13  1  0  0  0  0
  7  8  1  0  0  0  0
  8  9  1  0  0  0  0
 10 11  2  0  0  0  0
 10 12  1  0  0  0  0
 12 14  1  0  0  0  0
 12 15  1  0  0  0  0
 13 16  1  0  0  0  0
 13 17  1  0  0  0  0
M  END
>  <CHROM.0>
-53.17716540,-42.46125125,-57.88471164,-49.56079287,-174.20879598,-60.11915332
-52.43269440,-52.06108727,-167.94353570,161.13137838

>  <CHROM.1>
-161.50580466,32.74833167,-29.16186754,-111.07832831,21.83947807,-15.14068840
4.74822674,2.41410653,-0.94814441,-2.20512686

>  <Name>
P107730030

>  <RI>
0

>  <Rbt.Current_Directory>
/home/fstefaniak/projects/zuza/docking/adenine/1Y26

>  <Rbt.Executable>
rbdock ($Id: //depot/dev/client3/rdock/2013.1/src/exe/rbdock.cxx#4 $)

>  <Rbt.Library>
libRbt.so (2013.1, Build901 2013/11/27)

>  <Rbt.Parameter_File>
/home/fstefaniak/progs/rDock//data/scripts/dock_solv.prm

>  <Rbt.Receptor>
1y26.prm

>  <SCORE>
-37.4972

>  <SCORE.INTER>
-19.879

>  <SCORE.INTER.CONST>
1

>  <SCORE.INTER.POLAR>
-2.08182

>  <SCORE.INTER.ROT>
4

>  <SCORE.INTER.SOLV>
10.3292

>  <SCORE.INTER.VDW>
-16.023

>  <SCORE.INTER.norm>
-1.52916

>  <SCORE.INTRA>
3.39956

>  <SCORE.INTRA.DIHEDRAL>
4.3926

>  <SCORE.INTRA.DIHEDRAL.0>
0.892037

>  <SCORE.INTRA.POLAR>
0.0386943

>  <SCORE.INTRA.POLAR.0>
-0.0386943

>  <SCORE.INTRA.REPUL>
0

>  <SCORE.INTRA.REPUL.0>
0

>  <SCORE.INTRA.SOLV>
0.0465824

>  <SCORE.INTRA.SOLV.lig_0>
-11.4209

>  <SCORE.INTRA.VDW>
1.04841

>  <SCORE.INTRA.VDW.0>
0.561936

>  <SCORE.INTRA.norm>
0.261504

>  <SCORE.RESTR>
0

>  <SCORE.RESTR.CAVITY>
0

>  <SCORE.RESTR.norm>
0

>  <SCORE.SYSTEM>
-21.0178

>  <SCORE.SYSTEM.CONST>
0

>  <SCORE.SYSTEM.DIHEDRAL>
7.03975

>  <SCORE.SYSTEM.POLAR>
-3.46752

>  <SCORE.SYSTEM.SOLV>
0.528064

>  <SCORE.SYSTEM.VDW>
-4.97606

>  <SCORE.SYSTEM.norm>
-1.61675

>  <SCORE.heavy>
13

>  <SCORE.norm>
-2.8844

$$$$
P107730030
 OpenBabel12072022103D
libRbt.so/2013.1/901 2013/11/27
 17 17  0  0  0  0  0  0  0  0999 V2000
   20.1908  -18.0020    5.0035 C   0  0  0  0  0  0  0  0  0  0  0  0
   20.2463  -16.9837    3.8626 C   0  0  0  0  0  0  0  0  0  0  0  0
   20.4955  -17.7208    2.5397 C   0  0  0  0  0  0  0  0  0  0  0  0
   21.3163  -15.8881    4.0905 C   0  0  2  0  0  0  0  0  0  0  0  0
   22.7051  -16.4682    4.3956 C   0  0  0  0  0  0  0  0  0  0  0  0
   23.7148  -15.3508    4.7153 C   0  0  2  0  0  0  0  0  0  0  0  0
   23.1478  -14.3989    5.7768 C   0  0  0  0  0  0  0  0  0  0  0  0
   21.7312  -13.9607    5.4260 C   0  0  0  0  0  0  0  0  0  0  0  0
   20.8993  -15.0988    5.2147 O   0  0  0  0  0  0  0  0  0  0  0  0
   24.0906  -14.5793    3.4140 C   0  0  0  0  0  0  0  0  0  0  0  0
   23.6465  -13.4830    3.0939 O   0  0  0  0  0  0  0  0  0  0  0  0
   24.9888  -15.2321    2.6122 N   0  0  0  0  0  0  0  0  0  0  0  0
   24.9753  -15.9781    5.2124 N   0  0  0  0  0  0  0  0  0  0  0  0
   24.8454  -16.2313    2.5024 H   0  0  0  0  0  0  0  0  0  0  0  0
   25.9385  -14.8871    2.6242 H   0  0  0  0  0  0  0  0  0  0  0  0
   25.3480  -15.4036    5.9702 H   0  0  0  0  0  0  0  0  0  0  0  0
   25.6739  -15.9253    4.4679 H   0  0  0  0  0  0  0  0  0  0  0  0
  1  2  1  0  0  0  0
  2  3  1  0  0  0  0
  4  5  1  0  0  0  0
  4  9  1  0  0  0  0
  4  2  1  1  0  0  0
  5  6  1  0  0  0  0
  6  7  1  0  0  0  0
  6 10  1  6  0  0  0
  6 13  1  0  0  0  0
  7  8  1  0  0  0  0
  8  9  1  0  0  0  0
 10 11  2  0  0  0  0
 10 12  1  0  0  0  0
 12 14  1  0  0  0  0
 12 15  1  0  0  0  0
 13 16  1  0  0  0  0
 13 17  1  0  0  0  0
M  END
>  <CHROM.0>
-50.65998862,-155.78382558,-49.85863484,-53.26197165,-54.17720028,-59.37621874
-62.77395023,178.89120117,-168.06342004,161.53577527

>  <CHROM.1>
52.64721135,102.02118532,-141.19874599,41.68217991,22.49695516,-15.62764390
4.25014365,-2.78199458,0.44675212,0.78548018

>  <Name>
P107730030

>  <RI>
0

>  <Rbt.Current_Directory>
/home/fstefaniak/projects/zuza/docking/adenine/1Y26

>  <Rbt.Executable>
rbdock ($Id: //depot/dev/client3/rdock/2013.1/src/exe/rbdock.cxx#4 $)

>  <Rbt.Library>
libRbt.so (2013.1, Build901 2013/11/27)

>  <Rbt.Parameter_File>
/home/fstefaniak/progs/rDock//data/scripts/dock_solv.prm

>  <Rbt.Receptor>
1y26.prm

>  <SCORE>
-36.2766

>  <SCORE.INTER>
-17.6242

>  <SCORE.INTER.CONST>
1

>  <SCORE.INTER.POLAR>
-3.74081

>  <SCORE.INTER.ROT>
4

>  <SCORE.INTER.SOLV>
13.5916

>  <SCORE.INTER.VDW>
-10.0773

>  <SCORE.INTER.norm>
-1.35571

>  <SCORE.INTRA>
3.04563

>  <SCORE.INTRA.DIHEDRAL>
2.7932

>  <SCORE.INTRA.DIHEDRAL.0>
0.892037

>  <SCORE.INTRA.POLAR>
0.0386943

>  <SCORE.INTRA.POLAR.0>
-0.0386943

>  <SCORE.INTRA.REPUL>
0

>  <SCORE.INTRA.REPUL.0>
0

>  <SCORE.INTRA.SOLV>
0.253348

>  <SCORE.INTRA.SOLV.lig_0>
-11.4209

>  <SCORE.INTRA.VDW>
1.39079

>  <SCORE.INTRA.VDW.0>
0.561936

>  <SCORE.INTRA.norm>
0.234279

>  <SCORE.RESTR>
0.0336234

>  <SCORE.RESTR.CAVITY>
0.0336234

>  <SCORE.RESTR.norm>
0.00258641

>  <SCORE.SYSTEM>
-21.7316

>  <SCORE.SYSTEM.CONST>
0

>  <SCORE.SYSTEM.DIHEDRAL>
7.89976

>  <SCORE.SYSTEM.POLAR>
-3.42942

>  <SCORE.SYSTEM.SOLV>
0.398889

>  <SCORE.SYSTEM.VDW>
-5.82256

>  <SCORE.SYSTEM.norm>
-1.67166

>  <SCORE.heavy>
13

>  <SCORE.norm>
-2.79051

$$$$
P107730079
 OpenBabel12072022103D
libRbt.so/2013.1/901 2013/11/27
 16 16  0  0  0  0  0  0  0  0999 V2000
   24.7834  -14.1685    3.7653 C   0  0  0  0  0  0  0  0  0  0  0  0
   23.2806  -14.3380    4.0339 C   0  0  0  0  0  0  0  0  0  0  0  0
   22.8148  -13.6873    5.3550 C   0  0  0  0  0  0  0  0  0  0  0  0
   22.6559  -12.1471    5.3038 C   0  0  1  0  0  0  0  0  0  0  0  0
   21.8647  -11.8020    4.0270 C   0  0  0  0  0  0  0  0  0  0  0  0
   22.4778  -12.4374    2.7936 C   0  0  0  0  0  0  0  0  0  0  0  0
   22.5111  -13.8561    2.9254 O   0  0  0  0  0  0  0  0  0  0  0  0
   21.8393  -11.6889    6.5543 C   0  0  0  0  0  0  0  0  0  0  0  0
   20.6245  -11.5121    6.5639 O   0  0  0  0  0  0  0  0  0  0  0  0
   22.5655  -11.4217    7.6854 N   0  0  0  0  0  0  0  0  0  0  0  0
   24.0112  -11.5271    5.3742 N   0  0  0  0  0  0  0  0  0  0  0  0
   24.0086  -10.0676    5.3899 C   0  0  0  0  0  0  0  0  0  0  0  0
   22.9933  -15.8483    4.1076 C   0  0  0  0  0  0  0  0  0  0  0  0
   22.0362  -11.1716    8.5111 H   0  0  0  0  0  0  0  0  0  0  0  0
   23.5226  -11.7169    7.8058 H   0  0  0  0  0  0  0  0  0  0  0  0
   24.4718  -11.8486    6.2254 H   0  0  0  0  0  0  0  0  0  0  0  0
  1  2  1  0  0  0  0
  2  3  1  0  0  0  0
  2  7  1  0  0  0  0
  2 13  1  0  0  0  0
  3  4  1  0  0  0  0
  4  5  1  0  0  0  0
  4 11  1  0  0  0  0
  4  8  1  1  0  0  0
  5  6  1  0  0  0  0
  6  7  1  0  0  0  0
  8  9  2  0  0  0  0
  8 10  1  0  0  0  0
 10 14  1  0  0  0  0
 10 15  1  0  0  0  0
 11 12  1  0  0  0  0
 11 16  1  0  0  0  0
M  END
>  <CHROM.0>
-44.58991109,47.91977958,-57.74065575,-179.05938549,-58.44389420,-58.21538161
-57.54720238,-54.61235793,-166.86018533,161.00126344

>  <CHROM.1>
-177.64442092,-94.70393651,22.81000699,-12.64663195,4.93162198,-1.29197607
0.72586473,0.54642711

>  <Name>
P107730079

>  <RI>
0

>  <Rbt.Current_Directory>
/home/fstefaniak/projects/zuza/docking/adenine/1Y26

>  <Rbt.Executable>
rbdock ($Id: //depot/dev/client3/rdock/2013.1/src/exe/rbdock.cxx#4 $)

>  <Rbt.Library>
libRbt.so (2013.1, Build901 2013/11/27)

>  <Rbt.Parameter_File>
/home/fstefaniak/progs/rDock//data/scripts/dock_solv.prm

>  <Rbt.Receptor>
1y26.prm

>  <SCORE>
-28.0079

>  <SCORE.INTER>
-12.692

>  <SCORE.INTER.CONST>
1

>  <SCORE.INTER.POLAR>
-2.43932

>  <SCORE.INTER.ROT>
2

>  <SCORE.INTER.SOLV>
6.73385

>  <SCORE.INTER.VDW>
-7.50823

>  <SCORE.INTER.norm>
-0.97631

>  <SCORE.INTRA>
1.14206

>  <SCORE.INTRA.DIHEDRAL>
1.02716

>  <SCORE.INTRA.DIHEDRAL.0>
0.368379

>  <SCORE.INTRA.POLAR>
0

>  <SCORE.INTRA.POLAR.0>
0

>  <SCORE.INTRA.REPUL>
0

>  <SCORE.INTRA.REPUL.0>
0

>  <SCORE.INTRA.SOLV>
0.145461

>  <SCORE.INTRA.SOLV.lig_0>
-11.149

>  <SCORE.INTRA.VDW>
0.555748

>  <SCORE.INTRA.VDW.0>
1.06419

>  <SCORE.INTRA.norm>
0.0878507

>  <SCORE.RESTR>
2.78862

>  <SCORE.RESTR.CAVITY>
2.78862

>  <SCORE.RESTR.norm>
0.214509

>  <SCORE.SYSTEM>
-19.2466

>  <SCORE.SYSTEM.CONST>
0

>  <SCORE.SYSTEM.DIHEDRAL>
6.35589

>  <SCORE.SYSTEM.POLAR>
-3.03356

>  <SCORE.SYSTEM.SOLV>
0.561015

>  <SCORE.SYSTEM.VDW>
-5.02481

>  <SCORE.SYSTEM.norm>
-1.48051

>  <SCORE.heavy>
13

>  <SCORE.norm>
-2.15446

$$$$
P107730079
 OpenBabel12072022103D
libRbt.so/2013.1/901 2013/11/27
 16 16  0  0  0  0  0  0  0  0999 V2000
   24.4722  -14.7698    4.0965 C   0  0  0  0  0  0  0  0  0  0  0  0
   22.9477  -14.6242    4.2158 C   0  0  0  0  0  0  0  0  0  0  0  0
   22.5061  -13.7208    5.3882 C   0  0  0  0  0  0  0  0  0  0  0  0
   22.6551  -12.2001    5.1328 C   0  0  1  0  0  0  0  0  0  0  0  0
   22.0585  -11.8997    3.7439 C   0  0  0  0  0  0  0  0  0  0  0  0
   22.6395  -12.8026    2.6724 C   0  0  0  0  0  0  0  0  0  0  0  0
   22.3846  -14.1709    2.9787 O   0  0  0  0  0  0  0  0  0  0  0  0
   21.8393  -11.4303    6.2203 C   0  0  0  0  0  0  0  0  0  0  0  0
   20.7561  -10.8879    6.0215 O   0  0  0  0  0  0  0  0  0  0  0  0
   22.4266  -11.3247    7.4540 N   0  0  0  0  0  0  0  0  0  0  0  0
   24.0941  -11.8328    5.2769 N   0  0  0  0  0  0  0  0  0  0  0  0
   24.3916  -10.4314    4.9980 C   0  0  0  0  0  0  0  0  0  0  0  0
   22.3667  -16.0316    4.4403 C   0  0  0  0  0  0  0  0  0  0  0  0
   21.8807  -10.8692    8.1746 H   0  0  0  0  0  0  0  0  0  0  0  0
   23.2110  -11.8914    7.7391 H   0  0  0  0  0  0  0  0  0  0  0  0
   24.3857  -12.0304    6.2339 H   0  0  0  0  0  0  0  0  0  0  0  0
  1  2  1  0  0  0  0
  2  3  1  0  0  0  0
  2  7  1  0  0  0  0
  2 13  1  0  0  0  0
  3  4  1  0  0  0  0
  4  5  1  0  0  0  0
  4 11  1  0  0  0  0
  4  8  1  1  0  0  0
  5  6  1  0  0  0  0
  6  7  1  0  0  0  0
  8  9  2  0  0  0  0
  8 10  1  0  0  0  0
 10 14  1  0  0  0  0
 10 15  1  0  0  0  0
 11 12  1  0  0  0  0
 11 16  1  0  0  0  0
M  END
>  <CHROM.0>
-48.97278956,-60.34706155,-33.75423263,-51.08865788,-58.04714964,-58.09122972
22.94581016,-172.51214024,-166.50137710,160.64691550

>  <CHROM.1>
177.18394368,-104.46654439,22.74045938,-12.77131791,4.83593816,-1.39776795
0.73532294,0.45071271

>  <Name>
P107730079

>  <RI>
0

>  <Rbt.Current_Directory>
/home/fstefaniak/projects/zuza/docking/adenine/1Y26

>  <Rbt.Executable>
rbdock ($Id: //depot/dev/client3/rdock/2013.1/src/exe/rbdock.cxx#4 $)

>  <Rbt.Library>
libRbt.so (2013.1, Build901 2013/11/27)

>  <Rbt.Parameter_File>
/home/fstefaniak/progs/rDock//data/scripts/dock_solv.prm

>  <Rbt.Receptor>
1y26.prm

>  <SCORE>
-26.1699

>  <SCORE.INTER>
-12.1145

>  <SCORE.INTER.CONST>
1

>  <SCORE.INTER.POLAR>
-1.63161

>  <SCORE.INTER.ROT>
2

>  <SCORE.INTER.SOLV>
6.69892

>  <SCORE.INTER.VDW>
-9.80394

>  <SCORE.INTER.norm>
-0.931884

>  <SCORE.INTRA>
0.384221

>  <SCORE.INTRA.DIHEDRAL>
0.33573

>  <SCORE.INTRA.DIHEDRAL.0>
0.368379

>  <SCORE.INTRA.POLAR>
0

>  <SCORE.INTRA.POLAR.0>
0

>  <SCORE.INTRA.REPUL>
0

>  <SCORE.INTRA.REPUL.0>
0

>  <SCORE.INTRA.SOLV>
0.0907794

>  <SCORE.INTRA.SOLV.lig_0>
-11.149

>  <SCORE.INTRA.VDW>
0.170967

>  <SCORE.INTRA.VDW.0>
1.06419

>  <SCORE.INTRA.norm>
0.0295555

>  <SCORE.RESTR>
2.37549

>  <SCORE.RESTR.CAVITY>
2.37549

>  <SCORE.RESTR.norm>
0.18273

>  <SCORE.SYSTEM>
-16.8152

>  <SCORE.SYSTEM.CONST>
0

>  <SCORE.SYSTEM.DIHEDRAL>
13.2239

>  <SCORE.SYSTEM.POLAR>
-3.60544

>  <SCORE.SYSTEM.SOLV>
0.42319

>  <SCORE.SYSTEM.VDW>
-3.74099

>  <SCORE.SYSTEM.norm>
-1.29347

>  <SCORE.heavy>
13

>  <SCORE.norm>
-2.01307

$$$$
P107730079
 OpenBabel12072022103D
libRbt.so/2013.1/901 2013/11/27
 16 16  0  0  0  0  0  0  0  0999 V2000
   21.7398  -11.9275    3.8769 C   0  0  0  0  0  0  0  0  0  0  0  0
   23.0178  -12.2511    4.6653 C   0  0  0  0  0  0  0  0  0  0  0  0
   23.0734  -13.7081    5.1751 C   0  0  0  0  0  0  0  0  0  0  0  0
   23.4408  -14.7622    4.1010 C   0  0  1  0  0  0  0  0  0  0  0  0
   24.6665  -14.2347    3.3298 C   0  0  0  0  0  0  0  0  0  0  0  0
   24.4455  -12.8254    2.8141 C   0  0  0  0  0  0  0  0  0  0  0  0
   24.1823  -11.9329    3.8936 O   0  0  0  0  0  0  0  0  0  0  0  0
   23.8212  -16.0953    4.8213 C   0  0  0  0  0  0  0  0  0  0  0  0
   23.0301  -17.0003    5.0706 O   0  0  0  0  0  0  0  0  0  0  0  0
   25.1217  -16.2065    5.2390 N   0  0  0  0  0  0  0  0  0  0  0  0
   22.2403  -15.0130    3.2512 N   0  0  0  0  0  0  0  0  0  0  0  0
   21.0526  -15.4303    3.9899 C   0  0  0  0  0  0  0  0  0  0  0  0
   23.0603  -11.3082    5.8809 C   0  0  0  0  0  0  0  0  0  0  0  0
   25.3844  -17.0875    5.6625 H   0  0  0  0  0  0  0  0  0  0  0  0
   25.8573  -15.5985    4.9120 H   0  0  0  0  0  0  0  0  0  0  0  0
   22.0118  -14.1546    2.7501 H   0  0  0  0  0  0  0  0  0  0  0  0
  1  2  1  0  0  0  0
  2  3  1  0  0  0  0
  2  7  1  0  0  0  0
  2 13  1  0  0  0  0
  3  4  1  0  0  0  0
  4  5  1  0  0  0  0
  4 11  1  0  0  0  0
  4  8  1  1  0  0  0
  5  6  1  0  0  0  0
  6  7  1  0  0  0  0
  8  9  2  0  0  0  0
  8 10  1  0  0  0  0
 10 14  1  0  0  0  0
 10 15  1  0  0  0  0
 11 12  1  0  0  0  0
 11 16  1  0  0  0  0
M  END
>  <CHROM.0>
-47.22682410,-59.74535867,-54.52116042,-52.36417507,-57.19191455,-61.45754105
-60.56251732,-51.91455825,-166.54190189,-61.16139876

>  <CHROM.1>
-56.08741123,92.02641970,23.29796122,-14.05806572,4.31903007,1.64147702,-0.05856151
-0.06523084

>  <Name>
P107730079

>  <RI>
0

>  <Rbt.Current_Directory>
/home/fstefaniak/projects/zuza/docking/adenine/1Y26

>  <Rbt.Executable>
rbdock ($Id: //depot/dev/client3/rdock/2013.1/src/exe/rbdock.cxx#4 $)

>  <Rbt.Library>
libRbt.so (2013.1, Build901 2013/11/27)

>  <Rbt.Parameter_File>
/home/fstefaniak/progs/rDock//data/scripts/dock_solv.prm

>  <Rbt.Receptor>
1y26.prm

>  <SCORE>
-21.4869

>  <SCORE.INTER>
-9.33044

>  <SCORE.INTER.CONST>
1

>  <SCORE.INTER.POLAR>
-1.07166

>  <SCORE.INTER.ROT>
2

>  <SCORE.INTER.SOLV>
10.0197

>  <SCORE.INTER.VDW>
-10.9213

>  <SCORE.INTER.norm>
-0.717726

>  <SCORE.INTRA>
4.74021

>  <SCORE.INTRA.DIHEDRAL>
1.4755

>  <SCORE.INTRA.DIHEDRAL.0>
0.368379

>  <SCORE.INTRA.POLAR>
0

>  <SCORE.INTRA.POLAR.0>
0

>  <SCORE.INTRA.REPUL>
0

>  <SCORE.INTRA.REPUL.0>
0

>  <SCORE.INTRA.SOLV>
-0.253553

>  <SCORE.INTRA.SOLV.lig_0>
-11.149

>  <SCORE.INTRA.VDW>
4.12924

>  <SCORE.INTRA.VDW.0>
1.06419

>  <SCORE.INTRA.norm>
0.364631

>  <SCORE.RESTR>
2.5287

>  <SCORE.RESTR.CAVITY>
2.5287

>  <SCORE.RESTR.norm>
0.194515

>  <SCORE.SYSTEM>
-19.4254

>  <SCORE.SYSTEM.CONST>
0

>  <SCORE.SYSTEM.DIHEDRAL>
4.43662

>  <SCORE.SYSTEM.POLAR>
-2.68128

>  <SCORE.SYSTEM.SOLV>
0.733079

>  <SCORE.SYSTEM.VDW>
-5.73589

>  <SCORE.SYSTEM.norm>
-1.49426

>  <SCORE.heavy>
13

>  <SCORE.norm>
-1.65284

$$$$
P107841297
 OpenBabel12072022103D
libRbt.so/2013.1/901 2013/11/27
 10 10  0  0  0  0  0  0  0  0999 V2000
   21.1864  -15.3209    4.3548 C   0  0  0  0  0  0  0  0  0  0  0  0
   21.3403  -16.7971    4.0339 C   0  0  0  0  0  0  0  0  0  0  0  0
   20.1859  -17.5670    4.4553 N   0  0  0  0  0  0  0  0  0  0  0  0
   20.0139  -18.0437    5.8044 C   0  0  0  0  0  0  0  0  0  0  0  0
   18.8579  -19.0343    5.7003 C   0  0  1  0  0  0  0  0  0  0  0  0
   18.0630  -18.5682    4.4855 C   0  0  0  0  0  0  0  0  0  0  0  0
   19.0903  -17.8408    3.6528 C   0  0  0  0  0  0  0  0  0  0  0  0
   18.9362  -17.4924    2.4930 O   0  0  0  0  0  0  0  0  0  0  0  0
   19.3303  -20.3630    5.4679 O   0  0  0  0  0  0  0  0  0  0  0  0
   18.5619  -20.9586    5.4479 H   0  0  0  0  0  0  0  0  0  0  0  0
  1  2  1  0  0  0  0
  2  3  1  0  0  0  0
  3  4  1  0  0  0  0
  3  7  1  0  0  0  0
  4  5  1  0  0  0  0
  5  6  1  0  0  0  0
  5  9  1  6  0  0  0
  6  7  1  0  0  0  0
  7  8  2  0  0  0  0
  9 10  1  0  0  0  0
M  END
>  <CHROM.0>
-47.62371964,-61.24204131,-54.49177769,-53.89496293,-56.64189510,-57.20241859
-59.38427917,-50.40088074,-165.72256103,160.28205178

>  <CHROM.1>
-83.26927424,177.59661484,19.66929798,-17.91937755,4.48859807,-0.89638235
0.71956183,2.28445547

>  <Name>
P107841297

>  <RI>
0

>  <Rbt.Current_Directory>
/home/fstefaniak/projects/zuza/docking/adenine/1Y26

>  <Rbt.Executable>
rbdock ($Id: //depot/dev/client3/rdock/2013.1/src/exe/rbdock.cxx#4 $)

>  <Rbt.Library>
libRbt.so (2013.1, Build901 2013/11/27)

>  <Rbt.Parameter_File>
/home/fstefaniak/progs/rDock//data/scripts/dock_solv.prm

>  <Rbt.Receptor>
1y26.prm

>  <SCORE>
-45.1272

>  <SCORE.INTER>
-23.3145

>  <SCORE.INTER.CONST>
1

>  <SCORE.INTER.POLAR>
-2.09545

>  <SCORE.INTER.ROT>
1

>  <SCORE.INTER.SOLV>
10.6305

>  <SCORE.INTER.VDW>
-16.3684

>  <SCORE.INTER.norm>
-2.5905

>  <SCORE.INTRA>
0.416103

>  <SCORE.INTRA.DIHEDRAL>
0.624811

>  <SCORE.INTRA.DIHEDRAL.0>
2.19695

>  <SCORE.INTRA.POLAR>
0

>  <SCORE.INTRA.POLAR.0>
0

>  <SCORE.INTRA.REPUL>
0

>  <SCORE.INTRA.REPUL.0>
0

>  <SCORE.INTRA.SOLV>
-0.0284011

>  <SCORE.INTRA.SOLV.lig_0>
-11.1596

>  <SCORE.INTRA.VDW>
0.117898

>  <SCORE.INTRA.VDW.0>
-0.156765

>  <SCORE.INTRA.norm>
0.0462337

>  <SCORE.RESTR>
0

>  <SCORE.RESTR.CAVITY>
0

>  <SCORE.RESTR.norm>
0

>  <SCORE.SYSTEM>
-22.2288

>  <SCORE.SYSTEM.CONST>
0

>  <SCORE.SYSTEM.DIHEDRAL>
6.14451

>  <SCORE.SYSTEM.POLAR>
-3.525

>  <SCORE.SYSTEM.SOLV>
0.669301

>  <SCORE.SYSTEM.VDW>
-5.34048

>  <SCORE.SYSTEM.norm>
-2.46987

>  <SCORE.heavy>
9

>  <SCORE.norm>
-5.01414

$$$$
P107841297
 OpenBabel12072022103D
libRbt.so/2013.1/901 2013/11/27
 10 10  0  0  0  0  0  0  0  0999 V2000
   21.3130  -15.3827    4.4622 C   0  0  0  0  0  0  0  0  0  0  0  0
   21.2904  -16.7893    3.8907 C   0  0  0  0  0  0  0  0  0  0  0  0
   20.1474  -17.5477    4.3614 N   0  0  0  0  0  0  0  0  0  0  0  0
   20.0226  -18.0114    5.7202 C   0  0  0  0  0  0  0  0  0  0  0  0
   18.8571  -18.9951    5.6678 C   0  0  1  0  0  0  0  0  0  0  0  0
   18.0208  -18.5343    4.4792 C   0  0  0  0  0  0  0  0  0  0  0  0
   19.0212  -17.8211    3.6025 C   0  0  0  0  0  0  0  0  0  0  0  0
   18.8264  -17.4818    2.4461 O   0  0  0  0  0  0  0  0  0  0  0  0
   19.3121  -20.3289    5.4300 O   0  0  0  0  0  0  0  0  0  0  0  0
   18.5368  -20.9158    5.4180 H   0  0  0  0  0  0  0  0  0  0  0  0
  1  2  1  0  0  0  0
  2  3  1  0  0  0  0
  3  4  1  0  0  0  0
  3  7  1  0  0  0  0
  4  5  1  0  0  0  0
  5  6  1  0  0  0  0
  5  9  1  6  0  0  0
  6  7  1  0  0  0  0
  7  8  2  0  0  0  0
  9 10  1  0  0  0  0
M  END
>  <CHROM.0>
-47.77586599,-61.30421910,-55.12177777,-51.87054470,-56.73013546,-59.80120858
-60.41003500,-51.49299651,-166.36624763,160.41631694

>  <CHROM.1>
-70.62608830,179.22218693,19.64823330,-17.90478015,4.44684936,-0.85901011
0.70035986,2.28044439

>  <Name>
P107841297

>  <RI>
0

>  <Rbt.Current_Directory>
/home/fstefaniak/projects/zuza/docking/adenine/1Y26

>  <Rbt.Executable>
rbdock ($Id: //depot/dev/client3/rdock/2013.1/src/exe/rbdock.cxx#4 $)

>  <Rbt.Library>
libRbt.so (2013.1, Build901 2013/11/27)

>  <Rbt.Parameter_File>
/home/fstefaniak/progs/rDock//data/scripts/dock_solv.prm

>  <Rbt.Receptor>
1y26.prm

>  <SCORE>
-45.0277

>  <SCORE.INTER>
-23.3043

>  <SCORE.INTER.CONST>
1

>  <SCORE.INTER.POLAR>
-2.09545

>  <SCORE.INTER.ROT>
1

>  <SCORE.INTER.SOLV>
10.5867

>  <SCORE.INTER.VDW>
-16.3469

>  <SCORE.INTER.norm>
-2.58936

>  <SCORE.INTRA>
0.602338

>  <SCORE.INTRA.DIHEDRAL>
0.492575

>  <SCORE.INTRA.DIHEDRAL.0>
2.19695

>  <SCORE.INTRA.POLAR>
0

>  <SCORE.INTRA.POLAR.0>
0

>  <SCORE.INTRA.REPUL>
0

>  <SCORE.INTRA.REPUL.0>
0

>  <SCORE.INTRA.SOLV>
-0.056641

>  <SCORE.INTRA.SOLV.lig_0>
-11.1596

>  <SCORE.INTRA.VDW>
0.384371

>  <SCORE.INTRA.VDW.0>
-0.156765

>  <SCORE.INTRA.norm>
0.0669265

>  <SCORE.RESTR>
0

>  <SCORE.RESTR.CAVITY>
0

>  <SCORE.RESTR.norm>
0

>  <SCORE.SYSTEM>
-22.3258

>  <SCORE.SYSTEM.CONST>
0

>  <SCORE.SYSTEM.DIHEDRAL>
6.00398

>  <SCORE.SYSTEM.POLAR>
-3.5403

>  <SCORE.SYSTEM.SOLV>
0.664648

>  <SCORE.SYSTEM.VDW>
-5.30576

>  <SCORE.SYSTEM.norm>
-2.48065

>  <SCORE.heavy>
9

>  <SCORE.norm>
-5.00308

$$$$
P107841297
 OpenBabel12072022103D
libRbt.so/2013.1/901 2013/11/27
 10 10  0  0  0  0  0  0  0  0999 V2000
   21.1601  -15.3615    4.3467 C   0  0  0  0  0  0  0  0  0  0  0  0
   21.3289  -16.8453    4.0721 C   0  0  0  0  0  0  0  0  0  0  0  0
   20.1643  -17.6080    4.4782 N   0  0  0  0  0  0  0  0  0  0  0  0
   19.9942  -18.1245    5.8128 C   0  0  0  0  0  0  0  0  0  0  0  0
   18.8201  -19.0910    5.6866 C   0  0  1  0  0  0  0  0  0  0  0  0
   18.0243  -18.5725    4.4939 C   0  0  0  0  0  0  0  0  0  0  0  0
   19.0580  -17.8369    3.6764 C   0  0  0  0  0  0  0  0  0  0  0  0
   18.9012  -17.4489    2.5296 O   0  0  0  0  0  0  0  0  0  0  0  0
   19.2672  -20.4196    5.4082 O   0  0  0  0  0  0  0  0  0  0  0  0
   18.4876  -20.9997    5.3695 H   0  0  0  0  0  0  0  0  0  0  0  0
  1  2  1  0  0  0  0
  2  3  1  0  0  0  0
  3  4  1  0  0  0  0
  3  7  1  0  0  0  0
  4  5  1  0  0  0  0
  5  6  1  0  0  0  0
  5  9  1  6  0  0  0
  6  7  1  0  0  0  0
  7  8  2  0  0  0  0
  9 10  1  0  0  0  0
M  END
>  <CHROM.0>
-46.81250189,-62.05050338,-59.74024731,-51.98319470,-56.91461885,-176.80079291
-59.13080145,-50.85493188,-165.78453556,160.09750878

>  <CHROM.1>
-87.54965655,177.98190670,19.63676019,-17.95031962,4.49345601,-0.91077981
0.69499315,2.31593998

>  <Name>
P107841297

>  <RI>
0

>  <Rbt.Current_Directory>
/home/fstefaniak/projects/zuza/docking/adenine/1Y26

>  <Rbt.Executable>
rbdock ($Id: //depot/dev/client3/rdock/2013.1/src/exe/rbdock.cxx#4 $)

>  <Rbt.Library>
libRbt.so (2013.1, Build901 2013/11/27)

>  <Rbt.Parameter_File>
/home/fstefaniak/progs/rDock//data/scripts/dock_solv.prm

>  <Rbt.Receptor>
1y26.prm

>  <SCORE>
-44.9655

>  <SCORE.INTER>
-23.3243

>  <SCORE.INTER.CONST>
1

>  <SCORE.INTER.POLAR>
-2.09545

>  <SCORE.INTER.ROT>
1

>  <SCORE.INTER.SOLV>
10.7259

>  <SCORE.INTER.VDW>
-16.4067

>  <SCORE.INTER.norm>
-2.59159

>  <SCORE.INTRA>
0.381116

>  <SCORE.INTRA.DIHEDRAL>
0.624269

>  <SCORE.INTRA.DIHEDRAL.0>
2.19695

>  <SCORE.INTRA.POLAR>
0

>  <SCORE.INTRA.POLAR.0>
0

>  <SCORE.INTRA.REPUL>
0

>  <SCORE.INTRA.REPUL.0>
0

>  <SCORE.INTRA.SOLV>
-0.0183148

>  <SCORE.INTRA.SOLV.lig_0>
-11.1596

>  <SCORE.INTRA.VDW>
0.0781385

>  <SCORE.INTRA.VDW.0>
-0.156765

>  <SCORE.INTRA.norm>
0.0423462

>  <SCORE.RESTR>
0

>  <SCORE.RESTR.CAVITY>
0

>  <SCORE.RESTR.norm>
0

>  <SCORE.SYSTEM>
-22.0224

>  <SCORE.SYSTEM.CONST>
0

>  <SCORE.SYSTEM.DIHEDRAL>
6.21708

>  <SCORE.SYSTEM.POLAR>
-3.5368

>  <SCORE.SYSTEM.SOLV>
0.518987

>  <SCORE.SYSTEM.VDW>
-5.13758

>  <SCORE.SYSTEM.norm>
-2.44693

>  <SCORE.heavy>
9

>  <SCORE.norm>
-4.99617

$$$$
P107917471
 OpenBabel12072022103D
libRbt.so/2013.1/901 2013/11/27
 13 13  0  0  0  0  0  0  0  0999 V2000
   19.9746  -18.5265    5.6652 C   0  0  0  0  0  0  0  0  0  0  0  0
   20.1380  -17.1709    4.9847 C   0  0  0  0  0  0  0  0  0  0  0  0
   19.7133  -17.1942    3.5106 C   0  0  2  0  0  0  0  0  0  0  0  0
   18.3868  -17.9520    3.3336 C   0  0  0  0  0  0  0  0  0  0  0  0
   18.3672  -19.2187    3.9957 O   0  0  0  0  0  0  0  0  0  0  0  0
   18.5917  -19.0997    5.3984 C   0  0  0  0  0  0  0  0  0  0  0  0
   20.8053  -17.7989    2.5972 C   0  0  0  0  0  0  0  0  0  0  0  0
   21.9432  -18.0817    2.9556 O   0  0  0  0  0  0  0  0  0  0  0  0
   20.4298  -17.9708    1.2909 N   0  0  0  0  0  0  0  0  0  0  0  0
   19.5214  -15.8324    3.0702 O   0  0  0  0  0  0  0  0  0  0  0  0
   20.8061  -17.3552    0.5791 H   0  0  0  0  0  0  0  0  0  0  0  0
   20.1044  -18.8884    1.0175 H   0  0  0  0  0  0  0  0  0  0  0  0
   18.9763  -15.3951    3.7503 H   0  0  0  0  0  0  0  0  0  0  0  0
  1  2  1  0  0  0  0
  1  6  1  0  0  0  0
  2  3  1  0  0  0  0
  3  4  1  0  0  0  0
  3  7  1  6  0  0  0
  3 10  1  0  0  0  0
  4  5  1  0  0  0  0
  5  6  1  0  0  0  0
  7  8  2  0  0  0  0
  7  9  1  0  0  0  0
  9 11  1  0  0  0  0
  9 12  1  0  0  0  0
 10 13  1  0  0  0  0
M  END
>  <CHROM.0>
-48.90900845,59.48638141,-57.21285433,-51.76729037,-56.78448642,-59.20879437
-63.59752056,-50.80457681,-165.71244106,161.69078562

>  <CHROM.1>
-8.43900314,-47.72415686,107.18221626,19.78396474,-17.87428918,3.64454717
-2.11084675,-0.16681241,-1.25473372

>  <Name>
P107917471

>  <RI>
0

>  <Rbt.Current_Directory>
/home/fstefaniak/projects/zuza/docking/adenine/1Y26

>  <Rbt.Executable>
rbdock ($Id: //depot/dev/client3/rdock/2013.1/src/exe/rbdock.cxx#4 $)

>  <Rbt.Library>
libRbt.so (2013.1, Build901 2013/11/27)

>  <Rbt.Parameter_File>
/home/fstefaniak/progs/rDock//data/scripts/dock_solv.prm

>  <Rbt.Receptor>
1y26.prm

>  <SCORE>
-57.7308

>  <SCORE.INTER>
-36.649

>  <SCORE.INTER.CONST>
1

>  <SCORE.INTER.POLAR>
-5.41895

>  <SCORE.INTER.ROT>
2

>  <SCORE.INTER.SOLV>
13.1151

>  <SCORE.INTER.VDW>
-15.6745

>  <SCORE.INTER.norm>
-3.6649

>  <SCORE.INTRA>
0.516675

>  <SCORE.INTRA.DIHEDRAL>
0.562035

>  <SCORE.INTRA.DIHEDRAL.0>
1.10441

>  <SCORE.INTRA.POLAR>
0

>  <SCORE.INTRA.POLAR.0>
0

>  <SCORE.INTRA.REPUL>
0

>  <SCORE.INTRA.REPUL.0>
0

>  <SCORE.INTRA.SOLV>
-0.219817

>  <SCORE.INTRA.SOLV.lig_0>
-13.339

>  <SCORE.INTRA.VDW>
0.345566

>  <SCORE.INTRA.VDW.0>
-0.242916

>  <SCORE.INTRA.norm>
0.0516675

>  <SCORE.RESTR>
0

>  <SCORE.RESTR.CAVITY>
0

>  <SCORE.RESTR.norm>
0

>  <SCORE.SYSTEM>
-21.5985

>  <SCORE.SYSTEM.CONST>
0

>  <SCORE.SYSTEM.DIHEDRAL>
5.82006

>  <SCORE.SYSTEM.POLAR>
-3.47434

>  <SCORE.SYSTEM.SOLV>
0.695423

>  <SCORE.SYSTEM.VDW>
-4.98967

>  <SCORE.SYSTEM.norm>
-2.15985

>  <SCORE.heavy>
10

>  <SCORE.norm>
-5.77308

$$$$
P107917471
 OpenBabel12072022103D
libRbt.so/2013.1/901 2013/11/27
 13 13  0  0  0  0  0  0  0  0999 V2000
   19.9537  -18.5515    5.6382 C   0  0  0  0  0  0  0  0  0  0  0  0
   20.1514  -17.2082    4.9424 C   0  0  0  0  0  0  0  0  0  0  0  0
   19.7331  -17.2394    3.4666 C   0  0  2  0  0  0  0  0  0  0  0  0
   18.3904  -17.9686    3.2921 C   0  0  0  0  0  0  0  0  0  0  0  0
   18.3385  -19.2265    3.9691 O   0  0  0  0  0  0  0  0  0  0  0  0
   18.5592  -19.0959    5.3715 C   0  0  0  0  0  0  0  0  0  0  0  0
   20.8151  -17.8800    2.5659 C   0  0  0  0  0  0  0  0  0  0  0  0
   21.9443  -18.1852    2.9333 O   0  0  0  0  0  0  0  0  0  0  0  0
   20.4421  -18.0581    1.2596 N   0  0  0  0  0  0  0  0  0  0  0  0
   19.5747  -15.8790    3.0092 O   0  0  0  0  0  0  0  0  0  0  0  0
   20.7749  -17.4115    0.5538 H   0  0  0  0  0  0  0  0  0  0  0  0
   20.1720  -18.9905    0.9762 H   0  0  0  0  0  0  0  0  0  0  0  0
   19.0000  -15.4331    3.6585 H   0  0  0  0  0  0  0  0  0  0  0  0
  1  2  1  0  0  0  0
  1  6  1  0  0  0  0
  2  3  1  0  0  0  0
  3  4  1  0  0  0  0
  3  7  1  6  0  0  0
  3 10  1  0  0  0  0
  4  5  1  0  0  0  0
  5  6  1  0  0  0  0
  7  8  2  0  0  0  0
  7  9  1  0  0  0  0
  9 11  1  0  0  0  0
  9 12  1  0  0  0  0
 10 13  1  0  0  0  0
M  END
>  <CHROM.0>
-175.59869088,-61.69330038,-52.12923983,-51.55023891,-55.30841362,-175.11787549
-58.74713933,-51.28882075,-165.57899512,161.41834764

>  <CHROM.1>
-8.40045600,-50.47625529,102.06334965,19.78732573,-17.91917375,3.60879066
-2.12029471,-0.12625775,-1.25589969

>  <Name>
P107917471

>  <RI>
0

>  <Rbt.Current_Directory>
/home/fstefaniak/projects/zuza/docking/adenine/1Y26

>  <Rbt.Executable>
rbdock ($Id: //depot/dev/client3/rdock/2013.1/src/exe/rbdock.cxx#4 $)

>  <Rbt.Library>
libRbt.so (2013.1, Build901 2013/11/27)

>  <Rbt.Parameter_File>
/home/fstefaniak/progs/rDock//data/scripts/dock_solv.prm

>  <Rbt.Receptor>
1y26.prm

>  <SCORE>
-57.024

>  <SCORE.INTER>
-36.5219

>  <SCORE.INTER.CONST>
1

>  <SCORE.INTER.POLAR>
-5.32648

>  <SCORE.INTER.ROT>
2

>  <SCORE.INTER.SOLV>
13.1085

>  <SCORE.INTER.VDW>
-15.8958

>  <SCORE.INTER.norm>
-3.65219

>  <SCORE.INTRA>
0.340132

>  <SCORE.INTRA.DIHEDRAL>
0.287602

>  <SCORE.INTRA.DIHEDRAL.0>
1.10441

>  <SCORE.INTRA.POLAR>
0

>  <SCORE.INTRA.POLAR.0>
0

>  <SCORE.INTRA.REPUL>
0

>  <SCORE.INTRA.REPUL.0>
0

>  <SCORE.INTRA.SOLV>
-0.220404

>  <SCORE.INTRA.SOLV.lig_0>
-13.339

>  <SCORE.INTRA.VDW>
0.306533

>  <SCORE.INTRA.VDW.0>
-0.242916

>  <SCORE.INTRA.norm>
0.0340132

>  <SCORE.RESTR>
0

>  <SCORE.RESTR.CAVITY>
0

>  <SCORE.RESTR.norm>
0

>  <SCORE.SYSTEM>
-20.8423

>  <SCORE.SYSTEM.CONST>
0

>  <SCORE.SYSTEM.DIHEDRAL>
5.72613

>  <SCORE.SYSTEM.POLAR>
-3.28359

>  <SCORE.SYSTEM.SOLV>
0.481245

>  <SCORE.SYSTEM.VDW>
-5.01865

>  <SCORE.SYSTEM.norm>
-2.08423

>  <SCORE.heavy>
10

>  <SCORE.norm>
-5.7024

$$$$
P107917471
 OpenBabel12072022103D
libRbt.so/2013.1/901 2013/11/27
 13 13  0  0  0  0  0  0  0  0999 V2000
   19.9508  -18.5232    5.6693 C   0  0  0  0  0  0  0  0  0  0  0  0
   20.1288  -17.1830    4.9624 C   0  0  0  0  0  0  0  0  0  0  0  0
   19.6975  -17.2287    3.4908 C   0  0  2  0  0  0  0  0  0  0  0  0
   18.3605  -17.9723    3.3337 C   0  0  0  0  0  0  0  0  0  0  0  0
   18.3272  -19.2258    4.0199 O   0  0  0  0  0  0  0  0  0  0  0  0
   18.5594  -19.0831    5.4192 C   0  0  0  0  0  0  0  0  0  0  0  0
   20.7775  -17.8650    2.5846 C   0  0  0  0  0  0  0  0  0  0  0  0
   21.9045  -18.1802    2.9505 O   0  0  0  0  0  0  0  0  0  0  0  0
   20.4057  -18.0265    1.2759 N   0  0  0  0  0  0  0  0  0  0  0  0
   19.5214  -15.8732    3.0253 O   0  0  0  0  0  0  0  0  0  0  0  0
   20.7708  -17.3948    0.5726 H   0  0  0  0  0  0  0  0  0  0  0  0
   20.0975  -18.9463    0.9903 H   0  0  0  0  0  0  0  0  0  0  0  0
   18.9675  -15.4218    3.6887 H   0  0  0  0  0  0  0  0  0  0  0  0
  1  2  1  0  0  0  0
  1  6  1  0  0  0  0
  2  3  1  0  0  0  0
  3  4  1  0  0  0  0
  3  7  1  6  0  0  0
  3 10  1  0  0  0  0
  4  5  1  0  0  0  0
  5  6  1  0  0  0  0
  7  8  2  0  0  0  0
  7  9  1  0  0  0  0
  9 11  1  0  0  0  0
  9 12  1  0  0  0  0
 10 13  1  0  0  0  0
M  END
>  <CHROM.0>
-49.09650509,-61.93102747,-64.05590028,-51.14597269,-58.88855759,-59.44515849
-168.69257287,68.88762275,-166.98316431,161.54791790

>  <CHROM.1>
-6.91217305,-49.02735572,104.34046765,19.76015279,-17.90618901,3.63718832
-2.10181224,-0.06581897,-1.22020007

>  <Name>
P107917471

>  <RI>
0

>  <Rbt.Current_Directory>
/home/fstefaniak/projects/zuza/docking/adenine/1Y26

>  <Rbt.Executable>
rbdock ($Id: //depot/dev/client3/rdock/2013.1/src/exe/rbdock.cxx#4 $)

>  <Rbt.Library>
libRbt.so (2013.1, Build901 2013/11/27)

>  <Rbt.Parameter_File>
/home/fstefaniak/progs/rDock//data/scripts/dock_solv.prm

>  <Rbt.Receptor>
1y26.prm

>  <SCORE>
-56.3271

>  <SCORE.INTER>
-36.3383

>  <SCORE.INTER.CONST>
1

>  <SCORE.INTER.POLAR>
-5.35191

>  <SCORE.INTER.ROT>
2

>  <SCORE.INTER.SOLV>
13.1377

>  <SCORE.INTER.VDW>
-15.6984

>  <SCORE.INTER.norm>
-3.63383

>  <SCORE.INTRA>
0.38459

>  <SCORE.INTRA.DIHEDRAL>
0.361921

>  <SCORE.INTRA.DIHEDRAL.0>
1.10441

>  <SCORE.INTRA.POLAR>
0

>  <SCORE.INTRA.POLAR.0>
0

>  <SCORE.INTRA.REPUL>
0

>  <SCORE.INTRA.REPUL.0>
0

>  <SCORE.INTRA.SOLV>
-0.219927

>  <SCORE.INTRA.SOLV.lig_0>
-13.339

>  <SCORE.INTRA.VDW>
0.313593

>  <SCORE.INTRA.VDW.0>
-0.242916

>  <SCORE.INTRA.norm>
0.038459

>  <SCORE.RESTR>
0

>  <SCORE.RESTR.CAVITY>
0

>  <SCORE.RESTR.norm>
0

>  <SCORE.SYSTEM>
-20.3734

>  <SCORE.SYSTEM.CONST>
0

>  <SCORE.SYSTEM.DIHEDRAL>
6.24853

>  <SCORE.SYSTEM.POLAR>
-3.41923

>  <SCORE.SYSTEM.SOLV>
0.374554

>  <SCORE.SYSTEM.VDW>
-4.39256

>  <SCORE.SYSTEM.norm>
-2.03734

>  <SCORE.heavy>
10

>  <SCORE.norm>
-5.63271

$$$$
P107919697
 OpenBabel12072022103D
libRbt.so/2013.1/901 2013/11/27
 13 12  0  0  0  0  0  0  0  0999 V2000
   20.4765  -16.0521    3.8412 C   0  0  0  0  0  0  0  0  0  0  0  0
   20.3959  -17.5601    3.9962 C   0  0  0  0  0  0  0  0  0  0  0  0
   19.3501  -18.1717    3.0880 C   0  0  0  0  0  0  0  0  0  0  0  0
   19.1147  -17.7866    1.9452 O   0  0  0  0  0  0  0  0  0  0  0  0
   18.6531  -19.2032    3.6863 N   0  0  0  0  0  0  0  0  0  0  0  0
   17.5722  -18.8594    4.5202 N   0  0  0  0  0  0  0  0  0  0  0  0
   17.7429  -19.0757    5.8639 C   0  0  0  0  0  0  0  0  0  0  0  0
   18.8263  -19.2536    6.4071 O   0  0  0  0  0  0  0  0  0  0  0  0
   16.5745  -19.0895    6.5547 N   0  0  0  0  0  0  0  0  0  0  0  0
   19.0961  -20.0987    3.8921 H   0  0  0  0  0  0  0  0  0  0  0  0
   17.0849  -18.0094    4.2395 H   0  0  0  0  0  0  0  0  0  0  0  0
   16.3822  -19.9077    7.1155 H   0  0  0  0  0  0  0  0  0  0  0  0
   16.3515  -18.2052    6.9951 H   0  0  0  0  0  0  0  0  0  0  0  0
  1  2  1  0  0  0  0
  2  3  1  0  0  0  0
  3  4  2  0  0  0  0
  3  5  1  0  0  0  0
  5  6  1  0  0  0  0
  5 10  1  0  0  0  0
  6  7  1  0  0  0  0
  6 11  1  0  0  0  0
  7  8  2  0  0  0  0
  7  9  1  0  0  0  0
  9 12  1  0  0  0  0
  9 13  1  0  0  0  0
M  END
>  <CHROM.0>
-57.54988331,-179.22454842,-57.75160235,-52.36892677,-52.30294764,-58.97214138
-59.47858028,-57.96185558,-168.27595773,161.46204429

>  <CHROM.1>
37.33312736,82.69871105,-110.13995284,16.91999831,124.93993427,18.72523294
-18.33991634,4.45448189,-0.77408305,0.67604667,1.54876040

>  <Name>
P107919697

>  <RI>
0

>  <Rbt.Current_Directory>
/home/fstefaniak/projects/zuza/docking/adenine/1Y26

>  <Rbt.Executable>
rbdock ($Id: //depot/dev/client3/rdock/2013.1/src/exe/rbdock.cxx#4 $)

>  <Rbt.Library>
libRbt.so (2013.1, Build901 2013/11/27)

>  <Rbt.Parameter_File>
/home/fstefaniak/progs/rDock//data/scripts/dock_solv.prm

>  <Rbt.Receptor>
1y26.prm

>  <SCORE>
-61.5452

>  <SCORE.INTER>
-38.4966

>  <SCORE.INTER.CONST>
1

>  <SCORE.INTER.POLAR>
-6.32419

>  <SCORE.INTER.ROT>
5

>  <SCORE.INTER.SOLV>
14.6718

>  <SCORE.INTER.VDW>
-16.4077

>  <SCORE.INTER.norm>
-4.2774

>  <SCORE.INTRA>
-0.862081

>  <SCORE.INTRA.DIHEDRAL>
0.317543

>  <SCORE.INTRA.DIHEDRAL.0>
4.0247

>  <SCORE.INTRA.POLAR>
0

>  <SCORE.INTRA.POLAR.0>
0

>  <SCORE.INTRA.REPUL>
0

>  <SCORE.INTRA.REPUL.0>
0

>  <SCORE.INTRA.SOLV>
0.342041

>  <SCORE.INTRA.SOLV.lig_0>
-21.1684

>  <SCORE.INTRA.VDW>
-1.19187

>  <SCORE.INTRA.VDW.0>
0.431183

>  <SCORE.INTRA.norm>
-0.0957868

>  <SCORE.RESTR>
0

>  <SCORE.RESTR.CAVITY>
0

>  <SCORE.RESTR.norm>
0

>  <SCORE.SYSTEM>
-22.1865

>  <SCORE.SYSTEM.CONST>
0

>  <SCORE.SYSTEM.DIHEDRAL>
4.75511

>  <SCORE.SYSTEM.POLAR>
-3.3163

>  <SCORE.SYSTEM.SOLV>
0.595569

>  <SCORE.SYSTEM.VDW>
-5.52021

>  <SCORE.SYSTEM.norm>
-2.46516

>  <SCORE.heavy>
9

>  <SCORE.norm>
-6.83835

$$$$
P107919697
 OpenBabel12072022103D
libRbt.so/2013.1/901 2013/11/27
 13 12  0  0  0  0  0  0  0  0999 V2000
   20.4719  -16.7366    4.5863 C   0  0  0  0  0  0  0  0  0  0  0  0
   20.5434  -17.7176    3.4300 C   0  0  0  0  0  0  0  0  0  0  0  0
   19.1712  -18.0721    2.8971 C   0  0  0  0  0  0  0  0  0  0  0  0
   18.6133  -17.4833    1.9743 O   0  0  0  0  0  0  0  0  0  0  0  0
   18.5829  -19.1204    3.5775 N   0  0  0  0  0  0  0  0  0  0  0  0
   17.5475  -18.8101    4.4796 N   0  0  0  0  0  0  0  0  0  0  0  0
   17.8024  -19.0426    5.8072 C   0  0  0  0  0  0  0  0  0  0  0  0
   18.9210  -19.1837    6.2859 O   0  0  0  0  0  0  0  0  0  0  0  0
   16.6762  -19.1186    6.5613 N   0  0  0  0  0  0  0  0  0  0  0  0
   19.0925  -19.9813    3.7766 H   0  0  0  0  0  0  0  0  0  0  0  0
   17.0284  -17.9659    4.2418 H   0  0  0  0  0  0  0  0  0  0  0  0
   16.5585  -19.9461    7.1288 H   0  0  0  0  0  0  0  0  0  0  0  0
   16.4317  -18.2476    7.0165 H   0  0  0  0  0  0  0  0  0  0  0  0
  1  2  1  0  0  0  0
  2  3  1  0  0  0  0
  3  4  2  0  0  0  0
  3  5  1  0  0  0  0
  5  6  1  0  0  0  0
  5 10  1  0  0  0  0
  6  7  1  0  0  0  0
  6 11  1  0  0  0  0
  7  8  2  0  0  0  0
  7  9  1  0  0  0  0
  9 12  1  0  0  0  0
  9 13  1  0  0  0  0
M  END
>  <CHROM.0>
59.39341292,-62.78950753,-60.76613916,-54.86499807,-176.14122207,-57.81400662
-58.72565078,-177.24198392,-167.11830741,160.50386656

>  <CHROM.1>
92.15092631,104.84245084,-113.79567344,18.27384640,126.06953024,18.68216466
-18.36592529,4.42954876,-0.95910649,0.44805574,1.73830206

>  <Name>
P107919697

>  <RI>
0

>  <Rbt.Current_Directory>
/home/fstefaniak/projects/zuza/docking/adenine/1Y26

>  <Rbt.Executable>
rbdock ($Id: //depot/dev/client3/rdock/2013.1/src/exe/rbdock.cxx#4 $)

>  <Rbt.Library>
libRbt.so (2013.1, Build901 2013/11/27)

>  <Rbt.Parameter_File>
/home/fstefaniak/progs/rDock//data/scripts/dock_solv.prm

>  <Rbt.Receptor>
1y26.prm

>  <SCORE>
-61.3062

>  <SCORE.INTER>
-38.1467

>  <SCORE.INTER.CONST>
1

>  <SCORE.INTER.POLAR>
-6.40413

>  <SCORE.INTER.ROT>
5

>  <SCORE.INTER.SOLV>
14.6873

>  <SCORE.INTER.VDW>
-15.9131

>  <SCORE.INTER.norm>
-4.23852

>  <SCORE.INTRA>
-1.4483

>  <SCORE.INTRA.DIHEDRAL>
-0.0918813

>  <SCORE.INTRA.DIHEDRAL.0>
4.0247

>  <SCORE.INTRA.POLAR>
0

>  <SCORE.INTRA.POLAR.0>
0

>  <SCORE.INTRA.REPUL>
0

>  <SCORE.INTRA.REPUL.0>
0

>  <SCORE.INTRA.SOLV>
0.657011

>  <SCORE.INTRA.SOLV.lig_0>
-21.1684

>  <SCORE.INTRA.VDW>
-1.73087

>  <SCORE.INTRA.VDW.0>
0.431183

>  <SCORE.INTRA.norm>
-0.160922

>  <SCORE.RESTR>
0

>  <SCORE.RESTR.CAVITY>
0

>  <SCORE.RESTR.norm>
0

>  <SCORE.SYSTEM>
-21.7112

>  <SCORE.SYSTEM.CONST>
0

>  <SCORE.SYSTEM.DIHEDRAL>
4.70168

>  <SCORE.SYSTEM.POLAR>
-3.15759

>  <SCORE.SYSTEM.SOLV>
0.255748

>  <SCORE.SYSTEM.VDW>
-5.60131

>  <SCORE.SYSTEM.norm>
-2.41235

>  <SCORE.heavy>
9

>  <SCORE.norm>
-6.8118

$$$$
P107919697
 OpenBabel12072022103D
libRbt.so/2013.1/901 2013/11/27
 13 12  0  0  0  0  0  0  0  0999 V2000
   21.0461  -17.1007    4.3611 C   0  0  0  0  0  0  0  0  0  0  0  0
   19.6112  -16.8135    3.9577 C   0  0  0  0  0  0  0  0  0  0  0  0
   19.1001  -17.7991    2.9280 C   0  0  0  0  0  0  0  0  0  0  0  0
   19.1390  -17.6148    1.7139 O   0  0  0  0  0  0  0  0  0  0  0  0
   18.5499  -18.9329    3.4934 N   0  0  0  0  0  0  0  0  0  0  0  0
   17.5152  -18.7547    4.4313 N   0  0  0  0  0  0  0  0  0  0  0  0
   17.8051  -19.0805    5.7318 C   0  0  0  0  0  0  0  0  0  0  0  0
   18.9283  -19.3305    6.1519 O   0  0  0  0  0  0  0  0  0  0  0  0
   16.7079  -19.1161    6.5302 N   0  0  0  0  0  0  0  0  0  0  0  0
   19.0866  -19.7945    3.5934 H   0  0  0  0  0  0  0  0  0  0  0  0
   16.9474  -17.9237    4.2706 H   0  0  0  0  0  0  0  0  0  0  0  0
   16.5954  -19.9285    7.1202 H   0  0  0  0  0  0  0  0  0  0  0  0
   16.4991  -18.2305    6.9749 H   0  0  0  0  0  0  0  0  0  0  0  0
  1  2  1  0  0  0  0
  2  3  1  0  0  0  0
  3  4  2  0  0  0  0
  3  5  1  0  0  0  0
  5  6  1  0  0  0  0
  5 10  1  0  0  0  0
  6  7  1  0  0  0  0
  6 11  1  0  0  0  0
  7  8  2  0  0  0  0
  7  9  1  0  0  0  0
  9 12  1  0  0  0  0
  9 13  1  0  0  0  0
M  END
>  <CHROM.0>
-49.47331362,50.86518994,-50.47717039,-52.71440385,-172.19780528,-58.36715191
-60.68458606,-50.61307878,-165.94522922,160.52697080

>  <CHROM.1>
-93.65722453,55.08289136,-111.65257505,10.54184768,131.47953833,18.70357754
-18.29516243,4.38895828,-0.94660696,0.47428803,1.75868489

>  <Name>
P107919697

>  <RI>
0

>  <Rbt.Current_Directory>
/home/fstefaniak/projects/zuza/docking/adenine/1Y26

>  <Rbt.Executable>
rbdock ($Id: //depot/dev/client3/rdock/2013.1/src/exe/rbdock.cxx#4 $)

>  <Rbt.Library>
libRbt.so (2013.1, Build901 2013/11/27)

>  <Rbt.Parameter_File>
/home/fstefaniak/progs/rDock//data/scripts/dock_solv.prm

>  <Rbt.Receptor>
1y26.prm

>  <SCORE>
-60.1692

>  <SCORE.INTER>
-37.4067

>  <SCORE.INTER.CONST>
1

>  <SCORE.INTER.POLAR>
-6.61125

>  <SCORE.INTER.ROT>
5

>  <SCORE.INTER.SOLV>
14.5806

>  <SCORE.INTER.VDW>
-14.6938

>  <SCORE.INTER.norm>
-4.1563

>  <SCORE.INTRA>
-1.24343

>  <SCORE.INTRA.DIHEDRAL>
-0.127237

>  <SCORE.INTRA.DIHEDRAL.0>
4.0247

>  <SCORE.INTRA.POLAR>
0

>  <SCORE.INTRA.POLAR.0>
0

>  <SCORE.INTRA.REPUL>
0

>  <SCORE.INTRA.REPUL.0>
0

>  <SCORE.INTRA.SOLV>
0.575962

>  <SCORE.INTRA.SOLV.lig_0>
-21.1684

>  <SCORE.INTRA.VDW>
-1.4678

>  <SCORE.INTRA.VDW.0>
0.431183

>  <SCORE.INTRA.norm>
-0.138159

>  <SCORE.RESTR>
0

>  <SCORE.RESTR.CAVITY>
0

>  <SCORE.RESTR.norm>
0

>  <SCORE.SYSTEM>
-21.5191

>  <SCORE.SYSTEM.CONST>
0

>  <SCORE.SYSTEM.DIHEDRAL>
6.79577

>  <SCORE.SYSTEM.POLAR>
-3.58808

>  <SCORE.SYSTEM.SOLV>
0.578382

>  <SCORE.SYSTEM.VDW>
-4.84387

>  <SCORE.SYSTEM.norm>
-2.39101

>  <SCORE.heavy>
9

>  <SCORE.norm>
-6.68547

$$$$
P107971104
 OpenBabel12072022103D
libRbt.so/2013.1/901 2013/11/27
 15 15  0  0  0  0  0  0  0  0999 V2000
   19.2322  -18.9742    6.3227 C   0  0  0  0  0  0  0  0  0  0  0  0
   20.0129  -17.7548    5.8408 C   0  0  0  0  0  0  0  0  0  0  0  0
   20.4078  -17.9142    4.3679 C   0  0  1  0  0  0  0  0  0  0  0  0
   19.1616  -18.2588    3.5460 C   0  0  0  0  0  0  0  0  0  0  0  0
   18.5314  -19.4424    4.0466 O   0  0  0  0  0  0  0  0  0  0  0  0
   18.0712  -19.2808    5.3871 C   0  0  0  0  0  0  0  0  0  0  0  0
   21.0655  -16.6546    3.8210 C   0  0  0  0  0  0  0  0  0  0  0  0
   20.6431  -16.0652    2.8234 O   0  0  0  0  0  0  0  0  0  0  0  0
   22.1809  -16.1460    4.4444 N   0  0  0  0  0  0  0  0  0  0  0  0
   22.7168  -14.8925    4.2965 C   0  0  0  0  0  0  0  0  0  0  0  0
   22.9874  -14.3184    3.2537 O   0  0  0  0  0  0  0  0  0  0  0  0
   22.9821  -14.2998    5.4959 N   0  0  0  0  0  0  0  0  0  0  0  0
   22.2793  -16.5227    5.3751 H   0  0  0  0  0  0  0  0  0  0  0  0
   22.9305  -14.8672    6.3305 H   0  0  0  0  0  0  0  0  0  0  0  0
   23.7843  -13.6795    5.4641 H   0  0  0  0  0  0  0  0  0  0  0  0
  1  2  1  0  0  0  0
  1  6  1  0  0  0  0
  2  3  1  0  0  0  0
  3  4  1  0  0  0  0
  3  7  1  6  0  0  0
  4  5  1  0  0  0  0
  5  6  1  0  0  0  0
  7  8  2  0  0  0  0
  7  9  1  0  0  0  0
  9 10  1  0  0  0  0
  9 13  1  0  0  0  0
 10 11  2  0  0  0  0
 10 12  1  0  0  0  0
 12 14  1  0  0  0  0
 12 15  1  0  0  0  0
M  END
>  <CHROM.0>
-52.34703218,-78.42500527,-52.61249379,-53.24893485,-56.85021191,-58.33478635
-57.72341263,-51.50219925,-167.80464298,160.38451600

>  <CHROM.1>
-124.18658710,-163.91301141,-50.38018361,10.93450229,20.68128615,-16.97575102
4.46494678,-2.86631742,-0.79723760,-1.36796829

>  <Name>
P107971104

>  <RI>
0

>  <Rbt.Current_Directory>
/home/fstefaniak/projects/zuza/docking/adenine/1Y26

>  <Rbt.Executable>
rbdock ($Id: //depot/dev/client3/rdock/2013.1/src/exe/rbdock.cxx#4 $)

>  <Rbt.Library>
libRbt.so (2013.1, Build901 2013/11/27)

>  <Rbt.Parameter_File>
/home/fstefaniak/progs/rDock//data/scripts/dock_solv.prm

>  <Rbt.Receptor>
1y26.prm

>  <SCORE>
-59.849

>  <SCORE.INTER>
-38.5953

>  <SCORE.INTER.CONST>
1

>  <SCORE.INTER.POLAR>
-5.15015

>  <SCORE.INTER.ROT>
4

>  <SCORE.INTER.SOLV>
13.1892

>  <SCORE.INTER.VDW>
-19.2261

>  <SCORE.INTER.norm>
-3.21628

>  <SCORE.INTRA>
0.442629

>  <SCORE.INTRA.DIHEDRAL>
-0.000739878

>  <SCORE.INTRA.DIHEDRAL.0>
1.99833

>  <SCORE.INTRA.POLAR>
0

>  <SCORE.INTRA.POLAR.0>
0

>  <SCORE.INTRA.REPUL>
0

>  <SCORE.INTRA.REPUL.0>
0

>  <SCORE.INTRA.SOLV>
-0.149531

>  <SCORE.INTRA.SOLV.lig_0>
-18.0217

>  <SCORE.INTRA.VDW>
0.517765

>  <SCORE.INTRA.VDW.0>
-0.38228

>  <SCORE.INTRA.norm>
0.0368858

>  <SCORE.RESTR>
0

>  <SCORE.RESTR.CAVITY>
0

>  <SCORE.RESTR.norm>
0

>  <SCORE.SYSTEM>
-21.6963

>  <SCORE.SYSTEM.CONST>
0

>  <SCORE.SYSTEM.DIHEDRAL>
7.00452

>  <SCORE.SYSTEM.POLAR>
-3.45685

>  <SCORE.SYSTEM.SOLV>
0.655629

>  <SCORE.SYSTEM.VDW>
-5.49477

>  <SCORE.SYSTEM.norm>
-1.80803

>  <SCORE.heavy>
12

>  <SCORE.norm>
-4.98741

$$$$
P107971104
 OpenBabel12072022103D
libRbt.so/2013.1/901 2013/11/27
 15 15  0  0  0  0  0  0  0  0999 V2000
   19.0811  -19.0981    6.3053 C   0  0  0  0  0  0  0  0  0  0  0  0
   20.0109  -17.9825    5.8365 C   0  0  0  0  0  0  0  0  0  0  0  0
   20.2459  -18.0756    4.3242 C   0  0  1  0  0  0  0  0  0  0  0  0
   18.8939  -18.1442    3.6069 C   0  0  0  0  0  0  0  0  0  0  0  0
   18.1196  -19.2502    4.0820 O   0  0  0  0  0  0  0  0  0  0  0  0
   17.8094  -19.1331    5.4693 C   0  0  0  0  0  0  0  0  0  0  0  0
   21.0560  -16.8952    3.8059 C   0  0  0  0  0  0  0  0  0  0  0  0
   20.7288  -16.2550    2.8039 O   0  0  0  0  0  0  0  0  0  0  0  0
   22.2056  -16.5208    4.4614 N   0  0  0  0  0  0  0  0  0  0  0  0
   23.3362  -15.9744    3.9104 C   0  0  0  0  0  0  0  0  0  0  0  0
   23.5339  -14.8033    3.6285 O   0  0  0  0  0  0  0  0  0  0  0  0
   24.2869  -16.9153    3.6438 N   0  0  0  0  0  0  0  0  0  0  0  0
   21.9995  -16.1795    5.3881 H   0  0  0  0  0  0  0  0  0  0  0  0
   24.1243  -17.8613    3.9598 H   0  0  0  0  0  0  0  0  0  0  0  0
   24.6578  -16.8499    2.7017 H   0  0  0  0  0  0  0  0  0  0  0  0
  1  2  1  0  0  0  0
  1  6  1  0  0  0  0
  2  3  1  0  0  0  0
  3  4  1  0  0  0  0
  3  7  1  6  0  0  0
  4  5  1  0  0  0  0
  5  6  1  0  0  0  0
  7  8  2  0  0  0  0
  7  9  1  0  0  0  0
  9 10  1  0  0  0  0
  9 13  1  0  0  0  0
 10 11  2  0  0  0  0
 10 12  1  0  0  0  0
 12 14  1  0  0  0  0
 12 15  1  0  0  0  0
M  END
>  <CHROM.0>
-45.52637170,-61.38257158,-53.73819244,-52.30356016,-171.97673657,-174.52142281
-55.18524559,-51.12559572,-167.33741155,162.18331176

>  <CHROM.1>
-132.59128408,147.78332748,82.49350649,-6.77652700,20.79508242,-17.40963450
4.30061083,-2.68039889,-0.39287802,-1.07779414

>  <Name>
P107971104

>  <RI>
0

>  <Rbt.Current_Directory>
/home/fstefaniak/projects/zuza/docking/adenine/1Y26

>  <Rbt.Executable>
rbdock ($Id: //depot/dev/client3/rdock/2013.1/src/exe/rbdock.cxx#4 $)

>  <Rbt.Library>
libRbt.so (2013.1, Build901 2013/11/27)

>  <Rbt.Parameter_File>
/home/fstefaniak/progs/rDock//data/scripts/dock_solv.prm

>  <Rbt.Receptor>
1y26.prm

>  <SCORE>
-59.1971

>  <SCORE.INTER>
-37.5611

>  <SCORE.INTER.CONST>
1

>  <SCORE.INTER.POLAR>
-4.71993

>  <SCORE.INTER.ROT>
4

>  <SCORE.INTER.SOLV>
12.5524

>  <SCORE.INTER.VDW>
-19.7584

>  <SCORE.INTER.norm>
-3.13009

>  <SCORE.INTRA>
0.143581

>  <SCORE.INTRA.DIHEDRAL>
0.289509

>  <SCORE.INTRA.DIHEDRAL.0>
1.99833

>  <SCORE.INTRA.POLAR>
0

>  <SCORE.INTRA.POLAR.0>
0

>  <SCORE.INTRA.REPUL>
0

>  <SCORE.INTRA.REPUL.0>
0

>  <SCORE.INTRA.SOLV>
-0.0962855

>  <SCORE.INTRA.SOLV.lig_0>
-18.0217

>  <SCORE.INTRA.VDW>
0.0469694

>  <SCORE.INTRA.VDW.0>
-0.38228

>  <SCORE.INTRA.norm>
0.0119651

>  <SCORE.RESTR>
0

>  <SCORE.RESTR.CAVITY>
0

>  <SCORE.RESTR.norm>
0

>  <SCORE.SYSTEM>
-21.7796

>  <SCORE.SYSTEM.CONST>
0

>  <SCORE.SYSTEM.DIHEDRAL>
6.46887

>  <SCORE.SYSTEM.POLAR>
-3.52031

>  <SCORE.SYSTEM.SOLV>
0.376016

>  <SCORE.SYSTEM.VDW>
-5.06699

>  <SCORE.SYSTEM.norm>
-1.81497

>  <SCORE.heavy>
12

>  <SCORE.norm>
-4.93309

$$$$
P107971104
 OpenBabel12072022103D
libRbt.so/2013.1/901 2013/11/27
 15 15  0  0  0  0  0  0  0  0999 V2000
   19.2560  -19.0219    6.3437 C   0  0  0  0  0  0  0  0  0  0  0  0
   20.0332  -17.8053    5.8494 C   0  0  0  0  0  0  0  0  0  0  0  0
   20.3640  -17.9453    4.3587 C   0  0  1  0  0  0  0  0  0  0  0  0
   19.0799  -18.2591    3.5843 C   0  0  0  0  0  0  0  0  0  0  0  0
   18.4543  -19.4423    4.0917 O   0  0  0  0  0  0  0  0  0  0  0  0
   18.0527  -19.2971    5.4527 C   0  0  0  0  0  0  0  0  0  0  0  0
   21.0163  -16.6857    3.8053 C   0  0  0  0  0  0  0  0  0  0  0  0
   20.5686  -16.0814    2.8278 O   0  0  0  0  0  0  0  0  0  0  0  0
   22.1552  -16.1941    4.3990 N   0  0  0  0  0  0  0  0  0  0  0  0
   22.7214  -14.9588    4.2154 C   0  0  0  0  0  0  0  0  0  0  0  0
   23.0450  -14.4393    3.1592 O   0  0  0  0  0  0  0  0  0  0  0  0
   22.9501  -14.3152    5.3960 N   0  0  0  0  0  0  0  0  0  0  0  0
   22.2595  -16.5537    5.3359 H   0  0  0  0  0  0  0  0  0  0  0  0
   22.9701  -14.8653    6.2435 H   0  0  0  0  0  0  0  0  0  0  0  0
   23.6870  -13.6207    5.3340 H   0  0  0  0  0  0  0  0  0  0  0  0
  1  2  1  0  0  0  0
  1  6  1  0  0  0  0
  2  3  1  0  0  0  0
  3  4  1  0  0  0  0
  3  7  1  6  0  0  0
  4  5  1  0  0  0  0
  5  6  1  0  0  0  0
  7  8  2  0  0  0  0
  7  9  1  0  0  0  0
  9 10  1  0  0  0  0
  9 13  1  0  0  0  0
 10 11  2  0  0  0  0
 10 12  1  0  0  0  0
 12 14  1  0  0  0  0
 12 15  1  0  0  0  0
M  END
>  <CHROM.0>
-55.79653554,-75.89052322,-66.77693452,-51.16443161,-55.97256744,-61.08840232
-172.57283467,-51.27717929,-166.84408992,161.99366400

>  <CHROM.1>
-124.92408302,-166.16298903,-54.00677582,18.59546553,20.65640631,-17.01196327
4.45086925,-2.83120510,-0.78028624,-1.34712144

>  <Name>
P107971104

>  <RI>
0

>  <Rbt.Current_Directory>
/home/fstefaniak/projects/zuza/docking/adenine/1Y26

>  <Rbt.Executable>
rbdock ($Id: //depot/dev/client3/rdock/2013.1/src/exe/rbdock.cxx#4 $)

>  <Rbt.Library>
libRbt.so (2013.1, Build901 2013/11/27)

>  <Rbt.Parameter_File>
/home/fstefaniak/progs/rDock//data/scripts/dock_solv.prm

>  <Rbt.Receptor>
1y26.prm

>  <SCORE>
-58.8487

>  <SCORE.INTER>
-38.4234

>  <SCORE.INTER.CONST>
1

>  <SCORE.INTER.POLAR>
-5.12872

>  <SCORE.INTER.ROT>
4

>  <SCORE.INTER.SOLV>
13.0896

>  <SCORE.INTER.VDW>
-19.1497

>  <SCORE.INTER.norm>
-3.20195

>  <SCORE.INTRA>
0.42837

>  <SCORE.INTRA.DIHEDRAL>
0.00543883

>  <SCORE.INTRA.DIHEDRAL.0>
1.99833

>  <SCORE.INTRA.POLAR>
0

>  <SCORE.INTRA.POLAR.0>
0

>  <SCORE.INTRA.REPUL>
0

>  <SCORE.INTRA.REPUL.0>
0

>  <SCORE.INTRA.SOLV>
-0.148165

>  <SCORE.INTRA.SOLV.lig_0>
-18.0217

>  <SCORE.INTRA.VDW>
0.499733

>  <SCORE.INTRA.VDW.0>
-0.38228

>  <SCORE.INTRA.norm>
0.0356975

>  <SCORE.RESTR>
0

>  <SCORE.RESTR.CAVITY>
0

>  <SCORE.RESTR.norm>
0

>  <SCORE.SYSTEM>
-20.8537

>  <SCORE.SYSTEM.CONST>
0

>  <SCORE.SYSTEM.DIHEDRAL>
6.70116

>  <SCORE.SYSTEM.POLAR>
-3.33976

>  <SCORE.SYSTEM.SOLV>
0.585823

>  <SCORE.SYSTEM.VDW>
-5.19896

>  <SCORE.SYSTEM.norm>
-1.73781

>  <SCORE.heavy>
12

>  <SCORE.norm>
-4.90406

$$$$
P107971175
 OpenBabel12072022103D
libRbt.so/2013.1/901 2013/11/27
 14 14  0  0  0  0  0  0  0  0999 V2000
   21.4907  -17.5102    3.6976 C   0  0  0  0  0  0  0  0  0  0  0  0
   20.1866  -17.7813    4.4120 C   0  0  0  0  0  0  0  0  0  0  0  0
   19.2858  -16.7472    4.0028 O   0  0  0  0  0  0  0  0  0  0  0  0
   20.0571  -15.6441    3.4931 C   0  0  0  0  0  0  0  0  0  0  0  0
   21.5292  -15.9950    3.6418 C   0  0  1  0  0  0  0  0  0  0  0  0
   22.1253  -15.3769    4.9010 C   0  0  0  0  0  0  0  0  0  0  0  0
   21.4738  -14.6559    5.6607 O   0  0  0  0  0  0  0  0  0  0  0  0
   23.4248  -15.6683    5.2485 N   0  0  0  0  0  0  0  0  0  0  0  0
   24.2564  -16.6437    4.7623 C   0  0  0  0  0  0  0  0  0  0  0  0
   24.0591  -17.3488    3.7843 O   0  0  0  0  0  0  0  0  0  0  0  0
   25.4324  -16.7259    5.4437 N   0  0  0  0  0  0  0  0  0  0  0  0
   23.7158  -15.1994    6.0908 H   0  0  0  0  0  0  0  0  0  0  0  0
   25.5645  -16.1854    6.2859 H   0  0  0  0  0  0  0  0  0  0  0  0
   25.8230  -17.6613    5.4732 H   0  0  0  0  0  0  0  0  0  0  0  0
  1  2  1  0  0  0  0
  1  5  1  0  0  0  0
  2  3  1  0  0  0  0
  3  4  1  0  0  0  0
  4  5  1  0  0  0  0
  5  6  1  1  0  0  0
  6  7  2  0  0  0  0
  6  8  1  0  0  0  0
  8  9  1  0  0  0  0
  8 12  1  0  0  0  0
  9 10  2  0  0  0  0
  9 11  1  0  0  0  0
 11 13  1  0  0  0  0
 11 14  1  0  0  0  0
M  END
>  <CHROM.0>
-49.66072736,-59.31671672,-51.99010760,-53.20740339,-57.62127237,-62.15928164
-61.16896353,-49.08989390,-166.79388744,161.25071538

>  <CHROM.1>
-115.97856084,7.63952054,22.13250980,-16.37913392,4.48376209,-3.05261295
-0.19414887,0.51260071

>  <Name>
P107971175

>  <RI>
0

>  <Rbt.Current_Directory>
/home/fstefaniak/projects/zuza/docking/adenine/1Y26

>  <Rbt.Executable>
rbdock ($Id: //depot/dev/client3/rdock/2013.1/src/exe/rbdock.cxx#4 $)

>  <Rbt.Library>
libRbt.so (2013.1, Build901 2013/11/27)

>  <Rbt.Parameter_File>
/home/fstefaniak/progs/rDock//data/scripts/dock_solv.prm

>  <Rbt.Receptor>
1y26.prm

>  <SCORE>
-42.2936

>  <SCORE.INTER>
-22.5823

>  <SCORE.INTER.CONST>
1

>  <SCORE.INTER.POLAR>
-3.65605

>  <SCORE.INTER.ROT>
2

>  <SCORE.INTER.SOLV>
15.746

>  <SCORE.INTER.VDW>
-13.05

>  <SCORE.INTER.norm>
-2.05293

>  <SCORE.INTRA>
2.52588

>  <SCORE.INTRA.DIHEDRAL>
-0.00603264

>  <SCORE.INTRA.DIHEDRAL.0>
1.06901

>  <SCORE.INTRA.POLAR>
0

>  <SCORE.INTRA.POLAR.0>
0

>  <SCORE.INTRA.REPUL>
0

>  <SCORE.INTRA.REPUL.0>
0

>  <SCORE.INTRA.SOLV>
0.315318

>  <SCORE.INTRA.SOLV.lig_0>
-19.2806

>  <SCORE.INTRA.VDW>
2.37123

>  <SCORE.INTRA.VDW.0>
-0.344215

>  <SCORE.INTRA.norm>
0.229625

>  <SCORE.RESTR>
0

>  <SCORE.RESTR.CAVITY>
0

>  <SCORE.RESTR.norm>
0

>  <SCORE.SYSTEM>
-22.2372

>  <SCORE.SYSTEM.CONST>
0

>  <SCORE.SYSTEM.DIHEDRAL>
5.94022

>  <SCORE.SYSTEM.POLAR>
-3.49873

>  <SCORE.SYSTEM.SOLV>
0.66132

>  <SCORE.SYSTEM.VDW>
-5.36287

>  <SCORE.SYSTEM.norm>
-2.02156

>  <SCORE.heavy>
11

>  <SCORE.norm>
-3.84487

$$$$
P107971175
 OpenBabel12072022103D
libRbt.so/2013.1/901 2013/11/27
 14 14  0  0  0  0  0  0  0  0999 V2000
   21.5039  -17.4786    3.7388 C   0  0  0  0  0  0  0  0  0  0  0  0
   20.2054  -17.7349    4.4689 C   0  0  0  0  0  0  0  0  0  0  0  0
   19.3094  -16.6947    4.0651 O   0  0  0  0  0  0  0  0  0  0  0  0
   20.0847  -15.6007    3.5419 C   0  0  0  0  0  0  0  0  0  0  0  0
   21.5552  -15.9641    3.6758 C   0  0  1  0  0  0  0  0  0  0  0  0
   22.1708  -15.3459    4.9255 C   0  0  0  0  0  0  0  0  0  0  0  0
   21.5353  -14.6126    5.6871 O   0  0  0  0  0  0  0  0  0  0  0  0
   23.4700  -15.6507    5.2621 N   0  0  0  0  0  0  0  0  0  0  0  0
   24.2852  -16.6388    4.7738 C   0  0  0  0  0  0  0  0  0  0  0  0
   24.0701  -17.3472    3.8020 O   0  0  0  0  0  0  0  0  0  0  0  0
   25.4667  -16.7311    5.4443 N   0  0  0  0  0  0  0  0  0  0  0  0
   23.7748  -15.1805    6.0988 H   0  0  0  0  0  0  0  0  0  0  0  0
   25.5862  -16.2466    6.3218 H   0  0  0  0  0  0  0  0  0  0  0  0
   25.8865  -17.6534    5.4074 H   0  0  0  0  0  0  0  0  0  0  0  0
  1  2  1  0  0  0  0
  1  5  1  0  0  0  0
  2  3  1  0  0  0  0
  3  4  1  0  0  0  0
  4  5  1  0  0  0  0
  5  6  1  1  0  0  0
  6  7  2  0  0  0  0
  6  8  1  0  0  0  0
  8  9  1  0  0  0  0
  8 12  1  0  0  0  0
  9 10  2  0  0  0  0
  9 11  1  0  0  0  0
 11 13  1  0  0  0  0
 11 14  1  0  0  0  0
M  END
>  <CHROM.0>
-50.52684572,-59.06919714,-57.88692191,-51.30002218,-54.66626038,-61.75304512
-60.49509276,-47.28828291,-166.53108925,161.06331545

>  <CHROM.1>
-116.18896399,12.64618183,22.16323794,-16.35239471,4.51421817,-3.06781013
-0.19098031,0.50401424

>  <Name>
P107971175

>  <RI>
0

>  <Rbt.Current_Directory>
/home/fstefaniak/projects/zuza/docking/adenine/1Y26

>  <Rbt.Executable>
rbdock ($Id: //depot/dev/client3/rdock/2013.1/src/exe/rbdock.cxx#4 $)

>  <Rbt.Library>
libRbt.so (2013.1, Build901 2013/11/27)

>  <Rbt.Parameter_File>
/home/fstefaniak/progs/rDock//data/scripts/dock_solv.prm

>  <Rbt.Receptor>
1y26.prm

>  <SCORE>
-42.2408

>  <SCORE.INTER>
-22.6246

>  <SCORE.INTER.CONST>
1

>  <SCORE.INTER.POLAR>
-3.67121

>  <SCORE.INTER.ROT>
2

>  <SCORE.INTER.SOLV>
15.8485

>  <SCORE.INTER.VDW>
-13.0618

>  <SCORE.INTER.norm>
-2.05678

>  <SCORE.INTRA>
2.58453

>  <SCORE.INTRA.DIHEDRAL>
-0.000739035

>  <SCORE.INTRA.DIHEDRAL.0>
1.06901

>  <SCORE.INTRA.POLAR>
0

>  <SCORE.INTRA.POLAR.0>
0

>  <SCORE.INTRA.REPUL>
0

>  <SCORE.INTRA.REPUL.0>
0

>  <SCORE.INTRA.SOLV>
0.315642

>  <SCORE.INTRA.SOLV.lig_0>
-19.2806

>  <SCORE.INTRA.VDW>
2.42707

>  <SCORE.INTRA.VDW.0>
-0.344215

>  <SCORE.INTRA.norm>
0.234957

>  <SCORE.RESTR>
0

>  <SCORE.RESTR.CAVITY>
0

>  <SCORE.RESTR.norm>
0

>  <SCORE.SYSTEM>
-22.2008

>  <SCORE.SYSTEM.CONST>
0

>  <SCORE.SYSTEM.DIHEDRAL>
6.04605

>  <SCORE.SYSTEM.POLAR>
-3.49897

>  <SCORE.SYSTEM.SOLV>
0.66043

>  <SCORE.SYSTEM.VDW>
-5.37282

>  <SCORE.SYSTEM.norm>
-2.01826

>  <SCORE.heavy>
11

>  <SCORE.norm>
-3.84008

$$$$
P107971175
 OpenBabel12072022103D
libRbt.so/2013.1/901 2013/11/27
 14 14  0  0  0  0  0  0  0  0999 V2000
   21.4610  -17.4467    3.6821 C   0  0  0  0  0  0  0  0  0  0  0  0
   20.2063  -17.8078    4.4436 C   0  0  0  0  0  0  0  0  0  0  0  0
   19.2217  -16.8379    4.0721 O   0  0  0  0  0  0  0  0  0  0  0  0
   19.8956  -15.6837    3.5380 C   0  0  0  0  0  0  0  0  0  0  0  0
   21.3929  -15.9324    3.6303 C   0  0  1  0  0  0  0  0  0  0  0  0
   21.9918  -15.2760    4.8686 C   0  0  0  0  0  0  0  0  0  0  0  0
   21.3138  -14.6351    5.6756 O   0  0  0  0  0  0  0  0  0  0  0  0
   23.3308  -15.4403    5.1416 N   0  0  0  0  0  0  0  0  0  0  0  0
   24.2278  -16.3200    4.5932 C   0  0  0  0  0  0  0  0  0  0  0  0
   24.0490  -17.0271    3.6130 O   0  0  0  0  0  0  0  0  0  0  0  0
   25.4413  -16.2936    5.2102 N   0  0  0  0  0  0  0  0  0  0  0  0
   23.6188  -14.9569    5.9767 H   0  0  0  0  0  0  0  0  0  0  0  0
   26.2759  -16.1154    4.6710 H   0  0  0  0  0  0  0  0  0  0  0  0
   25.4250  -15.8570    6.1252 H   0  0  0  0  0  0  0  0  0  0  0  0
  1  2  1  0  0  0  0
  1  5  1  0  0  0  0
  2  3  1  0  0  0  0
  3  4  1  0  0  0  0
  4  5  1  0  0  0  0
  5  6  1  1  0  0  0
  6  7  2  0  0  0  0
  6  8  1  0  0  0  0
  8  9  1  0  0  0  0
  8 12  1  0  0  0  0
  9 10  2  0  0  0  0
  9 11  1  0  0  0  0
 11 13  1  0  0  0  0
 11 14  1  0  0  0  0
M  END
>  <CHROM.0>
-47.93641631,-175.55417558,-54.13617283,-52.46919415,-173.74210471,-63.59163234
-59.51436295,-51.07678758,-166.46281152,161.13306610

>  <CHROM.1>
-113.79213593,-124.06285274,22.06390962,-16.24453080,4.42709904,-2.99380848
-0.09429140,0.54873491

>  <Name>
P107971175

>  <RI>
0

>  <Rbt.Current_Directory>
/home/fstefaniak/projects/zuza/docking/adenine/1Y26

>  <Rbt.Executable>
rbdock ($Id: //depot/dev/client3/rdock/2013.1/src/exe/rbdock.cxx#4 $)

>  <Rbt.Library>
libRbt.so (2013.1, Build901 2013/11/27)

>  <Rbt.Parameter_File>
/home/fstefaniak/progs/rDock//data/scripts/dock_solv.prm

>  <Rbt.Receptor>
1y26.prm

>  <SCORE>
-42.1288

>  <SCORE.INTER>
-21.855

>  <SCORE.INTER.CONST>
1

>  <SCORE.INTER.POLAR>
-3.26435

>  <SCORE.INTER.ROT>
2

>  <SCORE.INTER.SOLV>
15.434

>  <SCORE.INTER.VDW>
-13.7668

>  <SCORE.INTER.norm>
-1.98682

>  <SCORE.INTRA>
2.07206

>  <SCORE.INTRA.DIHEDRAL>
-0.0125486

>  <SCORE.INTRA.DIHEDRAL.0>
1.06901

>  <SCORE.INTRA.POLAR>
0

>  <SCORE.INTRA.POLAR.0>
0

>  <SCORE.INTRA.REPUL>
0

>  <SCORE.INTRA.REPUL.0>
0

>  <SCORE.INTRA.SOLV>
0.307835

>  <SCORE.INTRA.SOLV.lig_0>
-19.2806

>  <SCORE.INTRA.VDW>
1.92442

>  <SCORE.INTRA.VDW.0>
-0.344215

>  <SCORE.INTRA.norm>
0.188369

>  <SCORE.RESTR>
0

>  <SCORE.RESTR.CAVITY>
0

>  <SCORE.RESTR.norm>
0

>  <SCORE.SYSTEM>
-22.3459

>  <SCORE.SYSTEM.CONST>
0

>  <SCORE.SYSTEM.DIHEDRAL>
6.18273

>  <SCORE.SYSTEM.POLAR>
-3.51577

>  <SCORE.SYSTEM.SOLV>
0.43693

>  <SCORE.SYSTEM.VDW>
-5.38458

>  <SCORE.SYSTEM.norm>
-2.03144

>  <SCORE.heavy>
11

>  <SCORE.norm>
-3.82989

$$$$
P108001464
 OpenBabel12072022103D
libRbt.so/2013.1/901 2013/11/27
 18 19  0  0  0  0  0  0  0  0999 V2000
   22.6139  -13.9979    5.2883 C   0  0  0  0  0  0  0  0  0  0  0  0
   23.7606  -14.4338    4.6039 C   0  0  0  0  0  0  0  0  0  0  0  0
   23.7433  -15.6273    3.8793 C   0  0  0  0  0  0  0  0  0  0  0  0
   22.5693  -16.3521    3.8545 C   0  0  0  0  0  0  0  0  0  0  0  0
   21.4358  -15.9357    4.5356 C   0  0  0  0  0  0  0  0  0  0  0  0
   21.4388  -14.7539    5.2611 C   0  0  0  0  0  0  0  0  0  0  0  0
   20.3570  -16.9456    4.3731 C   0  0  1  0  0  0  0  0  0  0  0  0
   20.9827  -17.7786    3.2369 C   0  0  0  0  0  0  0  0  0  0  0  0
   22.4152  -17.5372    3.1861 O   0  0  0  0  0  0  0  0  0  0  0  0
   20.2018  -17.7128    5.5993 N   0  0  0  0  0  0  0  0  0  0  0  0
   19.0609  -18.4034    5.8504 C   0  0  0  0  0  0  0  0  0  0  0  0
   18.0737  -18.5360    5.0219 N   0  0  0  0  0  0  0  0  0  0  0  0
   17.0626  -19.3341    5.5833 O   0  0  0  0  0  0  0  0  0  0  0  0
   19.1076  -18.9502    7.0917 N   0  0  0  0  0  0  0  0  0  0  0  0
   20.5708  -17.2496    6.4205 H   0  0  0  0  0  0  0  0  0  0  0  0
   17.3985  -20.2336    5.4138 H   0  0  0  0  0  0  0  0  0  0  0  0
   20.0578  -19.0301    7.4323 H   0  0  0  0  0  0  0  0  0  0  0  0
   18.6684  -19.8673    7.0511 H   0  0  0  0  0  0  0  0  0  0  0  0
  1  2  2  0  0  0  0
  1  6  1  0  0  0  0
  2  3  1  0  0  0  0
  3  4  2  0  0  0  0
  4  5  1  0  0  0  0
  4  9  1  0  0  0  0
  5  6  2  0  0  0  0
  5  7  1  0  0  0  0
  7  8  1  0  0  0  0
  7 10  1  1  0  0  0
  8  9  1  0  0  0  0
 10 11  1  0  0  0  0
 10 15  1  0  0  0  0
 11 12  2  0  0  0  0
 11 14  1  0  0  0  0
 12 13  1  0  0  0  0
 13 16  1  0  0  0  0
 14 17  1  0  0  0  0
 14 18  1  0  0  0  0
M  END
>  <CHROM.0>
-166.09397342,-60.01948572,-59.13195805,-52.97946278,-173.94282182,60.68249022
-52.06391828,65.62294154,-166.67339303,160.60514293

>  <CHROM.1>
160.41978442,5.45603447,-20.71215885,-81.88174498,20.81452340,-17.00053209
4.84508601,0.24402146,0.66268453,0.81443553

>  <Name>
P108001464

>  <RI>
0

>  <Rbt.Current_Directory>
/home/fstefaniak/projects/zuza/docking/adenine/1Y26

>  <Rbt.Executable>
rbdock ($Id: //depot/dev/client3/rdock/2013.1/src/exe/rbdock.cxx#4 $)

>  <Rbt.Library>
libRbt.so (2013.1, Build901 2013/11/27)

>  <Rbt.Parameter_File>
/home/fstefaniak/progs/rDock//data/scripts/dock_solv.prm

>  <Rbt.Receptor>
1y26.prm

>  <SCORE>
-56.3191

>  <SCORE.INTER>
-37.4461

>  <SCORE.INTER.CONST>
1

>  <SCORE.INTER.POLAR>
-4.38779

>  <SCORE.INTER.ROT>
3

>  <SCORE.INTER.SOLV>
14.1532

>  <SCORE.INTER.VDW>
-20.6558

>  <SCORE.INTER.norm>
-2.67472

>  <SCORE.INTRA>
0.116221

>  <SCORE.INTRA.DIHEDRAL>
-1.43522

>  <SCORE.INTRA.DIHEDRAL.0>
3.5993

>  <SCORE.INTRA.POLAR>
0.179787

>  <SCORE.INTRA.POLAR.0>
-0.179787

>  <SCORE.INTRA.REPUL>
0

>  <SCORE.INTRA.REPUL.0>
0

>  <SCORE.INTRA.SOLV>
0.0226864

>  <SCORE.INTRA.SOLV.lig_0>
-13.9407

>  <SCORE.INTRA.VDW>
0.211212

>  <SCORE.INTRA.VDW.0>
-0.739286

>  <SCORE.INTRA.norm>
0.00830149

>  <SCORE.RESTR>
0

>  <SCORE.RESTR.CAVITY>
0

>  <SCORE.RESTR.norm>
0

>  <SCORE.SYSTEM>
-18.9892

>  <SCORE.SYSTEM.CONST>
0

>  <SCORE.SYSTEM.DIHEDRAL>
6.18349

>  <SCORE.SYSTEM.POLAR>
-3.22272

>  <SCORE.SYSTEM.SOLV>
0.0585895

>  <SCORE.SYSTEM.VDW>
-3.99777

>  <SCORE.SYSTEM.norm>
-1.35637

>  <SCORE.heavy>
14

>  <SCORE.norm>
-4.02279

$$$$
P108001464
 OpenBabel12072022103D
libRbt.so/2013.1/901 2013/11/27
 18 19  0  0  0  0  0  0  0  0999 V2000
   22.5666  -14.0616    5.3384 C   0  0  0  0  0  0  0  0  0  0  0  0
   23.7085  -14.4675    4.6281 C   0  0  0  0  0  0  0  0  0  0  0  0
   23.6935  -15.6416    3.8723 C   0  0  0  0  0  0  0  0  0  0  0  0
   22.5264  -16.3772    3.8431 C   0  0  0  0  0  0  0  0  0  0  0  0
   21.3979  -15.9905    4.5494 C   0  0  0  0  0  0  0  0  0  0  0  0
   21.3987  -14.8284    5.3060 C   0  0  0  0  0  0  0  0  0  0  0  0
   20.3269  -17.0065    4.3737 C   0  0  1  0  0  0  0  0  0  0  0  0
   20.9459  -17.8028    3.2079 C   0  0  0  0  0  0  0  0  0  0  0  0
   22.3753  -17.5457    3.1453 O   0  0  0  0  0  0  0  0  0  0  0  0
   20.1951  -17.8076    5.5809 N   0  0  0  0  0  0  0  0  0  0  0  0
   19.0065  -18.3677    5.9201 C   0  0  0  0  0  0  0  0  0  0  0  0
   18.0668  -18.6819    5.0854 N   0  0  0  0  0  0  0  0  0  0  0  0
   16.9828  -19.2677    5.7609 O   0  0  0  0  0  0  0  0  0  0  0  0
   18.9479  -18.5667    7.2613 N   0  0  0  0  0  0  0  0  0  0  0  0
   20.6951  -17.4318    6.3771 H   0  0  0  0  0  0  0  0  0  0  0  0
   17.3745  -20.0982    6.0886 H   0  0  0  0  0  0  0  0  0  0  0  0
   18.7664  -19.5361    7.4905 H   0  0  0  0  0  0  0  0  0  0  0  0
   18.2143  -17.9710    7.6387 H   0  0  0  0  0  0  0  0  0  0  0  0
  1  2  2  0  0  0  0
  1  6  1  0  0  0  0
  2  3  1  0  0  0  0
  3  4  2  0  0  0  0
  4  5  1  0  0  0  0
  4  9  1  0  0  0  0
  5  6  2  0  0  0  0
  5  7  1  0  0  0  0
  7  8  1  0  0  0  0
  7 10  1  1  0  0  0
  8  9  1  0  0  0  0
 10 11  1  0  0  0  0
 10 15  1  0  0  0  0
 11 12  2  0  0  0  0
 11 14  1  0  0  0  0
 12 13  1  0  0  0  0
 13 16  1  0  0  0  0
 14 17  1  0  0  0  0
 14 18  1  0  0  0  0
M  END
>  <CHROM.0>
-50.11835395,-62.69521095,-57.26597140,-51.67476296,-55.48398568,-175.96454495
-55.52799343,58.70579727,-167.52737325,161.04080941

>  <CHROM.1>
151.35415041,26.08630168,-123.46362859,-65.90637453,20.75759336,-16.99951817
4.88861753,0.18623750,0.66045472,0.84749730

>  <Name>
P108001464

>  <RI>
0

>  <Rbt.Current_Directory>
/home/fstefaniak/projects/zuza/docking/adenine/1Y26

>  <Rbt.Executable>
rbdock ($Id: //depot/dev/client3/rdock/2013.1/src/exe/rbdock.cxx#4 $)

>  <Rbt.Library>
libRbt.so (2013.1, Build901 2013/11/27)

>  <Rbt.Parameter_File>
/home/fstefaniak/progs/rDock//data/scripts/dock_solv.prm

>  <Rbt.Receptor>
1y26.prm

>  <SCORE>
-55.6375

>  <SCORE.INTER>
-35.1366

>  <SCORE.INTER.CONST>
1

>  <SCORE.INTER.POLAR>
-4.35471

>  <SCORE.INTER.ROT>
3

>  <SCORE.INTER.SOLV>
14.24

>  <SCORE.INTER.VDW>
-19.2554

>  <SCORE.INTER.norm>
-2.50976

>  <SCORE.INTRA>
0.610875

>  <SCORE.INTRA.DIHEDRAL>
-0.703186

>  <SCORE.INTRA.DIHEDRAL.0>
3.5993

>  <SCORE.INTRA.POLAR>
0.179787

>  <SCORE.INTRA.POLAR.0>
-0.179787

>  <SCORE.INTRA.REPUL>
0

>  <SCORE.INTRA.REPUL.0>
0

>  <SCORE.INTRA.SOLV>
0.0311267

>  <SCORE.INTRA.SOLV.lig_0>
-13.9407

>  <SCORE.INTRA.VDW>
0.335629

>  <SCORE.INTRA.VDW.0>
-0.739286

>  <SCORE.INTRA.norm>
0.0436339

>  <SCORE.RESTR>
0

>  <SCORE.RESTR.CAVITY>
0

>  <SCORE.RESTR.norm>
0

>  <SCORE.SYSTEM>
-21.1118

>  <SCORE.SYSTEM.CONST>
0

>  <SCORE.SYSTEM.DIHEDRAL>
5.40306

>  <SCORE.SYSTEM.POLAR>
-3.43494

>  <SCORE.SYSTEM.SOLV>
0.296828

>  <SCORE.SYSTEM.VDW>
-4.52465

>  <SCORE.SYSTEM.norm>
-1.50798

>  <SCORE.heavy>
14

>  <SCORE.norm>
-3.97411

$$$$
P108001464
 OpenBabel12072022103D
libRbt.so/2013.1/901 2013/11/27
 18 19  0  0  0  0  0  0  0  0999 V2000
   18.7672  -19.0065    6.4875 C   0  0  0  0  0  0  0  0  0  0  0  0
   17.6627  -18.9755    5.6201 C   0  0  0  0  0  0  0  0  0  0  0  0
   17.7847  -18.4428    4.3351 C   0  0  0  0  0  0  0  0  0  0  0  0
   19.0184  -17.9594    3.9497 C   0  0  0  0  0  0  0  0  0  0  0  0
   20.1115  -17.9757    4.8023 C   0  0  0  0  0  0  0  0  0  0  0  0
   20.0048  -18.4994    6.0819 C   0  0  0  0  0  0  0  0  0  0  0  0
   21.2755  -17.3370    4.1335 C   0  0  1  0  0  0  0  0  0  0  0  0
   20.7245  -17.2902    2.6946 C   0  0  0  0  0  0  0  0  0  0  0  0
   19.2761  -17.4104    2.7220 O   0  0  0  0  0  0  0  0  0  0  0  0
   21.5001  -16.0085    4.6823 N   0  0  0  0  0  0  0  0  0  0  0  0
   22.5066  -15.2241    4.2205 C   0  0  0  0  0  0  0  0  0  0  0  0
   22.4063  -14.3870    3.2368 N   0  0  0  0  0  0  0  0  0  0  0  0
   23.6236  -13.7148    3.0352 O   0  0  0  0  0  0  0  0  0  0  0  0
   23.6334  -15.4308    4.9482 N   0  0  0  0  0  0  0  0  0  0  0  0
   21.3904  -15.9579    5.6875 H   0  0  0  0  0  0  0  0  0  0  0  0
   23.5945  -13.0322    3.7307 H   0  0  0  0  0  0  0  0  0  0  0  0
   24.2026  -16.1720    4.5583 H   0  0  0  0  0  0  0  0  0  0  0  0
   23.3584  -15.6602    5.9007 H   0  0  0  0  0  0  0  0  0  0  0  0
  1  2  2  0  0  0  0
  1  6  1  0  0  0  0
  2  3  1  0  0  0  0
  3  4  2  0  0  0  0
  4  5  1  0  0  0  0
  4  9  1  0  0  0  0
  5  6  2  0  0  0  0
  5  7  1  0  0  0  0
  7  8  1  0  0  0  0
  7 10  1  1  0  0  0
  8  9  1  0  0  0  0
 10 11  1  0  0  0  0
 10 15  1  0  0  0  0
 11 12  2  0  0  0  0
 11 14  1  0  0  0  0
 12 13  1  0  0  0  0
 13 16  1  0  0  0  0
 14 17  1  0  0  0  0
 14 18  1  0  0  0  0
M  END
>  <CHROM.0>
-52.41736052,-67.53152160,-52.80095415,-54.52773784,-56.87149602,-174.11802337
-57.74263738,-173.38241850,-167.32958481,160.50788031

>  <CHROM.1>
-179.52445198,89.70509703,89.76898920,-79.97095588,20.70296244,-16.86966957
4.31170373,-2.66803984,-0.60383961,-1.16954101

>  <Name>
P108001464

>  <RI>
0

>  <Rbt.Current_Directory>
/home/fstefaniak/projects/zuza/docking/adenine/1Y26

>  <Rbt.Executable>
rbdock ($Id: //depot/dev/client3/rdock/2013.1/src/exe/rbdock.cxx#4 $)

>  <Rbt.Library>
libRbt.so (2013.1, Build901 2013/11/27)

>  <Rbt.Parameter_File>
/home/fstefaniak/progs/rDock//data/scripts/dock_solv.prm

>  <Rbt.Receptor>
1y26.prm

>  <SCORE>
-55.1262

>  <SCORE.INTER>
-32.3354

>  <SCORE.INTER.CONST>
1

>  <SCORE.INTER.POLAR>
-4.31505

>  <SCORE.INTER.ROT>
3

>  <SCORE.INTER.SOLV>
12.3902

>  <SCORE.INTER.VDW>
-16.9035

>  <SCORE.INTER.norm>
-2.30967

>  <SCORE.INTRA>
-0.479111

>  <SCORE.INTRA.DIHEDRAL>
-2.22144

>  <SCORE.INTRA.DIHEDRAL.0>
3.5993

>  <SCORE.INTRA.POLAR>
0.179787

>  <SCORE.INTRA.POLAR.0>
-0.179787

>  <SCORE.INTRA.REPUL>
0

>  <SCORE.INTRA.REPUL.0>
0

>  <SCORE.INTRA.SOLV>
0.183811

>  <SCORE.INTRA.SOLV.lig_0>
-13.9407

>  <SCORE.INTRA.VDW>
-0.0715725

>  <SCORE.INTRA.VDW.0>
-0.739286

>  <SCORE.INTRA.norm>
-0.0342222

>  <SCORE.RESTR>
0

>  <SCORE.RESTR.CAVITY>
0

>  <SCORE.RESTR.norm>
0

>  <SCORE.SYSTEM>
-22.3117

>  <SCORE.SYSTEM.CONST>
0

>  <SCORE.SYSTEM.DIHEDRAL>
5.73053

>  <SCORE.SYSTEM.POLAR>
-3.39971

>  <SCORE.SYSTEM.SOLV>
0.306656

>  <SCORE.SYSTEM.VDW>
-5.55446

>  <SCORE.SYSTEM.norm>
-1.59369

>  <SCORE.heavy>
14

>  <SCORE.norm>
-3.93758

$$$$
P108184382
 OpenBabel12072022103D
libRbt.so/2013.1/901 2013/11/27
 15 16  0  0  0  0  0  0  0  0999 V2000
   25.0376  -17.5594    4.3528 C   0  0  0  0  0  0  0  0  0  0  0  0
   23.8869  -17.1408    3.6462 C   0  0  0  0  0  0  0  0  0  0  0  0
   23.4813  -15.9534    4.2194 C   0  0  0  0  0  0  0  0  0  0  0  0
   24.3291  -15.6234    5.2428 O   0  0  0  0  0  0  0  0  0  0  0  0
   25.2621  -16.6080    5.3181 C   0  0  0  0  0  0  0  0  0  0  0  0
   22.3471  -15.0147    3.9229 C   0  0  1  0  0  0  0  0  0  0  0  0
   21.3293  -14.9836    5.0591 C   0  0  0  0  0  0  0  0  0  0  0  0
   21.9774  -14.0972    6.0942 N   0  3  0  0  0  0  0  0  0  0  0  0
   21.3065  -13.5690    6.6583 H   0  0  0  0  0  0  0  0  0  0  0  0
   22.5411  -14.6973    6.7119 H   0  0  0  0  0  0  0  0  0  0  0  0
   22.9478  -13.1908    5.3587 C   0  0  0  0  0  0  0  0  0  0  0  0
   22.7376  -13.5445    3.9083 C   0  0  1  0  0  0  0  0  0  0  0  0
   23.9313  -13.1329    3.0865 C   0  0  0  0  0  0  0  0  0  0  0  0
   24.2561  -13.9624    2.1988 O   0  0  0  0  0  0  0  0  0  0  0  0
   24.4094  -12.0070    3.3801 O   0  5  0  0  0  0  0  0  0  0  0  0
  1  2  1  0  0  0  0
  1  5  2  0  0  0  0
  2  3  2  0  0  0  0
  3  4  1  0  0  0  0
  4  5  1  0  0  0  0
  6  7  1  0  0  0  0
  6 12  1  0  0  0  0
  6  3  1  1  0  0  0
  7  8  1  0  0  0  0
  8  9  1  0  0  0  0
  8 10  1  0  0  0  0
  8 11  1  0  0  0  0
 11 12  1  0  0  0  0
 12 13  1  6  0  0  0
 13 14  2  0  0  0  0
 13 15  1  0  0  0  0
M  CHG  2   8   1  15  -1
M  END
>  <CHROM.0>
-48.35192523,-172.10877173,171.84753841,-52.35829099,-173.38495202,-62.31233616
78.67125853,61.50101237,-166.94502752,161.48616625

>  <CHROM.1>
113.51613364,19.48391360,23.52886846,-14.76754824,4.31138615,-1.19562811
0.70692653,-0.41828925

>  <Name>
P108184382

>  <RI>
0

>  <Rbt.Current_Directory>
/home/fstefaniak/projects/zuza/docking/adenine/1Y26

>  <Rbt.Executable>
rbdock ($Id: //depot/dev/client3/rdock/2013.1/src/exe/rbdock.cxx#4 $)

>  <Rbt.Library>
libRbt.so (2013.1, Build901 2013/11/27)

>  <Rbt.Parameter_File>
/home/fstefaniak/progs/rDock//data/scripts/dock_solv.prm

>  <Rbt.Receptor>
1y26.prm

>  <SCORE>
-46.1521

>  <SCORE.INTER>
-25.7562

>  <SCORE.INTER.CONST>
1

>  <SCORE.INTER.POLAR>
-3.80405

>  <SCORE.INTER.ROT>
2

>  <SCORE.INTER.SOLV>
20.9752

>  <SCORE.INTER.VDW>
-16.4157

>  <SCORE.INTER.norm>
-1.98124

>  <SCORE.INTRA>
-1.56384

>  <SCORE.INTRA.DIHEDRAL>
-1.90194

>  <SCORE.INTRA.DIHEDRAL.0>
3.00737

>  <SCORE.INTRA.POLAR>
0.075052

>  <SCORE.INTRA.POLAR.0>
-0.0775999

>  <SCORE.INTRA.REPUL>
0

>  <SCORE.INTRA.REPUL.0>
0

>  <SCORE.INTRA.SOLV>
0.441706

>  <SCORE.INTRA.SOLV.lig_0>
-47.2313

>  <SCORE.INTRA.VDW>
-1.08889

>  <SCORE.INTRA.VDW.0>
0.78977

>  <SCORE.INTRA.norm>
-0.120295

>  <SCORE.RESTR>
1.44913

>  <SCORE.RESTR.CAVITY>
1.44913

>  <SCORE.RESTR.norm>
0.111471

>  <SCORE.SYSTEM>
-20.2813

>  <SCORE.SYSTEM.CONST>
0

>  <SCORE.SYSTEM.DIHEDRAL>
7.57609

>  <SCORE.SYSTEM.POLAR>
-3.79057

>  <SCORE.SYSTEM.SOLV>
0.0370454

>  <SCORE.SYSTEM.VDW>
-3.42331

>  <SCORE.SYSTEM.norm>
-1.5601

>  <SCORE.heavy>
13

>  <SCORE.norm>
-3.55016

$$$$
P108184382
 OpenBabel12072022103D
libRbt.so/2013.1/901 2013/11/27
 15 16  0  0  0  0  0  0  0  0999 V2000
   19.2882  -20.0148    6.4639 C   0  0  0  0  0  0  0  0  0  0  0  0
   19.2894  -19.4541    5.1661 C   0  0  0  0  0  0  0  0  0  0  0  0
   19.4403  -18.0920    5.3242 C   0  0  0  0  0  0  0  0  0  0  0  0
   19.5328  -17.7910    6.6568 O   0  0  0  0  0  0  0  0  0  0  0  0
   19.4315  -18.9631    7.3362 C   0  0  0  0  0  0  0  0  0  0  0  0
   19.5266  -16.9567    4.3449 C   0  0  1  0  0  0  0  0  0  0  0  0
   20.8134  -16.1561    4.5219 C   0  0  0  0  0  0  0  0  0  0  0  0
   21.8586  -17.0066    3.8426 N   0  3  0  0  0  0  0  0  0  0  0  0
   22.6199  -16.4640    3.4261 H   0  0  0  0  0  0  0  0  0  0  0  0
   22.2464  -17.6488    4.5472 H   0  0  0  0  0  0  0  0  0  0  0  0
   21.1375  -17.8634    2.8178 C   0  0  0  0  0  0  0  0  0  0  0  0
   19.7086  -17.3895    2.8979 C   0  0  1  0  0  0  0  0  0  0  0  0
   18.7745  -18.4337    2.3441 C   0  0  0  0  0  0  0  0  0  0  0  0
   19.0235  -18.7705    1.1584 O   0  0  0  0  0  0  0  0  0  0  0  0
   17.9043  -18.8443    3.1544 O   0  5  0  0  0  0  0  0  0  0  0  0
  1  2  1  0  0  0  0
  1  5  2  0  0  0  0
  2  3  2  0  0  0  0
  3  4  1  0  0  0  0
  4  5  1  0  0  0  0
  6  7  1  0  0  0  0
  6 12  1  0  0  0  0
  6  3  1  1  0  0  0
  7  8  1  0  0  0  0
  8  9  1  0  0  0  0
  8 10  1  0  0  0  0
  8 11  1  0  0  0  0
 11 12  1  0  0  0  0
 12 13  1  1  0  0  0
 13 14  2  0  0  0  0
 13 15  1  0  0  0  0
M  CHG  2   8   1  15  -1
M  END
>  <CHROM.0>
-52.11566344,-172.98956701,-53.54358795,-53.09328222,-53.86333484,54.44851540
-62.39841819,-54.31693266,-166.24076734,160.66606903

>  <CHROM.1>
-123.10569778,-177.49951616,19.69289122,-18.11798400,4.26971816,1.60238352
0.75768520,1.69933759

>  <Name>
P108184382

>  <RI>
0

>  <Rbt.Current_Directory>
/home/fstefaniak/projects/zuza/docking/adenine/1Y26

>  <Rbt.Executable>
rbdock ($Id: //depot/dev/client3/rdock/2013.1/src/exe/rbdock.cxx#4 $)

>  <Rbt.Library>
libRbt.so (2013.1, Build901 2013/11/27)

>  <Rbt.Parameter_File>
/home/fstefaniak/progs/rDock//data/scripts/dock_solv.prm

>  <Rbt.Receptor>
1y26.prm

>  <SCORE>
-39.5152

>  <SCORE.INTER>
-18.065

>  <SCORE.INTER.CONST>
1

>  <SCORE.INTER.POLAR>
-2.57866

>  <SCORE.INTER.ROT>
2

>  <SCORE.INTER.SOLV>
25.6278

>  <SCORE.INTER.VDW>
-16.9237

>  <SCORE.INTER.norm>
-1.38962

>  <SCORE.INTRA>
0.0449299

>  <SCORE.INTRA.DIHEDRAL>
-1.8814

>  <SCORE.INTRA.DIHEDRAL.0>
3.00737

>  <SCORE.INTRA.POLAR>
0.0775999

>  <SCORE.INTRA.POLAR.0>
-0.0775999

>  <SCORE.INTRA.REPUL>
0

>  <SCORE.INTRA.REPUL.0>
0

>  <SCORE.INTRA.SOLV>
-0.00847984

>  <SCORE.INTRA.SOLV.lig_0>
-47.2313

>  <SCORE.INTRA.VDW>
0.726028

>  <SCORE.INTRA.VDW.0>
0.78977

>  <SCORE.INTRA.norm>
0.00345614

>  <SCORE.RESTR>
0

>  <SCORE.RESTR.CAVITY>
0

>  <SCORE.RESTR.norm>
0

>  <SCORE.SYSTEM>
-21.4951

>  <SCORE.SYSTEM.CONST>
0

>  <SCORE.SYSTEM.DIHEDRAL>
5.90739

>  <SCORE.SYSTEM.POLAR>
-3.45362

>  <SCORE.SYSTEM.SOLV>
0.43379

>  <SCORE.SYSTEM.VDW>
-4.93174

>  <SCORE.SYSTEM.norm>
-1.65347

>  <SCORE.heavy>
13

>  <SCORE.norm>
-3.03963

$$$$
P108184382
 OpenBabel12072022103D
libRbt.so/2013.1/901 2013/11/27
 15 16  0  0  0  0  0  0  0  0999 V2000
   25.1067  -17.4580    4.3261 C   0  0  0  0  0  0  0  0  0  0  0  0
   23.9304  -17.1096    3.6237 C   0  0  0  0  0  0  0  0  0  0  0  0
   23.4423  -15.9625    4.2144 C   0  0  0  0  0  0  0  0  0  0  0  0
   24.2639  -15.5903    5.2446 O   0  0  0  0  0  0  0  0  0  0  0  0
   25.2633  -16.5084    5.3066 C   0  0  0  0  0  0  0  0  0  0  0  0
   22.2457  -15.1007    3.9301 C   0  0  1  0  0  0  0  0  0  0  0  0
   21.2958  -15.0437    5.1227 C   0  0  0  0  0  0  0  0  0  0  0  0
   21.9566  -14.0613    6.0582 N   0  3  0  0  0  0  0  0  0  0  0  0
   21.2934  -13.5298    6.6284 H   0  0  0  0  0  0  0  0  0  0  0  0
   22.5857  -14.5918    6.6765 H   0  0  0  0  0  0  0  0  0  0  0  0
   22.8342  -13.1597    5.2089 C   0  0  0  0  0  0  0  0  0  0  0  0
   22.5582  -13.6176    3.7993 C   0  0  1  0  0  0  0  0  0  0  0  0
   23.6790  -13.2042    2.8813 C   0  0  0  0  0  0  0  0  0  0  0  0
   23.3425  -12.3725    2.0001 O   0  0  0  0  0  0  0  0  0  0  0  0
   24.7948  -13.7203    3.1476 O   0  5  0  0  0  0  0  0  0  0  0  0
  1  2  1  0  0  0  0
  1  5  2  0  0  0  0
  2  3  2  0  0  0  0
  3  4  1  0  0  0  0
  4  5  1  0  0  0  0
  6  7  1  0  0  0  0
  6 12  1  0  0  0  0
  6  3  1  1  0  0  0
  7  8  1  0  0  0  0
  8  9  1  0  0  0  0
  8 10  1  0  0  0  0
  8 11  1  0  0  0  0
 11 12  1  0  0  0  0
 12 13  1  6  0  0  0
 13 14  2  0  0  0  0
 13 15  1  0  0  0  0
M  CHG  2   8   1  15  -1
M  END
>  <CHROM.0>
-48.89847798,-77.54655888,-56.63879533,-52.43087927,57.95519482,-63.29415362
-57.49122056,-51.75656680,-167.29090395,160.70021758

>  <CHROM.1>
119.41566365,124.60102224,23.43234792,-14.77423760,4.23804584,-1.07492265
0.67196894,-0.63599062

>  <Name>
P108184382

>  <RI>
0

>  <Rbt.Current_Directory>
/home/fstefaniak/projects/zuza/docking/adenine/1Y26

>  <Rbt.Executable>
rbdock ($Id: //depot/dev/client3/rdock/2013.1/src/exe/rbdock.cxx#4 $)

>  <Rbt.Library>
libRbt.so (2013.1, Build901 2013/11/27)

>  <Rbt.Parameter_File>
/home/fstefaniak/progs/rDock//data/scripts/dock_solv.prm

>  <Rbt.Receptor>
1y26.prm

>  <SCORE>
-38.2111

>  <SCORE.INTER>
-16.7377

>  <SCORE.INTER.CONST>
1

>  <SCORE.INTER.POLAR>
-2.29712

>  <SCORE.INTER.ROT>
2

>  <SCORE.INTER.SOLV>
22.0025

>  <SCORE.INTER.VDW>
-15.7689

>  <SCORE.INTER.norm>
-1.28752

>  <SCORE.INTRA>
-2.37289

>  <SCORE.INTRA.DIHEDRAL>
-1.89226

>  <SCORE.INTRA.DIHEDRAL.0>
3.00737

>  <SCORE.INTRA.POLAR>
0.0421786

>  <SCORE.INTRA.POLAR.0>
-0.0775999

>  <SCORE.INTRA.REPUL>
0

>  <SCORE.INTRA.REPUL.0>
0

>  <SCORE.INTRA.SOLV>
0.884068

>  <SCORE.INTRA.SOLV.lig_0>
-47.2313

>  <SCORE.INTRA.VDW>
-2.0122

>  <SCORE.INTRA.VDW.0>
0.78977

>  <SCORE.INTRA.norm>
-0.18253

>  <SCORE.RESTR>
1.14376

>  <SCORE.RESTR.CAVITY>
1.14376

>  <SCORE.RESTR.norm>
0.0879812

>  <SCORE.SYSTEM>
-20.2442

>  <SCORE.SYSTEM.CONST>
0

>  <SCORE.SYSTEM.DIHEDRAL>
7.03628

>  <SCORE.SYSTEM.POLAR>
-3.48161

>  <SCORE.SYSTEM.SOLV>
0.443584

>  <SCORE.SYSTEM.VDW>
-4.3841

>  <SCORE.SYSTEM.norm>
-1.55725

>  <SCORE.heavy>
13

>  <SCORE.norm>
-2.93932

$$$$
P108871030
 OpenBabel12072022103D
libRbt.so/2013.1/901 2013/11/27
 12 12  0  0  0  0  0  0  0  0999 V2000
   18.4352  -18.5530    1.8184 C   0  0  0  0  0  0  0  0  0  0  0  0
   18.7951  -18.1723    3.1626 N   0  0  0  0  0  0  0  0  0  0  0  0
   19.1076  -19.1515    4.1703 C   0  0  0  0  0  0  0  0  0  0  0  0
   19.2950  -18.3076    5.4166 C   0  0  0  0  0  0  0  0  0  0  0  0
   19.9435  -17.0209    4.8909 C   0  0  2  0  0  0  0  0  0  0  0  0
   19.3471  -16.9321    3.4760 C   0  0  0  0  0  0  0  0  0  0  0  0
   19.3931  -15.9538    2.7444 O   0  0  0  0  0  0  0  0  0  0  0  0
   21.4116  -17.1712    4.8626 N   0  0  0  0  0  0  0  0  0  0  0  0
   22.0593  -16.0360    4.2025 C   0  0  0  0  0  0  0  0  0  0  0  0
   23.4985  -16.0601    4.5051 C   0  0  0  0  0  0  0  0  0  0  0  0
   24.6751  -16.0809    4.7468 C   0  0  0  0  0  0  0  0  0  0  0  0
   21.7539  -17.2100    5.8217 H   0  0  0  0  0  0  0  0  0  0  0  0
  1  2  1  0  0  0  0
  2  3  1  0  0  0  0
  2  6  1  0  0  0  0
  3  4  1  0  0  0  0
  4  5  1  0  0  0  0
  5  6  1  0  0  0  0
  5  8  1  6  0  0  0
  6  7  2  0  0  0  0
  8  9  1  0  0  0  0
  8 12  1  0  0  0  0
  9 10  1  0  0  0  0
 10 11  3  0  0  0  0
M  END
>  <CHROM.0>
-46.26080976,-62.96642204,-58.70003623,-53.73811341,-57.29926785,-63.42916962
-62.06046536,-178.75494627,-166.91152396,159.49408355

>  <CHROM.1>
172.43474869,165.47755207,112.84326423,20.47446554,-17.24206391,3.97038232
-3.13475112,0.49053927,2.18144908

>  <Name>
P108871030

>  <RI>
0

>  <Rbt.Current_Directory>
/home/fstefaniak/projects/zuza/docking/adenine/1Y26

>  <Rbt.Executable>
rbdock ($Id: //depot/dev/client3/rdock/2013.1/src/exe/rbdock.cxx#4 $)

>  <Rbt.Library>
libRbt.so (2013.1, Build901 2013/11/27)

>  <Rbt.Parameter_File>
/home/fstefaniak/progs/rDock//data/scripts/dock_solv.prm

>  <Rbt.Receptor>
1y26.prm

>  <SCORE>
-43.8417

>  <SCORE.INTER>
-21.5212

>  <SCORE.INTER.CONST>
1

>  <SCORE.INTER.POLAR>
-1.75477

>  <SCORE.INTER.ROT>
3

>  <SCORE.INTER.SOLV>
11.8788

>  <SCORE.INTER.VDW>
-18.0579

>  <SCORE.INTER.norm>
-1.95648

>  <SCORE.INTRA>
0.364909

>  <SCORE.INTRA.DIHEDRAL>
0.275025

>  <SCORE.INTRA.DIHEDRAL.0>
0.211263

>  <SCORE.INTRA.POLAR>
0

>  <SCORE.INTRA.POLAR.0>
0

>  <SCORE.INTRA.REPUL>
0

>  <SCORE.INTRA.REPUL.0>
0

>  <SCORE.INTRA.SOLV>
0.0317477

>  <SCORE.INTRA.SOLV.lig_0>
-11.7728

>  <SCORE.INTRA.VDW>
0.211522

>  <SCORE.INTRA.VDW.0>
-0.380834

>  <SCORE.INTRA.norm>
0.0331735

>  <SCORE.RESTR>
0

>  <SCORE.RESTR.CAVITY>
0

>  <SCORE.RESTR.norm>
0

>  <SCORE.SYSTEM>
-22.6854

>  <SCORE.SYSTEM.CONST>
0

>  <SCORE.SYSTEM.DIHEDRAL>
5.80549

>  <SCORE.SYSTEM.POLAR>
-3.47755

>  <SCORE.SYSTEM.SOLV>
0.432752

>  <SCORE.SYSTEM.VDW>
-5.61116

>  <SCORE.SYSTEM.norm>
-2.06231

>  <SCORE.heavy>
11

>  <SCORE.norm>
-3.98561

$$$$
P108871030
 OpenBabel12072022103D
libRbt.so/2013.1/901 2013/11/27
 12 12  0  0  0  0  0  0  0  0999 V2000
   18.4146  -18.4664    1.8423 C   0  0  0  0  0  0  0  0  0  0  0  0
   18.7913  -18.1050    3.1873 N   0  0  0  0  0  0  0  0  0  0  0  0
   19.0879  -19.0994    4.1849 C   0  0  0  0  0  0  0  0  0  0  0  0
   19.3019  -18.2703    5.4369 C   0  0  0  0  0  0  0  0  0  0  0  0
   19.9759  -16.9940    4.9176 C   0  0  2  0  0  0  0  0  0  0  0  0
   19.3729  -16.8802    3.5073 C   0  0  0  0  0  0  0  0  0  0  0  0
   19.4363  -15.8971    2.7834 O   0  0  0  0  0  0  0  0  0  0  0  0
   21.4400  -17.1770    4.8788 N   0  0  0  0  0  0  0  0  0  0  0  0
   22.1071  -16.0615    4.2045 C   0  0  0  0  0  0  0  0  0  0  0  0
   23.5428  -16.0958    4.5224 C   0  0  0  0  0  0  0  0  0  0  0  0
   24.7165  -16.1212    4.7771 C   0  0  0  0  0  0  0  0  0  0  0  0
   21.7892  -17.2158    5.8354 H   0  0  0  0  0  0  0  0  0  0  0  0
  1  2  1  0  0  0  0
  2  3  1  0  0  0  0
  2  6  1  0  0  0  0
  3  4  1  0  0  0  0
  4  5  1  0  0  0  0
  5  6  1  0  0  0  0
  5  8  1  6  0  0  0
  6  7  2  0  0  0  0
  8  9  1  0  0  0  0
  8 12  1  0  0  0  0
  9 10  1  0  0  0  0
 10 11  3  0  0  0  0
M  END
>  <CHROM.0>
-48.74935139,-56.78296553,-57.59654176,-50.25969273,-54.24182990,-61.44284462
-59.10038215,-176.73473338,-165.94413674,160.11334672

>  <CHROM.1>
171.50235603,164.10677270,153.04385196,20.49453621,-17.21589979,3.99282967
-3.12643972,0.47255879,2.18511133

>  <Name>
P108871030

>  <RI>
0

>  <Rbt.Current_Directory>
/home/fstefaniak/projects/zuza/docking/adenine/1Y26

>  <Rbt.Executable>
rbdock ($Id: //depot/dev/client3/rdock/2013.1/src/exe/rbdock.cxx#4 $)

>  <Rbt.Library>
libRbt.so (2013.1, Build901 2013/11/27)

>  <Rbt.Parameter_File>
/home/fstefaniak/progs/rDock//data/scripts/dock_solv.prm

>  <Rbt.Receptor>
1y26.prm

>  <SCORE>
-43.6635

>  <SCORE.INTER>
-21.5588

>  <SCORE.INTER.CONST>
1

>  <SCORE.INTER.POLAR>
-1.70468

>  <SCORE.INTER.ROT>
3

>  <SCORE.INTER.SOLV>
11.9444

>  <SCORE.INTER.VDW>
-18.2717

>  <SCORE.INTER.norm>
-1.95989

>  <SCORE.INTRA>
0.45598

>  <SCORE.INTRA.DIHEDRAL>
0.359608

>  <SCORE.INTRA.DIHEDRAL.0>
0.211263

>  <SCORE.INTRA.POLAR>
0

>  <SCORE.INTRA.POLAR.0>
0

>  <SCORE.INTRA.REPUL>
0

>  <SCORE.INTRA.REPUL.0>
0

>  <SCORE.INTRA.SOLV>
0.036736

>  <SCORE.INTRA.SOLV.lig_0>
-11.7728

>  <SCORE.INTRA.VDW>
0.257808

>  <SCORE.INTRA.VDW.0>
-0.380834

>  <SCORE.INTRA.norm>
0.0414527

>  <SCORE.RESTR>
0

>  <SCORE.RESTR.CAVITY>
0

>  <SCORE.RESTR.norm>
0

>  <SCORE.SYSTEM>
-22.5607

>  <SCORE.SYSTEM.CONST>
0

>  <SCORE.SYSTEM.DIHEDRAL>
5.90997

>  <SCORE.SYSTEM.POLAR>
-3.50949

>  <SCORE.SYSTEM.SOLV>
0.456639

>  <SCORE.SYSTEM.VDW>
-5.46437

>  <SCORE.SYSTEM.norm>
-2.05097

>  <SCORE.heavy>
11

>  <SCORE.norm>
-3.96941

$$$$
P108871030
 OpenBabel12072022103D
libRbt.so/2013.1/901 2013/11/27
 12 12  0  0  0  0  0  0  0  0999 V2000
   18.4310  -18.5494    1.8076 C   0  0  0  0  0  0  0  0  0  0  0  0
   18.7774  -18.1710    3.1560 N   0  0  0  0  0  0  0  0  0  0  0  0
   19.0623  -19.1525    4.1697 C   0  0  0  0  0  0  0  0  0  0  0  0
   19.2440  -18.3087    5.4170 C   0  0  0  0  0  0  0  0  0  0  0  0
   19.9175  -17.0321    4.8980 C   0  0  2  0  0  0  0  0  0  0  0  0
   19.3421  -16.9379    3.4748 C   0  0  0  0  0  0  0  0  0  0  0  0
   19.4117  -15.9618    2.7421 O   0  0  0  0  0  0  0  0  0  0  0  0
   21.3836  -17.2027    4.8905 N   0  0  0  0  0  0  0  0  0  0  0  0
   22.0552  -16.0844    4.2254 C   0  0  0  0  0  0  0  0  0  0  0  0
   23.5105  -16.2849    4.2977 C   0  0  0  0  0  0  0  0  0  0  0  0
   24.6983  -16.4535    4.3598 C   0  0  0  0  0  0  0  0  0  0  0  0
   21.7131  -17.2345    5.8543 H   0  0  0  0  0  0  0  0  0  0  0  0
  1  2  1  0  0  0  0
  2  3  1  0  0  0  0
  2  6  1  0  0  0  0
  3  4  1  0  0  0  0
  4  5  1  0  0  0  0
  5  6  1  0  0  0  0
  5  8  1  6  0  0  0
  6  7  2  0  0  0  0
  8  9  1  0  0  0  0
  8 12  1  0  0  0  0
  9 10  1  0  0  0  0
 10 11  3  0  0  0  0
M  END
>  <CHROM.0>
-48.61776110,-60.91762920,-55.39772203,-51.49810686,-57.91243814,-61.49765682
-58.51060705,-52.90771753,-167.75366016,160.47735131

>  <CHROM.1>
171.85663265,177.74939330,-3.50773164,20.46259795,-17.30114938,3.92440317
-3.11940904,0.43306955,2.11483008

>  <Name>
P108871030

>  <RI>
0

>  <Rbt.Current_Directory>
/home/fstefaniak/projects/zuza/docking/adenine/1Y26

>  <Rbt.Executable>
rbdock ($Id: //depot/dev/client3/rdock/2013.1/src/exe/rbdock.cxx#4 $)

>  <Rbt.Library>
libRbt.so (2013.1, Build901 2013/11/27)

>  <Rbt.Parameter_File>
/home/fstefaniak/progs/rDock//data/scripts/dock_solv.prm

>  <Rbt.Receptor>
1y26.prm

>  <SCORE>
-43.5609

>  <SCORE.INTER>
-21.4068

>  <SCORE.INTER.CONST>
1

>  <SCORE.INTER.POLAR>
-1.7899

>  <SCORE.INTER.ROT>
3

>  <SCORE.INTER.SOLV>
11.6602

>  <SCORE.INTER.VDW>
-17.7916

>  <SCORE.INTER.norm>
-1.94608

>  <SCORE.INTRA>
0.151769

>  <SCORE.INTRA.DIHEDRAL>
-0.0194508

>  <SCORE.INTRA.DIHEDRAL.0>
0.211263

>  <SCORE.INTRA.POLAR>
0

>  <SCORE.INTRA.POLAR.0>
0

>  <SCORE.INTRA.REPUL>
0

>  <SCORE.INTRA.REPUL.0>
0

>  <SCORE.INTRA.SOLV>
0.0437031

>  <SCORE.INTRA.SOLV.lig_0>
-11.7728

>  <SCORE.INTRA.VDW>
0.139643

>  <SCORE.INTRA.VDW.0>
-0.380834

>  <SCORE.INTRA.norm>
0.0137972

>  <SCORE.RESTR>
0

>  <SCORE.RESTR.CAVITY>
0

>  <SCORE.RESTR.norm>
0

>  <SCORE.SYSTEM>
-22.3058

>  <SCORE.SYSTEM.CONST>
0

>  <SCORE.SYSTEM.DIHEDRAL>
5.65498

>  <SCORE.SYSTEM.POLAR>
-3.50698

>  <SCORE.SYSTEM.SOLV>
0.664465

>  <SCORE.SYSTEM.VDW>
-5.28708

>  <SCORE.SYSTEM.norm>
-2.0278

>  <SCORE.heavy>
11

>  <SCORE.norm>
-3.96008

$$$$
P108902482
 OpenBabel12072022103D
libRbt.so/2013.1/901 2013/11/27
 14 13  0  0  0  0  0  0  0  0999 V2000
   19.9727  -16.7584    3.6918 C   0  0  0  0  0  0  0  0  0  0  0  0
   21.4389  -16.9135    4.0696 C   0  0  0  0  0  0  0  0  0  0  0  0
   22.2640  -15.6458    3.8463 C   0  0  2  0  0  0  0  0  0  0  0  0
   23.7555  -15.9273    4.1267 C   0  0  0  0  0  0  0  0  0  0  0  0
   24.0482  -16.3011    5.3409 N   0  0  0  0  0  0  0  0  0  0  0  0
   25.4304  -16.5251    5.4528 O   0  0  0  0  0  0  0  0  0  0  0  0
   24.6808  -15.7547    3.1315 N   0  0  0  0  0  0  0  0  0  0  0  0
   21.8090  -14.5645    4.7751 N   0  3  0  0  0  0  0  0  0  0  0  0
   21.8464  -14.9024    5.7451 H   0  0  0  0  0  0  0  0  0  0  0  0
   22.3363  -13.6899    4.7042 H   0  0  0  0  0  0  0  0  0  0  0  0
   20.8095  -14.3863    4.5908 H   0  0  0  0  0  0  0  0  0  0  0  0
   25.6624  -16.1189    6.3115 H   0  0  0  0  0  0  0  0  0  0  0  0
   24.8684  -16.5105    2.4803 H   0  0  0  0  0  0  0  0  0  0  0  0
   25.5372  -15.3166    3.4756 H   0  0  0  0  0  0  0  0  0  0  0  0
  1  2  1  0  0  0  0
  3  4  1  0  0  0  0
  3  8  1  0  0  0  0
  3  2  1  1  0  0  0
  4  5  2  0  0  0  0
  4  7  1  0  0  0  0
  5  6  1  0  0  0  0
  6 12  1  0  0  0  0
  7 13  1  0  0  0  0
  7 14  1  0  0  0  0
  8  9  1  0  0  0  0
  8 10  1  0  0  0  0
  8 11  1  0  0  0  0
M  CHG  1   8   1
M  END
>  <CHROM.0>
-48.37699601,-60.94129847,-53.66936460,-52.33168131,-54.76760207,-55.35322685
-59.16096403,-175.04175782,-165.64776875,158.39429666

>  <CHROM.1>
-61.46066582,55.00601063,-174.70290703,-86.22136142,137.30399320,22.96268743
-16.02279414,4.33779277,-2.99842805,-0.11503244,0.84487462

>  <Name>
P108902482

>  <RI>
0

>  <Rbt.Current_Directory>
/home/fstefaniak/projects/zuza/docking/adenine/1Y26

>  <Rbt.Executable>
rbdock ($Id: //depot/dev/client3/rdock/2013.1/src/exe/rbdock.cxx#4 $)

>  <Rbt.Library>
libRbt.so (2013.1, Build901 2013/11/27)

>  <Rbt.Parameter_File>
/home/fstefaniak/progs/rDock//data/scripts/dock_solv.prm

>  <Rbt.Receptor>
1y26.prm

>  <SCORE>
-54.8482

>  <SCORE.INTER>
-32.2844

>  <SCORE.INTER.CONST>
1

>  <SCORE.INTER.POLAR>
-4.96096

>  <SCORE.INTER.ROT>
3

>  <SCORE.INTER.SOLV>
14.9827

>  <SCORE.INTER.VDW>
-15.5806

>  <SCORE.INTER.norm>
-4.03556

>  <SCORE.INTRA>
-0.132703

>  <SCORE.INTRA.DIHEDRAL>
-0.994267

>  <SCORE.INTRA.DIHEDRAL.0>
3.70319

>  <SCORE.INTRA.POLAR>
0.0875306

>  <SCORE.INTRA.POLAR.0>
-0.0875306

>  <SCORE.INTRA.REPUL>
0

>  <SCORE.INTRA.REPUL.0>
0

>  <SCORE.INTRA.SOLV>
-0.252249

>  <SCORE.INTRA.SOLV.lig_0>
-28.1699

>  <SCORE.INTRA.VDW>
0.192951

>  <SCORE.INTRA.VDW.0>
-0.658493

>  <SCORE.INTRA.norm>
-0.0165878

>  <SCORE.RESTR>
0

>  <SCORE.RESTR.CAVITY>
0

>  <SCORE.RESTR.norm>
0

>  <SCORE.SYSTEM>
-22.4311

>  <SCORE.SYSTEM.CONST>
0

>  <SCORE.SYSTEM.DIHEDRAL>
6.32541

>  <SCORE.SYSTEM.POLAR>
-3.54158

>  <SCORE.SYSTEM.SOLV>
0.464582

>  <SCORE.SYSTEM.VDW>
-5.41211

>  <SCORE.SYSTEM.norm>
-2.80389

>  <SCORE.heavy>
8

>  <SCORE.norm>
-6.85603

$$$$
P108902482
 OpenBabel12072022103D
libRbt.so/2013.1/901 2013/11/27
 14 13  0  0  0  0  0  0  0  0999 V2000
   21.6587  -15.4122    4.2779 C   0  0  0  0  0  0  0  0  0  0  0  0
   20.3259  -15.9966    3.8322 C   0  0  0  0  0  0  0  0  0  0  0  0
   20.2624  -17.5206    3.9362 C   0  0  2  0  0  0  0  0  0  0  0  0
   19.0458  -18.0557    3.1513 C   0  0  0  0  0  0  0  0  0  0  0  0
   19.1228  -17.9742    1.8524 N   0  0  0  0  0  0  0  0  0  0  0  0
   17.9565  -18.4972    1.2699 O   0  0  0  0  0  0  0  0  0  0  0  0
   17.9633  -18.5530    3.8273 N   0  0  0  0  0  0  0  0  0  0  0  0
   20.1151  -17.9338    5.3667 N   0  3  0  0  0  0  0  0  0  0  0  0
   20.0753  -18.9591    5.4290 H   0  0  0  0  0  0  0  0  0  0  0  0
   20.8506  -17.5885    5.9895 H   0  0  0  0  0  0  0  0  0  0  0  0
   19.1941  -17.6083    5.6989 H   0  0  0  0  0  0  0  0  0  0  0  0
   17.9273  -18.0738    0.3889 H   0  0  0  0  0  0  0  0  0  0  0  0
   17.1685  -17.9514    4.0197 H   0  0  0  0  0  0  0  0  0  0  0  0
   18.2397  -19.1041    4.6421 H   0  0  0  0  0  0  0  0  0  0  0  0
  1  2  1  0  0  0  0
  3  4  1  0  0  0  0
  3  8  1  0  0  0  0
  3  2  1  1  0  0  0
  4  5  2  0  0  0  0
  4  7  1  0  0  0  0
  5  6  1  0  0  0  0
  6 12  1  0  0  0  0
  7 13  1  0  0  0  0
  7 14  1  0  0  0  0
  8  9  1  0  0  0  0
  8 10  1  0  0  0  0
  8 11  1  0  0  0  0
M  CHG  1   8   1
M  END
>  <CHROM.0>
-45.61823782,-64.85933333,-55.52863736,-53.80034302,-56.79443951,59.28035790
-57.15618202,64.14407470,-167.47729446,161.39348831

>  <CHROM.1>
70.38975464,-179.87201772,-165.88443754,95.17053587,157.21994952,19.51733565
-17.51869011,3.45792346,-0.40707736,-0.79224099,-1.26104367

>  <Name>
P108902482

>  <RI>
0

>  <Rbt.Current_Directory>
/home/fstefaniak/projects/zuza/docking/adenine/1Y26

>  <Rbt.Executable>
rbdock ($Id: //depot/dev/client3/rdock/2013.1/src/exe/rbdock.cxx#4 $)

>  <Rbt.Library>
libRbt.so (2013.1, Build901 2013/11/27)

>  <Rbt.Parameter_File>
/home/fstefaniak/progs/rDock//data/scripts/dock_solv.prm

>  <Rbt.Receptor>
1y26.prm

>  <SCORE>
-54.3048

>  <SCORE.INTER>
-35.0303

>  <SCORE.INTER.CONST>
1

>  <SCORE.INTER.POLAR>
-5.06757

>  <SCORE.INTER.ROT>
3

>  <SCORE.INTER.SOLV>
15.9276

>  <SCORE.INTER.VDW>
-17.3708

>  <SCORE.INTER.norm>
-4.37878

>  <SCORE.INTRA>
1.23506

>  <SCORE.INTRA.DIHEDRAL>
0.23017

>  <SCORE.INTRA.DIHEDRAL.0>
3.70319

>  <SCORE.INTRA.POLAR>
0.0875306

>  <SCORE.INTRA.POLAR.0>
-0.0875306

>  <SCORE.INTRA.REPUL>
0

>  <SCORE.INTRA.REPUL.0>
0

>  <SCORE.INTRA.SOLV>
1.32948

>  <SCORE.INTRA.SOLV.lig_0>
-28.1699

>  <SCORE.INTRA.VDW>
0.157628

>  <SCORE.INTRA.VDW.0>
-0.658493

>  <SCORE.INTRA.norm>
0.154382

>  <SCORE.RESTR>
0

>  <SCORE.RESTR.CAVITY>
0

>  <SCORE.RESTR.norm>
0

>  <SCORE.SYSTEM>
-20.5096

>  <SCORE.SYSTEM.CONST>
0

>  <SCORE.SYSTEM.DIHEDRAL>
5.75214

>  <SCORE.SYSTEM.POLAR>
-3.45663

>  <SCORE.SYSTEM.SOLV>
0.275511

>  <SCORE.SYSTEM.VDW>
-4.16017

>  <SCORE.SYSTEM.norm>
-2.5637

>  <SCORE.heavy>
8

>  <SCORE.norm>
-6.7881

$$$$
P108902482
 OpenBabel12072022103D
libRbt.so/2013.1/901 2013/11/27
 14 13  0  0  0  0  0  0  0  0999 V2000
   18.8326  -19.1516    5.5913 C   0  0  0  0  0  0  0  0  0  0  0  0
   19.8808  -18.1433    5.1429 C   0  0  0  0  0  0  0  0  0  0  0  0
   19.3698  -17.1587    4.0909 C   0  0  2  0  0  0  0  0  0  0  0  0
   19.1866  -17.8767    2.7368 C   0  0  0  0  0  0  0  0  0  0  0  0
   18.0350  -18.4586    2.5496 N   0  0  0  0  0  0  0  0  0  0  0  0
   18.0054  -19.0652    1.2831 O   0  0  0  0  0  0  0  0  0  0  0  0
   20.2131  -17.8946    1.8301 N   0  0  0  0  0  0  0  0  0  0  0  0
   20.3549  -16.0484    3.9025 N   0  3  0  0  0  0  0  0  0  0  0  0
   20.4143  -15.4881    4.7622 H   0  0  0  0  0  0  0  0  0  0  0  0
   21.2952  -16.3518    3.6345 H   0  0  0  0  0  0  0  0  0  0  0  0
   19.9778  -15.4060    3.1884 H   0  0  0  0  0  0  0  0  0  0  0  0
   18.0842  -18.3127    0.6635 H   0  0  0  0  0  0  0  0  0  0  0  0
   20.3985  -18.7366    1.2943 H   0  0  0  0  0  0  0  0  0  0  0  0
   21.0663  -17.4787    2.2082 H   0  0  0  0  0  0  0  0  0  0  0  0
  1  2  1  0  0  0  0
  3  4  1  0  0  0  0
  3  8  1  0  0  0  0
  3  2  1  1  0  0  0
  4  5  2  0  0  0  0
  4  7  1  0  0  0  0
  5  6  1  0  0  0  0
  6 12  1  0  0  0  0
  7 13  1  0  0  0  0
  7 14  1  0  0  0  0
  8  9  1  0  0  0  0
  8 10  1  0  0  0  0
  8 11  1  0  0  0  0
M  CHG  1   8   1
M  END
>  <CHROM.0>
-52.82275020,-61.71504556,-55.81557708,-51.95160265,-57.36733686,-56.52739307
-58.29336972,-46.99741081,-167.73206927,160.97442565

>  <CHROM.1>
87.00558577,-65.96919414,-71.81819257,140.38652776,-63.70938705,19.26005754
-17.95997624,3.34079078,1.00772845,0.88922866,1.72137179

>  <Name>
P108902482

>  <RI>
0

>  <Rbt.Current_Directory>
/home/fstefaniak/projects/zuza/docking/adenine/1Y26

>  <Rbt.Executable>
rbdock ($Id: //depot/dev/client3/rdock/2013.1/src/exe/rbdock.cxx#4 $)

>  <Rbt.Library>
libRbt.so (2013.1, Build901 2013/11/27)

>  <Rbt.Parameter_File>
/home/fstefaniak/progs/rDock//data/scripts/dock_solv.prm

>  <Rbt.Receptor>
1y26.prm

>  <SCORE>
-53.9359

>  <SCORE.INTER>
-32.4444

>  <SCORE.INTER.CONST>
1

>  <SCORE.INTER.POLAR>
-4.79985

>  <SCORE.INTER.ROT>
3

>  <SCORE.INTER.SOLV>
16.3141

>  <SCORE.INTER.VDW>
-16.6681

>  <SCORE.INTER.norm>
-4.05555

>  <SCORE.INTRA>
0.626492

>  <SCORE.INTRA.DIHEDRAL>
-1.30303

>  <SCORE.INTRA.DIHEDRAL.0>
3.70319

>  <SCORE.INTRA.POLAR>
0.0875306

>  <SCORE.INTRA.POLAR.0>
-0.0875306

>  <SCORE.INTRA.REPUL>
0

>  <SCORE.INTRA.REPUL.0>
0

>  <SCORE.INTRA.SOLV>
0.127798

>  <SCORE.INTRA.SOLV.lig_0>
-28.1699

>  <SCORE.INTRA.VDW>
0.916505

>  <SCORE.INTRA.VDW.0>
-0.658493

>  <SCORE.INTRA.norm>
0.0783115

>  <SCORE.RESTR>
0

>  <SCORE.RESTR.CAVITY>
0

>  <SCORE.RESTR.norm>
0

>  <SCORE.SYSTEM>
-22.118

>  <SCORE.SYSTEM.CONST>
0

>  <SCORE.SYSTEM.DIHEDRAL>
5.75843

>  <SCORE.SYSTEM.POLAR>
-3.46585

>  <SCORE.SYSTEM.SOLV>
0.671222

>  <SCORE.SYSTEM.VDW>
-5.33572

>  <SCORE.SYSTEM.norm>
-2.76475

>  <SCORE.heavy>
8

>  <SCORE.norm>
-6.74199

$$$$
P108990635
 OpenBabel12072022103D
libRbt.so/2013.1/901 2013/11/27
 13 13  0  0  0  0  0  0  0  0999 V2000
   24.1200  -16.0681    4.8223 C   0  0  0  0  0  0  0  0  0  0  0  0
   23.0338  -16.6591    3.9269 C   0  0  0  0  0  0  0  0  0  0  0  0
   21.7195  -16.1011    4.2467 N   0  0  0  0  0  0  0  0  0  0  0  0
   21.6346  -14.6435    4.2321 C   0  0  0  0  0  0  0  0  0  0  0  0
   22.6958  -14.0120    5.1290 C   0  0  0  0  0  0  0  0  0  0  0  0
   24.1025  -14.5359    4.8260 C   0  0  0  0  0  0  0  0  0  0  0  0
   24.6064  -13.9990    3.5486 C   0  0  0  0  0  0  0  0  0  0  0  0
   25.0023  -13.5853    2.5401 N   0  0  0  0  0  0  0  0  0  0  0  0
   20.5408  -16.7950    4.0542 C   0  0  0  0  0  0  0  0  0  0  0  0
   19.8616  -16.7535    3.0347 O   0  0  0  0  0  0  0  0  0  0  0  0
   20.1237  -17.5556    5.0957 N   0  0  0  0  0  0  0  0  0  0  0  0
   20.4465  -17.2695    6.0074 H   0  0  0  0  0  0  0  0  0  0  0  0
   19.1255  -17.7250    5.0607 H   0  0  0  0  0  0  0  0  0  0  0  0
  1  2  1  0  0  0  0
  1  6  1  0  0  0  0
  2  3  1  0  0  0  0
  3  4  1  0  0  0  0
  3  9  1  0  0  0  0
  4  5  1  0  0  0  0
  5  6  1  0  0  0  0
  6  7  1  0  0  0  0
  7  8  3  0  0  0  0
  9 10  2  0  0  0  0
  9 11  1  0  0  0  0
 11 12  1  0  0  0  0
 11 13  1  0  0  0  0
M  END
>  <CHROM.0>
-49.58969420,-64.43424866,-58.89642174,-53.37836765,-52.82589467,-62.93047244
-58.30205196,-174.14470940,-166.85484216,160.21092325

>  <CHROM.1>
-91.46009603,25.06315342,22.41250490,-15.57043748,4.14092519,-0.43170748
0.43201124,2.25745374

>  <Name>
P108990635

>  <RI>
0

>  <Rbt.Current_Directory>
/home/fstefaniak/projects/zuza/docking/adenine/1Y26

>  <Rbt.Executable>
rbdock ($Id: //depot/dev/client3/rdock/2013.1/src/exe/rbdock.cxx#4 $)

>  <Rbt.Library>
libRbt.so (2013.1, Build901 2013/11/27)

>  <Rbt.Parameter_File>
/home/fstefaniak/progs/rDock//data/scripts/dock_solv.prm

>  <Rbt.Receptor>
1y26.prm

>  <SCORE>
-45.6513

>  <SCORE.INTER>
-22.2647

>  <SCORE.INTER.CONST>
1

>  <SCORE.INTER.POLAR>
-2.13137

>  <SCORE.INTER.ROT>
2

>  <SCORE.INTER.SOLV>
10.152

>  <SCORE.INTER.VDW>
-16.0559

>  <SCORE.INTER.norm>
-2.02407

>  <SCORE.INTRA>
-1.36546

>  <SCORE.INTRA.DIHEDRAL>
-0.014892

>  <SCORE.INTRA.DIHEDRAL.0>
0.9606

>  <SCORE.INTRA.POLAR>
0

>  <SCORE.INTRA.POLAR.0>
0

>  <SCORE.INTRA.REPUL>
0

>  <SCORE.INTRA.REPUL.0>
0

>  <SCORE.INTRA.SOLV>
-0.0431609

>  <SCORE.INTRA.SOLV.lig_0>
-14.9476

>  <SCORE.INTRA.VDW>
-1.33643

>  <SCORE.INTRA.VDW.0>
0.705009

>  <SCORE.INTRA.norm>
-0.124132

>  <SCORE.RESTR>
0.616376

>  <SCORE.RESTR.CAVITY>
0.616376

>  <SCORE.RESTR.norm>
0.0560342

>  <SCORE.SYSTEM>
-22.6374

>  <SCORE.SYSTEM.CONST>
0

>  <SCORE.SYSTEM.DIHEDRAL>
5.73308

>  <SCORE.SYSTEM.POLAR>
-3.4327

>  <SCORE.SYSTEM.SOLV>
0.441146

>  <SCORE.SYSTEM.VDW>
-5.70738

>  <SCORE.SYSTEM.norm>
-2.05795

>  <SCORE.heavy>
11

>  <SCORE.norm>
-4.15011

$$$$
P108990635
 OpenBabel12072022103D
libRbt.so/2013.1/901 2013/11/27
 13 13  0  0  0  0  0  0  0  0999 V2000
   24.3825  -16.0073    4.6298 C   0  0  0  0  0  0  0  0  0  0  0  0
   23.1166  -16.4895    3.9256 C   0  0  0  0  0  0  0  0  0  0  0  0
   21.9373  -15.7615    4.3949 N   0  0  0  0  0  0  0  0  0  0  0  0
   22.0241  -14.3061    4.3159 C   0  0  0  0  0  0  0  0  0  0  0  0
   23.2704  -13.7804    5.0229 C   0  0  0  0  0  0  0  0  0  0  0  0
   24.5469  -14.4856    4.5558 C   0  0  0  0  0  0  0  0  0  0  0  0
   24.9218  -14.0606    3.1945 C   0  0  0  0  0  0  0  0  0  0  0  0
   25.2145  -13.7350    2.1206 N   0  0  0  0  0  0  0  0  0  0  0  0
   20.6695  -16.3097    4.4040 C   0  0  0  0  0  0  0  0  0  0  0  0
   20.2787  -17.1585    5.1972 O   0  0  0  0  0  0  0  0  0  0  0  0
   19.8250  -15.8668    3.4408 N   0  0  0  0  0  0  0  0  0  0  0  0
   18.8506  -15.8194    3.6968 H   0  0  0  0  0  0  0  0  0  0  0  0
   20.1650  -15.0178    3.0050 H   0  0  0  0  0  0  0  0  0  0  0  0
  1  2  1  0  0  0  0
  1  6  1  0  0  0  0
  2  3  1  0  0  0  0
  3  4  1  0  0  0  0
  3  9  1  0  0  0  0
  4  5  1  0  0  0  0
  5  6  1  0  0  0  0
  6  7  1  0  0  0  0
  7  8  3  0  0  0  0
  9 10  2  0  0  0  0
  9 11  1  0  0  0  0
 11 12  1  0  0  0  0
 11 13  1  0  0  0  0
M  END
>  <CHROM.0>
-49.80113777,68.12304442,-52.91983386,-51.51640781,-55.84884281,-57.99281594
-58.47978508,-51.15608836,-166.64247085,159.88936973

>  <CHROM.1>
73.85165362,-147.03683385,22.65691244,-15.30291414,4.11883217,-0.48888477
0.12238337,2.50277910

>  <Name>
P108990635

>  <RI>
0

>  <Rbt.Current_Directory>
/home/fstefaniak/projects/zuza/docking/adenine/1Y26

>  <Rbt.Executable>
rbdock ($Id: //depot/dev/client3/rdock/2013.1/src/exe/rbdock.cxx#4 $)

>  <Rbt.Library>
libRbt.so (2013.1, Build901 2013/11/27)

>  <Rbt.Parameter_File>
/home/fstefaniak/progs/rDock//data/scripts/dock_solv.prm

>  <Rbt.Receptor>
1y26.prm

>  <SCORE>
-45.5724

>  <SCORE.INTER>
-25.0559

>  <SCORE.INTER.CONST>
1

>  <SCORE.INTER.POLAR>
-2.82795

>  <SCORE.INTER.ROT>
2

>  <SCORE.INTER.SOLV>
11.9361

>  <SCORE.INTER.VDW>
-16.1895

>  <SCORE.INTER.norm>
-2.27781

>  <SCORE.INTRA>
0.0232705

>  <SCORE.INTRA.DIHEDRAL>
0.0148772

>  <SCORE.INTRA.DIHEDRAL.0>
0.9606

>  <SCORE.INTRA.POLAR>
0

>  <SCORE.INTRA.POLAR.0>
0

>  <SCORE.INTRA.REPUL>
0

>  <SCORE.INTRA.REPUL.0>
0

>  <SCORE.INTRA.SOLV>
-0.00674073

>  <SCORE.INTRA.SOLV.lig_0>
-14.9476

>  <SCORE.INTRA.VDW>
0.0192023

>  <SCORE.INTRA.VDW.0>
0.705009

>  <SCORE.INTRA.norm>
0.0021155

>  <SCORE.RESTR>
0.848232

>  <SCORE.RESTR.CAVITY>
0.848232

>  <SCORE.RESTR.norm>
0.077112

>  <SCORE.SYSTEM>
-21.388

>  <SCORE.SYSTEM.CONST>
0

>  <SCORE.SYSTEM.DIHEDRAL>
6.37436

>  <SCORE.SYSTEM.POLAR>
-3.54608

>  <SCORE.SYSTEM.SOLV>
0.681687

>  <SCORE.SYSTEM.VDW>
-4.79041

>  <SCORE.SYSTEM.norm>
-1.94436

>  <SCORE.heavy>
11

>  <SCORE.norm>
-4.14294

$$$$
P108990635
 OpenBabel12072022103D
libRbt.so/2013.1/901 2013/11/27
 13 13  0  0  0  0  0  0  0  0999 V2000
   19.7285  -18.5919    6.7456 C   0  0  0  0  0  0  0  0  0  0  0  0
   19.8776  -17.3237    5.9087 C   0  0  0  0  0  0  0  0  0  0  0  0
   20.1582  -17.6412    4.5081 N   0  0  0  0  0  0  0  0  0  0  0  0
   19.2112  -18.5491    3.8672 C   0  0  0  0  0  0  0  0  0  0  0  0
   19.0446  -19.8392    4.6656 C   0  0  0  0  0  0  0  0  0  0  0  0
   18.7221  -19.5755    6.1391 C   0  0  0  0  0  0  0  0  0  0  0  0
   17.3410  -19.0855    6.3021 C   0  0  0  0  0  0  0  0  0  0  0  0
   16.2581  -18.6916    6.4328 N   0  0  0  0  0  0  0  0  0  0  0  0
   20.8785  -16.8053    3.6773 C   0  0  0  0  0  0  0  0  0  0  0  0
   20.5335  -16.4704    2.5499 O   0  0  0  0  0  0  0  0  0  0  0  0
   22.0578  -16.3530    4.1692 N   0  0  0  0  0  0  0  0  0  0  0  0
   22.2149  -16.5116    5.1528 H   0  0  0  0  0  0  0  0  0  0  0  0
   22.8392  -16.6353    3.5896 H   0  0  0  0  0  0  0  0  0  0  0  0
  1  2  1  0  0  0  0
  1  6  1  0  0  0  0
  2  3  1  0  0  0  0
  3  4  1  0  0  0  0
  3  9  1  0  0  0  0
  4  5  1  0  0  0  0
  5  6  1  0  0  0  0
  6  7  1  0  0  0  0
  7  8  3  0  0  0  0
  9 10  2  0  0  0  0
  9 11  1  0  0  0  0
 11 12  1  0  0  0  0
 11 13  1  0  0  0  0
M  END
>  <CHROM.0>
-52.49693429,-60.87205823,-54.71219160,-52.14405065,-174.46044067,-58.46092390
-58.29461113,-176.22357432,-167.30987583,160.41173039

>  <CHROM.1>
-131.48688735,-11.86149050,19.50546438,-18.03761045,4.94977769,-2.50204772
-0.51785983,-1.40718930

>  <Name>
P108990635

>  <RI>
0

>  <Rbt.Current_Directory>
/home/fstefaniak/projects/zuza/docking/adenine/1Y26

>  <Rbt.Executable>
rbdock ($Id: //depot/dev/client3/rdock/2013.1/src/exe/rbdock.cxx#4 $)

>  <Rbt.Library>
libRbt.so (2013.1, Build901 2013/11/27)

>  <Rbt.Parameter_File>
/home/fstefaniak/progs/rDock//data/scripts/dock_solv.prm

>  <Rbt.Receptor>
1y26.prm

>  <SCORE>
-45.5309

>  <SCORE.INTER>
-22.5478

>  <SCORE.INTER.CONST>
1

>  <SCORE.INTER.POLAR>
-2.99059

>  <SCORE.INTER.ROT>
2

>  <SCORE.INTER.SOLV>
12.5019

>  <SCORE.INTER.VDW>
-14.1639

>  <SCORE.INTER.norm>
-2.0498

>  <SCORE.INTRA>
-0.37634

>  <SCORE.INTRA.DIHEDRAL>
7.16659e-05

>  <SCORE.INTRA.DIHEDRAL.0>
0.9606

>  <SCORE.INTRA.POLAR>
0

>  <SCORE.INTRA.POLAR.0>
0

>  <SCORE.INTRA.REPUL>
0

>  <SCORE.INTRA.REPUL.0>
0

>  <SCORE.INTRA.SOLV>
0.00138054

>  <SCORE.INTRA.SOLV.lig_0>
-14.9476

>  <SCORE.INTRA.VDW>
-0.377067

>  <SCORE.INTRA.VDW.0>
0.705009

>  <SCORE.INTRA.norm>
-0.0342128

>  <SCORE.RESTR>
0

>  <SCORE.RESTR.CAVITY>
0

>  <SCORE.RESTR.norm>
0

>  <SCORE.SYSTEM>
-22.6068

>  <SCORE.SYSTEM.CONST>
0

>  <SCORE.SYSTEM.DIHEDRAL>
5.31128

>  <SCORE.SYSTEM.POLAR>
-3.43053

>  <SCORE.SYSTEM.SOLV>
0.292468

>  <SCORE.SYSTEM.VDW>
-5.50399

>  <SCORE.SYSTEM.norm>
-2.05516

>  <SCORE.heavy>
11

>  <SCORE.norm>
-4.13918

$$$$
P109006999
 OpenBabel12072022103D
libRbt.so/2013.1/901 2013/11/27
 17 16  0  0  0  0  0  0  0  0999 V2000
   22.1997  -11.8152    9.2742 C   0  0  0  0  0  0  0  0  0  0  0  0
   22.2982  -11.6405    7.7692 C   0  0  0  0  0  0  0  0  0  0  0  0
   22.0778  -12.8849    7.0545 N   0  0  0  0  0  0  0  0  0  0  0  0
   22.5838  -13.0915    5.8065 C   0  0  0  0  0  0  0  0  0  0  0  0
   22.6291  -12.2505    4.9165 O   0  0  0  0  0  0  0  0  0  0  0  0
   23.0247  -14.3762    5.6321 N   0  0  0  0  0  0  0  0  0  0  0  0
   24.3004  -14.7024    4.9939 C   0  0  2  0  0  0  0  0  0  0  0  0
   24.4686  -14.0931    3.6072 C   0  0  0  0  0  0  0  0  0  0  0  0
   24.4874  -16.2083    4.9826 C   0  0  0  0  0  0  0  0  0  0  0  0
   25.5153  -16.7240    5.6304 N   0  3  0  0  0  0  0  0  0  0  0  0
   25.6791  -17.7229    5.6548 H   0  0  0  0  0  0  0  0  0  0  0  0
   26.1681  -16.1396    6.1422 H   0  0  0  0  0  0  0  0  0  0  0  0
   23.6409  -16.9775    4.3319 N   0  0  0  0  0  0  0  0  0  0  0  0
   21.2736  -13.4286    7.3346 H   0  0  0  0  0  0  0  0  0  0  0  0
   22.7372  -14.9961    6.3796 H   0  0  0  0  0  0  0  0  0  0  0  0
   22.8046  -16.5464    3.9114 H   0  0  0  0  0  0  0  0  0  0  0  0
   23.6939  -17.9840    4.2901 H   0  0  0  0  0  0  0  0  0  0  0  0
  1  2  1  0  0  0  0
  2  3  1  0  0  0  0
  3  4  1  0  0  0  0
  3 14  1  0  0  0  0
  4  5  2  0  0  0  0
  4  6  1  0  0  0  0
  6 15  1  0  0  0  0
  7  8  1  6  0  0  0
  7  9  1  0  0  0  0
  7  6  1  0  0  0  0
  9 10  2  0  0  0  0
  9 13  1  0  0  0  0
 10 11  1  0  0  0  0
 10 12  1  0  0  0  0
 13 16  1  0  0  0  0
 13 17  1  0  0  0  0
M  CHG  1  10   1
M  END
>  <CHROM.0>
-49.20171357,-76.54112203,-56.27294458,-52.02266308,-174.75161637,57.10914067
-57.48184852,-51.80358689,-167.69816792,160.76827058

>  <CHROM.1>
-155.28824275,-39.44887016,-135.22423548,-118.32343727,-54.61829660,23.37745371
-14.09201813,5.82324656,-2.76885596,1.11747462,-1.34981995

>  <Name>
P109006999

>  <RI>
0

>  <Rbt.Current_Directory>
/home/fstefaniak/projects/zuza/docking/adenine/1Y26

>  <Rbt.Executable>
rbdock ($Id: //depot/dev/client3/rdock/2013.1/src/exe/rbdock.cxx#4 $)

>  <Rbt.Library>
libRbt.so (2013.1, Build901 2013/11/27)

>  <Rbt.Parameter_File>
/home/fstefaniak/progs/rDock//data/scripts/dock_solv.prm

>  <Rbt.Receptor>
1y26.prm

>  <SCORE>
-60.9327

>  <SCORE.INTER>
-40.0747

>  <SCORE.INTER.CONST>
1

>  <SCORE.INTER.POLAR>
-6.59086

>  <SCORE.INTER.ROT>
5

>  <SCORE.INTER.SOLV>
22.1916

>  <SCORE.INTER.VDW>
-19.0775

>  <SCORE.INTER.norm>
-3.64315

>  <SCORE.INTRA>
0.0499563

>  <SCORE.INTRA.DIHEDRAL>
-0.91998

>  <SCORE.INTRA.DIHEDRAL.0>
4.0121

>  <SCORE.INTRA.POLAR>
0.662301

>  <SCORE.INTRA.POLAR.0>
-0.667506

>  <SCORE.INTRA.REPUL>
0

>  <SCORE.INTRA.REPUL.0>
0

>  <SCORE.INTRA.SOLV>
-2.37542

>  <SCORE.INTRA.SOLV.lig_0>
-33.8655

>  <SCORE.INTRA.VDW>
-0.554167

>  <SCORE.INTRA.VDW.0>
0.265114

>  <SCORE.INTRA.norm>
0.00454148

>  <SCORE.RESTR>
0

>  <SCORE.RESTR.CAVITY>
0

>  <SCORE.RESTR.norm>
0

>  <SCORE.SYSTEM>
-20.908

>  <SCORE.SYSTEM.CONST>
0

>  <SCORE.SYSTEM.DIHEDRAL>
6.93897

>  <SCORE.SYSTEM.POLAR>
-3.47968

>  <SCORE.SYSTEM.SOLV>
0.330534

>  <SCORE.SYSTEM.VDW>
-4.76288

>  <SCORE.SYSTEM.norm>
-1.90073

>  <SCORE.heavy>
11

>  <SCORE.norm>
-5.53934

$$$$
P109006999
 OpenBabel12072022103D
libRbt.so/2013.1/901 2013/11/27
 17 16  0  0  0  0  0  0  0  0999 V2000
   22.2324  -11.7264    9.1919 C   0  0  0  0  0  0  0  0  0  0  0  0
   22.2450  -11.6042    7.6787 C   0  0  0  0  0  0  0  0  0  0  0  0
   22.0712  -12.8870    7.0210 N   0  0  0  0  0  0  0  0  0  0  0  0
   22.5303  -13.1103    5.7577 C   0  0  0  0  0  0  0  0  0  0  0  0
   22.5290  -12.2854    4.8516 O   0  0  0  0  0  0  0  0  0  0  0  0
   22.9812  -14.3922    5.5892 N   0  0  0  0  0  0  0  0  0  0  0  0
   24.2933  -14.7088    5.0241 C   0  0  2  0  0  0  0  0  0  0  0  0
   24.5589  -14.0485    3.6765 C   0  0  0  0  0  0  0  0  0  0  0  0
   24.4664  -16.2154    4.9658 C   0  0  0  0  0  0  0  0  0  0  0  0
   25.4903  -16.7602    5.5957 N   0  3  0  0  0  0  0  0  0  0  0  0
   25.6451  -17.7609    5.5889 H   0  0  0  0  0  0  0  0  0  0  0  0
   26.1492  -16.1980    6.1243 H   0  0  0  0  0  0  0  0  0  0  0  0
   23.6120  -16.9562    4.2930 N   0  0  0  0  0  0  0  0  0  0  0  0
   21.3176  -13.4683    7.3598 H   0  0  0  0  0  0  0  0  0  0  0  0
   22.6491  -15.0242    6.3076 H   0  0  0  0  0  0  0  0  0  0  0  0
   22.7791  -16.5047    3.8875 H   0  0  0  0  0  0  0  0  0  0  0  0
   23.6556  -17.9614    4.2199 H   0  0  0  0  0  0  0  0  0  0  0  0
  1  2  1  0  0  0  0
  2  3  1  0  0  0  0
  3  4  1  0  0  0  0
  3 14  1  0  0  0  0
  4  5  2  0  0  0  0
  4  6  1  0  0  0  0
  6 15  1  0  0  0  0
  7  8  1  6  0  0  0
  7  9  1  0  0  0  0
  7  6  1  0  0  0  0
  9 10  2  0  0  0  0
  9 13  1  0  0  0  0
 10 11  1  0  0  0  0
 10 12  1  0  0  0  0
 13 16  1  0  0  0  0
 13 17  1  0  0  0  0
M  CHG  1  10   1
M  END
>  <CHROM.0>
-46.43879628,-72.07589471,60.64962933,-55.34225323,-57.07450254,-175.77842315
78.30759484,-172.01988122,-166.78807089,160.49629804

>  <CHROM.1>
-155.13419004,-36.33933327,-129.09373877,-122.22903831,-53.15619981,23.35795761
-14.08574814,5.79042655,-2.74786745,1.11040607,-1.39221871

>  <Name>
P109006999

>  <RI>
0

>  <Rbt.Current_Directory>
/home/fstefaniak/projects/zuza/docking/adenine/1Y26

>  <Rbt.Executable>
rbdock ($Id: //depot/dev/client3/rdock/2013.1/src/exe/rbdock.cxx#4 $)

>  <Rbt.Library>
libRbt.so (2013.1, Build901 2013/11/27)

>  <Rbt.Parameter_File>
/home/fstefaniak/progs/rDock//data/scripts/dock_solv.prm

>  <Rbt.Receptor>
1y26.prm

>  <SCORE>
-60.5599

>  <SCORE.INTER>
-39.7115

>  <SCORE.INTER.CONST>
1

>  <SCORE.INTER.POLAR>
-6.50082

>  <SCORE.INTER.ROT>
5

>  <SCORE.INTER.SOLV>
21.9624

>  <SCORE.INTER.VDW>
-19.0591

>  <SCORE.INTER.norm>
-3.61014

>  <SCORE.INTRA>
-0.019212

>  <SCORE.INTRA.DIHEDRAL>
-0.948864

>  <SCORE.INTRA.DIHEDRAL.0>
4.0121

>  <SCORE.INTRA.POLAR>
0.662333

>  <SCORE.INTRA.POLAR.0>
-0.667506

>  <SCORE.INTRA.REPUL>
0

>  <SCORE.INTRA.REPUL.0>
0

>  <SCORE.INTRA.SOLV>
-2.31744

>  <SCORE.INTRA.SOLV.lig_0>
-33.8655

>  <SCORE.INTRA.VDW>
-0.637991

>  <SCORE.INTRA.VDW.0>
0.265114

>  <SCORE.INTRA.norm>
-0.00174655

>  <SCORE.RESTR>
0

>  <SCORE.RESTR.CAVITY>
0

>  <SCORE.RESTR.norm>
0

>  <SCORE.SYSTEM>
-20.8292

>  <SCORE.SYSTEM.CONST>
0

>  <SCORE.SYSTEM.DIHEDRAL>
7.99015

>  <SCORE.SYSTEM.POLAR>
-3.78643

>  <SCORE.SYSTEM.SOLV>
0.121829

>  <SCORE.SYSTEM.VDW>
-3.9687

>  <SCORE.SYSTEM.norm>
-1.89357

>  <SCORE.heavy>
11

>  <SCORE.norm>
-5.50545

$$$$
P109006999
 OpenBabel12072022103D
libRbt.so/2013.1/901 2013/11/27
 17 16  0  0  0  0  0  0  0  0999 V2000
   22.2097  -11.7516    9.2709 C   0  0  0  0  0  0  0  0  0  0  0  0
   22.3297  -11.6145    7.7637 C   0  0  0  0  0  0  0  0  0  0  0  0
   22.1348  -12.8795    7.0781 N   0  0  0  0  0  0  0  0  0  0  0  0
   22.6055  -13.0885    5.8167 C   0  0  0  0  0  0  0  0  0  0  0  0
   22.6276  -12.2486    4.9248 O   0  0  0  0  0  0  0  0  0  0  0  0
   23.0387  -14.3743    5.6317 N   0  0  0  0  0  0  0  0  0  0  0  0
   24.3176  -14.7025    5.0008 C   0  0  2  0  0  0  0  0  0  0  0  0
   24.4993  -14.0846    3.6197 C   0  0  0  0  0  0  0  0  0  0  0  0
   24.4972  -16.2093    4.9805 C   0  0  0  0  0  0  0  0  0  0  0  0
   25.5177  -16.7345    5.6322 N   0  3  0  0  0  0  0  0  0  0  0  0
   25.6764  -17.7344    5.6509 H   0  0  0  0  0  0  0  0  0  0  0  0
   26.1697  -16.1569    6.1527 H   0  0  0  0  0  0  0  0  0  0  0  0
   23.6516  -16.9697    4.3185 N   0  0  0  0  0  0  0  0  0  0  0  0
   21.3632  -13.4493    7.3954 H   0  0  0  0  0  0  0  0  0  0  0  0
   22.7403  -15.0005    6.3696 H   0  0  0  0  0  0  0  0  0  0  0  0
   22.8205  -16.5316    3.8949 H   0  0  0  0  0  0  0  0  0  0  0  0
   23.6998  -17.9762    4.2701 H   0  0  0  0  0  0  0  0  0  0  0  0
  1  2  1  0  0  0  0
  2  3  1  0  0  0  0
  3  4  1  0  0  0  0
  3 14  1  0  0  0  0
  4  5  2  0  0  0  0
  4  6  1  0  0  0  0
  6 15  1  0  0  0  0
  7  8  1  6  0  0  0
  7  9  1  0  0  0  0
  7  6  1  0  0  0  0
  9 10  2  0  0  0  0
  9 13  1  0  0  0  0
 10 11  1  0  0  0  0
 10 12  1  0  0  0  0
 13 16  1  0  0  0  0
 13 17  1  0  0  0  0
M  CHG  1  10   1
M  END
>  <CHROM.0>
-47.83612856,-78.19089771,61.98764709,-52.64104268,-178.61328628,-171.58133487
77.90280613,-49.55601803,-167.31270288,162.19650693

>  <CHROM.1>
-158.62197709,-36.84554643,-132.99217330,-118.34252827,-54.90204636,23.39580402
-14.08239851,5.82679999,-2.76427039,1.12192688,-1.35667945

>  <Name>
P109006999

>  <RI>
0

>  <Rbt.Current_Directory>
/home/fstefaniak/projects/zuza/docking/adenine/1Y26

>  <Rbt.Executable>
rbdock ($Id: //depot/dev/client3/rdock/2013.1/src/exe/rbdock.cxx#4 $)

>  <Rbt.Library>
libRbt.so (2013.1, Build901 2013/11/27)

>  <Rbt.Parameter_File>
/home/fstefaniak/progs/rDock//data/scripts/dock_solv.prm

>  <Rbt.Receptor>
1y26.prm

>  <SCORE>
-60.1064

>  <SCORE.INTER>
-40.2107

>  <SCORE.INTER.CONST>
1

>  <SCORE.INTER.POLAR>
-6.58532

>  <SCORE.INTER.ROT>
5

>  <SCORE.INTER.SOLV>
22.1496

>  <SCORE.INTER.VDW>
-19.1726

>  <SCORE.INTER.norm>
-3.65552

>  <SCORE.INTRA>
0.0383888

>  <SCORE.INTRA.DIHEDRAL>
-0.944651

>  <SCORE.INTRA.DIHEDRAL.0>
4.0121

>  <SCORE.INTRA.POLAR>
0.662366

>  <SCORE.INTRA.POLAR.0>
-0.667506

>  <SCORE.INTRA.REPUL>
0

>  <SCORE.INTRA.REPUL.0>
0

>  <SCORE.INTRA.SOLV>
-2.3799

>  <SCORE.INTRA.SOLV.lig_0>
-33.8655

>  <SCORE.INTRA.VDW>
-0.551379

>  <SCORE.INTRA.VDW.0>
0.265114

>  <SCORE.INTRA.norm>
0.00348989

>  <SCORE.RESTR>
0

>  <SCORE.RESTR.CAVITY>
0

>  <SCORE.RESTR.norm>
0

>  <SCORE.SYSTEM>
-19.9341

>  <SCORE.SYSTEM.CONST>
0

>  <SCORE.SYSTEM.DIHEDRAL>
8.82974

>  <SCORE.SYSTEM.POLAR>
-3.78872

>  <SCORE.SYSTEM.SOLV>
0.169492

>  <SCORE.SYSTEM.VDW>
-3.66005

>  <SCORE.SYSTEM.norm>
-1.81219

>  <SCORE.heavy>
11

>  <SCORE.norm>
-5.46421

$$$$
P109007011
 OpenBabel12072022103D
libRbt.so/2013.1/901 2013/11/27
 18 18  0  0  0  0  0  0  0  0999 V2000
   24.3680  -14.4377    3.5444 C   0  0  0  0  0  0  0  0  0  0  0  0
   23.9555  -15.3420    4.6998 C   0  0  2  0  0  0  0  0  0  0  0  0
   24.7047  -16.6621    4.6864 C   0  0  0  0  0  0  0  0  0  0  0  0
   24.5919  -17.4810    3.6628 N   0  3  0  0  0  0  0  0  0  0  0  0
   25.0502  -18.3768    3.5896 H   0  0  0  0  0  0  0  0  0  0  0  0
   23.9206  -17.2505    2.9153 H   0  0  0  0  0  0  0  0  0  0  0  0
   25.4759  -16.9623    5.7145 N   0  0  0  0  0  0  0  0  0  0  0  0
   22.5144  -15.5934    4.7649 N   0  0  0  0  0  0  0  0  0  0  0  0
   21.9172  -16.6697    4.1574 C   0  0  0  0  0  0  0  0  0  0  0  0
   22.3020  -17.1090    3.0785 O   0  0  0  0  0  0  0  0  0  0  0  0
   20.8872  -17.1852    4.8955 N   0  0  0  0  0  0  0  0  0  0  0  0
   20.1578  -18.3420    4.4757 C   0  0  0  0  0  0  0  0  0  0  0  0
   18.8757  -18.7162    5.1680 C   0  0  0  0  0  0  0  0  0  0  0  0
   18.8452  -18.2165    3.7541 C   0  0  0  0  0  0  0  0  0  0  0  0
   25.5663  -16.3410    6.5116 H   0  0  0  0  0  0  0  0  0  0  0  0
   25.9943  -17.8314    5.7520 H   0  0  0  0  0  0  0  0  0  0  0  0
   21.9287  -14.7675    4.7767 H   0  0  0  0  0  0  0  0  0  0  0  0
   20.8207  -16.9368    5.8740 H   0  0  0  0  0  0  0  0  0  0  0  0
  2  3  1  0  0  0  0
  2  8  1  0  0  0  0
  2  1  1  6  0  0  0
  3  4  2  0  0  0  0
  3  7  1  0  0  0  0
  4  5  1  0  0  0  0
  4  6  1  0  0  0  0
  7 15  1  0  0  0  0
  7 16  1  0  0  0  0
  8  9  1  0  0  0  0
  8 17  1  0  0  0  0
  9 10  2  0  0  0  0
  9 11  1  0  0  0  0
 11 12  1  0  0  0  0
 11 18  1  0  0  0  0
 12 13  1  0  0  0  0
 12 14  1  0  0  0  0
 13 14  1  0  0  0  0
M  CHG  1   4   1
M  END
>  <CHROM.0>
66.06179104,60.92936631,-49.88465134,-49.03847026,-170.29407420,-47.95530497
-47.70756667,-169.15849595,-165.53680067,162.23464031

>  <CHROM.1>
-61.01422737,92.17434527,-35.78365404,-168.13559142,22.42812776,-16.88797787
4.37840095,0.35573045,-0.16527797,-0.40096866

>  <Name>
P109007011

>  <RI>
0

>  <Rbt.Current_Directory>
/home/fstefaniak/projects/zuza/docking/adenine/1Y26

>  <Rbt.Executable>
rbdock ($Id: //depot/dev/client3/rdock/2013.1/src/exe/rbdock.cxx#4 $)

>  <Rbt.Library>
libRbt.so (2013.1, Build901 2013/11/27)

>  <Rbt.Parameter_File>
/home/fstefaniak/progs/rDock//data/scripts/dock_solv.prm

>  <Rbt.Receptor>
1y26.prm

>  <SCORE>
-58.4094

>  <SCORE.INTER>
-40.3475

>  <SCORE.INTER.CONST>
1

>  <SCORE.INTER.POLAR>
-6.36319

>  <SCORE.INTER.ROT>
4

>  <SCORE.INTER.SOLV>
23.5372

>  <SCORE.INTER.VDW>
-19.8001

>  <SCORE.INTER.norm>
-3.36229

>  <SCORE.INTRA>
2.07808

>  <SCORE.INTRA.DIHEDRAL>
0.257938

>  <SCORE.INTRA.DIHEDRAL.0>
3.44945

>  <SCORE.INTRA.POLAR>
0.394088

>  <SCORE.INTRA.POLAR.0>
-0.68438

>  <SCORE.INTRA.REPUL>
0

>  <SCORE.INTRA.REPUL.0>
0

>  <SCORE.INTRA.SOLV>
0.32011

>  <SCORE.INTRA.SOLV.lig_0>
-35.3507

>  <SCORE.INTRA.VDW>
0.449157

>  <SCORE.INTRA.VDW.0>
-0.227401

>  <SCORE.INTRA.norm>
0.173174

>  <SCORE.RESTR>
0

>  <SCORE.RESTR.CAVITY>
0

>  <SCORE.RESTR.norm>
0

>  <SCORE.SYSTEM>
-20.14

>  <SCORE.SYSTEM.CONST>
0

>  <SCORE.SYSTEM.DIHEDRAL>
7.81295

>  <SCORE.SYSTEM.POLAR>
-3.40457

>  <SCORE.SYSTEM.SOLV>
0.341992

>  <SCORE.SYSTEM.VDW>
-4.79643

>  <SCORE.SYSTEM.norm>
-1.67833

>  <SCORE.heavy>
12

>  <SCORE.norm>
-4.86745

$$$$
P109007011
 OpenBabel12072022103D
libRbt.so/2013.1/901 2013/11/27
 18 18  0  0  0  0  0  0  0  0999 V2000
   24.5869  -13.9813    3.7539 C   0  0  0  0  0  0  0  0  0  0  0  0
   24.1903  -14.7107    5.0319 C   0  0  2  0  0  0  0  0  0  0  0  0
   24.4592  -16.2021    4.9443 C   0  0  0  0  0  0  0  0  0  0  0  0
   23.6579  -16.9834    4.2525 N   0  3  0  0  0  0  0  0  0  0  0  0
   23.7678  -17.9819    4.1588 H   0  0  0  0  0  0  0  0  0  0  0  0
   22.8005  -16.5796    3.8472 H   0  0  0  0  0  0  0  0  0  0  0  0
   25.5156  -16.6920    5.5655 N   0  0  0  0  0  0  0  0  0  0  0  0
   22.8004  -14.4829    5.4324 N   0  0  0  0  0  0  0  0  0  0  0  0
   22.3419  -13.2673    5.8754 C   0  0  0  0  0  0  0  0  0  0  0  0
   21.8440  -12.4402    5.1185 O   0  0  0  0  0  0  0  0  0  0  0  0
   22.4866  -13.1117    7.2269 N   0  0  0  0  0  0  0  0  0  0  0  0
   22.0280  -11.9408    7.9090 C   0  0  0  0  0  0  0  0  0  0  0  0
   21.9906  -11.9112    9.4126 C   0  0  0  0  0  0  0  0  0  0  0  0
   22.9783  -11.0602    8.6710 C   0  0  0  0  0  0  0  0  0  0  0  0
   26.1374  -16.0999    6.1062 H   0  0  0  0  0  0  0  0  0  0  0  0
   25.7358  -17.6800    5.5374 H   0  0  0  0  0  0  0  0  0  0  0  0
   22.3418  -15.2678    5.8785 H   0  0  0  0  0  0  0  0  0  0  0  0
   22.6500  -13.9331    7.7944 H   0  0  0  0  0  0  0  0  0  0  0  0
  2  3  1  0  0  0  0
  2  8  1  0  0  0  0
  2  1  1  6  0  0  0
  3  4  2  0  0  0  0
  3  7  1  0  0  0  0
  4  5  1  0  0  0  0
  4  6  1  0  0  0  0
  7 15  1  0  0  0  0
  7 16  1  0  0  0  0
  8  9  1  0  0  0  0
  8 17  1  0  0  0  0
  9 10  2  0  0  0  0
  9 11  1  0  0  0  0
 11 12  1  0  0  0  0
 11 18  1  0  0  0  0
 12 13  1  0  0  0  0
 12 14  1  0  0  0  0
 13 14  1  0  0  0  0
M  CHG  1   4   1
M  END
>  <CHROM.0>
-51.66226397,-67.59789952,-55.24966249,-51.43674291,-56.35932999,-57.83405953
-62.24037134,-52.45747090,-169.23263384,160.47049015

>  <CHROM.1>
-76.37742917,-68.27195088,92.54866678,169.43849930,23.25291268,-13.95203131
6.06719286,0.85619305,0.97494470,-1.82977643

>  <Name>
P109007011

>  <RI>
0

>  <Rbt.Current_Directory>
/home/fstefaniak/projects/zuza/docking/adenine/1Y26

>  <Rbt.Executable>
rbdock ($Id: //depot/dev/client3/rdock/2013.1/src/exe/rbdock.cxx#4 $)

>  <Rbt.Library>
libRbt.so (2013.1, Build901 2013/11/27)

>  <Rbt.Parameter_File>
/home/fstefaniak/progs/rDock//data/scripts/dock_solv.prm

>  <Rbt.Receptor>
1y26.prm

>  <SCORE>
-58.3629

>  <SCORE.INTER>
-36.1781

>  <SCORE.INTER.CONST>
1

>  <SCORE.INTER.POLAR>
-5.35397

>  <SCORE.INTER.ROT>
4

>  <SCORE.INTER.SOLV>
22.8269

>  <SCORE.INTER.VDW>
-20.1478

>  <SCORE.INTER.norm>
-3.01484

>  <SCORE.INTRA>
0.00416118

>  <SCORE.INTRA.DIHEDRAL>
0.198801

>  <SCORE.INTRA.DIHEDRAL.0>
3.44945

>  <SCORE.INTRA.POLAR>
0.682709

>  <SCORE.INTRA.POLAR.0>
-0.68438

>  <SCORE.INTRA.REPUL>
0

>  <SCORE.INTRA.REPUL.0>
0

>  <SCORE.INTRA.SOLV>
-2.09153

>  <SCORE.INTRA.SOLV.lig_0>
-35.3507

>  <SCORE.INTRA.VDW>
-1.37069

>  <SCORE.INTRA.VDW.0>
-0.227401

>  <SCORE.INTRA.norm>
0.000346765

>  <SCORE.RESTR>
0

>  <SCORE.RESTR.CAVITY>
0

>  <SCORE.RESTR.norm>
0

>  <SCORE.SYSTEM>
-22.189

>  <SCORE.SYSTEM.CONST>
0

>  <SCORE.SYSTEM.DIHEDRAL>
5.60202

>  <SCORE.SYSTEM.POLAR>
-3.45244

>  <SCORE.SYSTEM.SOLV>
0.656237

>  <SCORE.SYSTEM.VDW>
-5.3706

>  <SCORE.SYSTEM.norm>
-1.84908

>  <SCORE.heavy>
12

>  <SCORE.norm>
-4.86358

$$$$
P109007011
 OpenBabel12072022103D
libRbt.so/2013.1/901 2013/11/27
 18 18  0  0  0  0  0  0  0  0999 V2000
   24.5578  -14.0319    3.7082 C   0  0  0  0  0  0  0  0  0  0  0  0
   24.1782  -14.7552    4.9948 C   0  0  2  0  0  0  0  0  0  0  0  0
   24.4695  -16.2431    4.9199 C   0  0  0  0  0  0  0  0  0  0  0  0
   23.7182  -17.0320    4.1821 N   0  3  0  0  0  0  0  0  0  0  0  0
   23.8451  -18.0289    4.0930 H   0  0  0  0  0  0  0  0  0  0  0  0
   22.8805  -16.6373    3.7294 H   0  0  0  0  0  0  0  0  0  0  0  0
   25.4946  -16.7221    5.5993 N   0  0  0  0  0  0  0  0  0  0  0  0
   22.7869  -14.5448    5.3998 N   0  0  0  0  0  0  0  0  0  0  0  0
   22.3106  -13.3309    5.8285 C   0  0  0  0  0  0  0  0  0  0  0  0
   21.8088  -12.5165    5.0605 O   0  0  0  0  0  0  0  0  0  0  0  0
   22.4431  -13.1617    7.1796 N   0  0  0  0  0  0  0  0  0  0  0  0
   21.9655  -11.9905    7.8478 C   0  0  0  0  0  0  0  0  0  0  0  0
   21.9881  -11.9186    9.3503 C   0  0  0  0  0  0  0  0  0  0  0  0
   22.9095  -11.0512    8.5449 C   0  0  0  0  0  0  0  0  0  0  0  0
   26.0775  -16.1240    6.1756 H   0  0  0  0  0  0  0  0  0  0  0  0
   25.7278  -17.7073    5.5819 H   0  0  0  0  0  0  0  0  0  0  0  0
   22.3437  -15.3310    5.8591 H   0  0  0  0  0  0  0  0  0  0  0  0
   22.6118  -13.9762    7.7556 H   0  0  0  0  0  0  0  0  0  0  0  0
  2  3  1  0  0  0  0
  2  8  1  0  0  0  0
  2  1  1  6  0  0  0
  3  4  2  0  0  0  0
  3  7  1  0  0  0  0
  4  5  1  0  0  0  0
  4  6  1  0  0  0  0
  7 15  1  0  0  0  0
  7 16  1  0  0  0  0
  8  9  1  0  0  0  0
  8 17  1  0  0  0  0
  9 10  2  0  0  0  0
  9 11  1  0  0  0  0
 11 12  1  0  0  0  0
 11 18  1  0  0  0  0
 12 13  1  0  0  0  0
 12 14  1  0  0  0  0
 13 14  1  0  0  0  0
M  CHG  1   4   1
M  END
>  <CHROM.0>
-42.53370424,-66.24258691,-50.90134191,-50.52328443,-52.00797074,-62.13657101
-50.94709356,-48.18412449,-167.23789051,162.25873864

>  <CHROM.1>
-72.78042414,-68.00508550,91.70752377,172.85878177,23.23293543,-13.99511804
6.01957794,0.84760467,0.96859663,-1.83267674

>  <Name>
P109007011

>  <RI>
0

>  <Rbt.Current_Directory>
/home/fstefaniak/projects/zuza/docking/adenine/1Y26

>  <Rbt.Executable>
rbdock ($Id: //depot/dev/client3/rdock/2013.1/src/exe/rbdock.cxx#4 $)

>  <Rbt.Library>
libRbt.so (2013.1, Build901 2013/11/27)

>  <Rbt.Parameter_File>
/home/fstefaniak/progs/rDock//data/scripts/dock_solv.prm

>  <Rbt.Receptor>
1y26.prm

>  <SCORE>
-57.9258

>  <SCORE.INTER>
-36.187

>  <SCORE.INTER.CONST>
1

>  <SCORE.INTER.POLAR>
-5.34209

>  <SCORE.INTER.ROT>
4

>  <SCORE.INTER.SOLV>
23.0517

>  <SCORE.INTER.VDW>
-20.2683

>  <SCORE.INTER.norm>
-3.01558

>  <SCORE.INTRA>
0.00270747

>  <SCORE.INTRA.DIHEDRAL>
0.212768

>  <SCORE.INTRA.DIHEDRAL.0>
3.44945

>  <SCORE.INTRA.POLAR>
0.682496

>  <SCORE.INTRA.POLAR.0>
-0.68438

>  <SCORE.INTRA.REPUL>
0

>  <SCORE.INTRA.REPUL.0>
0

>  <SCORE.INTRA.SOLV>
-2.14058

>  <SCORE.INTRA.SOLV.lig_0>
-35.3507

>  <SCORE.INTRA.VDW>
-1.35387

>  <SCORE.INTRA.VDW.0>
-0.227401

>  <SCORE.INTRA.norm>
0.000225622

>  <SCORE.RESTR>
0

>  <SCORE.RESTR.CAVITY>
0

>  <SCORE.RESTR.norm>
0

>  <SCORE.SYSTEM>
-21.7415

>  <SCORE.SYSTEM.CONST>
0

>  <SCORE.SYSTEM.DIHEDRAL>
7.81822

>  <SCORE.SYSTEM.POLAR>
-3.6667

>  <SCORE.SYSTEM.SOLV>
0.696581

>  <SCORE.SYSTEM.VDW>
-5.1103

>  <SCORE.SYSTEM.norm>
-1.81179

>  <SCORE.heavy>
12

>  <SCORE.norm>
-4.82715

$$$$
P109007214
 OpenBabel12072022103D
libRbt.so/2013.1/901 2013/11/27
 16 15  0  0  0  0  0  0  0  0999 V2000
   19.0948  -19.3562    5.7097 C   0  0  0  0  0  0  0  0  0  0  0  0
   19.4632  -18.4594    4.5413 C   0  0  0  0  0  0  0  0  0  0  0  0
   20.6447  -17.6659    4.8272 N   0  0  0  0  0  0  0  0  0  0  0  0
   21.4502  -17.1942    3.8363 C   0  0  0  0  0  0  0  0  0  0  0  0
   21.2915  -17.3892    2.6362 O   0  0  0  0  0  0  0  0  0  0  0  0
   22.4865  -16.4366    4.3211 N   0  0  0  0  0  0  0  0  0  0  0  0
   23.8568  -16.8564    4.0707 C   0  0  0  0  0  0  0  0  0  0  0  0
   24.7765  -16.0476    4.9491 C   0  0  0  0  0  0  0  0  0  0  0  0
   25.6598  -16.6750    5.7012 N   0  3  0  0  0  0  0  0  0  0  0  0
   26.2954  -16.1701    6.3064 H   0  0  0  0  0  0  0  0  0  0  0  0
   25.7200  -17.6878    5.7131 H   0  0  0  0  0  0  0  0  0  0  0  0
   24.6838  -14.7348    4.9375 N   0  0  0  0  0  0  0  0  0  0  0  0
   20.6856  -17.2230    5.7343 H   0  0  0  0  0  0  0  0  0  0  0  0
   22.2981  -16.0637    5.2436 H   0  0  0  0  0  0  0  0  0  0  0  0
   23.9218  -14.3036    4.3934 H   0  0  0  0  0  0  0  0  0  0  0  0
   25.2489  -14.1147    5.4980 H   0  0  0  0  0  0  0  0  0  0  0  0
  1  2  1  0  0  0  0
  2  3  1  0  0  0  0
  3  4  1  0  0  0  0
  3 13  1  0  0  0  0
  4  5  2  0  0  0  0
  4  6  1  0  0  0  0
  6  7  1  0  0  0  0
  6 14  1  0  0  0  0
  7  8  1  0  0  0  0
  8  9  2  0  0  0  0
  8 12  1  0  0  0  0
  9 10  1  0  0  0  0
  9 11  1  0  0  0  0
 12 15  1  0  0  0  0
 12 16  1  0  0  0  0
M  CHG  1   9   1
M  END
>  <CHROM.0>
-47.29082199,-63.23120790,-57.64863287,-49.99559917,-53.93810216,-177.16354123
-57.06006145,-52.12130480,-166.99440690,160.34820043

>  <CHROM.1>
154.69369415,119.40563111,-167.57563925,128.41987232,22.35227147,-17.06658145
4.57791276,-2.99526083,-0.44884852,-1.10993901

>  <Name>
P109007214

>  <RI>
0

>  <Rbt.Current_Directory>
/home/fstefaniak/projects/zuza/docking/adenine/1Y26

>  <Rbt.Executable>
rbdock ($Id: //depot/dev/client3/rdock/2013.1/src/exe/rbdock.cxx#4 $)

>  <Rbt.Library>
libRbt.so (2013.1, Build901 2013/11/27)

>  <Rbt.Parameter_File>
/home/fstefaniak/progs/rDock//data/scripts/dock_solv.prm

>  <Rbt.Receptor>
1y26.prm

>  <SCORE>
-61.2856

>  <SCORE.INTER>
-39.8564

>  <SCORE.INTER.CONST>
1

>  <SCORE.INTER.POLAR>
-6.13497

>  <SCORE.INTER.ROT>
4

>  <SCORE.INTER.SOLV>
23.2145

>  <SCORE.INTER.VDW>
-20.1258

>  <SCORE.INTER.norm>
-3.98564

>  <SCORE.INTRA>
0.531092

>  <SCORE.INTRA.DIHEDRAL>
-0.100898

>  <SCORE.INTRA.DIHEDRAL.0>
3.19965

>  <SCORE.INTRA.POLAR>
0.705507

>  <SCORE.INTRA.POLAR.0>
-0.705998

>  <SCORE.INTRA.REPUL>
0

>  <SCORE.INTRA.REPUL.0>
0

>  <SCORE.INTRA.SOLV>
-2.19493

>  <SCORE.INTRA.SOLV.lig_0>
-36.7784

>  <SCORE.INTRA.VDW>
-0.719718

>  <SCORE.INTRA.VDW.0>
0.291192

>  <SCORE.INTRA.norm>
0.0531092

>  <SCORE.RESTR>
0

>  <SCORE.RESTR.CAVITY>
0

>  <SCORE.RESTR.norm>
0

>  <SCORE.SYSTEM>
-21.9603

>  <SCORE.SYSTEM.CONST>
0

>  <SCORE.SYSTEM.DIHEDRAL>
6.25044

>  <SCORE.SYSTEM.POLAR>
-3.55609

>  <SCORE.SYSTEM.SOLV>
0.531732

>  <SCORE.SYSTEM.VDW>
-5.04731

>  <SCORE.SYSTEM.norm>
-2.19603

>  <SCORE.heavy>
10

>  <SCORE.norm>
-6.12856

$$$$
P109007214
 OpenBabel12072022103D
libRbt.so/2013.1/901 2013/11/27
 16 15  0  0  0  0  0  0  0  0999 V2000
   19.9366  -17.4556    3.5928 C   0  0  0  0  0  0  0  0  0  0  0  0
   20.1623  -15.9744    3.8387 C   0  0  0  0  0  0  0  0  0  0  0  0
   21.3715  -15.7372    4.6061 N   0  0  0  0  0  0  0  0  0  0  0  0
   22.0938  -14.5911    4.4724 C   0  0  0  0  0  0  0  0  0  0  0  0
   21.8312  -13.6689    3.7081 O   0  0  0  0  0  0  0  0  0  0  0  0
   23.1750  -14.5530    5.3165 N   0  0  0  0  0  0  0  0  0  0  0  0
   24.5068  -14.7959    4.7834 C   0  0  0  0  0  0  0  0  0  0  0  0
   24.7754  -16.2785    4.8155 C   0  0  0  0  0  0  0  0  0  0  0  0
   24.1755  -17.0575    3.9363 N   0  3  0  0  0  0  0  0  0  0  0  0
   24.3271  -18.0585    3.9239 H   0  0  0  0  0  0  0  0  0  0  0  0
   23.5261  -16.6818    3.2532 H   0  0  0  0  0  0  0  0  0  0  0  0
   25.6095  -16.7598    5.7127 N   0  0  0  0  0  0  0  0  0  0  0  0
   21.4941  -16.2901    5.4428 H   0  0  0  0  0  0  0  0  0  0  0  0
   22.9775  -14.9631    6.2212 H   0  0  0  0  0  0  0  0  0  0  0  0
   25.9850  -16.1165    6.4253 H   0  0  0  0  0  0  0  0  0  0  0  0
   25.8413  -17.7363    5.8151 H   0  0  0  0  0  0  0  0  0  0  0  0
  1  2  1  0  0  0  0
  2  3  1  0  0  0  0
  3  4  1  0  0  0  0
  3 13  1  0  0  0  0
  4  5  2  0  0  0  0
  4  6  1  0  0  0  0
  6  7  1  0  0  0  0
  6 14  1  0  0  0  0
  7  8  1  0  0  0  0
  8  9  2  0  0  0  0
  8 12  1  0  0  0  0
  9 10  1  0  0  0  0
  9 11  1  0  0  0  0
 12 15  1  0  0  0  0
 12 16  1  0  0  0  0
M  CHG  1   9   1
M  END
>  <CHROM.0>
-53.77920887,-76.00345523,64.64205823,-55.13054759,-174.52939918,-60.77627564
76.89887359,-52.52444959,-166.97967930,160.12297534

>  <CHROM.1>
150.86521416,103.93497171,-87.86486207,73.97131092,22.76493552,-15.71859070
4.48605725,3.11286102,-0.27727818,0.07218039

>  <Name>
P109007214

>  <RI>
0

>  <Rbt.Current_Directory>
/home/fstefaniak/projects/zuza/docking/adenine/1Y26

>  <Rbt.Executable>
rbdock ($Id: //depot/dev/client3/rdock/2013.1/src/exe/rbdock.cxx#4 $)

>  <Rbt.Library>
libRbt.so (2013.1, Build901 2013/11/27)

>  <Rbt.Parameter_File>
/home/fstefaniak/progs/rDock//data/scripts/dock_solv.prm

>  <Rbt.Receptor>
1y26.prm

>  <SCORE>
-60.8271

>  <SCORE.INTER>
-40.9273

>  <SCORE.INTER.CONST>
1

>  <SCORE.INTER.POLAR>
-6.30126

>  <SCORE.INTER.ROT>
4

>  <SCORE.INTER.SOLV>
22.9957

>  <SCORE.INTER.VDW>
-20.2125

>  <SCORE.INTER.norm>
-4.09273

>  <SCORE.INTRA>
0.486688

>  <SCORE.INTRA.DIHEDRAL>
-0.26026

>  <SCORE.INTRA.DIHEDRAL.0>
3.19965

>  <SCORE.INTRA.POLAR>
0.705998

>  <SCORE.INTRA.POLAR.0>
-0.705998

>  <SCORE.INTRA.REPUL>
0

>  <SCORE.INTRA.REPUL.0>
0

>  <SCORE.INTRA.SOLV>
0.188879

>  <SCORE.INTRA.SOLV.lig_0>
-36.7784

>  <SCORE.INTRA.VDW>
-1.87802

>  <SCORE.INTRA.VDW.0>
0.291192

>  <SCORE.INTRA.norm>
0.0486688

>  <SCORE.RESTR>
0

>  <SCORE.RESTR.CAVITY>
0

>  <SCORE.RESTR.norm>
0

>  <SCORE.SYSTEM>
-20.3865

>  <SCORE.SYSTEM.CONST>
0

>  <SCORE.SYSTEM.DIHEDRAL>
7.71272

>  <SCORE.SYSTEM.POLAR>
-3.68132

>  <SCORE.SYSTEM.SOLV>
0.294313

>  <SCORE.SYSTEM.VDW>
-3.98896

>  <SCORE.SYSTEM.norm>
-2.03865

>  <SCORE.heavy>
10

>  <SCORE.norm>
-6.08271

$$$$
P109007214
 OpenBabel12072022103D
libRbt.so/2013.1/901 2013/11/27
 16 15  0  0  0  0  0  0  0  0999 V2000
   19.3823  -18.7481    5.4835 C   0  0  0  0  0  0  0  0  0  0  0  0
   19.9839  -17.8690    4.4016 C   0  0  0  0  0  0  0  0  0  0  0  0
   21.1071  -17.0973    4.9018 N   0  0  0  0  0  0  0  0  0  0  0  0
   21.7041  -16.1298    4.1530 C   0  0  0  0  0  0  0  0  0  0  0  0
   21.3901  -15.8194    3.0091 O   0  0  0  0  0  0  0  0  0  0  0  0
   22.7176  -15.4972    4.8280 N   0  0  0  0  0  0  0  0  0  0  0  0
   24.0446  -15.4395    4.2343 C   0  0  0  0  0  0  0  0  0  0  0  0
   24.7504  -16.7433    4.5049 C   0  0  0  0  0  0  0  0  0  0  0  0
   25.4253  -16.8852    5.6293 N   0  3  0  0  0  0  0  0  0  0  0  0
   25.9146  -17.7437    5.8496 H   0  0  0  0  0  0  0  0  0  0  0  0
   25.4928  -16.1307    6.3043 H   0  0  0  0  0  0  0  0  0  0  0  0
   24.6686  -17.7128    3.6186 N   0  0  0  0  0  0  0  0  0  0  0  0
   21.2364  -17.0807    5.9037 H   0  0  0  0  0  0  0  0  0  0  0  0
   22.6849  -15.6649    5.8262 H   0  0  0  0  0  0  0  0  0  0  0  0
   24.1970  -17.5174    2.7230 H   0  0  0  0  0  0  0  0  0  0  0  0
   25.1151  -18.6129    3.7098 H   0  0  0  0  0  0  0  0  0  0  0  0
  1  2  1  0  0  0  0
  2  3  1  0  0  0  0
  3  4  1  0  0  0  0
  3 13  1  0  0  0  0
  4  5  2  0  0  0  0
  4  6  1  0  0  0  0
  6  7  1  0  0  0  0
  6 14  1  0  0  0  0
  7  8  1  0  0  0  0
  8  9  2  0  0  0  0
  8 12  1  0  0  0  0
  9 10  1  0  0  0  0
  9 11  1  0  0  0  0
 12 15  1  0  0  0  0
 12 16  1  0  0  0  0
M  CHG  1   9   1
M  END
>  <CHROM.0>
60.77742070,-60.50343657,-63.87855789,-52.01342275,-57.51694173,-57.00164079
-169.08523883,-51.27112132,-166.18371725,161.58574554

>  <CHROM.1>
-172.38242855,125.31082208,-81.52674773,-87.18509487,22.52628728,-16.81820352
4.49142908,-2.93265804,-0.10088737,-0.53860626

>  <Name>
P109007214

>  <RI>
0

>  <Rbt.Current_Directory>
/home/fstefaniak/projects/zuza/docking/adenine/1Y26

>  <Rbt.Executable>
rbdock ($Id: //depot/dev/client3/rdock/2013.1/src/exe/rbdock.cxx#4 $)

>  <Rbt.Library>
libRbt.so (2013.1, Build901 2013/11/27)

>  <Rbt.Parameter_File>
/home/fstefaniak/progs/rDock//data/scripts/dock_solv.prm

>  <Rbt.Receptor>
1y26.prm

>  <SCORE>
-60.4444

>  <SCORE.INTER>
-41.1746

>  <SCORE.INTER.CONST>
1

>  <SCORE.INTER.POLAR>
-6.36991

>  <SCORE.INTER.ROT>
4

>  <SCORE.INTER.SOLV>
23.8884

>  <SCORE.INTER.VDW>
-20.4461

>  <SCORE.INTER.norm>
-4.11746

>  <SCORE.INTRA>
1.08008

>  <SCORE.INTRA.DIHEDRAL>
-0.0613711

>  <SCORE.INTRA.DIHEDRAL.0>
3.19965

>  <SCORE.INTRA.POLAR>
0.705998

>  <SCORE.INTRA.POLAR.0>
-0.705998

>  <SCORE.INTRA.REPUL>
0

>  <SCORE.INTRA.REPUL.0>
0

>  <SCORE.INTRA.SOLV>
-1.13277

>  <SCORE.INTRA.SOLV.lig_0>
-36.7784

>  <SCORE.INTRA.VDW>
-0.723244

>  <SCORE.INTRA.VDW.0>
0.291192

>  <SCORE.INTRA.norm>
0.108008

>  <SCORE.RESTR>
0

>  <SCORE.RESTR.CAVITY>
0

>  <SCORE.RESTR.norm>
0

>  <SCORE.SYSTEM>
-20.3499

>  <SCORE.SYSTEM.CONST>
0

>  <SCORE.SYSTEM.DIHEDRAL>
5.69343

>  <SCORE.SYSTEM.POLAR>
-3.20998

>  <SCORE.SYSTEM.SOLV>
0.587211

>  <SCORE.SYSTEM.VDW>
-4.96019

>  <SCORE.SYSTEM.norm>
-2.03499

>  <SCORE.heavy>
10

>  <SCORE.norm>
-6.04444

$$$$
P109007524
 OpenBabel12072022103D
libRbt.so/2013.1/901 2013/11/27
 18 17  0  0  0  0  0  0  0  0999 V2000
   21.4767  -16.5607    4.4102 C   0  0  0  0  0  0  0  0  0  0  0  0
   22.3378  -15.5217    3.6963 C   0  0  0  0  0  0  0  0  0  0  0  0
   23.7423  -15.2561    4.3159 C   0  0  2  0  0  0  0  0  0  0  0  0
   24.5391  -14.3073    3.3993 C   0  0  0  0  0  0  0  0  0  0  0  0
   24.5219  -16.5848    4.4884 C   0  0  0  0  0  0  0  0  0  0  0  0
   25.3663  -16.7173    5.4921 N   0  3  0  0  0  0  0  0  0  0  0  0
   25.9019  -17.5497    5.6867 H   0  0  0  0  0  0  0  0  0  0  0  0
   25.4157  -15.9772    6.2063 H   0  0  0  0  0  0  0  0  0  0  0  0
   24.3559  -17.5970    3.6549 N   0  0  0  0  0  0  0  0  0  0  0  0
   23.5593  -14.6958    5.6749 N   0  0  0  0  0  0  0  0  0  0  0  0
   22.8881  -13.5418    5.9445 C   0  0  0  0  0  0  0  0  0  0  0  0
   23.0494  -12.4907    5.3404 O   0  0  0  0  0  0  0  0  0  0  0  0
   22.0164  -13.6687    6.9670 N   0  0  0  0  0  0  0  0  0  0  0  0
   23.7092  -17.5709    2.8756 H   0  0  0  0  0  0  0  0  0  0  0  0
   24.8610  -18.4661    3.7761 H   0  0  0  0  0  0  0  0  0  0  0  0
   23.4432  -15.3683    6.4233 H   0  0  0  0  0  0  0  0  0  0  0  0
   21.7880  -14.5876    7.3214 H   0  0  0  0  0  0  0  0  0  0  0  0
   22.0718  -12.9473    7.6789 H   0  0  0  0  0  0  0  0  0  0  0  0
  1  2  1  0  0  0  0
  3  5  1  0  0  0  0
  3 10  1  0  0  0  0
  3  4  1  6  0  0  0
  3  2  1  0  0  0  0
  5  6  2  0  0  0  0
  5  9  1  0  0  0  0
  6  7  1  0  0  0  0
  6  8  1  0  0  0  0
  9 14  1  0  0  0  0
  9 15  1  0  0  0  0
 10 11  1  0  0  0  0
 10 16  1  0  0  0  0
 11 12  2  0  0  0  0
 11 13  1  0  0  0  0
 13 17  1  0  0  0  0
 13 18  1  0  0  0  0
M  CHG  1   6   1
M  END
>  <CHROM.0>
-47.70488626,-167.11358041,-56.37919299,-50.54562090,-56.21343925,-57.15718449
-57.61437893,-174.76846770,-168.63238662,160.17110832

>  <CHROM.1>
-147.87831705,-59.29149485,173.81433357,-47.24965465,-11.85550427,23.43980526
-15.18757078,4.88239459,1.18047744,-0.01118391,-2.67133041

>  <Name>
P109007524

>  <RI>
0

>  <Rbt.Current_Directory>
/home/fstefaniak/projects/zuza/docking/adenine/1Y26

>  <Rbt.Executable>
rbdock ($Id: //depot/dev/client3/rdock/2013.1/src/exe/rbdock.cxx#4 $)

>  <Rbt.Library>
libRbt.so (2013.1, Build901 2013/11/27)

>  <Rbt.Parameter_File>
/home/fstefaniak/progs/rDock//data/scripts/dock_solv.prm

>  <Rbt.Receptor>
1y26.prm

>  <SCORE>
-52.2164

>  <SCORE.INTER>
-28.1938

>  <SCORE.INTER.CONST>
1

>  <SCORE.INTER.POLAR>
-6.1461

>  <SCORE.INTER.ROT>
5

>  <SCORE.INTER.SOLV>
22.9213

>  <SCORE.INTER.VDW>
-12.8826

>  <SCORE.INTER.norm>
-2.56307

>  <SCORE.INTRA>
-1.51292

>  <SCORE.INTRA.DIHEDRAL>
-0.0538392

>  <SCORE.INTRA.DIHEDRAL.0>
2.84466

>  <SCORE.INTRA.POLAR>
0.685183

>  <SCORE.INTRA.POLAR.0>
-0.709421

>  <SCORE.INTRA.REPUL>
0

>  <SCORE.INTRA.REPUL.0>
0

>  <SCORE.INTRA.SOLV>
-0.656574

>  <SCORE.INTRA.SOLV.lig_0>
-32.1859

>  <SCORE.INTRA.VDW>
-3.48733

>  <SCORE.INTRA.VDW.0>
3.13324

>  <SCORE.INTRA.norm>
-0.137538

>  <SCORE.RESTR>
0

>  <SCORE.RESTR.CAVITY>
0

>  <SCORE.RESTR.norm>
0

>  <SCORE.SYSTEM>
-22.5096

>  <SCORE.SYSTEM.CONST>
0

>  <SCORE.SYSTEM.DIHEDRAL>
6.49171

>  <SCORE.SYSTEM.POLAR>
-3.50158

>  <SCORE.SYSTEM.SOLV>
0.402199

>  <SCORE.SYSTEM.VDW>
-5.63248

>  <SCORE.SYSTEM.norm>
-2.04633

>  <SCORE.heavy>
11

>  <SCORE.norm>
-4.74694

$$$$
P109007524
 OpenBabel12072022103D
libRbt.so/2013.1/901 2013/11/27
 18 17  0  0  0  0  0  0  0  0999 V2000
   21.3350  -16.4399    4.4141 C   0  0  0  0  0  0  0  0  0  0  0  0
   22.2884  -15.5191    3.6565 C   0  0  0  0  0  0  0  0  0  0  0  0
   23.6485  -15.2199    4.3548 C   0  0  2  0  0  0  0  0  0  0  0  0
   24.4612  -14.2299    3.4977 C   0  0  0  0  0  0  0  0  0  0  0  0
   24.4610  -16.5259    4.5474 C   0  0  0  0  0  0  0  0  0  0  0  0
   25.2886  -16.6319    5.5681 N   0  3  0  0  0  0  0  0  0  0  0  0
   25.8431  -17.4485    5.7763 H   0  0  0  0  0  0  0  0  0  0  0  0
   25.3031  -15.8886    6.2806 H   0  0  0  0  0  0  0  0  0  0  0  0
   24.3399  -17.5447    3.7143 N   0  0  0  0  0  0  0  0  0  0  0  0
   23.3752  -14.6901    5.7109 N   0  0  0  0  0  0  0  0  0  0  0  0
   22.4773  -13.7025    5.9817 C   0  0  0  0  0  0  0  0  0  0  0  0
   21.8949  -13.0451    5.1307 O   0  0  0  0  0  0  0  0  0  0  0  0
   22.2934  -13.5093    7.3047 N   0  0  0  0  0  0  0  0  0  0  0  0
   23.7085  -17.5390    2.9221 H   0  0  0  0  0  0  0  0  0  0  0  0
   24.8664  -18.3991    3.8485 H   0  0  0  0  0  0  0  0  0  0  0  0
   23.4202  -15.3598    6.4693 H   0  0  0  0  0  0  0  0  0  0  0  0
   22.9513  -12.9461    7.8264 H   0  0  0  0  0  0  0  0  0  0  0  0
   21.3278  -13.4062    7.5999 H   0  0  0  0  0  0  0  0  0  0  0  0
  1  2  1  0  0  0  0
  3  5  1  0  0  0  0
  3 10  1  0  0  0  0
  3  4  1  6  0  0  0
  3  2  1  0  0  0  0
  5  6  2  0  0  0  0
  5  9  1  0  0  0  0
  6  7  1  0  0  0  0
  6  8  1  0  0  0  0
  9 14  1  0  0  0  0
  9 15  1  0  0  0  0
 10 11  1  0  0  0  0
 10 16  1  0  0  0  0
 11 12  2  0  0  0  0
 11 13  1  0  0  0  0
 13 17  1  0  0  0  0
 13 18  1  0  0  0  0
M  CHG  1   6   1
M  END
>  <CHROM.0>
-50.46757823,-47.93148541,176.92289556,-55.60907108,-55.77456472,-57.62493213
76.93871800,-50.78409790,-164.93808076,163.04669554

>  <CHROM.1>
-150.13770743,-47.81347033,-177.34758196,-7.87970463,81.68683511,23.25742025
-15.19327641,4.92722344,0.99190981,0.43640621,-2.35338845

>  <Name>
P109007524

>  <RI>
0

>  <Rbt.Current_Directory>
/home/fstefaniak/projects/zuza/docking/adenine/1Y26

>  <Rbt.Executable>
rbdock ($Id: //depot/dev/client3/rdock/2013.1/src/exe/rbdock.cxx#4 $)

>  <Rbt.Library>
libRbt.so (2013.1, Build901 2013/11/27)

>  <Rbt.Parameter_File>
/home/fstefaniak/progs/rDock//data/scripts/dock_solv.prm

>  <Rbt.Receptor>
1y26.prm

>  <SCORE>
-51.22

>  <SCORE.INTER>
-30.0095

>  <SCORE.INTER.CONST>
1

>  <SCORE.INTER.POLAR>
-6.10075

>  <SCORE.INTER.ROT>
5

>  <SCORE.INTER.SOLV>
23.4655

>  <SCORE.INTER.VDW>
-14.4256

>  <SCORE.INTER.norm>
-2.72813

>  <SCORE.INTRA>
-0.9058

>  <SCORE.INTRA.DIHEDRAL>
0.355141

>  <SCORE.INTRA.DIHEDRAL.0>
2.84466

>  <SCORE.INTRA.POLAR>
0.696189

>  <SCORE.INTRA.POLAR.0>
-0.709421

>  <SCORE.INTRA.REPUL>
0

>  <SCORE.INTRA.REPUL.0>
0

>  <SCORE.INTRA.SOLV>
-0.725558

>  <SCORE.INTRA.SOLV.lig_0>
-32.1859

>  <SCORE.INTRA.VDW>
-3.08763

>  <SCORE.INTRA.VDW.0>
3.13324

>  <SCORE.INTRA.norm>
-0.0823454

>  <SCORE.RESTR>
0

>  <SCORE.RESTR.CAVITY>
0

>  <SCORE.RESTR.norm>
0

>  <SCORE.SYSTEM>
-20.3047

>  <SCORE.SYSTEM.CONST>
0

>  <SCORE.SYSTEM.DIHEDRAL>
7.33801

>  <SCORE.SYSTEM.POLAR>
-3.65521

>  <SCORE.SYSTEM.SOLV>
0.50713

>  <SCORE.SYSTEM.VDW>
-3.96751

>  <SCORE.SYSTEM.norm>
-1.84588

>  <SCORE.heavy>
11

>  <SCORE.norm>
-4.65636

$$$$
P109007524
 OpenBabel12072022103D
libRbt.so/2013.1/901 2013/11/27
 18 17  0  0  0  0  0  0  0  0999 V2000
   21.4100  -16.6242    4.4388 C   0  0  0  0  0  0  0  0  0  0  0  0
   22.3042  -15.6440    3.6835 C   0  0  0  0  0  0  0  0  0  0  0  0
   23.6691  -15.3075    4.3550 C   0  0  2  0  0  0  0  0  0  0  0  0
   24.4582  -14.3332    3.4587 C   0  0  0  0  0  0  0  0  0  0  0  0
   24.5006  -16.5971    4.5752 C   0  0  0  0  0  0  0  0  0  0  0  0
   24.4501  -17.5636    3.6801 N   0  3  0  0  0  0  0  0  0  0  0  0
   24.9685  -18.4273    3.7367 H   0  0  0  0  0  0  0  0  0  0  0  0
   23.9438  -17.4035    2.7979 H   0  0  0  0  0  0  0  0  0  0  0  0
   25.2689  -16.7510    5.6396 N   0  0  0  0  0  0  0  0  0  0  0  0
   23.4063  -14.7414    5.6984 N   0  0  0  0  0  0  0  0  0  0  0  0
   22.8011  -13.5415    5.9199 C   0  0  0  0  0  0  0  0  0  0  0  0
   22.7368  -12.6375    5.0987 O   0  0  0  0  0  0  0  0  0  0  0  0
   22.2755  -13.4400    7.1588 N   0  0  0  0  0  0  0  0  0  0  0  0
   25.3704  -16.0414    6.3554 H   0  0  0  0  0  0  0  0  0  0  0  0
   25.8168  -17.5916    5.7753 H   0  0  0  0  0  0  0  0  0  0  0  0
   23.1734  -15.4068    6.4256 H   0  0  0  0  0  0  0  0  0  0  0  0
   21.2840  -13.2784    7.2723 H   0  0  0  0  0  0  0  0  0  0  0  0
   22.6819  -14.0554    7.8563 H   0  0  0  0  0  0  0  0  0  0  0  0
  1  2  1  0  0  0  0
  3  5  1  0  0  0  0
  3 10  1  0  0  0  0
  3  4  1  6  0  0  0
  3  2  1  0  0  0  0
  5  6  2  0  0  0  0
  5  9  1  0  0  0  0
  6  7  1  0  0  0  0
  6  8  1  0  0  0  0
  9 14  1  0  0  0  0
  9 15  1  0  0  0  0
 10 11  1  0  0  0  0
 10 16  1  0  0  0  0
 11 12  2  0  0  0  0
 11 13  1  0  0  0  0
 13 17  1  0  0  0  0
 13 18  1  0  0  0  0
M  CHG  1   6   1
M  END
>  <CHROM.0>
-46.21964755,-78.80350985,-63.98086472,62.63443594,-54.28321999,-64.59962528
-172.31527276,-177.04789211,-165.60905115,162.22580254

>  <CHROM.1>
36.14019952,-66.85871377,178.89248821,-21.22994440,-120.16187373,23.38717276
-15.20858693,4.90866121,1.14307388,0.33872117,-2.52666937

>  <Name>
P109007524

>  <RI>
0

>  <Rbt.Current_Directory>
/home/fstefaniak/projects/zuza/docking/adenine/1Y26

>  <Rbt.Executable>
rbdock ($Id: //depot/dev/client3/rdock/2013.1/src/exe/rbdock.cxx#4 $)

>  <Rbt.Library>
libRbt.so (2013.1, Build901 2013/11/27)

>  <Rbt.Parameter_File>
/home/fstefaniak/progs/rDock//data/scripts/dock_solv.prm

>  <Rbt.Receptor>
1y26.prm

>  <SCORE>
-49.9184

>  <SCORE.INTER>
-30.1078

>  <SCORE.INTER.CONST>
1

>  <SCORE.INTER.POLAR>
-6.39369

>  <SCORE.INTER.ROT>
5

>  <SCORE.INTER.SOLV>
23.4133

>  <SCORE.INTER.VDW>
-13.4974

>  <SCORE.INTER.norm>
-2.73708

>  <SCORE.INTRA>
-1.51652

>  <SCORE.INTRA.DIHEDRAL>
-0.384014

>  <SCORE.INTRA.DIHEDRAL.0>
2.84466

>  <SCORE.INTRA.POLAR>
0.707788

>  <SCORE.INTRA.POLAR.0>
-0.709421

>  <SCORE.INTRA.REPUL>
0

>  <SCORE.INTRA.REPUL.0>
0

>  <SCORE.INTRA.SOLV>
-0.971096

>  <SCORE.INTRA.SOLV.lig_0>
-32.1859

>  <SCORE.INTRA.VDW>
-3.24545

>  <SCORE.INTRA.VDW.0>
3.13324

>  <SCORE.INTRA.norm>
-0.137866

>  <SCORE.RESTR>
0

>  <SCORE.RESTR.CAVITY>
0

>  <SCORE.RESTR.norm>
0

>  <SCORE.SYSTEM>
-18.2941

>  <SCORE.SYSTEM.CONST>
0

>  <SCORE.SYSTEM.DIHEDRAL>
7.45664

>  <SCORE.SYSTEM.POLAR>
-2.8706

>  <SCORE.SYSTEM.SOLV>
0.31125

>  <SCORE.SYSTEM.VDW>
-5.21668

>  <SCORE.SYSTEM.norm>
-1.6631

>  <SCORE.heavy>
11

>  <SCORE.norm>
-4.53804

$$$$
P109008946
 OpenBabel12072022103D
libRbt.so/2013.1/901 2013/11/27
 15 15  0  0  0  0  0  0  0  0999 V2000
   21.6044  -16.8283    3.8294 C   0  0  0  0  0  0  0  0  0  0  0  0
   20.5339  -16.3641    4.8104 C   0  0  0  0  0  0  0  0  0  0  0  0
   19.4585  -17.4517    4.7213 C   0  0  1  0  0  0  0  0  0  0  0  0
   19.5872  -17.9576    3.3452 N   0  0  0  0  0  0  0  0  0  0  0  0
   20.7912  -17.4476    2.7060 C   0  0  0  0  0  0  0  0  0  0  0  0
   18.5245  -18.5227    2.6981 C   0  0  0  0  0  0  0  0  0  0  0  0
   17.4425  -18.7592    3.2269 O   0  0  0  0  0  0  0  0  0  0  0  0
   18.7187  -18.8225    1.3919 N   0  0  0  0  0  0  0  0  0  0  0  0
   19.5381  -18.6352    5.7144 C   0  0  0  0  0  0  0  0  0  0  0  0
   18.9640  -20.1827    5.4626 S   0  0  0  0  0  0  0  0  0  0  0  0
   20.1465  -18.3532    6.9092 N   0  0  0  0  0  0  0  0  0  0  0  0
   18.4638  -18.1209    0.7142 H   0  0  0  0  0  0  0  0  0  0  0  0
   19.6087  -19.2707    1.2144 H   0  0  0  0  0  0  0  0  0  0  0  0
   20.3602  -17.3850    7.1601 H   0  0  0  0  0  0  0  0  0  0  0  0
   20.1758  -19.0493    7.6424 H   0  0  0  0  0  0  0  0  0  0  0  0
  1  2  1  0  0  0  0
  1  5  1  0  0  0  0
  2  3  1  0  0  0  0
  3  4  1  0  0  0  0
  3  9  1  1  0  0  0
  4  5  1  0  0  0  0
  4  6  1  0  0  0  0
  6  7  2  0  0  0  0
  6  8  1  0  0  0  0
  8 12  1  0  0  0  0
  8 13  1  0  0  0  0
  9 10  2  0  0  0  0
  9 11  1  0  0  0  0
 11 14  1  0  0  0  0
 11 15  1  0  0  0  0
M  END
>  <CHROM.0>
-52.73050679,53.84599259,-51.47949192,-51.90120386,-174.92610284,-57.48437461
-60.31591358,-50.69267189,-166.98825650,159.99428463

>  <CHROM.1>
-152.35992144,-91.94458130,19.50100584,-18.34332502,4.20477577,-1.80048181
0.79967039,1.89275380

>  <Name>
P109008946

>  <RI>
0

>  <Rbt.Current_Directory>
/home/fstefaniak/projects/zuza/docking/adenine/1Y26

>  <Rbt.Executable>
rbdock ($Id: //depot/dev/client3/rdock/2013.1/src/exe/rbdock.cxx#4 $)

>  <Rbt.Library>
libRbt.so (2013.1, Build901 2013/11/27)

>  <Rbt.Parameter_File>
/home/fstefaniak/progs/rDock//data/scripts/dock_solv.prm

>  <Rbt.Receptor>
1y26.prm

>  <SCORE>
-50.0526

>  <SCORE.INTER>
-29.5052

>  <SCORE.INTER.CONST>
1

>  <SCORE.INTER.POLAR>
-2.94367

>  <SCORE.INTER.ROT>
2

>  <SCORE.INTER.SOLV>
15.5094

>  <SCORE.INTER.VDW>
-19.961

>  <SCORE.INTER.norm>
-2.68229

>  <SCORE.INTRA>
0.982693

>  <SCORE.INTRA.DIHEDRAL>
0.000809575

>  <SCORE.INTRA.DIHEDRAL.0>
1.52126

>  <SCORE.INTRA.POLAR>
0.294357

>  <SCORE.INTRA.POLAR.0>
-0.294357

>  <SCORE.INTRA.REPUL>
0

>  <SCORE.INTRA.REPUL.0>
0

>  <SCORE.INTRA.SOLV>
-0.393132

>  <SCORE.INTRA.SOLV.lig_0>
-15.8133

>  <SCORE.INTRA.VDW>
0.178039

>  <SCORE.INTRA.VDW.0>
-1.01167

>  <SCORE.INTRA.norm>
0.0893357

>  <SCORE.RESTR>
0

>  <SCORE.RESTR.CAVITY>
0

>  <SCORE.RESTR.norm>
0

>  <SCORE.SYSTEM>
-21.53

>  <SCORE.SYSTEM.CONST>
0

>  <SCORE.SYSTEM.DIHEDRAL>
6.09673

>  <SCORE.SYSTEM.POLAR>
-3.5322

>  <SCORE.SYSTEM.SOLV>
0.567843

>  <SCORE.SYSTEM.VDW>
-4.80088

>  <SCORE.SYSTEM.norm>
-1.95727

>  <SCORE.heavy>
11

>  <SCORE.norm>
-4.55023

$$$$
P109008946
 OpenBabel12072022103D
libRbt.so/2013.1/901 2013/11/27
 15 15  0  0  0  0  0  0  0  0999 V2000
   21.5996  -16.8470    3.8056 C   0  0  0  0  0  0  0  0  0  0  0  0
   20.5405  -16.3694    4.7925 C   0  0  0  0  0  0  0  0  0  0  0  0
   19.4554  -17.4483    4.7165 C   0  0  1  0  0  0  0  0  0  0  0  0
   19.5694  -17.9614    3.3417 N   0  0  0  0  0  0  0  0  0  0  0  0
   20.7727  -17.4643    2.6911 C   0  0  0  0  0  0  0  0  0  0  0  0
   18.4971  -18.5204    2.7051 C   0  0  0  0  0  0  0  0  0  0  0  0
   17.4172  -18.7454    3.2433 O   0  0  0  0  0  0  0  0  0  0  0  0
   18.6789  -18.8276    1.3989 N   0  0  0  0  0  0  0  0  0  0  0  0
   19.5327  -18.6281    5.7142 C   0  0  0  0  0  0  0  0  0  0  0  0
   18.9719  -20.1803    5.4614 S   0  0  0  0  0  0  0  0  0  0  0  0
   20.1263  -18.3380    6.9144 N   0  0  0  0  0  0  0  0  0  0  0  0
   18.4543  -18.1154    0.7214 H   0  0  0  0  0  0  0  0  0  0  0  0
   19.5489  -19.3133    1.2215 H   0  0  0  0  0  0  0  0  0  0  0  0
   20.3307  -17.3675    7.1644 H   0  0  0  0  0  0  0  0  0  0  0  0
   20.1526  -19.0315    7.6502 H   0  0  0  0  0  0  0  0  0  0  0  0
  1  2  1  0  0  0  0
  1  5  1  0  0  0  0
  2  3  1  0  0  0  0
  3  4  1  0  0  0  0
  3  9  1  1  0  0  0
  4  5  1  0  0  0  0
  4  6  1  0  0  0  0
  6  7  2  0  0  0  0
  6  8  1  0  0  0  0
  8 12  1  0  0  0  0
  8 13  1  0  0  0  0
  9 10  2  0  0  0  0
  9 11  1  0  0  0  0
 11 14  1  0  0  0  0
 11 15  1  0  0  0  0
M  END
>  <CHROM.0>
-50.12985691,54.58361119,-55.58248884,-51.02116930,-172.85966069,-59.85225128
-56.24515328,-50.68598411,-167.42419178,160.44115553

>  <CHROM.1>
-150.99640681,-89.90790739,19.48926628,-18.34351194,4.20244900,-1.81193928
0.79439162,1.89419448

>  <Name>
P109008946

>  <RI>
0

>  <Rbt.Current_Directory>
/home/fstefaniak/projects/zuza/docking/adenine/1Y26

>  <Rbt.Executable>
rbdock ($Id: //depot/dev/client3/rdock/2013.1/src/exe/rbdock.cxx#4 $)

>  <Rbt.Library>
libRbt.so (2013.1, Build901 2013/11/27)

>  <Rbt.Parameter_File>
/home/fstefaniak/progs/rDock//data/scripts/dock_solv.prm

>  <Rbt.Receptor>
1y26.prm

>  <SCORE>
-50.0246

>  <SCORE.INTER>
-29.401

>  <SCORE.INTER.CONST>
1

>  <SCORE.INTER.POLAR>
-2.91495

>  <SCORE.INTER.ROT>
2

>  <SCORE.INTER.SOLV>
15.5458

>  <SCORE.INTER.VDW>
-19.9995

>  <SCORE.INTER.norm>
-2.67282

>  <SCORE.INTRA>
0.913825

>  <SCORE.INTRA.DIHEDRAL>
0.000746305

>  <SCORE.INTRA.DIHEDRAL.0>
1.52126

>  <SCORE.INTRA.POLAR>
0.294357

>  <SCORE.INTRA.POLAR.0>
-0.294357

>  <SCORE.INTRA.REPUL>
0

>  <SCORE.INTRA.REPUL.0>
0

>  <SCORE.INTRA.SOLV>
-0.398437

>  <SCORE.INTRA.SOLV.lig_0>
-15.8133

>  <SCORE.INTRA.VDW>
0.111855

>  <SCORE.INTRA.VDW.0>
-1.01167

>  <SCORE.INTRA.norm>
0.083075

>  <SCORE.RESTR>
0

>  <SCORE.RESTR.CAVITY>
0

>  <SCORE.RESTR.norm>
0

>  <SCORE.SYSTEM>
-21.5374

>  <SCORE.SYSTEM.CONST>
0

>  <SCORE.SYSTEM.DIHEDRAL>
6.12704

>  <SCORE.SYSTEM.POLAR>
-3.53197

>  <SCORE.SYSTEM.SOLV>
0.56917

>  <SCORE.SYSTEM.VDW>
-4.81712

>  <SCORE.SYSTEM.norm>
-1.95795

>  <SCORE.heavy>
11

>  <SCORE.norm>
-4.54769

$$$$
P109008946
 OpenBabel12072022103D
libRbt.so/2013.1/901 2013/11/27
 15 15  0  0  0  0  0  0  0  0999 V2000
   21.6086  -16.7867    3.7803 C   0  0  0  0  0  0  0  0  0  0  0  0
   20.5433  -16.3189    4.7653 C   0  0  0  0  0  0  0  0  0  0  0  0
   19.4734  -17.4132    4.6953 C   0  0  1  0  0  0  0  0  0  0  0  0
   19.5939  -17.9317    3.3231 N   0  0  0  0  0  0  0  0  0  0  0  0
   20.7900  -17.4212    2.6694 C   0  0  0  0  0  0  0  0  0  0  0  0
   18.5293  -18.5088    2.6900 C   0  0  0  0  0  0  0  0  0  0  0  0
   17.4529  -18.7461    3.2298 O   0  0  0  0  0  0  0  0  0  0  0  0
   18.7147  -18.8201    1.3852 N   0  0  0  0  0  0  0  0  0  0  0  0
   19.5676  -18.5867    5.6990 C   0  0  0  0  0  0  0  0  0  0  0  0
   18.9681  -20.1297    5.4812 S   0  0  0  0  0  0  0  0  0  0  0  0
   20.2133  -18.2990    6.8726 N   0  0  0  0  0  0  0  0  0  0  0  0
   18.4728  -18.1174    0.7039 H   0  0  0  0  0  0  0  0  0  0  0  0
   19.5951  -19.2874    1.2086 H   0  0  0  0  0  0  0  0  0  0  0  0
   20.4457  -17.3308    7.1063 H   0  0  0  0  0  0  0  0  0  0  0  0
   20.2555  -18.9873    7.6126 H   0  0  0  0  0  0  0  0  0  0  0  0
  1  2  1  0  0  0  0
  1  5  1  0  0  0  0
  2  3  1  0  0  0  0
  3  4  1  0  0  0  0
  3  9  1  1  0  0  0
  4  5  1  0  0  0  0
  4  6  1  0  0  0  0
  6  7  2  0  0  0  0
  6  8  1  0  0  0  0
  8 12  1  0  0  0  0
  8 13  1  0  0  0  0
  9 10  2  0  0  0  0
  9 11  1  0  0  0  0
 11 14  1  0  0  0  0
 11 15  1  0  0  0  0
M  END
>  <CHROM.0>
-51.40083948,-46.43473143,-55.92459001,-52.59613793,-56.86109809,-58.97020265
-59.58499152,-52.06231659,-166.29055093,159.60396347

>  <CHROM.1>
-153.91777348,-90.40586628,19.51379508,-18.30865774,4.18844654,-1.80670815
0.79691997,1.89093240

>  <Name>
P109008946

>  <RI>
0

>  <Rbt.Current_Directory>
/home/fstefaniak/projects/zuza/docking/adenine/1Y26

>  <Rbt.Executable>
rbdock ($Id: //depot/dev/client3/rdock/2013.1/src/exe/rbdock.cxx#4 $)

>  <Rbt.Library>
libRbt.so (2013.1, Build901 2013/11/27)

>  <Rbt.Parameter_File>
/home/fstefaniak/progs/rDock//data/scripts/dock_solv.prm

>  <Rbt.Receptor>
1y26.prm

>  <SCORE>
-49.9884

>  <SCORE.INTER>
-29.3743

>  <SCORE.INTER.CONST>
1

>  <SCORE.INTER.POLAR>
-2.98062

>  <SCORE.INTER.ROT>
2

>  <SCORE.INTER.SOLV>
15.5445

>  <SCORE.INTER.VDW>
-19.7623

>  <SCORE.INTER.norm>
-2.67039

>  <SCORE.INTRA>
1.00718

>  <SCORE.INTRA.DIHEDRAL>
0.000763117

>  <SCORE.INTRA.DIHEDRAL.0>
1.52126

>  <SCORE.INTRA.POLAR>
0.294357

>  <SCORE.INTRA.POLAR.0>
-0.294357

>  <SCORE.INTRA.REPUL>
0

>  <SCORE.INTRA.REPUL.0>
0

>  <SCORE.INTRA.SOLV>
-0.388461

>  <SCORE.INTRA.SOLV.lig_0>
-15.8133

>  <SCORE.INTRA.VDW>
0.200217

>  <SCORE.INTRA.VDW.0>
-1.01167

>  <SCORE.INTRA.norm>
0.0915621

>  <SCORE.RESTR>
0

>  <SCORE.RESTR.CAVITY>
0

>  <SCORE.RESTR.norm>
0

>  <SCORE.SYSTEM>
-21.6212

>  <SCORE.SYSTEM.CONST>
0

>  <SCORE.SYSTEM.DIHEDRAL>
6.49428

>  <SCORE.SYSTEM.POLAR>
-3.47559

>  <SCORE.SYSTEM.SOLV>
0.670513

>  <SCORE.SYSTEM.VDW>
-5.21711

>  <SCORE.SYSTEM.norm>
-1.96557

>  <SCORE.heavy>
11

>  <SCORE.norm>
-4.5444

$$$$
P109011612
 OpenBabel12072022103D
libRbt.so/2013.1/901 2013/11/27
 15 16  0  0  0  0  0  0  0  0999 V2000
   24.6306  -15.8820    5.1271 C   0  0  0  0  0  0  0  0  0  0  0  0
   24.6572  -16.4404    3.7322 C   0  0  0  0  0  0  0  0  0  0  0  0
   23.9275  -15.1459    4.0096 C   0  0  0  0  0  0  0  0  0  0  0  0
   22.4205  -15.0807    3.9804 C   0  0  2  0  0  0  0  0  0  0  0  0
   22.0853  -13.9248    4.8422 C   0  0  0  0  0  0  0  0  0  0  0  0
   21.8478  -13.0339    5.5499 N   0  0  0  0  0  0  0  0  0  0  0  0
   21.8954  -16.3292    4.5039 N   0  0  0  0  0  0  0  0  0  0  0  0
   20.6202  -16.7028    4.1613 C   0  0  0  0  0  0  0  0  0  0  0  0
   20.1175  -16.4678    3.0712 O   0  0  0  0  0  0  0  0  0  0  0  0
   19.9951  -17.3671    5.1902 N   0  0  0  0  0  0  0  0  0  0  0  0
   19.4680  -18.6860    5.0233 C   0  0  0  0  0  0  0  0  0  0  0  0
   19.1312  -19.5306    6.2218 C   0  0  0  0  0  0  0  0  0  0  0  0
   18.0327  -18.9788    5.3620 C   0  0  0  0  0  0  0  0  0  0  0  0
   22.1644  -16.5669    5.4468 H   0  0  0  0  0  0  0  0  0  0  0  0
   20.2578  -17.0885    6.1253 H   0  0  0  0  0  0  0  0  0  0  0  0
  1  2  1  0  0  0  0
  1  3  1  0  0  0  0
  2  3  1  0  0  0  0
  4  5  1  1  0  0  0
  4  7  1  0  0  0  0
  4  3  1  0  0  0  0
  5  6  3  0  0  0  0
  7  8  1  0  0  0  0
  7 14  1  0  0  0  0
  8  9  2  0  0  0  0
  8 10  1  0  0  0  0
 10 11  1  0  0  0  0
 10 15  1  0  0  0  0
 11 12  1  0  0  0  0
 11 13  1  0  0  0  0
 12 13  1  0  0  0  0
M  END
>  <CHROM.0>
-56.35741726,-62.08308917,-55.85778096,-49.06925791,-60.63333695,-59.31595764
-46.15774292,-50.20551776,-166.77680244,160.68937871

>  <CHROM.1>
-157.57653667,85.27206446,34.47575627,-122.89524094,163.37836116,21.42502272
-16.46084296,4.67931103,-0.69082648,-0.15604813,3.11340452

>  <Name>
P109011612

>  <RI>
0

>  <Rbt.Current_Directory>
/home/fstefaniak/projects/zuza/docking/adenine/1Y26

>  <Rbt.Executable>
rbdock ($Id: //depot/dev/client3/rdock/2013.1/src/exe/rbdock.cxx#4 $)

>  <Rbt.Library>
libRbt.so (2013.1, Build901 2013/11/27)

>  <Rbt.Parameter_File>
/home/fstefaniak/progs/rDock//data/scripts/dock_solv.prm

>  <Rbt.Receptor>
1y26.prm

>  <SCORE>
-55.2722

>  <SCORE.INTER>
-34.0389

>  <SCORE.INTER.CONST>
1

>  <SCORE.INTER.POLAR>
-3.5027

>  <SCORE.INTER.ROT>
5

>  <SCORE.INTER.SOLV>
12.5076

>  <SCORE.INTER.VDW>
-22.1195

>  <SCORE.INTER.norm>
-2.61838

>  <SCORE.INTRA>
0.653644

>  <SCORE.INTRA.DIHEDRAL>
-0.181921

>  <SCORE.INTRA.DIHEDRAL.0>
5.39308

>  <SCORE.INTRA.POLAR>
0

>  <SCORE.INTRA.POLAR.0>
0

>  <SCORE.INTRA.REPUL>
0

>  <SCORE.INTRA.REPUL.0>
0

>  <SCORE.INTRA.SOLV>
0.280182

>  <SCORE.INTRA.SOLV.lig_0>
-14.8387

>  <SCORE.INTRA.VDW>
0.604513

>  <SCORE.INTRA.VDW.0>
-1.3347

>  <SCORE.INTRA.norm>
0.0502803

>  <SCORE.RESTR>
0

>  <SCORE.RESTR.CAVITY>
0

>  <SCORE.RESTR.norm>
0

>  <SCORE.SYSTEM>
-21.8869

>  <SCORE.SYSTEM.CONST>
0

>  <SCORE.SYSTEM.DIHEDRAL>
6.43525

>  <SCORE.SYSTEM.POLAR>
-3.54348

>  <SCORE.SYSTEM.SOLV>
0.681736

>  <SCORE.SYSTEM.VDW>
-5.15204

>  <SCORE.SYSTEM.norm>
-1.68361

>  <SCORE.heavy>
13

>  <SCORE.norm>
-4.25171

$$$$
P109011612
 OpenBabel12072022103D
libRbt.so/2013.1/901 2013/11/27
 15 16  0  0  0  0  0  0  0  0999 V2000
   19.6782  -18.2636    5.6981 C   0  0  0  0  0  0  0  0  0  0  0  0
   18.7261  -19.3945    5.4278 C   0  0  0  0  0  0  0  0  0  0  0  0
   19.3857  -18.6755    4.2733 C   0  0  0  0  0  0  0  0  0  0  0  0
   18.5936  -17.7614    3.3715 C   0  0  2  0  0  0  0  0  0  0  0  0
   18.4710  -18.5125    2.1019 C   0  0  0  0  0  0  0  0  0  0  0  0
   18.4179  -19.1088    1.1056 N   0  0  0  0  0  0  0  0  0  0  0  0
   19.3318  -16.5215    3.2094 N   0  0  0  0  0  0  0  0  0  0  0  0
   20.6952  -16.5804    3.0653 C   0  0  0  0  0  0  0  0  0  0  0  0
   21.2731  -17.4781    2.4683 O   0  0  0  0  0  0  0  0  0  0  0  0
   21.3135  -15.5117    3.6705 N   0  0  0  0  0  0  0  0  0  0  0  0
   22.4050  -15.6893    4.5772 C   0  0  0  0  0  0  0  0  0  0  0  0
   23.7013  -16.2880    4.1032 C   0  0  0  0  0  0  0  0  0  0  0  0
   23.6353  -14.8329    4.4618 C   0  0  0  0  0  0  0  0  0  0  0  0
   18.9986  -15.7303    3.7394 H   0  0  0  0  0  0  0  0  0  0  0  0
   21.2559  -14.6286    3.1828 H   0  0  0  0  0  0  0  0  0  0  0  0
  1  2  1  0  0  0  0
  1  3  1  0  0  0  0
  2  3  1  0  0  0  0
  4  5  1  6  0  0  0
  4  7  1  0  0  0  0
  4  3  1  0  0  0  0
  5  6  3  0  0  0  0
  7  8  1  0  0  0  0
  7 14  1  0  0  0  0
  8  9  2  0  0  0  0
  8 10  1  0  0  0  0
 10 11  1  0  0  0  0
 10 15  1  0  0  0  0
 11 12  1  0  0  0  0
 11 13  1  0  0  0  0
 12 13  1  0  0  0  0
M  END
>  <CHROM.0>
-50.32471922,-61.69755626,-52.75644403,-55.16393039,-171.05155648,60.70552130
-61.69038430,-59.27113798,-167.90207850,162.39390054

>  <CHROM.1>
40.01277508,-177.95053059,35.26744439,129.57373529,63.48053825,20.46322855
-17.24932057,3.65860239,3.08322024,-0.65224376,-1.35723820

>  <Name>
P109011612

>  <RI>
0

>  <Rbt.Current_Directory>
/home/fstefaniak/projects/zuza/docking/adenine/1Y26

>  <Rbt.Executable>
rbdock ($Id: //depot/dev/client3/rdock/2013.1/src/exe/rbdock.cxx#4 $)

>  <Rbt.Library>
libRbt.so (2013.1, Build901 2013/11/27)

>  <Rbt.Parameter_File>
/home/fstefaniak/progs/rDock//data/scripts/dock_solv.prm

>  <Rbt.Receptor>
1y26.prm

>  <SCORE>
-54.314

>  <SCORE.INTER>
-34.7225

>  <SCORE.INTER.CONST>
1

>  <SCORE.INTER.POLAR>
-3.12763

>  <SCORE.INTER.ROT>
5

>  <SCORE.INTER.SOLV>
13.8528

>  <SCORE.INTER.VDW>
-24.2739

>  <SCORE.INTER.norm>
-2.67096

>  <SCORE.INTRA>
1.49803

>  <SCORE.INTRA.DIHEDRAL>
1.30155

>  <SCORE.INTRA.DIHEDRAL.0>
5.39308

>  <SCORE.INTRA.POLAR>
0

>  <SCORE.INTRA.POLAR.0>
0

>  <SCORE.INTRA.REPUL>
0

>  <SCORE.INTRA.REPUL.0>
0

>  <SCORE.INTRA.SOLV>
1.01516

>  <SCORE.INTRA.SOLV.lig_0>
-14.8387

>  <SCORE.INTRA.VDW>
0.33968

>  <SCORE.INTRA.VDW.0>
-1.3347

>  <SCORE.INTRA.norm>
0.115233

>  <SCORE.RESTR>
0

>  <SCORE.RESTR.CAVITY>
0

>  <SCORE.RESTR.norm>
0

>  <SCORE.SYSTEM>
-21.0895

>  <SCORE.SYSTEM.CONST>
0

>  <SCORE.SYSTEM.DIHEDRAL>
5.24189

>  <SCORE.SYSTEM.POLAR>
-3.34851

>  <SCORE.SYSTEM.SOLV>
0.324423

>  <SCORE.SYSTEM.VDW>
-4.75337

>  <SCORE.SYSTEM.norm>
-1.62227

>  <SCORE.heavy>
13

>  <SCORE.norm>
-4.178

$$$$
P109011612
 OpenBabel12072022103D
libRbt.so/2013.1/901 2013/11/27
 15 16  0  0  0  0  0  0  0  0999 V2000
   19.5228  -18.3810    5.5226 C   0  0  0  0  0  0  0  0  0  0  0  0
   18.4794  -19.4257    5.2430 C   0  0  0  0  0  0  0  0  0  0  0  0
   19.2181  -18.7756    4.0955 C   0  0  0  0  0  0  0  0  0  0  0  0
   18.5240  -17.8018    3.1756 C   0  0  2  0  0  0  0  0  0  0  0  0
   18.5510  -18.4630    1.8515 C   0  0  0  0  0  0  0  0  0  0  0  0
   18.6151  -18.9887    0.8169 N   0  0  0  0  0  0  0  0  0  0  0  0
   19.2647  -16.5529    3.1834 N   0  0  0  0  0  0  0  0  0  0  0  0
   20.6310  -16.5964    3.0629 C   0  0  0  0  0  0  0  0  0  0  0  0
   21.2306  -17.4992    2.4957 O   0  0  0  0  0  0  0  0  0  0  0  0
   21.2249  -15.5063    3.6542 N   0  0  0  0  0  0  0  0  0  0  0  0
   22.2725  -15.6507    4.6169 C   0  0  0  0  0  0  0  0  0  0  0  0
   23.5985  -16.2397    4.2193 C   0  0  0  0  0  0  0  0  0  0  0  0
   23.4954  -14.7790    4.5453 C   0  0  0  0  0  0  0  0  0  0  0  0
   18.9195  -15.8322    3.7992 H   0  0  0  0  0  0  0  0  0  0  0  0
   21.1936  -14.6428    3.1302 H   0  0  0  0  0  0  0  0  0  0  0  0
  1  2  1  0  0  0  0
  1  3  1  0  0  0  0
  2  3  1  0  0  0  0
  4  5  1  6  0  0  0
  4  7  1  0  0  0  0
  4  3  1  0  0  0  0
  5  6  3  0  0  0  0
  7  8  1  0  0  0  0
  7 14  1  0  0  0  0
  8  9  2  0  0  0  0
  8 10  1  0  0  0  0
 10 11  1  0  0  0  0
 10 15  1  0  0  0  0
 11 12  1  0  0  0  0
 11 13  1  0  0  0  0
 12 13  1  0  0  0  0
M  END
>  <CHROM.0>
62.54580110,-170.69039158,-58.49387852,-51.75144905,-57.37522484,-58.04121492
-54.19444490,-48.89282750,-166.56514848,161.88245215

>  <CHROM.1>
46.05458327,173.24139812,26.88445141,127.38656448,64.97843171,20.38561635
-17.25329070,3.58143112,3.01928442,-0.67235548,-1.39766357

>  <Name>
P109011612

>  <RI>
0

>  <Rbt.Current_Directory>
/home/fstefaniak/projects/zuza/docking/adenine/1Y26

>  <Rbt.Executable>
rbdock ($Id: //depot/dev/client3/rdock/2013.1/src/exe/rbdock.cxx#4 $)

>  <Rbt.Library>
libRbt.so (2013.1, Build901 2013/11/27)

>  <Rbt.Parameter_File>
/home/fstefaniak/progs/rDock//data/scripts/dock_solv.prm

>  <Rbt.Receptor>
1y26.prm

>  <SCORE>
-53.5338

>  <SCORE.INTER>
-33.5406

>  <SCORE.INTER.CONST>
1

>  <SCORE.INTER.POLAR>
-3.14312

>  <SCORE.INTER.ROT>
5

>  <SCORE.INTER.SOLV>
13.9162

>  <SCORE.INTER.VDW>
-23.4554

>  <SCORE.INTER.norm>
-2.58005

>  <SCORE.INTRA>
1.31628

>  <SCORE.INTRA.DIHEDRAL>
0.911253

>  <SCORE.INTRA.DIHEDRAL.0>
5.39308

>  <SCORE.INTRA.POLAR>
0

>  <SCORE.INTRA.POLAR.0>
0

>  <SCORE.INTRA.REPUL>
0

>  <SCORE.INTRA.REPUL.0>
0

>  <SCORE.INTRA.SOLV>
1.05608

>  <SCORE.INTRA.SOLV.lig_0>
-14.8387

>  <SCORE.INTRA.VDW>
0.332611

>  <SCORE.INTRA.VDW.0>
-1.3347

>  <SCORE.INTRA.norm>
0.101252

>  <SCORE.RESTR>
0

>  <SCORE.RESTR.CAVITY>
0

>  <SCORE.RESTR.norm>
0

>  <SCORE.SYSTEM>
-21.3095

>  <SCORE.SYSTEM.CONST>
0

>  <SCORE.SYSTEM.DIHEDRAL>
5.79026

>  <SCORE.SYSTEM.POLAR>
-3.2458

>  <SCORE.SYSTEM.SOLV>
0.585712

>  <SCORE.SYSTEM.VDW>
-5.51231

>  <SCORE.SYSTEM.norm>
-1.63919

>  <SCORE.heavy>
13

>  <SCORE.norm>
-4.11799

$$$$
P109011981
 OpenBabel12072022103D
libRbt.so/2013.1/901 2013/11/27
 18 18  0  0  0  0  0  0  0  0999 V2000
   20.7001  -16.8101    4.8309 C   0  0  0  0  0  0  0  0  0  0  0  0
   20.7999  -16.2789    3.4275 C   0  0  0  0  0  0  0  0  0  0  0  0
   19.5185  -16.9217    3.8987 C   0  0  0  0  0  0  0  0  0  0  0  0
   19.0926  -18.2729    3.3741 C   0  0  2  0  0  0  0  0  0  0  0  0
   18.6904  -18.3098    1.8952 C   0  0  0  0  0  0  0  0  0  0  0  0
   19.6126  -18.2341    0.9529 N   0  3  0  0  0  0  0  0  0  0  0  0
   19.3744  -18.2574   -0.0300 H   0  0  0  0  0  0  0  0  0  0  0  0
   20.5967  -18.1490    1.1837 H   0  0  0  0  0  0  0  0  0  0  0  0
   17.4160  -18.4351    1.5818 N   0  0  0  0  0  0  0  0  0  0  0  0
   17.9382  -18.7118    4.1561 N   0  0  0  0  0  0  0  0  0  0  0  0
   18.1210  -19.3635    5.3394 C   0  0  0  0  0  0  0  0  0  0  0  0
   19.1264  -20.0060    5.6126 O   0  0  0  0  0  0  0  0  0  0  0  0
   17.0732  -19.2411    6.1791 N   0  0  0  0  0  0  0  0  0  0  0  0
   16.7181  -18.4157    2.3393 H   0  0  0  0  0  0  0  0  0  0  0  0
   17.0588  -18.4624    0.6387 H   0  0  0  0  0  0  0  0  0  0  0  0
   17.1673  -18.0558    4.2070 H   0  0  0  0  0  0  0  0  0  0  0  0
   16.9116  -19.9431    6.8885 H   0  0  0  0  0  0  0  0  0  0  0  0
   16.8428  -18.2940    6.4618 H   0  0  0  0  0  0  0  0  0  0  0  0
  1  2  1  0  0  0  0
  1  3  1  0  0  0  0
  2  3  1  0  0  0  0
  4  5  1  6  0  0  0
  4 10  1  0  0  0  0
  4  3  1  0  0  0  0
  5  6  2  0  0  0  0
  5  9  1  0  0  0  0
  6  7  1  0  0  0  0
  6  8  1  0  0  0  0
  9 14  1  0  0  0  0
  9 15  1  0  0  0  0
 10 11  1  0  0  0  0
 10 16  1  0  0  0  0
 11 12  2  0  0  0  0
 11 13  1  0  0  0  0
 13 17  1  0  0  0  0
 13 18  1  0  0  0  0
M  CHG  1   6   1
M  END
>  <CHROM.0>
-49.73380670,-60.63165577,-66.87322745,-52.55064144,-56.74049788,61.50854256
-166.37220690,-52.61428520,-166.80358848,162.32383377

>  <CHROM.1>
73.82674492,-85.48291414,-138.75815690,-25.35315908,155.20582056,18.87870199
-18.26214671,3.74910459,-1.13414658,0.67676788,1.71167396

>  <Name>
P109011981

>  <RI>
0

>  <Rbt.Current_Directory>
/home/fstefaniak/projects/zuza/docking/adenine/1Y26

>  <Rbt.Executable>
rbdock ($Id: //depot/dev/client3/rdock/2013.1/src/exe/rbdock.cxx#4 $)

>  <Rbt.Library>
libRbt.so (2013.1, Build901 2013/11/27)

>  <Rbt.Parameter_File>
/home/fstefaniak/progs/rDock//data/scripts/dock_solv.prm

>  <Rbt.Receptor>
1y26.prm

>  <SCORE>
-61.2816

>  <SCORE.INTER>
-40.7339

>  <SCORE.INTER.CONST>
1

>  <SCORE.INTER.POLAR>
-6.19559

>  <SCORE.INTER.ROT>
5

>  <SCORE.INTER.SOLV>
24.522

>  <SCORE.INTER.VDW>
-21.6113

>  <SCORE.INTER.norm>
-3.70308

>  <SCORE.INTRA>
-0.27497

>  <SCORE.INTRA.DIHEDRAL>
-0.761482

>  <SCORE.INTRA.DIHEDRAL.0>
5.56874

>  <SCORE.INTRA.POLAR>
0.637348

>  <SCORE.INTRA.POLAR.0>
-0.705809

>  <SCORE.INTRA.REPUL>
0

>  <SCORE.INTRA.REPUL.0>
0

>  <SCORE.INTRA.SOLV>
-1.42311

>  <SCORE.INTRA.SOLV.lig_0>
-33.8793

>  <SCORE.INTRA.VDW>
-1.34966

>  <SCORE.INTRA.VDW.0>
-0.297649

>  <SCORE.INTRA.norm>
-0.0249973

>  <SCORE.RESTR>
0

>  <SCORE.RESTR.CAVITY>
0

>  <SCORE.RESTR.norm>
0

>  <SCORE.SYSTEM>
-20.2728

>  <SCORE.SYSTEM.CONST>
0

>  <SCORE.SYSTEM.DIHEDRAL>
6.32572

>  <SCORE.SYSTEM.POLAR>
-3.37255

>  <SCORE.SYSTEM.SOLV>
0.438444

>  <SCORE.SYSTEM.VDW>
-4.52807

>  <SCORE.SYSTEM.norm>
-1.84298

>  <SCORE.heavy>
11

>  <SCORE.norm>
-5.57106

$$$$
P109011981
 OpenBabel12072022103D
libRbt.so/2013.1/901 2013/11/27
 18 18  0  0  0  0  0  0  0  0999 V2000
   20.9709  -16.9142    4.6351 C   0  0  0  0  0  0  0  0  0  0  0  0
   20.7327  -16.2346    3.3149 C   0  0  0  0  0  0  0  0  0  0  0  0
   19.6139  -16.9983    3.9799 C   0  0  0  0  0  0  0  0  0  0  0  0
   19.1279  -18.3105    3.4104 C   0  0  2  0  0  0  0  0  0  0  0  0
   18.7241  -18.2789    1.9318 C   0  0  0  0  0  0  0  0  0  0  0  0
   19.6453  -18.1590    0.9930 N   0  3  0  0  0  0  0  0  0  0  0  0
   19.4060  -18.1368    0.0103 H   0  0  0  0  0  0  0  0  0  0  0  0
   20.6296  -18.0842    1.2265 H   0  0  0  0  0  0  0  0  0  0  0  0
   17.4495  -18.3902    1.6142 N   0  0  0  0  0  0  0  0  0  0  0  0
   17.9552  -18.7237    4.1790 N   0  0  0  0  0  0  0  0  0  0  0  0
   18.1100  -19.3741    5.3670 C   0  0  0  0  0  0  0  0  0  0  0  0
   19.1030  -20.0275    5.6591 O   0  0  0  0  0  0  0  0  0  0  0  0
   17.0495  -19.2370    6.1883 N   0  0  0  0  0  0  0  0  0  0  0  0
   16.7524  -18.4064    2.3726 H   0  0  0  0  0  0  0  0  0  0  0  0
   17.0912  -18.3738    0.6713 H   0  0  0  0  0  0  0  0  0  0  0  0
   17.1966  -18.0527    4.2175 H   0  0  0  0  0  0  0  0  0  0  0  0
   16.8694  -19.9334    6.8988 H   0  0  0  0  0  0  0  0  0  0  0  0
   16.8234  -18.2862    6.4618 H   0  0  0  0  0  0  0  0  0  0  0  0
  1  2  1  0  0  0  0
  1  3  1  0  0  0  0
  2  3  1  0  0  0  0
  4  5  1  6  0  0  0
  4 10  1  0  0  0  0
  4  3  1  0  0  0  0
  5  6  2  0  0  0  0
  5  9  1  0  0  0  0
  6  7  1  0  0  0  0
  6  8  1  0  0  0  0
  9 14  1  0  0  0  0
  9 15  1  0  0  0  0
 10 11  1  0  0  0  0
 10 16  1  0  0  0  0
 11 12  2  0  0  0  0
 11 13  1  0  0  0  0
 13 17  1  0  0  0  0
 13 18  1  0  0  0  0
M  CHG  1   6   1
M  END
>  <CHROM.0>
-44.06213329,-156.53974049,-42.95253978,-51.09366139,-53.05167973,-58.66638230
-44.32507193,-49.80122178,-168.64681902,160.95259018

>  <CHROM.1>
71.13894512,-82.75025007,-124.16331546,-24.84486649,155.41558665,18.91296804
-18.26562844,3.75137756,-1.09045515,0.63480957,1.74256022

>  <Name>
P109011981

>  <RI>
0

>  <Rbt.Current_Directory>
/home/fstefaniak/projects/zuza/docking/adenine/1Y26

>  <Rbt.Executable>
rbdock ($Id: //depot/dev/client3/rdock/2013.1/src/exe/rbdock.cxx#4 $)

>  <Rbt.Library>
libRbt.so (2013.1, Build901 2013/11/27)

>  <Rbt.Parameter_File>
/home/fstefaniak/progs/rDock//data/scripts/dock_solv.prm

>  <Rbt.Receptor>
1y26.prm

>  <SCORE>
-60.4426

>  <SCORE.INTER>
-39.6095

>  <SCORE.INTER.CONST>
1

>  <SCORE.INTER.POLAR>
-6.2163

>  <SCORE.INTER.ROT>
5

>  <SCORE.INTER.SOLV>
24.463

>  <SCORE.INTER.VDW>
-20.773

>  <SCORE.INTER.norm>
-3.60086

>  <SCORE.INTRA>
-0.229862

>  <SCORE.INTRA.DIHEDRAL>
-1.24337

>  <SCORE.INTRA.DIHEDRAL.0>
5.56874

>  <SCORE.INTRA.POLAR>
0.623588

>  <SCORE.INTRA.POLAR.0>
-0.705809

>  <SCORE.INTRA.REPUL>
0

>  <SCORE.INTRA.REPUL.0>
0

>  <SCORE.INTRA.SOLV>
-1.22334

>  <SCORE.INTRA.SOLV.lig_0>
-33.8793

>  <SCORE.INTRA.VDW>
-1.11671

>  <SCORE.INTRA.VDW.0>
-0.297649

>  <SCORE.INTRA.norm>
-0.0208966

>  <SCORE.RESTR>
0

>  <SCORE.RESTR.CAVITY>
0

>  <SCORE.RESTR.norm>
0

>  <SCORE.SYSTEM>
-20.6032

>  <SCORE.SYSTEM.CONST>
0

>  <SCORE.SYSTEM.DIHEDRAL>
11.1143

>  <SCORE.SYSTEM.POLAR>
-3.75232

>  <SCORE.SYSTEM.SOLV>
0.664129

>  <SCORE.SYSTEM.VDW>
-5.15391

>  <SCORE.SYSTEM.norm>
-1.87302

>  <SCORE.heavy>
11

>  <SCORE.norm>
-5.49478

$$$$
P109011981
 OpenBabel12072022103D
libRbt.so/2013.1/901 2013/11/27
 18 18  0  0  0  0  0  0  0  0999 V2000
   19.2417  -19.4087    5.5789 C   0  0  0  0  0  0  0  0  0  0  0  0
   19.8980  -18.3701    6.4463 C   0  0  0  0  0  0  0  0  0  0  0  0
   19.3246  -17.9777    5.1067 C   0  0  0  0  0  0  0  0  0  0  0  0
   20.2309  -17.6116    3.9548 C   0  0  2  0  0  0  0  0  0  0  0  0
   21.1300  -16.3913    4.1845 C   0  0  0  0  0  0  0  0  0  0  0  0
   22.4256  -16.5483    4.3871 N   0  3  0  0  0  0  0  0  0  0  0  0
   23.0411  -15.7601    4.5399 H   0  0  0  0  0  0  0  0  0  0  0  0
   22.8501  -17.4695    4.3970 H   0  0  0  0  0  0  0  0  0  0  0  0
   20.5933  -15.1875    4.1593 N   0  0  0  0  0  0  0  0  0  0  0  0
   19.3867  -17.3255    2.7961 N   0  0  0  0  0  0  0  0  0  0  0  0
   18.8365  -18.3476    2.0814 C   0  0  0  0  0  0  0  0  0  0  0  0
   17.9148  -19.0422    2.4890 O   0  0  0  0  0  0  0  0  0  0  0  0
   19.4199  -18.5276    0.8792 N   0  0  0  0  0  0  0  0  0  0  0  0
   19.5699  -15.1060    4.0739 H   0  0  0  0  0  0  0  0  0  0  0  0
   21.1043  -14.3300    4.3057 H   0  0  0  0  0  0  0  0  0  0  0  0
   18.7375  -16.5551    2.9055 H   0  0  0  0  0  0  0  0  0  0  0  0
   19.9465  -19.3712    0.6962 H   0  0  0  0  0  0  0  0  0  0  0  0
   18.9056  -18.1692    0.0811 H   0  0  0  0  0  0  0  0  0  0  0  0
  1  2  1  0  0  0  0
  1  3  1  0  0  0  0
  2  3  1  0  0  0  0
  4  5  1  1  0  0  0
  4 10  1  0  0  0  0
  4  3  1  0  0  0  0
  5  6  2  0  0  0  0
  5  9  1  0  0  0  0
  6  7  1  0  0  0  0
  6  8  1  0  0  0  0
  9 14  1  0  0  0  0
  9 15  1  0  0  0  0
 10 11  1  0  0  0  0
 10 16  1  0  0  0  0
 11 12  2  0  0  0  0
 11 13  1  0  0  0  0
 13 17  1  0  0  0  0
 13 18  1  0  0  0  0
M  CHG  1   6   1
M  END
>  <CHROM.0>
-54.61336746,-63.44030536,59.52874603,-56.38199204,-174.41859562,-56.32200440
73.05367105,62.15848590,-166.06155387,-62.54865744

>  <CHROM.1>
106.83925837,-77.56487407,-132.16818994,72.30929072,113.22979273,19.86092877
-17.68214832,3.77924404,0.59816688,0.84144811,1.81908116

>  <Name>
P109011981

>  <RI>
0

>  <Rbt.Current_Directory>
/home/fstefaniak/projects/zuza/docking/adenine/1Y26

>  <Rbt.Executable>
rbdock ($Id: //depot/dev/client3/rdock/2013.1/src/exe/rbdock.cxx#4 $)

>  <Rbt.Library>
libRbt.so (2013.1, Build901 2013/11/27)

>  <Rbt.Parameter_File>
/home/fstefaniak/progs/rDock//data/scripts/dock_solv.prm

>  <Rbt.Receptor>
1y26.prm

>  <SCORE>
-58.3453

>  <SCORE.INTER>
-40.2946

>  <SCORE.INTER.CONST>
1

>  <SCORE.INTER.POLAR>
-6.2152

>  <SCORE.INTER.ROT>
5

>  <SCORE.INTER.SOLV>
21.0472

>  <SCORE.INTER.VDW>
-20.0948

>  <SCORE.INTER.norm>
-3.66315

>  <SCORE.INTRA>
-1.05719

>  <SCORE.INTRA.DIHEDRAL>
-1.22412

>  <SCORE.INTRA.DIHEDRAL.0>
5.56874

>  <SCORE.INTRA.POLAR>
0.701936

>  <SCORE.INTRA.POLAR.0>
-0.705809

>  <SCORE.INTRA.REPUL>
0

>  <SCORE.INTRA.REPUL.0>
0

>  <SCORE.INTRA.SOLV>
-2.09429

>  <SCORE.INTRA.SOLV.lig_0>
-33.8793

>  <SCORE.INTRA.VDW>
-1.78457

>  <SCORE.INTRA.VDW.0>
-0.297649

>  <SCORE.INTRA.norm>
-0.0961083

>  <SCORE.RESTR>
0

>  <SCORE.RESTR.CAVITY>
0

>  <SCORE.RESTR.norm>
0

>  <SCORE.SYSTEM>
-16.9934

>  <SCORE.SYSTEM.CONST>
0

>  <SCORE.SYSTEM.DIHEDRAL>
4.2734

>  <SCORE.SYSTEM.POLAR>
-2.6713

>  <SCORE.SYSTEM.SOLV>
0.146247

>  <SCORE.SYSTEM.VDW>
-3.89783

>  <SCORE.SYSTEM.norm>
-1.54486

>  <SCORE.heavy>
11

>  <SCORE.norm>
-5.30412

$$$$
P109018549
 OpenBabel12072022103D
libRbt.so/2013.1/901 2013/11/27
 14 14  0  0  0  0  0  0  0  0999 V2000
   18.7643  -18.4787    2.0686 C   0  0  0  0  0  0  0  0  0  0  0  0
   18.3342  -17.6808    3.2122 N   0  0  0  0  0  0  0  0  0  0  0  0
   18.0319  -18.5101    4.3788 C   0  0  0  0  0  0  0  0  0  0  0  0
   19.2729  -18.9826    5.1330 C   0  0  0  0  0  0  0  0  0  0  0  0
   20.1002  -17.7973    5.6105 C   0  0  0  0  0  0  0  0  0  0  0  0
   20.4243  -16.8153    4.4827 C   0  0  2  0  0  0  0  0  0  0  0  0
   19.2470  -16.5691    3.5209 C   0  0  0  0  0  0  0  0  0  0  0  0
   21.7481  -17.1660    3.7985 C   0  0  0  0  0  0  0  0  0  0  0  0
   21.7613  -17.9405    2.7551 N   0  0  0  0  0  0  0  0  0  0  0  0
   23.0753  -18.1680    2.3138 O   0  0  0  0  0  0  0  0  0  0  0  0
   22.8995  -16.6643    4.3580 N   0  0  0  0  0  0  0  0  0  0  0  0
   23.3074  -18.9889    2.7867 H   0  0  0  0  0  0  0  0  0  0  0  0
   23.3772  -16.0566    3.6968 H   0  0  0  0  0  0  0  0  0  0  0  0
   23.5117  -17.3331    4.8076 H   0  0  0  0  0  0  0  0  0  0  0  0
  1  2  1  0  0  0  0
  2  3  1  0  0  0  0
  2  7  1  0  0  0  0
  3  4  1  0  0  0  0
  4  5  1  0  0  0  0
  5  6  1  0  0  0  0
  6  7  1  0  0  0  0
  6  8  1  6  0  0  0
  8  9  2  0  0  0  0
  8 11  1  0  0  0  0
  9 10  1  0  0  0  0
 10 12  1  0  0  0  0
 11 13  1  0  0  0  0
 11 14  1  0  0  0  0
M  END
>  <CHROM.0>
-47.59750047,72.18265101,-53.88340673,-52.49714992,-176.38465913,-61.86016126
-60.50747022,-175.43038949,-168.53694661,161.49617995

>  <CHROM.1>
91.94046499,-118.72968092,92.55074459,20.39698221,-17.72533994,3.75034065
3.04171424,0.18948022,1.35562351

>  <Name>
P109018549

>  <RI>
0

>  <Rbt.Current_Directory>
/home/fstefaniak/projects/zuza/docking/adenine/1Y26

>  <Rbt.Executable>
rbdock ($Id: //depot/dev/client3/rdock/2013.1/src/exe/rbdock.cxx#4 $)

>  <Rbt.Library>
libRbt.so (2013.1, Build901 2013/11/27)

>  <Rbt.Parameter_File>
/home/fstefaniak/progs/rDock//data/scripts/dock_solv.prm

>  <Rbt.Receptor>
1y26.prm

>  <SCORE>
-45.8296

>  <SCORE.INTER>
-23.8117

>  <SCORE.INTER.CONST>
1

>  <SCORE.INTER.POLAR>
-2.43962

>  <SCORE.INTER.ROT>
2

>  <SCORE.INTER.SOLV>
11.1695

>  <SCORE.INTER.VDW>
-16.3989

>  <SCORE.INTER.norm>
-2.1647

>  <SCORE.INTRA>
-0.517352

>  <SCORE.INTRA.DIHEDRAL>
-1.95823

>  <SCORE.INTRA.DIHEDRAL.0>
3.45321

>  <SCORE.INTRA.POLAR>
0.134359

>  <SCORE.INTRA.POLAR.0>
-0.134359

>  <SCORE.INTRA.REPUL>
0

>  <SCORE.INTRA.REPUL.0>
0

>  <SCORE.INTRA.SOLV>
0.0728402

>  <SCORE.INTRA.SOLV.lig_0>
-10.3546

>  <SCORE.INTRA.VDW>
-0.0314785

>  <SCORE.INTRA.VDW.0>
-0.89227

>  <SCORE.INTRA.norm>
-0.047032

>  <SCORE.RESTR>
0

>  <SCORE.RESTR.CAVITY>
0

>  <SCORE.RESTR.norm>
0

>  <SCORE.SYSTEM>
-21.5005

>  <SCORE.SYSTEM.CONST>
0

>  <SCORE.SYSTEM.DIHEDRAL>
6.12893

>  <SCORE.SYSTEM.POLAR>
-3.44656

>  <SCORE.SYSTEM.SOLV>
0.284595

>  <SCORE.SYSTEM.VDW>
-4.98297

>  <SCORE.SYSTEM.norm>
-1.95459

>  <SCORE.heavy>
11

>  <SCORE.norm>
-4.16632

$$$$
P109018549
 OpenBabel12072022103D
libRbt.so/2013.1/901 2013/11/27
 14 14  0  0  0  0  0  0  0  0999 V2000
   18.7192  -18.4605    2.0326 C   0  0  0  0  0  0  0  0  0  0  0  0
   18.2872  -17.6606    3.1740 N   0  0  0  0  0  0  0  0  0  0  0  0
   17.9527  -18.4899    4.3317 C   0  0  0  0  0  0  0  0  0  0  0  0
   19.1738  -18.9890    5.1013 C   0  0  0  0  0  0  0  0  0  0  0  0
   20.0157  -17.8216    5.5969 C   0  0  0  0  0  0  0  0  0  0  0  0
   20.3741  -16.8400    4.4792 C   0  0  2  0  0  0  0  0  0  0  0  0
   19.2156  -16.5674    3.5017 C   0  0  0  0  0  0  0  0  0  0  0  0
   21.7010  -17.2117    3.8123 C   0  0  0  0  0  0  0  0  0  0  0  0
   21.7144  -17.9725    2.7589 N   0  0  0  0  0  0  0  0  0  0  0  0
   23.0303  -18.2240    2.3364 O   0  0  0  0  0  0  0  0  0  0  0  0
   22.8539  -16.7437    4.3975 N   0  0  0  0  0  0  0  0  0  0  0  0
   23.2244  -19.0728    2.7761 H   0  0  0  0  0  0  0  0  0  0  0  0
   23.5912  -17.4413    4.3318 H   0  0  0  0  0  0  0  0  0  0  0  0
   22.7600  -16.3403    5.3209 H   0  0  0  0  0  0  0  0  0  0  0  0
  1  2  1  0  0  0  0
  2  3  1  0  0  0  0
  2  7  1  0  0  0  0
  3  4  1  0  0  0  0
  4  5  1  0  0  0  0
  5  6  1  0  0  0  0
  6  7  1  0  0  0  0
  6  8  1  6  0  0  0
  8  9  2  0  0  0  0
  8 11  1  0  0  0  0
  9 10  1  0  0  0  0
 10 12  1  0  0  0  0
 11 13  1  0  0  0  0
 11 14  1  0  0  0  0
M  END
>  <CHROM.0>
-52.13914827,-56.92240234,-51.64100236,-54.47614939,-53.63895828,-177.26870882
-61.13407555,-52.80961523,-167.31372634,160.36864936

>  <CHROM.1>
92.48102464,142.80317408,94.52744612,20.33767072,-17.74679743,3.74777938
3.05757714,0.16507683,1.35296559

>  <Name>
P109018549

>  <RI>
0

>  <Rbt.Current_Directory>
/home/fstefaniak/projects/zuza/docking/adenine/1Y26

>  <Rbt.Executable>
rbdock ($Id: //depot/dev/client3/rdock/2013.1/src/exe/rbdock.cxx#4 $)

>  <Rbt.Library>
libRbt.so (2013.1, Build901 2013/11/27)

>  <Rbt.Parameter_File>
/home/fstefaniak/progs/rDock//data/scripts/dock_solv.prm

>  <Rbt.Receptor>
1y26.prm

>  <SCORE>
-45.1169

>  <SCORE.INTER>
-22.7602

>  <SCORE.INTER.CONST>
1

>  <SCORE.INTER.POLAR>
-2.44973

>  <SCORE.INTER.ROT>
2

>  <SCORE.INTER.SOLV>
11.3807

>  <SCORE.INTER.VDW>
-15.7346

>  <SCORE.INTER.norm>
-2.06911

>  <SCORE.INTRA>
-0.424854

>  <SCORE.INTRA.DIHEDRAL>
-1.97291

>  <SCORE.INTRA.DIHEDRAL.0>
3.45321

>  <SCORE.INTRA.POLAR>
0.134359

>  <SCORE.INTRA.POLAR.0>
-0.134359

>  <SCORE.INTRA.REPUL>
0

>  <SCORE.INTRA.REPUL.0>
0

>  <SCORE.INTRA.SOLV>
0.0242151

>  <SCORE.INTRA.SOLV.lig_0>
-10.3546

>  <SCORE.INTRA.VDW>
0.0926737

>  <SCORE.INTRA.VDW.0>
-0.89227

>  <SCORE.INTRA.norm>
-0.0386231

>  <SCORE.RESTR>
0

>  <SCORE.RESTR.CAVITY>
0

>  <SCORE.RESTR.norm>
0

>  <SCORE.SYSTEM>
-21.9319

>  <SCORE.SYSTEM.CONST>
0

>  <SCORE.SYSTEM.DIHEDRAL>
5.6664

>  <SCORE.SYSTEM.POLAR>
-3.44477

>  <SCORE.SYSTEM.SOLV>
0.523239

>  <SCORE.SYSTEM.VDW>
-5.2019

>  <SCORE.SYSTEM.norm>
-1.99381

>  <SCORE.heavy>
11

>  <SCORE.norm>
-4.10153

$$$$
P109018549
 OpenBabel12072022103D
libRbt.so/2013.1/901 2013/11/27
 14 14  0  0  0  0  0  0  0  0999 V2000
   18.7945  -18.4558    2.0897 C   0  0  0  0  0  0  0  0  0  0  0  0
   18.3661  -17.6815    3.2500 N   0  0  0  0  0  0  0  0  0  0  0  0
   18.0721  -18.5338    4.4019 C   0  0  0  0  0  0  0  0  0  0  0  0
   19.3181  -19.0156    5.1418 C   0  0  0  0  0  0  0  0  0  0  0  0
   20.1428  -17.8362    5.6382 C   0  0  0  0  0  0  0  0  0  0  0  0
   20.4582  -16.8318    4.5278 C   0  0  2  0  0  0  0  0  0  0  0  0
   19.2759  -16.5721    3.5757 C   0  0  0  0  0  0  0  0  0  0  0  0
   21.7805  -17.1642    3.8316 C   0  0  0  0  0  0  0  0  0  0  0  0
   21.8090  -18.0197    2.8537 N   0  0  0  0  0  0  0  0  0  0  0  0
   23.1212  -18.2101    2.3899 O   0  0  0  0  0  0  0  0  0  0  0  0
   22.9164  -16.5560    4.3115 N   0  0  0  0  0  0  0  0  0  0  0  0
   23.3770  -19.0355    2.8423 H   0  0  0  0  0  0  0  0  0  0  0  0
   22.8426  -16.4134    5.3160 H   0  0  0  0  0  0  0  0  0  0  0  0
   23.2371  -15.7380    3.8094 H   0  0  0  0  0  0  0  0  0  0  0  0
  1  2  1  0  0  0  0
  2  3  1  0  0  0  0
  2  7  1  0  0  0  0
  3  4  1  0  0  0  0
  4  5  1  0  0  0  0
  5  6  1  0  0  0  0
  6  7  1  0  0  0  0
  6  8  1  6  0  0  0
  8  9  2  0  0  0  0
  8 11  1  0  0  0  0
  9 10  1  0  0  0  0
 10 12  1  0  0  0  0
 11 13  1  0  0  0  0
 11 14  1  0  0  0  0
M  END
>  <CHROM.0>
-47.21379071,-60.31941071,-53.97524252,-53.21659610,-55.07626368,-60.85977890
-59.95369169,-51.24174421,-167.51142831,162.05753910

>  <CHROM.1>
85.30296277,32.71250759,98.79777895,20.42768407,-17.72730362,3.78892514,3.05849666
0.20314879,1.31662863

>  <Name>
P109018549

>  <RI>
0

>  <Rbt.Current_Directory>
/home/fstefaniak/projects/zuza/docking/adenine/1Y26

>  <Rbt.Executable>
rbdock ($Id: //depot/dev/client3/rdock/2013.1/src/exe/rbdock.cxx#4 $)

>  <Rbt.Library>
libRbt.so (2013.1, Build901 2013/11/27)

>  <Rbt.Parameter_File>
/home/fstefaniak/progs/rDock//data/scripts/dock_solv.prm

>  <Rbt.Receptor>
1y26.prm

>  <SCORE>
-44.9277

>  <SCORE.INTER>
-22.2656

>  <SCORE.INTER.CONST>
1

>  <SCORE.INTER.POLAR>
-2.19553

>  <SCORE.INTER.ROT>
2

>  <SCORE.INTER.SOLV>
11.12

>  <SCORE.INTER.VDW>
-16.1653

>  <SCORE.INTER.norm>
-2.02415

>  <SCORE.INTRA>
-0.47406

>  <SCORE.INTRA.DIHEDRAL>
-1.94585

>  <SCORE.INTRA.DIHEDRAL.0>
3.45321

>  <SCORE.INTRA.POLAR>
0.134359

>  <SCORE.INTRA.POLAR.0>
-0.134359

>  <SCORE.INTRA.REPUL>
0

>  <SCORE.INTRA.REPUL.0>
0

>  <SCORE.INTRA.SOLV>
-0.0303333

>  <SCORE.INTRA.SOLV.lig_0>
-10.3546

>  <SCORE.INTRA.VDW>
0.0572101

>  <SCORE.INTRA.VDW.0>
-0.89227

>  <SCORE.INTRA.norm>
-0.0430964

>  <SCORE.RESTR>
0

>  <SCORE.RESTR.CAVITY>
0

>  <SCORE.RESTR.norm>
0

>  <SCORE.SYSTEM>
-22.188

>  <SCORE.SYSTEM.CONST>
0

>  <SCORE.SYSTEM.DIHEDRAL>
5.75117

>  <SCORE.SYSTEM.POLAR>
-3.47075

>  <SCORE.SYSTEM.SOLV>
0.667868

>  <SCORE.SYSTEM.VDW>
-5.36252

>  <SCORE.SYSTEM.norm>
-2.01709

>  <SCORE.heavy>
11

>  <SCORE.norm>
-4.08433

$$$$
P109018794
 OpenBabel12072022103D
libRbt.so/2013.1/901 2013/11/27
 14 14  0  0  0  0  0  0  0  0999 V2000
   19.6557  -18.2007    7.0140 C   0  0  0  0  0  0  0  0  0  0  0  0
   20.1923  -18.7286    5.7627 N   0  0  0  0  0  0  0  0  0  0  0  0
   19.2209  -19.5509    5.0327 C   0  0  0  0  0  0  0  0  0  0  0  0
   18.0723  -18.7514    4.4176 C   0  0  0  0  0  0  0  0  0  0  0  0
   18.5655  -17.5961    3.5400 C   0  0  0  0  0  0  0  0  0  0  0  0
   19.6950  -16.8053    4.2076 C   0  0  0  0  0  0  0  0  0  0  0  0
   20.7438  -17.6813    4.9020 C   0  0  0  0  0  0  0  0  0  0  0  0
   18.8675  -18.1014    2.1242 C   0  0  0  0  0  0  0  0  0  0  0  0
   20.0470  -17.8307    1.6410 N   0  0  0  0  0  0  0  0  0  0  0  0
   20.1891  -18.3514    0.3434 O   0  0  0  0  0  0  0  0  0  0  0  0
   17.9193  -18.7750    1.3988 N   0  0  0  0  0  0  0  0  0  0  0  0
   20.2988  -19.3046    0.5202 H   0  0  0  0  0  0  0  0  0  0  0  0
   18.0538  -19.7707    1.2914 H   0  0  0  0  0  0  0  0  0  0  0  0
   17.7822  -18.3100    0.5038 H   0  0  0  0  0  0  0  0  0  0  0  0
  1  2  1  0  0  0  0
  2  3  1  0  0  0  0
  2  7  1  0  0  0  0
  3  4  1  0  0  0  0
  4  5  1  0  0  0  0
  5  6  1  0  0  0  0
  5  8  1  0  0  0  0
  6  7  1  0  0  0  0
  8  9  2  0  0  0  0
  8 11  1  0  0  0  0
  9 10  1  0  0  0  0
 10 12  1  0  0  0  0
 11 13  1  0  0  0  0
 11 14  1  0  0  0  0
M  END
>  <CHROM.0>
-49.89567213,59.34353286,-54.30122927,-53.20764064,-56.68761777,-60.66918068
-61.71138005,-51.48108563,-166.08575073,161.29535598

>  <CHROM.1>
-127.06653573,-106.56080880,-74.65383081,19.38981906,-18.24023181,3.61612723
1.46937219,0.49018382,1.62670468

>  <Name>
P109018794

>  <RI>
0

>  <Rbt.Current_Directory>
/home/fstefaniak/projects/zuza/docking/adenine/1Y26

>  <Rbt.Executable>
rbdock ($Id: //depot/dev/client3/rdock/2013.1/src/exe/rbdock.cxx#4 $)

>  <Rbt.Library>
libRbt.so (2013.1, Build901 2013/11/27)

>  <Rbt.Parameter_File>
/home/fstefaniak/progs/rDock//data/scripts/dock_solv.prm

>  <Rbt.Receptor>
1y26.prm

>  <SCORE>
-45.21

>  <SCORE.INTER>
-23.6583

>  <SCORE.INTER.CONST>
1

>  <SCORE.INTER.POLAR>
-2.79309

>  <SCORE.INTER.ROT>
2

>  <SCORE.INTER.SOLV>
14.1993

>  <SCORE.INTER.VDW>
-16.1283

>  <SCORE.INTER.norm>
-2.15076

>  <SCORE.INTRA>
0.103862

>  <SCORE.INTRA.DIHEDRAL>
-1.85374

>  <SCORE.INTRA.DIHEDRAL.0>
3.4968

>  <SCORE.INTRA.POLAR>
0.172368

>  <SCORE.INTRA.POLAR.0>
-0.172368

>  <SCORE.INTRA.REPUL>
0

>  <SCORE.INTRA.REPUL.0>
0

>  <SCORE.INTRA.SOLV>
-0.288184

>  <SCORE.INTRA.SOLV.lig_0>
-10.1918

>  <SCORE.INTRA.VDW>
0.588776

>  <SCORE.INTRA.VDW.0>
-0.866341

>  <SCORE.INTRA.norm>
0.009442

>  <SCORE.RESTR>
0

>  <SCORE.RESTR.CAVITY>
0

>  <SCORE.RESTR.norm>
0

>  <SCORE.SYSTEM>
-21.6556

>  <SCORE.SYSTEM.CONST>
0

>  <SCORE.SYSTEM.DIHEDRAL>
5.65492

>  <SCORE.SYSTEM.POLAR>
-3.46622

>  <SCORE.SYSTEM.SOLV>
0.698811

>  <SCORE.SYSTEM.VDW>
-5.00089

>  <SCORE.SYSTEM.norm>
-1.96869

>  <SCORE.heavy>
11

>  <SCORE.norm>
-4.11

$$$$
P109018794
 OpenBabel12072022103D
libRbt.so/2013.1/901 2013/11/27
 14 14  0  0  0  0  0  0  0  0999 V2000
   19.6140  -18.1770    7.0388 C   0  0  0  0  0  0  0  0  0  0  0  0
   20.1782  -18.7106    5.8021 N   0  0  0  0  0  0  0  0  0  0  0  0
   19.2215  -19.5320    5.0520 C   0  0  0  0  0  0  0  0  0  0  0  0
   18.0904  -18.7307    4.4075 C   0  0  0  0  0  0  0  0  0  0  0  0
   18.6080  -17.5798    3.5382 C   0  0  0  0  0  0  0  0  0  0  0  0
   19.7241  -16.7906    4.2298 C   0  0  0  0  0  0  0  0  0  0  0  0
   20.7533  -17.6677    4.9514 C   0  0  0  0  0  0  0  0  0  0  0  0
   18.9416  -18.0905    2.1314 C   0  0  0  0  0  0  0  0  0  0  0  0
   20.1072  -17.7659    1.6477 N   0  0  0  0  0  0  0  0  0  0  0  0
   20.2815  -18.2986    0.3590 O   0  0  0  0  0  0  0  0  0  0  0  0
   18.0328  -18.8241    1.4138 N   0  0  0  0  0  0  0  0  0  0  0  0
   20.5455  -19.2171    0.5551 H   0  0  0  0  0  0  0  0  0  0  0  0
   18.2442  -19.8034    1.2818 H   0  0  0  0  0  0  0  0  0  0  0  0
   17.8367  -18.3541    0.5326 H   0  0  0  0  0  0  0  0  0  0  0  0
  1  2  1  0  0  0  0
  2  3  1  0  0  0  0
  2  7  1  0  0  0  0
  3  4  1  0  0  0  0
  4  5  1  0  0  0  0
  5  6  1  0  0  0  0
  5  8  1  0  0  0  0
  6  7  1  0  0  0  0
  8  9  2  0  0  0  0
  8 11  1  0  0  0  0
  9 10  1  0  0  0  0
 10 12  1  0  0  0  0
 11 13  1  0  0  0  0
 11 14  1  0  0  0  0
M  END
>  <CHROM.0>
-49.39125922,-61.12745493,-55.47119388,-50.56383903,-174.20539789,59.09548635
-58.92018077,-51.49073262,-167.65077884,162.51014047

>  <CHROM.1>
-130.53628741,-109.63749484,-81.14837453,19.42690514,-18.22126342,3.63350732
-1.49703988,-0.52142078,-1.52416332

>  <Name>
P109018794

>  <RI>
0

>  <Rbt.Current_Directory>
/home/fstefaniak/projects/zuza/docking/adenine/1Y26

>  <Rbt.Executable>
rbdock ($Id: //depot/dev/client3/rdock/2013.1/src/exe/rbdock.cxx#4 $)

>  <Rbt.Library>
libRbt.so (2013.1, Build901 2013/11/27)

>  <Rbt.Parameter_File>
/home/fstefaniak/progs/rDock//data/scripts/dock_solv.prm

>  <Rbt.Receptor>
1y26.prm

>  <SCORE>
-45.173

>  <SCORE.INTER>
-23.9562

>  <SCORE.INTER.CONST>
1

>  <SCORE.INTER.POLAR>
-2.85551

>  <SCORE.INTER.ROT>
2

>  <SCORE.INTER.SOLV>
14.2115

>  <SCORE.INTER.VDW>
-16.1229

>  <SCORE.INTER.norm>
-2.17783

>  <SCORE.INTRA>
0.0439581

>  <SCORE.INTRA.DIHEDRAL>
-1.94998

>  <SCORE.INTRA.DIHEDRAL.0>
3.4968

>  <SCORE.INTRA.POLAR>
0.172368

>  <SCORE.INTRA.POLAR.0>
-0.172368

>  <SCORE.INTRA.REPUL>
0

>  <SCORE.INTRA.REPUL.0>
0

>  <SCORE.INTRA.SOLV>
-0.286496

>  <SCORE.INTRA.SOLV.lig_0>
-10.1918

>  <SCORE.INTRA.VDW>
0.576147

>  <SCORE.INTRA.VDW.0>
-0.866341

>  <SCORE.INTRA.norm>
0.00399619

>  <SCORE.RESTR>
0

>  <SCORE.RESTR.CAVITY>
0

>  <SCORE.RESTR.norm>
0

>  <SCORE.SYSTEM>
-21.2608

>  <SCORE.SYSTEM.CONST>
0

>  <SCORE.SYSTEM.DIHEDRAL>
5.5912

>  <SCORE.SYSTEM.POLAR>
-3.45634

>  <SCORE.SYSTEM.SOLV>
0.345465

>  <SCORE.SYSTEM.VDW>
-4.63161

>  <SCORE.SYSTEM.norm>
-1.9328

>  <SCORE.heavy>
11

>  <SCORE.norm>
-4.10664

$$$$
P109018794
 OpenBabel12072022103D
libRbt.so/2013.1/901 2013/11/27
 14 14  0  0  0  0  0  0  0  0999 V2000
   19.6230  -18.1603    7.0632 C   0  0  0  0  0  0  0  0  0  0  0  0
   20.1835  -18.7078    5.8309 N   0  0  0  0  0  0  0  0  0  0  0  0
   19.2232  -19.5343    5.0909 C   0  0  0  0  0  0  0  0  0  0  0  0
   18.0930  -18.7366    4.4404 C   0  0  0  0  0  0  0  0  0  0  0  0
   18.6119  -17.5959    3.5585 C   0  0  0  0  0  0  0  0  0  0  0  0
   19.7313  -16.8026    4.2401 C   0  0  0  0  0  0  0  0  0  0  0  0
   20.7596  -17.6751    4.9686 C   0  0  0  0  0  0  0  0  0  0  0  0
   18.9416  -18.1217    2.1564 C   0  0  0  0  0  0  0  0  0  0  0  0
   20.1193  -17.8317    1.6801 N   0  0  0  0  0  0  0  0  0  0  0  0
   20.2882  -18.3746    0.3949 O   0  0  0  0  0  0  0  0  0  0  0  0
   18.0180  -18.8328    1.4350 N   0  0  0  0  0  0  0  0  0  0  0  0
   20.7428  -17.6486   -0.0719 H   0  0  0  0  0  0  0  0  0  0  0  0
   18.1881  -19.8236    1.3330 H   0  0  0  0  0  0  0  0  0  0  0  0
   17.8644  -18.3779    0.5375 H   0  0  0  0  0  0  0  0  0  0  0  0
  1  2  1  0  0  0  0
  2  3  1  0  0  0  0
  2  7  1  0  0  0  0
  3  4  1  0  0  0  0
  4  5  1  0  0  0  0
  5  6  1  0  0  0  0
  5  8  1  0  0  0  0
  6  7  1  0  0  0  0
  8  9  2  0  0  0  0
  8 11  1  0  0  0  0
  9 10  1  0  0  0  0
 10 12  1  0  0  0  0
 11 13  1  0  0  0  0
 11 14  1  0  0  0  0
M  END
>  <CHROM.0>
-54.10293928,-61.16902042,-56.02226640,-49.11925574,-172.04387059,57.39512546
-54.79085568,-51.82012617,-165.97635609,160.56975388

>  <CHROM.1>
-128.95541877,-107.78251640,138.83684959,19.43167966,-18.23021283,3.65561359
-1.49932021,-0.50922274,-1.52861788

>  <Name>
P109018794

>  <RI>
0

>  <Rbt.Current_Directory>
/home/fstefaniak/projects/zuza/docking/adenine/1Y26

>  <Rbt.Executable>
rbdock ($Id: //depot/dev/client3/rdock/2013.1/src/exe/rbdock.cxx#4 $)

>  <Rbt.Library>
libRbt.so (2013.1, Build901 2013/11/27)

>  <Rbt.Parameter_File>
/home/fstefaniak/progs/rDock//data/scripts/dock_solv.prm

>  <Rbt.Receptor>
1y26.prm

>  <SCORE>
-45.0939

>  <SCORE.INTER>
-24.3902

>  <SCORE.INTER.CONST>
1

>  <SCORE.INTER.POLAR>
-2.87399

>  <SCORE.INTER.ROT>
2

>  <SCORE.INTER.SOLV>
14.2904

>  <SCORE.INTER.VDW>
-16.3769

>  <SCORE.INTER.norm>
-2.21729

>  <SCORE.INTRA>
0.504911

>  <SCORE.INTRA.DIHEDRAL>
-0.862774

>  <SCORE.INTRA.DIHEDRAL.0>
3.4968

>  <SCORE.INTRA.POLAR>
0.172368

>  <SCORE.INTRA.POLAR.0>
-0.172368

>  <SCORE.INTRA.REPUL>
0

>  <SCORE.INTRA.REPUL.0>
0

>  <SCORE.INTRA.SOLV>
-0.316845

>  <SCORE.INTRA.SOLV.lig_0>
-10.1918

>  <SCORE.INTRA.VDW>
0.50867

>  <SCORE.INTRA.VDW.0>
-0.866341

>  <SCORE.INTRA.norm>
0.045901

>  <SCORE.RESTR>
0

>  <SCORE.RESTR.CAVITY>
0

>  <SCORE.RESTR.norm>
0

>  <SCORE.SYSTEM>
-21.2086

>  <SCORE.SYSTEM.CONST>
0

>  <SCORE.SYSTEM.DIHEDRAL>
6.04714

>  <SCORE.SYSTEM.POLAR>
-3.50335

>  <SCORE.SYSTEM.SOLV>
0.347161

>  <SCORE.SYSTEM.VDW>
-4.59265

>  <SCORE.SYSTEM.norm>
-1.92805

>  <SCORE.heavy>
11

>  <SCORE.norm>
-4.09944

$$$$
P109049405
 OpenBabel12072022103D
libRbt.so/2013.1/901 2013/11/27
 14 14  0  0  0  0  0  0  0  0999 V2000
   18.6548  -18.3306    2.1271 C   0  0  0  0  0  0  0  0  0  0  0  0
   19.4524  -17.7387    3.2284 C   0  0  0  0  0  0  0  0  0  0  0  0
   20.2177  -16.5919    3.2668 C   0  0  0  0  0  0  0  0  0  0  0  0
   20.7121  -16.5243    4.5797 C   0  0  0  0  0  0  0  0  0  0  0  0
   20.2945  -17.5428    5.3332 N   0  0  0  0  0  0  0  0  0  0  0  0
   19.5476  -18.2878    4.4840 N   0  0  0  0  0  0  0  0  0  0  0  0
   18.9393  -19.5115    4.9766 C   0  0  0  0  0  0  0  0  0  0  0  0
   18.0632  -19.2160    6.1791 C   0  0  0  0  0  0  0  0  0  0  0  0
   16.7788  -19.3968    6.0585 N   0  0  0  0  0  0  0  0  0  0  0  0
   16.1166  -19.0471    7.2469 O   0  0  0  0  0  0  0  0  0  0  0  0
   18.6642  -18.7581    7.3310 N   0  0  0  0  0  0  0  0  0  0  0  0
   16.2062  -18.0760    7.2550 H   0  0  0  0  0  0  0  0  0  0  0  0
   18.4474  -17.7861    7.5564 H   0  0  0  0  0  0  0  0  0  0  0  0
   18.5045  -19.3960    8.1052 H   0  0  0  0  0  0  0  0  0  0  0  0
  1  2  1  0  0  0  0
  2  3  2  0  0  0  0
  2  6  1  0  0  0  0
  3  4  1  0  0  0  0
  4  5  2  0  0  0  0
  5  6  1  0  0  0  0
  6  7  1  0  0  0  0
  7  8  1  0  0  0  0
  8  9  2  0  0  0  0
  8 11  1  0  0  0  0
  9 10  1  0  0  0  0
 10 12  1  0  0  0  0
 11 13  1  0  0  0  0
 11 14  1  0  0  0  0
M  END
>  <CHROM.0>
-49.98620887,175.31550764,-53.98250105,-50.38674164,-53.23659598,-63.62667516
-59.23733782,-47.13354061,-166.24247717,160.39676123

>  <CHROM.1>
-122.15665306,113.91606629,111.08194849,70.59278000,18.78116614,-18.29790007
5.06597487,0.79748860,-0.56527566,-1.56409436

>  <Name>
P109049405

>  <RI>
0

>  <Rbt.Current_Directory>
/home/fstefaniak/projects/zuza/docking/adenine/1Y26

>  <Rbt.Executable>
rbdock ($Id: //depot/dev/client3/rdock/2013.1/src/exe/rbdock.cxx#4 $)

>  <Rbt.Library>
libRbt.so (2013.1, Build901 2013/11/27)

>  <Rbt.Parameter_File>
/home/fstefaniak/progs/rDock//data/scripts/dock_solv.prm

>  <Rbt.Receptor>
1y26.prm

>  <SCORE>
-60.0352

>  <SCORE.INTER>
-38.0277

>  <SCORE.INTER.CONST>
1

>  <SCORE.INTER.POLAR>
-5.0323

>  <SCORE.INTER.ROT>
3

>  <SCORE.INTER.SOLV>
12.4569

>  <SCORE.INTER.VDW>
-18.3298

>  <SCORE.INTER.norm>
-3.45707

>  <SCORE.INTRA>
0.126066

>  <SCORE.INTRA.DIHEDRAL>
-1.84061

>  <SCORE.INTRA.DIHEDRAL.0>
6.26301

>  <SCORE.INTRA.POLAR>
0.216212

>  <SCORE.INTRA.POLAR.0>
-0.216212

>  <SCORE.INTRA.REPUL>
0.00447264

>  <SCORE.INTRA.REPUL.0>
0

>  <SCORE.INTRA.SOLV>
0.0228716

>  <SCORE.INTRA.SOLV.lig_0>
-11.4521

>  <SCORE.INTRA.VDW>
0.27745

>  <SCORE.INTRA.VDW.0>
-1.19659

>  <SCORE.INTRA.norm>
0.0114605

>  <SCORE.RESTR>
0

>  <SCORE.RESTR.CAVITY>
0

>  <SCORE.RESTR.norm>
0

>  <SCORE.SYSTEM>
-22.1336

>  <SCORE.SYSTEM.CONST>
0

>  <SCORE.SYSTEM.DIHEDRAL>
6.68619

>  <SCORE.SYSTEM.POLAR>
-3.57452

>  <SCORE.SYSTEM.SOLV>
0.618451

>  <SCORE.SYSTEM.VDW>
-5.27552

>  <SCORE.SYSTEM.norm>
-2.01214

>  <SCORE.heavy>
11

>  <SCORE.norm>
-5.45775

$$$$
P109049405
 OpenBabel12072022103D
libRbt.so/2013.1/901 2013/11/27
 14 14  0  0  0  0  0  0  0  0999 V2000
   18.7188  -18.3823    2.1650 C   0  0  0  0  0  0  0  0  0  0  0  0
   19.5195  -17.7659    3.2504 C   0  0  0  0  0  0  0  0  0  0  0  0
   20.2704  -16.6090    3.2662 C   0  0  0  0  0  0  0  0  0  0  0  0
   20.7768  -16.5178    4.5730 C   0  0  0  0  0  0  0  0  0  0  0  0
   20.3797  -17.5315    5.3439 N   0  0  0  0  0  0  0  0  0  0  0  0
   19.6341  -18.2971    4.5120 N   0  0  0  0  0  0  0  0  0  0  0  0
   19.0466  -19.5218    5.0266 C   0  0  0  0  0  0  0  0  0  0  0  0
   18.1229  -19.2134    6.1897 C   0  0  0  0  0  0  0  0  0  0  0  0
   16.8429  -19.3804    6.0144 N   0  0  0  0  0  0  0  0  0  0  0  0
   16.1342  -19.0204    7.1725 O   0  0  0  0  0  0  0  0  0  0  0  0
   18.6789  -18.7592    7.3654 N   0  0  0  0  0  0  0  0  0  0  0  0
   16.2382  -18.0507    7.1849 H   0  0  0  0  0  0  0  0  0  0  0  0
   18.4500  -17.7892    7.5874 H   0  0  0  0  0  0  0  0  0  0  0  0
   18.4933  -19.4017    8.1299 H   0  0  0  0  0  0  0  0  0  0  0  0
  1  2  1  0  0  0  0
  2  3  2  0  0  0  0
  2  6  1  0  0  0  0
  3  4  1  0  0  0  0
  4  5  2  0  0  0  0
  5  6  1  0  0  0  0
  6  7  1  0  0  0  0
  7  8  1  0  0  0  0
  8  9  2  0  0  0  0
  8 11  1  0  0  0  0
  9 10  1  0  0  0  0
 10 12  1  0  0  0  0
 11 13  1  0  0  0  0
 11 14  1  0  0  0  0
M  END
>  <CHROM.0>
-49.18965729,176.52597630,-51.02899952,-53.99956129,-60.45769310,-47.88900767
-64.88027184,-49.75279191,-166.89428138,160.79829938

>  <CHROM.1>
-119.27676010,110.88328874,112.10327992,70.30144642,18.84171007,-18.30223345
5.07096171,0.78339267,-0.55726605,-1.56894446

>  <Name>
P109049405

>  <RI>
0

>  <Rbt.Current_Directory>
/home/fstefaniak/projects/zuza/docking/adenine/1Y26

>  <Rbt.Executable>
rbdock ($Id: //depot/dev/client3/rdock/2013.1/src/exe/rbdock.cxx#4 $)

>  <Rbt.Library>
libRbt.so (2013.1, Build901 2013/11/27)

>  <Rbt.Parameter_File>
/home/fstefaniak/progs/rDock//data/scripts/dock_solv.prm

>  <Rbt.Receptor>
1y26.prm

>  <SCORE>
-59.8417

>  <SCORE.INTER>
-37.8521

>  <SCORE.INTER.CONST>
1

>  <SCORE.INTER.POLAR>
-4.97927

>  <SCORE.INTER.ROT>
3

>  <SCORE.INTER.SOLV>
12.4469

>  <SCORE.INTER.VDW>
-18.3861

>  <SCORE.INTER.norm>
-3.4411

>  <SCORE.INTRA>
0.0618662

>  <SCORE.INTRA.DIHEDRAL>
-1.8252

>  <SCORE.INTRA.DIHEDRAL.0>
6.26301

>  <SCORE.INTRA.POLAR>
0.216212

>  <SCORE.INTRA.POLAR.0>
-0.216212

>  <SCORE.INTRA.REPUL>
0

>  <SCORE.INTRA.REPUL.0>
0

>  <SCORE.INTRA.SOLV>
-0.00194746

>  <SCORE.INTRA.SOLV.lig_0>
-11.4521

>  <SCORE.INTRA.VDW>
0.240323

>  <SCORE.INTRA.VDW.0>
-1.19659

>  <SCORE.INTRA.norm>
0.0056242

>  <SCORE.RESTR>
0

>  <SCORE.RESTR.CAVITY>
0

>  <SCORE.RESTR.norm>
0

>  <SCORE.SYSTEM>
-22.0516

>  <SCORE.SYSTEM.CONST>
0

>  <SCORE.SYSTEM.DIHEDRAL>
6.76996

>  <SCORE.SYSTEM.POLAR>
-3.57034

>  <SCORE.SYSTEM.SOLV>
0.617615

>  <SCORE.SYSTEM.VDW>
-5.26244

>  <SCORE.SYSTEM.norm>
-2.00469

>  <SCORE.heavy>
11

>  <SCORE.norm>
-5.44016

$$$$
P109049405
 OpenBabel12072022103D
libRbt.so/2013.1/901 2013/11/27
 14 14  0  0  0  0  0  0  0  0999 V2000
   18.5287  -18.2779    2.1578 C   0  0  0  0  0  0  0  0  0  0  0  0
   19.3672  -17.7065    3.2392 C   0  0  0  0  0  0  0  0  0  0  0  0
   20.1412  -16.5652    3.2672 C   0  0  0  0  0  0  0  0  0  0  0  0
   20.6802  -16.5189    4.5633 C   0  0  0  0  0  0  0  0  0  0  0  0
   20.2814  -17.5450    5.3167 N   0  0  0  0  0  0  0  0  0  0  0  0
   19.5010  -18.2734    4.4833 N   0  0  0  0  0  0  0  0  0  0  0  0
   18.9015  -19.4999    4.9796 C   0  0  0  0  0  0  0  0  0  0  0  0
   18.0408  -19.2100    6.1946 C   0  0  0  0  0  0  0  0  0  0  0  0
   16.7534  -19.3763    6.0852 N   0  0  0  0  0  0  0  0  0  0  0  0
   16.1071  -19.0344    7.2845 O   0  0  0  0  0  0  0  0  0  0  0  0
   18.6582  -18.7722    7.3456 N   0  0  0  0  0  0  0  0  0  0  0  0
   16.2019  -18.0638    7.3005 H   0  0  0  0  0  0  0  0  0  0  0  0
   18.4730  -17.7939    7.5719 H   0  0  0  0  0  0  0  0  0  0  0  0
   18.4798  -19.4052    8.1197 H   0  0  0  0  0  0  0  0  0  0  0  0
  1  2  1  0  0  0  0
  2  3  2  0  0  0  0
  2  6  1  0  0  0  0
  3  4  1  0  0  0  0
  4  5  2  0  0  0  0
  5  6  1  0  0  0  0
  6  7  1  0  0  0  0
  7  8  1  0  0  0  0
  8  9  2  0  0  0  0
  8 11  1  0  0  0  0
  9 10  1  0  0  0  0
 10 12  1  0  0  0  0
 11 13  1  0  0  0  0
 11 14  1  0  0  0  0
M  END
>  <CHROM.0>
-51.58629229,177.21105477,61.11569060,-51.29512462,-56.39307260,58.00701869
75.04563900,-48.28131372,-167.05004678,161.03690304

>  <CHROM.1>
-120.74842904,113.06035832,109.59415593,70.93104787,18.73861365,-18.28305213
5.07653173,0.82247025,-0.55029886,-1.53100737

>  <Name>
P109049405

>  <RI>
0

>  <Rbt.Current_Directory>
/home/fstefaniak/projects/zuza/docking/adenine/1Y26

>  <Rbt.Executable>
rbdock ($Id: //depot/dev/client3/rdock/2013.1/src/exe/rbdock.cxx#4 $)

>  <Rbt.Library>
libRbt.so (2013.1, Build901 2013/11/27)

>  <Rbt.Parameter_File>
/home/fstefaniak/progs/rDock//data/scripts/dock_solv.prm

>  <Rbt.Receptor>
1y26.prm

>  <SCORE>
-57.9486

>  <SCORE.INTER>
-37.9454

>  <SCORE.INTER.CONST>
1

>  <SCORE.INTER.POLAR>
-4.95726

>  <SCORE.INTER.ROT>
3

>  <SCORE.INTER.SOLV>
12.4972

>  <SCORE.INTER.VDW>
-18.5385

>  <SCORE.INTER.norm>
-3.44958

>  <SCORE.INTRA>
0.0709994

>  <SCORE.INTRA.DIHEDRAL>
-1.84215

>  <SCORE.INTRA.DIHEDRAL.0>
6.26301

>  <SCORE.INTRA.POLAR>
0.216212

>  <SCORE.INTRA.POLAR.0>
-0.216212

>  <SCORE.INTRA.REPUL>
0

>  <SCORE.INTRA.REPUL.0>
0

>  <SCORE.INTRA.SOLV>
0.0183618

>  <SCORE.INTRA.SOLV.lig_0>
-11.4521

>  <SCORE.INTRA.VDW>
0.247777

>  <SCORE.INTRA.VDW.0>
-1.19659

>  <SCORE.INTRA.norm>
0.00645449

>  <SCORE.RESTR>
0

>  <SCORE.RESTR.CAVITY>
0

>  <SCORE.RESTR.norm>
0

>  <SCORE.SYSTEM>
-20.0742

>  <SCORE.SYSTEM.CONST>
0

>  <SCORE.SYSTEM.DIHEDRAL>
6.7883

>  <SCORE.SYSTEM.POLAR>
-3.7348

>  <SCORE.SYSTEM.SOLV>
0.278697

>  <SCORE.SYSTEM.VDW>
-3.28913

>  <SCORE.SYSTEM.norm>
-1.82493

>  <SCORE.heavy>
11

>  <SCORE.norm>
-5.26805

$$$$
P109615893
 OpenBabel12072022103D
libRbt.so/2013.1/901 2013/11/27
 14 14  0  0  0  0  0  0  0  0999 V2000
   24.5510  -14.3813    4.7417 C   0  0  0  0  0  0  0  0  0  0  0  0
   23.4003  -15.2773    4.7736 N   0  0  0  0  0  0  0  0  0  0  0  0
   22.2907  -14.7068    3.9725 C   0  0  0  0  0  0  0  0  0  0  0  0
   21.1785  -15.7475    3.7833 C   0  0  0  0  0  0  0  0  0  0  0  0
   20.6950  -16.0006    2.6848 O   0  0  0  0  0  0  0  0  0  0  0  0
   20.8175  -16.3846    4.9492 N   0  0  0  0  0  0  0  0  0  0  0  0
   19.7893  -17.4055    5.0602 C   0  0  2  0  0  0  0  0  0  0  0  0
   19.8304  -18.1432    6.4042 C   0  0  0  0  0  0  0  0  0  0  0  0
   18.7592  -19.2299    6.4533 C   0  0  0  0  0  0  0  0  0  0  0  0
   18.8317  -20.1218    5.2199 C   0  0  0  0  0  0  0  0  0  0  0  0
   18.7119  -19.3430    4.0284 O   0  0  0  0  0  0  0  0  0  0  0  0
   19.7922  -18.4118    3.8978 C   0  0  0  0  0  0  0  0  0  0  0  0
   23.0775  -15.3547    5.7408 H   0  0  0  0  0  0  0  0  0  0  0  0
   21.2810  -16.0392    5.7875 H   0  0  0  0  0  0  0  0  0  0  0  0
  1  2  1  0  0  0  0
  2  3  1  0  0  0  0
  2 13  1  0  0  0  0
  3  4  1  0  0  0  0
  4  5  2  0  0  0  0
  4  6  1  0  0  0  0
  6 14  1  0  0  0  0
  7  8  1  0  0  0  0
  7 12  1  0  0  0  0
  7  6  1  6  0  0  0
  8  9  1  0  0  0  0
  9 10  1  0  0  0  0
 10 11  1  0  0  0  0
 11 12  1  0  0  0  0
M  END
>  <CHROM.0>
-52.14745451,-59.51114152,-52.35253403,-55.73935307,-54.93757774,-50.63605785
-50.03648021,-175.96705205,-164.66912846,163.08152200

>  <CHROM.1>
169.55265323,-130.39976907,167.13196041,20.73658930,-17.09130299,4.65539054
-0.41874121,0.72483307,1.96277517

>  <Name>
P109615893

>  <RI>
0

>  <Rbt.Current_Directory>
/home/fstefaniak/projects/zuza/docking/adenine/1Y26

>  <Rbt.Executable>
rbdock ($Id: //depot/dev/client3/rdock/2013.1/src/exe/rbdock.cxx#4 $)

>  <Rbt.Library>
libRbt.so (2013.1, Build901 2013/11/27)

>  <Rbt.Parameter_File>
/home/fstefaniak/progs/rDock//data/scripts/dock_solv.prm

>  <Rbt.Receptor>
1y26.prm

>  <SCORE>
-50.0904

>  <SCORE.INTER>
-29.6292

>  <SCORE.INTER.CONST>
1

>  <SCORE.INTER.POLAR>
-3.85047

>  <SCORE.INTER.ROT>
3

>  <SCORE.INTER.SOLV>
13.4971

>  <SCORE.INTER.VDW>
-17.0169

>  <SCORE.INTER.norm>
-2.4691

>  <SCORE.INTRA>
1.64631

>  <SCORE.INTRA.DIHEDRAL>
0.1161

>  <SCORE.INTRA.DIHEDRAL.0>
2.54998

>  <SCORE.INTRA.POLAR>
0.192976

>  <SCORE.INTRA.POLAR.0>
-0.192976

>  <SCORE.INTRA.REPUL>
0

>  <SCORE.INTRA.REPUL.0>
0

>  <SCORE.INTRA.SOLV>
-0.213148

>  <SCORE.INTRA.SOLV.lig_0>
-14.5609

>  <SCORE.INTRA.VDW>
1.03871

>  <SCORE.INTRA.VDW.0>
-1.05684

>  <SCORE.INTRA.norm>
0.137192

>  <SCORE.RESTR>
0

>  <SCORE.RESTR.CAVITY>
0

>  <SCORE.RESTR.norm>
0

>  <SCORE.SYSTEM>
-22.1076

>  <SCORE.SYSTEM.CONST>
0

>  <SCORE.SYSTEM.DIHEDRAL>
6.04026

>  <SCORE.SYSTEM.POLAR>
-3.39906

>  <SCORE.SYSTEM.SOLV>
0.484325

>  <SCORE.SYSTEM.VDW>
-5.58306

>  <SCORE.SYSTEM.norm>
-1.8423

>  <SCORE.heavy>
12

>  <SCORE.norm>
-4.1742

$$$$
P109615893
 OpenBabel12072022103D
libRbt.so/2013.1/901 2013/11/27
 14 14  0  0  0  0  0  0  0  0999 V2000
   24.4645  -14.3761    4.6829 C   0  0  0  0  0  0  0  0  0  0  0  0
   23.3343  -15.2980    4.7139 N   0  0  0  0  0  0  0  0  0  0  0  0
   22.2092  -14.7482    3.9200 C   0  0  0  0  0  0  0  0  0  0  0  0
   21.0950  -15.7941    3.7773 C   0  0  0  0  0  0  0  0  0  0  0  0
   20.5739  -16.0565    2.6983 O   0  0  0  0  0  0  0  0  0  0  0  0
   20.7780  -16.4246    4.9594 N   0  0  0  0  0  0  0  0  0  0  0  0
   19.7582  -17.4484    5.1136 C   0  0  2  0  0  0  0  0  0  0  0  0
   19.8255  -18.1504    6.4755 C   0  0  0  0  0  0  0  0  0  0  0  0
   18.7622  -19.2418    6.5702 C   0  0  0  0  0  0  0  0  0  0  0  0
   18.8208  -20.1653    5.3595 C   0  0  0  0  0  0  0  0  0  0  0  0
   18.6770  -19.4187    4.1501 O   0  0  0  0  0  0  0  0  0  0  0  0
   19.7491  -18.4848    3.9779 C   0  0  0  0  0  0  0  0  0  0  0  0
   23.0170  -15.3879    5.6818 H   0  0  0  0  0  0  0  0  0  0  0  0
   21.2695  -16.0718    5.7785 H   0  0  0  0  0  0  0  0  0  0  0  0
  1  2  1  0  0  0  0
  2  3  1  0  0  0  0
  2 13  1  0  0  0  0
  3  4  1  0  0  0  0
  4  5  2  0  0  0  0
  4  6  1  0  0  0  0
  6 14  1  0  0  0  0
  7  8  1  0  0  0  0
  7 12  1  0  0  0  0
  7  6  1  6  0  0  0
  8  9  1  0  0  0  0
  9 10  1  0  0  0  0
 10 11  1  0  0  0  0
 11 12  1  0  0  0  0
M  END
>  <CHROM.0>
-48.48234949,-61.34788399,-49.61687534,-50.19633443,-172.74438170,-50.98621644
-54.66413332,-49.35177688,-164.79324602,162.67665888

>  <CHROM.1>
171.83646894,-131.80519185,168.71195543,20.68618618,-17.12929609,4.69096891
-0.45261535,0.72483488,1.97017267

>  <Name>
P109615893

>  <RI>
0

>  <Rbt.Current_Directory>
/home/fstefaniak/projects/zuza/docking/adenine/1Y26

>  <Rbt.Executable>
rbdock ($Id: //depot/dev/client3/rdock/2013.1/src/exe/rbdock.cxx#4 $)

>  <Rbt.Library>
libRbt.so (2013.1, Build901 2013/11/27)

>  <Rbt.Parameter_File>
/home/fstefaniak/progs/rDock//data/scripts/dock_solv.prm

>  <Rbt.Receptor>
1y26.prm

>  <SCORE>
-49.5746

>  <SCORE.INTER>
-29.5433

>  <SCORE.INTER.CONST>
1

>  <SCORE.INTER.POLAR>
-3.86735

>  <SCORE.INTER.ROT>
3

>  <SCORE.INTER.SOLV>
13.4814

>  <SCORE.INTER.VDW>
-16.8982

>  <SCORE.INTER.norm>
-2.46194

>  <SCORE.INTRA>
1.70552

>  <SCORE.INTRA.DIHEDRAL>
0.0537428

>  <SCORE.INTRA.DIHEDRAL.0>
2.54998

>  <SCORE.INTRA.POLAR>
0.192976

>  <SCORE.INTRA.POLAR.0>
-0.192976

>  <SCORE.INTRA.REPUL>
0

>  <SCORE.INTRA.REPUL.0>
0

>  <SCORE.INTRA.SOLV>
-0.205232

>  <SCORE.INTRA.SOLV.lig_0>
-14.5609

>  <SCORE.INTRA.VDW>
1.12514

>  <SCORE.INTRA.VDW.0>
-1.05684

>  <SCORE.INTRA.norm>
0.142127

>  <SCORE.RESTR>
0

>  <SCORE.RESTR.CAVITY>
0

>  <SCORE.RESTR.norm>
0

>  <SCORE.SYSTEM>
-21.7368

>  <SCORE.SYSTEM.CONST>
0

>  <SCORE.SYSTEM.DIHEDRAL>
7.17824

>  <SCORE.SYSTEM.POLAR>
-3.59994

>  <SCORE.SYSTEM.SOLV>
0.537305

>  <SCORE.SYSTEM.VDW>
-5.06326

>  <SCORE.SYSTEM.norm>
-1.8114

>  <SCORE.heavy>
12

>  <SCORE.norm>
-4.13122

$$$$
P109615893
 OpenBabel12072022103D
libRbt.so/2013.1/901 2013/11/27
 14 14  0  0  0  0  0  0  0  0999 V2000
   24.5406  -14.3854    4.7340 C   0  0  0  0  0  0  0  0  0  0  0  0
   23.3938  -15.2863    4.7735 N   0  0  0  0  0  0  0  0  0  0  0  0
   22.2755  -14.7190    3.9824 C   0  0  0  0  0  0  0  0  0  0  0  0
   21.1700  -15.7668    3.7928 C   0  0  0  0  0  0  0  0  0  0  0  0
   20.6919  -16.0265    2.6935 O   0  0  0  0  0  0  0  0  0  0  0  0
   20.8085  -16.4019    4.9596 N   0  0  0  0  0  0  0  0  0  0  0  0
   19.7858  -17.4284    5.0705 C   0  0  2  0  0  0  0  0  0  0  0  0
   19.8104  -18.1444    6.4266 C   0  0  0  0  0  0  0  0  0  0  0  0
   18.7462  -19.2379    6.4758 C   0  0  0  0  0  0  0  0  0  0  0  0
   18.8448  -20.1486    5.2582 C   0  0  0  0  0  0  0  0  0  0  0  0
   18.7387  -19.3897    4.0526 O   0  0  0  0  0  0  0  0  0  0  0  0
   19.8145  -18.4529    3.9245 C   0  0  0  0  0  0  0  0  0  0  0  0
   23.0793  -15.3667    5.7431 H   0  0  0  0  0  0  0  0  0  0  0  0
   21.2670  -16.0509    5.7984 H   0  0  0  0  0  0  0  0  0  0  0  0
  1  2  1  0  0  0  0
  2  3  1  0  0  0  0
  2 13  1  0  0  0  0
  3  4  1  0  0  0  0
  4  5  2  0  0  0  0
  4  6  1  0  0  0  0
  6 14  1  0  0  0  0
  7  8  1  0  0  0  0
  7 12  1  0  0  0  0
  7  6  1  6  0  0  0
  8  9  1  0  0  0  0
  9 10  1  0  0  0  0
 10 11  1  0  0  0  0
 11 12  1  0  0  0  0
M  END
>  <CHROM.0>
-50.66773968,-62.60818614,-54.81648031,-53.36390824,-55.27136435,59.29269947
-58.66007488,-51.40331589,-166.61141290,161.95959961

>  <CHROM.1>
169.19997543,-129.61576253,168.14105644,20.73466032,-17.11102108,4.66988436
-0.41573968,0.73167520,1.94961533

>  <Name>
P109615893

>  <RI>
0

>  <Rbt.Current_Directory>
/home/fstefaniak/projects/zuza/docking/adenine/1Y26

>  <Rbt.Executable>
rbdock ($Id: //depot/dev/client3/rdock/2013.1/src/exe/rbdock.cxx#4 $)

>  <Rbt.Library>
libRbt.so (2013.1, Build901 2013/11/27)

>  <Rbt.Parameter_File>
/home/fstefaniak/progs/rDock//data/scripts/dock_solv.prm

>  <Rbt.Receptor>
1y26.prm

>  <SCORE>
-49.4247

>  <SCORE.INTER>
-29.6024

>  <SCORE.INTER.CONST>
1

>  <SCORE.INTER.POLAR>
-3.86947

>  <SCORE.INTER.ROT>
3

>  <SCORE.INTER.SOLV>
13.5289

>  <SCORE.INTER.VDW>
-16.9463

>  <SCORE.INTER.norm>
-2.46686

>  <SCORE.INTRA>
1.56164

>  <SCORE.INTRA.DIHEDRAL>
0.132793

>  <SCORE.INTRA.DIHEDRAL.0>
2.54998

>  <SCORE.INTRA.POLAR>
0.192976

>  <SCORE.INTRA.POLAR.0>
-0.192976

>  <SCORE.INTRA.REPUL>
0

>  <SCORE.INTRA.REPUL.0>
0

>  <SCORE.INTRA.SOLV>
-0.223597

>  <SCORE.INTRA.SOLV.lig_0>
-14.5609

>  <SCORE.INTRA.VDW>
0.950917

>  <SCORE.INTRA.VDW.0>
-1.05684

>  <SCORE.INTRA.norm>
0.130136

>  <SCORE.RESTR>
0

>  <SCORE.RESTR.CAVITY>
0

>  <SCORE.RESTR.norm>
0

>  <SCORE.SYSTEM>
-21.384

>  <SCORE.SYSTEM.CONST>
0

>  <SCORE.SYSTEM.DIHEDRAL>
5.47783

>  <SCORE.SYSTEM.POLAR>
-3.42594

>  <SCORE.SYSTEM.SOLV>
0.504697

>  <SCORE.SYSTEM.VDW>
-4.83035

>  <SCORE.SYSTEM.norm>
-1.782

>  <SCORE.heavy>
12

>  <SCORE.norm>
-4.11873

$$$$
P111214489
 OpenBabel12072022103D
libRbt.so/2013.1/901 2013/11/27
 15 15  0  0  0  0  0  0  0  0999 V2000
   19.7334  -18.1701    4.2967 C   0  0  0  0  0  0  0  0  0  0  0  0
   20.3793  -17.1767    5.0704 C   0  0  0  0  0  0  0  0  0  0  0  0
   20.8001  -16.2066    4.1840 C   0  0  0  0  0  0  0  0  0  0  0  0
   20.4368  -16.5462    2.9135 O   0  0  0  0  0  0  0  0  0  0  0  0
   19.7984  -17.7422    2.9917 C   0  0  0  0  0  0  0  0  0  0  0  0
   21.5130  -14.9156    4.3493 C   0  0  0  0  0  0  0  0  0  0  0  0
   23.0005  -15.0860    4.0814 C   0  0  0  0  0  0  0  0  0  0  0  0
   23.5709  -14.6946    3.0611 O   0  0  0  0  0  0  0  0  0  0  0  0
   23.7390  -15.7790    5.0147 N   0  0  0  0  0  0  0  0  0  0  0  0
   24.6206  -16.7753    4.6980 C   0  0  0  0  0  0  0  0  0  0  0  0
   24.5206  -17.5787    3.7831 O   0  0  0  0  0  0  0  0  0  0  0  0
   25.6755  -16.8323    5.5576 N   0  0  0  0  0  0  0  0  0  0  0  0
   24.0791  -15.1583    5.7341 H   0  0  0  0  0  0  0  0  0  0  0  0
   25.6541  -16.2348    6.3725 H   0  0  0  0  0  0  0  0  0  0  0  0
   25.9879  -17.7787    5.7450 H   0  0  0  0  0  0  0  0  0  0  0  0
  1  2  1  0  0  0  0
  1  5  2  0  0  0  0
  2  3  2  0  0  0  0
  3  4  1  0  0  0  0
  3  6  1  0  0  0  0
  4  5  1  0  0  0  0
  6  7  1  0  0  0  0
  7  8  2  0  0  0  0
  7  9  1  0  0  0  0
  9 10  1  0  0  0  0
  9 13  1  0  0  0  0
 10 11  2  0  0  0  0
 10 12  1  0  0  0  0
 12 14  1  0  0  0  0
 12 15  1  0  0  0  0
M  END
>  <CHROM.0>
-44.54931985,57.50264999,-56.18116953,-52.22896909,-60.87357770,-59.96755644
-52.15686372,-50.91423676,-166.05016203,162.02749030

>  <CHROM.1>
97.64554255,105.58847033,132.30880614,-33.70862779,6.79369380,22.41075244
-16.44431491,4.16171346,-3.04426756,-0.23492590,-0.29913058

>  <Name>
P111214489

>  <RI>
0

>  <Rbt.Current_Directory>
/home/fstefaniak/projects/zuza/docking/adenine/1Y26

>  <Rbt.Executable>
rbdock ($Id: //depot/dev/client3/rdock/2013.1/src/exe/rbdock.cxx#4 $)

>  <Rbt.Library>
libRbt.so (2013.1, Build901 2013/11/27)

>  <Rbt.Parameter_File>
/home/fstefaniak/progs/rDock//data/scripts/dock_solv.prm

>  <Rbt.Receptor>
1y26.prm

>  <SCORE>
-64.6952

>  <SCORE.INTER>
-42.2438

>  <SCORE.INTER.CONST>
1

>  <SCORE.INTER.POLAR>
-5.80427

>  <SCORE.INTER.ROT>
5

>  <SCORE.INTER.SOLV>
15.653

>  <SCORE.INTER.VDW>
-20.966

>  <SCORE.INTER.norm>
-3.52032

>  <SCORE.INTRA>
-1.04794

>  <SCORE.INTRA.DIHEDRAL>
0.100023

>  <SCORE.INTRA.DIHEDRAL.0>
3.45931

>  <SCORE.INTRA.POLAR>
0

>  <SCORE.INTRA.POLAR.0>
0

>  <SCORE.INTRA.REPUL>
0

>  <SCORE.INTRA.REPUL.0>
0

>  <SCORE.INTRA.SOLV>
0.436083

>  <SCORE.INTRA.SOLV.lig_0>
-20.2357

>  <SCORE.INTRA.VDW>
-1.31599

>  <SCORE.INTRA.VDW.0>
-0.340091

>  <SCORE.INTRA.norm>
-0.0873283

>  <SCORE.RESTR>
0

>  <SCORE.RESTR.CAVITY>
0

>  <SCORE.RESTR.norm>
0

>  <SCORE.SYSTEM>
-21.4034

>  <SCORE.SYSTEM.CONST>
0

>  <SCORE.SYSTEM.DIHEDRAL>
6.45699

>  <SCORE.SYSTEM.POLAR>
-3.55536

>  <SCORE.SYSTEM.SOLV>
0.72956

>  <SCORE.SYSTEM.VDW>
-4.81328

>  <SCORE.SYSTEM.norm>
-1.78362

>  <SCORE.heavy>
12

>  <SCORE.norm>
-5.39127

$$$$
P111214489
 OpenBabel12072022103D
libRbt.so/2013.1/901 2013/11/27
 15 15  0  0  0  0  0  0  0  0999 V2000
   19.5953  -18.1143    4.1697 C   0  0  0  0  0  0  0  0  0  0  0  0
   20.1853  -17.1140    4.9784 C   0  0  0  0  0  0  0  0  0  0  0  0
   20.7610  -16.2054    4.1144 C   0  0  0  0  0  0  0  0  0  0  0  0
   20.5454  -16.5885    2.8227 O   0  0  0  0  0  0  0  0  0  0  0  0
   19.8453  -17.7513    2.8674 C   0  0  0  0  0  0  0  0  0  0  0  0
   21.5086  -14.9396    4.3166 C   0  0  0  0  0  0  0  0  0  0  0  0
   23.0078  -15.1830    4.2351 C   0  0  0  0  0  0  0  0  0  0  0  0
   23.7727  -14.5596    3.4963 O   0  0  0  0  0  0  0  0  0  0  0  0
   23.5268  -16.2100    4.9918 N   0  0  0  0  0  0  0  0  0  0  0  0
   24.6194  -16.9463    4.6252 C   0  0  0  0  0  0  0  0  0  0  0  0
   24.7015  -17.7140    3.6784 O   0  0  0  0  0  0  0  0  0  0  0  0
   25.6726  -16.7753    5.4716 N   0  0  0  0  0  0  0  0  0  0  0  0
   23.5159  -15.9725    5.9725 H   0  0  0  0  0  0  0  0  0  0  0  0
   25.5586  -16.1343    6.2446 H   0  0  0  0  0  0  0  0  0  0  0  0
   26.1329  -17.6448    5.7179 H   0  0  0  0  0  0  0  0  0  0  0  0
  1  2  1  0  0  0  0
  1  5  2  0  0  0  0
  2  3  2  0  0  0  0
  3  4  1  0  0  0  0
  3  6  1  0  0  0  0
  4  5  1  0  0  0  0
  6  7  1  0  0  0  0
  7  8  2  0  0  0  0
  7  9  1  0  0  0  0
  9 10  1  0  0  0  0
  9 13  1  0  0  0  0
 10 11  2  0  0  0  0
 10 12  1  0  0  0  0
 12 14  1  0  0  0  0
 12 15  1  0  0  0  0
M  END
>  <CHROM.0>
-53.16533176,-66.78586252,-57.46186614,-54.91001366,-54.67405687,-60.43730714
-64.13839406,-53.82981053,-167.64564081,159.53199676

>  <CHROM.1>
98.21901567,126.84316057,148.89956215,-66.53866934,-1.21544343,22.41169318
-16.49558464,4.14745412,-3.01857446,-0.20898134,-0.10395797

>  <Name>
P111214489

>  <RI>
0

>  <Rbt.Current_Directory>
/home/fstefaniak/projects/zuza/docking/adenine/1Y26

>  <Rbt.Executable>
rbdock ($Id: //depot/dev/client3/rdock/2013.1/src/exe/rbdock.cxx#4 $)

>  <Rbt.Library>
libRbt.so (2013.1, Build901 2013/11/27)

>  <Rbt.Parameter_File>
/home/fstefaniak/progs/rDock//data/scripts/dock_solv.prm

>  <Rbt.Receptor>
1y26.prm

>  <SCORE>
-62.9874

>  <SCORE.INTER>
-39.9942

>  <SCORE.INTER.CONST>
1

>  <SCORE.INTER.POLAR>
-5.17328

>  <SCORE.INTER.ROT>
5

>  <SCORE.INTER.SOLV>
15.2604

>  <SCORE.INTER.VDW>
-21.4387

>  <SCORE.INTER.norm>
-3.33285

>  <SCORE.INTRA>
-0.849031

>  <SCORE.INTRA.DIHEDRAL>
0.161601

>  <SCORE.INTRA.DIHEDRAL.0>
3.45931

>  <SCORE.INTRA.POLAR>
0

>  <SCORE.INTRA.POLAR.0>
0

>  <SCORE.INTRA.REPUL>
0

>  <SCORE.INTRA.REPUL.0>
0

>  <SCORE.INTRA.SOLV>
0.590249

>  <SCORE.INTRA.SOLV.lig_0>
-20.2357

>  <SCORE.INTRA.VDW>
-1.22496

>  <SCORE.INTRA.VDW.0>
-0.340091

>  <SCORE.INTRA.norm>
-0.0707526

>  <SCORE.RESTR>
0

>  <SCORE.RESTR.CAVITY>
0

>  <SCORE.RESTR.norm>
0

>  <SCORE.SYSTEM>
-22.1441

>  <SCORE.SYSTEM.CONST>
0

>  <SCORE.SYSTEM.DIHEDRAL>
5.47106

>  <SCORE.SYSTEM.POLAR>
-3.3738

>  <SCORE.SYSTEM.SOLV>
0.633364

>  <SCORE.SYSTEM.VDW>
-5.55154

>  <SCORE.SYSTEM.norm>
-1.84534

>  <SCORE.heavy>
12

>  <SCORE.norm>
-5.24895

$$$$
P111214489
 OpenBabel12072022103D
libRbt.so/2013.1/901 2013/11/27
 15 15  0  0  0  0  0  0  0  0999 V2000
   18.8699  -19.6421    5.5870 C   0  0  0  0  0  0  0  0  0  0  0  0
   19.2160  -18.7911    4.5107 C   0  0  0  0  0  0  0  0  0  0  0  0
   19.8932  -17.7230    5.0622 C   0  0  0  0  0  0  0  0  0  0  0  0
   19.9906  -17.8800    6.4141 O   0  0  0  0  0  0  0  0  0  0  0  0
   19.3596  -19.0421    6.7230 C   0  0  0  0  0  0  0  0  0  0  0  0
   20.5273  -16.5113    4.4861 C   0  0  0  0  0  0  0  0  0  0  0  0
   21.9390  -16.8190    4.0106 C   0  0  0  0  0  0  0  0  0  0  0  0
   22.2044  -17.4087    2.9612 O   0  0  0  0  0  0  0  0  0  0  0  0
   22.9798  -16.4693    4.8419 N   0  0  0  0  0  0  0  0  0  0  0  0
   24.1095  -15.8273    4.4155 C   0  0  0  0  0  0  0  0  0  0  0  0
   24.2125  -15.0923    3.4451 O   0  0  0  0  0  0  0  0  0  0  0  0
   25.1956  -16.1138    5.1857 N   0  0  0  0  0  0  0  0  0  0  0  0
   22.6322  -16.1229    5.7238 H   0  0  0  0  0  0  0  0  0  0  0  0
   26.1091  -16.0475    4.7583 H   0  0  0  0  0  0  0  0  0  0  0  0
   25.1428  -15.7139    6.1162 H   0  0  0  0  0  0  0  0  0  0  0  0
  1  2  1  0  0  0  0
  1  5  2  0  0  0  0
  2  3  2  0  0  0  0
  3  4  1  0  0  0  0
  3  6  1  0  0  0  0
  4  5  1  0  0  0  0
  6  7  1  0  0  0  0
  7  8  2  0  0  0  0
  7  9  1  0  0  0  0
  9 10  1  0  0  0  0
  9 13  1  0  0  0  0
 10 11  2  0  0  0  0
 10 12  1  0  0  0  0
 12 14  1  0  0  0  0
 12 15  1  0  0  0  0
M  END
>  <CHROM.0>
-52.36711609,-160.95481979,-56.64199799,-50.24814970,-175.68373454,-58.21965364
-47.30122682,-53.68991002,-167.43718919,160.87713075

>  <CHROM.1>
-84.24328631,77.56348407,-134.04653674,26.41491419,153.40098383,21.64451506
-17.21991660,4.79461172,-2.79065573,-0.47919968,-1.36296635

>  <Name>
P111214489

>  <RI>
0

>  <Rbt.Current_Directory>
/home/fstefaniak/projects/zuza/docking/adenine/1Y26

>  <Rbt.Executable>
rbdock ($Id: //depot/dev/client3/rdock/2013.1/src/exe/rbdock.cxx#4 $)

>  <Rbt.Library>
libRbt.so (2013.1, Build901 2013/11/27)

>  <Rbt.Parameter_File>
/home/fstefaniak/progs/rDock//data/scripts/dock_solv.prm

>  <Rbt.Receptor>
1y26.prm

>  <SCORE>
-62.0848

>  <SCORE.INTER>
-40.4565

>  <SCORE.INTER.CONST>
1

>  <SCORE.INTER.POLAR>
-5.12052

>  <SCORE.INTER.ROT>
5

>  <SCORE.INTER.SOLV>
15.6585

>  <SCORE.INTER.VDW>
-22.0554

>  <SCORE.INTER.norm>
-3.37138

>  <SCORE.INTRA>
-0.10813

>  <SCORE.INTRA.DIHEDRAL>
0.904006

>  <SCORE.INTRA.DIHEDRAL.0>
3.45931

>  <SCORE.INTRA.POLAR>
0

>  <SCORE.INTRA.POLAR.0>
0

>  <SCORE.INTRA.REPUL>
0

>  <SCORE.INTRA.REPUL.0>
0

>  <SCORE.INTRA.SOLV>
0.0455996

>  <SCORE.INTRA.SOLV.lig_0>
-20.2357

>  <SCORE.INTRA.VDW>
-0.582932

>  <SCORE.INTRA.VDW.0>
-0.340091

>  <SCORE.INTRA.norm>
-0.00901079

>  <SCORE.RESTR>
0

>  <SCORE.RESTR.CAVITY>
0

>  <SCORE.RESTR.norm>
0

>  <SCORE.SYSTEM>
-21.5202

>  <SCORE.SYSTEM.CONST>
0

>  <SCORE.SYSTEM.DIHEDRAL>
7.70353

>  <SCORE.SYSTEM.POLAR>
-3.52056

>  <SCORE.SYSTEM.SOLV>
0.459789

>  <SCORE.SYSTEM.VDW>
-5.3327

>  <SCORE.SYSTEM.norm>
-1.79335

>  <SCORE.heavy>
12

>  <SCORE.norm>
-5.17373

$$$$
P111223242
 OpenBabel12072022103D
libRbt.so/2013.1/901 2013/11/27
 13 13  0  0  0  0  0  0  0  0999 V2000
   19.2099  -18.1840    2.5903 C   0  0  0  0  0  0  0  0  0  0  0  0
   20.1908  -17.3969    3.4699 C   0  0  0  0  0  0  0  0  0  0  0  0
   19.9112  -15.9638    3.2711 N   0  0  0  0  0  0  0  0  0  0  0  0
   20.9076  -15.1233    3.7657 N   0  0  0  0  0  0  0  0  0  0  0  0
   22.2602  -15.5374    3.8883 C   0  0  0  0  0  0  0  0  0  0  0  0
   22.5362  -16.8813    3.5223 N   0  3  0  0  0  0  0  0  0  0  0  0
   23.5199  -17.1312    3.6060 H   0  0  0  0  0  0  0  0  0  0  0  0
   21.5541  -17.7372    3.0260 N   0  0  0  0  0  0  0  0  0  0  0  0
   23.4498  -14.5182    4.4870 S   0  5  0  0  0  0  0  0  0  0  0  0
   19.9809  -17.7945    4.9400 C   0  0  0  0  0  0  0  0  0  0  0  0
   19.0033  -15.6818    3.6368 H   0  0  0  0  0  0  0  0  0  0  0  0
   20.7564  -14.1485    4.0188 H   0  0  0  0  0  0  0  0  0  0  0  0
   21.8047  -18.7054    3.2191 H   0  0  0  0  0  0  0  0  0  0  0  0
  1  2  1  0  0  0  0
  2  3  1  0  0  0  0
  2  8  1  0  0  0  0
  2 10  1  0  0  0  0
  3  4  1  0  0  0  0
  3 11  1  0  0  0  0
  4  5  1  0  0  0  0
  4 12  1  0  0  0  0
  5  6  2  0  0  0  0
  5  9  1  0  0  0  0
  6  7  1  0  0  0  0
  6  8  1  0  0  0  0
  8 13  1  0  0  0  0
M  CHG  2   6   1   9  -1
M  END
>  <CHROM.0>
-49.62540281,-60.54847091,-56.46076157,-51.74783667,-56.14391152,-58.24930417
-63.52476874,179.81064448,-165.95167841,160.59724512

>  <CHROM.1>
21.37992837,-16.33583407,3.76394631,-2.39527961,-0.09037437,0.22075807

>  <Name>
P111223242

>  <RI>
0

>  <Rbt.Current_Directory>
/home/fstefaniak/projects/zuza/docking/adenine/1Y26

>  <Rbt.Executable>
rbdock ($Id: //depot/dev/client3/rdock/2013.1/src/exe/rbdock.cxx#4 $)

>  <Rbt.Library>
libRbt.so (2013.1, Build901 2013/11/27)

>  <Rbt.Parameter_File>
/home/fstefaniak/progs/rDock//data/scripts/dock_solv.prm

>  <Rbt.Receptor>
1y26.prm

>  <SCORE>
-46.1185

>  <SCORE.INTER>
-23.427

>  <SCORE.INTER.CONST>
1

>  <SCORE.INTER.POLAR>
-2.82224

>  <SCORE.INTER.ROT>
0

>  <SCORE.INTER.SOLV>
15.4481

>  <SCORE.INTER.VDW>
-14.9599

>  <SCORE.INTER.norm>
-2.603

>  <SCORE.INTRA>
0

>  <SCORE.INTRA.DIHEDRAL>
0

>  <SCORE.INTRA.DIHEDRAL.0>
0

>  <SCORE.INTRA.POLAR>
0

>  <SCORE.INTRA.POLAR.0>
0

>  <SCORE.INTRA.REPUL>
0

>  <SCORE.INTRA.REPUL.0>
0

>  <SCORE.INTRA.SOLV>
0

>  <SCORE.INTRA.SOLV.lig_0>
-30.2341

>  <SCORE.INTRA.VDW>
0

>  <SCORE.INTRA.VDW.0>
0

>  <SCORE.INTRA.norm>
0

>  <SCORE.RESTR>
0

>  <SCORE.RESTR.CAVITY>
0

>  <SCORE.RESTR.norm>
0

>  <SCORE.SYSTEM>
-22.6915

>  <SCORE.SYSTEM.CONST>
0

>  <SCORE.SYSTEM.DIHEDRAL>
5.5473

>  <SCORE.SYSTEM.POLAR>
-3.47233

>  <SCORE.SYSTEM.SOLV>
0.446577

>  <SCORE.SYSTEM.VDW>
-5.55117

>  <SCORE.SYSTEM.norm>
-2.52128

>  <SCORE.heavy>
9

>  <SCORE.norm>
-5.12428

$$$$
P111223242
 OpenBabel12072022103D
libRbt.so/2013.1/901 2013/11/27
 13 13  0  0  0  0  0  0  0  0999 V2000
   19.2060  -18.1789    2.5919 C   0  0  0  0  0  0  0  0  0  0  0  0
   20.1933  -17.3973    3.4693 C   0  0  0  0  0  0  0  0  0  0  0  0
   19.9200  -15.9627    3.2724 N   0  0  0  0  0  0  0  0  0  0  0  0
   20.9219  -15.1273    3.7647 N   0  0  0  0  0  0  0  0  0  0  0  0
   22.2728  -15.5481    3.8830 C   0  0  0  0  0  0  0  0  0  0  0  0
   22.5413  -16.8930    3.5153 N   0  3  0  0  0  0  0  0  0  0  0  0
   23.5240  -17.1477    3.5959 H   0  0  0  0  0  0  0  0  0  0  0  0
   21.5536  -17.7437    3.0211 N   0  0  0  0  0  0  0  0  0  0  0  0
   23.4691  -14.5351    4.4791 S   0  5  0  0  0  0  0  0  0  0  0  0
   19.9858  -17.7950    4.9397 C   0  0  0  0  0  0  0  0  0  0  0  0
   19.0145  -15.6766    3.6410 H   0  0  0  0  0  0  0  0  0  0  0  0
   20.7761  -14.1520    4.0190 H   0  0  0  0  0  0  0  0  0  0  0  0
   21.8001  -18.7133    3.2128 H   0  0  0  0  0  0  0  0  0  0  0  0
  1  2  1  0  0  0  0
  2  3  1  0  0  0  0
  2  8  1  0  0  0  0
  2 10  1  0  0  0  0
  3  4  1  0  0  0  0
  3 11  1  0  0  0  0
  4  5  1  0  0  0  0
  4 12  1  0  0  0  0
  5  6  2  0  0  0  0
  5  9  1  0  0  0  0
  6  7  1  0  0  0  0
  6  8  1  0  0  0  0
  8 13  1  0  0  0  0
M  CHG  2   6   1   9  -1
M  END
>  <CHROM.0>
-47.18809914,-61.10506448,-55.12736598,-51.71458726,-57.57994025,-58.45548671
-60.36613254,-179.33950139,-166.91556383,160.65139125

>  <CHROM.1>
21.38833905,-16.34214927,3.76066162,-2.40064568,-0.08858409,0.22106496

>  <Name>
P111223242

>  <RI>
0

>  <Rbt.Current_Directory>
/home/fstefaniak/projects/zuza/docking/adenine/1Y26

>  <Rbt.Executable>
rbdock ($Id: //depot/dev/client3/rdock/2013.1/src/exe/rbdock.cxx#4 $)

>  <Rbt.Library>
libRbt.so (2013.1, Build901 2013/11/27)

>  <Rbt.Parameter_File>
/home/fstefaniak/progs/rDock//data/scripts/dock_solv.prm

>  <Rbt.Receptor>
1y26.prm

>  <SCORE>
-46.1078

>  <SCORE.INTER>
-23.3855

>  <SCORE.INTER.CONST>
1

>  <SCORE.INTER.POLAR>
-2.80243

>  <SCORE.INTER.ROT>
0

>  <SCORE.INTER.SOLV>
15.4246

>  <SCORE.INTER.VDW>
-14.9905

>  <SCORE.INTER.norm>
-2.59839

>  <SCORE.INTRA>
0

>  <SCORE.INTRA.DIHEDRAL>
0

>  <SCORE.INTRA.DIHEDRAL.0>
0

>  <SCORE.INTRA.POLAR>
0

>  <SCORE.INTRA.POLAR.0>
0

>  <SCORE.INTRA.REPUL>
0

>  <SCORE.INTRA.REPUL.0>
0

>  <SCORE.INTRA.SOLV>
0

>  <SCORE.INTRA.SOLV.lig_0>
-30.2341

>  <SCORE.INTRA.VDW>
0

>  <SCORE.INTRA.VDW.0>
0

>  <SCORE.INTRA.norm>
0

>  <SCORE.RESTR>
0

>  <SCORE.RESTR.CAVITY>
0

>  <SCORE.RESTR.norm>
0

>  <SCORE.SYSTEM>
-22.7222

>  <SCORE.SYSTEM.CONST>
0

>  <SCORE.SYSTEM.DIHEDRAL>
5.64658

>  <SCORE.SYSTEM.POLAR>
-3.50955

>  <SCORE.SYSTEM.SOLV>
0.457945

>  <SCORE.SYSTEM.VDW>
-5.4845

>  <SCORE.SYSTEM.norm>
-2.52469

>  <SCORE.heavy>
9

>  <SCORE.norm>
-5.12309

$$$$
P111223242
 OpenBabel12072022103D
libRbt.so/2013.1/901 2013/11/27
 13 13  0  0  0  0  0  0  0  0999 V2000
   19.1959  -18.1825    2.5359 C   0  0  0  0  0  0  0  0  0  0  0  0
   20.1713  -17.4192    3.4421 C   0  0  0  0  0  0  0  0  0  0  0  0
   19.8989  -15.9809    3.2731 N   0  0  0  0  0  0  0  0  0  0  0  0
   20.8937  -15.1556    3.7957 N   0  0  0  0  0  0  0  0  0  0  0  0
   22.2435  -15.5776    3.9216 C   0  0  0  0  0  0  0  0  0  0  0  0
   22.5180  -16.9141    3.5281 N   0  3  0  0  0  0  0  0  0  0  0  0
   23.5000  -17.1696    3.6152 H   0  0  0  0  0  0  0  0  0  0  0  0
   21.5375  -17.7547    3.0034 N   0  0  0  0  0  0  0  0  0  0  0  0
   23.4312  -14.5768    4.5542 S   0  5  0  0  0  0  0  0  0  0  0  0
   19.9462  -17.8489    4.9009 C   0  0  0  0  0  0  0  0  0  0  0  0
   18.9886  -15.7037    3.6366 H   0  0  0  0  0  0  0  0  0  0  0  0
   20.7437  -14.1862    4.0693 H   0  0  0  0  0  0  0  0  0  0  0  0
   21.7827  -18.7280    3.1771 H   0  0  0  0  0  0  0  0  0  0  0  0
  1  2  1  0  0  0  0
  2  3  1  0  0  0  0
  2  8  1  0  0  0  0
  2 10  1  0  0  0  0
  3  4  1  0  0  0  0
  3 11  1  0  0  0  0
  4  5  1  0  0  0  0
  4 12  1  0  0  0  0
  5  6  2  0  0  0  0
  5  9  1  0  0  0  0
  6  7  1  0  0  0  0
  6  8  1  0  0  0  0
  8 13  1  0  0  0  0
M  CHG  2   6   1   9  -1
M  END
>  <CHROM.0>
-46.81267715,-62.04428050,-55.87246196,-50.43617521,-54.51325624,-56.14225597
-58.16789391,-173.69289155,-166.73969629,160.73207826

>  <CHROM.1>
21.36153400,-16.36964100,3.77108179,-2.39682193,-0.10036789,0.24310900

>  <Name>
P111223242

>  <RI>
0

>  <Rbt.Current_Directory>
/home/fstefaniak/projects/zuza/docking/adenine/1Y26

>  <Rbt.Executable>
rbdock ($Id: //depot/dev/client3/rdock/2013.1/src/exe/rbdock.cxx#4 $)

>  <Rbt.Library>
libRbt.so (2013.1, Build901 2013/11/27)

>  <Rbt.Parameter_File>
/home/fstefaniak/progs/rDock//data/scripts/dock_solv.prm

>  <Rbt.Receptor>
1y26.prm

>  <SCORE>
-45.9123

>  <SCORE.INTER>
-23.3683

>  <SCORE.INTER.CONST>
1

>  <SCORE.INTER.POLAR>
-2.82245

>  <SCORE.INTER.ROT>
0

>  <SCORE.INTER.SOLV>
15.5521

>  <SCORE.INTER.VDW>
-14.9547

>  <SCORE.INTER.norm>
-2.59648

>  <SCORE.INTRA>
0

>  <SCORE.INTRA.DIHEDRAL>
0

>  <SCORE.INTRA.DIHEDRAL.0>
0

>  <SCORE.INTRA.POLAR>
0

>  <SCORE.INTRA.POLAR.0>
0

>  <SCORE.INTRA.REPUL>
0

>  <SCORE.INTRA.REPUL.0>
0

>  <SCORE.INTRA.SOLV>
0

>  <SCORE.INTRA.SOLV.lig_0>
-30.2341

>  <SCORE.INTRA.VDW>
0

>  <SCORE.INTRA.VDW.0>
0

>  <SCORE.INTRA.norm>
0

>  <SCORE.RESTR>
0

>  <SCORE.RESTR.CAVITY>
0

>  <SCORE.RESTR.norm>
0

>  <SCORE.SYSTEM>
-22.544

>  <SCORE.SYSTEM.CONST>
0

>  <SCORE.SYSTEM.DIHEDRAL>
6.14123

>  <SCORE.SYSTEM.POLAR>
-3.54283

>  <SCORE.SYSTEM.SOLV>
0.468498

>  <SCORE.SYSTEM.VDW>
-5.42312

>  <SCORE.SYSTEM.norm>
-2.50489

>  <SCORE.heavy>
9

>  <SCORE.norm>
-5.10136

$$$$
P111278486
 OpenBabel12072022103D
libRbt.so/2013.1/901 2013/11/27
 15 16  0  0  0  0  0  0  0  0999 V2000
   21.5283  -14.8735    4.8681 C   0  0  0  0  0  0  0  0  0  0  0  0
   21.7848  -16.2458    4.2622 C   0  0  0  0  0  0  0  0  0  0  0  0
   21.2857  -17.2440    5.1560 O   0  0  0  0  0  0  0  0  0  0  0  0
   20.6166  -18.2033    4.3412 C   0  0  1  0  0  0  0  0  0  0  0  0
   19.2398  -18.5537    4.9432 C   0  0  1  0  0  0  0  0  0  0  0  0
   18.2724  -18.4332    3.7710 C   0  0  0  0  0  0  0  0  0  0  0  0
   18.8355  -17.2422    3.0079 C   0  0  1  0  0  0  0  0  0  0  0  0
   20.3428  -17.5152    3.0164 C   0  0  1  0  0  0  0  0  0  0  0  0
   21.1150  -16.3203    3.0027 O   0  0  0  0  0  0  0  0  0  0  0  0
   18.3174  -17.2048    1.6859 O   0  0  0  0  0  0  0  0  0  0  0  0
   19.1649  -19.8660    5.5833 N   0  0  0  0  0  0  0  0  0  0  0  0
   23.2760  -16.4804    4.0422 C   0  0  0  0  0  0  0  0  0  0  0  0
   18.4311  -18.0925    1.3042 H   0  0  0  0  0  0  0  0  0  0  0  0
   19.7571  -20.5189    5.0669 H   0  0  0  0  0  0  0  0  0  0  0  0
   18.2187  -20.2406    5.5228 H   0  0  0  0  0  0  0  0  0  0  0  0
  1  2  1  0  0  0  0
  2  3  1  0  0  0  0
  2  9  1  0  0  0  0
  2 12  1  0  0  0  0
  4  3  1  1  0  0  0
  4  8  1  0  0  0  0
  5  4  1  0  0  0  0
  5  6  1  0  0  0  0
  5 11  1  6  0  0  0
  6  7  1  0  0  0  0
  7 10  1  6  0  0  0
  7  8  1  0  0  0  0
  8  9  1  1  0  0  0
 10 13  1  0  0  0  0
 11 14  1  0  0  0  0
 11 15  1  0  0  0  0
M  END
>  <CHROM.0>
-45.51570548,170.57406812,-53.27753615,-53.13090832,-56.13665567,-57.85128228
-54.09549024,-50.12302782,-167.47211268,160.15943924

>  <CHROM.1>
-34.83185281,-49.59237166,20.30621576,-17.35434397,3.95500304,0.30242185
-0.56868247,-0.85604843

>  <Name>
P111278486

>  <RI>
0

>  <Rbt.Current_Directory>
/home/fstefaniak/projects/zuza/docking/adenine/1Y26

>  <Rbt.Executable>
rbdock ($Id: //depot/dev/client3/rdock/2013.1/src/exe/rbdock.cxx#4 $)

>  <Rbt.Library>
libRbt.so (2013.1, Build901 2013/11/27)

>  <Rbt.Parameter_File>
/home/fstefaniak/progs/rDock//data/scripts/dock_solv.prm

>  <Rbt.Receptor>
1y26.prm

>  <SCORE>
-46.052

>  <SCORE.INTER>
-25.4463

>  <SCORE.INTER.CONST>
1

>  <SCORE.INTER.POLAR>
-3.19127

>  <SCORE.INTER.ROT>
1

>  <SCORE.INTER.SOLV>
13.4854

>  <SCORE.INTER.VDW>
-15.0884

>  <SCORE.INTER.norm>
-2.12052

>  <SCORE.INTRA>
1.27489

>  <SCORE.INTRA.DIHEDRAL>
0.991056

>  <SCORE.INTRA.DIHEDRAL.0>
0.664537

>  <SCORE.INTRA.POLAR>
0

>  <SCORE.INTRA.POLAR.0>
0

>  <SCORE.INTRA.REPUL>
0

>  <SCORE.INTRA.REPUL.0>
0

>  <SCORE.INTRA.SOLV>
-0.0509131

>  <SCORE.INTRA.SOLV.lig_0>
-12.0878

>  <SCORE.INTRA.VDW>
0.804818

>  <SCORE.INTRA.VDW.0>
-0.179276

>  <SCORE.INTRA.norm>
0.106241

>  <SCORE.RESTR>
0

>  <SCORE.RESTR.CAVITY>
0

>  <SCORE.RESTR.norm>
0

>  <SCORE.SYSTEM>
-21.8806

>  <SCORE.SYSTEM.CONST>
0

>  <SCORE.SYSTEM.DIHEDRAL>
6.93092

>  <SCORE.SYSTEM.POLAR>
-3.58071

>  <SCORE.SYSTEM.SOLV>
0.646461

>  <SCORE.SYSTEM.VDW>
-5.17717

>  <SCORE.SYSTEM.norm>
-1.82338

>  <SCORE.heavy>
12

>  <SCORE.norm>
-3.83766

$$$$
P111278486
 OpenBabel12072022103D
libRbt.so/2013.1/901 2013/11/27
 15 16  0  0  0  0  0  0  0  0999 V2000
   23.8345  -14.9649    4.7200 C   0  0  0  0  0  0  0  0  0  0  0  0
   22.4091  -14.6881    4.2640 C   0  0  0  0  0  0  0  0  0  0  0  0
   22.1640  -15.4115    3.0553 O   0  0  0  0  0  0  0  0  0  0  0  0
   20.8617  -15.9751    3.1906 C   0  0  1  0  0  0  0  0  0  0  0  0
   20.8726  -17.4608    2.7746 C   0  0  1  0  0  0  0  0  0  0  0  0
   20.1600  -18.1785    3.9155 C   0  0  0  0  0  0  0  0  0  0  0  0
   20.6411  -17.4046    5.1352 C   0  0  1  0  0  0  0  0  0  0  0  0
   20.5412  -15.9473    4.6739 C   0  0  1  0  0  0  0  0  0  0  0  0
   21.5118  -15.1104    5.2920 O   0  0  0  0  0  0  0  0  0  0  0  0
   19.8016  -17.6592    6.2523 O   0  0  0  0  0  0  0  0  0  0  0  0
   20.2545  -17.7410    1.4796 N   0  0  0  0  0  0  0  0  0  0  0  0
   22.1941  -13.2008    4.0022 C   0  0  0  0  0  0  0  0  0  0  0  0
   20.1892  -17.1998    7.0174 H   0  0  0  0  0  0  0  0  0  0  0  0
   20.1831  -18.7531    1.3606 H   0  0  0  0  0  0  0  0  0  0  0  0
   20.8500  -17.4126    0.7200 H   0  0  0  0  0  0  0  0  0  0  0  0
  1  2  1  0  0  0  0
  2  3  1  0  0  0  0
  2  9  1  0  0  0  0
  2 12  1  0  0  0  0
  4  3  1  1  0  0  0
  4  8  1  0  0  0  0
  5  4  1  0  0  0  0
  5  6  1  0  0  0  0
  5 11  1  6  0  0  0
  6  7  1  0  0  0  0
  7 10  1  1  0  0  0
  7  8  1  0  0  0  0
  8  9  1  1  0  0  0
 10 13  1  0  0  0  0
 11 14  1  0  0  0  0
 11 15  1  0  0  0  0
M  END
>  <CHROM.0>
-45.93575009,48.24708210,-53.53714792,-53.21369991,-57.79838535,-61.46869156
-60.49013957,-52.73900749,-166.47885887,160.93072766

>  <CHROM.1>
-171.45860406,175.68067855,21.27140531,-16.15090542,4.07659693,0.27043727
0.94030958,1.41074424

>  <Name>
P111278486

>  <RI>
0

>  <Rbt.Current_Directory>
/home/fstefaniak/projects/zuza/docking/adenine/1Y26

>  <Rbt.Executable>
rbdock ($Id: //depot/dev/client3/rdock/2013.1/src/exe/rbdock.cxx#4 $)

>  <Rbt.Library>
libRbt.so (2013.1, Build901 2013/11/27)

>  <Rbt.Parameter_File>
/home/fstefaniak/progs/rDock//data/scripts/dock_solv.prm

>  <Rbt.Receptor>
1y26.prm

>  <SCORE>
-45.7195

>  <SCORE.INTER>
-23.9715

>  <SCORE.INTER.CONST>
1

>  <SCORE.INTER.POLAR>
-3.78245

>  <SCORE.INTER.ROT>
1

>  <SCORE.INTER.SOLV>
12.9252

>  <SCORE.INTER.VDW>
-11.9479

>  <SCORE.INTER.norm>
-1.99763

>  <SCORE.INTRA>
-0.163432

>  <SCORE.INTRA.DIHEDRAL>
-0.264541

>  <SCORE.INTRA.DIHEDRAL.0>
0.664537

>  <SCORE.INTRA.POLAR>
0

>  <SCORE.INTRA.POLAR.0>
0

>  <SCORE.INTRA.REPUL>
0

>  <SCORE.INTRA.REPUL.0>
0

>  <SCORE.INTRA.SOLV>
-0.0157078

>  <SCORE.INTRA.SOLV.lig_0>
-12.0878

>  <SCORE.INTRA.VDW>
-0.0233074

>  <SCORE.INTRA.VDW.0>
-0.179276

>  <SCORE.INTRA.norm>
-0.0136193

>  <SCORE.RESTR>
0

>  <SCORE.RESTR.CAVITY>
0

>  <SCORE.RESTR.norm>
0

>  <SCORE.SYSTEM>
-21.5846

>  <SCORE.SYSTEM.CONST>
0

>  <SCORE.SYSTEM.DIHEDRAL>
6.65721

>  <SCORE.SYSTEM.POLAR>
-3.5978

>  <SCORE.SYSTEM.SOLV>
0.743258

>  <SCORE.SYSTEM.VDW>
-4.86385

>  <SCORE.SYSTEM.norm>
-1.79871

>  <SCORE.heavy>
12

>  <SCORE.norm>
-3.80996

$$$$
P111278486
 OpenBabel12072022103D
libRbt.so/2013.1/901 2013/11/27
 15 16  0  0  0  0  0  0  0  0999 V2000
   23.5844  -15.4238    4.4894 C   0  0  0  0  0  0  0  0  0  0  0  0
   22.1355  -15.0559    4.2039 C   0  0  0  0  0  0  0  0  0  0  0  0
   21.7093  -15.7454    3.0260 O   0  0  0  0  0  0  0  0  0  0  0  0
   20.3994  -16.2324    3.3068 C   0  0  1  0  0  0  0  0  0  0  0  0
   20.2719  -17.7098    2.8805 C   0  0  1  0  0  0  0  0  0  0  0  0
   19.6532  -18.4008    4.0905 C   0  0  0  0  0  0  0  0  0  0  0  0
   20.3177  -17.6752    5.2523 C   0  0  1  0  0  0  0  0  0  0  0  0
   20.2541  -16.2078    4.8174 C   0  0  1  0  0  0  0  0  0  0  0  0
   21.3385  -15.4394    5.3255 O   0  0  0  0  0  0  0  0  0  0  0  0
   19.5986  -17.8961    6.4571 O   0  0  0  0  0  0  0  0  0  0  0  0
   19.4930  -17.9333    1.6636 N   0  0  0  0  0  0  0  0  0  0  0  0
   21.9825  -13.5547    3.9806 C   0  0  0  0  0  0  0  0  0  0  0  0
   20.0874  -17.4532    7.1724 H   0  0  0  0  0  0  0  0  0  0  0  0
   18.4995  -17.8612    1.8903 H   0  0  0  0  0  0  0  0  0  0  0  0
   19.6317  -18.8826    1.3188 H   0  0  0  0  0  0  0  0  0  0  0  0
  1  2  1  0  0  0  0
  2  3  1  0  0  0  0
  2  9  1  0  0  0  0
  2 12  1  0  0  0  0
  4  3  1  1  0  0  0
  4  8  1  0  0  0  0
  5  4  1  0  0  0  0
  5  6  1  0  0  0  0
  5 11  1  6  0  0  0
  6  7  1  0  0  0  0
  7 10  1  1  0  0  0
  7  8  1  0  0  0  0
  8  9  1  1  0  0  0
 10 13  1  0  0  0  0
 11 14  1  0  0  0  0
 11 15  1  0  0  0  0
M  END
>  <CHROM.0>
-49.67684361,-47.61799824,-54.75638111,-51.14574722,-54.69501096,-59.19442910
-59.76051238,-176.64465756,-168.43209400,160.86305534

>  <CHROM.1>
-77.61724097,177.06339584,20.88972260,-16.44643600,4.14265827,0.06623208
0.88449480,1.59005310

>  <Name>
P111278486

>  <RI>
0

>  <Rbt.Current_Directory>
/home/fstefaniak/projects/zuza/docking/adenine/1Y26

>  <Rbt.Executable>
rbdock ($Id: //depot/dev/client3/rdock/2013.1/src/exe/rbdock.cxx#4 $)

>  <Rbt.Library>
libRbt.so (2013.1, Build901 2013/11/27)

>  <Rbt.Parameter_File>
/home/fstefaniak/progs/rDock//data/scripts/dock_solv.prm

>  <Rbt.Receptor>
1y26.prm

>  <SCORE>
-45.2769

>  <SCORE.INTER>
-23.2712

>  <SCORE.INTER.CONST>
1

>  <SCORE.INTER.POLAR>
-2.69387

>  <SCORE.INTER.ROT>
1

>  <SCORE.INTER.SOLV>
12.6126

>  <SCORE.INTER.VDW>
-15.0054

>  <SCORE.INTER.norm>
-1.93927

>  <SCORE.INTRA>
0.0649188

>  <SCORE.INTRA.DIHEDRAL>
-0.117881

>  <SCORE.INTRA.DIHEDRAL.0>
0.664537

>  <SCORE.INTRA.POLAR>
0

>  <SCORE.INTRA.POLAR.0>
0

>  <SCORE.INTRA.REPUL>
0

>  <SCORE.INTRA.REPUL.0>
0

>  <SCORE.INTRA.SOLV>
-0.0239563

>  <SCORE.INTRA.SOLV.lig_0>
-12.0878

>  <SCORE.INTRA.VDW>
0.135838

>  <SCORE.INTRA.VDW.0>
-0.179276

>  <SCORE.INTRA.norm>
0.0054099

>  <SCORE.RESTR>
0

>  <SCORE.RESTR.CAVITY>
0

>  <SCORE.RESTR.norm>
0

>  <SCORE.SYSTEM>
-22.0706

>  <SCORE.SYSTEM.CONST>
0

>  <SCORE.SYSTEM.DIHEDRAL>
6.09479

>  <SCORE.SYSTEM.POLAR>
-3.45854

>  <SCORE.SYSTEM.SOLV>
0.469152

>  <SCORE.SYSTEM.VDW>
-5.37324

>  <SCORE.SYSTEM.norm>
-1.83922

>  <SCORE.heavy>
12

>  <SCORE.norm>
-3.77308

$$$$
P111922037
 OpenBabel12072022103D
libRbt.so/2013.1/901 2013/11/27
 14 14  0  0  0  0  0  0  0  0999 V2000
   20.4550  -17.7947    2.4842 C   0  0  0  0  0  0  0  0  0  0  0  0
   19.0227  -18.3069    2.4499 C   0  0  0  0  0  0  0  0  0  0  0  0
   18.7236  -19.0521    3.6246 O   0  0  0  0  0  0  0  0  0  0  0  0
   18.8375  -18.2899    4.8187 C   0  0  0  0  0  0  0  0  0  0  0  0
   20.2649  -17.7977    5.0023 C   0  0  0  0  0  0  0  0  0  0  0  0
   20.7732  -17.0206    3.7768 C   0  0  0  0  0  0  0  0  0  0  0  0
   22.2754  -16.7410    3.9265 C   0  0  0  0  0  0  0  0  0  0  0  0
   22.5142  -15.2552    4.1636 C   0  0  0  0  0  0  0  0  0  0  0  0
   22.6986  -14.6124    3.0794 O   0  0  0  0  0  0  0  0  0  0  0  0
   22.5344  -14.8797    5.3537 O   0  5  0  0  0  0  0  0  0  0  0  0
   20.0607  -15.6946    3.7454 N   0  3  0  0  0  0  0  0  0  0  0  0
   20.3124  -15.0400    3.0059 H   0  0  0  0  0  0  0  0  0  0  0  0
   19.0465  -15.7784    3.8509 H   0  0  0  0  0  0  0  0  0  0  0  0
   20.3357  -15.2239    4.6590 H   0  0  0  0  0  0  0  0  0  0  0  0
  1  2  1  0  0  0  0
  1  6  1  0  0  0  0
  2  3  1  0  0  0  0
  3  4  1  0  0  0  0
  4  5  1  0  0  0  0
  5  6  1  0  0  0  0
  6  7  1  0  0  0  0
  6 11  1  0  0  0  0
  7  8  1  0  0  0  0
  8  9  2  0  0  0  0
  8 10  1  0  0  0  0
 11 12  1  0  0  0  0
 11 13  1  0  0  0  0
 11 14  1  0  0  0  0
M  CHG  2  10  -1  11   1
M  END
>  <CHROM.0>
-49.07741711,51.83236621,-61.01771201,-53.46903139,-56.72373719,-58.03973364
-61.65587377,-52.02902842,-167.44220749,160.75410029

>  <CHROM.1>
127.00138751,-62.45087284,-91.20873521,20.72449121,-16.82312300,3.85966198
-3.00792605,0.78771530,1.54102304

>  <Name>
P111922037

>  <RI>
0

>  <Rbt.Current_Directory>
/home/fstefaniak/projects/zuza/docking/adenine/1Y26

>  <Rbt.Executable>
rbdock ($Id: //depot/dev/client3/rdock/2013.1/src/exe/rbdock.cxx#4 $)

>  <Rbt.Library>
libRbt.so (2013.1, Build901 2013/11/27)

>  <Rbt.Parameter_File>
/home/fstefaniak/progs/rDock//data/scripts/dock_solv.prm

>  <Rbt.Receptor>
1y26.prm

>  <SCORE>
-46.8359

>  <SCORE.INTER>
-28.5999

>  <SCORE.INTER.CONST>
1

>  <SCORE.INTER.POLAR>
-4.64395

>  <SCORE.INTER.ROT>
2

>  <SCORE.INTER.SOLV>
21.4779

>  <SCORE.INTER.VDW>
-15.6794

>  <SCORE.INTER.norm>
-2.59999

>  <SCORE.INTRA>
3.42139

>  <SCORE.INTRA.DIHEDRAL>
4.32796

>  <SCORE.INTRA.DIHEDRAL.0>
1.73063

>  <SCORE.INTRA.POLAR>
0.397051

>  <SCORE.INTRA.POLAR.0>
-0.397051

>  <SCORE.INTRA.REPUL>
0

>  <SCORE.INTRA.REPUL.0>
0

>  <SCORE.INTRA.SOLV>
0.597607

>  <SCORE.INTRA.SOLV.lig_0>
-41.9535

>  <SCORE.INTRA.VDW>
-0.391367

>  <SCORE.INTRA.VDW.0>
1.67419

>  <SCORE.INTRA.norm>
0.311035

>  <SCORE.RESTR>
0

>  <SCORE.RESTR.CAVITY>
0

>  <SCORE.RESTR.norm>
0

>  <SCORE.SYSTEM>
-21.6573

>  <SCORE.SYSTEM.CONST>
0

>  <SCORE.SYSTEM.DIHEDRAL>
5.78371

>  <SCORE.SYSTEM.POLAR>
-3.48012

>  <SCORE.SYSTEM.SOLV>
0.720881

>  <SCORE.SYSTEM.VDW>
-5.00602

>  <SCORE.SYSTEM.norm>
-1.96885

>  <SCORE.heavy>
11

>  <SCORE.norm>
-4.25781

$$$$
P111922037
 OpenBabel12072022103D
libRbt.so/2013.1/901 2013/11/27
 14 14  0  0  0  0  0  0  0  0999 V2000
   20.4903  -17.7196    2.4921 C   0  0  0  0  0  0  0  0  0  0  0  0
   19.0539  -18.2191    2.4465 C   0  0  0  0  0  0  0  0  0  0  0  0
   18.7590  -19.0168    3.5873 O   0  0  0  0  0  0  0  0  0  0  0  0
   18.8891  -18.3126    4.8150 C   0  0  0  0  0  0  0  0  0  0  0  0
   20.3218  -17.8402    5.0088 C   0  0  0  0  0  0  0  0  0  0  0  0
   20.8255  -17.0098    3.8169 C   0  0  0  0  0  0  0  0  0  0  0  0
   22.3311  -16.7486    3.9662 C   0  0  0  0  0  0  0  0  0  0  0  0
   22.5943  -15.2563    4.1239 C   0  0  0  0  0  0  0  0  0  0  0  0
   22.5922  -14.8875    5.3432 O   0  0  0  0  0  0  0  0  0  0  0  0
   22.7361  -14.6037    3.0695 O   0  5  0  0  0  0  0  0  0  0  0  0
   20.1232  -15.6786    3.8544 N   0  3  0  0  0  0  0  0  0  0  0  0
   19.1054  -15.6792    3.8010 H   0  0  0  0  0  0  0  0  0  0  0  0
   20.4652  -15.0622    4.5960 H   0  0  0  0  0  0  0  0  0  0  0  0
   20.4618  -15.1752    2.9806 H   0  0  0  0  0  0  0  0  0  0  0  0
  1  2  1  0  0  0  0
  1  6  1  0  0  0  0
  2  3  1  0  0  0  0
  3  4  1  0  0  0  0
  4  5  1  0  0  0  0
  5  6  1  0  0  0  0
  6  7  1  0  0  0  0
  6 11  1  0  0  0  0
  7  8  1  0  0  0  0
  8  9  2  0  0  0  0
  8 10  1  0  0  0  0
 11 12  1  0  0  0  0
 11 13  1  0  0  0  0
 11 14  1  0  0  0  0
M  CHG  2  10  -1  11   1
M  END
>  <CHROM.0>
-50.21511972,53.08835066,-55.94632192,-51.26124050,-56.04373347,-60.69439949
-60.45958195,-177.29095017,-165.52710238,160.74849815

>  <CHROM.1>
121.02647537,60.30088492,90.55015230,20.77561307,-16.80860382,3.86674810
-3.04485217,0.78489881,1.59010671

>  <Name>
P111922037

>  <RI>
0

>  <Rbt.Current_Directory>
/home/fstefaniak/projects/zuza/docking/adenine/1Y26

>  <Rbt.Executable>
rbdock ($Id: //depot/dev/client3/rdock/2013.1/src/exe/rbdock.cxx#4 $)

>  <Rbt.Library>
libRbt.so (2013.1, Build901 2013/11/27)

>  <Rbt.Parameter_File>
/home/fstefaniak/progs/rDock//data/scripts/dock_solv.prm

>  <Rbt.Receptor>
1y26.prm

>  <SCORE>
-46.2336

>  <SCORE.INTER>
-28.147

>  <SCORE.INTER.CONST>
1

>  <SCORE.INTER.POLAR>
-4.55102

>  <SCORE.INTER.ROT>
2

>  <SCORE.INTER.SOLV>
21.0825

>  <SCORE.INTER.VDW>
-15.5554

>  <SCORE.INTER.norm>
-2.55882

>  <SCORE.INTRA>
3.9821

>  <SCORE.INTRA.DIHEDRAL>
4.44688

>  <SCORE.INTRA.DIHEDRAL.0>
1.73063

>  <SCORE.INTRA.POLAR>
0.397051

>  <SCORE.INTRA.POLAR.0>
-0.397051

>  <SCORE.INTRA.REPUL>
0

>  <SCORE.INTRA.REPUL.0>
0

>  <SCORE.INTRA.SOLV>
0.832616

>  <SCORE.INTRA.SOLV.lig_0>
-41.9535

>  <SCORE.INTRA.VDW>
-0.00761495

>  <SCORE.INTRA.VDW.0>
1.67419

>  <SCORE.INTRA.norm>
0.36201

>  <SCORE.RESTR>
0

>  <SCORE.RESTR.CAVITY>
0

>  <SCORE.RESTR.norm>
0

>  <SCORE.SYSTEM>
-22.0687

>  <SCORE.SYSTEM.CONST>
0

>  <SCORE.SYSTEM.DIHEDRAL>
5.76632

>  <SCORE.SYSTEM.POLAR>
-3.49837

>  <SCORE.SYSTEM.SOLV>
0.515262

>  <SCORE.SYSTEM.VDW>
-5.14512

>  <SCORE.SYSTEM.norm>
-2.00625

>  <SCORE.heavy>
11

>  <SCORE.norm>
-4.20306

$$$$
P111922037
 OpenBabel12072022103D
libRbt.so/2013.1/901 2013/11/27
 14 14  0  0  0  0  0  0  0  0999 V2000
   20.4818  -17.7268    2.5587 C   0  0  0  0  0  0  0  0  0  0  0  0
   19.0459  -18.2292    2.5293 C   0  0  0  0  0  0  0  0  0  0  0  0
   18.7620  -19.0174    3.6795 O   0  0  0  0  0  0  0  0  0  0  0  0
   18.9009  -18.3023    4.8998 C   0  0  0  0  0  0  0  0  0  0  0  0
   20.3342  -17.8256    5.0777 C   0  0  0  0  0  0  0  0  0  0  0  0
   20.8265  -17.0048    3.8745 C   0  0  0  0  0  0  0  0  0  0  0  0
   22.3328  -16.7395    4.0090 C   0  0  0  0  0  0  0  0  0  0  0  0
   22.5950  -15.2449    4.1442 C   0  0  0  0  0  0  0  0  0  0  0  0
   22.6074  -14.8604    5.3586 O   0  0  0  0  0  0  0  0  0  0  0  0
   22.7224  -14.6056    3.0798 O   0  5  0  0  0  0  0  0  0  0  0  0
   20.1220  -15.6745    3.9061 N   0  3  0  0  0  0  0  0  0  0  0  0
   19.1038  -15.6775    3.8603 H   0  0  0  0  0  0  0  0  0  0  0  0
   20.4683  -15.0514    4.6399 H   0  0  0  0  0  0  0  0  0  0  0  0
   20.4532  -15.1778    3.0256 H   0  0  0  0  0  0  0  0  0  0  0  0
  1  2  1  0  0  0  0
  1  6  1  0  0  0  0
  2  3  1  0  0  0  0
  3  4  1  0  0  0  0
  4  5  1  0  0  0  0
  5  6  1  0  0  0  0
  6  7  1  0  0  0  0
  6 11  1  0  0  0  0
  7  8  1  0  0  0  0
  8  9  2  0  0  0  0
  8 10  1  0  0  0  0
 11 12  1  0  0  0  0
 11 13  1  0  0  0  0
 11 14  1  0  0  0  0
M  CHG  2  10  -1  11   1
M  END
>  <CHROM.0>
-46.65638014,50.21999572,-49.67985583,-52.51729738,-174.78471369,-59.43055425
-58.43354505,-176.99934033,-166.13334477,159.83935945

>  <CHROM.1>
120.73358605,60.24890700,90.84998994,20.77685690,-16.80301837,3.92043695
-3.05847641,0.78660128,1.59015156

>  <Name>
P111922037

>  <RI>
0

>  <Rbt.Current_Directory>
/home/fstefaniak/projects/zuza/docking/adenine/1Y26

>  <Rbt.Executable>
rbdock ($Id: //depot/dev/client3/rdock/2013.1/src/exe/rbdock.cxx#4 $)

>  <Rbt.Library>
libRbt.so (2013.1, Build901 2013/11/27)

>  <Rbt.Parameter_File>
/home/fstefaniak/progs/rDock//data/scripts/dock_solv.prm

>  <Rbt.Receptor>
1y26.prm

>  <SCORE>
-46.0349

>  <SCORE.INTER>
-28.1376

>  <SCORE.INTER.CONST>
1

>  <SCORE.INTER.POLAR>
-4.4792

>  <SCORE.INTER.ROT>
2

>  <SCORE.INTER.SOLV>
21.0775

>  <SCORE.INTER.VDW>
-15.7869

>  <SCORE.INTER.norm>
-2.55796

>  <SCORE.INTRA>
3.96725

>  <SCORE.INTRA.DIHEDRAL>
4.44887

>  <SCORE.INTRA.DIHEDRAL.0>
1.73063

>  <SCORE.INTRA.POLAR>
0.397051

>  <SCORE.INTRA.POLAR.0>
-0.397051

>  <SCORE.INTRA.REPUL>
0

>  <SCORE.INTRA.REPUL.0>
0

>  <SCORE.INTRA.SOLV>
0.833808

>  <SCORE.INTRA.SOLV.lig_0>
-41.9535

>  <SCORE.INTRA.VDW>
-0.0240587

>  <SCORE.INTRA.VDW.0>
1.67419

>  <SCORE.INTRA.norm>
0.360659

>  <SCORE.RESTR>
0

>  <SCORE.RESTR.CAVITY>
0

>  <SCORE.RESTR.norm>
0

>  <SCORE.SYSTEM>
-21.8646

>  <SCORE.SYSTEM.CONST>
0

>  <SCORE.SYSTEM.DIHEDRAL>
6.81649

>  <SCORE.SYSTEM.POLAR>
-3.61023

>  <SCORE.SYSTEM.SOLV>
0.377445

>  <SCORE.SYSTEM.VDW>
-4.94026

>  <SCORE.SYSTEM.norm>
-1.98769

>  <SCORE.heavy>
11

>  <SCORE.norm>
-4.18499

$$$$
P112142068
 OpenBabel12072022103D
libRbt.so/2013.1/901 2013/11/27
 18 18  0  0  0  0  0  0  0  0999 V2000
   23.9180  -13.9407    4.9364 C   0  0  0  0  0  0  0  0  0  0  0  0
   22.8908  -14.9854    4.5900 C   0  0  0  0  0  0  0  0  0  0  0  0
   21.5582  -14.7674    4.9707 C   0  0  0  0  0  0  0  0  0  0  0  0
   20.5648  -15.7021    4.6781 C   0  0  0  0  0  0  0  0  0  0  0  0
   20.8724  -16.8828    3.9919 C   0  0  0  0  0  0  0  0  0  0  0  0
   22.2025  -17.0803    3.5911 C   0  0  0  0  0  0  0  0  0  0  0  0
   23.2317  -16.1747    3.9126 C   0  0  0  0  0  0  0  0  0  0  0  0
   24.6552  -16.4488    3.5023 C   0  0  0  0  0  0  0  0  0  0  0  0
   22.4796  -18.2166    2.8685 O   0  0  0  0  0  0  0  0  0  0  0  0
   19.7643  -17.8551    3.6655 C   0  0  1  0  0  0  0  0  0  0  0  0
   19.4102  -18.8117    4.8474 C   0  0  0  0  0  0  0  0  0  0  0  0
   18.5942  -19.7379    4.6428 O   0  0  0  0  0  0  0  0  0  0  0  0
   19.9764  -18.3977    5.9182 O   0  5  0  0  0  0  0  0  0  0  0  0
   18.4938  -17.1649    3.2041 N   0  3  0  0  0  0  0  0  0  0  0  0
   17.7670  -17.7308    3.6999 H   0  0  0  0  0  0  0  0  0  0  0  0
   18.4552  -16.2431    3.6576 H   0  0  0  0  0  0  0  0  0  0  0  0
   18.3508  -17.1379    2.2012 H   0  0  0  0  0  0  0  0  0  0  0  0
   22.3025  -18.9695    3.4676 H   0  0  0  0  0  0  0  0  0  0  0  0
  1  2  1  0  0  0  0
  2  3  2  0  0  0  0
  2  7  1  0  0  0  0
  3  4  1  0  0  0  0
  4  5  2  0  0  0  0
  5  6  1  0  0  0  0
  5 10  1  0  0  0  0
  6  7  2  0  0  0  0
  6  9  1  0  0  0  0
  7  8  1  0  0  0  0
  9 18  1  0  0  0  0
 10 11  1  1  0  0  0
 10 14  1  0  0  0  0
 11 12  2  0  0  0  0
 11 13  1  0  0  0  0
 14 15  1  0  0  0  0
 14 16  1  0  0  0  0
 14 17  1  0  0  0  0
M  CHG  2  13  -1  14   1
M  END
>  <CHROM.0>
-48.54108626,-178.67092692,-53.46695641,-51.86486265,-174.47641012,-175.90145950
-57.55779140,65.20624498,-166.21806437,162.17432589

>  <CHROM.1>
-82.97467275,-64.68487286,-173.38231355,-138.87254604,21.27758654,-16.93921403
4.22354511,0.58494903,0.27499614,0.34690932

>  <Name>
P112142068

>  <RI>
0

>  <Rbt.Current_Directory>
/home/fstefaniak/projects/zuza/docking/adenine/1Y26

>  <Rbt.Executable>
rbdock ($Id: //depot/dev/client3/rdock/2013.1/src/exe/rbdock.cxx#4 $)

>  <Rbt.Library>
libRbt.so (2013.1, Build901 2013/11/27)

>  <Rbt.Parameter_File>
/home/fstefaniak/progs/rDock//data/scripts/dock_solv.prm

>  <Rbt.Receptor>
1y26.prm

>  <SCORE>
-44.9738

>  <SCORE.INTER>
-26.5289

>  <SCORE.INTER.CONST>
1

>  <SCORE.INTER.POLAR>
-4.58636

>  <SCORE.INTER.ROT>
2

>  <SCORE.INTER.SOLV>
28.2684

>  <SCORE.INTER.VDW>
-16.7542

>  <SCORE.INTER.norm>
-1.89492

>  <SCORE.INTRA>
2.76231

>  <SCORE.INTRA.DIHEDRAL>
2.00656

>  <SCORE.INTRA.DIHEDRAL.0>
6.00157

>  <SCORE.INTRA.POLAR>
0.918696

>  <SCORE.INTRA.POLAR.0>
-0.918696

>  <SCORE.INTRA.REPUL>
0

>  <SCORE.INTRA.REPUL.0>
0

>  <SCORE.INTRA.SOLV>
-2.0672

>  <SCORE.INTRA.SOLV.lig_0>
-46.2569

>  <SCORE.INTRA.VDW>
-0.330943

>  <SCORE.INTRA.VDW.0>
0.378239

>  <SCORE.INTRA.norm>
0.197308

>  <SCORE.RESTR>
0

>  <SCORE.RESTR.CAVITY>
0

>  <SCORE.RESTR.norm>
0

>  <SCORE.SYSTEM>
-21.2071

>  <SCORE.SYSTEM.CONST>
0

>  <SCORE.SYSTEM.DIHEDRAL>
5.76553

>  <SCORE.SYSTEM.POLAR>
-3.45528

>  <SCORE.SYSTEM.SOLV>
0.0808844

>  <SCORE.SYSTEM.VDW>
-4.56931

>  <SCORE.SYSTEM.norm>
-1.5148

>  <SCORE.heavy>
14

>  <SCORE.norm>
-3.21241

$$$$
P112142068
 OpenBabel12072022103D
libRbt.so/2013.1/901 2013/11/27
 18 18  0  0  0  0  0  0  0  0999 V2000
   22.6628  -14.2315    5.3181 C   0  0  0  0  0  0  0  0  0  0  0  0
   21.9695  -15.3181    4.5401 C   0  0  0  0  0  0  0  0  0  0  0  0
   20.5861  -15.2145    4.3312 C   0  0  0  0  0  0  0  0  0  0  0  0
   19.8913  -16.1927    3.6195 C   0  0  0  0  0  0  0  0  0  0  0  0
   20.5592  -17.3036    3.0909 C   0  0  0  0  0  0  0  0  0  0  0  0
   21.9470  -17.3856    3.2812 C   0  0  0  0  0  0  0  0  0  0  0  0
   22.6646  -16.4358    4.0332 C   0  0  0  0  0  0  0  0  0  0  0  0
   24.1476  -16.5873    4.2518 C   0  0  0  0  0  0  0  0  0  0  0  0
   22.5985  -18.4520    2.7081 O   0  0  0  0  0  0  0  0  0  0  0  0
   19.7780  -18.3248    2.2992 C   0  0  1  0  0  0  0  0  0  0  0  0
   18.2328  -18.2059    2.4875 C   0  0  0  0  0  0  0  0  0  0  0  0
   17.7444  -18.4781    3.6069 O   0  0  0  0  0  0  0  0  0  0  0  0
   17.6843  -17.9280    1.3647 O   0  5  0  0  0  0  0  0  0  0  0  0
   20.0895  -18.2810    0.8145 N   0  3  0  0  0  0  0  0  0  0  0  0
   20.3517  -19.2777    0.6353 H   0  0  0  0  0  0  0  0  0  0  0  0
   19.2020  -18.1544    0.3113 H   0  0  0  0  0  0  0  0  0  0  0  0
   20.8163  -17.6303    0.5396 H   0  0  0  0  0  0  0  0  0  0  0  0
   22.5943  -19.1649    3.3781 H   0  0  0  0  0  0  0  0  0  0  0  0
  1  2  1  0  0  0  0
  2  3  2  0  0  0  0
  2  7  1  0  0  0  0
  3  4  1  0  0  0  0
  4  5  2  0  0  0  0
  5  6  1  0  0  0  0
  5 10  1  0  0  0  0
  6  7  2  0  0  0  0
  6  9  1  0  0  0  0
  7  8  1  0  0  0  0
  9 18  1  0  0  0  0
 10 11  1  6  0  0  0
 10 14  1  0  0  0  0
 11 12  2  0  0  0  0
 11 13  1  0  0  0  0
 14 15  1  0  0  0  0
 14 16  1  0  0  0  0
 14 17  1  0  0  0  0
M  CHG  2  13  -1  14   1
M  END
>  <CHROM.0>
-48.48408959,-176.51650450,-49.75815604,63.99019017,-53.55757143,-177.29706311
-55.97850023,-50.79216880,-167.14935804,161.25028251

>  <CHROM.1>
-15.46517767,-90.27399024,-67.39995446,125.87755526,20.73214991,-17.08910694
3.20611654,0.67542859,-0.05094619,0.70152558

>  <Name>
P112142068

>  <RI>
0

>  <Rbt.Current_Directory>
/home/fstefaniak/projects/zuza/docking/adenine/1Y26

>  <Rbt.Executable>
rbdock ($Id: //depot/dev/client3/rdock/2013.1/src/exe/rbdock.cxx#4 $)

>  <Rbt.Library>
libRbt.so (2013.1, Build901 2013/11/27)

>  <Rbt.Parameter_File>
/home/fstefaniak/progs/rDock//data/scripts/dock_solv.prm

>  <Rbt.Receptor>
1y26.prm

>  <SCORE>
-40.5993

>  <SCORE.INTER>
-24.6547

>  <SCORE.INTER.CONST>
1

>  <SCORE.INTER.POLAR>
-4.6187

>  <SCORE.INTER.ROT>
2

>  <SCORE.INTER.SOLV>
30.0344

>  <SCORE.INTER.VDW>
-15.9856

>  <SCORE.INTER.norm>
-1.76105

>  <SCORE.INTRA>
3.29608

>  <SCORE.INTRA.DIHEDRAL>
4.01935

>  <SCORE.INTRA.DIHEDRAL.0>
6.00157

>  <SCORE.INTRA.POLAR>
0.918696

>  <SCORE.INTRA.POLAR.0>
-0.918696

>  <SCORE.INTRA.REPUL>
0

>  <SCORE.INTRA.REPUL.0>
0

>  <SCORE.INTRA.SOLV>
-1.95884

>  <SCORE.INTRA.SOLV.lig_0>
-46.2569

>  <SCORE.INTRA.VDW>
-0.857748

>  <SCORE.INTRA.VDW.0>
0.378239

>  <SCORE.INTRA.norm>
0.235434

>  <SCORE.RESTR>
0

>  <SCORE.RESTR.CAVITY>
0

>  <SCORE.RESTR.norm>
0

>  <SCORE.SYSTEM>
-19.2406

>  <SCORE.SYSTEM.CONST>
0

>  <SCORE.SYSTEM.DIHEDRAL>
6.21609

>  <SCORE.SYSTEM.POLAR>
-2.98515

>  <SCORE.SYSTEM.SOLV>
0.415441

>  <SCORE.SYSTEM.VDW>
-5.08709

>  <SCORE.SYSTEM.norm>
-1.37433

>  <SCORE.heavy>
14

>  <SCORE.norm>
-2.89995

$$$$
P112142068
 OpenBabel12072022103D
libRbt.so/2013.1/901 2013/11/27
 18 18  0  0  0  0  0  0  0  0999 V2000
   22.7696  -13.6591    5.5275 C   0  0  0  0  0  0  0  0  0  0  0  0
   22.2443  -14.8629    4.7916 C   0  0  0  0  0  0  0  0  0  0  0  0
   20.8607  -14.9727    4.5875 C   0  0  0  0  0  0  0  0  0  0  0  0
   20.3179  -16.0673    3.9142 C   0  0  0  0  0  0  0  0  0  0  0  0
   21.1426  -17.0849    3.4202 C   0  0  0  0  0  0  0  0  0  0  0  0
   22.5274  -16.9537    3.6048 C   0  0  0  0  0  0  0  0  0  0  0  0
   23.0970  -15.8825    4.3193 C   0  0  0  0  0  0  0  0  0  0  0  0
   24.5862  -15.8049    4.5341 C   0  0  0  0  0  0  0  0  0  0  0  0
   23.3292  -17.9313    3.0649 O   0  0  0  0  0  0  0  0  0  0  0  0
   20.5207  -18.2375    2.6688 C   0  0  1  0  0  0  0  0  0  0  0  0
   18.9623  -18.1684    2.6062 C   0  0  0  0  0  0  0  0  0  0  0  0
   18.4273  -17.1246    2.1704 O   0  0  0  0  0  0  0  0  0  0  0  0
   18.4649  -19.2213    3.1380 O   0  5  0  0  0  0  0  0  0  0  0  0
   21.0563  -18.3750    1.2554 N   0  3  0  0  0  0  0  0  0  0  0  0
   22.0477  -18.6511    1.4429 H   0  0  0  0  0  0  0  0  0  0  0  0
   20.6306  -19.2130    0.8388 H   0  0  0  0  0  0  0  0  0  0  0  0
   20.9844  -17.5451    0.6783 H   0  0  0  0  0  0  0  0  0  0  0  0
   23.8155  -18.3289    3.8150 H   0  0  0  0  0  0  0  0  0  0  0  0
  1  2  1  0  0  0  0
  2  3  2  0  0  0  0
  2  7  1  0  0  0  0
  3  4  1  0  0  0  0
  4  5  2  0  0  0  0
  5  6  1  0  0  0  0
  5 10  1  0  0  0  0
  6  7  2  0  0  0  0
  6  9  1  0  0  0  0
  7  8  1  0  0  0  0
  9 18  1  0  0  0  0
 10 11  1  6  0  0  0
 10 14  1  0  0  0  0
 11 12  2  0  0  0  0
 11 13  1  0  0  0  0
 14 15  1  0  0  0  0
 14 16  1  0  0  0  0
 14 17  1  0  0  0  0
M  CHG  2  13  -1  14   1
M  END
>  <CHROM.0>
-49.92602667,-60.25323643,-57.25580733,63.54542650,-175.19240722,-58.94532433
-60.35362009,-54.59388219,-166.62745106,-61.40843037

>  <CHROM.1>
-3.05792197,-119.94046896,53.70611628,67.09353420,21.30297020,-16.80668511
3.48427255,0.78913939,-0.05111632,0.58380854

>  <Name>
P112142068

>  <RI>
0

>  <Rbt.Current_Directory>
/home/fstefaniak/projects/zuza/docking/adenine/1Y26

>  <Rbt.Executable>
rbdock ($Id: //depot/dev/client3/rdock/2013.1/src/exe/rbdock.cxx#4 $)

>  <Rbt.Library>
libRbt.so (2013.1, Build901 2013/11/27)

>  <Rbt.Parameter_File>
/home/fstefaniak/progs/rDock//data/scripts/dock_solv.prm

>  <Rbt.Receptor>
1y26.prm

>  <SCORE>
-39.2957

>  <SCORE.INTER>
-21.4549

>  <SCORE.INTER.CONST>
1

>  <SCORE.INTER.POLAR>
-4.8988

>  <SCORE.INTER.ROT>
2

>  <SCORE.INTER.SOLV>
29.1719

>  <SCORE.INTER.VDW>
-12.6312

>  <SCORE.INTER.norm>
-1.53249

>  <SCORE.INTRA>
-1.25892

>  <SCORE.INTRA.DIHEDRAL>
-0.555244

>  <SCORE.INTRA.DIHEDRAL.0>
6.00157

>  <SCORE.INTRA.POLAR>
0.360123

>  <SCORE.INTRA.POLAR.0>
-0.918696

>  <SCORE.INTRA.REPUL>
0

>  <SCORE.INTRA.REPUL.0>
0

>  <SCORE.INTRA.SOLV>
-2.16033

>  <SCORE.INTRA.SOLV.lig_0>
-46.2569

>  <SCORE.INTRA.VDW>
-1.12555

>  <SCORE.INTRA.VDW.0>
0.378239

>  <SCORE.INTRA.norm>
-0.0899231

>  <SCORE.RESTR>
0

>  <SCORE.RESTR.CAVITY>
0

>  <SCORE.RESTR.norm>
0

>  <SCORE.SYSTEM>
-16.5818

>  <SCORE.SYSTEM.CONST>
0

>  <SCORE.SYSTEM.DIHEDRAL>
3.73708

>  <SCORE.SYSTEM.POLAR>
-2.04912

>  <SCORE.SYSTEM.SOLV>
0.493654

>  <SCORE.SYSTEM.VDW>
-5.63442

>  <SCORE.SYSTEM.norm>
-1.18442

>  <SCORE.heavy>
14

>  <SCORE.norm>
-2.80683

$$$$
P112221919
 OpenBabel12072022103D
libRbt.so/2013.1/901 2013/11/27
 15 14  0  0  0  0  0  0  0  0999 V2000
   19.4231  -18.9546    6.5735 C   0  0  0  0  0  0  0  0  0  0  0  0
   18.9354  -18.7494    5.1434 C   0  0  1  0  0  0  0  0  0  0  0  0
   19.9647  -18.1082    4.1904 C   0  0  1  0  0  0  0  0  0  0  0  0
   19.5068  -18.0813    2.7475 C   0  0  0  0  0  0  0  0  0  0  0  0
   18.4889  -18.8024    2.3896 N   0  0  0  0  0  0  0  0  0  0  0  0
   18.2381  -18.6402    1.0199 O   0  0  0  0  0  0  0  0  0  0  0  0
   20.1968  -17.3099    1.8925 O   0  0  0  0  0  0  0  0  0  0  0  0
   20.2398  -16.7107    4.7020 N   0  3  0  0  0  0  0  0  0  0  0  0
   21.0173  -16.2959    4.1684 H   0  0  0  0  0  0  0  0  0  0  0  0
   19.3882  -16.1446    4.5530 H   0  0  0  0  0  0  0  0  0  0  0  0
   20.5009  -16.6992    5.6929 H   0  0  0  0  0  0  0  0  0  0  0  0
   18.6369  -20.0469    4.5927 O   0  0  0  0  0  0  0  0  0  0  0  0
   17.3110  -18.9256    0.9091 H   0  0  0  0  0  0  0  0  0  0  0  0
   20.9175  -16.7754    2.2616 H   0  0  0  0  0  0  0  0  0  0  0  0
   17.9653  -20.4671    5.1709 H   0  0  0  0  0  0  0  0  0  0  0  0
  2  1  1  1  0  0  0
  2  3  1  0  0  0  0
  2 12  1  0  0  0  0
  3  4  1  6  0  0  0
  3  8  1  0  0  0  0
  4  5  2  0  0  0  0
  4  7  1  0  0  0  0
  5  6  1  0  0  0  0
  6 13  1  0  0  0  0
  7 14  1  0  0  0  0
  8  9  1  0  0  0  0
  8 10  1  0  0  0  0
  8 11  1  0  0  0  0
 12 15  1  0  0  0  0
M  CHG  1   8   1
M  END
>  <CHROM.0>
-48.12597393,-62.11434336,-54.51575448,-56.03566669,-59.54937729,-59.61176445
-46.82549541,-175.66686989,-166.40759215,161.84853892

>  <CHROM.1>
172.76191198,57.84130820,-13.94145710,172.29882108,-3.41623483,-159.75263643
19.28596815,-18.36192033,3.66788933,1.40806451,0.92009322,1.82802535

>  <Name>
P112221919

>  <RI>
0

>  <Rbt.Current_Directory>
/home/fstefaniak/projects/zuza/docking/adenine/1Y26

>  <Rbt.Executable>
rbdock ($Id: //depot/dev/client3/rdock/2013.1/src/exe/rbdock.cxx#4 $)

>  <Rbt.Library>
libRbt.so (2013.1, Build901 2013/11/27)

>  <Rbt.Parameter_File>
/home/fstefaniak/progs/rDock//data/scripts/dock_solv.prm

>  <Rbt.Receptor>
1y26.prm

>  <SCORE>
-61.4797

>  <SCORE.INTER>
-39.9517

>  <SCORE.INTER.CONST>
1

>  <SCORE.INTER.POLAR>
-6.09294

>  <SCORE.INTER.ROT>
2

>  <SCORE.INTER.SOLV>
19.0645

>  <SCORE.INTER.VDW>
-17.6128

>  <SCORE.INTER.norm>
-4.43907

>  <SCORE.INTRA>
0.800807

>  <SCORE.INTRA.DIHEDRAL>
-1.4525

>  <SCORE.INTRA.DIHEDRAL.0>
4.77047

>  <SCORE.INTRA.POLAR>
0.329506

>  <SCORE.INTRA.POLAR.0>
-0.329506

>  <SCORE.INTRA.REPUL>
0

>  <SCORE.INTRA.REPUL.0>
0

>  <SCORE.INTRA.SOLV>
-0.554156

>  <SCORE.INTRA.SOLV.lig_0>
-33.5461

>  <SCORE.INTRA.VDW>
0.683816

>  <SCORE.INTRA.VDW.0>
0.214744

>  <SCORE.INTRA.norm>
0.0889786

>  <SCORE.RESTR>
0

>  <SCORE.RESTR.CAVITY>
0

>  <SCORE.RESTR.norm>
0

>  <SCORE.SYSTEM>
-22.3288

>  <SCORE.SYSTEM.CONST>
0

>  <SCORE.SYSTEM.DIHEDRAL>
6.09093

>  <SCORE.SYSTEM.POLAR>
-3.44818

>  <SCORE.SYSTEM.SOLV>
0.470138

>  <SCORE.SYSTEM.VDW>
-5.57895

>  <SCORE.SYSTEM.norm>
-2.48098

>  <SCORE.heavy>
9

>  <SCORE.norm>
-6.83107

$$$$
P112221919
 OpenBabel12072022103D
libRbt.so/2013.1/901 2013/11/27
 15 14  0  0  0  0  0  0  0  0999 V2000
   22.7298  -13.5979    4.2522 C   0  0  0  0  0  0  0  0  0  0  0  0
   24.0165  -14.4154    4.2886 C   0  0  1  0  0  0  0  0  0  0  0  0
   23.8829  -15.8113    4.9307 C   0  0  1  0  0  0  0  0  0  0  0  0
   23.1215  -16.7951    4.0679 C   0  0  0  0  0  0  0  0  0  0  0  0
   23.7323  -17.3874    3.0880 N   0  0  0  0  0  0  0  0  0  0  0  0
   22.8507  -18.2453    2.4154 O   0  0  0  0  0  0  0  0  0  0  0  0
   21.8263  -16.9993    4.3561 O   0  0  0  0  0  0  0  0  0  0  0  0
   25.2830  -16.3079    5.2195 N   0  3  0  0  0  0  0  0  0  0  0  0
   25.9430  -15.8839    4.5516 H   0  0  0  0  0  0  0  0  0  0  0  0
   25.5341  -16.0110    6.1769 H   0  0  0  0  0  0  0  0  0  0  0  0
   25.3644  -17.3259    5.1342 H   0  0  0  0  0  0  0  0  0  0  0  0
   24.4298  -14.6411    2.9269 O   0  0  0  0  0  0  0  0  0  0  0  0
   22.7200  -18.9896    3.0337 H   0  0  0  0  0  0  0  0  0  0  0  0
   21.4995  -16.6466    5.1988 H   0  0  0  0  0  0  0  0  0  0  0  0
   25.3215  -15.0489    2.9513 H   0  0  0  0  0  0  0  0  0  0  0  0
  2  1  1  6  0  0  0
  2  3  1  0  0  0  0
  2 12  1  0  0  0  0
  3  4  1  6  0  0  0
  3  8  1  0  0  0  0
  4  5  2  0  0  0  0
  4  7  1  0  0  0  0
  5  6  1  0  0  0  0
  6 13  1  0  0  0  0
  7 14  1  0  0  0  0
  8  9  1  0  0  0  0
  8 10  1  0  0  0  0
  8 11  1  0  0  0  0
 12 15  1  0  0  0  0
M  CHG  1   8   1
M  END
>  <CHROM.0>
-48.57126126,-58.82943504,-56.36180038,-53.20058674,59.20299340,-56.36920904
-57.58910487,-51.14421972,-166.81704110,161.60667444

>  <CHROM.1>
72.09565016,171.76078317,80.26818877,-27.73827301,-11.89388719,-72.16511034
23.55139089,-16.06070193,3.93365751,1.25887432,-0.30096047,0.20251064

>  <Name>
P112221919

>  <RI>
0

>  <Rbt.Current_Directory>
/home/fstefaniak/projects/zuza/docking/adenine/1Y26

>  <Rbt.Executable>
rbdock ($Id: //depot/dev/client3/rdock/2013.1/src/exe/rbdock.cxx#4 $)

>  <Rbt.Library>
libRbt.so (2013.1, Build901 2013/11/27)

>  <Rbt.Parameter_File>
/home/fstefaniak/progs/rDock//data/scripts/dock_solv.prm

>  <Rbt.Receptor>
1y26.prm

>  <SCORE>
-61.4275

>  <SCORE.INTER>
-41.2764

>  <SCORE.INTER.CONST>
1

>  <SCORE.INTER.POLAR>
-7.14182

>  <SCORE.INTER.ROT>
2

>  <SCORE.INTER.SOLV>
19.5487

>  <SCORE.INTER.VDW>
-15.1611

>  <SCORE.INTER.norm>
-4.58626

>  <SCORE.INTRA>
0.44427

>  <SCORE.INTRA.DIHEDRAL>
0.158371

>  <SCORE.INTRA.DIHEDRAL.0>
4.77047

>  <SCORE.INTRA.POLAR>
0.329506

>  <SCORE.INTRA.POLAR.0>
-0.329506

>  <SCORE.INTRA.REPUL>
0

>  <SCORE.INTRA.REPUL.0>
0

>  <SCORE.INTRA.SOLV>
-0.394302

>  <SCORE.INTRA.SOLV.lig_0>
-33.5461

>  <SCORE.INTRA.VDW>
-0.558086

>  <SCORE.INTRA.VDW.0>
0.214744

>  <SCORE.INTRA.norm>
0.0493633

>  <SCORE.RESTR>
0

>  <SCORE.RESTR.CAVITY>
0

>  <SCORE.RESTR.norm>
0

>  <SCORE.SYSTEM>
-20.5954

>  <SCORE.SYSTEM.CONST>
0

>  <SCORE.SYSTEM.DIHEDRAL>
5.62642

>  <SCORE.SYSTEM.POLAR>
-3.46424

>  <SCORE.SYSTEM.SOLV>
0.472897

>  <SCORE.SYSTEM.VDW>
-4.21593

>  <SCORE.SYSTEM.norm>
-2.28838

>  <SCORE.heavy>
9

>  <SCORE.norm>
-6.82528

$$$$
P112221919
 OpenBabel12072022103D
libRbt.so/2013.1/901 2013/11/27
 15 14  0  0  0  0  0  0  0  0999 V2000
   19.3522  -18.7472    6.4372 C   0  0  0  0  0  0  0  0  0  0  0  0
   19.0390  -18.3808    4.9905 C   0  0  1  0  0  0  0  0  0  0  0  0
   20.2217  -17.7863    4.1989 C   0  0  1  0  0  0  0  0  0  0  0  0
   20.0365  -17.8666    2.6984 C   0  0  0  0  0  0  0  0  0  0  0  0
   21.0585  -18.1345    1.9447 N   0  0  0  0  0  0  0  0  0  0  0  0
   20.6743  -18.1535    0.5966 O   0  0  0  0  0  0  0  0  0  0  0  0
   18.8057  -17.6396    2.2128 O   0  0  0  0  0  0  0  0  0  0  0  0
   20.3892  -16.3522    4.6524 N   0  3  0  0  0  0  0  0  0  0  0  0
   20.5740  -16.3312    5.6657 H   0  0  0  0  0  0  0  0  0  0  0  0
   21.2014  -15.9540    4.1528 H   0  0  0  0  0  0  0  0  0  0  0  0
   19.5547  -15.7842    4.4761 H   0  0  0  0  0  0  0  0  0  0  0  0
   18.6681  -19.5916    4.3033 O   0  0  0  0  0  0  0  0  0  0  0  0
   20.4416  -19.0861    0.4253 H   0  0  0  0  0  0  0  0  0  0  0  0
   18.0822  -17.5703    2.8555 H   0  0  0  0  0  0  0  0  0  0  0  0
   19.4128  -20.2236    4.3930 H   0  0  0  0  0  0  0  0  0  0  0  0
  2  1  1  1  0  0  0
  2  3  1  0  0  0  0
  2 12  1  0  0  0  0
  3  4  1  6  0  0  0
  3  8  1  0  0  0  0
  4  5  2  0  0  0  0
  4  7  1  0  0  0  0
  5  6  1  0  0  0  0
  6 13  1  0  0  0  0
  7 14  1  0  0  0  0
  8  9  1  0  0  0  0
  8 10  1  0  0  0  0
  8 11  1  0  0  0  0
 12 15  1  0  0  0  0
M  CHG  1   8   1
M  END
>  <CHROM.0>
-50.13731034,53.72306795,-52.29142732,-52.51343021,-53.30198222,-58.09393669
-62.96503139,-173.42924764,-166.65050783,162.19888394

>  <CHROM.1>
160.68536659,-57.40287164,-141.74991151,59.39342047,-9.00261028,-91.64015574
19.78528188,-18.07171219,3.53088077,2.02338803,0.96106437,1.29542503

>  <Name>
P112221919

>  <RI>
0

>  <Rbt.Current_Directory>
/home/fstefaniak/projects/zuza/docking/adenine/1Y26

>  <Rbt.Executable>
rbdock ($Id: //depot/dev/client3/rdock/2013.1/src/exe/rbdock.cxx#4 $)

>  <Rbt.Library>
libRbt.so (2013.1, Build901 2013/11/27)

>  <Rbt.Parameter_File>
/home/fstefaniak/progs/rDock//data/scripts/dock_solv.prm

>  <Rbt.Receptor>
1y26.prm

>  <SCORE>
-60.1595

>  <SCORE.INTER>
-37.9059

>  <SCORE.INTER.CONST>
1

>  <SCORE.INTER.POLAR>
-5.87149

>  <SCORE.INTER.ROT>
2

>  <SCORE.INTER.SOLV>
18.9942

>  <SCORE.INTER.VDW>
-16.9637

>  <SCORE.INTER.norm>
-4.21177

>  <SCORE.INTRA>
-0.341156

>  <SCORE.INTRA.DIHEDRAL>
-1.95621

>  <SCORE.INTRA.DIHEDRAL.0>
4.77047

>  <SCORE.INTRA.POLAR>
0.329506

>  <SCORE.INTRA.POLAR.0>
-0.329506

>  <SCORE.INTRA.REPUL>
0

>  <SCORE.INTRA.REPUL.0>
0

>  <SCORE.INTRA.SOLV>
-0.880729

>  <SCORE.INTRA.SOLV.lig_0>
-33.5461

>  <SCORE.INTRA.VDW>
-0.0430083

>  <SCORE.INTRA.VDW.0>
0.214744

>  <SCORE.INTRA.norm>
-0.0379062

>  <SCORE.RESTR>
0

>  <SCORE.RESTR.CAVITY>
0

>  <SCORE.RESTR.norm>
0

>  <SCORE.SYSTEM>
-21.9124

>  <SCORE.SYSTEM.CONST>
0

>  <SCORE.SYSTEM.DIHEDRAL>
5.85527

>  <SCORE.SYSTEM.POLAR>
-3.4584

>  <SCORE.SYSTEM.SOLV>
0.517278

>  <SCORE.SYSTEM.VDW>
-5.20448

>  <SCORE.SYSTEM.norm>
-2.43471

>  <SCORE.heavy>
9

>  <SCORE.norm>
-6.68439

$$$$
P112429950
 OpenBabel12072022103D
libRbt.so/2013.1/901 2013/11/27
 15 15  0  0  0  0  0  0  0  0999 V2000
   19.7251  -18.1780    6.4469 C   0  0  0  0  0  0  0  0  0  0  0  0
   18.5583  -18.8787    6.7689 C   0  0  0  0  0  0  0  0  0  0  0  0
   17.5879  -19.0694    5.7940 C   0  0  0  0  0  0  0  0  0  0  0  0
   17.7693  -18.5723    4.5107 C   0  0  0  0  0  0  0  0  0  0  0  0
   18.9367  -17.8709    4.1907 C   0  0  0  0  0  0  0  0  0  0  0  0
   19.9248  -17.6664    5.1557 C   0  0  0  0  0  0  0  0  0  0  0  0
   21.1316  -16.9716    4.9213 N   0  0  0  0  0  0  0  0  0  0  0  0
   21.5128  -16.3117    3.7616 C   0  0  0  0  0  0  0  0  0  0  0  0
   20.8626  -16.2360    2.7225 O   0  0  0  0  0  0  0  0  0  0  0  0
   22.8959  -15.7018    3.8338 C   0  0  0  0  0  0  0  0  0  0  0  0
   23.9133  -16.7316    4.0335 C   0  0  0  0  0  0  0  0  0  0  0  0
   24.7296  -17.5497    4.1388 N   0  0  0  0  0  0  0  0  0  0  0  0
   16.4344  -19.7441    6.0588 O   0  0  0  0  0  0  0  0  0  0  0  0
   21.7593  -16.9228    5.7160 H   0  0  0  0  0  0  0  0  0  0  0  0
   16.5353  -20.2196    6.8993 H   0  0  0  0  0  0  0  0  0  0  0  0
  1  2  2  0  0  0  0
  1  6  1  0  0  0  0
  2  3  1  0  0  0  0
  3  4  2  0  0  0  0
  3 13  1  0  0  0  0
  4  5  1  0  0  0  0
  5  6  2  0  0  0  0
  6  7  1  0  0  0  0
  7  8  1  0  0  0  0
  7 14  1  0  0  0  0
  8  9  2  0  0  0  0
  8 10  1  0  0  0  0
 10 11  1  0  0  0  0
 11 12  3  0  0  0  0
 13 15  1  0  0  0  0
M  END
>  <CHROM.0>
-45.02479710,-61.61490853,-57.62820626,-56.18252187,-64.92842839,-61.92719959
-62.23125680,-174.93374501,-166.64773498,160.72833138

>  <CHROM.1>
-14.18476579,-175.69498065,61.88523247,20.27141834,-17.66361524,4.79279255
-2.65197032,-0.16713406,-0.97235381

>  <Name>
P112429950

>  <RI>
0

>  <Rbt.Current_Directory>
/home/fstefaniak/projects/zuza/docking/adenine/1Y26

>  <Rbt.Executable>
rbdock ($Id: //depot/dev/client3/rdock/2013.1/src/exe/rbdock.cxx#4 $)

>  <Rbt.Library>
libRbt.so (2013.1, Build901 2013/11/27)

>  <Rbt.Parameter_File>
/home/fstefaniak/progs/rDock//data/scripts/dock_solv.prm

>  <Rbt.Receptor>
1y26.prm

>  <SCORE>
-53.4682

>  <SCORE.INTER>
-31.0341

>  <SCORE.INTER.CONST>
1

>  <SCORE.INTER.POLAR>
-3.78954

>  <SCORE.INTER.ROT>
2

>  <SCORE.INTER.SOLV>
14.5607

>  <SCORE.INTER.VDW>
-17.8445

>  <SCORE.INTER.norm>
-2.38724

>  <SCORE.INTRA>
0.102893

>  <SCORE.INTRA.DIHEDRAL>
0.29267

>  <SCORE.INTRA.DIHEDRAL.0>
1.36142

>  <SCORE.INTRA.POLAR>
0

>  <SCORE.INTRA.POLAR.0>
0

>  <SCORE.INTRA.REPUL>
0

>  <SCORE.INTRA.REPUL.0>
0

>  <SCORE.INTRA.SOLV>
-0.00371277

>  <SCORE.INTRA.SOLV.lig_0>
-18.2446

>  <SCORE.INTRA.VDW>
-0.041586

>  <SCORE.INTRA.VDW.0>
-0.175871

>  <SCORE.INTRA.norm>
0.00791481

>  <SCORE.RESTR>
0

>  <SCORE.RESTR.CAVITY>
0

>  <SCORE.RESTR.norm>
0

>  <SCORE.SYSTEM>
-22.537

>  <SCORE.SYSTEM.CONST>
0

>  <SCORE.SYSTEM.DIHEDRAL>
5.84243

>  <SCORE.SYSTEM.POLAR>
-3.43626

>  <SCORE.SYSTEM.SOLV>
0.424645

>  <SCORE.SYSTEM.VDW>
-5.65948

>  <SCORE.SYSTEM.norm>
-1.73362

>  <SCORE.heavy>
13

>  <SCORE.norm>
-4.11294

$$$$
P112429950
 OpenBabel12072022103D
libRbt.so/2013.1/901 2013/11/27
 15 15  0  0  0  0  0  0  0  0999 V2000
   19.7183  -18.1658    6.4514 C   0  0  0  0  0  0  0  0  0  0  0  0
   18.5567  -18.8758    6.7717 C   0  0  0  0  0  0  0  0  0  0  0  0
   17.5836  -19.0635    5.7989 C   0  0  0  0  0  0  0  0  0  0  0  0
   17.7573  -18.5542    4.5193 C   0  0  0  0  0  0  0  0  0  0  0  0
   18.9195  -17.8435    4.2011 C   0  0  0  0  0  0  0  0  0  0  0  0
   19.9102  -17.6418    5.1640 C   0  0  0  0  0  0  0  0  0  0  0  0
   21.1122  -16.9383    4.9311 N   0  0  0  0  0  0  0  0  0  0  0  0
   21.4723  -16.2403    3.7871 C   0  0  0  0  0  0  0  0  0  0  0  0
   20.8037  -16.1315    2.7628 O   0  0  0  0  0  0  0  0  0  0  0  0
   22.8560  -15.6314    3.8547 C   0  0  0  0  0  0  0  0  0  0  0  0
   23.8526  -16.6341    4.2248 C   0  0  0  0  0  0  0  0  0  0  0  0
   24.6549  -17.4370    4.4662 N   0  0  0  0  0  0  0  0  0  0  0  0
   16.4349  -19.7469    6.0622 O   0  0  0  0  0  0  0  0  0  0  0  0
   21.7538  -16.9147    5.7158 H   0  0  0  0  0  0  0  0  0  0  0  0
   16.5317  -20.2072    6.9116 H   0  0  0  0  0  0  0  0  0  0  0  0
  1  2  2  0  0  0  0
  1  6  1  0  0  0  0
  2  3  1  0  0  0  0
  3  4  2  0  0  0  0
  3 13  1  0  0  0  0
  4  5  1  0  0  0  0
  5  6  2  0  0  0  0
  6  7  1  0  0  0  0
  7  8  1  0  0  0  0
  7 14  1  0  0  0  0
  8  9  2  0  0  0  0
  8 10  1  0  0  0  0
 10 11  1  0  0  0  0
 11 12  3  0  0  0  0
 13 15  1  0  0  0  0
M  END
>  <CHROM.0>
-46.78365323,-63.42212585,-57.78416011,-52.18768534,-60.53992369,-60.90926475
-60.90984520,-50.75922686,-168.95908529,159.84837724

>  <CHROM.1>
-12.46022530,-174.08313358,52.38518575,20.24444458,-17.61896567,4.84294078
-2.65635044,-0.19022989,-0.95967462

>  <Name>
P112429950

>  <RI>
0

>  <Rbt.Current_Directory>
/home/fstefaniak/projects/zuza/docking/adenine/1Y26

>  <Rbt.Executable>
rbdock ($Id: //depot/dev/client3/rdock/2013.1/src/exe/rbdock.cxx#4 $)

>  <Rbt.Library>
libRbt.so (2013.1, Build901 2013/11/27)

>  <Rbt.Parameter_File>
/home/fstefaniak/progs/rDock//data/scripts/dock_solv.prm

>  <Rbt.Receptor>
1y26.prm

>  <SCORE>
-53.0891

>  <SCORE.INTER>
-31.1414

>  <SCORE.INTER.CONST>
1

>  <SCORE.INTER.POLAR>
-3.7677

>  <SCORE.INTER.ROT>
2

>  <SCORE.INTER.SOLV>
14.5896

>  <SCORE.INTER.VDW>
-17.9984

>  <SCORE.INTER.norm>
-2.39549

>  <SCORE.INTRA>
0.247529

>  <SCORE.INTRA.DIHEDRAL>
0.301353

>  <SCORE.INTRA.DIHEDRAL.0>
1.36142

>  <SCORE.INTRA.POLAR>
0

>  <SCORE.INTRA.POLAR.0>
0

>  <SCORE.INTRA.REPUL>
0

>  <SCORE.INTRA.REPUL.0>
0

>  <SCORE.INTRA.SOLV>
0.0702658

>  <SCORE.INTRA.SOLV.lig_0>
-18.2446

>  <SCORE.INTRA.VDW>
0.0617193

>  <SCORE.INTRA.VDW.0>
-0.175871

>  <SCORE.INTRA.norm>
0.0190407

>  <SCORE.RESTR>
0

>  <SCORE.RESTR.CAVITY>
0

>  <SCORE.RESTR.norm>
0

>  <SCORE.SYSTEM>
-22.1953

>  <SCORE.SYSTEM.CONST>
0

>  <SCORE.SYSTEM.DIHEDRAL>
5.88332

>  <SCORE.SYSTEM.POLAR>
-3.50429

>  <SCORE.SYSTEM.SOLV>
0.653422

>  <SCORE.SYSTEM.VDW>
-5.29479

>  <SCORE.SYSTEM.norm>
-1.70733

>  <SCORE.heavy>
13

>  <SCORE.norm>
-4.08378

$$$$
P112429950
 OpenBabel12072022103D
libRbt.so/2013.1/901 2013/11/27
 15 15  0  0  0  0  0  0  0  0999 V2000
   19.7047  -18.1490    6.4459 C   0  0  0  0  0  0  0  0  0  0  0  0
   18.5457  -18.8629    6.7668 C   0  0  0  0  0  0  0  0  0  0  0  0
   17.5781  -19.0641    5.7911 C   0  0  0  0  0  0  0  0  0  0  0  0
   17.7548  -18.5644    4.5082 C   0  0  0  0  0  0  0  0  0  0  0  0
   18.9145  -17.8498    4.1893 C   0  0  0  0  0  0  0  0  0  0  0  0
   19.8996  -17.6346    5.1550 C   0  0  0  0  0  0  0  0  0  0  0  0
   21.0987  -16.9262    4.9218 N   0  0  0  0  0  0  0  0  0  0  0  0
   21.4738  -16.2627    3.7621 C   0  0  0  0  0  0  0  0  0  0  0  0
   20.8241  -16.1951    2.7222 O   0  0  0  0  0  0  0  0  0  0  0  0
   22.8497  -15.6370    3.8358 C   0  0  0  0  0  0  0  0  0  0  0  0
   23.8486  -16.6152    4.2609 C   0  0  0  0  0  0  0  0  0  0  0  0
   24.6538  -17.4006    4.5466 N   0  0  0  0  0  0  0  0  0  0  0  0
   16.4321  -19.7518    6.0548 O   0  0  0  0  0  0  0  0  0  0  0  0
   21.7247  -16.8698    5.7173 H   0  0  0  0  0  0  0  0  0  0  0  0
   16.5369  -20.2246    6.8964 H   0  0  0  0  0  0  0  0  0  0  0  0
  1  2  2  0  0  0  0
  1  6  1  0  0  0  0
  2  3  1  0  0  0  0
  3  4  2  0  0  0  0
  3 13  1  0  0  0  0
  4  5  1  0  0  0  0
  5  6  2  0  0  0  0
  6  7  1  0  0  0  0
  7  8  1  0  0  0  0
  7 14  1  0  0  0  0
  8  9  2  0  0  0  0
  8 10  1  0  0  0  0
 10 11  1  0  0  0  0
 11 12  3  0  0  0  0
 13 15  1  0  0  0  0
M  END
>  <CHROM.0>
-46.21582643,-58.64909626,-67.05459452,-52.22267463,-58.08749678,-61.38449536
-172.14243046,-49.63016221,-165.28323778,161.08291910

>  <CHROM.1>
-14.03301308,-175.76619307,52.25760580,20.24059730,-17.62043660,4.83981073
-2.66454972,-0.20591949,-0.98456362

>  <Name>
P112429950

>  <RI>
0

>  <Rbt.Current_Directory>
/home/fstefaniak/projects/zuza/docking/adenine/1Y26

>  <Rbt.Executable>
rbdock ($Id: //depot/dev/client3/rdock/2013.1/src/exe/rbdock.cxx#4 $)

>  <Rbt.Library>
libRbt.so (2013.1, Build901 2013/11/27)

>  <Rbt.Parameter_File>
/home/fstefaniak/progs/rDock//data/scripts/dock_solv.prm

>  <Rbt.Receptor>
1y26.prm

>  <SCORE>
-52.2038

>  <SCORE.INTER>
-31.2372

>  <SCORE.INTER.CONST>
1

>  <SCORE.INTER.POLAR>
-3.83049

>  <SCORE.INTER.ROT>
2

>  <SCORE.INTER.SOLV>
14.6118

>  <SCORE.INTER.VDW>
-17.8604

>  <SCORE.INTER.norm>
-2.40286

>  <SCORE.INTRA>
0.252998

>  <SCORE.INTRA.DIHEDRAL>
0.31394

>  <SCORE.INTRA.DIHEDRAL.0>
1.36142

>  <SCORE.INTRA.POLAR>
0

>  <SCORE.INTRA.POLAR.0>
0

>  <SCORE.INTRA.REPUL>
0

>  <SCORE.INTRA.REPUL.0>
0

>  <SCORE.INTRA.SOLV>
0.0716595

>  <SCORE.INTRA.SOLV.lig_0>
-18.2446

>  <SCORE.INTRA.VDW>
0.0601988

>  <SCORE.INTRA.VDW.0>
-0.175871

>  <SCORE.INTRA.norm>
0.0194614

>  <SCORE.RESTR>
0

>  <SCORE.RESTR.CAVITY>
0

>  <SCORE.RESTR.norm>
0

>  <SCORE.SYSTEM>
-21.2196

>  <SCORE.SYSTEM.CONST>
0

>  <SCORE.SYSTEM.DIHEDRAL>
6.74063

>  <SCORE.SYSTEM.POLAR>
-3.49025

>  <SCORE.SYSTEM.SOLV>
0.606159

>  <SCORE.SYSTEM.VDW>
-4.96117

>  <SCORE.SYSTEM.norm>
-1.63228

>  <SCORE.heavy>
13

>  <SCORE.norm>
-4.01568

$$$$
P114849488
 OpenBabel12072022103D
libRbt.so/2013.1/901 2013/11/27
 13 12  0  0  0  0  0  0  0  0999 V2000
   21.0413  -15.5060    4.4794 C   0  0  0  0  0  0  0  0  0  0  0  0
   21.2474  -17.2352    3.9814 S   0  0  0  0  0  0  0  0  0  0  0  0
   19.9373  -17.9665    4.9527 C   0  0  0  0  0  0  0  0  0  0  0  0
   18.7769  -18.2777    4.3168 C   0  0  0  0  0  0  0  0  0  0  0  0
   17.6855  -18.8635    5.0143 C   0  0  0  0  0  0  0  0  0  0  0  0
   16.8195  -19.3444    5.6184 N   0  0  0  0  0  0  0  0  0  0  0  0
   18.5514  -18.0127    2.8372 C   0  0  0  0  0  0  0  0  0  0  0  0
   18.3644  -17.7929    1.6097 N   0  0  0  0  0  0  0  0  0  0  0  0
   20.1330  -18.1931    6.3241 N   0  0  0  0  0  0  0  0  0  0  0  0
   19.1491  -18.8153    7.1083 N   0  0  0  0  0  0  0  0  0  0  0  0
   20.7460  -17.5359    6.8193 H   0  0  0  0  0  0  0  0  0  0  0  0
   18.4068  -18.1486    7.3428 H   0  0  0  0  0  0  0  0  0  0  0  0
   19.5346  -19.1012    8.0140 H   0  0  0  0  0  0  0  0  0  0  0  0
  1  2  1  0  0  0  0
  2  3  1  0  0  0  0
  3  4  2  0  0  0  0
  3  9  1  0  0  0  0
  4  5  1  0  0  0  0
  4  7  1  0  0  0  0
  5  6  3  0  0  0  0
  7  8  3  0  0  0  0
  9 10  1  0  0  0  0
  9 11  1  0  0  0  0
 10 12  1  0  0  0  0
 10 13  1  0  0  0  0
M  END
>  <CHROM.0>
-33.14564430,-54.12188783,-55.02721808,-52.72756584,-55.60927826,-60.86920440
-57.33528681,-176.06087301,-166.62649161,160.85888080

>  <CHROM.1>
101.65757465,-177.34948328,-78.27214418,19.45630461,-17.88512101,4.62010218
-0.63707172,0.51987185,1.82355587

>  <Name>
P114849488

>  <RI>
0

>  <Rbt.Current_Directory>
/home/fstefaniak/projects/zuza/docking/adenine/1Y26

>  <Rbt.Executable>
rbdock ($Id: //depot/dev/client3/rdock/2013.1/src/exe/rbdock.cxx#4 $)

>  <Rbt.Library>
libRbt.so (2013.1, Build901 2013/11/27)

>  <Rbt.Parameter_File>
/home/fstefaniak/progs/rDock//data/scripts/dock_solv.prm

>  <Rbt.Receptor>
1y26.prm

>  <SCORE>
-55.1726

>  <SCORE.INTER>
-34.481

>  <SCORE.INTER.CONST>
1

>  <SCORE.INTER.POLAR>
-4.13059

>  <SCORE.INTER.ROT>
3

>  <SCORE.INTER.SOLV>
14.9646

>  <SCORE.INTER.VDW>
-19.8069

>  <SCORE.INTER.norm>
-3.4481

>  <SCORE.INTRA>
1.14766

>  <SCORE.INTRA.DIHEDRAL>
-0.135297

>  <SCORE.INTRA.DIHEDRAL.0>
4.7079

>  <SCORE.INTRA.POLAR>
0

>  <SCORE.INTRA.POLAR.0>
0

>  <SCORE.INTRA.REPUL>
0

>  <SCORE.INTRA.REPUL.0>
0

>  <SCORE.INTRA.SOLV>
0.460441

>  <SCORE.INTRA.SOLV.lig_0>
-17.6837

>  <SCORE.INTRA.VDW>
0.98509

>  <SCORE.INTRA.VDW.0>
-1.13316

>  <SCORE.INTRA.norm>
0.114766

>  <SCORE.RESTR>
0

>  <SCORE.RESTR.CAVITY>
0

>  <SCORE.RESTR.norm>
0

>  <SCORE.SYSTEM>
-21.8393

>  <SCORE.SYSTEM.CONST>
0

>  <SCORE.SYSTEM.DIHEDRAL>
8.10603

>  <SCORE.SYSTEM.POLAR>
-3.6745

>  <SCORE.SYSTEM.SOLV>
0.475574

>  <SCORE.SYSTEM.VDW>
-5.17172

>  <SCORE.SYSTEM.norm>
-2.18393

>  <SCORE.heavy>
10

>  <SCORE.norm>
-5.51726

$$$$
P114849488
 OpenBabel12072022103D
libRbt.so/2013.1/901 2013/11/27
 13 12  0  0  0  0  0  0  0  0999 V2000
   21.0296  -15.4983    4.4709 C   0  0  0  0  0  0  0  0  0  0  0  0
   21.2532  -17.2332    4.0013 S   0  0  0  0  0  0  0  0  0  0  0  0
   19.9422  -17.9602    4.9747 C   0  0  0  0  0  0  0  0  0  0  0  0
   18.7800  -18.2681    4.3405 C   0  0  0  0  0  0  0  0  0  0  0  0
   17.6878  -18.8504    5.0397 C   0  0  0  0  0  0  0  0  0  0  0  0
   16.8212  -19.3284    5.6452 N   0  0  0  0  0  0  0  0  0  0  0  0
   18.5533  -18.0030    2.8611 C   0  0  0  0  0  0  0  0  0  0  0  0
   18.3653  -17.7830    1.6337 N   0  0  0  0  0  0  0  0  0  0  0  0
   20.1391  -18.1869    6.3459 N   0  0  0  0  0  0  0  0  0  0  0  0
   19.1739  -18.8473    7.1220 N   0  0  0  0  0  0  0  0  0  0  0  0
   20.7263  -17.5112    6.8474 H   0  0  0  0  0  0  0  0  0  0  0  0
   18.3897  -18.2193    7.3247 H   0  0  0  0  0  0  0  0  0  0  0  0
   19.5536  -19.0911    8.0424 H   0  0  0  0  0  0  0  0  0  0  0  0
  1  2  1  0  0  0  0
  2  3  1  0  0  0  0
  3  4  2  0  0  0  0
  3  9  1  0  0  0  0
  4  5  1  0  0  0  0
  4  7  1  0  0  0  0
  5  6  3  0  0  0  0
  7  8  3  0  0  0  0
  9 10  1  0  0  0  0
  9 11  1  0  0  0  0
 10 12  1  0  0  0  0
 10 13  1  0  0  0  0
M  END
>  <CHROM.0>
-26.99432802,-54.03187904,-52.36428849,-53.13841982,-57.37801081,-57.71981528
-56.98544755,-51.94136219,-169.10023191,159.48127447

>  <CHROM.1>
100.47438876,-175.11150325,-76.01932854,19.46026133,-17.88116590,4.63891673
-0.65251775,0.51613564,1.83187212

>  <Name>
P114849488

>  <RI>
0

>  <Rbt.Current_Directory>
/home/fstefaniak/projects/zuza/docking/adenine/1Y26

>  <Rbt.Executable>
rbdock ($Id: //depot/dev/client3/rdock/2013.1/src/exe/rbdock.cxx#4 $)

>  <Rbt.Library>
libRbt.so (2013.1, Build901 2013/11/27)

>  <Rbt.Parameter_File>
/home/fstefaniak/progs/rDock//data/scripts/dock_solv.prm

>  <Rbt.Receptor>
1y26.prm

>  <SCORE>
-54.6513

>  <SCORE.INTER>
-35.1365

>  <SCORE.INTER.CONST>
1

>  <SCORE.INTER.POLAR>
-4.25945

>  <SCORE.INTER.ROT>
3

>  <SCORE.INTER.SOLV>
14.979

>  <SCORE.INTER.VDW>
-19.8192

>  <SCORE.INTER.norm>
-3.51365

>  <SCORE.INTRA>
1.21308

>  <SCORE.INTRA.DIHEDRAL>
-0.100541

>  <SCORE.INTRA.DIHEDRAL.0>
4.7079

>  <SCORE.INTRA.POLAR>
0

>  <SCORE.INTRA.POLAR.0>
0

>  <SCORE.INTRA.REPUL>
0

>  <SCORE.INTRA.REPUL.0>
0

>  <SCORE.INTRA.SOLV>
0.462543

>  <SCORE.INTRA.SOLV.lig_0>
-17.6837

>  <SCORE.INTRA.VDW>
1.03208

>  <SCORE.INTRA.VDW.0>
-1.13316

>  <SCORE.INTRA.norm>
0.121308

>  <SCORE.RESTR>
0

>  <SCORE.RESTR.CAVITY>
0

>  <SCORE.RESTR.norm>
0

>  <SCORE.SYSTEM>
-20.7279

>  <SCORE.SYSTEM.CONST>
0

>  <SCORE.SYSTEM.DIHEDRAL>
9.52534

>  <SCORE.SYSTEM.POLAR>
-3.75588

>  <SCORE.SYSTEM.SOLV>
0.696487

>  <SCORE.SYSTEM.VDW>
-4.70627

>  <SCORE.SYSTEM.norm>
-2.07279

>  <SCORE.heavy>
10

>  <SCORE.norm>
-5.46513

$$$$
P114849488
 OpenBabel12072022103D
libRbt.so/2013.1/901 2013/11/27
 13 12  0  0  0  0  0  0  0  0999 V2000
   21.1192  -15.4961    4.5317 C   0  0  0  0  0  0  0  0  0  0  0  0
   21.2933  -17.2260    4.0241 S   0  0  0  0  0  0  0  0  0  0  0  0
   19.9657  -17.9374    4.9863 C   0  0  0  0  0  0  0  0  0  0  0  0
   18.8177  -18.2637    4.3358 C   0  0  0  0  0  0  0  0  0  0  0  0
   17.7139  -18.8354    5.0252 C   0  0  0  0  0  0  0  0  0  0  0  0
   16.8370  -19.3039    5.6234 N   0  0  0  0  0  0  0  0  0  0  0  0
   18.6199  -18.0313    2.8467 C   0  0  0  0  0  0  0  0  0  0  0  0
   18.4557  -17.8385    1.6114 N   0  0  0  0  0  0  0  0  0  0  0  0
   20.1358  -18.1338    6.3658 N   0  0  0  0  0  0  0  0  0  0  0  0
   19.1885  -18.8388    7.1244 N   0  0  0  0  0  0  0  0  0  0  0  0
   20.6683  -17.4183    6.8733 H   0  0  0  0  0  0  0  0  0  0  0  0
   18.3952  -18.2325    7.3557 H   0  0  0  0  0  0  0  0  0  0  0  0
   19.5798  -19.1092    8.0325 H   0  0  0  0  0  0  0  0  0  0  0  0
  1  2  1  0  0  0  0
  2  3  1  0  0  0  0
  3  4  2  0  0  0  0
  3  9  1  0  0  0  0
  4  5  1  0  0  0  0
  4  7  1  0  0  0  0
  5  6  3  0  0  0  0
  7  8  3  0  0  0  0
  9 10  1  0  0  0  0
  9 11  1  0  0  0  0
 10 12  1  0  0  0  0
 10 13  1  0  0  0  0
M  END
>  <CHROM.0>
-34.77569213,-54.25520827,-56.31397613,-51.92651747,-58.46239906,-58.44319817
-58.46597879,-52.27722039,-167.09255934,160.52367727

>  <CHROM.1>
103.81697117,-171.94681964,-80.27652152,19.49983198,-17.87518302,4.64617026
-0.60601727,0.52569224,1.80367178

>  <Name>
P114849488

>  <RI>
0

>  <Rbt.Current_Directory>
/home/fstefaniak/projects/zuza/docking/adenine/1Y26

>  <Rbt.Executable>
rbdock ($Id: //depot/dev/client3/rdock/2013.1/src/exe/rbdock.cxx#4 $)

>  <Rbt.Library>
libRbt.so (2013.1, Build901 2013/11/27)

>  <Rbt.Parameter_File>
/home/fstefaniak/progs/rDock//data/scripts/dock_solv.prm

>  <Rbt.Receptor>
1y26.prm

>  <SCORE>
-54.5396

>  <SCORE.INTER>
-34.0858

>  <SCORE.INTER.CONST>
1

>  <SCORE.INTER.POLAR>
-4.06872

>  <SCORE.INTER.ROT>
3

>  <SCORE.INTER.SOLV>
14.9489

>  <SCORE.INTER.VDW>
-19.7444

>  <SCORE.INTER.norm>
-3.40858

>  <SCORE.INTRA>
1.10377

>  <SCORE.INTRA.DIHEDRAL>
-0.196648

>  <SCORE.INTRA.DIHEDRAL.0>
4.7079

>  <SCORE.INTRA.POLAR>
0

>  <SCORE.INTRA.POLAR.0>
0

>  <SCORE.INTRA.REPUL>
0

>  <SCORE.INTRA.REPUL.0>
0

>  <SCORE.INTRA.SOLV>
0.4532

>  <SCORE.INTRA.SOLV.lig_0>
-17.6837

>  <SCORE.INTRA.VDW>
0.975496

>  <SCORE.INTRA.VDW.0>
-1.13316

>  <SCORE.INTRA.norm>
0.110377

>  <SCORE.RESTR>
0

>  <SCORE.RESTR.CAVITY>
0

>  <SCORE.RESTR.norm>
0

>  <SCORE.SYSTEM>
-21.5575

>  <SCORE.SYSTEM.CONST>
0

>  <SCORE.SYSTEM.DIHEDRAL>
7.90863

>  <SCORE.SYSTEM.POLAR>
-3.69628

>  <SCORE.SYSTEM.SOLV>
0.683964

>  <SCORE.SYSTEM.VDW>
-4.91496

>  <SCORE.SYSTEM.norm>
-2.15575

>  <SCORE.heavy>
10

>  <SCORE.norm>
-5.45396

$$$$
P117550138
 OpenBabel12072022103D
libRbt.so/2013.1/901 2013/11/27
 10  9  0  0  0  0  0  0  0  0999 V2000
   19.4730  -18.8184    6.6938 C   0  0  0  0  0  0  0  0  0  0  0  0
   19.8060  -18.5074    5.2355 C   0  0  1  0  0  0  0  0  0  0  0  0
   18.6060  -18.6910    4.3919 C   0  0  0  0  0  0  0  0  0  0  0  0
   17.6569  -18.8005    3.7316 N   0  0  0  0  0  0  0  0  0  0  0  0
   20.3198  -17.1476    5.1043 N   0  0  0  0  0  0  0  0  0  0  0  0
   20.3914  -16.5355    3.8812 C   0  0  0  0  0  0  0  0  0  0  0  0
   20.0155  -17.0529    2.8385 O   0  0  0  0  0  0  0  0  0  0  0  0
   20.9790  -15.1741    3.9448 C   0  0  0  0  0  0  0  0  0  0  0  0
   21.9799  -14.9077    4.7933 C   0  0  0  0  0  0  0  0  0  0  0  0
   20.6910  -16.6907    5.9273 H   0  0  0  0  0  0  0  0  0  0  0  0
  2  1  1  1  0  0  0
  2  3  1  0  0  0  0
  2  5  1  0  0  0  0
  3  4  3  0  0  0  0
  5  6  1  0  0  0  0
  5 10  1  0  0  0  0
  6  7  2  0  0  0  0
  6  8  1  0  0  0  0
  8  9  2  0  0  0  0
M  END
>  <CHROM.0>
-46.40122783,-62.34150239,-54.75838564,-52.57674972,-56.78847456,-57.34682182
-59.93943937,-177.36860798,-167.27501139,160.77152511

>  <CHROM.1>
-164.58537545,36.68999142,19.92452177,-17.29318728,4.52633398,-2.62847871
-0.80126630,-1.10024611

>  <Name>
P117550138

>  <RI>
0

>  <Rbt.Current_Directory>
/home/fstefaniak/projects/zuza/docking/adenine/1Y26

>  <Rbt.Executable>
rbdock ($Id: //depot/dev/client3/rdock/2013.1/src/exe/rbdock.cxx#4 $)

>  <Rbt.Library>
libRbt.so (2013.1, Build901 2013/11/27)

>  <Rbt.Parameter_File>
/home/fstefaniak/progs/rDock//data/scripts/dock_solv.prm

>  <Rbt.Receptor>
1y26.prm

>  <SCORE>
-47.4721

>  <SCORE.INTER>
-28.5638

>  <SCORE.INTER.CONST>
1

>  <SCORE.INTER.POLAR>
-3.15117

>  <SCORE.INTER.ROT>
2

>  <SCORE.INTER.SOLV>
9.88851

>  <SCORE.INTER.VDW>
-16.7681

>  <SCORE.INTER.norm>
-3.17375

>  <SCORE.INTRA>
3.76969

>  <SCORE.INTRA.DIHEDRAL>
4.10635

>  <SCORE.INTRA.DIHEDRAL.0>
1.06189

>  <SCORE.INTRA.POLAR>
0

>  <SCORE.INTRA.POLAR.0>
0

>  <SCORE.INTRA.REPUL>
0

>  <SCORE.INTRA.REPUL.0>
0

>  <SCORE.INTRA.SOLV>
0.600133

>  <SCORE.INTRA.SOLV.lig_0>
-12.7784

>  <SCORE.INTRA.VDW>
1.41645

>  <SCORE.INTRA.VDW.0>
-0.0834981

>  <SCORE.INTRA.norm>
0.418855

>  <SCORE.RESTR>
0

>  <SCORE.RESTR.CAVITY>
0

>  <SCORE.RESTR.norm>
0

>  <SCORE.SYSTEM>
-22.678

>  <SCORE.SYSTEM.CONST>
0

>  <SCORE.SYSTEM.DIHEDRAL>
5.73149

>  <SCORE.SYSTEM.POLAR>
-3.50351

>  <SCORE.SYSTEM.SOLV>
0.460267

>  <SCORE.SYSTEM.VDW>
-5.50422

>  <SCORE.SYSTEM.norm>
-2.51978

>  <SCORE.heavy>
9

>  <SCORE.norm>
-5.27468

$$$$
P117550138
 OpenBabel12072022103D
libRbt.so/2013.1/901 2013/11/27
 10  9  0  0  0  0  0  0  0  0999 V2000
   19.4386  -18.7616    6.7324 C   0  0  0  0  0  0  0  0  0  0  0  0
   19.7931  -18.4710    5.2750 C   0  0  1  0  0  0  0  0  0  0  0  0
   18.6049  -18.6637    4.4168 C   0  0  0  0  0  0  0  0  0  0  0  0
   17.6650  -18.7803    3.7446 N   0  0  0  0  0  0  0  0  0  0  0  0
   20.3116  -17.1141    5.1328 N   0  0  0  0  0  0  0  0  0  0  0  0
   20.3780  -16.5093    3.9057 C   0  0  0  0  0  0  0  0  0  0  0  0
   19.9935  -17.0311    2.8684 O   0  0  0  0  0  0  0  0  0  0  0  0
   20.9716  -15.1501    3.9579 C   0  0  0  0  0  0  0  0  0  0  0  0
   21.9442  -14.8692    4.8341 C   0  0  0  0  0  0  0  0  0  0  0  0
   20.6898  -16.6541    5.9508 H   0  0  0  0  0  0  0  0  0  0  0  0
  2  1  1  1  0  0  0
  2  3  1  0  0  0  0
  2  5  1  0  0  0  0
  3  4  3  0  0  0  0
  5  6  1  0  0  0  0
  5 10  1  0  0  0  0
  6  7  2  0  0  0  0
  6  8  1  0  0  0  0
  8  9  2  0  0  0  0
M  END
>  <CHROM.0>
-49.52895969,-60.47531792,-55.44209021,-53.82293749,-57.29329521,-63.78314856
-61.39951695,-50.26047288,-166.84920084,160.45726061

>  <CHROM.1>
-163.31963179,34.13473731,19.90993995,-17.26129608,4.55464384,-2.63919132
-0.80925661,-1.11448469

>  <Name>
P117550138

>  <RI>
0

>  <Rbt.Current_Directory>
/home/fstefaniak/projects/zuza/docking/adenine/1Y26

>  <Rbt.Executable>
rbdock ($Id: //depot/dev/client3/rdock/2013.1/src/exe/rbdock.cxx#4 $)

>  <Rbt.Library>
libRbt.so (2013.1, Build901 2013/11/27)

>  <Rbt.Parameter_File>
/home/fstefaniak/progs/rDock//data/scripts/dock_solv.prm

>  <Rbt.Receptor>
1y26.prm

>  <SCORE>
-47.1919

>  <SCORE.INTER>
-28.6054

>  <SCORE.INTER.CONST>
1

>  <SCORE.INTER.POLAR>
-3.15117

>  <SCORE.INTER.ROT>
2

>  <SCORE.INTER.SOLV>
9.91975

>  <SCORE.INTER.VDW>
-16.8063

>  <SCORE.INTER.norm>
-3.17838

>  <SCORE.INTRA>
3.74719

>  <SCORE.INTRA.DIHEDRAL>
3.62045

>  <SCORE.INTRA.DIHEDRAL.0>
1.06189

>  <SCORE.INTRA.POLAR>
0

>  <SCORE.INTRA.POLAR.0>
0

>  <SCORE.INTRA.REPUL>
0

>  <SCORE.INTRA.REPUL.0>
0

>  <SCORE.INTRA.SOLV>
0.614331

>  <SCORE.INTRA.SOLV.lig_0>
-12.7784

>  <SCORE.INTRA.VDW>
1.62981

>  <SCORE.INTRA.VDW.0>
-0.0834981

>  <SCORE.INTRA.norm>
0.416355

>  <SCORE.RESTR>
0

>  <SCORE.RESTR.CAVITY>
0

>  <SCORE.RESTR.norm>
0

>  <SCORE.SYSTEM>
-22.3337

>  <SCORE.SYSTEM.CONST>
0

>  <SCORE.SYSTEM.DIHEDRAL>
5.773

>  <SCORE.SYSTEM.POLAR>
-3.47697

>  <SCORE.SYSTEM.SOLV>
0.649223

>  <SCORE.SYSTEM.VDW>
-5.43996

>  <SCORE.SYSTEM.norm>
-2.48152

>  <SCORE.heavy>
9

>  <SCORE.norm>
-5.24354

$$$$
P117550138
 OpenBabel12072022103D
libRbt.so/2013.1/901 2013/11/27
 10  9  0  0  0  0  0  0  0  0999 V2000
   19.4250  -18.7649    6.7205 C   0  0  0  0  0  0  0  0  0  0  0  0
   19.7825  -18.4625    5.2661 C   0  0  1  0  0  0  0  0  0  0  0  0
   18.5988  -18.6581    4.4026 C   0  0  0  0  0  0  0  0  0  0  0  0
   17.6622  -18.7770    3.7262 N   0  0  0  0  0  0  0  0  0  0  0  0
   20.2920  -17.1011    5.1344 N   0  0  0  0  0  0  0  0  0  0  0  0
   20.3752  -16.4945    3.9093 C   0  0  0  0  0  0  0  0  0  0  0  0
   20.0138  -17.0185    2.8648 O   0  0  0  0  0  0  0  0  0  0  0  0
   20.9561  -15.1303    3.9732 C   0  0  0  0  0  0  0  0  0  0  0  0
   21.9116  -14.8425    4.8660 C   0  0  0  0  0  0  0  0  0  0  0  0
   20.6516  -16.6387    5.9595 H   0  0  0  0  0  0  0  0  0  0  0  0
  2  1  1  1  0  0  0
  2  3  1  0  0  0  0
  2  5  1  0  0  0  0
  3  4  3  0  0  0  0
  5  6  1  0  0  0  0
  5 10  1  0  0  0  0
  6  7  2  0  0  0  0
  6  8  1  0  0  0  0
  8  9  2  0  0  0  0
M  END
>  <CHROM.0>
-51.48676235,-62.62001744,-55.67948591,-53.99494892,-56.93727926,-60.75498047
-64.16876742,-51.69557063,-167.70688551,160.68869753

>  <CHROM.1>
-164.20297958,34.21231388,19.90076990,-17.25014539,4.55417448,-2.64812088
-0.81858451,-1.11849113

>  <Name>
P117550138

>  <RI>
0

>  <Rbt.Current_Directory>
/home/fstefaniak/projects/zuza/docking/adenine/1Y26

>  <Rbt.Executable>
rbdock ($Id: //depot/dev/client3/rdock/2013.1/src/exe/rbdock.cxx#4 $)

>  <Rbt.Library>
libRbt.so (2013.1, Build901 2013/11/27)

>  <Rbt.Parameter_File>
/home/fstefaniak/progs/rDock//data/scripts/dock_solv.prm

>  <Rbt.Receptor>
1y26.prm

>  <SCORE>
-47.1647

>  <SCORE.INTER>
-28.5471

>  <SCORE.INTER.CONST>
1

>  <SCORE.INTER.POLAR>
-3.15117

>  <SCORE.INTER.ROT>
2

>  <SCORE.INTER.SOLV>
9.94768

>  <SCORE.INTER.VDW>
-16.7767

>  <SCORE.INTER.norm>
-3.1719

>  <SCORE.INTRA>
3.69838

>  <SCORE.INTRA.DIHEDRAL>
3.63865

>  <SCORE.INTRA.DIHEDRAL.0>
1.06189

>  <SCORE.INTRA.POLAR>
0

>  <SCORE.INTRA.POLAR.0>
0

>  <SCORE.INTRA.REPUL>
0

>  <SCORE.INTRA.REPUL.0>
0

>  <SCORE.INTRA.SOLV>
0.605906

>  <SCORE.INTRA.SOLV.lig_0>
-12.7784

>  <SCORE.INTRA.VDW>
1.57611

>  <SCORE.INTRA.VDW.0>
-0.0834981

>  <SCORE.INTRA.norm>
0.410932

>  <SCORE.RESTR>
0

>  <SCORE.RESTR.CAVITY>
0

>  <SCORE.RESTR.norm>
0

>  <SCORE.SYSTEM>
-22.316

>  <SCORE.SYSTEM.CONST>
0

>  <SCORE.SYSTEM.DIHEDRAL>
5.3909

>  <SCORE.SYSTEM.POLAR>
-3.41933

>  <SCORE.SYSTEM.SOLV>
0.643764

>  <SCORE.SYSTEM.VDW>
-5.49108

>  <SCORE.SYSTEM.norm>
-2.47955

>  <SCORE.heavy>
9

>  <SCORE.norm>
-5.24052

$$$$
P117557462
 OpenBabel12072022103D
libRbt.so/2013.1/901 2013/11/27
 11 11  0  0  0  0  0  0  0  0999 V2000
   18.3398  -18.3755    1.5287 C   0  0  0  0  0  0  0  0  0  0  0  0
   18.8621  -17.4050    2.4342 O   0  0  0  0  0  0  0  0  0  0  0  0
   18.9112  -17.8942    3.7183 C   0  0  0  0  0  0  0  0  0  0  0  0
   19.9940  -17.7249    4.5000 C   0  0  0  0  0  0  0  0  0  0  0  0
   20.0460  -18.3134    5.8883 C   0  0  0  0  0  0  0  0  0  0  0  0
   18.9992  -19.4145    6.1121 C   0  0  0  0  0  0  0  0  0  0  0  0
   17.6452  -19.0268    5.5198 C   0  0  0  0  0  0  0  0  0  0  0  0
   17.8330  -18.6359    4.1373 N   0  0  0  0  0  0  0  0  0  0  0  0
   21.1944  -16.9330    4.0076 C   0  0  0  0  0  0  0  0  0  0  0  0
   22.1900  -16.2760    3.5990 N   0  0  0  0  0  0  0  0  0  0  0  0
   17.0214  -18.6075    3.5291 H   0  0  0  0  0  0  0  0  0  0  0  0
  1  2  1  0  0  0  0
  2  3  1  0  0  0  0
  3  4  2  0  0  0  0
  3  8  1  0  0  0  0
  4  5  1  0  0  0  0
  4  9  1  0  0  0  0
  5  6  1  0  0  0  0
  6  7  1  0  0  0  0
  7  8  1  0  0  0  0
  8 11  1  0  0  0  0
  9 10  3  0  0  0  0
M  END
>  <CHROM.0>
-51.78595326,-59.69278905,-56.08957030,-52.56117284,-57.34885368,-177.52193289
-61.11049064,-177.23776895,-167.60571005,160.66899308

>  <CHROM.1>
134.71395270,19.34086535,-18.01987934,4.09963100,0.63036107,-0.48386567,-1.25835564

>  <Name>
P117557462

>  <RI>
0

>  <Rbt.Current_Directory>
/home/fstefaniak/projects/zuza/docking/adenine/1Y26

>  <Rbt.Executable>
rbdock ($Id: //depot/dev/client3/rdock/2013.1/src/exe/rbdock.cxx#4 $)

>  <Rbt.Library>
libRbt.so (2013.1, Build901 2013/11/27)

>  <Rbt.Parameter_File>
/home/fstefaniak/progs/rDock//data/scripts/dock_solv.prm

>  <Rbt.Receptor>
1y26.prm

>  <SCORE>
-47.2967

>  <SCORE.INTER>
-22.1435

>  <SCORE.INTER.CONST>
1

>  <SCORE.INTER.POLAR>
-1.9788

>  <SCORE.INTER.ROT>
1

>  <SCORE.INTER.SOLV>
10.0604

>  <SCORE.INTER.VDW>
-15.7865

>  <SCORE.INTER.norm>
-2.21435

>  <SCORE.INTRA>
-2.64273

>  <SCORE.INTRA.DIHEDRAL>
-11.2209

>  <SCORE.INTRA.DIHEDRAL.0>
22.1532

>  <SCORE.INTRA.POLAR>
0

>  <SCORE.INTRA.POLAR.0>
0

>  <SCORE.INTRA.REPUL>
0

>  <SCORE.INTRA.REPUL.0>
0

>  <SCORE.INTRA.SOLV>
0.0135189

>  <SCORE.INTRA.SOLV.lig_0>
-9.52974

>  <SCORE.INTRA.VDW>
2.96093

>  <SCORE.INTRA.VDW.0>
-0.109212

>  <SCORE.INTRA.norm>
-0.264273

>  <SCORE.RESTR>
0

>  <SCORE.RESTR.CAVITY>
0

>  <SCORE.RESTR.norm>
0

>  <SCORE.SYSTEM>
-22.5105

>  <SCORE.SYSTEM.CONST>
0

>  <SCORE.SYSTEM.DIHEDRAL>
5.07828

>  <SCORE.SYSTEM.POLAR>
-3.40879

>  <SCORE.SYSTEM.SOLV>
0.306137

>  <SCORE.SYSTEM.VDW>
-5.43917

>  <SCORE.SYSTEM.norm>
-2.25105

>  <SCORE.heavy>
10

>  <SCORE.norm>
-4.72967

$$$$
P117557462
 OpenBabel12072022103D
libRbt.so/2013.1/901 2013/11/27
 11 11  0  0  0  0  0  0  0  0999 V2000
   18.3232  -18.3925    1.5252 C   0  0  0  0  0  0  0  0  0  0  0  0
   18.8730  -17.4290    2.4218 O   0  0  0  0  0  0  0  0  0  0  0  0
   18.9166  -17.9109    3.7089 C   0  0  0  0  0  0  0  0  0  0  0  0
   20.0004  -17.7473    4.4904 C   0  0  0  0  0  0  0  0  0  0  0  0
   20.0459  -18.3279    5.8822 C   0  0  0  0  0  0  0  0  0  0  0  0
   18.9885  -19.4176    6.1119 C   0  0  0  0  0  0  0  0  0  0  0  0
   17.6387  -19.0206    5.5163 C   0  0  0  0  0  0  0  0  0  0  0  0
   17.8311  -18.6398    4.1316 N   0  0  0  0  0  0  0  0  0  0  0  0
   21.2086  -16.9698    3.9940 C   0  0  0  0  0  0  0  0  0  0  0  0
   22.2108  -16.3248    3.5822 N   0  0  0  0  0  0  0  0  0  0  0  0
   17.0202  -18.6072    3.5227 H   0  0  0  0  0  0  0  0  0  0  0  0
  1  2  1  0  0  0  0
  2  3  1  0  0  0  0
  3  4  2  0  0  0  0
  3  8  1  0  0  0  0
  4  5  1  0  0  0  0
  4  9  1  0  0  0  0
  5  6  1  0  0  0  0
  6  7  1  0  0  0  0
  7  8  1  0  0  0  0
  8 11  1  0  0  0  0
  9 10  3  0  0  0  0
M  END
>  <CHROM.0>
-51.01610168,-60.54627655,-55.12902588,-52.73654065,-56.89142931,-58.39413993
-62.48859686,-52.38976867,-167.34526779,160.45076482

>  <CHROM.1>
135.59766264,19.34270586,-18.03758498,4.09167850,0.62191129,-0.47405456,-1.26395174

>  <Name>
P117557462

>  <RI>
0

>  <Rbt.Current_Directory>
/home/fstefaniak/projects/zuza/docking/adenine/1Y26

>  <Rbt.Executable>
rbdock ($Id: //depot/dev/client3/rdock/2013.1/src/exe/rbdock.cxx#4 $)

>  <Rbt.Library>
libRbt.so (2013.1, Build901 2013/11/27)

>  <Rbt.Parameter_File>
/home/fstefaniak/progs/rDock//data/scripts/dock_solv.prm

>  <Rbt.Receptor>
1y26.prm

>  <SCORE>
-47.1288

>  <SCORE.INTER>
-22.16

>  <SCORE.INTER.CONST>
1

>  <SCORE.INTER.POLAR>
-2.01031

>  <SCORE.INTER.ROT>
1

>  <SCORE.INTER.SOLV>
10.0565

>  <SCORE.INTER.VDW>
-15.6911

>  <SCORE.INTER.norm>
-2.216

>  <SCORE.INTRA>
-2.64111

>  <SCORE.INTRA.DIHEDRAL>
-11.5769

>  <SCORE.INTRA.DIHEDRAL.0>
22.1532

>  <SCORE.INTRA.POLAR>
0

>  <SCORE.INTRA.POLAR.0>
0

>  <SCORE.INTRA.REPUL>
0

>  <SCORE.INTRA.REPUL.0>
0

>  <SCORE.INTRA.SOLV>
0.0151062

>  <SCORE.INTRA.SOLV.lig_0>
-9.52974

>  <SCORE.INTRA.VDW>
3.13979

>  <SCORE.INTRA.VDW.0>
-0.109212

>  <SCORE.INTRA.norm>
-0.264111

>  <SCORE.RESTR>
0

>  <SCORE.RESTR.CAVITY>
0

>  <SCORE.RESTR.norm>
0

>  <SCORE.SYSTEM>
-22.3276

>  <SCORE.SYSTEM.CONST>
0

>  <SCORE.SYSTEM.DIHEDRAL>
5.47665

>  <SCORE.SYSTEM.POLAR>
-3.46388

>  <SCORE.SYSTEM.SOLV>
0.657435

>  <SCORE.SYSTEM.VDW>
-5.38352

>  <SCORE.SYSTEM.norm>
-2.23276

>  <SCORE.heavy>
10

>  <SCORE.norm>
-4.71288

$$$$
P117557462
 OpenBabel12072022103D
libRbt.so/2013.1/901 2013/11/27
 11 11  0  0  0  0  0  0  0  0999 V2000
   18.2700  -18.2846    1.5846 C   0  0  0  0  0  0  0  0  0  0  0  0
   18.7718  -17.3219    2.5098 O   0  0  0  0  0  0  0  0  0  0  0  0
   18.8509  -17.8427    3.7800 C   0  0  0  0  0  0  0  0  0  0  0  0
   19.9314  -17.6486    4.5592 C   0  0  0  0  0  0  0  0  0  0  0  0
   20.0184  -18.2712    5.9307 C   0  0  0  0  0  0  0  0  0  0  0  0
   19.0205  -19.4212    6.1313 C   0  0  0  0  0  0  0  0  0  0  0  0
   17.6471  -19.0755    5.5582 C   0  0  0  0  0  0  0  0  0  0  0  0
   17.8081  -18.6403    4.1856 N   0  0  0  0  0  0  0  0  0  0  0  0
   21.0936  -16.7937    4.0808 C   0  0  0  0  0  0  0  0  0  0  0  0
   22.0577  -16.0845    3.6838 N   0  0  0  0  0  0  0  0  0  0  0  0
   16.9915  -18.6300    3.5835 H   0  0  0  0  0  0  0  0  0  0  0  0
  1  2  1  0  0  0  0
  2  3  1  0  0  0  0
  3  4  2  0  0  0  0
  3  8  1  0  0  0  0
  4  5  1  0  0  0  0
  4  9  1  0  0  0  0
  5  6  1  0  0  0  0
  6  7  1  0  0  0  0
  7  8  1  0  0  0  0
  8 11  1  0  0  0  0
  9 10  3  0  0  0  0
M  END
>  <CHROM.0>
-50.47946656,-61.73095451,-56.09098583,-52.19021398,-57.39588637,-60.34635499
-60.58617005,-51.90051347,-166.95270076,160.41961094

>  <CHROM.1>
135.36527021,19.28672991,-17.95967310,4.15539619,0.65018894,-0.52087146,-1.21876599

>  <Name>
P117557462

>  <RI>
0

>  <Rbt.Current_Directory>
/home/fstefaniak/projects/zuza/docking/adenine/1Y26

>  <Rbt.Executable>
rbdock ($Id: //depot/dev/client3/rdock/2013.1/src/exe/rbdock.cxx#4 $)

>  <Rbt.Library>
libRbt.so (2013.1, Build901 2013/11/27)

>  <Rbt.Parameter_File>
/home/fstefaniak/progs/rDock//data/scripts/dock_solv.prm

>  <Rbt.Receptor>
1y26.prm

>  <SCORE>
-47.0996

>  <SCORE.INTER>
-22.11

>  <SCORE.INTER.CONST>
1

>  <SCORE.INTER.POLAR>
-1.90454

>  <SCORE.INTER.ROT>
1

>  <SCORE.INTER.SOLV>
10.1241

>  <SCORE.INTER.VDW>
-16.0329

>  <SCORE.INTER.norm>
-2.211

>  <SCORE.INTRA>
-2.64238

>  <SCORE.INTRA.DIHEDRAL>
-11.4833

>  <SCORE.INTRA.DIHEDRAL.0>
22.1532

>  <SCORE.INTRA.POLAR>
0

>  <SCORE.INTRA.POLAR.0>
0

>  <SCORE.INTRA.REPUL>
0

>  <SCORE.INTRA.REPUL.0>
0

>  <SCORE.INTRA.SOLV>
0.0146908

>  <SCORE.INTRA.SOLV.lig_0>
-9.52974

>  <SCORE.INTRA.VDW>
3.09195

>  <SCORE.INTRA.VDW.0>
-0.109212

>  <SCORE.INTRA.norm>
-0.264238

>  <SCORE.RESTR>
0

>  <SCORE.RESTR.CAVITY>
0

>  <SCORE.RESTR.norm>
0

>  <SCORE.SYSTEM>
-22.3472

>  <SCORE.SYSTEM.CONST>
0

>  <SCORE.SYSTEM.DIHEDRAL>
5.56305

>  <SCORE.SYSTEM.POLAR>
-3.47907

>  <SCORE.SYSTEM.SOLV>
0.657379

>  <SCORE.SYSTEM.VDW>
-5.37472

>  <SCORE.SYSTEM.norm>
-2.23472

>  <SCORE.heavy>
10

>  <SCORE.norm>
-4.70996

$$$$
P117594918
 OpenBabel12072022103D
libRbt.so/2013.1/901 2013/11/27
 16 15  0  0  0  0  0  0  0  0999 V2000
   21.4430  -14.8805    4.4324 C   0  0  0  0  0  0  0  0  0  0  0  0
   22.4665  -13.8323    4.9137 C   0  0  0  0  0  0  0  0  0  0  0  0
   22.2873  -12.5602    4.0604 C   0  0  0  0  0  0  0  0  0  0  0  0
   22.1153  -13.4440    6.3714 C   0  0  0  0  0  0  0  0  0  0  0  0
   23.9409  -14.3693    4.8601 C   0  0  2  0  0  0  0  0  0  0  0  0
   24.7693  -13.9394    3.6203 C   0  0  0  0  0  0  0  0  0  0  0  0
   24.5886  -14.4730    2.5218 O   0  0  0  0  0  0  0  0  0  0  0  0
   25.7962  -13.0713    3.7889 N   0  0  0  0  0  0  0  0  0  0  0  0
   23.9486  -15.8771    4.9091 N   0  0  0  0  0  0  0  0  0  0  0  0
   25.2227  -16.3960    5.3283 N   0  3  0  0  0  0  0  0  0  0  0  0
   25.2057  -17.4416    5.3558 H   0  0  0  0  0  0  0  0  0  0  0  0
   25.9984  -16.1017    4.7143 H   0  0  0  0  0  0  0  0  0  0  0  0
   25.4628  -16.0825    6.2838 H   0  0  0  0  0  0  0  0  0  0  0  0
   26.0881  -12.6697    4.6714 H   0  0  0  0  0  0  0  0  0  0  0  0
   26.3449  -12.8110    2.9742 H   0  0  0  0  0  0  0  0  0  0  0  0
   23.7144  -16.2031    3.9577 H   0  0  0  0  0  0  0  0  0  0  0  0
  1  2  1  0  0  0  0
  2  3  1  0  0  0  0
  2  4  1  0  0  0  0
  5  6  1  6  0  0  0
  5  9  1  0  0  0  0
  5  2  1  0  0  0  0
  6  7  2  0  0  0  0
  6  8  1  0  0  0  0
  8 14  1  0  0  0  0
  8 15  1  0  0  0  0
  9 10  1  0  0  0  0
  9 16  1  0  0  0  0
 10 11  1  0  0  0  0
 10 12  1  0  0  0  0
 10 13  1  0  0  0  0
M  CHG  1  10   1
M  END
>  <CHROM.0>
-48.64942864,69.54720274,-64.24377788,-54.30501879,-58.43055038,-62.19115850
-169.43246516,178.71151219,-167.65512192,160.50337671

>  <CHROM.1>
-76.40617029,-159.68626921,98.85933443,179.97170158,23.70857156,-14.32198096
4.47460992,3.03469725,0.42918101,-0.53819736

>  <Name>
P117594918

>  <RI>
0

>  <Rbt.Current_Directory>
/home/fstefaniak/projects/zuza/docking/adenine/1Y26

>  <Rbt.Executable>
rbdock ($Id: //depot/dev/client3/rdock/2013.1/src/exe/rbdock.cxx#4 $)

>  <Rbt.Library>
libRbt.so (2013.1, Build901 2013/11/27)

>  <Rbt.Parameter_File>
/home/fstefaniak/progs/rDock//data/scripts/dock_solv.prm

>  <Rbt.Receptor>
1y26.prm

>  <SCORE>
-47.1024

>  <SCORE.INTER>
-29.5811

>  <SCORE.INTER.CONST>
1

>  <SCORE.INTER.POLAR>
-4.81346

>  <SCORE.INTER.ROT>
3

>  <SCORE.INTER.SOLV>
20.3271

>  <SCORE.INTER.VDW>
-16.0515

>  <SCORE.INTER.norm>
-2.95811

>  <SCORE.INTRA>
2.3896

>  <SCORE.INTRA.DIHEDRAL>
4.75827

>  <SCORE.INTRA.DIHEDRAL.0>
0.879253

>  <SCORE.INTRA.POLAR>
0

>  <SCORE.INTRA.POLAR.0>
0

>  <SCORE.INTRA.REPUL>
0

>  <SCORE.INTRA.REPUL.0>
0

>  <SCORE.INTRA.SOLV>
-1.17104

>  <SCORE.INTRA.SOLV.lig_0>
-32.6496

>  <SCORE.INTRA.VDW>
0.595983

>  <SCORE.INTRA.VDW.0>
-0.0300844

>  <SCORE.INTRA.norm>
0.23896

>  <SCORE.RESTR>
0.904003

>  <SCORE.RESTR.CAVITY>
0.904003

>  <SCORE.RESTR.norm>
0.0904003

>  <SCORE.SYSTEM>
-20.815

>  <SCORE.SYSTEM.CONST>
0

>  <SCORE.SYSTEM.DIHEDRAL>
6.18681

>  <SCORE.SYSTEM.POLAR>
-3.38969

>  <SCORE.SYSTEM.SOLV>
0.38735

>  <SCORE.SYSTEM.VDW>
-4.76906

>  <SCORE.SYSTEM.norm>
-2.0815

>  <SCORE.heavy>
10

>  <SCORE.norm>
-4.71024

$$$$
P117594918
 OpenBabel12072022103D
libRbt.so/2013.1/901 2013/11/27
 16 15  0  0  0  0  0  0  0  0999 V2000
   22.4122  -12.3235    4.2612 C   0  0  0  0  0  0  0  0  0  0  0  0
   22.5364  -13.6691    5.0039 C   0  0  0  0  0  0  0  0  0  0  0  0
   22.1123  -13.4484    6.4702 C   0  0  0  0  0  0  0  0  0  0  0  0
   21.5162  -14.6592    4.3893 C   0  0  0  0  0  0  0  0  0  0  0  0
   23.9797  -14.2782    4.8982 C   0  0  2  0  0  0  0  0  0  0  0  0
   24.7795  -13.8972    3.6241 C   0  0  0  0  0  0  0  0  0  0  0  0
   24.5690  -14.4680    2.5498 O   0  0  0  0  0  0  0  0  0  0  0  0
   25.8148  -13.0301    3.7368 N   0  0  0  0  0  0  0  0  0  0  0  0
   23.9156  -15.7841    4.9591 N   0  0  0  0  0  0  0  0  0  0  0  0
   25.1798  -16.3628    5.3269 N   0  3  0  0  0  0  0  0  0  0  0  0
   25.9300  -16.0678    4.6602 H   0  0  0  0  0  0  0  0  0  0  0  0
   25.4770  -16.1061    6.2814 H   0  0  0  0  0  0  0  0  0  0  0  0
   25.1474  -17.3956    5.2919 H   0  0  0  0  0  0  0  0  0  0  0  0
   26.1305  -12.5996    4.5972 H   0  0  0  0  0  0  0  0  0  0  0  0
   26.3447  -12.8019    2.9002 H   0  0  0  0  0  0  0  0  0  0  0  0
   23.6244  -16.1040    4.0214 H   0  0  0  0  0  0  0  0  0  0  0  0
  1  2  1  0  0  0  0
  2  3  1  0  0  0  0
  2  4  1  0  0  0  0
  5  6  1  6  0  0  0
  5  9  1  0  0  0  0
  5  2  1  0  0  0  0
  6  7  2  0  0  0  0
  6  8  1  0  0  0  0
  8 14  1  0  0  0  0
  8 15  1  0  0  0  0
  9 10  1  0  0  0  0
  9 16  1  0  0  0  0
 10 11  1  0  0  0  0
 10 12  1  0  0  0  0
 10 13  1  0  0  0  0
M  CHG  1  10   1
M  END
>  <CHROM.0>
-45.12583954,65.79210510,-52.35008691,-50.17912424,-55.75960504,-62.22939670
-63.64944080,-51.73346646,-167.30273033,161.31198980

>  <CHROM.1>
-79.46947479,-159.97290231,-28.39742100,-57.15614052,23.72994167,-14.23216165
4.51340051,-3.01238529,-0.48673759,2.62113087

>  <Name>
P117594918

>  <RI>
0

>  <Rbt.Current_Directory>
/home/fstefaniak/projects/zuza/docking/adenine/1Y26

>  <Rbt.Executable>
rbdock ($Id: //depot/dev/client3/rdock/2013.1/src/exe/rbdock.cxx#4 $)

>  <Rbt.Library>
libRbt.so (2013.1, Build901 2013/11/27)

>  <Rbt.Parameter_File>
/home/fstefaniak/progs/rDock//data/scripts/dock_solv.prm

>  <Rbt.Receptor>
1y26.prm

>  <SCORE>
-46.9071

>  <SCORE.INTER>
-28.7192

>  <SCORE.INTER.CONST>
1

>  <SCORE.INTER.POLAR>
-4.73063

>  <SCORE.INTER.ROT>
3

>  <SCORE.INTER.SOLV>
19.896

>  <SCORE.INTER.VDW>
-15.6094

>  <SCORE.INTER.norm>
-2.87192

>  <SCORE.INTRA>
2.24898

>  <SCORE.INTRA.DIHEDRAL>
3.96209

>  <SCORE.INTRA.DIHEDRAL.0>
0.879253

>  <SCORE.INTRA.POLAR>
0

>  <SCORE.INTRA.POLAR.0>
0

>  <SCORE.INTRA.REPUL>
0

>  <SCORE.INTRA.REPUL.0>
0

>  <SCORE.INTRA.SOLV>
-1.11971

>  <SCORE.INTRA.SOLV.lig_0>
-32.6496

>  <SCORE.INTRA.VDW>
0.827788

>  <SCORE.INTRA.VDW.0>
-0.0300844

>  <SCORE.INTRA.norm>
0.224898

>  <SCORE.RESTR>
0.995223

>  <SCORE.RESTR.CAVITY>
0.995223

>  <SCORE.RESTR.norm>
0.0995223

>  <SCORE.SYSTEM>
-21.4322

>  <SCORE.SYSTEM.CONST>
0

>  <SCORE.SYSTEM.DIHEDRAL>
6.63647

>  <SCORE.SYSTEM.POLAR>
-3.59507

>  <SCORE.SYSTEM.SOLV>
0.679394

>  <SCORE.SYSTEM.VDW>
-4.74315

>  <SCORE.SYSTEM.norm>
-2.14322

>  <SCORE.heavy>
10

>  <SCORE.norm>
-4.69071

$$$$
P117594918
 OpenBabel12072022103D
libRbt.so/2013.1/901 2013/11/27
 16 15  0  0  0  0  0  0  0  0999 V2000
   24.2705  -11.7400    4.3658 C   0  0  0  0  0  0  0  0  0  0  0  0
   23.9844  -13.1596    3.8360 C   0  0  0  0  0  0  0  0  0  0  0  0
   22.6129  -13.1409    3.1309 C   0  0  0  0  0  0  0  0  0  0  0  0
   25.0382  -13.4950    2.7516 C   0  0  0  0  0  0  0  0  0  0  0  0
   24.0436  -14.2433    4.9706 C   0  0  2  0  0  0  0  0  0  0  0  0
   24.4852  -15.6622    4.5238 C   0  0  0  0  0  0  0  0  0  0  0  0
   24.0624  -16.1560    3.4743 O   0  0  0  0  0  0  0  0  0  0  0  0
   25.2284  -16.4133    5.3724 N   0  0  0  0  0  0  0  0  0  0  0  0
   22.6957  -14.3767    5.6348 N   0  0  0  0  0  0  0  0  0  0  0  0
   22.3099  -13.1713    6.3179 N   0  3  0  0  0  0  0  0  0  0  0  0
   23.1040  -12.7984    6.8876 H   0  0  0  0  0  0  0  0  0  0  0  0
   21.9967  -12.4274    5.6747 H   0  0  0  0  0  0  0  0  0  0  0  0
   21.5324  -13.3429    6.9773 H   0  0  0  0  0  0  0  0  0  0  0  0
   25.5263  -16.1333    6.2987 H   0  0  0  0  0  0  0  0  0  0  0  0
   25.4962  -17.3485    5.0786 H   0  0  0  0  0  0  0  0  0  0  0  0
   22.7712  -15.1657    6.2967 H   0  0  0  0  0  0  0  0  0  0  0  0
  1  2  1  0  0  0  0
  2  3  1  0  0  0  0
  2  4  1  0  0  0  0
  5  6  1  6  0  0  0
  5  9  1  0  0  0  0
  5  2  1  0  0  0  0
  6  7  2  0  0  0  0
  6  8  1  0  0  0  0
  8 14  1  0  0  0  0
  8 15  1  0  0  0  0
  9 10  1  0  0  0  0
  9 16  1  0  0  0  0
 10 11  1  0  0  0  0
 10 12  1  0  0  0  0
 10 13  1  0  0  0  0
M  CHG  1  10   1
M  END
>  <CHROM.0>
-49.65214309,-72.98702122,-54.87963805,-53.87491691,-50.94541043,-175.51278243
-58.66575010,-52.83298538,-168.34310640,160.97477537

>  <CHROM.1>
-42.11290427,-64.48200306,-150.17998517,-45.98141738,23.84742458,-14.16250268
4.47955246,-2.26498677,-0.94587036,2.53717109

>  <Name>
P117594918

>  <RI>
0

>  <Rbt.Current_Directory>
/home/fstefaniak/projects/zuza/docking/adenine/1Y26

>  <Rbt.Executable>
rbdock ($Id: //depot/dev/client3/rdock/2013.1/src/exe/rbdock.cxx#4 $)

>  <Rbt.Library>
libRbt.so (2013.1, Build901 2013/11/27)

>  <Rbt.Parameter_File>
/home/fstefaniak/progs/rDock//data/scripts/dock_solv.prm

>  <Rbt.Receptor>
1y26.prm

>  <SCORE>
-45.868

>  <SCORE.INTER>
-29.1315

>  <SCORE.INTER.CONST>
1

>  <SCORE.INTER.POLAR>
-4.71729

>  <SCORE.INTER.ROT>
3

>  <SCORE.INTER.SOLV>
16.7659

>  <SCORE.INTER.VDW>
-14.8854

>  <SCORE.INTER.norm>
-2.91315

>  <SCORE.INTRA>
3.11582

>  <SCORE.INTRA.DIHEDRAL>
3.47644

>  <SCORE.INTRA.DIHEDRAL.0>
0.879253

>  <SCORE.INTRA.POLAR>
0

>  <SCORE.INTRA.POLAR.0>
0

>  <SCORE.INTRA.REPUL>
0

>  <SCORE.INTRA.REPUL.0>
0

>  <SCORE.INTRA.SOLV>
0.461759

>  <SCORE.INTRA.SOLV.lig_0>
-32.6496

>  <SCORE.INTRA.VDW>
1.14672

>  <SCORE.INTRA.VDW.0>
-0.0300844

>  <SCORE.INTRA.norm>
0.311582

>  <SCORE.RESTR>
1.82942

>  <SCORE.RESTR.CAVITY>
1.82942

>  <SCORE.RESTR.norm>
0.182942

>  <SCORE.SYSTEM>
-21.6817

>  <SCORE.SYSTEM.CONST>
0

>  <SCORE.SYSTEM.DIHEDRAL>
6.48603

>  <SCORE.SYSTEM.POLAR>
-3.43632

>  <SCORE.SYSTEM.SOLV>
0.516922

>  <SCORE.SYSTEM.VDW>
-5.33439

>  <SCORE.SYSTEM.norm>
-2.16817

>  <SCORE.heavy>
10

>  <SCORE.norm>
-4.5868

$$$$
P117751977
 OpenBabel12072022103D
libRbt.so/2013.1/901 2013/11/27
 13 13  0  0  0  0  0  0  0  0999 V2000
   19.6844  -18.6531    3.7153 C   0  0  0  0  0  0  0  0  0  0  0  0
   19.3612  -18.0592    5.0735 C   0  0  0  0  0  0  0  0  0  0  0  0
   20.3547  -16.9727    5.2756 N   0  3  0  0  0  0  0  0  0  0  0  0
   19.8179  -16.0573    5.3149 H   0  0  0  0  0  0  0  0  0  0  0  0
   20.8961  -17.0052    6.1417 H   0  0  0  0  0  0  0  0  0  0  0  0
   21.1966  -16.8536    4.0335 C   0  0  1  0  0  0  0  0  0  0  0  0
   20.3283  -17.5090    2.9478 C   0  0  1  0  0  0  0  0  0  0  0  0
   21.1051  -18.0241    1.8794 O   0  0  0  0  0  0  0  0  0  0  0  0
   21.6333  -15.4266    3.7666 C   0  0  0  0  0  0  0  0  0  0  0  0
   23.1115  -15.3712    4.0902 C   0  0  0  0  0  0  0  0  0  0  0  0
   23.3468  -15.5766    5.3226 O   0  0  0  0  0  0  0  0  0  0  0  0
   23.8590  -15.0107    3.1555 O   0  5  0  0  0  0  0  0  0  0  0  0
   20.5845  -18.7455    1.4725 H   0  0  0  0  0  0  0  0  0  0  0  0
  1  2  1  0  0  0  0
  1  7  1  0  0  0  0
  2  3  1  0  0  0  0
  3  4  1  0  0  0  0
  3  5  1  0  0  0  0
  3  6  1  0  0  0  0
  6  9  1  6  0  0  0
  6  7  1  0  0  0  0
  7  8  1  6  0  0  0
  8 13  1  0  0  0  0
  9 10  1  0  0  0  0
 10 11  2  0  0  0  0
 10 12  1  0  0  0  0
M  CHG  2   3   1  12  -1
M  END
>  <CHROM.0>
-44.88363282,42.34245076,-59.82115027,-56.35283604,-59.91731703,-177.68712155
-62.04436542,-169.90587173,-166.55674232,160.14898547

>  <CHROM.1>
107.47190329,42.07225826,-64.97048355,21.41912081,-16.74750571,3.91827437
-2.89429513,0.65362294,1.26206769

>  <Name>
P117751977

>  <RI>
0

>  <Rbt.Current_Directory>
/home/fstefaniak/projects/zuza/docking/adenine/1Y26

>  <Rbt.Executable>
rbdock ($Id: //depot/dev/client3/rdock/2013.1/src/exe/rbdock.cxx#4 $)

>  <Rbt.Library>
libRbt.so (2013.1, Build901 2013/11/27)

>  <Rbt.Parameter_File>
/home/fstefaniak/progs/rDock//data/scripts/dock_solv.prm

>  <Rbt.Receptor>
1y26.prm

>  <SCORE>
-45.9529

>  <SCORE.INTER>
-25.1458

>  <SCORE.INTER.CONST>
1

>  <SCORE.INTER.POLAR>
-5.29311

>  <SCORE.INTER.ROT>
2

>  <SCORE.INTER.SOLV>
23.6311

>  <SCORE.INTER.VDW>
-11.9305

>  <SCORE.INTER.norm>
-2.51458

>  <SCORE.INTRA>
0.573556

>  <SCORE.INTRA.DIHEDRAL>
5.03683

>  <SCORE.INTRA.DIHEDRAL.0>
2.52013

>  <SCORE.INTRA.POLAR>
0.41706

>  <SCORE.INTRA.POLAR.0>
-0.41706

>  <SCORE.INTRA.REPUL>
0

>  <SCORE.INTRA.REPUL.0>
0

>  <SCORE.INTRA.SOLV>
-5.20457

>  <SCORE.INTRA.SOLV.lig_0>
-45.1374

>  <SCORE.INTRA.VDW>
-0.760576

>  <SCORE.INTRA.VDW.0>
0.808091

>  <SCORE.INTRA.norm>
0.0573556

>  <SCORE.RESTR>
0

>  <SCORE.RESTR.CAVITY>
0

>  <SCORE.RESTR.norm>
0

>  <SCORE.SYSTEM>
-21.3807

>  <SCORE.SYSTEM.CONST>
0

>  <SCORE.SYSTEM.DIHEDRAL>
7.53573

>  <SCORE.SYSTEM.POLAR>
-3.55574

>  <SCORE.SYSTEM.SOLV>
0.388223

>  <SCORE.SYSTEM.VDW>
-5.04264

>  <SCORE.SYSTEM.norm>
-2.13807

>  <SCORE.heavy>
10

>  <SCORE.norm>
-4.59529

$$$$
P117751977
 OpenBabel12072022103D
libRbt.so/2013.1/901 2013/11/27
 13 13  0  0  0  0  0  0  0  0999 V2000
   24.0317  -13.3432    4.2946 C   0  0  0  0  0  0  0  0  0  0  0  0
   22.8647  -13.1577    5.2461 C   0  0  0  0  0  0  0  0  0  0  0  0
   21.9545  -14.3023    4.9820 N   0  3  0  0  0  0  0  0  0  0  0  0
   21.9215  -14.8900    5.8659 H   0  0  0  0  0  0  0  0  0  0  0  0
   20.9807  -14.0722    4.7748 H   0  0  0  0  0  0  0  0  0  0  0  0
   22.5987  -15.2041    3.9633 C   0  0  1  0  0  0  0  0  0  0  0  0
   24.0900  -14.8444    4.0585 C   0  0  1  0  0  0  0  0  0  0  0  0
   24.7839  -15.1146    2.8519 O   0  0  0  0  0  0  0  0  0  0  0  0
   22.2497  -16.6632    4.1811 C   0  0  0  0  0  0  0  0  0  0  0  0
   20.8371  -16.8397    3.6647 C   0  0  0  0  0  0  0  0  0  0  0  0
   20.0425  -17.2668    4.5606 O   0  0  0  0  0  0  0  0  0  0  0  0
   20.6835  -16.6736    2.4355 O   0  5  0  0  0  0  0  0  0  0  0  0
   25.7186  -14.8670    3.0009 H   0  0  0  0  0  0  0  0  0  0  0  0
  1  2  1  0  0  0  0
  1  7  1  0  0  0  0
  2  3  1  0  0  0  0
  3  4  1  0  0  0  0
  3  5  1  0  0  0  0
  3  6  1  0  0  0  0
  6  9  1  1  0  0  0
  6  7  1  0  0  0  0
  7  8  1  6  0  0  0
  8 13  1  0  0  0  0
  9 10  1  0  0  0  0
 10 11  2  0  0  0  0
 10 12  1  0  0  0  0
M  CHG  2   3   1  12  -1
M  END
>  <CHROM.0>
-52.59532005,-65.05574152,-55.18232168,-52.94923276,-56.98640940,-176.13506173
-55.95934445,-176.98249705,-167.29212650,160.42494690

>  <CHROM.1>
76.68889853,68.15269438,-121.37944001,22.40873004,-15.35065152,4.00955903
0.60328802,0.43482625,0.69699753

>  <Name>
P117751977

>  <RI>
0

>  <Rbt.Current_Directory>
/home/fstefaniak/projects/zuza/docking/adenine/1Y26

>  <Rbt.Executable>
rbdock ($Id: //depot/dev/client3/rdock/2013.1/src/exe/rbdock.cxx#4 $)

>  <Rbt.Library>
libRbt.so (2013.1, Build901 2013/11/27)

>  <Rbt.Parameter_File>
/home/fstefaniak/progs/rDock//data/scripts/dock_solv.prm

>  <Rbt.Receptor>
1y26.prm

>  <SCORE>
-45.4862

>  <SCORE.INTER>
-20.984

>  <SCORE.INTER.CONST>
1

>  <SCORE.INTER.POLAR>
-4.0323

>  <SCORE.INTER.ROT>
2

>  <SCORE.INTER.SOLV>
20.929

>  <SCORE.INTER.VDW>
-12.458

>  <SCORE.INTER.norm>
-2.0984

>  <SCORE.INTRA>
-2.05879

>  <SCORE.INTRA.DIHEDRAL>
0.277097

>  <SCORE.INTRA.DIHEDRAL.0>
2.52013

>  <SCORE.INTRA.POLAR>
0.41706

>  <SCORE.INTRA.POLAR.0>
-0.41706

>  <SCORE.INTRA.REPUL>
0

>  <SCORE.INTRA.REPUL.0>
0

>  <SCORE.INTRA.SOLV>
-4.33089

>  <SCORE.INTRA.SOLV.lig_0>
-45.1374

>  <SCORE.INTRA.VDW>
-1.4499

>  <SCORE.INTRA.VDW.0>
0.808091

>  <SCORE.INTRA.norm>
-0.205879

>  <SCORE.RESTR>
0

>  <SCORE.RESTR.CAVITY>
0

>  <SCORE.RESTR.norm>
0

>  <SCORE.SYSTEM>
-22.4434

>  <SCORE.SYSTEM.CONST>
0

>  <SCORE.SYSTEM.DIHEDRAL>
5.34869

>  <SCORE.SYSTEM.POLAR>
-3.41339

>  <SCORE.SYSTEM.SOLV>
0.313142

>  <SCORE.SYSTEM.VDW>
-5.47157

>  <SCORE.SYSTEM.norm>
-2.24434

>  <SCORE.heavy>
10

>  <SCORE.norm>
-4.54862

$$$$
P117751977
 OpenBabel12072022103D
libRbt.so/2013.1/901 2013/11/27
 13 13  0  0  0  0  0  0  0  0999 V2000
   19.8280  -18.1942    6.8380 C   0  0  0  0  0  0  0  0  0  0  0  0
   19.4182  -19.6501    6.7176 C   0  0  0  0  0  0  0  0  0  0  0  0
   18.8531  -19.7891    5.3502 N   0  3  0  0  0  0  0  0  0  0  0  0
   19.4855  -20.4519    4.8131 H   0  0  0  0  0  0  0  0  0  0  0  0
   17.9176  -20.1947    5.2824 H   0  0  0  0  0  0  0  0  0  0  0  0
   19.0019  -18.4744    4.6323 C   0  0  1  0  0  0  0  0  0  0  0  0
   20.1239  -17.7670    5.4088 C   0  0  1  0  0  0  0  0  0  0  0  0
   20.0413  -16.3556    5.3022 O   0  0  0  0  0  0  0  0  0  0  0  0
   19.2305  -18.6518    3.1442 C   0  0  0  0  0  0  0  0  0  0  0  0
   20.1817  -17.5488    2.7299 C   0  0  0  0  0  0  0  0  0  0  0  0
   21.3786  -17.9599    2.6085 O   0  0  0  0  0  0  0  0  0  0  0  0
   19.6964  -16.3974    2.6963 O   0  5  0  0  0  0  0  0  0  0  0  0
   20.7145  -15.9856    5.9081 H   0  0  0  0  0  0  0  0  0  0  0  0
  1  2  1  0  0  0  0
  1  7  1  0  0  0  0
  2  3  1  0  0  0  0
  3  4  1  0  0  0  0
  3  5  1  0  0  0  0
  3  6  1  0  0  0  0
  6  9  1  6  0  0  0
  6  7  1  0  0  0  0
  7  8  1  1  0  0  0
  8 13  1  0  0  0  0
  9 10  1  0  0  0  0
 10 11  2  0  0  0  0
 10 12  1  0  0  0  0
M  CHG  2   3   1  12  -1
M  END
>  <CHROM.0>
-50.28680521,-58.62066197,-53.68966580,-51.57372467,-175.46520190,-57.79692404
-59.14667234,-51.45369952,-167.29408165,160.32958063

>  <CHROM.1>
-144.47566887,60.74237996,100.86806356,19.78872320,-18.05411458,4.53666213
-2.30953271,-1.23267592,-1.80760891

>  <Name>
P117751977

>  <RI>
0

>  <Rbt.Current_Directory>
/home/fstefaniak/projects/zuza/docking/adenine/1Y26

>  <Rbt.Executable>
rbdock ($Id: //depot/dev/client3/rdock/2013.1/src/exe/rbdock.cxx#4 $)

>  <Rbt.Library>
libRbt.so (2013.1, Build901 2013/11/27)

>  <Rbt.Parameter_File>
/home/fstefaniak/progs/rDock//data/scripts/dock_solv.prm

>  <Rbt.Receptor>
1y26.prm

>  <SCORE>
-45.482

>  <SCORE.INTER>
-24.2093

>  <SCORE.INTER.CONST>
1

>  <SCORE.INTER.POLAR>
-4.36821

>  <SCORE.INTER.ROT>
2

>  <SCORE.INTER.SOLV>
27.4694

>  <SCORE.INTER.VDW>
-15.6687

>  <SCORE.INTER.norm>
-2.42093

>  <SCORE.INTRA>
0.90186

>  <SCORE.INTRA.DIHEDRAL>
2.15569

>  <SCORE.INTRA.DIHEDRAL.0>
2.52013

>  <SCORE.INTRA.POLAR>
0.41706

>  <SCORE.INTRA.POLAR.0>
-0.41706

>  <SCORE.INTRA.REPUL>
0

>  <SCORE.INTRA.REPUL.0>
0

>  <SCORE.INTRA.SOLV>
-3.71374

>  <SCORE.INTRA.SOLV.lig_0>
-45.1374

>  <SCORE.INTRA.VDW>
0.262881

>  <SCORE.INTRA.VDW.0>
0.808091

>  <SCORE.INTRA.norm>
0.090186

>  <SCORE.RESTR>
0

>  <SCORE.RESTR.CAVITY>
0

>  <SCORE.RESTR.norm>
0

>  <SCORE.SYSTEM>
-22.1745

>  <SCORE.SYSTEM.CONST>
0

>  <SCORE.SYSTEM.DIHEDRAL>
5.82661

>  <SCORE.SYSTEM.POLAR>
-3.5161

>  <SCORE.SYSTEM.SOLV>
0.509753

>  <SCORE.SYSTEM.VDW>
-5.17478

>  <SCORE.SYSTEM.norm>
-2.21745

>  <SCORE.heavy>
10

>  <SCORE.norm>
-4.5482

$$$$
P118224946
 OpenBabel12072022103D
libRbt.so/2013.1/901 2013/11/27
 16 16  0  0  0  0  0  0  0  0999 V2000
   19.2844  -19.2107    5.8031 C   0  0  0  0  0  0  0  0  0  0  0  0
   20.0173  -18.1027    6.1966 C   0  0  0  0  0  0  0  0  0  0  0  0
   20.3014  -17.0894    5.2745 C   0  0  0  0  0  0  0  0  0  0  0  0
   19.8610  -17.1169    3.9371 C   0  0  0  0  0  0  0  0  0  0  0  0
   19.0606  -18.2412    3.5741 C   0  0  0  0  0  0  0  0  0  0  0  0
   18.8189  -19.2857    4.4948 C   0  0  0  0  0  0  0  0  0  0  0  0
   18.5609  -18.3244    2.1673 C   0  0  0  0  0  0  0  0  0  0  0  0
   19.3022  -18.1109    1.0713 N   0  3  0  0  0  0  0  0  0  0  0  0
   18.8121  -18.1336    0.1826 H   0  0  0  0  0  0  0  0  0  0  0  0
   20.6811  -17.9565    1.1561 N   0  0  0  0  0  0  0  0  0  0  0  0
   17.2989  -18.6813    2.0214 N   0  0  0  0  0  0  0  0  0  0  0  0
   20.1882  -16.2050    3.1017 O   0  5  0  0  0  0  0  0  0  0  0  0
   21.1388  -18.8700    1.2624 H   0  0  0  0  0  0  0  0  0  0  0  0
   21.0438  -17.4999    0.3180 H   0  0  0  0  0  0  0  0  0  0  0  0
   17.1313  -19.0855    1.0778 H   0  0  0  0  0  0  0  0  0  0  0  0
   16.5171  -18.2864    2.5029 H   0  0  0  0  0  0  0  0  0  0  0  0
  1  2  2  0  0  0  0
  1  6  1  0  0  0  0
  2  3  1  0  0  0  0
  3  4  2  0  0  0  0
  4  5  1  0  0  0  0
  4 12  1  0  0  0  0
  5  6  2  0  0  0  0
  5  7  1  0  0  0  0
  7  8  2  0  0  0  0
  7 11  1  0  0  0  0
  8  9  1  0  0  0  0
  8 10  1  0  0  0  0
 10 13  1  0  0  0  0
 10 14  1  0  0  0  0
 11 15  1  0  0  0  0
 11 16  1  0  0  0  0
M  CHG  2   8   1  12  -1
M  END
>  <CHROM.0>
-48.99525408,-63.24994777,-55.25145749,-51.10146561,-56.49809611,-57.20698330
-61.45735994,-52.34109116,-166.92534041,161.33764462

>  <CHROM.1>
46.28156826,-156.89932226,78.47084772,19.39645633,-18.01208227,3.40136701
1.38138546,0.72079440,1.71479882

>  <Name>
P118224946

>  <RI>
0

>  <Rbt.Current_Directory>
/home/fstefaniak/projects/zuza/docking/adenine/1Y26

>  <Rbt.Executable>
rbdock ($Id: //depot/dev/client3/rdock/2013.1/src/exe/rbdock.cxx#4 $)

>  <Rbt.Library>
libRbt.so (2013.1, Build901 2013/11/27)

>  <Rbt.Parameter_File>
/home/fstefaniak/progs/rDock//data/scripts/dock_solv.prm

>  <Rbt.Receptor>
1y26.prm

>  <SCORE>
-58.5482

>  <SCORE.INTER>
-36.709

>  <SCORE.INTER.CONST>
1

>  <SCORE.INTER.POLAR>
-5.91704

>  <SCORE.INTER.ROT>
3

>  <SCORE.INTER.SOLV>
28.5044

>  <SCORE.INTER.VDW>
-19.8507

>  <SCORE.INTER.norm>
-3.33718

>  <SCORE.INTRA>
0.442172

>  <SCORE.INTRA.DIHEDRAL>
1.80833

>  <SCORE.INTRA.DIHEDRAL.0>
6.24323

>  <SCORE.INTRA.POLAR>
0

>  <SCORE.INTRA.POLAR.0>
0

>  <SCORE.INTRA.REPUL>
0

>  <SCORE.INTRA.REPUL.0>
0

>  <SCORE.INTRA.SOLV>
1.7506

>  <SCORE.INTRA.SOLV.lig_0>
-54.8477

>  <SCORE.INTRA.VDW>
-1.33729

>  <SCORE.INTRA.VDW.0>
0.0998396

>  <SCORE.INTRA.norm>
0.0401975

>  <SCORE.RESTR>
0

>  <SCORE.RESTR.CAVITY>
0

>  <SCORE.RESTR.norm>
0

>  <SCORE.SYSTEM>
-22.2814

>  <SCORE.SYSTEM.CONST>
0

>  <SCORE.SYSTEM.DIHEDRAL>
5.76275

>  <SCORE.SYSTEM.POLAR>
-3.50456

>  <SCORE.SYSTEM.SOLV>
0.665409

>  <SCORE.SYSTEM.VDW>
-5.31515

>  <SCORE.SYSTEM.norm>
-2.02558

>  <SCORE.heavy>
11

>  <SCORE.norm>
-5.32257

$$$$
P118224946
 OpenBabel12072022103D
libRbt.so/2013.1/901 2013/11/27
 16 16  0  0  0  0  0  0  0  0999 V2000
   19.2856  -19.1891    5.8172 C   0  0  0  0  0  0  0  0  0  0  0  0
   20.0489  -18.0958    6.1936 C   0  0  0  0  0  0  0  0  0  0  0  0
   20.3508  -17.0993    5.2590 C   0  0  0  0  0  0  0  0  0  0  0  0
   19.8992  -17.1292    3.9254 C   0  0  0  0  0  0  0  0  0  0  0  0
   19.0682  -18.2368    3.5802 C   0  0  0  0  0  0  0  0  0  0  0  0
   18.8079  -19.2657    4.5135 C   0  0  0  0  0  0  0  0  0  0  0  0
   18.5552  -18.3218    2.1782 C   0  0  0  0  0  0  0  0  0  0  0  0
   19.2841  -18.1013    1.0754 N   0  3  0  0  0  0  0  0  0  0  0  0
   18.7855  -18.1263    0.1915 H   0  0  0  0  0  0  0  0  0  0  0  0
   20.6627  -17.9368    1.1468 N   0  0  0  0  0  0  0  0  0  0  0  0
   17.2945  -18.6877    2.0442 N   0  0  0  0  0  0  0  0  0  0  0  0
   20.2422  -16.2343    3.0782 O   0  5  0  0  0  0  0  0  0  0  0  0
   21.1282  -18.8474    1.2447 H   0  0  0  0  0  0  0  0  0  0  0  0
   21.0133  -17.4742    0.3069 H   0  0  0  0  0  0  0  0  0  0  0  0
   17.1182  -19.0821    1.0981 H   0  0  0  0  0  0  0  0  0  0  0  0
   16.5157  -18.3053    2.5404 H   0  0  0  0  0  0  0  0  0  0  0  0
  1  2  2  0  0  0  0
  1  6  1  0  0  0  0
  2  3  1  0  0  0  0
  3  4  2  0  0  0  0
  4  5  1  0  0  0  0
  4 12  1  0  0  0  0
  5  6  2  0  0  0  0
  5  7  1  0  0  0  0
  7  8  2  0  0  0  0
  7 11  1  0  0  0  0
  8  9  1  0  0  0  0
  8 10  1  0  0  0  0
 10 13  1  0  0  0  0
 10 14  1  0  0  0  0
 11 15  1  0  0  0  0
 11 16  1  0  0  0  0
M  CHG  2   8   1  12  -1
M  END
>  <CHROM.0>
-53.50248995,-64.49764769,-52.19092782,-53.61522167,-173.70585508,-59.22660920
-58.88529039,-53.09604410,-167.94477064,161.38952997

>  <CHROM.1>
44.31305310,-157.53024578,78.62250908,19.40714556,-18.00989259,3.40242328
1.37603583,0.70288001,1.71805030

>  <Name>
P118224946

>  <RI>
0

>  <Rbt.Current_Directory>
/home/fstefaniak/projects/zuza/docking/adenine/1Y26

>  <Rbt.Executable>
rbdock ($Id: //depot/dev/client3/rdock/2013.1/src/exe/rbdock.cxx#4 $)

>  <Rbt.Library>
libRbt.so (2013.1, Build901 2013/11/27)

>  <Rbt.Parameter_File>
/home/fstefaniak/progs/rDock//data/scripts/dock_solv.prm

>  <Rbt.Receptor>
1y26.prm

>  <SCORE>
-58.3966

>  <SCORE.INTER>
-36.7231

>  <SCORE.INTER.CONST>
1

>  <SCORE.INTER.POLAR>
-5.91775

>  <SCORE.INTER.ROT>
3

>  <SCORE.INTER.SOLV>
28.2514

>  <SCORE.INTER.VDW>
-19.7734

>  <SCORE.INTER.norm>
-3.33846

>  <SCORE.INTRA>
0.442006

>  <SCORE.INTRA.DIHEDRAL>
1.37058

>  <SCORE.INTRA.DIHEDRAL.0>
6.24323

>  <SCORE.INTRA.POLAR>
0

>  <SCORE.INTRA.POLAR.0>
0

>  <SCORE.INTRA.REPUL>
0

>  <SCORE.INTRA.REPUL.0>
0

>  <SCORE.INTRA.SOLV>
1.89595

>  <SCORE.INTRA.SOLV.lig_0>
-54.8477

>  <SCORE.INTRA.VDW>
-1.19126

>  <SCORE.INTRA.VDW.0>
0.0998396

>  <SCORE.INTRA.norm>
0.0401824

>  <SCORE.RESTR>
0

>  <SCORE.RESTR.CAVITY>
0

>  <SCORE.RESTR.norm>
0

>  <SCORE.SYSTEM>
-22.1155

>  <SCORE.SYSTEM.CONST>
0

>  <SCORE.SYSTEM.DIHEDRAL>
5.36258

>  <SCORE.SYSTEM.POLAR>
-3.39605

>  <SCORE.SYSTEM.SOLV>
0.497028

>  <SCORE.SYSTEM.VDW>
-5.37672

>  <SCORE.SYSTEM.norm>
-2.0105

>  <SCORE.heavy>
11

>  <SCORE.norm>
-5.30878

$$$$
P118224946
 OpenBabel12072022103D
libRbt.so/2013.1/901 2013/11/27
 16 16  0  0  0  0  0  0  0  0999 V2000
   19.2923  -19.1855    5.8159 C   0  0  0  0  0  0  0  0  0  0  0  0
   20.0574  -18.0920    6.1880 C   0  0  0  0  0  0  0  0  0  0  0  0
   20.3612  -17.0998    5.2494 C   0  0  0  0  0  0  0  0  0  0  0  0
   19.9099  -17.1345    3.9158 C   0  0  0  0  0  0  0  0  0  0  0  0
   19.0772  -18.2421    3.5749 C   0  0  0  0  0  0  0  0  0  0  0  0
   18.8149  -19.2666    4.5123 C   0  0  0  0  0  0  0  0  0  0  0  0
   18.5645  -18.3319    2.1731 C   0  0  0  0  0  0  0  0  0  0  0  0
   19.2947  -18.1197    1.0695 N   0  3  0  0  0  0  0  0  0  0  0  0
   18.7964  -18.1472    0.1855 H   0  0  0  0  0  0  0  0  0  0  0  0
   20.6739  -17.9602    1.1408 N   0  0  0  0  0  0  0  0  0  0  0  0
   17.3024  -18.6936    2.0404 N   0  0  0  0  0  0  0  0  0  0  0  0
   20.2548  -16.2436    3.0650 O   0  5  0  0  0  0  0  0  0  0  0  0
   21.1354  -18.8715    1.2500 H   0  0  0  0  0  0  0  0  0  0  0  0
   21.0275  -17.5090    0.2960 H   0  0  0  0  0  0  0  0  0  0  0  0
   17.1122  -19.0410    1.0786 H   0  0  0  0  0  0  0  0  0  0  0  0
   16.5308  -18.3380    2.5667 H   0  0  0  0  0  0  0  0  0  0  0  0
  1  2  2  0  0  0  0
  1  6  1  0  0  0  0
  2  3  1  0  0  0  0
  3  4  2  0  0  0  0
  4  5  1  0  0  0  0
  4 12  1  0  0  0  0
  5  6  2  0  0  0  0
  5  7  1  0  0  0  0
  7  8  2  0  0  0  0
  7 11  1  0  0  0  0
  8  9  1  0  0  0  0
  8 10  1  0  0  0  0
 10 13  1  0  0  0  0
 10 14  1  0  0  0  0
 11 15  1  0  0  0  0
 11 16  1  0  0  0  0
M  CHG  2   8   1  12  -1
M  END
>  <CHROM.0>
65.59673428,-57.97466833,-57.85742083,-50.24754360,-57.93768692,-66.30719550
-61.08278715,-50.44050078,-167.09754108,160.57289065

>  <CHROM.1>
44.44694681,-160.79501844,78.22603985,19.41661295,-18.01691248,3.39641421
1.37697739,0.70027726,1.71281931

>  <Name>
P118224946

>  <RI>
0

>  <Rbt.Current_Directory>
/home/fstefaniak/projects/zuza/docking/adenine/1Y26

>  <Rbt.Executable>
rbdock ($Id: //depot/dev/client3/rdock/2013.1/src/exe/rbdock.cxx#4 $)

>  <Rbt.Library>
libRbt.so (2013.1, Build901 2013/11/27)

>  <Rbt.Parameter_File>
/home/fstefaniak/progs/rDock//data/scripts/dock_solv.prm

>  <Rbt.Receptor>
1y26.prm

>  <SCORE>
-57.4684

>  <SCORE.INTER>
-36.68

>  <SCORE.INTER.CONST>
1

>  <SCORE.INTER.POLAR>
-5.89655

>  <SCORE.INTER.ROT>
3

>  <SCORE.INTER.SOLV>
28.1935

>  <SCORE.INTER.VDW>
-19.796

>  <SCORE.INTER.norm>
-3.33455

>  <SCORE.INTRA>
0.455808

>  <SCORE.INTRA.DIHEDRAL>
1.40424

>  <SCORE.INTRA.DIHEDRAL.0>
6.24323

>  <SCORE.INTRA.POLAR>
0

>  <SCORE.INTRA.POLAR.0>
0

>  <SCORE.INTRA.REPUL>
0

>  <SCORE.INTRA.REPUL.0>
0

>  <SCORE.INTRA.SOLV>
1.88388

>  <SCORE.INTRA.SOLV.lig_0>
-54.8477

>  <SCORE.INTRA.VDW>
-1.18825

>  <SCORE.INTRA.VDW.0>
0.0998396

>  <SCORE.INTRA.norm>
0.0414371

>  <SCORE.RESTR>
0

>  <SCORE.RESTR.CAVITY>
0

>  <SCORE.RESTR.norm>
0

>  <SCORE.SYSTEM>
-21.2442

>  <SCORE.SYSTEM.CONST>
0

>  <SCORE.SYSTEM.DIHEDRAL>
5.63351

>  <SCORE.SYSTEM.POLAR>
-3.28414

>  <SCORE.SYSTEM.SOLV>
0.617018

>  <SCORE.SYSTEM.VDW>
-5.29917

>  <SCORE.SYSTEM.norm>
-1.93129

>  <SCORE.heavy>
11

>  <SCORE.norm>
-5.2244

$$$$
P121825487
 OpenBabel12072022103D
libRbt.so/2013.1/901 2013/11/27
  9  9  0  0  0  0  0  0  0  0999 V2000
   18.7742  -19.8832    5.8126 C   0  0  0  0  0  0  0  0  0  0  0  0
   19.1888  -19.2775    7.0252 C   0  0  0  0  0  0  0  0  0  0  0  0
   19.9521  -18.1772    6.6925 C   0  0  0  0  0  0  0  0  0  0  0  0
   20.0041  -18.1095    5.3326 N   0  0  0  0  0  0  0  0  0  0  0  0
   19.2971  -19.1337    4.7776 C   0  0  0  0  0  0  0  0  0  0  0  0
   20.7093  -17.0948    4.6636 N   0  0  0  0  0  0  0  0  0  0  0  0
   20.6819  -17.0400    3.3350 C   0  0  0  0  0  0  0  0  0  0  0  0
   20.6720  -16.9733    2.1797 N   0  0  0  0  0  0  0  0  0  0  0  0
   21.2217  -16.4302    5.2418 H   0  0  0  0  0  0  0  0  0  0  0  0
  1  2  1  0  0  0  0
  1  5  2  0  0  0  0
  2  3  2  0  0  0  0
  3  4  1  0  0  0  0
  4  5  1  0  0  0  0
  4  6  1  0  0  0  0
  6  7  1  0  0  0  0
  6  9  1  0  0  0  0
  7  8  3  0  0  0  0
M  END
>  <CHROM.0>
-52.47723778,-61.38969843,-55.00270831,-53.30978560,-57.66838758,-59.99402234
-60.85112557,-176.30202935,-166.23491317,160.64780656

>  <CHROM.1>
-177.13231733,19.93030818,-18.18275336,4.96987783,2.20365479,0.96416523,1.60393768

>  <Name>
P121825487

>  <RI>
0

>  <Rbt.Current_Directory>
/home/fstefaniak/projects/zuza/docking/adenine/1Y26

>  <Rbt.Executable>
rbdock ($Id: //depot/dev/client3/rdock/2013.1/src/exe/rbdock.cxx#4 $)

>  <Rbt.Library>
libRbt.so (2013.1, Build901 2013/11/27)

>  <Rbt.Parameter_File>
/home/fstefaniak/progs/rDock//data/scripts/dock_solv.prm

>  <Rbt.Receptor>
1y26.prm

>  <SCORE>
-43.7062

>  <SCORE.INTER>
-20.9645

>  <SCORE.INTER.CONST>
1

>  <SCORE.INTER.POLAR>
-1.86949

>  <SCORE.INTER.ROT>
1

>  <SCORE.INTER.SOLV>
9.60078

>  <SCORE.INTER.VDW>
-15.2116

>  <SCORE.INTER.norm>
-2.62056

>  <SCORE.INTRA>
0.0136484

>  <SCORE.INTRA.DIHEDRAL>
0.0315661

>  <SCORE.INTRA.DIHEDRAL.0>
2.08558e-06

>  <SCORE.INTRA.POLAR>
0

>  <SCORE.INTRA.POLAR.0>
0

>  <SCORE.INTRA.REPUL>
0

>  <SCORE.INTRA.REPUL.0>
0

>  <SCORE.INTRA.SOLV>
-0.000137143

>  <SCORE.INTRA.SOLV.lig_0>
-13.009

>  <SCORE.INTRA.VDW>
-0.00206606

>  <SCORE.INTRA.VDW.0>
0.0324262

>  <SCORE.INTRA.norm>
0.00170605

>  <SCORE.RESTR>
0

>  <SCORE.RESTR.CAVITY>
0

>  <SCORE.RESTR.norm>
0

>  <SCORE.SYSTEM>
-22.7553

>  <SCORE.SYSTEM.CONST>
0

>  <SCORE.SYSTEM.DIHEDRAL>
5.17905

>  <SCORE.SYSTEM.POLAR>
-3.41088

>  <SCORE.SYSTEM.SOLV>
0.443632

>  <SCORE.SYSTEM.VDW>
-5.67487

>  <SCORE.SYSTEM.norm>
-2.84442

>  <SCORE.heavy>
8

>  <SCORE.norm>
-5.46328

$$$$
P121825487
 OpenBabel12072022103D
libRbt.so/2013.1/901 2013/11/27
  9  9  0  0  0  0  0  0  0  0999 V2000
   18.8915  -19.9577    5.8424 C   0  0  0  0  0  0  0  0  0  0  0  0
   19.2291  -19.3052    7.0547 C   0  0  0  0  0  0  0  0  0  0  0  0
   19.9478  -18.1746    6.7241 C   0  0  0  0  0  0  0  0  0  0  0  0
   20.0475  -18.1340    5.3658 N   0  0  0  0  0  0  0  0  0  0  0  0
   19.4145  -19.2050    4.8098 C   0  0  0  0  0  0  0  0  0  0  0  0
   20.7252  -17.0992    4.6992 N   0  0  0  0  0  0  0  0  0  0  0  0
   20.6911  -17.0385    3.3710 C   0  0  0  0  0  0  0  0  0  0  0  0
   20.6748  -16.9663    2.2161 N   0  0  0  0  0  0  0  0  0  0  0  0
   21.2238  -16.4254    5.2786 H   0  0  0  0  0  0  0  0  0  0  0  0
  1  2  1  0  0  0  0
  1  5  2  0  0  0  0
  2  3  2  0  0  0  0
  3  4  1  0  0  0  0
  4  5  1  0  0  0  0
  4  6  1  0  0  0  0
  6  7  1  0  0  0  0
  6  9  1  0  0  0  0
  7  8  3  0  0  0  0
M  END
>  <CHROM.0>
-52.55461920,-61.81614028,-56.68702646,-52.69897081,-56.42767737,-60.92524812
-59.65274340,-177.81483041,-166.24516221,160.36724073

>  <CHROM.1>
-173.89754833,19.97236485,-18.20618781,5.00296862,2.23306625,1.01458104,1.57122704

>  <Name>
P121825487

>  <RI>
0

>  <Rbt.Current_Directory>
/home/fstefaniak/projects/zuza/docking/adenine/1Y26

>  <Rbt.Executable>
rbdock ($Id: //depot/dev/client3/rdock/2013.1/src/exe/rbdock.cxx#4 $)

>  <Rbt.Library>
libRbt.so (2013.1, Build901 2013/11/27)

>  <Rbt.Parameter_File>
/home/fstefaniak/progs/rDock//data/scripts/dock_solv.prm

>  <Rbt.Receptor>
1y26.prm

>  <SCORE>
-43.6474

>  <SCORE.INTER>
-20.9753

>  <SCORE.INTER.CONST>
1

>  <SCORE.INTER.POLAR>
-1.87464

>  <SCORE.INTER.ROT>
1

>  <SCORE.INTER.SOLV>
9.73869

>  <SCORE.INTER.VDW>
-15.2476

>  <SCORE.INTER.norm>
-2.62191

>  <SCORE.INTRA>
0.0621871

>  <SCORE.INTRA.DIHEDRAL>
0.143654

>  <SCORE.INTRA.DIHEDRAL.0>
2.08558e-06

>  <SCORE.INTRA.POLAR>
0

>  <SCORE.INTRA.POLAR.0>
0

>  <SCORE.INTRA.REPUL>
0

>  <SCORE.INTRA.REPUL.0>
0

>  <SCORE.INTRA.SOLV>
-0.000620249

>  <SCORE.INTRA.SOLV.lig_0>
-13.009

>  <SCORE.INTRA.VDW>
-0.00932983

>  <SCORE.INTRA.VDW.0>
0.0324262

>  <SCORE.INTRA.norm>
0.00777339

>  <SCORE.RESTR>
0

>  <SCORE.RESTR.CAVITY>
0

>  <SCORE.RESTR.norm>
0

>  <SCORE.SYSTEM>
-22.7343

>  <SCORE.SYSTEM.CONST>
0

>  <SCORE.SYSTEM.DIHEDRAL>
5.18559

>  <SCORE.SYSTEM.POLAR>
-3.4134

>  <SCORE.SYSTEM.SOLV>
0.44417

>  <SCORE.SYSTEM.VDW>
-5.65478

>  <SCORE.SYSTEM.norm>
-2.84179

>  <SCORE.heavy>
8

>  <SCORE.norm>
-5.45593

$$$$
P121825487
 OpenBabel12072022103D
libRbt.so/2013.1/901 2013/11/27
  9  9  0  0  0  0  0  0  0  0999 V2000
   18.8514  -19.9407    5.8142 C   0  0  0  0  0  0  0  0  0  0  0  0
   19.2180  -19.3084    7.0287 C   0  0  0  0  0  0  0  0  0  0  0  0
   19.9518  -18.1869    6.7006 C   0  0  0  0  0  0  0  0  0  0  0  0
   20.0327  -18.1322    5.3415 N   0  0  0  0  0  0  0  0  0  0  0  0
   19.3728  -19.1853    4.7826 C   0  0  0  0  0  0  0  0  0  0  0  0
   20.7191  -17.1018    4.6769 N   0  0  0  0  0  0  0  0  0  0  0  0
   20.6917  -17.0427    3.3484 C   0  0  0  0  0  0  0  0  0  0  0  0
   20.6814  -16.9718    2.1934 N   0  0  0  0  0  0  0  0  0  0  0  0
   21.2183  -16.4299    5.2579 H   0  0  0  0  0  0  0  0  0  0  0  0
  1  2  1  0  0  0  0
  1  5  2  0  0  0  0
  2  3  2  0  0  0  0
  3  4  1  0  0  0  0
  4  5  1  0  0  0  0
  4  6  1  0  0  0  0
  6  7  1  0  0  0  0
  6  9  1  0  0  0  0
  7  8  3  0  0  0  0
M  END
>  <CHROM.0>
-49.06082234,-62.78045810,-55.83343972,-52.68080003,-55.63698881,-61.38039415
-63.84616412,-176.41439546,-167.64752065,160.20052675

>  <CHROM.1>
-175.40835981,19.95969997,-18.20495927,4.97843370,2.22381507,0.99719452,1.58381110

>  <Name>
P121825487

>  <RI>
0

>  <Rbt.Current_Directory>
/home/fstefaniak/projects/zuza/docking/adenine/1Y26

>  <Rbt.Executable>
rbdock ($Id: //depot/dev/client3/rdock/2013.1/src/exe/rbdock.cxx#4 $)

>  <Rbt.Library>
libRbt.so (2013.1, Build901 2013/11/27)

>  <Rbt.Parameter_File>
/home/fstefaniak/progs/rDock//data/scripts/dock_solv.prm

>  <Rbt.Receptor>
1y26.prm

>  <SCORE>
-43.6461

>  <SCORE.INTER>
-20.9633

>  <SCORE.INTER.CONST>
1

>  <SCORE.INTER.POLAR>
-1.87172

>  <SCORE.INTER.ROT>
1

>  <SCORE.INTER.SOLV>
9.679

>  <SCORE.INTER.VDW>
-15.2295

>  <SCORE.INTER.norm>
-2.62042

>  <SCORE.INTRA>
0.0351664

>  <SCORE.INTRA.DIHEDRAL>
0.0812751

>  <SCORE.INTRA.DIHEDRAL.0>
2.08558e-06

>  <SCORE.INTRA.POLAR>
0

>  <SCORE.INTRA.POLAR.0>
0

>  <SCORE.INTRA.REPUL>
0

>  <SCORE.INTRA.REPUL.0>
0

>  <SCORE.INTRA.SOLV>
-0.000351399

>  <SCORE.INTRA.SOLV.lig_0>
-13.009

>  <SCORE.INTRA.VDW>
-0.00529544

>  <SCORE.INTRA.VDW.0>
0.0324262

>  <SCORE.INTRA.norm>
0.0043958

>  <SCORE.RESTR>
0

>  <SCORE.RESTR.CAVITY>
0

>  <SCORE.RESTR.norm>
0

>  <SCORE.SYSTEM>
-22.718

>  <SCORE.SYSTEM.CONST>
0

>  <SCORE.SYSTEM.DIHEDRAL>
5.54841

>  <SCORE.SYSTEM.POLAR>
-3.45472

>  <SCORE.SYSTEM.SOLV>
0.438152

>  <SCORE.SYSTEM.VDW>
-5.62511

>  <SCORE.SYSTEM.norm>
-2.83975

>  <SCORE.heavy>
8

>  <SCORE.norm>
-5.45577

$$$$
P121991601
 OpenBabel12072022103D
libRbt.so/2013.1/901 2013/11/27
 14 13  0  0  0  0  0  0  0  0999 V2000
   22.3970  -12.4637    4.1848 C   0  0  0  0  0  0  0  0  0  0  0  0
   22.3182  -13.8167    4.8925 C   0  0  1  0  0  0  0  0  0  0  0  0
   23.4878  -14.7372    4.4955 C   0  0  0  0  0  0  0  0  0  0  0  0
   23.3648  -16.2235    4.8864 C   0  0  0  0  0  0  0  0  0  0  0  0
   24.5786  -17.1117    4.6364 C   0  0  0  0  0  0  0  0  0  0  0  0
   25.7483  -16.6315    5.3857 N   0  3  0  0  0  0  0  0  0  0  0  0
   26.3932  -17.4418    5.5269 H   0  0  0  0  0  0  0  0  0  0  0  0
   26.3270  -15.9754    4.8445 H   0  0  0  0  0  0  0  0  0  0  0  0
   25.5376  -16.2400    6.3067 H   0  0  0  0  0  0  0  0  0  0  0  0
   22.2984  -13.6247    6.3413 N   0  0  0  0  0  0  0  0  0  0  0  0
   21.1006  -14.4688    4.5917 O   0  0  0  0  0  0  0  0  0  0  0  0
   21.3166  -13.6662    6.6465 H   0  0  0  0  0  0  0  0  0  0  0  0
   22.6874  -14.4874    6.7471 H   0  0  0  0  0  0  0  0  0  0  0  0
   21.0373  -14.5352    3.6186 H   0  0  0  0  0  0  0  0  0  0  0  0
  2  1  1  6  0  0  0
  2  3  1  0  0  0  0
  2 10  1  0  0  0  0
  2 11  1  0  0  0  0
  3  4  1  0  0  0  0
  4  5  1  0  0  0  0
  5  6  1  0  0  0  0
  6  7  1  0  0  0  0
  6  8  1  0  0  0  0
  6  9  1  0  0  0  0
 10 12  1  0  0  0  0
 10 13  1  0  0  0  0
 11 14  1  0  0  0  0
M  CHG  1   6   1
M  END
>  <CHROM.0>
-49.84856702,-77.98836978,-50.95964106,-51.43742906,-53.96136719,-62.87333019
-47.84016697,-171.30021467,-166.45783778,-58.49549468

>  <CHROM.1>
-166.89454621,97.61912850,55.67048225,-173.46724239,60.13411353,155.85273658
23.17173036,-14.90102729,4.95016749,-2.36575437,0.27433715,-2.92711325

>  <Name>
P121991601

>  <RI>
0

>  <Rbt.Current_Directory>
/home/fstefaniak/projects/zuza/docking/adenine/1Y26

>  <Rbt.Executable>
rbdock ($Id: //depot/dev/client3/rdock/2013.1/src/exe/rbdock.cxx#4 $)

>  <Rbt.Library>
libRbt.so (2013.1, Build901 2013/11/27)

>  <Rbt.Parameter_File>
/home/fstefaniak/progs/rDock//data/scripts/dock_solv.prm

>  <Rbt.Receptor>
1y26.prm

>  <SCORE>
-59.6104

>  <SCORE.INTER>
-39.9445

>  <SCORE.INTER.CONST>
1

>  <SCORE.INTER.POLAR>
-7.38948

>  <SCORE.INTER.ROT>
4

>  <SCORE.INTER.SOLV>
23.7926

>  <SCORE.INTER.VDW>
-16.1956

>  <SCORE.INTER.norm>
-4.99307

>  <SCORE.INTRA>
-0.748686

>  <SCORE.INTRA.DIHEDRAL>
-0.591823

>  <SCORE.INTRA.DIHEDRAL.0>
4.4784

>  <SCORE.INTRA.POLAR>
1.08249

>  <SCORE.INTRA.POLAR.0>
-1.08249

>  <SCORE.INTRA.REPUL>
0

>  <SCORE.INTRA.REPUL.0>
0

>  <SCORE.INTRA.SOLV>
-6.70565

>  <SCORE.INTRA.SOLV.lig_0>
-24.7684

>  <SCORE.INTRA.VDW>
-0.780424

>  <SCORE.INTRA.VDW.0>
1.76664

>  <SCORE.INTRA.norm>
-0.0935857

>  <SCORE.RESTR>
0

>  <SCORE.RESTR.CAVITY>
0

>  <SCORE.RESTR.norm>
0

>  <SCORE.SYSTEM>
-18.9172

>  <SCORE.SYSTEM.CONST>
0

>  <SCORE.SYSTEM.DIHEDRAL>
6.8028

>  <SCORE.SYSTEM.POLAR>
-2.71885

>  <SCORE.SYSTEM.SOLV>
0.537628

>  <SCORE.SYSTEM.VDW>
-5.99541

>  <SCORE.SYSTEM.norm>
-2.36464

>  <SCORE.heavy>
8

>  <SCORE.norm>
-7.4513

$$$$
P121991601
 OpenBabel12072022103D
libRbt.so/2013.1/901 2013/11/27
 14 13  0  0  0  0  0  0  0  0999 V2000
   19.3081  -18.5649    7.2227 C   0  0  0  0  0  0  0  0  0  0  0  0
   18.7323  -19.1187    5.9191 C   0  0  1  0  0  0  0  0  0  0  0  0
   19.2068  -18.3100    4.6969 C   0  0  0  0  0  0  0  0  0  0  0  0
   18.4501  -18.5434    3.3740 C   0  0  0  0  0  0  0  0  0  0  0  0
   19.1240  -18.0647    2.0928 C   0  0  0  0  0  0  0  0  0  0  0  0
   18.6051  -18.7852    0.9216 N   0  3  0  0  0  0  0  0  0  0  0  0
   18.7870  -18.1971    0.0770 H   0  0  0  0  0  0  0  0  0  0  0  0
   19.1327  -19.6439    0.7154 H   0  0  0  0  0  0  0  0  0  0  0  0
   17.6024  -18.9847    0.9493 H   0  0  0  0  0  0  0  0  0  0  0  0
   19.1002  -20.5249    5.7655 N   0  0  0  0  0  0  0  0  0  0  0  0
   17.3192  -19.1102    5.9524 O   0  0  0  0  0  0  0  0  0  0  0  0
   18.2577  -21.0354    5.4682 H   0  0  0  0  0  0  0  0  0  0  0  0
   19.6906  -20.5733    4.9232 H   0  0  0  0  0  0  0  0  0  0  0  0
   17.0398  -19.7269    6.6575 H   0  0  0  0  0  0  0  0  0  0  0  0
  2  1  1  1  0  0  0
  2  3  1  0  0  0  0
  2 10  1  0  0  0  0
  2 11  1  0  0  0  0
  3  4  1  0  0  0  0
  4  5  1  0  0  0  0
  5  6  1  0  0  0  0
  6  7  1  0  0  0  0
  6  8  1  0  0  0  0
  6  9  1  0  0  0  0
 10 12  1  0  0  0  0
 10 13  1  0  0  0  0
 11 14  1  0  0  0  0
M  CHG  1   6   1
M  END
>  <CHROM.0>
-53.17460578,174.38819614,-50.86060697,-49.26984471,-52.69990653,-63.79200116
-56.06320238,-175.47666463,-166.05356531,162.76221918

>  <CHROM.1>
-165.91573323,134.79333905,-64.45678759,-163.60226195,157.50925147,157.81121645
18.69632823,-18.91601895,4.44755567,-1.59560982,-1.00504886,-1.45039702

>  <Name>
P121991601

>  <RI>
0

>  <Rbt.Current_Directory>
/home/fstefaniak/projects/zuza/docking/adenine/1Y26

>  <Rbt.Executable>
rbdock ($Id: //depot/dev/client3/rdock/2013.1/src/exe/rbdock.cxx#4 $)

>  <Rbt.Library>
libRbt.so (2013.1, Build901 2013/11/27)

>  <Rbt.Parameter_File>
/home/fstefaniak/progs/rDock//data/scripts/dock_solv.prm

>  <Rbt.Receptor>
1y26.prm

>  <SCORE>
-59.3499

>  <SCORE.INTER>
-37.424

>  <SCORE.INTER.CONST>
1

>  <SCORE.INTER.POLAR>
-7.53311

>  <SCORE.INTER.ROT>
4

>  <SCORE.INTER.SOLV>
21.8864

>  <SCORE.INTER.VDW>
-13.4011

>  <SCORE.INTER.norm>
-4.678

>  <SCORE.INTRA>
0.417896

>  <SCORE.INTRA.DIHEDRAL>
2.68911

>  <SCORE.INTRA.DIHEDRAL.0>
4.4784

>  <SCORE.INTRA.POLAR>
1.08249

>  <SCORE.INTRA.POLAR.0>
-1.08249

>  <SCORE.INTRA.REPUL>
0

>  <SCORE.INTRA.REPUL.0>
0

>  <SCORE.INTRA.SOLV>
-7.75359

>  <SCORE.INTRA.SOLV.lig_0>
-24.7684

>  <SCORE.INTRA.VDW>
-0.730342

>  <SCORE.INTRA.VDW.0>
1.76664

>  <SCORE.INTRA.norm>
0.0522371

>  <SCORE.RESTR>
0

>  <SCORE.RESTR.CAVITY>
0

>  <SCORE.RESTR.norm>
0

>  <SCORE.SYSTEM>
-22.3439

>  <SCORE.SYSTEM.CONST>
0

>  <SCORE.SYSTEM.DIHEDRAL>
5.95296

>  <SCORE.SYSTEM.POLAR>
-3.45111

>  <SCORE.SYSTEM.SOLV>
0.417298

>  <SCORE.SYSTEM.VDW>
-5.51561

>  <SCORE.SYSTEM.norm>
-2.79298

>  <SCORE.heavy>
8

>  <SCORE.norm>
-7.41874

$$$$
P121991601
 OpenBabel12072022103D
libRbt.so/2013.1/901 2013/11/27
 14 13  0  0  0  0  0  0  0  0999 V2000
   22.4904  -12.4859    3.9727 C   0  0  0  0  0  0  0  0  0  0  0  0
   22.4061  -13.8138    4.7258 C   0  0  1  0  0  0  0  0  0  0  0  0
   23.5146  -14.7895    4.2876 C   0  0  0  0  0  0  0  0  0  0  0  0
   23.4145  -16.2353    4.8137 C   0  0  0  0  0  0  0  0  0  0  0  0
   24.6239  -17.1390    4.6003 C   0  0  0  0  0  0  0  0  0  0  0  0
   25.7724  -16.6816    5.3953 N   0  3  0  0  0  0  0  0  0  0  0  0
   26.3075  -15.9935    4.8187 H   0  0  0  0  0  0  0  0  0  0  0  0
   25.4944  -16.1219    6.2124 H   0  0  0  0  0  0  0  0  0  0  0  0
   26.4215  -17.4200    5.6769 H   0  0  0  0  0  0  0  0  0  0  0  0
   22.4829  -13.5793    6.1665 N   0  0  0  0  0  0  0  0  0  0  0  0
   21.1494  -14.4273    4.5200 O   0  0  0  0  0  0  0  0  0  0  0  0
   22.6655  -14.4853    6.6190 H   0  0  0  0  0  0  0  0  0  0  0  0
   23.3674  -13.0765    6.3252 H   0  0  0  0  0  0  0  0  0  0  0  0
   21.0291  -14.5306    3.5555 H   0  0  0  0  0  0  0  0  0  0  0  0
  2  1  1  6  0  0  0
  2  3  1  0  0  0  0
  2 10  1  0  0  0  0
  2 11  1  0  0  0  0
  3  4  1  0  0  0  0
  4  5  1  0  0  0  0
  5  6  1  0  0  0  0
  6  7  1  0  0  0  0
  6  8  1  0  0  0  0
  6  9  1  0  0  0  0
 10 12  1  0  0  0  0
 10 13  1  0  0  0  0
 11 14  1  0  0  0  0
M  CHG  1   6   1
M  END
>  <CHROM.0>
62.62536151,-85.62705671,-56.02528553,-58.70707747,-177.08109902,-64.40616375
-56.60859940,-178.65020497,-163.23860766,160.72489455

>  <CHROM.1>
-171.06864484,-165.75503168,56.43900730,-169.24670357,67.16526722,-88.89509388
23.25453954,-14.90322761,4.83621295,-2.36862456,0.36316918,-2.90101799

>  <Name>
P121991601

>  <RI>
0

>  <Rbt.Current_Directory>
/home/fstefaniak/projects/zuza/docking/adenine/1Y26

>  <Rbt.Executable>
rbdock ($Id: //depot/dev/client3/rdock/2013.1/src/exe/rbdock.cxx#4 $)

>  <Rbt.Library>
libRbt.so (2013.1, Build901 2013/11/27)

>  <Rbt.Parameter_File>
/home/fstefaniak/progs/rDock//data/scripts/dock_solv.prm

>  <Rbt.Receptor>
1y26.prm

>  <SCORE>
-59.3061

>  <SCORE.INTER>
-38.1935

>  <SCORE.INTER.CONST>
1

>  <SCORE.INTER.POLAR>
-7.01586

>  <SCORE.INTER.ROT>
4

>  <SCORE.INTER.SOLV>
23.2756

>  <SCORE.INTER.VDW>
-16.1013

>  <SCORE.INTER.norm>
-4.77419

>  <SCORE.INTRA>
-0.798072

>  <SCORE.INTRA.DIHEDRAL>
-1.23193

>  <SCORE.INTRA.DIHEDRAL.0>
4.4784

>  <SCORE.INTRA.POLAR>
1.08249

>  <SCORE.INTRA.POLAR.0>
-1.08249

>  <SCORE.INTRA.REPUL>
0

>  <SCORE.INTRA.REPUL.0>
0

>  <SCORE.INTRA.SOLV>
-6.69708

>  <SCORE.INTRA.SOLV.lig_0>
-24.7684

>  <SCORE.INTRA.VDW>
-0.514039

>  <SCORE.INTRA.VDW.0>
1.76664

>  <SCORE.INTRA.norm>
-0.099759

>  <SCORE.RESTR>
0

>  <SCORE.RESTR.CAVITY>
0

>  <SCORE.RESTR.norm>
0

>  <SCORE.SYSTEM>
-20.3145

>  <SCORE.SYSTEM.CONST>
0

>  <SCORE.SYSTEM.DIHEDRAL>
7.85784

>  <SCORE.SYSTEM.POLAR>
-3.10562

>  <SCORE.SYSTEM.SOLV>
0.221224

>  <SCORE.SYSTEM.VDW>
-5.88395

>  <SCORE.SYSTEM.norm>
-2.53931

>  <SCORE.heavy>
8

>  <SCORE.norm>
-7.41326

$$$$
P123254707
 OpenBabel12072022103D
libRbt.so/2013.1/901 2013/11/27
 10  9  0  0  0  0  0  0  0  0999 V2000
   21.1870  -15.3694    4.0699 C   0  0  0  0  0  0  0  0  0  0  0  0
   20.7386  -16.7216    3.5516 C   0  0  0  0  0  0  0  0  0  0  0  0
   19.3423  -16.6954    3.1667 N   0  0  0  0  0  0  0  0  0  0  0  0
   18.6996  -17.8612    2.8347 C   0  0  0  0  0  0  0  0  0  0  0  0
   17.9951  -18.5235    3.5884 O   0  0  0  0  0  0  0  0  0  0  0  0
   18.9444  -18.2353    1.5303 N   0  0  0  0  0  0  0  0  0  0  0  0
   17.7755  -18.6476    0.8318 O   0  0  0  0  0  0  0  0  0  0  0  0
   18.7551  -16.0255    3.6445 H   0  0  0  0  0  0  0  0  0  0  0  0
   19.7418  -18.8437    1.3826 H   0  0  0  0  0  0  0  0  0  0  0  0
   17.8734  -18.1844   -0.0303 H   0  0  0  0  0  0  0  0  0  0  0  0
  1  2  1  0  0  0  0
  2  3  1  0  0  0  0
  3  4  1  0  0  0  0
  3  8  1  0  0  0  0
  4  5  2  0  0  0  0
  4  6  1  0  0  0  0
  6  7  1  0  0  0  0
  6  9  1  0  0  0  0
  7 10  1  0  0  0  0
M  END
>  <CHROM.0>
-49.52249635,60.39567569,-52.76964372,-49.36405429,-53.94619340,-55.33438911
-53.74946723,-53.84836761,-165.14928472,162.41928289

>  <CHROM.1>
-171.61418296,97.38954385,-134.92902900,135.05861501,19.20527283,-17.45880091
2.75291534,-0.63304572,-0.69550733,-1.70737015

>  <Name>
P123254707

>  <RI>
0

>  <Rbt.Current_Directory>
/home/fstefaniak/projects/zuza/docking/adenine/1Y26

>  <Rbt.Executable>
rbdock ($Id: //depot/dev/client3/rdock/2013.1/src/exe/rbdock.cxx#4 $)

>  <Rbt.Library>
libRbt.so (2013.1, Build901 2013/11/27)

>  <Rbt.Parameter_File>
/home/fstefaniak/progs/rDock//data/scripts/dock_solv.prm

>  <Rbt.Receptor>
1y26.prm

>  <SCORE>
-53.6318

>  <SCORE.INTER>
-31.017

>  <SCORE.INTER.CONST>
1

>  <SCORE.INTER.POLAR>
-5.58764

>  <SCORE.INTER.ROT>
3

>  <SCORE.INTER.SOLV>
13.3575

>  <SCORE.INTER.VDW>
-12.1051

>  <SCORE.INTER.norm>
-4.431

>  <SCORE.INTRA>
-1.34627

>  <SCORE.INTRA.DIHEDRAL>
0.291794

>  <SCORE.INTRA.DIHEDRAL.0>
1.95717

>  <SCORE.INTRA.POLAR>
0

>  <SCORE.INTRA.POLAR.0>
0

>  <SCORE.INTRA.REPUL>
0

>  <SCORE.INTRA.REPUL.0>
0

>  <SCORE.INTRA.SOLV>
-0.0484335

>  <SCORE.INTRA.SOLV.lig_0>
-19.9364

>  <SCORE.INTRA.VDW>
-1.46795

>  <SCORE.INTRA.VDW.0>
1.276

>  <SCORE.INTRA.norm>
-0.192325

>  <SCORE.RESTR>
0

>  <SCORE.RESTR.CAVITY>
0

>  <SCORE.RESTR.norm>
0

>  <SCORE.SYSTEM>
-21.2685

>  <SCORE.SYSTEM.CONST>
0

>  <SCORE.SYSTEM.DIHEDRAL>
6.25786

>  <SCORE.SYSTEM.POLAR>
-3.54118

>  <SCORE.SYSTEM.SOLV>
0.731814

>  <SCORE.SYSTEM.VDW>
-4.70496

>  <SCORE.SYSTEM.norm>
-3.03836

>  <SCORE.heavy>
7

>  <SCORE.norm>
-7.66169

$$$$
P123254707
 OpenBabel12072022103D
libRbt.so/2013.1/901 2013/11/27
 10  9  0  0  0  0  0  0  0  0999 V2000
   21.1401  -15.3603    4.1568 C   0  0  0  0  0  0  0  0  0  0  0  0
   20.7639  -16.6630    3.4787 C   0  0  0  0  0  0  0  0  0  0  0  0
   19.3512  -16.6955    3.1596 N   0  0  0  0  0  0  0  0  0  0  0  0
   18.7476  -17.8842    2.8358 C   0  0  0  0  0  0  0  0  0  0  0  0
   18.1798  -18.6307    3.6254 O   0  0  0  0  0  0  0  0  0  0  0  0
   18.8592  -18.1738    1.4923 N   0  0  0  0  0  0  0  0  0  0  0  0
   17.6104  -18.1834    0.8107 O   0  0  0  0  0  0  0  0  0  0  0  0
   18.7572  -16.0617    3.6766 H   0  0  0  0  0  0  0  0  0  0  0  0
   19.4588  -18.9553    1.2526 H   0  0  0  0  0  0  0  0  0  0  0  0
   17.2864  -19.0962    0.9817 H   0  0  0  0  0  0  0  0  0  0  0  0
  1  2  1  0  0  0  0
  2  3  1  0  0  0  0
  3  4  1  0  0  0  0
  3  8  1  0  0  0  0
  4  5  2  0  0  0  0
  4  6  1  0  0  0  0
  6  7  1  0  0  0  0
  6  9  1  0  0  0  0
  7 10  1  0  0  0  0
M  END
>  <CHROM.0>
-45.77959690,48.45248092,-54.77732884,-55.85146342,-170.68301673,-55.49138960
-61.47111703,-52.86415562,-167.04872034,160.94313081

>  <CHROM.1>
-164.70668683,92.71467477,-114.71973746,-84.53986821,19.19178822,-17.39937553
2.76098214,-0.44064309,-0.78576971,-1.40387920

>  <Name>
P123254707

>  <RI>
0

>  <Rbt.Current_Directory>
/home/fstefaniak/projects/zuza/docking/adenine/1Y26

>  <Rbt.Executable>
rbdock ($Id: //depot/dev/client3/rdock/2013.1/src/exe/rbdock.cxx#4 $)

>  <Rbt.Library>
libRbt.so (2013.1, Build901 2013/11/27)

>  <Rbt.Parameter_File>
/home/fstefaniak/progs/rDock//data/scripts/dock_solv.prm

>  <Rbt.Receptor>
1y26.prm

>  <SCORE>
-53.5193

>  <SCORE.INTER>
-30.9358

>  <SCORE.INTER.CONST>
1

>  <SCORE.INTER.POLAR>
-5.71495

>  <SCORE.INTER.ROT>
3

>  <SCORE.INTER.SOLV>
13.394

>  <SCORE.INTER.VDW>
-11.6387

>  <SCORE.INTER.norm>
-4.41939

>  <SCORE.INTRA>
-1.25482

>  <SCORE.INTRA.DIHEDRAL>
0.24514

>  <SCORE.INTRA.DIHEDRAL.0>
1.95717

>  <SCORE.INTRA.POLAR>
0

>  <SCORE.INTRA.POLAR.0>
0

>  <SCORE.INTRA.REPUL>
0

>  <SCORE.INTRA.REPUL.0>
0

>  <SCORE.INTRA.SOLV>
0.0200946

>  <SCORE.INTRA.SOLV.lig_0>
-19.9364

>  <SCORE.INTRA.VDW>
-1.38744

>  <SCORE.INTRA.VDW.0>
1.276

>  <SCORE.INTRA.norm>
-0.17926

>  <SCORE.RESTR>
0

>  <SCORE.RESTR.CAVITY>
0

>  <SCORE.RESTR.norm>
0

>  <SCORE.SYSTEM>
-21.3287

>  <SCORE.SYSTEM.CONST>
0

>  <SCORE.SYSTEM.DIHEDRAL>
6.83792

>  <SCORE.SYSTEM.POLAR>
-3.54298

>  <SCORE.SYSTEM.SOLV>
0.579354

>  <SCORE.SYSTEM.VDW>
-4.88163

>  <SCORE.SYSTEM.norm>
-3.04696

>  <SCORE.heavy>
7

>  <SCORE.norm>
-7.64561

$$$$
P123254707
 OpenBabel12072022103D
libRbt.so/2013.1/901 2013/11/27
 10  9  0  0  0  0  0  0  0  0999 V2000
   21.1144  -15.3179    4.1223 C   0  0  0  0  0  0  0  0  0  0  0  0
   20.7407  -16.6477    3.4976 C   0  0  0  0  0  0  0  0  0  0  0  0
   19.3327  -16.6875    3.1594 N   0  0  0  0  0  0  0  0  0  0  0  0
   18.7320  -17.8842    2.8603 C   0  0  0  0  0  0  0  0  0  0  0  0
   18.1092  -18.5837    3.6513 O   0  0  0  0  0  0  0  0  0  0  0  0
   18.9167  -18.2420    1.5415 N   0  0  0  0  0  0  0  0  0  0  0  0
   17.7062  -18.5718    0.8707 O   0  0  0  0  0  0  0  0  0  0  0  0
   18.7324  -16.0390    3.6502 H   0  0  0  0  0  0  0  0  0  0  0  0
   19.6732  -18.8911    1.3569 H   0  0  0  0  0  0  0  0  0  0  0  0
   17.8259  -18.1349   -0.0024 H   0  0  0  0  0  0  0  0  0  0  0  0
  1  2  1  0  0  0  0
  2  3  1  0  0  0  0
  3  4  1  0  0  0  0
  3  8  1  0  0  0  0
  4  5  2  0  0  0  0
  4  6  1  0  0  0  0
  6  7  1  0  0  0  0
  6  9  1  0  0  0  0
  7 10  1  0  0  0  0
M  END
>  <CHROM.0>
-50.14721617,57.60750738,58.36459296,-53.01229708,-60.75712239,-59.70630344
72.53619632,-53.66185545,-167.09327277,160.79119609

>  <CHROM.1>
-165.70913343,95.59555990,-128.39294431,137.92679958,19.19933864,-17.44161986
2.77239481,-0.56742745,-0.75701795,-1.60838608

>  <Name>
P123254707

>  <RI>
0

>  <Rbt.Current_Directory>
/home/fstefaniak/projects/zuza/docking/adenine/1Y26

>  <Rbt.Executable>
rbdock ($Id: //depot/dev/client3/rdock/2013.1/src/exe/rbdock.cxx#4 $)

>  <Rbt.Library>
libRbt.so (2013.1, Build901 2013/11/27)

>  <Rbt.Parameter_File>
/home/fstefaniak/progs/rDock//data/scripts/dock_solv.prm

>  <Rbt.Receptor>
1y26.prm

>  <SCORE>
-52.6717

>  <SCORE.INTER>
-31.2414

>  <SCORE.INTER.CONST>
1

>  <SCORE.INTER.POLAR>
-5.6582

>  <SCORE.INTER.ROT>
3

>  <SCORE.INTER.SOLV>
13.3507

>  <SCORE.INTER.VDW>
-12.0172

>  <SCORE.INTER.norm>
-4.46306

>  <SCORE.INTRA>
-1.18865

>  <SCORE.INTRA.DIHEDRAL>
0.517684

>  <SCORE.INTRA.DIHEDRAL.0>
1.95717

>  <SCORE.INTRA.POLAR>
0

>  <SCORE.INTRA.POLAR.0>
0

>  <SCORE.INTRA.REPUL>
0

>  <SCORE.INTRA.REPUL.0>
0

>  <SCORE.INTRA.SOLV>
-0.0556787

>  <SCORE.INTRA.SOLV.lig_0>
-19.9364

>  <SCORE.INTRA.VDW>
-1.41965

>  <SCORE.INTRA.VDW.0>
1.276

>  <SCORE.INTRA.norm>
-0.169806

>  <SCORE.RESTR>
0

>  <SCORE.RESTR.CAVITY>
0

>  <SCORE.RESTR.norm>
0

>  <SCORE.SYSTEM>
-20.2416

>  <SCORE.SYSTEM.CONST>
0

>  <SCORE.SYSTEM.DIHEDRAL>
6.01217

>  <SCORE.SYSTEM.POLAR>
-3.63738

>  <SCORE.SYSTEM.SOLV>
0.528167

>  <SCORE.SYSTEM.VDW>
-3.54992

>  <SCORE.SYSTEM.norm>
-2.89166

>  <SCORE.heavy>
7

>  <SCORE.norm>
-7.52453

$$$$
P123387399
 OpenBabel12072022103D
libRbt.so/2013.1/901 2013/11/27
 14 14  0  0  0  0  0  0  0  0999 V2000
   19.5748  -18.5090    5.0298 C   0  0  0  0  0  0  0  0  0  0  0  0
   20.6293  -17.5670    4.8349 O   0  0  0  0  0  0  0  0  0  0  0  0
   20.6489  -17.0068    3.5830 C   0  0  0  0  0  0  0  0  0  0  0  0
   19.8643  -17.2946    2.6861 O   0  0  0  0  0  0  0  0  0  0  0  0
   21.7580  -15.9395    3.5027 C   0  0  2  0  0  0  0  0  0  0  0  0
   23.0955  -16.4823    4.0779 C   0  0  2  0  0  0  0  0  0  0  0  0
   24.1524  -15.3688    4.1349 C   0  0  0  0  0  0  0  0  0  0  0  0
   23.6081  -14.1246    4.8287 C   0  0  0  0  0  0  0  0  0  0  0  0
   22.3043  -13.6652    4.1860 C   0  0  0  0  0  0  0  0  0  0  0  0
   21.3027  -14.7253    4.2341 N   0  0  0  0  0  0  0  0  0  0  0  0
   23.6569  -17.5889    3.2822 N   0  0  0  0  0  0  0  0  0  0  0  0
   20.4357  -14.4028    3.7987 H   0  0  0  0  0  0  0  0  0  0  0  0
   24.0457  -18.2804    3.9334 H   0  0  0  0  0  0  0  0  0  0  0  0
   24.4577  -17.2457    2.7511 H   0  0  0  0  0  0  0  0  0  0  0  0
  1  2  1  0  0  0  0
  2  3  1  0  0  0  0
  3  4  2  0  0  0  0
  5  6  1  0  0  0  0
  5 10  1  0  0  0  0
  5  3  1  1  0  0  0
  6  7  1  0  0  0  0
  6 11  1  6  0  0  0
  7  8  1  0  0  0  0
  8  9  1  0  0  0  0
  9 10  1  0  0  0  0
 10 12  1  0  0  0  0
 11 13  1  0  0  0  0
 11 14  1  0  0  0  0
M  END
>  <CHROM.0>
-46.19961255,166.11247190,-55.27858760,-52.78823642,-51.33947371,-176.00379080
-59.52379625,-175.52896333,-168.54043239,160.30796852

>  <CHROM.1>
-1.66139244,47.74143086,-140.52614840,21.84664207,-16.24985544,4.03269314
2.38605474,-0.07327364,-3.01310741

>  <Name>
P123387399

>  <RI>
0

>  <Rbt.Current_Directory>
/home/fstefaniak/projects/zuza/docking/adenine/1Y26

>  <Rbt.Executable>
rbdock ($Id: //depot/dev/client3/rdock/2013.1/src/exe/rbdock.cxx#4 $)

>  <Rbt.Library>
libRbt.so (2013.1, Build901 2013/11/27)

>  <Rbt.Parameter_File>
/home/fstefaniak/progs/rDock//data/scripts/dock_solv.prm

>  <Rbt.Receptor>
1y26.prm

>  <SCORE>
-50.8096

>  <SCORE.INTER>
-30.8666

>  <SCORE.INTER.CONST>
1

>  <SCORE.INTER.POLAR>
-3.99738

>  <SCORE.INTER.ROT>
3

>  <SCORE.INTER.SOLV>
9.48233

>  <SCORE.INTER.VDW>
-16.0139

>  <SCORE.INTER.norm>
-2.80605

>  <SCORE.INTRA>
1.7924

>  <SCORE.INTRA.DIHEDRAL>
2.10351

>  <SCORE.INTRA.DIHEDRAL.0>
0.879528

>  <SCORE.INTRA.POLAR>
0.00598861

>  <SCORE.INTRA.POLAR.0>
-0.00598861

>  <SCORE.INTRA.REPUL>
0

>  <SCORE.INTRA.REPUL.0>
0

>  <SCORE.INTRA.SOLV>
-0.372849

>  <SCORE.INTRA.SOLV.lig_0>
-10.1992

>  <SCORE.INTRA.VDW>
0.906706

>  <SCORE.INTRA.VDW.0>
1.27936

>  <SCORE.INTRA.norm>
0.162945

>  <SCORE.RESTR>
0

>  <SCORE.RESTR.CAVITY>
0

>  <SCORE.RESTR.norm>
0

>  <SCORE.SYSTEM>
-21.7354

>  <SCORE.SYSTEM.CONST>
0

>  <SCORE.SYSTEM.DIHEDRAL>
6.89744

>  <SCORE.SYSTEM.POLAR>
-3.49056

>  <SCORE.SYSTEM.SOLV>
0.285034

>  <SCORE.SYSTEM.VDW>
-5.24924

>  <SCORE.SYSTEM.norm>
-1.97595

>  <SCORE.heavy>
11

>  <SCORE.norm>
-4.61906

$$$$
P123387399
 OpenBabel12072022103D
libRbt.so/2013.1/901 2013/11/27
 14 14  0  0  0  0  0  0  0  0999 V2000
   23.4772  -14.6897    4.4393 C   0  0  0  0  0  0  0  0  0  0  0  0
   22.7150  -15.8495    4.7729 O   0  0  0  0  0  0  0  0  0  0  0  0
   21.3928  -15.7660    4.4175 C   0  0  0  0  0  0  0  0  0  0  0  0
   20.8447  -14.7382    4.0354 O   0  0  0  0  0  0  0  0  0  0  0  0
   20.7327  -17.1550    4.5208 C   0  0  2  0  0  0  0  0  0  0  0  0
   19.8492  -17.4454    3.2761 C   0  0  2  0  0  0  0  0  0  0  0  0
   19.0766  -18.7612    3.4549 C   0  0  0  0  0  0  0  0  0  0  0  0
   18.3419  -18.7940    4.7908 C   0  0  0  0  0  0  0  0  0  0  0  0
   19.2942  -18.5096    5.9469 C   0  0  0  0  0  0  0  0  0  0  0  0
   19.9382  -17.2110    5.7785 N   0  0  0  0  0  0  0  0  0  0  0  0
   20.6288  -17.5526    2.0296 N   0  0  0  0  0  0  0  0  0  0  0  0
   20.5737  -17.0356    6.5599 H   0  0  0  0  0  0  0  0  0  0  0  0
   20.0253  -17.9756    1.3152 H   0  0  0  0  0  0  0  0  0  0  0  0
   21.3866  -18.2219    2.1661 H   0  0  0  0  0  0  0  0  0  0  0  0
  1  2  1  0  0  0  0
  2  3  1  0  0  0  0
  3  4  2  0  0  0  0
  5  6  1  0  0  0  0
  5 10  1  0  0  0  0
  5  3  1  6  0  0  0
  6  7  1  0  0  0  0
  6 11  1  6  0  0  0
  7  8  1  0  0  0  0
  8  9  1  0  0  0  0
  9 10  1  0  0  0  0
 10 12  1  0  0  0  0
 11 13  1  0  0  0  0
 11 14  1  0  0  0  0
M  END
>  <CHROM.0>
-48.86176626,62.81508346,-67.82915904,-52.79158065,-174.21220182,-60.64899321
-173.37703945,-178.01636370,-168.22627681,160.67178670

>  <CHROM.1>
-10.55317009,-135.15140155,165.69224913,20.61548440,-16.92196795,4.30340404
0.05390995,0.77012357,1.47829173

>  <Name>
P123387399

>  <RI>
0

>  <Rbt.Current_Directory>
/home/fstefaniak/projects/zuza/docking/adenine/1Y26

>  <Rbt.Executable>
rbdock ($Id: //depot/dev/client3/rdock/2013.1/src/exe/rbdock.cxx#4 $)

>  <Rbt.Library>
libRbt.so (2013.1, Build901 2013/11/27)

>  <Rbt.Parameter_File>
/home/fstefaniak/progs/rDock//data/scripts/dock_solv.prm

>  <Rbt.Receptor>
1y26.prm

>  <SCORE>
-48.5317

>  <SCORE.INTER>
-28.8173

>  <SCORE.INTER.CONST>
1

>  <SCORE.INTER.POLAR>
-3.46833

>  <SCORE.INTER.ROT>
3

>  <SCORE.INTER.SOLV>
11.6937

>  <SCORE.INTER.VDW>
-17.1483

>  <SCORE.INTER.norm>
-2.61975

>  <SCORE.INTRA>
1.31832

>  <SCORE.INTRA.DIHEDRAL>
2.42868

>  <SCORE.INTRA.DIHEDRAL.0>
0.879528

>  <SCORE.INTRA.POLAR>
0.00598861

>  <SCORE.INTRA.POLAR.0>
-0.00598861

>  <SCORE.INTRA.REPUL>
0

>  <SCORE.INTRA.REPUL.0>
0

>  <SCORE.INTRA.SOLV>
-0.218661

>  <SCORE.INTRA.SOLV.lig_0>
-10.1992

>  <SCORE.INTRA.VDW>
0.192956

>  <SCORE.INTRA.VDW.0>
1.27936

>  <SCORE.INTRA.norm>
0.119848

>  <SCORE.RESTR>
0

>  <SCORE.RESTR.CAVITY>
0

>  <SCORE.RESTR.norm>
0

>  <SCORE.SYSTEM>
-21.0327

>  <SCORE.SYSTEM.CONST>
0

>  <SCORE.SYSTEM.DIHEDRAL>
5.79101

>  <SCORE.SYSTEM.POLAR>
-3.37945

>  <SCORE.SYSTEM.SOLV>
0.25691

>  <SCORE.SYSTEM.VDW>
-4.77298

>  <SCORE.SYSTEM.norm>
-1.91207

>  <SCORE.heavy>
11

>  <SCORE.norm>
-4.41197

$$$$
P123387399
 OpenBabel12072022103D
libRbt.so/2013.1/901 2013/11/27
 14 14  0  0  0  0  0  0  0  0999 V2000
   23.2880  -14.5195    4.3825 C   0  0  0  0  0  0  0  0  0  0  0  0
   22.6098  -15.7374    4.6896 O   0  0  0  0  0  0  0  0  0  0  0  0
   21.2683  -15.7128    4.4043 C   0  0  0  0  0  0  0  0  0  0  0  0
   20.6586  -14.7136    4.0402 O   0  0  0  0  0  0  0  0  0  0  0  0
   20.6728  -17.1260    4.5588 C   0  0  2  0  0  0  0  0  0  0  0  0
   19.7808  -17.4905    3.3400 C   0  0  2  0  0  0  0  0  0  0  0  0
   19.0710  -18.8335    3.5701 C   0  0  0  0  0  0  0  0  0  0  0  0
   18.3627  -18.8605    4.9203 C   0  0  0  0  0  0  0  0  0  0  0  0
   19.3221  -18.5014    6.0495 C   0  0  0  0  0  0  0  0  0  0  0  0
   19.9043  -17.1810    5.8328 N   0  0  0  0  0  0  0  0  0  0  0  0
   20.5417  -17.5989    2.0821 N   0  0  0  0  0  0  0  0  0  0  0  0
   20.5454  -16.9556    6.5966 H   0  0  0  0  0  0  0  0  0  0  0  0
   19.9328  -18.0366    1.3814 H   0  0  0  0  0  0  0  0  0  0  0  0
   21.3108  -18.2566    2.2126 H   0  0  0  0  0  0  0  0  0  0  0  0
  1  2  1  0  0  0  0
  2  3  1  0  0  0  0
  3  4  2  0  0  0  0
  5  6  1  0  0  0  0
  5 10  1  0  0  0  0
  5  3  1  6  0  0  0
  6  7  1  0  0  0  0
  6 11  1  6  0  0  0
  7  8  1  0  0  0  0
  8  9  1  0  0  0  0
  9 10  1  0  0  0  0
 10 12  1  0  0  0  0
 11 13  1  0  0  0  0
 11 14  1  0  0  0  0
M  END
>  <CHROM.0>
-49.45016720,65.00142888,-63.50122884,-51.66048846,-54.59681274,-65.20995263
-168.09687430,-50.55017135,-166.75805490,160.55909143

>  <CHROM.1>
-6.68370008,-132.97455639,167.76723517,20.53988788,-16.90237546,4.33866588
0.04434051,0.81786779,1.45280670

>  <Name>
P123387399

>  <RI>
0

>  <Rbt.Current_Directory>
/home/fstefaniak/projects/zuza/docking/adenine/1Y26

>  <Rbt.Executable>
rbdock ($Id: //depot/dev/client3/rdock/2013.1/src/exe/rbdock.cxx#4 $)

>  <Rbt.Library>
libRbt.so (2013.1, Build901 2013/11/27)

>  <Rbt.Parameter_File>
/home/fstefaniak/progs/rDock//data/scripts/dock_solv.prm

>  <Rbt.Receptor>
1y26.prm

>  <SCORE>
-48.1429

>  <SCORE.INTER>
-28.6217

>  <SCORE.INTER.CONST>
1

>  <SCORE.INTER.POLAR>
-3.38655

>  <SCORE.INTER.ROT>
3

>  <SCORE.INTER.SOLV>
11.8428

>  <SCORE.INTER.VDW>
-17.3403

>  <SCORE.INTER.norm>
-2.60198

>  <SCORE.INTRA>
1.06683

>  <SCORE.INTRA.DIHEDRAL>
1.9128

>  <SCORE.INTRA.DIHEDRAL.0>
0.879528

>  <SCORE.INTRA.POLAR>
0.00598861

>  <SCORE.INTRA.POLAR.0>
-0.00598861

>  <SCORE.INTRA.REPUL>
0

>  <SCORE.INTRA.REPUL.0>
0

>  <SCORE.INTRA.SOLV>
-0.222354

>  <SCORE.INTRA.SOLV.lig_0>
-10.1992

>  <SCORE.INTRA.VDW>
0.201244

>  <SCORE.INTRA.VDW.0>
1.27936

>  <SCORE.INTRA.norm>
0.0969845

>  <SCORE.RESTR>
0

>  <SCORE.RESTR.CAVITY>
0

>  <SCORE.RESTR.norm>
0

>  <SCORE.SYSTEM>
-20.5879

>  <SCORE.SYSTEM.CONST>
0

>  <SCORE.SYSTEM.DIHEDRAL>
6.77707

>  <SCORE.SYSTEM.POLAR>
-3.48347

>  <SCORE.SYSTEM.SOLV>
0.617529

>  <SCORE.SYSTEM.VDW>
-4.57861

>  <SCORE.SYSTEM.norm>
-1.87163

>  <SCORE.heavy>
11

>  <SCORE.norm>
-4.37662

$$$$
P123387402
 OpenBabel12072022103D
libRbt.so/2013.1/901 2013/11/27
 14 14  0  0  0  0  0  0  0  0999 V2000
   23.6301  -16.4008    4.1247 C   0  0  0  0  0  0  0  0  0  0  0  0
   22.2709  -16.2815    4.5443 O   0  0  0  0  0  0  0  0  0  0  0  0
   21.3895  -16.9935    3.7775 C   0  0  0  0  0  0  0  0  0  0  0  0
   21.7208  -17.7404    2.8638 O   0  0  0  0  0  0  0  0  0  0  0  0
   19.9476  -16.7604    4.2750 C   0  0  1  0  0  0  0  0  0  0  0  0
   18.9024  -17.6249    3.5239 C   0  0  2  0  0  0  0  0  0  0  0  0
   18.9795  -19.0916    3.9615 C   0  0  0  0  0  0  0  0  0  0  0  0
   18.8564  -19.1917    5.4788 C   0  0  0  0  0  0  0  0  0  0  0  0
   19.8867  -18.3197    6.1891 C   0  0  0  0  0  0  0  0  0  0  0  0
   19.8411  -16.9209    5.7545 N   0  0  0  0  0  0  0  0  0  0  0  0
   18.9733  -17.5416    2.0598 N   0  0  0  0  0  0  0  0  0  0  0  0
   20.6187  -16.4224    6.1906 H   0  0  0  0  0  0  0  0  0  0  0  0
   18.1858  -18.0436    1.6485 H   0  0  0  0  0  0  0  0  0  0  0  0
   19.8146  -18.0165    1.7321 H   0  0  0  0  0  0  0  0  0  0  0  0
  1  2  1  0  0  0  0
  2  3  1  0  0  0  0
  3  4  2  0  0  0  0
  5  3  1  6  0  0  0
  5 10  1  0  0  0  0
  5  6  1  0  0  0  0
  6  7  1  0  0  0  0
  6 11  1  6  0  0  0
  7  8  1  0  0  0  0
  8  9  1  0  0  0  0
  9 10  1  0  0  0  0
 10 12  1  0  0  0  0
 11 13  1  0  0  0  0
 11 14  1  0  0  0  0
M  END
>  <CHROM.0>
-49.86931906,64.39858102,-56.17159555,-52.85458546,-57.46228353,-61.52049504
-59.95242348,-179.26674162,-166.62353349,159.98718075

>  <CHROM.1>
4.52340591,-175.42336413,-173.04618902,20.44385141,-17.52368050,4.20844466
-0.11902856,0.45807715,1.64674679

>  <Name>
P123387402

>  <RI>
0

>  <Rbt.Current_Directory>
/home/fstefaniak/projects/zuza/docking/adenine/1Y26

>  <Rbt.Executable>
rbdock ($Id: //depot/dev/client3/rdock/2013.1/src/exe/rbdock.cxx#4 $)

>  <Rbt.Library>
libRbt.so (2013.1, Build901 2013/11/27)

>  <Rbt.Parameter_File>
/home/fstefaniak/progs/rDock//data/scripts/dock_solv.prm

>  <Rbt.Receptor>
1y26.prm

>  <SCORE>
-50.1717

>  <SCORE.INTER>
-27.9592

>  <SCORE.INTER.CONST>
1

>  <SCORE.INTER.POLAR>
-3.00652

>  <SCORE.INTER.ROT>
3

>  <SCORE.INTER.SOLV>
11.2702

>  <SCORE.INTER.VDW>
-17.9745

>  <SCORE.INTER.norm>
-2.54174

>  <SCORE.INTRA>
-0.169639

>  <SCORE.INTRA.DIHEDRAL>
-0.612273

>  <SCORE.INTRA.DIHEDRAL.0>
1.64882

>  <SCORE.INTRA.POLAR>
-0.0511529

>  <SCORE.INTRA.POLAR.0>
0

>  <SCORE.INTRA.REPUL>
0

>  <SCORE.INTRA.REPUL.0>
0

>  <SCORE.INTRA.SOLV>
0.107058

>  <SCORE.INTRA.SOLV.lig_0>
-10.0019

>  <SCORE.INTRA.VDW>
0.256888

>  <SCORE.INTRA.VDW.0>
0.799858

>  <SCORE.INTRA.norm>
-0.0154217

>  <SCORE.RESTR>
0

>  <SCORE.RESTR.CAVITY>
0

>  <SCORE.RESTR.norm>
0

>  <SCORE.SYSTEM>
-22.0429

>  <SCORE.SYSTEM.CONST>
0

>  <SCORE.SYSTEM.DIHEDRAL>
5.4624

>  <SCORE.SYSTEM.POLAR>
-3.45256

>  <SCORE.SYSTEM.SOLV>
0.467841

>  <SCORE.SYSTEM.VDW>
-5.16351

>  <SCORE.SYSTEM.norm>
-2.0039

>  <SCORE.heavy>
11

>  <SCORE.norm>
-4.56107

$$$$
P123387402
 OpenBabel12072022103D
libRbt.so/2013.1/901 2013/11/27
 14 14  0  0  0  0  0  0  0  0999 V2000
   23.6426  -16.3604    4.1232 C   0  0  0  0  0  0  0  0  0  0  0  0
   22.2774  -16.2225    4.5167 O   0  0  0  0  0  0  0  0  0  0  0  0
   21.4035  -16.9408    3.7473 C   0  0  0  0  0  0  0  0  0  0  0  0
   21.7436  -17.6962    2.8439 O   0  0  0  0  0  0  0  0  0  0  0  0
   19.9566  -16.7021    4.2276 C   0  0  1  0  0  0  0  0  0  0  0  0
   18.9158  -17.5537    3.4558 C   0  0  2  0  0  0  0  0  0  0  0  0
   18.9776  -19.0243    3.8825 C   0  0  0  0  0  0  0  0  0  0  0  0
   18.8338  -19.1357    5.3973 C   0  0  0  0  0  0  0  0  0  0  0  0
   19.8603  -18.2762    6.1281 C   0  0  0  0  0  0  0  0  0  0  0  0
   19.8296  -16.8737    5.7042 N   0  0  0  0  0  0  0  0  0  0  0  0
   19.0066  -17.4592    1.9935 N   0  0  0  0  0  0  0  0  0  0  0  0
   20.6045  -16.3838    6.1545 H   0  0  0  0  0  0  0  0  0  0  0  0
   18.1765  -17.8750    1.5701 H   0  0  0  0  0  0  0  0  0  0  0  0
   19.7993  -18.0112    1.6652 H   0  0  0  0  0  0  0  0  0  0  0  0
  1  2  1  0  0  0  0
  2  3  1  0  0  0  0
  3  4  2  0  0  0  0
  5  3  1  6  0  0  0
  5 10  1  0  0  0  0
  5  6  1  0  0  0  0
  6  7  1  0  0  0  0
  6 11  1  6  0  0  0
  7  8  1  0  0  0  0
  8  9  1  0  0  0  0
  9 10  1  0  0  0  0
 10 12  1  0  0  0  0
 11 13  1  0  0  0  0
 11 14  1  0  0  0  0
M  END
>  <CHROM.0>
-47.18096054,63.40874900,-54.87202291,-53.74295149,-56.49723183,-60.76217220
-60.93119529,-177.63966718,-165.66509968,161.14652698

>  <CHROM.1>
3.74622327,-176.47073442,-167.69378510,20.44809275,-17.46711028,4.16056014
-0.10459602,0.45386829,1.64805870

>  <Name>
P123387402

>  <RI>
0

>  <Rbt.Current_Directory>
/home/fstefaniak/projects/zuza/docking/adenine/1Y26

>  <Rbt.Executable>
rbdock ($Id: //depot/dev/client3/rdock/2013.1/src/exe/rbdock.cxx#4 $)

>  <Rbt.Library>
libRbt.so (2013.1, Build901 2013/11/27)

>  <Rbt.Parameter_File>
/home/fstefaniak/progs/rDock//data/scripts/dock_solv.prm

>  <Rbt.Receptor>
1y26.prm

>  <SCORE>
-50.0375

>  <SCORE.INTER>
-27.9488

>  <SCORE.INTER.CONST>
1

>  <SCORE.INTER.POLAR>
-2.99208

>  <SCORE.INTER.ROT>
3

>  <SCORE.INTER.SOLV>
11.368

>  <SCORE.INTER.VDW>
-18.0483

>  <SCORE.INTER.norm>
-2.5408

>  <SCORE.INTRA>
-0.0601945

>  <SCORE.INTRA.DIHEDRAL>
-0.466106

>  <SCORE.INTRA.DIHEDRAL.0>
1.64882

>  <SCORE.INTRA.POLAR>
-0.0476118

>  <SCORE.INTRA.POLAR.0>
0

>  <SCORE.INTRA.REPUL>
0

>  <SCORE.INTRA.REPUL.0>
0

>  <SCORE.INTRA.SOLV>
0.0975774

>  <SCORE.INTRA.SOLV.lig_0>
-10.0019

>  <SCORE.INTRA.VDW>
0.28595

>  <SCORE.INTRA.VDW.0>
0.799858

>  <SCORE.INTRA.norm>
-0.00547223

>  <SCORE.RESTR>
0

>  <SCORE.RESTR.CAVITY>
0

>  <SCORE.RESTR.norm>
0

>  <SCORE.SYSTEM>
-22.0285

>  <SCORE.SYSTEM.CONST>
0

>  <SCORE.SYSTEM.DIHEDRAL>
5.69925

>  <SCORE.SYSTEM.POLAR>
-3.46283

>  <SCORE.SYSTEM.SOLV>
0.474735

>  <SCORE.SYSTEM.VDW>
-5.20091

>  <SCORE.SYSTEM.norm>
-2.00259

>  <SCORE.heavy>
11

>  <SCORE.norm>
-4.54887

$$$$
P123387402
 OpenBabel12072022103D
libRbt.so/2013.1/901 2013/11/27
 14 14  0  0  0  0  0  0  0  0999 V2000
   23.6356  -16.4283    4.1203 C   0  0  0  0  0  0  0  0  0  0  0  0
   22.2783  -16.2946    4.5417 O   0  0  0  0  0  0  0  0  0  0  0  0
   21.3879  -16.9929    3.7727 C   0  0  0  0  0  0  0  0  0  0  0  0
   21.7088  -17.7321    2.8492 O   0  0  0  0  0  0  0  0  0  0  0  0
   19.9504  -16.7559    4.2813 C   0  0  1  0  0  0  0  0  0  0  0  0
   18.8957  -17.6088    3.5302 C   0  0  2  0  0  0  0  0  0  0  0  0
   18.9676  -19.0794    3.9558 C   0  0  0  0  0  0  0  0  0  0  0  0
   18.8538  -19.1906    5.4731 C   0  0  0  0  0  0  0  0  0  0  0  0
   19.8933  -18.3298    6.1835 C   0  0  0  0  0  0  0  0  0  0  0  0
   19.8526  -16.9275    5.7602 N   0  0  0  0  0  0  0  0  0  0  0  0
   18.9577  -17.5145    2.0664 N   0  0  0  0  0  0  0  0  0  0  0  0
   20.6356  -16.4365    6.1951 H   0  0  0  0  0  0  0  0  0  0  0  0
   18.1160  -17.9237    1.6597 H   0  0  0  0  0  0  0  0  0  0  0  0
   19.7392  -18.0725    1.7220 H   0  0  0  0  0  0  0  0  0  0  0  0
  1  2  1  0  0  0  0
  2  3  1  0  0  0  0
  3  4  2  0  0  0  0
  5  3  1  6  0  0  0
  5 10  1  0  0  0  0
  5  6  1  0  0  0  0
  6  7  1  0  0  0  0
  6 11  1  6  0  0  0
  7  8  1  0  0  0  0
  8  9  1  0  0  0  0
  9 10  1  0  0  0  0
 10 12  1  0  0  0  0
 11 13  1  0  0  0  0
 11 14  1  0  0  0  0
M  END
>  <CHROM.0>
-53.24620786,61.68284206,-60.79940879,-52.78934480,-174.20899132,-61.98776717
-61.44802317,-46.26857788,-166.40407541,160.20119385

>  <CHROM.1>
3.95979794,-175.25401294,-167.17849573,20.44158287,-17.52260212,4.20655726
-0.12299010,0.45004794,1.65902562

>  <Name>
P123387402

>  <RI>
0

>  <Rbt.Current_Directory>
/home/fstefaniak/projects/zuza/docking/adenine/1Y26

>  <Rbt.Executable>
rbdock ($Id: //depot/dev/client3/rdock/2013.1/src/exe/rbdock.cxx#4 $)

>  <Rbt.Library>
libRbt.so (2013.1, Build901 2013/11/27)

>  <Rbt.Parameter_File>
/home/fstefaniak/progs/rDock//data/scripts/dock_solv.prm

>  <Rbt.Receptor>
1y26.prm

>  <SCORE>
-49.559

>  <SCORE.INTER>
-27.9956

>  <SCORE.INTER.CONST>
1

>  <SCORE.INTER.POLAR>
-2.96217

>  <SCORE.INTER.ROT>
3

>  <SCORE.INTER.SOLV>
11.2997

>  <SCORE.INTER.VDW>
-18.1564

>  <SCORE.INTER.norm>
-2.54506

>  <SCORE.INTRA>
-0.0520912

>  <SCORE.INTRA.DIHEDRAL>
-0.429764

>  <SCORE.INTRA.DIHEDRAL.0>
1.64882

>  <SCORE.INTRA.POLAR>
-0.051712

>  <SCORE.INTRA.POLAR.0>
0

>  <SCORE.INTRA.REPUL>
0

>  <SCORE.INTRA.REPUL.0>
0

>  <SCORE.INTRA.SOLV>
0.0927778

>  <SCORE.INTRA.SOLV.lig_0>
-10.0019

>  <SCORE.INTRA.VDW>
0.292223

>  <SCORE.INTRA.VDW.0>
0.799858

>  <SCORE.INTRA.norm>
-0.00473556

>  <SCORE.RESTR>
0

>  <SCORE.RESTR.CAVITY>
0

>  <SCORE.RESTR.norm>
0

>  <SCORE.SYSTEM>
-21.5113

>  <SCORE.SYSTEM.CONST>
0

>  <SCORE.SYSTEM.DIHEDRAL>
6.01326

>  <SCORE.SYSTEM.POLAR>
-3.45434

>  <SCORE.SYSTEM.SOLV>
0.510942

>  <SCORE.SYSTEM.VDW>
-5.00115

>  <SCORE.SYSTEM.norm>
-1.95557

>  <SCORE.heavy>
11

>  <SCORE.norm>
-4.50537

$$$$
P123406382
 OpenBabel12072022103D
libRbt.so/2013.1/901 2013/11/27
 13 13  0  0  0  0  0  0  0  0999 V2000
   19.2847  -18.9314    6.2261 C   0  0  0  0  0  0  0  0  0  0  0  0
   19.9498  -18.2634    5.0634 C   0  0  0  0  0  0  0  0  0  0  0  0
   20.2426  -18.9233    3.9723 N   0  0  0  0  0  0  0  0  0  0  0  0
   20.8957  -17.9059    3.0908 C   0  0  2  0  0  0  0  0  0  0  0  0
   20.4862  -16.5096    3.7255 C   0  0  1  0  0  0  0  0  0  0  0  0
   20.2121  -16.9203    5.0795 N   0  0  0  0  0  0  0  0  0  0  0  0
   21.5582  -15.4379    3.6840 C   0  0  0  0  0  0  0  0  0  0  0  0
   19.2687  -15.9819    3.2276 O   0  0  0  0  0  0  0  0  0  0  0  0
   20.3865  -18.0985    1.6668 C   0  0  0  0  0  0  0  0  0  0  0  0
   22.3050  -18.0992    3.0708 O   0  0  0  0  0  0  0  0  0  0  0  0
   19.6198  -16.3053    5.6218 H   0  0  0  0  0  0  0  0  0  0  0  0
   18.9636  -15.3585    3.9083 H   0  0  0  0  0  0  0  0  0  0  0  0
   22.5358  -18.0495    4.0155 H   0  0  0  0  0  0  0  0  0  0  0  0
  1  2  1  0  0  0  0
  2  3  2  0  0  0  0
  2  6  1  0  0  0  0
  3  4  1  0  0  0  0
  4  5  1  0  0  0  0
  4  9  1  6  0  0  0
  4 10  1  0  0  0  0
  5  6  1  0  0  0  0
  5  7  1  6  0  0  0
  5  8  1  0  0  0  0
  6 11  1  0  0  0  0
  8 12  1  0  0  0  0
 10 13  1  0  0  0  0
M  END
>  <CHROM.0>
-50.37293760,173.60884194,-56.72237178,-52.91443708,-175.86547810,-60.48370456
-60.96083005,-50.42482542,-167.21841041,160.35448367

>  <CHROM.1>
-56.29978475,158.19838498,20.46577816,-17.47202425,3.87001072,-2.48160690
1.04135985,-0.18314368

>  <Name>
P123406382

>  <RI>
0

>  <Rbt.Current_Directory>
/home/fstefaniak/projects/zuza/docking/adenine/1Y26

>  <Rbt.Executable>
rbdock ($Id: //depot/dev/client3/rdock/2013.1/src/exe/rbdock.cxx#4 $)

>  <Rbt.Library>
libRbt.so (2013.1, Build901 2013/11/27)

>  <Rbt.Parameter_File>
/home/fstefaniak/progs/rDock//data/scripts/dock_solv.prm

>  <Rbt.Receptor>
1y26.prm

>  <SCORE>
-41.0895

>  <SCORE.INTER>
-16.4926

>  <SCORE.INTER.CONST>
1

>  <SCORE.INTER.POLAR>
-3.44736

>  <SCORE.INTER.ROT>
0

>  <SCORE.INTER.SOLV>
12.1208

>  <SCORE.INTER.VDW>
-7.14412

>  <SCORE.INTER.norm>
-1.64926

>  <SCORE.INTRA>
-2.41152

>  <SCORE.INTRA.DIHEDRAL>
-5.66915

>  <SCORE.INTRA.DIHEDRAL.0>
6.81156

>  <SCORE.INTRA.POLAR>
0

>  <SCORE.INTRA.POLAR.0>
0

>  <SCORE.INTRA.REPUL>
0

>  <SCORE.INTRA.REPUL.0>
0

>  <SCORE.INTRA.SOLV>
0.0593467

>  <SCORE.INTRA.SOLV.lig_0>
-12.1465

>  <SCORE.INTRA.VDW>
0.393385

>  <SCORE.INTRA.VDW.0>
-0.301605

>  <SCORE.INTRA.norm>
-0.241152

>  <SCORE.RESTR>
0

>  <SCORE.RESTR.CAVITY>
0

>  <SCORE.RESTR.norm>
0

>  <SCORE.SYSTEM>
-22.1854

>  <SCORE.SYSTEM.CONST>
0

>  <SCORE.SYSTEM.DIHEDRAL>
5.82849

>  <SCORE.SYSTEM.POLAR>
-3.46663

>  <SCORE.SYSTEM.SOLV>
0.445763

>  <SCORE.SYSTEM.VDW>
-5.32627

>  <SCORE.SYSTEM.norm>
-2.21854

>  <SCORE.heavy>
10

>  <SCORE.norm>
-4.10895

$$$$
P123406382
 OpenBabel12072022103D
libRbt.so/2013.1/901 2013/11/27
 13 13  0  0  0  0  0  0  0  0999 V2000
   22.1721  -16.4517    4.3767 C   0  0  0  0  0  0  0  0  0  0  0  0
   22.8648  -15.1682    4.0401 C   0  0  0  0  0  0  0  0  0  0  0  0
   22.4798  -14.4280    3.0323 N   0  0  0  0  0  0  0  0  0  0  0  0
   23.4294  -13.2717    3.0410 C   0  0  2  0  0  0  0  0  0  0  0  0
   24.0818  -13.3049    4.4879 C   0  0  1  0  0  0  0  0  0  0  0  0
   23.8837  -14.6931    4.8205 N   0  0  0  0  0  0  0  0  0  0  0  0
   25.5502  -12.9310    4.5469 C   0  0  0  0  0  0  0  0  0  0  0  0
   23.3652  -12.5676    5.4633 O   0  0  0  0  0  0  0  0  0  0  0  0
   22.6440  -11.9962    2.7580 C   0  0  0  0  0  0  0  0  0  0  0  0
   24.3962  -13.4168    2.0075 O   0  0  0  0  0  0  0  0  0  0  0  0
   23.9040  -14.9240    5.8051 H   0  0  0  0  0  0  0  0  0  0  0  0
   23.7583  -12.8223    6.3152 H   0  0  0  0  0  0  0  0  0  0  0  0
   23.8516  -13.3574    1.2025 H   0  0  0  0  0  0  0  0  0  0  0  0
  1  2  1  0  0  0  0
  2  3  2  0  0  0  0
  2  6  1  0  0  0  0
  3  4  1  0  0  0  0
  4  5  1  0  0  0  0
  4  9  1  6  0  0  0
  4 10  1  0  0  0  0
  5  6  1  0  0  0  0
  5  7  1  6  0  0  0
  5  8  1  0  0  0  0
  6 11  1  0  0  0  0
  8 12  1  0  0  0  0
 10 13  1  0  0  0  0
M  END
>  <CHROM.0>
-49.92542120,-60.82879826,-55.85162949,-52.76787622,-58.01984319,-176.58281920
-56.52735510,-53.01878225,-166.66705200,161.71782177

>  <CHROM.1>
64.97989010,168.51126715,23.50547522,-13.79293053,3.86710752,2.44600653,0.95905406
2.15363195

>  <Name>
P123406382

>  <RI>
0

>  <Rbt.Current_Directory>
/home/fstefaniak/projects/zuza/docking/adenine/1Y26

>  <Rbt.Executable>
rbdock ($Id: //depot/dev/client3/rdock/2013.1/src/exe/rbdock.cxx#4 $)

>  <Rbt.Library>
libRbt.so (2013.1, Build901 2013/11/27)

>  <Rbt.Parameter_File>
/home/fstefaniak/progs/rDock//data/scripts/dock_solv.prm

>  <Rbt.Receptor>
1y26.prm

>  <SCORE>
-39.6698

>  <SCORE.INTER>
-17.097

>  <SCORE.INTER.CONST>
1

>  <SCORE.INTER.POLAR>
-2.89645

>  <SCORE.INTER.ROT>
0

>  <SCORE.INTER.SOLV>
7.67837

>  <SCORE.INTER.VDW>
-7.90264

>  <SCORE.INTER.norm>
-1.7097

>  <SCORE.INTRA>
-1.20899

>  <SCORE.INTRA.DIHEDRAL>
-6.48392

>  <SCORE.INTRA.DIHEDRAL.0>
6.81156

>  <SCORE.INTRA.POLAR>
0

>  <SCORE.INTRA.POLAR.0>
0

>  <SCORE.INTRA.REPUL>
0

>  <SCORE.INTRA.REPUL.0>
0

>  <SCORE.INTRA.SOLV>
-0.0161824

>  <SCORE.INTRA.SOLV.lig_0>
-12.1465

>  <SCORE.INTRA.VDW>
2.04106

>  <SCORE.INTRA.VDW.0>
-0.301605

>  <SCORE.INTRA.norm>
-0.120899

>  <SCORE.RESTR>
0.632662

>  <SCORE.RESTR.CAVITY>
0.632662

>  <SCORE.RESTR.norm>
0.0632662

>  <SCORE.SYSTEM>
-21.9964

>  <SCORE.SYSTEM.CONST>
0

>  <SCORE.SYSTEM.DIHEDRAL>
5.44034

>  <SCORE.SYSTEM.POLAR>
-3.4387

>  <SCORE.SYSTEM.SOLV>
0.526937

>  <SCORE.SYSTEM.VDW>
-5.19104

>  <SCORE.SYSTEM.norm>
-2.19964

>  <SCORE.heavy>
10

>  <SCORE.norm>
-3.96698

$$$$
P123406382
 OpenBabel12072022103D
libRbt.so/2013.1/901 2013/11/27
 13 13  0  0  0  0  0  0  0  0999 V2000
   19.2944  -18.8943    6.1774 C   0  0  0  0  0  0  0  0  0  0  0  0
   19.9717  -18.2272    5.0213 C   0  0  0  0  0  0  0  0  0  0  0  0
   20.2832  -18.8896    3.9369 N   0  0  0  0  0  0  0  0  0  0  0  0
   20.9428  -17.8720    3.0605 C   0  0  2  0  0  0  0  0  0  0  0  0
   20.5167  -16.4756    3.6839 C   0  0  1  0  0  0  0  0  0  0  0  0
   20.2263  -16.8825    5.0357 N   0  0  0  0  0  0  0  0  0  0  0  0
   21.5833  -15.3981    3.6529 C   0  0  0  0  0  0  0  0  0  0  0  0
   19.3033  -15.9567    3.1672 O   0  0  0  0  0  0  0  0  0  0  0  0
   20.4544  -18.0731    1.6304 C   0  0  0  0  0  0  0  0  0  0  0  0
   22.3533  -18.0575    3.0607 O   0  0  0  0  0  0  0  0  0  0  0  0
   19.6232  -16.2688    5.5672 H   0  0  0  0  0  0  0  0  0  0  0  0
   18.9740  -15.3492    3.8510 H   0  0  0  0  0  0  0  0  0  0  0  0
   22.4418  -18.9845    3.3451 H   0  0  0  0  0  0  0  0  0  0  0  0
  1  2  1  0  0  0  0
  2  3  2  0  0  0  0
  2  6  1  0  0  0  0
  3  4  1  0  0  0  0
  4  5  1  0  0  0  0
  4  9  1  6  0  0  0
  4 10  1  0  0  0  0
  5  6  1  0  0  0  0
  5  7  1  6  0  0  0
  5  8  1  0  0  0  0
  6 11  1  0  0  0  0
  8 12  1  0  0  0  0
 10 13  1  0  0  0  0
M  END
>  <CHROM.0>
-43.02610557,174.52941373,-66.84763462,-51.42191773,-173.89020438,-59.73455627
-171.32577252,-51.04935005,-168.42767046,160.47751758

>  <CHROM.1>
21.28745990,156.81668888,20.49875238,-17.44455046,3.82741205,-2.46907910
1.02261093,-0.20572956

>  <Name>
P123406382

>  <RI>
0

>  <Rbt.Current_Directory>
/home/fstefaniak/projects/zuza/docking/adenine/1Y26

>  <Rbt.Executable>
rbdock ($Id: //depot/dev/client3/rdock/2013.1/src/exe/rbdock.cxx#4 $)

>  <Rbt.Library>
libRbt.so (2013.1, Build901 2013/11/27)

>  <Rbt.Parameter_File>
/home/fstefaniak/progs/rDock//data/scripts/dock_solv.prm

>  <Rbt.Receptor>
1y26.prm

>  <SCORE>
-38.8632

>  <SCORE.INTER>
-17.9685

>  <SCORE.INTER.CONST>
1

>  <SCORE.INTER.POLAR>
-3.81411

>  <SCORE.INTER.ROT>
0

>  <SCORE.INTER.SOLV>
12.1503

>  <SCORE.INTER.VDW>
-6.91538

>  <SCORE.INTER.norm>
-1.79685

>  <SCORE.INTRA>
0.253173

>  <SCORE.INTRA.DIHEDRAL>
-0.272841

>  <SCORE.INTRA.DIHEDRAL.0>
6.81156

>  <SCORE.INTRA.POLAR>
0

>  <SCORE.INTRA.POLAR.0>
0

>  <SCORE.INTRA.REPUL>
0

>  <SCORE.INTRA.REPUL.0>
0

>  <SCORE.INTRA.SOLV>
0.0337669

>  <SCORE.INTRA.SOLV.lig_0>
-12.1465

>  <SCORE.INTRA.VDW>
0.37271

>  <SCORE.INTRA.VDW.0>
-0.301605

>  <SCORE.INTRA.norm>
0.0253173

>  <SCORE.RESTR>
0

>  <SCORE.RESTR.CAVITY>
0

>  <SCORE.RESTR.norm>
0

>  <SCORE.SYSTEM>
-21.1479

>  <SCORE.SYSTEM.CONST>
0

>  <SCORE.SYSTEM.DIHEDRAL>
7.16803

>  <SCORE.SYSTEM.POLAR>
-3.53522

>  <SCORE.SYSTEM.SOLV>
0.40167

>  <SCORE.SYSTEM.VDW>
-4.83778

>  <SCORE.SYSTEM.norm>
-2.11479

>  <SCORE.heavy>
10

>  <SCORE.norm>
-3.88632

$$$$
P125443838
 OpenBabel12072022103D
libRbt.so/2013.1/901 2013/11/27
 11 11  0  0  0  0  0  0  0  0999 V2000
   24.5814  -13.7708    4.2735 C   0  0  0  0  0  0  0  0  0  0  0  0
   23.8666  -14.5646    5.2724 N   0  0  0  0  0  0  0  0  0  0  0  0
   22.4239  -14.2546    5.2794 C   0  0  0  0  0  0  0  0  0  0  0  0
   21.6208  -14.8496    4.1002 C   0  0  0  0  0  0  0  0  0  0  0  0
   21.8260  -16.2975    3.8918 N   0  0  0  0  0  0  0  0  0  0  0  0
   23.2690  -16.6132    3.8780 C   0  0  0  0  0  0  0  0  0  0  0  0
   24.0652  -16.0110    5.0580 C   0  0  0  0  0  0  0  0  0  0  0  0
   21.1448  -17.0558    4.8573 N   0  0  0  0  0  0  0  0  0  0  0  0
   20.0130  -17.7550    4.5234 C   0  0  0  0  0  0  0  0  0  0  0  0
   19.3788  -18.4321    5.3224 O   0  0  0  0  0  0  0  0  0  0  0  0
   21.4621  -17.1116    5.8212 H   0  0  0  0  0  0  0  0  0  0  0  0
  1  2  1  0  0  0  0
  2  3  1  0  0  0  0
  2  7  1  0  0  0  0
  3  4  1  0  0  0  0
  4  5  1  0  0  0  0
  5  6  1  0  0  0  0
  5  8  1  0  0  0  0
  6  7  1  0  0  0  0
  8  9  1  0  0  0  0
  8 11  1  0  0  0  0
  9 10  2  0  0  0  0
M  END
>  <CHROM.0>
-50.97336944,-63.73403928,-52.12564746,-53.04125191,-55.42290665,-177.38217516
-59.90438039,-176.37791198,-165.72025643,158.98282274

>  <CHROM.1>
106.96247647,22.20662979,-15.97451800,4.66148012,0.70860686,0.10566374,0.06441427

>  <Name>
P125443838

>  <RI>
0

>  <Rbt.Current_Directory>
/home/fstefaniak/projects/zuza/docking/adenine/1Y26

>  <Rbt.Executable>
rbdock ($Id: //depot/dev/client3/rdock/2013.1/src/exe/rbdock.cxx#4 $)

>  <Rbt.Library>
libRbt.so (2013.1, Build901 2013/11/27)

>  <Rbt.Parameter_File>
/home/fstefaniak/progs/rDock//data/scripts/dock_solv.prm

>  <Rbt.Receptor>
1y26.prm

>  <SCORE>
-37.4802

>  <SCORE.INTER>
-15.1681

>  <SCORE.INTER.CONST>
1

>  <SCORE.INTER.POLAR>
-1.13137

>  <SCORE.INTER.ROT>
1

>  <SCORE.INTER.SOLV>
10.5478

>  <SCORE.INTER.VDW>
-14.1235

>  <SCORE.INTER.norm>
-1.51681

>  <SCORE.INTRA>
0.0367455

>  <SCORE.INTRA.DIHEDRAL>
8.30797e-06

>  <SCORE.INTRA.DIHEDRAL.0>
0.48

>  <SCORE.INTRA.POLAR>
0

>  <SCORE.INTRA.POLAR.0>
0

>  <SCORE.INTRA.REPUL>
0

>  <SCORE.INTRA.REPUL.0>
0

>  <SCORE.INTRA.SOLV>
-0.000167624

>  <SCORE.INTRA.SOLV.lig_0>
-17.0793

>  <SCORE.INTRA.VDW>
0.0368251

>  <SCORE.INTRA.VDW.0>
-0.486874

>  <SCORE.INTRA.norm>
0.00367455

>  <SCORE.RESTR>
0.00386784

>  <SCORE.RESTR.CAVITY>
0.00386784

>  <SCORE.RESTR.norm>
0.000386784

>  <SCORE.SYSTEM>
-22.3526

>  <SCORE.SYSTEM.CONST>
0

>  <SCORE.SYSTEM.DIHEDRAL>
5.94302

>  <SCORE.SYSTEM.POLAR>
-3.48279

>  <SCORE.SYSTEM.SOLV>
0.310761

>  <SCORE.SYSTEM.VDW>
-5.37705

>  <SCORE.SYSTEM.norm>
-2.23526

>  <SCORE.heavy>
10

>  <SCORE.norm>
-3.74802

$$$$
P125443838
 OpenBabel12072022103D
libRbt.so/2013.1/901 2013/11/27
 11 11  0  0  0  0  0  0  0  0999 V2000
   24.5483  -13.8262    4.1962 C   0  0  0  0  0  0  0  0  0  0  0  0
   23.8388  -14.5964    5.2170 N   0  0  0  0  0  0  0  0  0  0  0  0
   22.3988  -14.2747    5.2350 C   0  0  0  0  0  0  0  0  0  0  0  0
   21.5774  -14.8837    4.0759 C   0  0  0  0  0  0  0  0  0  0  0  0
   21.7686  -16.3366    3.8907 N   0  0  0  0  0  0  0  0  0  0  0  0
   23.2088  -16.6643    3.8660 C   0  0  0  0  0  0  0  0  0  0  0  0
   24.0234  -16.0479    5.0260 C   0  0  0  0  0  0  0  0  0  0  0  0
   21.0926  -17.0723    4.8772 N   0  0  0  0  0  0  0  0  0  0  0  0
   20.0042  -17.8403    4.5508 C   0  0  0  0  0  0  0  0  0  0  0  0
   19.3766  -18.5018    5.3679 O   0  0  0  0  0  0  0  0  0  0  0  0
   21.3822  -17.0610    5.8513 H   0  0  0  0  0  0  0  0  0  0  0  0
  1  2  1  0  0  0  0
  2  3  1  0  0  0  0
  2  7  1  0  0  0  0
  3  4  1  0  0  0  0
  4  5  1  0  0  0  0
  5  6  1  0  0  0  0
  5  8  1  0  0  0  0
  6  7  1  0  0  0  0
  8  9  1  0  0  0  0
  8 11  1  0  0  0  0
  9 10  2  0  0  0  0
M  END
>  <CHROM.0>
-49.93664679,-62.59574724,-56.67975079,-51.98835498,-58.57259669,-62.22994291
-61.57227336,-53.32537252,-167.58090356,159.91686512

>  <CHROM.1>
111.38756085,22.17140330,-16.01801160,4.64651966,0.71664845,0.10852451,0.04031798

>  <Name>
P125443838

>  <RI>
0

>  <Rbt.Current_Directory>
/home/fstefaniak/projects/zuza/docking/adenine/1Y26

>  <Rbt.Executable>
rbdock ($Id: //depot/dev/client3/rdock/2013.1/src/exe/rbdock.cxx#4 $)

>  <Rbt.Library>
libRbt.so (2013.1, Build901 2013/11/27)

>  <Rbt.Parameter_File>
/home/fstefaniak/progs/rDock//data/scripts/dock_solv.prm

>  <Rbt.Receptor>
1y26.prm

>  <SCORE>
-37.3593

>  <SCORE.INTER>
-15.0941

>  <SCORE.INTER.CONST>
1

>  <SCORE.INTER.POLAR>
-1.13137

>  <SCORE.INTER.ROT>
1

>  <SCORE.INTER.SOLV>
10.5129

>  <SCORE.INTER.VDW>
-14.0625

>  <SCORE.INTER.norm>
-1.50941

>  <SCORE.INTRA>
0.0135172

>  <SCORE.INTRA.DIHEDRAL>
5.23905e-06

>  <SCORE.INTRA.DIHEDRAL.0>
0.48

>  <SCORE.INTRA.POLAR>
0

>  <SCORE.INTRA.POLAR.0>
0

>  <SCORE.INTRA.REPUL>
0

>  <SCORE.INTRA.REPUL.0>
0

>  <SCORE.INTRA.SOLV>
-6.19376e-05

>  <SCORE.INTRA.SOLV.lig_0>
-17.0793

>  <SCORE.INTRA.VDW>
0.0135455

>  <SCORE.INTRA.VDW.0>
-0.486874

>  <SCORE.INTRA.norm>
0.00135172

>  <SCORE.RESTR>
0.00563849

>  <SCORE.RESTR.CAVITY>
0.00563849

>  <SCORE.RESTR.norm>
0.000563849

>  <SCORE.SYSTEM>
-22.2843

>  <SCORE.SYSTEM.CONST>
0

>  <SCORE.SYSTEM.DIHEDRAL>
5.54713

>  <SCORE.SYSTEM.POLAR>
-3.47501

>  <SCORE.SYSTEM.SOLV>
0.648141

>  <SCORE.SYSTEM.VDW>
-5.33789

>  <SCORE.SYSTEM.norm>
-2.22843

>  <SCORE.heavy>
10

>  <SCORE.norm>
-3.73593

$$$$
P125443838
 OpenBabel12072022103D
libRbt.so/2013.1/901 2013/11/27
 11 11  0  0  0  0  0  0  0  0999 V2000
   24.5002  -13.8239    4.1999 C   0  0  0  0  0  0  0  0  0  0  0  0
   23.7755  -14.5861    5.2161 N   0  0  0  0  0  0  0  0  0  0  0  0
   22.3325  -14.2779    5.1978 C   0  0  0  0  0  0  0  0  0  0  0  0
   21.5426  -14.9113    4.0299 C   0  0  0  0  0  0  0  0  0  0  0  0
   21.7512  -16.3649    3.8702 N   0  0  0  0  0  0  0  0  0  0  0  0
   23.1946  -16.6791    3.8819 C   0  0  0  0  0  0  0  0  0  0  0  0
   23.9776  -16.0384    5.0504 C   0  0  0  0  0  0  0  0  0  0  0  0
   21.0604  -17.0927    4.8523 N   0  0  0  0  0  0  0  0  0  0  0  0
   20.1055  -18.0108    4.4968 C   0  0  0  0  0  0  0  0  0  0  0  0
   19.4723  -18.6734    5.3087 O   0  0  0  0  0  0  0  0  0  0  0  0
   21.2416  -16.9660    5.8442 H   0  0  0  0  0  0  0  0  0  0  0  0
  1  2  1  0  0  0  0
  2  3  1  0  0  0  0
  2  7  1  0  0  0  0
  3  4  1  0  0  0  0
  4  5  1  0  0  0  0
  5  6  1  0  0  0  0
  5  8  1  0  0  0  0
  6  7  1  0  0  0  0
  8  9  1  0  0  0  0
  8 11  1  0  0  0  0
  9 10  2  0  0  0  0
M  END
>  <CHROM.0>
-51.09732135,-60.64626859,-57.69109316,-53.04690182,-55.61349523,-60.55818809
-61.71569076,-52.60073545,-166.76735717,160.97205535

>  <CHROM.1>
120.16245697,22.15843382,-16.05905085,4.62661629,-0.75980877,-0.07203639
-3.13179664

>  <Name>
P125443838

>  <RI>
0

>  <Rbt.Current_Directory>
/home/fstefaniak/projects/zuza/docking/adenine/1Y26

>  <Rbt.Executable>
rbdock ($Id: //depot/dev/client3/rdock/2013.1/src/exe/rbdock.cxx#4 $)

>  <Rbt.Library>
libRbt.so (2013.1, Build901 2013/11/27)

>  <Rbt.Parameter_File>
/home/fstefaniak/progs/rDock//data/scripts/dock_solv.prm

>  <Rbt.Receptor>
1y26.prm

>  <SCORE>
-37.2912

>  <SCORE.INTER>
-14.9812

>  <SCORE.INTER.CONST>
1

>  <SCORE.INTER.POLAR>
-1.13137

>  <SCORE.INTER.ROT>
1

>  <SCORE.INTER.SOLV>
10.5369

>  <SCORE.INTER.VDW>
-13.9952

>  <SCORE.INTER.norm>
-1.49812

>  <SCORE.INTRA>
0.0011152

>  <SCORE.INTRA.DIHEDRAL>
-1.49631e-06

>  <SCORE.INTRA.DIHEDRAL.0>
0.48

>  <SCORE.INTRA.POLAR>
0

>  <SCORE.INTRA.POLAR.0>
0

>  <SCORE.INTRA.REPUL>
0

>  <SCORE.INTRA.REPUL.0>
0

>  <SCORE.INTRA.SOLV>
-5.20791e-06

>  <SCORE.INTRA.SOLV.lig_0>
-17.0793

>  <SCORE.INTRA.VDW>
0.00111855

>  <SCORE.INTRA.VDW.0>
-0.486874

>  <SCORE.INTRA.norm>
0.00011152

>  <SCORE.RESTR>
0.00570662

>  <SCORE.RESTR.CAVITY>
0.00570662

>  <SCORE.RESTR.norm>
0.000570662

>  <SCORE.SYSTEM>
-22.3168

>  <SCORE.SYSTEM.CONST>
0

>  <SCORE.SYSTEM.DIHEDRAL>
5.35615

>  <SCORE.SYSTEM.POLAR>
-3.42784

>  <SCORE.SYSTEM.SOLV>
0.651348

>  <SCORE.SYSTEM.VDW>
-5.45419

>  <SCORE.SYSTEM.norm>
-2.23168

>  <SCORE.heavy>
10

>  <SCORE.norm>
-3.72912

$$$$
P12618448
 OpenBabel12072022103D
libRbt.so/2013.1/901 2013/11/27
 14 14  0  0  0  0  0  0  0  0999 V2000
   23.0198  -15.1780    4.4577 C   0  0  0  0  0  0  0  0  0  0  0  0
   21.5354  -14.8640    4.5346 C   0  0  0  0  0  0  0  0  0  0  0  0
   20.7143  -16.0843    4.3377 C   0  0  0  0  0  0  0  0  0  0  0  0
   20.5239  -17.0911    5.1654 N   0  0  0  0  0  0  0  0  0  0  0  0
   19.6882  -17.9272    4.4551 C   0  0  0  0  0  0  0  0  0  0  0  0
   19.4011  -17.3932    3.2153 C   0  0  0  0  0  0  0  0  0  0  0  0
   20.0702  -16.2003    3.1361 O   0  0  0  0  0  0  0  0  0  0  0  0
   18.6859  -17.7320    2.1128 N   0  0  0  0  0  0  0  0  0  0  0  0
   19.4871  -18.2505    1.0771 N   0  0  0  0  0  0  0  0  0  0  0  0
   19.2487  -19.1739    4.9868 C   0  0  0  0  0  0  0  0  0  0  0  0
   18.8889  -20.2031    5.3903 N   0  0  0  0  0  0  0  0  0  0  0  0
   17.8318  -18.2560    2.3297 H   0  0  0  0  0  0  0  0  0  0  0  0
   19.0736  -18.0451    0.1597 H   0  0  0  0  0  0  0  0  0  0  0  0
   19.5008  -19.2746    1.1140 H   0  0  0  0  0  0  0  0  0  0  0  0
  1  2  1  0  0  0  0
  2  3  1  0  0  0  0
  3  4  2  0  0  0  0
  3  7  1  0  0  0  0
  4  5  1  0  0  0  0
  5  6  2  0  0  0  0
  5 10  1  0  0  0  0
  6  7  1  0  0  0  0
  6  8  1  0  0  0  0
  8  9  1  0  0  0  0
  8 12  1  0  0  0  0
  9 13  1  0  0  0  0
  9 14  1  0  0  0  0
 10 11  3  0  0  0  0
M  END
>  <CHROM.0>
-45.34594466,170.73324759,-60.72109147,-53.99548678,-54.44298303,-57.71087594
-61.03598328,-53.15358428,-168.47932702,161.94159951

>  <CHROM.1>
73.01014919,-100.32226329,-150.54124543,20.12646835,-17.25858117,3.81905034
-0.14282386,0.90114249,1.99889371

>  <Name>
P12618448

>  <RI>
0

>  <Rbt.Current_Directory>
/home/fstefaniak/projects/zuza/docking/adenine/1Y26

>  <Rbt.Executable>
rbdock ($Id: //depot/dev/client3/rdock/2013.1/src/exe/rbdock.cxx#4 $)

>  <Rbt.Library>
libRbt.so (2013.1, Build901 2013/11/27)

>  <Rbt.Parameter_File>
/home/fstefaniak/progs/rDock//data/scripts/dock_solv.prm

>  <Rbt.Receptor>
1y26.prm

>  <SCORE>
-60.9615

>  <SCORE.INTER>
-38.98

>  <SCORE.INTER.CONST>
1

>  <SCORE.INTER.POLAR>
-5.04127

>  <SCORE.INTER.ROT>
3

>  <SCORE.INTER.SOLV>
14.6698

>  <SCORE.INTER.VDW>
-19.6724

>  <SCORE.INTER.norm>
-3.54364

>  <SCORE.INTRA>
-0.080977

>  <SCORE.INTRA.DIHEDRAL>
0.220403

>  <SCORE.INTRA.DIHEDRAL.0>
2.24048

>  <SCORE.INTRA.POLAR>
0

>  <SCORE.INTRA.POLAR.0>
0

>  <SCORE.INTRA.REPUL>
0

>  <SCORE.INTRA.REPUL.0>
0

>  <SCORE.INTRA.SOLV>
-0.431348

>  <SCORE.INTRA.SOLV.lig_0>
-17.7927

>  <SCORE.INTRA.VDW>
0.0244952

>  <SCORE.INTRA.VDW.0>
-1.02598

>  <SCORE.INTRA.norm>
-0.00736154

>  <SCORE.RESTR>
0

>  <SCORE.RESTR.CAVITY>
0

>  <SCORE.RESTR.norm>
0

>  <SCORE.SYSTEM>
-21.9004

>  <SCORE.SYSTEM.CONST>
0

>  <SCORE.SYSTEM.DIHEDRAL>
6.01002

>  <SCORE.SYSTEM.POLAR>
-3.43306

>  <SCORE.SYSTEM.SOLV>
0.617865

>  <SCORE.SYSTEM.VDW>
-5.36604

>  <SCORE.SYSTEM.norm>
-1.99095

>  <SCORE.heavy>
11

>  <SCORE.norm>
-5.54195

$$$$
P12618448
 OpenBabel12072022103D
libRbt.so/2013.1/901 2013/11/27
 14 14  0  0  0  0  0  0  0  0999 V2000
   21.5440  -14.8767    4.7806 C   0  0  0  0  0  0  0  0  0  0  0  0
   21.5335  -15.8587    3.6215 C   0  0  0  0  0  0  0  0  0  0  0  0
   20.4020  -16.8124    3.7319 C   0  0  0  0  0  0  0  0  0  0  0  0
   19.7302  -17.1723    4.8061 N   0  0  0  0  0  0  0  0  0  0  0  0
   18.8120  -18.0758    4.3136 C   0  0  0  0  0  0  0  0  0  0  0  0
   18.9620  -18.2313    2.9504 C   0  0  0  0  0  0  0  0  0  0  0  0
   19.9964  -17.4162    2.5729 O   0  0  0  0  0  0  0  0  0  0  0  0
   18.3969  -18.9534    1.9499 N   0  0  0  0  0  0  0  0  0  0  0  0
   17.4485  -18.2194    1.2117 N   0  0  0  0  0  0  0  0  0  0  0  0
   17.8856  -18.7418    5.1670 C   0  0  0  0  0  0  0  0  0  0  0  0
   17.1302  -19.3109    5.8432 N   0  0  0  0  0  0  0  0  0  0  0  0
   19.0783  -19.4905    1.4038 H   0  0  0  0  0  0  0  0  0  0  0  0
   16.6693  -18.8216    0.9200 H   0  0  0  0  0  0  0  0  0  0  0  0
   17.8538  -17.9001    0.3261 H   0  0  0  0  0  0  0  0  0  0  0  0
  1  2  1  0  0  0  0
  2  3  1  0  0  0  0
  3  4  2  0  0  0  0
  3  7  1  0  0  0  0
  4  5  1  0  0  0  0
  5  6  2  0  0  0  0
  5 10  1  0  0  0  0
  6  7  1  0  0  0  0
  6  8  1  0  0  0  0
  8  9  1  0  0  0  0
  8 12  1  0  0  0  0
  9 13  1  0  0  0  0
  9 14  1  0  0  0  0
 10 11  3  0  0  0  0
M  END
>  <CHROM.0>
-50.33733834,-175.57782899,-51.04208971,-52.36616176,-53.67140408,-60.38751814
-60.22016585,-176.90712170,-167.93095688,160.70477563

>  <CHROM.1>
-22.89801592,98.99993338,-144.27872473,19.26880820,-17.58874831,3.64157381
0.21173329,0.72163088,1.54429555

>  <Name>
P12618448

>  <RI>
0

>  <Rbt.Current_Directory>
/home/fstefaniak/projects/zuza/docking/adenine/1Y26

>  <Rbt.Executable>
rbdock ($Id: //depot/dev/client3/rdock/2013.1/src/exe/rbdock.cxx#4 $)

>  <Rbt.Library>
libRbt.so (2013.1, Build901 2013/11/27)

>  <Rbt.Parameter_File>
/home/fstefaniak/progs/rDock//data/scripts/dock_solv.prm

>  <Rbt.Receptor>
1y26.prm

>  <SCORE>
-60.5074

>  <SCORE.INTER>
-38.2231

>  <SCORE.INTER.CONST>
1

>  <SCORE.INTER.POLAR>
-5.49878

>  <SCORE.INTER.ROT>
3

>  <SCORE.INTER.SOLV>
15.1811

>  <SCORE.INTER.VDW>
-17.8132

>  <SCORE.INTER.norm>
-3.47483

>  <SCORE.INTRA>
0.507629

>  <SCORE.INTRA.DIHEDRAL>
0.433262

>  <SCORE.INTRA.DIHEDRAL.0>
2.24048

>  <SCORE.INTRA.POLAR>
0

>  <SCORE.INTRA.POLAR.0>
0

>  <SCORE.INTRA.REPUL>
0

>  <SCORE.INTRA.REPUL.0>
0

>  <SCORE.INTRA.SOLV>
-0.464317

>  <SCORE.INTRA.SOLV.lig_0>
-17.7927

>  <SCORE.INTRA.VDW>
0.523156

>  <SCORE.INTRA.VDW.0>
-1.02598

>  <SCORE.INTRA.norm>
0.0461481

>  <SCORE.RESTR>
0

>  <SCORE.RESTR.CAVITY>
0

>  <SCORE.RESTR.norm>
0

>  <SCORE.SYSTEM>
-22.7919

>  <SCORE.SYSTEM.CONST>
0

>  <SCORE.SYSTEM.DIHEDRAL>
5.68723

>  <SCORE.SYSTEM.POLAR>
-3.47117

>  <SCORE.SYSTEM.SOLV>
0.401076

>  <SCORE.SYSTEM.VDW>
-5.65348

>  <SCORE.SYSTEM.norm>
-2.07199

>  <SCORE.heavy>
11

>  <SCORE.norm>
-5.50067

$$$$
P12618448
 OpenBabel12072022103D
libRbt.so/2013.1/901 2013/11/27
 14 14  0  0  0  0  0  0  0  0999 V2000
   23.1641  -16.2611    4.2533 C   0  0  0  0  0  0  0  0  0  0  0  0
   21.8649  -15.5083    4.4842 C   0  0  0  0  0  0  0  0  0  0  0  0
   20.6877  -16.3910    4.2916 C   0  0  0  0  0  0  0  0  0  0  0  0
   20.0140  -17.0740    5.1941 N   0  0  0  0  0  0  0  0  0  0  0  0
   19.0437  -17.7084    4.4473 C   0  0  0  0  0  0  0  0  0  0  0  0
   19.1655  -17.3847    3.1113 C   0  0  0  0  0  0  0  0  0  0  0  0
   20.2347  -16.5343    3.0084 O   0  0  0  0  0  0  0  0  0  0  0  0
   18.5495  -17.6872    1.9404 N   0  0  0  0  0  0  0  0  0  0  0  0
   19.4222  -18.2550    0.9921 N   0  0  0  0  0  0  0  0  0  0  0  0
   18.0969  -18.5900    5.0446 C   0  0  0  0  0  0  0  0  0  0  0  0
   17.3233  -19.3262    5.5041 N   0  0  0  0  0  0  0  0  0  0  0  0
   17.6491  -18.1607    2.0674 H   0  0  0  0  0  0  0  0  0  0  0  0
   19.0544  -18.1339    0.0409 H   0  0  0  0  0  0  0  0  0  0  0  0
   19.4643  -19.2724    1.1089 H   0  0  0  0  0  0  0  0  0  0  0  0
  1  2  1  0  0  0  0
  2  3  1  0  0  0  0
  3  4  2  0  0  0  0
  3  7  1  0  0  0  0
  4  5  1  0  0  0  0
  5  6  2  0  0  0  0
  5 10  1  0  0  0  0
  6  7  1  0  0  0  0
  6  8  1  0  0  0  0
  8  9  1  0  0  0  0
  8 12  1  0  0  0  0
  9 13  1  0  0  0  0
  9 14  1  0  0  0  0
 10 11  3  0  0  0  0
M  END
>  <CHROM.0>
59.48255522,177.50214798,-47.99287492,-55.65704768,58.60809100,-63.27383008
-45.74209723,-174.80625519,-166.81255793,160.68006135

>  <CHROM.1>
94.50014217,-121.55083436,-157.77920879,19.81472296,-17.33422798,3.75974687
0.08206717,0.56403235,1.56612142

>  <Name>
P12618448

>  <RI>
0

>  <Rbt.Current_Directory>
/home/fstefaniak/projects/zuza/docking/adenine/1Y26

>  <Rbt.Executable>
rbdock ($Id: //depot/dev/client3/rdock/2013.1/src/exe/rbdock.cxx#4 $)

>  <Rbt.Library>
libRbt.so (2013.1, Build901 2013/11/27)

>  <Rbt.Parameter_File>
/home/fstefaniak/progs/rDock//data/scripts/dock_solv.prm

>  <Rbt.Receptor>
1y26.prm

>  <SCORE>
-58.3822

>  <SCORE.INTER>
-38.4112

>  <SCORE.INTER.CONST>
1

>  <SCORE.INTER.POLAR>
-5.61241

>  <SCORE.INTER.ROT>
3

>  <SCORE.INTER.SOLV>
14.2826

>  <SCORE.INTER.VDW>
-17.2603

>  <SCORE.INTER.norm>
-3.49193

>  <SCORE.INTRA>
-0.0800174

>  <SCORE.INTRA.DIHEDRAL>
-0.0526273

>  <SCORE.INTRA.DIHEDRAL.0>
2.24048

>  <SCORE.INTRA.POLAR>
0

>  <SCORE.INTRA.POLAR.0>
0

>  <SCORE.INTRA.REPUL>
0

>  <SCORE.INTRA.REPUL.0>
0

>  <SCORE.INTRA.SOLV>
-0.38771

>  <SCORE.INTRA.SOLV.lig_0>
-17.7927

>  <SCORE.INTRA.VDW>
0.140151

>  <SCORE.INTRA.VDW.0>
-1.02598

>  <SCORE.INTRA.norm>
-0.00727431

>  <SCORE.RESTR>
0

>  <SCORE.RESTR.CAVITY>
0

>  <SCORE.RESTR.norm>
0

>  <SCORE.SYSTEM>
-19.891

>  <SCORE.SYSTEM.CONST>
0

>  <SCORE.SYSTEM.DIHEDRAL>
6.30555

>  <SCORE.SYSTEM.POLAR>
-3.29445

>  <SCORE.SYSTEM.SOLV>
0.199281

>  <SCORE.SYSTEM.VDW>
-4.44742

>  <SCORE.SYSTEM.norm>
-1.80827

>  <SCORE.heavy>
11

>  <SCORE.norm>
-5.30747

$$$$
P126500777
 OpenBabel12072022103D
libRbt.so/2013.1/901 2013/11/27
 14 14  0  0  0  0  0  0  0  0999 V2000
   24.1197  -14.8941    4.7774 C   0  0  0  0  0  0  0  0  0  0  0  0
   23.6788  -16.3526    4.9368 C   0  0  0  0  0  0  0  0  0  0  0  0
   22.8301  -16.8561    3.7666 C   0  0  0  0  0  0  0  0  0  0  0  0
   21.3466  -16.4809    3.7925 C   0  0  2  0  0  0  0  0  0  0  0  0
   21.0960  -15.2163    4.5547 N   0  3  0  0  0  0  0  0  0  0  0  0
   20.0451  -15.1547    4.4055 H   0  0  0  0  0  0  0  0  0  0  0  0
   21.0641  -15.4304    5.5583 H   0  0  0  0  0  0  0  0  0  0  0  0
   21.7834  -13.9862    4.1906 C   0  0  0  0  0  0  0  0  0  0  0  0
   23.0394  -13.8443    5.0364 C   0  0  0  0  0  0  0  0  0  0  0  0
   20.4185  -17.5823    4.3715 C   0  0  0  0  0  0  0  0  0  0  0  0
   20.4340  -17.9266    5.5510 O   0  0  0  0  0  0  0  0  0  0  0  0
   19.5116  -18.1296    3.4690 N   0  0  0  0  0  0  0  0  0  0  0  0
   18.5893  -19.0787    3.8828 O   0  5  0  0  0  0  0  0  0  0  0  0
   19.2212  -17.5388    2.6903 H   0  0  0  0  0  0  0  0  0  0  0  0
  1  2  1  0  0  0  0
  1  9  1  0  0  0  0
  2  3  1  0  0  0  0
  3  4  1  0  0  0  0
  4  5  1  0  0  0  0
  4 10  1  1  0  0  0
  5  6  1  0  0  0  0
  5  7  1  0  0  0  0
  5  8  1  0  0  0  0
  8  9  1  0  0  0  0
 10 11  2  0  0  0  0
 10 12  1  0  0  0  0
 12 13  1  0  0  0  0
 12 14  1  0  0  0  0
M  CHG  2   5   1  13  -1
M  END
>  <CHROM.0>
-49.66783330,-178.63941860,61.54233510,-53.24676119,-174.44170828,-177.84957198
77.59600754,-176.07181721,-166.87615797,160.26849515

>  <CHROM.1>
67.53701812,-177.08069494,21.46969950,-16.42528708,4.40249718,-0.76551440
0.17064406,3.13154469

>  <Name>
P126500777

>  <RI>
0

>  <Rbt.Current_Directory>
/home/fstefaniak/projects/zuza/docking/adenine/1Y26

>  <Rbt.Executable>
rbdock ($Id: //depot/dev/client3/rdock/2013.1/src/exe/rbdock.cxx#4 $)

>  <Rbt.Library>
libRbt.so (2013.1, Build901 2013/11/27)

>  <Rbt.Parameter_File>
/home/fstefaniak/progs/rDock//data/scripts/dock_solv.prm

>  <Rbt.Receptor>
1y26.prm

>  <SCORE>
-46.5994

>  <SCORE.INTER>
-21.2047

>  <SCORE.INTER.CONST>
1

>  <SCORE.INTER.POLAR>
-4.03471

>  <SCORE.INTER.ROT>
2

>  <SCORE.INTER.SOLV>
25.4113

>  <SCORE.INTER.VDW>
-14.0912

>  <SCORE.INTER.norm>
-1.9277

>  <SCORE.INTRA>
-4.15676

>  <SCORE.INTRA.DIHEDRAL>
1.22075

>  <SCORE.INTRA.DIHEDRAL.0>
1.64509

>  <SCORE.INTRA.POLAR>
0

>  <SCORE.INTRA.POLAR.0>
0

>  <SCORE.INTRA.REPUL>
0

>  <SCORE.INTRA.REPUL.0>
0

>  <SCORE.INTRA.SOLV>
-7.99644

>  <SCORE.INTRA.SOLV.lig_0>
-46.0876

>  <SCORE.INTRA.VDW>
-0.768915

>  <SCORE.INTRA.VDW.0>
-0.00449069

>  <SCORE.INTRA.norm>
-0.377887

>  <SCORE.RESTR>
0

>  <SCORE.RESTR.CAVITY>
0

>  <SCORE.RESTR.norm>
0

>  <SCORE.SYSTEM>
-21.238

>  <SCORE.SYSTEM.CONST>
0

>  <SCORE.SYSTEM.DIHEDRAL>
6.82691

>  <SCORE.SYSTEM.POLAR>
-3.76196

>  <SCORE.SYSTEM.SOLV>
-0.0865099

>  <SCORE.SYSTEM.VDW>
-3.86559

>  <SCORE.SYSTEM.norm>
-1.93073

>  <SCORE.heavy>
11

>  <SCORE.norm>
-4.23631

$$$$
P126500777
 OpenBabel12072022103D
libRbt.so/2013.1/901 2013/11/27
 14 14  0  0  0  0  0  0  0  0999 V2000
   17.6909  -19.2476    5.2725 C   0  0  0  0  0  0  0  0  0  0  0  0
   18.0490  -18.3424    4.0896 C   0  0  0  0  0  0  0  0  0  0  0  0
   19.4644  -18.5798    3.5570 C   0  0  0  0  0  0  0  0  0  0  0  0
   20.6018  -17.9031    4.3254 C   0  0  2  0  0  0  0  0  0  0  0  0
   20.2524  -17.6682    5.7626 N   0  3  0  0  0  0  0  0  0  0  0  0
   21.1736  -17.2386    6.0746 H   0  0  0  0  0  0  0  0  0  0  0  0
   19.6887  -16.8132    5.8351 H   0  0  0  0  0  0  0  0  0  0  0  0
   19.8377  -18.7748    6.6121 C   0  0  0  0  0  0  0  0  0  0  0  0
   18.3195  -18.8654    6.6123 C   0  0  0  0  0  0  0  0  0  0  0  0
   21.0694  -16.5533    3.7182 C   0  0  0  0  0  0  0  0  0  0  0  0
   20.5030  -16.0050    2.7754 O   0  0  0  0  0  0  0  0  0  0  0  0
   22.1576  -15.9618    4.3525 N   0  0  0  0  0  0  0  0  0  0  0  0
   23.0200  -15.1339    3.6500 O   0  5  0  0  0  0  0  0  0  0  0  0
   22.0578  -15.7574    5.3465 H   0  0  0  0  0  0  0  0  0  0  0  0
  1  2  1  0  0  0  0
  1  9  1  0  0  0  0
  2  3  1  0  0  0  0
  3  4  1  0  0  0  0
  4  5  1  0  0  0  0
  4 10  1  6  0  0  0
  5  6  1  0  0  0  0
  5  7  1  0  0  0  0
  5  8  1  0  0  0  0
  8  9  1  0  0  0  0
 10 11  2  0  0  0  0
 10 12  1  0  0  0  0
 12 13  1  0  0  0  0
 12 14  1  0  0  0  0
M  CHG  2   5   1  13  -1
M  END
>  <CHROM.0>
-45.87995518,-65.20342523,-55.40778079,-53.20455705,-59.27407141,-64.40336393
-58.78493707,-176.28993970,-168.48568924,160.58298660

>  <CHROM.1>
6.37682339,152.03897717,20.13039517,-17.49183218,4.61160896,2.55367657,0.57262993
1.91076905

>  <Name>
P126500777

>  <RI>
0

>  <Rbt.Current_Directory>
/home/fstefaniak/projects/zuza/docking/adenine/1Y26

>  <Rbt.Executable>
rbdock ($Id: //depot/dev/client3/rdock/2013.1/src/exe/rbdock.cxx#4 $)

>  <Rbt.Library>
libRbt.so (2013.1, Build901 2013/11/27)

>  <Rbt.Parameter_File>
/home/fstefaniak/progs/rDock//data/scripts/dock_solv.prm

>  <Rbt.Receptor>
1y26.prm

>  <SCORE>
-46.1907

>  <SCORE.INTER>
-19.648

>  <SCORE.INTER.CONST>
1

>  <SCORE.INTER.POLAR>
-3.69329

>  <SCORE.INTER.ROT>
2

>  <SCORE.INTER.SOLV>
22.1318

>  <SCORE.INTER.VDW>
-13.0983

>  <SCORE.INTER.norm>
-1.78618

>  <SCORE.INTRA>
-3.91915

>  <SCORE.INTRA.DIHEDRAL>
-0.341072

>  <SCORE.INTRA.DIHEDRAL.0>
1.64509

>  <SCORE.INTRA.POLAR>
-0.156499

>  <SCORE.INTRA.POLAR.0>
0

>  <SCORE.INTRA.REPUL>
0

>  <SCORE.INTRA.REPUL.0>
0

>  <SCORE.INTRA.SOLV>
-6.12953

>  <SCORE.INTRA.SOLV.lig_0>
-46.0876

>  <SCORE.INTRA.VDW>
-0.151758

>  <SCORE.INTRA.VDW.0>
-0.00449069

>  <SCORE.INTRA.norm>
-0.356287

>  <SCORE.RESTR>
0

>  <SCORE.RESTR.CAVITY>
0

>  <SCORE.RESTR.norm>
0

>  <SCORE.SYSTEM>
-22.6236

>  <SCORE.SYSTEM.CONST>
0

>  <SCORE.SYSTEM.DIHEDRAL>
5.78094

>  <SCORE.SYSTEM.POLAR>
-3.47645

>  <SCORE.SYSTEM.SOLV>
0.442843

>  <SCORE.SYSTEM.VDW>
-5.56882

>  <SCORE.SYSTEM.norm>
-2.05669

>  <SCORE.heavy>
11

>  <SCORE.norm>
-4.19916

$$$$
P126500777
 OpenBabel12072022103D
libRbt.so/2013.1/901 2013/11/27
 14 14  0  0  0  0  0  0  0  0999 V2000
   17.6897  -19.2290    5.2264 C   0  0  0  0  0  0  0  0  0  0  0  0
   18.0534  -18.3013    4.0628 C   0  0  0  0  0  0  0  0  0  0  0  0
   19.4700  -18.5311    3.5300 C   0  0  0  0  0  0  0  0  0  0  0  0
   20.6063  -17.8721    4.3152 C   0  0  2  0  0  0  0  0  0  0  0  0
   20.2527  -17.6649    5.7557 N   0  3  0  0  0  0  0  0  0  0  0  0
   21.1738  -17.2434    6.0790 H   0  0  0  0  0  0  0  0  0  0  0  0
   19.6905  -16.8103    5.8433 H   0  0  0  0  0  0  0  0  0  0  0  0
   19.8331  -18.7871    6.5818 C   0  0  0  0  0  0  0  0  0  0  0  0
   18.3147  -18.8746    6.5754 C   0  0  0  0  0  0  0  0  0  0  0  0
   21.0786  -16.5115    3.7362 C   0  0  0  0  0  0  0  0  0  0  0  0
   20.4991  -15.9293    2.8222 O   0  0  0  0  0  0  0  0  0  0  0  0
   22.1882  -15.9524    4.3627 N   0  0  0  0  0  0  0  0  0  0  0  0
   23.0644  -15.1425    3.6563 O   0  5  0  0  0  0  0  0  0  0  0  0
   22.1039  -15.7518    5.3590 H   0  0  0  0  0  0  0  0  0  0  0  0
  1  2  1  0  0  0  0
  1  9  1  0  0  0  0
  2  3  1  0  0  0  0
  3  4  1  0  0  0  0
  4  5  1  0  0  0  0
  4 10  1  6  0  0  0
  5  6  1  0  0  0  0
  5  7  1  0  0  0  0
  5  8  1  0  0  0  0
  8  9  1  0  0  0  0
 10 11  2  0  0  0  0
 10 12  1  0  0  0  0
 12 13  1  0  0  0  0
 12 14  1  0  0  0  0
M  CHG  2   5   1  13  -1
M  END
>  <CHROM.0>
-48.53798059,-60.41107494,-51.14604371,-48.88340168,-52.59437567,-175.05106208
-54.32906564,-175.34707949,-167.18220156,160.31721218

>  <CHROM.1>
8.03099050,150.42578389,20.13855606,-17.47048332,4.60315385,2.55313991,0.56087662
1.93382305

>  <Name>
P126500777

>  <RI>
0

>  <Rbt.Current_Directory>
/home/fstefaniak/projects/zuza/docking/adenine/1Y26

>  <Rbt.Executable>
rbdock ($Id: //depot/dev/client3/rdock/2013.1/src/exe/rbdock.cxx#4 $)

>  <Rbt.Library>
libRbt.so (2013.1, Build901 2013/11/27)

>  <Rbt.Parameter_File>
/home/fstefaniak/progs/rDock//data/scripts/dock_solv.prm

>  <Rbt.Receptor>
1y26.prm

>  <SCORE>
-45.8341

>  <SCORE.INTER>
-19.5899

>  <SCORE.INTER.CONST>
1

>  <SCORE.INTER.POLAR>
-3.68556

>  <SCORE.INTER.ROT>
2

>  <SCORE.INTER.SOLV>
22.1367

>  <SCORE.INTER.VDW>
-13.087

>  <SCORE.INTER.norm>
-1.7809

>  <SCORE.INTRA>
-4.01233

>  <SCORE.INTRA.DIHEDRAL>
-0.31601

>  <SCORE.INTRA.DIHEDRAL.0>
1.64509

>  <SCORE.INTRA.POLAR>
-0.142986

>  <SCORE.INTRA.POLAR.0>
0

>  <SCORE.INTRA.REPUL>
0

>  <SCORE.INTRA.REPUL.0>
0

>  <SCORE.INTRA.SOLV>
-6.20504

>  <SCORE.INTRA.SOLV.lig_0>
-46.0876

>  <SCORE.INTRA.VDW>
-0.265655

>  <SCORE.INTRA.VDW.0>
-0.00449069

>  <SCORE.INTRA.norm>
-0.364757

>  <SCORE.RESTR>
0

>  <SCORE.RESTR.CAVITY>
0

>  <SCORE.RESTR.norm>
0

>  <SCORE.SYSTEM>
-22.2319

>  <SCORE.SYSTEM.CONST>
0

>  <SCORE.SYSTEM.DIHEDRAL>
6.56777

>  <SCORE.SYSTEM.POLAR>
-3.59135

>  <SCORE.SYSTEM.SOLV>
0.340381

>  <SCORE.SYSTEM.VDW>
-5.1528

>  <SCORE.SYSTEM.norm>
-2.02108

>  <SCORE.heavy>
11

>  <SCORE.norm>
-4.16674

$$$$
P128031521
 OpenBabel12072022103D
libRbt.so/2013.1/901 2013/11/27
 11 11  0  0  0  0  0  0  0  0999 V2000
   19.5777  -18.0300    4.6310 C   0  0  0  0  0  0  0  0  0  0  0  0
   20.2851  -16.8170    4.9332 N   0  0  0  0  0  0  0  0  0  0  0  0
   21.0466  -16.1698    3.9821 C   0  0  0  0  0  0  0  0  0  0  0  0
   20.7160  -16.0590    2.8046 O   0  0  0  0  0  0  0  0  0  0  0  0
   22.3223  -15.5239    4.5448 C   0  0  1  0  0  0  0  0  0  0  0  0
   23.4323  -16.5642    4.7165 C   0  0  0  0  0  0  0  0  0  0  0  0
   24.6126  -16.0298    3.9179 C   0  0  0  0  0  0  0  0  0  0  0  0
   24.3283  -14.5456    3.8008 C   0  0  0  0  0  0  0  0  0  0  0  0
   22.8813  -14.5334    3.5792 N   0  0  0  0  0  0  0  0  0  0  0  0
   22.3109  -13.2034    3.7663 C   0  0  0  0  0  0  0  0  0  0  0  0
   20.5597  -16.6080    5.8911 H   0  0  0  0  0  0  0  0  0  0  0  0
  1  2  1  0  0  0  0
  2  3  1  0  0  0  0
  2 11  1  0  0  0  0
  3  4  2  0  0  0  0
  5  3  1  6  0  0  0
  5  6  1  0  0  0  0
  5  9  1  0  0  0  0
  6  7  1  0  0  0  0
  7  8  1  0  0  0  0
  8  9  1  0  0  0  0
  9 10  1  0  0  0  0
M  END
>  <CHROM.0>
-49.46516899,-57.00750971,-59.02102495,-52.18010832,-55.42121924,-60.79991941
-60.56214486,-176.05425710,-166.10562499,160.55456765

>  <CHROM.1>
39.36575881,80.58008203,22.11760438,-15.75180063,4.06267507,-2.53597687,-0.09252834
-0.33873108

>  <Name>
P128031521

>  <RI>
0

>  <Rbt.Current_Directory>
/home/fstefaniak/projects/zuza/docking/adenine/1Y26

>  <Rbt.Executable>
rbdock ($Id: //depot/dev/client3/rdock/2013.1/src/exe/rbdock.cxx#4 $)

>  <Rbt.Library>
libRbt.so (2013.1, Build901 2013/11/27)

>  <Rbt.Parameter_File>
/home/fstefaniak/progs/rDock//data/scripts/dock_solv.prm

>  <Rbt.Receptor>
1y26.prm

>  <SCORE>
-43.1397

>  <SCORE.INTER>
-20.5954

>  <SCORE.INTER.CONST>
1

>  <SCORE.INTER.POLAR>
-2.38478

>  <SCORE.INTER.ROT>
2

>  <SCORE.INTER.SOLV>
8.9144

>  <SCORE.INTER.VDW>
-13.6858

>  <SCORE.INTER.norm>
-2.05954

>  <SCORE.INTRA>
0.139064

>  <SCORE.INTRA.DIHEDRAL>
-0.395913

>  <SCORE.INTRA.DIHEDRAL.0>
2.0346

>  <SCORE.INTRA.POLAR>
0.235362

>  <SCORE.INTRA.POLAR.0>
-0.235362

>  <SCORE.INTRA.REPUL>
0

>  <SCORE.INTRA.REPUL.0>
0

>  <SCORE.INTRA.SOLV>
-0.669855

>  <SCORE.INTRA.SOLV.lig_0>
-10.5026

>  <SCORE.INTRA.VDW>
-0.128281

>  <SCORE.INTRA.VDW.0>
-0.213033

>  <SCORE.INTRA.norm>
0.0139064

>  <SCORE.RESTR>
0

>  <SCORE.RESTR.CAVITY>
0

>  <SCORE.RESTR.norm>
0

>  <SCORE.SYSTEM>
-22.6834

>  <SCORE.SYSTEM.CONST>
0

>  <SCORE.SYSTEM.DIHEDRAL>
5.53674

>  <SCORE.SYSTEM.POLAR>
-3.45496

>  <SCORE.SYSTEM.SOLV>
0.447129

>  <SCORE.SYSTEM.VDW>
-5.6004

>  <SCORE.SYSTEM.norm>
-2.26834

>  <SCORE.heavy>
10

>  <SCORE.norm>
-4.31397

$$$$
P128031521
 OpenBabel12072022103D
libRbt.so/2013.1/901 2013/11/27
 11 11  0  0  0  0  0  0  0  0999 V2000
   19.7627  -18.1916    5.2533 C   0  0  0  0  0  0  0  0  0  0  0  0
   20.6493  -17.0780    5.0609 N   0  0  0  0  0  0  0  0  0  0  0  0
   20.8628  -16.5334    3.8115 C   0  0  0  0  0  0  0  0  0  0  0  0
   20.1607  -16.7756    2.8336 O   0  0  0  0  0  0  0  0  0  0  0  0
   22.0215  -15.5249    3.7655 C   0  0  1  0  0  0  0  0  0  0  0  0
   21.6035  -14.1834    4.3733 C   0  0  0  0  0  0  0  0  0  0  0  0
   22.6165  -13.9071    5.4752 C   0  0  0  0  0  0  0  0  0  0  0  0
   23.8067  -14.7660    5.0966 C   0  0  0  0  0  0  0  0  0  0  0  0
   23.1560  -15.9867    4.6174 N   0  0  0  0  0  0  0  0  0  0  0  0
   24.0787  -16.8457    3.8827 C   0  0  0  0  0  0  0  0  0  0  0  0
   21.4062  -16.9048    5.7195 H   0  0  0  0  0  0  0  0  0  0  0  0
  1  2  1  0  0  0  0
  2  3  1  0  0  0  0
  2 11  1  0  0  0  0
  3  4  2  0  0  0  0
  5  3  1  1  0  0  0
  5  6  1  0  0  0  0
  5  9  1  0  0  0  0
  6  7  1  0  0  0  0
  7  8  1  0  0  0  0
  8  9  1  0  0  0  0
  9 10  1  0  0  0  0
M  END
>  <CHROM.0>
-42.87036412,-57.13476575,-53.75962069,61.56636550,-174.03619380,-60.79522867
-63.01263642,-51.59118612,-166.16324857,161.68989580

>  <CHROM.1>
13.59245805,-76.47610187,21.85873162,-16.01390329,4.41946432,-2.45177008
-0.00662391,0.18211530

>  <Name>
P128031521

>  <RI>
0

>  <Rbt.Current_Directory>
/home/fstefaniak/projects/zuza/docking/adenine/1Y26

>  <Rbt.Executable>
rbdock ($Id: //depot/dev/client3/rdock/2013.1/src/exe/rbdock.cxx#4 $)

>  <Rbt.Library>
libRbt.so (2013.1, Build901 2013/11/27)

>  <Rbt.Parameter_File>
/home/fstefaniak/progs/rDock//data/scripts/dock_solv.prm

>  <Rbt.Receptor>
1y26.prm

>  <SCORE>
-40.9293

>  <SCORE.INTER>
-21.6528

>  <SCORE.INTER.CONST>
1

>  <SCORE.INTER.POLAR>
-2.13137

>  <SCORE.INTER.ROT>
2

>  <SCORE.INTER.SOLV>
9.62929

>  <SCORE.INTER.VDW>
-15.4737

>  <SCORE.INTER.norm>
-2.16528

>  <SCORE.INTRA>
0.0117237

>  <SCORE.INTRA.DIHEDRAL>
-0.370695

>  <SCORE.INTRA.DIHEDRAL.0>
2.0346

>  <SCORE.INTRA.POLAR>
0.0842182

>  <SCORE.INTRA.POLAR.0>
-0.235362

>  <SCORE.INTRA.REPUL>
0

>  <SCORE.INTRA.REPUL.0>
0

>  <SCORE.INTRA.SOLV>
-0.0199994

>  <SCORE.INTRA.SOLV.lig_0>
-10.5026

>  <SCORE.INTRA.VDW>
-0.079271

>  <SCORE.INTRA.VDW.0>
-0.213033

>  <SCORE.INTRA.norm>
0.00117237

>  <SCORE.RESTR>
0

>  <SCORE.RESTR.CAVITY>
0

>  <SCORE.RESTR.norm>
0

>  <SCORE.SYSTEM>
-19.2882

>  <SCORE.SYSTEM.CONST>
0

>  <SCORE.SYSTEM.DIHEDRAL>
6.44582

>  <SCORE.SYSTEM.POLAR>
-3.01806

>  <SCORE.SYSTEM.SOLV>
0.437127

>  <SCORE.SYSTEM.VDW>
-5.09294

>  <SCORE.SYSTEM.norm>
-1.92882

>  <SCORE.heavy>
10

>  <SCORE.norm>
-4.09293

$$$$
P128031521
 OpenBabel12072022103D
libRbt.so/2013.1/901 2013/11/27
 11 11  0  0  0  0  0  0  0  0999 V2000
   22.2070  -14.4826    4.2103 C   0  0  0  0  0  0  0  0  0  0  0  0
   21.6057  -15.7039    4.6684 N   0  0  0  0  0  0  0  0  0  0  0  0
   20.3917  -16.1386    4.1781 C   0  0  0  0  0  0  0  0  0  0  0  0
   19.6014  -15.4158    3.5771 O   0  0  0  0  0  0  0  0  0  0  0  0
   20.1438  -17.6414    4.3820 C   0  0  1  0  0  0  0  0  0  0  0  0
   20.1871  -18.0062    5.8682 C   0  0  0  0  0  0  0  0  0  0  0  0
   18.8531  -18.6796    6.1570 C   0  0  0  0  0  0  0  0  0  0  0  0
   18.3765  -19.1389    4.7934 C   0  0  0  0  0  0  0  0  0  0  0  0
   18.7667  -18.0124    3.9437 N   0  0  0  0  0  0  0  0  0  0  0  0
   18.7162  -18.3540    2.5260 C   0  0  0  0  0  0  0  0  0  0  0  0
   21.8333  -16.0742    5.5892 H   0  0  0  0  0  0  0  0  0  0  0  0
  1  2  1  0  0  0  0
  2  3  1  0  0  0  0
  2 11  1  0  0  0  0
  3  4  2  0  0  0  0
  5  3  1  1  0  0  0
  5  6  1  0  0  0  0
  5  9  1  0  0  0  0
  6  7  1  0  0  0  0
  7  8  1  0  0  0  0
  8  9  1  0  0  0  0
  9 10  1  0  0  0  0
M  END
>  <CHROM.0>
-50.24722774,-63.71162356,-57.77205623,-52.06316077,-56.74910237,-59.57008699
-56.89274217,-176.94385223,-166.70074626,160.61010698

>  <CHROM.1>
-17.25080916,59.10980232,19.89387098,-17.12612819,4.41569737,-0.51770129
0.80297180,2.12933174

>  <Name>
P128031521

>  <RI>
0

>  <Rbt.Current_Directory>
/home/fstefaniak/projects/zuza/docking/adenine/1Y26

>  <Rbt.Executable>
rbdock ($Id: //depot/dev/client3/rdock/2013.1/src/exe/rbdock.cxx#4 $)

>  <Rbt.Library>
libRbt.so (2013.1, Build901 2013/11/27)

>  <Rbt.Parameter_File>
/home/fstefaniak/progs/rDock//data/scripts/dock_solv.prm

>  <Rbt.Receptor>
1y26.prm

>  <SCORE>
-39.8009

>  <SCORE.INTER>
-17.7717

>  <SCORE.INTER.CONST>
1

>  <SCORE.INTER.POLAR>
-1.13137

>  <SCORE.INTER.ROT>
2

>  <SCORE.INTER.SOLV>
10.6924

>  <SCORE.INTER.VDW>
-16.574

>  <SCORE.INTER.norm>
-1.77717

>  <SCORE.INTRA>
0.66677

>  <SCORE.INTRA.DIHEDRAL>
-0.739687

>  <SCORE.INTRA.DIHEDRAL.0>
2.0346

>  <SCORE.INTRA.POLAR>
0.235362

>  <SCORE.INTRA.POLAR.0>
-0.235362

>  <SCORE.INTRA.REPUL>
0

>  <SCORE.INTRA.REPUL.0>
0

>  <SCORE.INTRA.SOLV>
-0.628713

>  <SCORE.INTRA.SOLV.lig_0>
-10.5026

>  <SCORE.INTRA.VDW>
0.550741

>  <SCORE.INTRA.VDW.0>
-0.213033

>  <SCORE.INTRA.norm>
0.066677

>  <SCORE.RESTR>
0

>  <SCORE.RESTR.CAVITY>
0

>  <SCORE.RESTR.norm>
0

>  <SCORE.SYSTEM>
-22.696

>  <SCORE.SYSTEM.CONST>
0

>  <SCORE.SYSTEM.DIHEDRAL>
5.40422

>  <SCORE.SYSTEM.POLAR>
-3.44355

>  <SCORE.SYSTEM.SOLV>
0.453635

>  <SCORE.SYSTEM.VDW>
-5.60475

>  <SCORE.SYSTEM.norm>
-2.2696

>  <SCORE.heavy>
10

>  <SCORE.norm>
-3.98009

$$$$
P128795404
 OpenBabel12072022103D
libRbt.so/2013.1/901 2013/11/27
 14 14  0  0  0  0  0  0  0  0999 V2000
   23.9385  -16.0530    4.7272 C   0  0  0  0  0  0  0  0  0  0  0  0
   23.5052  -14.6893    4.4705 N   0  0  0  0  0  0  0  0  0  0  0  0
   24.3858  -13.9037    3.6156 C   0  0  0  0  0  0  0  0  0  0  0  0
   22.1604  -14.4092    4.6631 C   0  0  0  0  0  0  0  0  0  0  0  0
   21.7558  -13.4464    5.3079 O   0  0  0  0  0  0  0  0  0  0  0  0
   21.2995  -15.3037    4.0787 N   0  0  0  0  0  0  0  0  0  0  0  0
   20.6502  -16.3292    4.8901 C   0  0  0  0  0  0  0  0  0  0  0  0
   19.8978  -17.3700    4.0394 C   0  0  1  0  0  0  0  0  0  0  0  0
   18.9648  -18.1924    4.8797 C   0  0  0  0  0  0  0  0  0  0  0  0
   19.2041  -19.6717    5.0504 C   0  0  0  0  0  0  0  0  0  0  0  0
   19.4095  -18.7401    6.2127 C   0  0  0  0  0  0  0  0  0  0  0  0
   19.1095  -16.6841    3.0618 O   0  0  0  0  0  0  0  0  0  0  0  0
   20.7080  -14.8800    3.3799 H   0  0  0  0  0  0  0  0  0  0  0  0
   18.5140  -16.1141    3.5816 H   0  0  0  0  0  0  0  0  0  0  0  0
  1  2  1  0  0  0  0
  2  3  1  0  0  0  0
  2  4  1  0  0  0  0
  4  5  2  0  0  0  0
  4  6  1  0  0  0  0
  6  7  1  0  0  0  0
  6 13  1  0  0  0  0
  8  7  1  1  0  0  0
  8  9  1  0  0  0  0
  8 12  1  0  0  0  0
  9 10  1  0  0  0  0
  9 11  1  0  0  0  0
 10 11  1  0  0  0  0
 12 14  1  0  0  0  0
M  END
>  <CHROM.0>
-50.20920357,-62.28862719,-56.60062252,-50.35223220,-55.51549380,-55.13960326
-55.00449091,-51.06052189,-166.35553688,159.98508936

>  <CHROM.1>
131.35157363,101.55829382,-171.09556290,-165.51002631,-114.94246117,-58.92545865
21.19799850,-16.18619982,4.55682471,-0.75740090,0.23971279,2.77611994

>  <Name>
P128795404

>  <RI>
0

>  <Rbt.Current_Directory>
/home/fstefaniak/projects/zuza/docking/adenine/1Y26

>  <Rbt.Executable>
rbdock ($Id: //depot/dev/client3/rdock/2013.1/src/exe/rbdock.cxx#4 $)

>  <Rbt.Library>
libRbt.so (2013.1, Build901 2013/11/27)

>  <Rbt.Parameter_File>
/home/fstefaniak/progs/rDock//data/scripts/dock_solv.prm

>  <Rbt.Receptor>
1y26.prm

>  <SCORE>
-53.2978

>  <SCORE.INTER>
-29.8474

>  <SCORE.INTER.CONST>
1

>  <SCORE.INTER.POLAR>
-3.39154

>  <SCORE.INTER.ROT>
5

>  <SCORE.INTER.SOLV>
12.1834

>  <SCORE.INTER.VDW>
-19.5876

>  <SCORE.INTER.norm>
-2.48728

>  <SCORE.INTRA>
-1.34051

>  <SCORE.INTRA.DIHEDRAL>
-1.19294

>  <SCORE.INTRA.DIHEDRAL.0>
5.41875

>  <SCORE.INTRA.POLAR>
0.086074

>  <SCORE.INTRA.POLAR.0>
-0.086074

>  <SCORE.INTRA.REPUL>
0

>  <SCORE.INTRA.REPUL.0>
0

>  <SCORE.INTRA.SOLV>
-0.43335

>  <SCORE.INTRA.SOLV.lig_0>
-15.3866

>  <SCORE.INTRA.VDW>
-0.820017

>  <SCORE.INTRA.VDW.0>
1.71162

>  <SCORE.INTRA.norm>
-0.111709

>  <SCORE.RESTR>
0

>  <SCORE.RESTR.CAVITY>
0

>  <SCORE.RESTR.norm>
0

>  <SCORE.SYSTEM>
-22.11

>  <SCORE.SYSTEM.CONST>
0

>  <SCORE.SYSTEM.DIHEDRAL>
6.20055

>  <SCORE.SYSTEM.POLAR>
-3.5536

>  <SCORE.SYSTEM.SOLV>
0.682598

>  <SCORE.SYSTEM.VDW>
-5.18903

>  <SCORE.SYSTEM.norm>
-1.8425

>  <SCORE.heavy>
12

>  <SCORE.norm>
-4.44149

$$$$
P128795404
 OpenBabel12072022103D
libRbt.so/2013.1/901 2013/11/27
 14 14  0  0  0  0  0  0  0  0999 V2000
   24.4903  -13.8978    3.5007 C   0  0  0  0  0  0  0  0  0  0  0  0
   23.6256  -15.0473    3.7105 N   0  0  0  0  0  0  0  0  0  0  0  0
   24.3109  -16.3198    3.8971 C   0  0  0  0  0  0  0  0  0  0  0  0
   22.3336  -14.7923    4.1462 C   0  0  0  0  0  0  0  0  0  0  0  0
   22.0459  -13.8744    4.9085 O   0  0  0  0  0  0  0  0  0  0  0  0
   21.3848  -15.6578    3.6631 N   0  0  0  0  0  0  0  0  0  0  0  0
   20.5290  -16.3942    4.5887 C   0  0  0  0  0  0  0  0  0  0  0  0
   19.8309  -17.5953    3.9230 C   0  0  1  0  0  0  0  0  0  0  0  0
   18.9185  -18.2997    4.8843 C   0  0  0  0  0  0  0  0  0  0  0  0
   19.1204  -19.7637    5.1857 C   0  0  0  0  0  0  0  0  0  0  0  0
   19.4156  -18.7335    6.2405 C   0  0  0  0  0  0  0  0  0  0  0  0
   19.0311  -17.1198    2.8360 O   0  0  0  0  0  0  0  0  0  0  0  0
   20.9159  -15.3074    2.8414 H   0  0  0  0  0  0  0  0  0  0  0  0
   18.6041  -17.9187    2.4767 H   0  0  0  0  0  0  0  0  0  0  0  0
  1  2  1  0  0  0  0
  2  3  1  0  0  0  0
  2  4  1  0  0  0  0
  4  5  2  0  0  0  0
  4  6  1  0  0  0  0
  6  7  1  0  0  0  0
  6 13  1  0  0  0  0
  8  7  1  1  0  0  0
  8  9  1  0  0  0  0
  8 12  1  0  0  0  0
  9 10  1  0  0  0  0
  9 11  1  0  0  0  0
 10 11  1  0  0  0  0
 12 14  1  0  0  0  0
M  END
>  <CHROM.0>
-57.45502483,-59.45982323,-52.48973574,-51.26723760,-175.26235273,-64.01509623
-62.52716407,-53.77981761,-170.20069057,161.95262284

>  <CHROM.1>
-34.55256307,124.31328511,-163.12510081,-177.80095863,-121.99593940,-178.61634743
21.26509198,-16.42429395,4.25525869,-0.70395223,0.23973081,2.63667848

>  <Name>
P128795404

>  <RI>
0

>  <Rbt.Current_Directory>
/home/fstefaniak/projects/zuza/docking/adenine/1Y26

>  <Rbt.Executable>
rbdock ($Id: //depot/dev/client3/rdock/2013.1/src/exe/rbdock.cxx#4 $)

>  <Rbt.Library>
libRbt.so (2013.1, Build901 2013/11/27)

>  <Rbt.Parameter_File>
/home/fstefaniak/progs/rDock//data/scripts/dock_solv.prm

>  <Rbt.Receptor>
1y26.prm

>  <SCORE>
-51.6645

>  <SCORE.INTER>
-27.3601

>  <SCORE.INTER.CONST>
1

>  <SCORE.INTER.POLAR>
-2.53045

>  <SCORE.INTER.ROT>
5

>  <SCORE.INTER.SOLV>
11.4241

>  <SCORE.INTER.VDW>
-20.5466

>  <SCORE.INTER.norm>
-2.28001

>  <SCORE.INTRA>
-2.30616

>  <SCORE.INTRA.DIHEDRAL>
-1.86134

>  <SCORE.INTRA.DIHEDRAL.0>
5.41875

>  <SCORE.INTRA.POLAR>
0.086074

>  <SCORE.INTRA.POLAR.0>
-0.086074

>  <SCORE.INTRA.REPUL>
0

>  <SCORE.INTRA.REPUL.0>
0

>  <SCORE.INTRA.SOLV>
-0.630014

>  <SCORE.INTRA.SOLV.lig_0>
-15.3866

>  <SCORE.INTRA.VDW>
-1.35313

>  <SCORE.INTRA.VDW.0>
1.71162

>  <SCORE.INTRA.norm>
-0.19218

>  <SCORE.RESTR>
0.000208106

>  <SCORE.RESTR.CAVITY>
0.000208106

>  <SCORE.RESTR.norm>
1.73421e-05

>  <SCORE.SYSTEM>
-21.9985

>  <SCORE.SYSTEM.CONST>
0

>  <SCORE.SYSTEM.DIHEDRAL>
4.91613

>  <SCORE.SYSTEM.POLAR>
-3.34426

>  <SCORE.SYSTEM.SOLV>
0.481643

>  <SCORE.SYSTEM.VDW>
-5.31735

>  <SCORE.SYSTEM.norm>
-1.8332

>  <SCORE.heavy>
12

>  <SCORE.norm>
-4.30538

$$$$
P128795404
 OpenBabel12072022103D
libRbt.so/2013.1/901 2013/11/27
 14 14  0  0  0  0  0  0  0  0999 V2000
   24.0947  -15.9845    4.5312 C   0  0  0  0  0  0  0  0  0  0  0  0
   23.5640  -14.6439    4.3460 N   0  0  0  0  0  0  0  0  0  0  0  0
   24.3647  -13.7653    3.5030 C   0  0  0  0  0  0  0  0  0  0  0  0
   22.2098  -14.4640    4.5862 C   0  0  0  0  0  0  0  0  0  0  0  0
   21.7594  -13.5446    5.2631 O   0  0  0  0  0  0  0  0  0  0  0  0
   21.3957  -15.4068    4.0107 N   0  0  0  0  0  0  0  0  0  0  0  0
   20.6427  -16.3329    4.8515 C   0  0  0  0  0  0  0  0  0  0  0  0
   19.8743  -17.3869    4.0320 C   0  0  1  0  0  0  0  0  0  0  0  0
   18.9544  -18.1927    4.9022 C   0  0  0  0  0  0  0  0  0  0  0  0
   19.1842  -19.6726    5.0810 C   0  0  0  0  0  0  0  0  0  0  0  0
   19.4261  -18.7322    6.2292 C   0  0  0  0  0  0  0  0  0  0  0  0
   19.0707  -16.7167    3.0560 O   0  0  0  0  0  0  0  0  0  0  0  0
   20.8901  -15.0539    3.2121 H   0  0  0  0  0  0  0  0  0  0  0  0
   18.4978  -16.1230    3.5746 H   0  0  0  0  0  0  0  0  0  0  0  0
  1  2  1  0  0  0  0
  2  3  1  0  0  0  0
  2  4  1  0  0  0  0
  4  5  2  0  0  0  0
  4  6  1  0  0  0  0
  6  7  1  0  0  0  0
  6 13  1  0  0  0  0
  8  7  1  1  0  0  0
  8  9  1  0  0  0  0
  8 12  1  0  0  0  0
  9 10  1  0  0  0  0
  9 11  1  0  0  0  0
 10 11  1  0  0  0  0
 12 14  1  0  0  0  0
M  END
>  <CHROM.0>
-51.22659647,41.92521338,-56.68352111,-55.10039692,-56.88027757,-63.63976470
-62.32456893,-49.61484671,-166.75164927,160.82612291

>  <CHROM.1>
132.71785875,113.37579184,-175.44809111,-171.59465138,-115.69923775,-57.78841864
21.22010077,-16.19089006,4.50496300,-0.75007531,0.23260474,2.74731792

>  <Name>
P128795404

>  <RI>
0

>  <Rbt.Current_Directory>
/home/fstefaniak/projects/zuza/docking/adenine/1Y26

>  <Rbt.Executable>
rbdock ($Id: //depot/dev/client3/rdock/2013.1/src/exe/rbdock.cxx#4 $)

>  <Rbt.Library>
libRbt.so (2013.1, Build901 2013/11/27)

>  <Rbt.Parameter_File>
/home/fstefaniak/progs/rDock//data/scripts/dock_solv.prm

>  <Rbt.Receptor>
1y26.prm

>  <SCORE>
-51.655

>  <SCORE.INTER>
-28.6804

>  <SCORE.INTER.CONST>
1

>  <SCORE.INTER.POLAR>
-3.29773

>  <SCORE.INTER.ROT>
5

>  <SCORE.INTER.SOLV>
12.0706

>  <SCORE.INTER.VDW>
-19.0847

>  <SCORE.INTER.norm>
-2.39003

>  <SCORE.INTRA>
-1.6468

>  <SCORE.INTRA.DIHEDRAL>
-1.62037

>  <SCORE.INTRA.DIHEDRAL.0>
5.41875

>  <SCORE.INTRA.POLAR>
0.086025

>  <SCORE.INTRA.POLAR.0>
-0.086074

>  <SCORE.INTRA.REPUL>
0

>  <SCORE.INTRA.REPUL.0>
0

>  <SCORE.INTRA.SOLV>
-0.484899

>  <SCORE.INTRA.SOLV.lig_0>
-15.3866

>  <SCORE.INTRA.VDW>
-0.886649

>  <SCORE.INTRA.VDW.0>
1.71162

>  <SCORE.INTRA.norm>
-0.137233

>  <SCORE.RESTR>
0.0712126

>  <SCORE.RESTR.CAVITY>
0.0712126

>  <SCORE.RESTR.norm>
0.00593438

>  <SCORE.SYSTEM>
-21.399

>  <SCORE.SYSTEM.CONST>
0

>  <SCORE.SYSTEM.DIHEDRAL>
6.99722

>  <SCORE.SYSTEM.POLAR>
-3.5306

>  <SCORE.SYSTEM.SOLV>
0.740717

>  <SCORE.SYSTEM.VDW>
-5.07665

>  <SCORE.SYSTEM.norm>
-1.78325

>  <SCORE.heavy>
12

>  <SCORE.norm>
-4.30458

$$$$
P128856802
 OpenBabel12072022103D
libRbt.so/2013.1/901 2013/11/27
 15 16  0  0  0  0  0  0  0  0999 V2000
   17.6568  -18.8191    4.6175 C   0  0  0  0  0  0  0  0  0  0  0  0
   18.1264  -19.4062    5.7295 C   0  0  0  0  0  0  0  0  0  0  0  0
   19.3267  -18.8057    6.0344 N   0  0  0  0  0  0  0  0  0  0  0  0
   19.9125  -19.0673    6.8093 H   0  0  0  0  0  0  0  0  0  0  0  0
   19.6557  -17.8222    5.1108 C   0  0  0  0  0  0  0  0  0  0  0  0
   20.7225  -17.1078    5.1288 N   0  0  0  0  0  0  0  0  0  0  0  0
   20.8837  -16.1872    4.1322 C   0  0  0  0  0  0  0  0  0  0  0  0
   20.2381  -16.1164    3.0904 O   0  0  0  0  0  0  0  0  0  0  0  0
   21.8915  -15.3193    4.4547 N   0  0  0  0  0  0  0  0  0  0  0  0
   22.3157  -14.2416    3.6292 C   0  0  0  0  0  0  0  0  0  0  0  0
   22.4071  -12.8439    4.1785 C   0  0  0  0  0  0  0  0  0  0  0  0
   23.6587  -13.6002    3.8431 C   0  0  0  0  0  0  0  0  0  0  0  0
   18.5705  -17.8631    4.2476 N   0  0  0  0  0  0  0  0  0  0  0  0
   18.5027  -17.2701    3.4293 H   0  0  0  0  0  0  0  0  0  0  0  0
   22.3272  -15.4960    5.3478 H   0  0  0  0  0  0  0  0  0  0  0  0
  1  2  2  0  0  0  0
  1 13  1  0  0  0  0
  2  3  1  0  0  0  0
  3  4  1  0  0  0  0
  3  5  1  0  0  0  0
  5  6  2  0  0  0  0
  5 13  1  0  0  0  0
  6  7  1  0  0  0  0
  7  8  2  0  0  0  0
  7  9  1  0  0  0  0
  9 10  1  0  0  0  0
  9 15  1  0  0  0  0
 10 11  1  0  0  0  0
 10 12  1  0  0  0  0
 11 12  1  0  0  0  0
 13 14  1  0  0  0  0
M  END
>  <CHROM.0>
-49.31788948,170.75770104,-58.90027658,-52.18476366,-57.91324729,-60.24705897
-60.41034315,-52.81659765,-167.03025430,160.62722844

>  <CHROM.1>
-13.48359124,127.48656736,20.47255934,-16.49018531,4.50646266,2.45514513
0.61292164,2.27348891

>  <Name>
P128856802

>  <RI>
0

>  <Rbt.Current_Directory>
/home/fstefaniak/projects/zuza/docking/adenine/1Y26

>  <Rbt.Executable>
rbdock ($Id: //depot/dev/client3/rdock/2013.1/src/exe/rbdock.cxx#4 $)

>  <Rbt.Library>
libRbt.so (2013.1, Build901 2013/11/27)

>  <Rbt.Parameter_File>
/home/fstefaniak/progs/rDock//data/scripts/dock_solv.prm

>  <Rbt.Receptor>
1y26.prm

>  <SCORE>
-43.4204

>  <SCORE.INTER>
-22.6185

>  <SCORE.INTER.CONST>
1

>  <SCORE.INTER.POLAR>
-2.44603

>  <SCORE.INTER.ROT>
2

>  <SCORE.INTER.SOLV>
13.4431

>  <SCORE.INTER.VDW>
-16.3399

>  <SCORE.INTER.norm>
-1.88487

>  <SCORE.INTRA>
1.3206

>  <SCORE.INTRA.DIHEDRAL>
2.61506

>  <SCORE.INTRA.DIHEDRAL.0>
1.21774

>  <SCORE.INTRA.POLAR>
0.0216637

>  <SCORE.INTRA.POLAR.0>
-0.0396864

>  <SCORE.INTRA.REPUL>
0

>  <SCORE.INTRA.REPUL.0>
0

>  <SCORE.INTRA.SOLV>
-0.0338931

>  <SCORE.INTRA.SOLV.lig_0>
-23.5423

>  <SCORE.INTRA.VDW>
-0.0436416

>  <SCORE.INTRA.VDW.0>
-0.39223

>  <SCORE.INTRA.norm>
0.11005

>  <SCORE.RESTR>
0

>  <SCORE.RESTR.CAVITY>
0

>  <SCORE.RESTR.norm>
0

>  <SCORE.SYSTEM>
-22.1226

>  <SCORE.SYSTEM.CONST>
0

>  <SCORE.SYSTEM.DIHEDRAL>
5.88016

>  <SCORE.SYSTEM.POLAR>
-3.47213

>  <SCORE.SYSTEM.SOLV>
0.612677

>  <SCORE.SYSTEM.VDW>
-5.33889

>  <SCORE.SYSTEM.norm>
-1.84355

>  <SCORE.heavy>
12

>  <SCORE.norm>
-3.61837

$$$$
P128856802
 OpenBabel12072022103D
libRbt.so/2013.1/901 2013/11/27
 15 16  0  0  0  0  0  0  0  0999 V2000
   17.6627  -18.8390    4.6459 C   0  0  0  0  0  0  0  0  0  0  0  0
   18.1239  -19.3973    5.7760 C   0  0  0  0  0  0  0  0  0  0  0  0
   19.3112  -18.7741    6.0861 N   0  0  0  0  0  0  0  0  0  0  0  0
   19.8891  -19.0121    6.8745 H   0  0  0  0  0  0  0  0  0  0  0  0
   19.6402  -17.8046    5.1479 C   0  0  0  0  0  0  0  0  0  0  0  0
   20.6968  -17.0750    5.1670 N   0  0  0  0  0  0  0  0  0  0  0  0
   20.8599  -16.1721    4.1547 C   0  0  0  0  0  0  0  0  0  0  0  0
   20.2225  -16.1254    3.1065 O   0  0  0  0  0  0  0  0  0  0  0  0
   21.8591  -15.2914    4.4690 N   0  0  0  0  0  0  0  0  0  0  0  0
   22.2828  -14.2264    3.6269 C   0  0  0  0  0  0  0  0  0  0  0  0
   22.5025  -12.8470    4.1857 C   0  0  0  0  0  0  0  0  0  0  0  0
   23.6752  -13.6709    3.7423 C   0  0  0  0  0  0  0  0  0  0  0  0
   18.5685  -17.8777    4.2702 N   0  0  0  0  0  0  0  0  0  0  0  0
   18.5046  -17.3020    3.4393 H   0  0  0  0  0  0  0  0  0  0  0  0
   22.2886  -15.4484    5.3688 H   0  0  0  0  0  0  0  0  0  0  0  0
  1  2  2  0  0  0  0
  1 13  1  0  0  0  0
  2  3  1  0  0  0  0
  3  4  1  0  0  0  0
  3  5  1  0  0  0  0
  5  6  2  0  0  0  0
  5 13  1  0  0  0  0
  6  7  1  0  0  0  0
  7  8  2  0  0  0  0
  7  9  1  0  0  0  0
  9 10  1  0  0  0  0
  9 15  1  0  0  0  0
 10 11  1  0  0  0  0
 10 12  1  0  0  0  0
 11 12  1  0  0  0  0
 13 14  1  0  0  0  0
M  END
>  <CHROM.0>
-50.30610811,172.31993885,-51.21191857,-53.00784799,-175.33280844,-57.14199356
-57.37029058,-53.68610572,-166.82710416,160.50520065

>  <CHROM.1>
-12.93527411,134.10497889,20.46861427,-16.48760127,4.52137329,2.47197381
0.62668346,2.23498693

>  <Name>
P128856802

>  <RI>
0

>  <Rbt.Current_Directory>
/home/fstefaniak/projects/zuza/docking/adenine/1Y26

>  <Rbt.Executable>
rbdock ($Id: //depot/dev/client3/rdock/2013.1/src/exe/rbdock.cxx#4 $)

>  <Rbt.Library>
libRbt.so (2013.1, Build901 2013/11/27)

>  <Rbt.Parameter_File>
/home/fstefaniak/progs/rDock//data/scripts/dock_solv.prm

>  <Rbt.Receptor>
1y26.prm

>  <SCORE>
-43.0456

>  <SCORE.INTER>
-22.235

>  <SCORE.INTER.CONST>
1

>  <SCORE.INTER.POLAR>
-2.40684

>  <SCORE.INTER.ROT>
2

>  <SCORE.INTER.SOLV>
13.4526

>  <SCORE.INTER.VDW>
-16.218

>  <SCORE.INTER.norm>
-1.85291

>  <SCORE.INTRA>
1.21641

>  <SCORE.INTRA.DIHEDRAL>
2.40921

>  <SCORE.INTRA.DIHEDRAL.0>
1.21774

>  <SCORE.INTRA.POLAR>
0.0198938

>  <SCORE.INTRA.POLAR.0>
-0.0396864

>  <SCORE.INTRA.REPUL>
0

>  <SCORE.INTRA.REPUL.0>
0

>  <SCORE.INTRA.SOLV>
-0.038618

>  <SCORE.INTRA.SOLV.lig_0>
-23.5423

>  <SCORE.INTRA.VDW>
-0.0365282

>  <SCORE.INTRA.VDW.0>
-0.39223

>  <SCORE.INTRA.norm>
0.101367

>  <SCORE.RESTR>
0

>  <SCORE.RESTR.CAVITY>
0

>  <SCORE.RESTR.norm>
0

>  <SCORE.SYSTEM>
-22.027

>  <SCORE.SYSTEM.CONST>
0

>  <SCORE.SYSTEM.DIHEDRAL>
6.09453

>  <SCORE.SYSTEM.POLAR>
-3.50536

>  <SCORE.SYSTEM.SOLV>
0.468142

>  <SCORE.SYSTEM.VDW>
-5.18772

>  <SCORE.SYSTEM.norm>
-1.83559

>  <SCORE.heavy>
12

>  <SCORE.norm>
-3.58713

$$$$
P128856802
 OpenBabel12072022103D
libRbt.so/2013.1/901 2013/11/27
 15 16  0  0  0  0  0  0  0  0999 V2000
   23.0792  -13.0964    3.1899 C   0  0  0  0  0  0  0  0  0  0  0  0
   23.9316  -13.1278    4.2264 C   0  0  0  0  0  0  0  0  0  0  0  0
   23.6264  -14.2419    4.9744 N   0  0  0  0  0  0  0  0  0  0  0  0
   24.0940  -14.4995    5.8272 H   0  0  0  0  0  0  0  0  0  0  0  0
   22.5584  -14.9449    4.4327 C   0  0  0  0  0  0  0  0  0  0  0  0
   22.0423  -16.0137    4.9228 N   0  0  0  0  0  0  0  0  0  0  0  0
   20.9876  -16.5698    4.2558 C   0  0  0  0  0  0  0  0  0  0  0  0
   20.6028  -16.2820    3.1260 O   0  0  0  0  0  0  0  0  0  0  0  0
   20.3931  -17.5262    5.0335 N   0  0  0  0  0  0  0  0  0  0  0  0
   19.2639  -18.2942    4.6361 C   0  0  0  0  0  0  0  0  0  0  0  0
   19.1838  -19.7625    4.9541 C   0  0  0  0  0  0  0  0  0  0  0  0
   18.2824  -18.7930    5.6601 C   0  0  0  0  0  0  0  0  0  0  0  0
   22.2576  -14.1903    3.3082 N   0  0  0  0  0  0  0  0  0  0  0  0
   21.4943  -14.4228    2.6843 H   0  0  0  0  0  0  0  0  0  0  0  0
   20.8238  -17.6594    5.9365 H   0  0  0  0  0  0  0  0  0  0  0  0
  1  2  2  0  0  0  0
  1 13  1  0  0  0  0
  2  3  1  0  0  0  0
  3  4  1  0  0  0  0
  3  5  1  0  0  0  0
  5  6  2  0  0  0  0
  5 13  1  0  0  0  0
  6  7  1  0  0  0  0
  7  8  2  0  0  0  0
  7  9  1  0  0  0  0
  9 10  1  0  0  0  0
  9 15  1  0  0  0  0
 10 11  1  0  0  0  0
 10 12  1  0  0  0  0
 11 12  1  0  0  0  0
 13 14  1  0  0  0  0
M  END
>  <CHROM.0>
-48.14552904,56.72857559,-53.11485640,-51.94429949,-173.98693608,-59.65723790
-59.65593603,-52.19556261,-167.27500470,160.72896155

>  <CHROM.1>
12.12555431,139.19013223,21.33211943,-16.09312062,4.39393233,0.61515654,-0.69556744
-0.93982590

>  <Name>
P128856802

>  <RI>
0

>  <Rbt.Current_Directory>
/home/fstefaniak/projects/zuza/docking/adenine/1Y26

>  <Rbt.Executable>
rbdock ($Id: //depot/dev/client3/rdock/2013.1/src/exe/rbdock.cxx#4 $)

>  <Rbt.Library>
libRbt.so (2013.1, Build901 2013/11/27)

>  <Rbt.Parameter_File>
/home/fstefaniak/progs/rDock//data/scripts/dock_solv.prm

>  <Rbt.Receptor>
1y26.prm

>  <SCORE>
-42.6989

>  <SCORE.INTER>
-22.2814

>  <SCORE.INTER.CONST>
1

>  <SCORE.INTER.POLAR>
-2.83052

>  <SCORE.INTER.ROT>
2

>  <SCORE.INTER.SOLV>
12.817

>  <SCORE.INTER.VDW>
-14.6249

>  <SCORE.INTER.norm>
-1.85678

>  <SCORE.INTRA>
1.0578

>  <SCORE.INTRA.DIHEDRAL>
2.07699

>  <SCORE.INTRA.DIHEDRAL.0>
1.21774

>  <SCORE.INTRA.POLAR>
0.0202024

>  <SCORE.INTRA.POLAR.0>
-0.0396864

>  <SCORE.INTRA.REPUL>
0

>  <SCORE.INTRA.REPUL.0>
0

>  <SCORE.INTRA.SOLV>
-0.0417083

>  <SCORE.INTRA.SOLV.lig_0>
-23.5423

>  <SCORE.INTRA.VDW>
-0.0285326

>  <SCORE.INTRA.VDW.0>
-0.39223

>  <SCORE.INTRA.norm>
0.0881498

>  <SCORE.RESTR>
0.0989024

>  <SCORE.RESTR.CAVITY>
0.0989024

>  <SCORE.RESTR.norm>
0.00824187

>  <SCORE.SYSTEM>
-21.5742

>  <SCORE.SYSTEM.CONST>
0

>  <SCORE.SYSTEM.DIHEDRAL>
6.025

>  <SCORE.SYSTEM.POLAR>
-3.53606

>  <SCORE.SYSTEM.SOLV>
0.557305

>  <SCORE.SYSTEM.VDW>
-4.79002

>  <SCORE.SYSTEM.norm>
-1.79785

>  <SCORE.heavy>
12

>  <SCORE.norm>
-3.55824

$$$$
P128880369
 OpenBabel12072022103D
libRbt.so/2013.1/901 2013/11/27
 17 17  0  0  0  0  0  0  0  0999 V2000
   23.0367  -10.7136    3.4354 C   0  0  0  0  0  0  0  0  0  0  0  0
   22.3990  -11.8877    4.1808 C   0  0  2  0  0  0  0  0  0  0  0  0
   22.7155  -11.8055    5.6771 C   0  0  0  0  0  0  0  0  0  0  0  0
   22.0596  -12.9622    6.4154 C   0  0  0  0  0  0  0  0  0  0  0  0
   22.3781  -14.3150    5.7770 C   0  0  0  0  0  0  0  0  0  0  0  0
   22.0460  -14.3378    4.3414 N   0  0  0  0  0  0  0  0  0  0  0  0
   22.7845  -13.2745    3.5936 C   0  0  2  0  0  0  0  0  0  0  0  0
   24.3066  -13.4901    3.5025 C   0  0  0  0  0  0  0  0  0  0  0  0
   22.2051  -15.7002    3.7424 C   0  0  1  0  0  0  0  0  0  0  0  0
   23.4150  -16.4730    4.2894 C   0  0  0  0  0  0  0  0  0  0  0  0
   20.9628  -16.5645    4.0427 C   0  0  0  0  0  0  0  0  0  0  0  0
   20.6251  -16.8833    5.1822 O   0  0  0  0  0  0  0  0  0  0  0  0
   20.2375  -16.9110    2.9048 N   0  0  0  0  0  0  0  0  0  0  0  0
   18.8257  -16.9339    2.9592 N   0  0  0  0  0  0  0  0  0  0  0  0
   20.7239  -17.4932    2.2195 H   0  0  0  0  0  0  0  0  0  0  0  0
   18.5418  -16.2261    3.6441 H   0  0  0  0  0  0  0  0  0  0  0  0
   18.5572  -17.8162    3.4129 H   0  0  0  0  0  0  0  0  0  0  0  0
  2  3  1  0  0  0  0
  2  7  1  0  0  0  0
  2  1  1  6  0  0  0
  3  4  1  0  0  0  0
  4  5  1  0  0  0  0
  5  6  1  0  0  0  0
  6  7  1  0  0  0  0
  6  9  1  0  0  0  0
  7  8  1  1  0  0  0
  9 10  1  1  0  0  0
  9 11  1  0  0  0  0
 11 12  2  0  0  0  0
 11 13  1  0  0  0  0
 13 14  1  0  0  0  0
 13 15  1  0  0  0  0
 14 16  1  0  0  0  0
 14 17  1  0  0  0  0
M  END
>  <CHROM.0>
-50.08502435,173.78050070,-56.27748962,-51.93153241,59.64481062,-57.13782351
-56.62589783,-52.83200451,-165.38253928,162.46152882

>  <CHROM.1>
-38.01889441,-63.28232133,-141.48733838,30.56823232,21.97285693,-14.48931550
4.28082868,-0.36862756,-1.03978913,-1.83202386

>  <Name>
P128880369

>  <RI>
0

>  <Rbt.Current_Directory>
/home/fstefaniak/projects/zuza/docking/adenine/1Y26

>  <Rbt.Executable>
rbdock ($Id: //depot/dev/client3/rdock/2013.1/src/exe/rbdock.cxx#4 $)

>  <Rbt.Library>
libRbt.so (2013.1, Build901 2013/11/27)

>  <Rbt.Parameter_File>
/home/fstefaniak/progs/rDock//data/scripts/dock_solv.prm

>  <Rbt.Receptor>
1y26.prm

>  <SCORE>
-39.7823

>  <SCORE.INTER>
-24.3971

>  <SCORE.INTER.CONST>
1

>  <SCORE.INTER.POLAR>
-3.59144

>  <SCORE.INTER.ROT>
4

>  <SCORE.INTER.SOLV>
12.152

>  <SCORE.INTER.VDW>
-14.6106

>  <SCORE.INTER.norm>
-1.74265

>  <SCORE.INTRA>
3.47264

>  <SCORE.INTRA.DIHEDRAL>
1.62262

>  <SCORE.INTRA.DIHEDRAL.0>
2.56235

>  <SCORE.INTRA.POLAR>
0.0289466

>  <SCORE.INTRA.POLAR.0>
-0.0289466

>  <SCORE.INTRA.REPUL>
0

>  <SCORE.INTRA.REPUL.0>
0

>  <SCORE.INTRA.SOLV>
-1.04904

>  <SCORE.INTRA.SOLV.lig_0>
-14.3357

>  <SCORE.INTRA.VDW>
3.08743

>  <SCORE.INTRA.VDW.0>
0.386712

>  <SCORE.INTRA.norm>
0.248045

>  <SCORE.RESTR>
1.65588

>  <SCORE.RESTR.CAVITY>
1.65588

>  <SCORE.RESTR.norm>
0.118277

>  <SCORE.SYSTEM>
-20.5138

>  <SCORE.SYSTEM.CONST>
0

>  <SCORE.SYSTEM.DIHEDRAL>
5.67091

>  <SCORE.SYSTEM.POLAR>
-3.43616

>  <SCORE.SYSTEM.SOLV>
0.42525

>  <SCORE.SYSTEM.VDW>
-4.25404

>  <SCORE.SYSTEM.norm>
-1.46527

>  <SCORE.heavy>
14

>  <SCORE.norm>
-2.84159

$$$$
P128880369
 OpenBabel12072022103D
libRbt.so/2013.1/901 2013/11/27
 17 17  0  0  0  0  0  0  0  0999 V2000
   25.1258  -13.4719    2.9465 C   0  0  0  0  0  0  0  0  0  0  0  0
   23.7313  -13.6676    3.5448 C   0  0  2  0  0  0  0  0  0  0  0  0
   23.5759  -12.8341    4.8203 C   0  0  0  0  0  0  0  0  0  0  0  0
   22.1802  -13.0150    5.3971 C   0  0  0  0  0  0  0  0  0  0  0  0
   21.8036  -14.4886    5.5572 C   0  0  0  0  0  0  0  0  0  0  0  0
   21.9648  -15.2376    4.2983 N   0  0  0  0  0  0  0  0  0  0  0  0
   23.3696  -15.1589    3.7928 C   0  0  2  0  0  0  0  0  0  0  0  0
   24.4078  -15.8968    4.6583 C   0  0  0  0  0  0  0  0  0  0  0  0
   21.4515  -16.6398    4.4010 C   0  0  1  0  0  0  0  0  0  0  0  0
   20.1401  -16.7561    5.1928 C   0  0  0  0  0  0  0  0  0  0  0  0
   21.1649  -17.2084    2.9957 C   0  0  0  0  0  0  0  0  0  0  0  0
   20.2453  -16.8077    2.2829 O   0  0  0  0  0  0  0  0  0  0  0  0
   22.0730  -18.1860    2.5950 N   0  0  0  0  0  0  0  0  0  0  0  0
   22.2098  -18.4882    1.2214 N   0  0  0  0  0  0  0  0  0  0  0  0
   22.3087  -18.8958    3.2920 H   0  0  0  0  0  0  0  0  0  0  0  0
   21.4438  -19.1244    0.9779 H   0  0  0  0  0  0  0  0  0  0  0  0
   23.0433  -19.0819    1.1263 H   0  0  0  0  0  0  0  0  0  0  0  0
  2  3  1  0  0  0  0
  2  7  1  0  0  0  0
  2  1  1  1  0  0  0
  3  4  1  0  0  0  0
  4  5  1  0  0  0  0
  5  6  1  0  0  0  0
  6  7  1  0  0  0  0
  6  9  1  0  0  0  0
  7  8  1  1  0  0  0
  9 10  1  1  0  0  0
  9 11  1  0  0  0  0
 11 12  2  0  0  0  0
 11 13  1  0  0  0  0
 13 14  1  0  0  0  0
 13 15  1  0  0  0  0
 14 16  1  0  0  0  0
 14 17  1  0  0  0  0
M  END
>  <CHROM.0>
-46.96615318,-71.05817988,-54.18381683,-51.77058557,-177.30051021,-54.92901522
-66.27420731,-54.79626766,-167.75523172,159.65067326

>  <CHROM.1>
40.30396826,-69.29262469,-159.95452613,-81.24337052,22.38387806,-15.61235420
3.80390833,-1.03944434,-0.51267171,-2.44543459

>  <Name>
P128880369

>  <RI>
0

>  <Rbt.Current_Directory>
/home/fstefaniak/projects/zuza/docking/adenine/1Y26

>  <Rbt.Executable>
rbdock ($Id: //depot/dev/client3/rdock/2013.1/src/exe/rbdock.cxx#4 $)

>  <Rbt.Library>
libRbt.so (2013.1, Build901 2013/11/27)

>  <Rbt.Parameter_File>
/home/fstefaniak/progs/rDock//data/scripts/dock_solv.prm

>  <Rbt.Receptor>
1y26.prm

>  <SCORE>
-37.3808

>  <SCORE.INTER>
-18.212

>  <SCORE.INTER.CONST>
1

>  <SCORE.INTER.POLAR>
-4.21545

>  <SCORE.INTER.ROT>
4

>  <SCORE.INTER.SOLV>
13.8199

>  <SCORE.INTER.VDW>
-8.96314

>  <SCORE.INTER.norm>
-1.30086

>  <SCORE.INTRA>
1.76778

>  <SCORE.INTRA.DIHEDRAL>
1.03942

>  <SCORE.INTRA.DIHEDRAL.0>
2.56235

>  <SCORE.INTRA.POLAR>
0.0289466

>  <SCORE.INTRA.POLAR.0>
-0.0289466

>  <SCORE.INTRA.REPUL>
0

>  <SCORE.INTRA.REPUL.0>
0

>  <SCORE.INTRA.SOLV>
-0.795667

>  <SCORE.INTRA.SOLV.lig_0>
-14.3357

>  <SCORE.INTRA.VDW>
1.54749

>  <SCORE.INTRA.VDW.0>
0.386712

>  <SCORE.INTRA.norm>
0.12627

>  <SCORE.RESTR>
0.896258

>  <SCORE.RESTR.CAVITY>
0.896258

>  <SCORE.RESTR.norm>
0.0640184

>  <SCORE.SYSTEM>
-21.8329

>  <SCORE.SYSTEM.CONST>
0

>  <SCORE.SYSTEM.DIHEDRAL>
6.75595

>  <SCORE.SYSTEM.POLAR>
-3.55319

>  <SCORE.SYSTEM.SOLV>
0.484381

>  <SCORE.SYSTEM.VDW>
-5.12474

>  <SCORE.SYSTEM.norm>
-1.55949

>  <SCORE.heavy>
14

>  <SCORE.norm>
-2.67006

$$$$
P128880369
 OpenBabel12072022103D
libRbt.so/2013.1/901 2013/11/27
 17 17  0  0  0  0  0  0  0  0999 V2000
   25.1477  -13.4660    2.9470 C   0  0  0  0  0  0  0  0  0  0  0  0
   23.7546  -13.6610    3.5488 C   0  0  2  0  0  0  0  0  0  0  0  0
   23.6019  -12.8257    4.8234 C   0  0  0  0  0  0  0  0  0  0  0  0
   22.2075  -13.0060    5.4036 C   0  0  0  0  0  0  0  0  0  0  0  0
   21.8315  -14.4795    5.5667 C   0  0  0  0  0  0  0  0  0  0  0  0
   21.9900  -15.2303    4.3085 N   0  0  0  0  0  0  0  0  0  0  0  0
   23.3937  -15.1521    3.7998 C   0  0  2  0  0  0  0  0  0  0  0  0
   24.4340  -15.8885    4.6641 C   0  0  0  0  0  0  0  0  0  0  0  0
   21.4772  -16.6324    4.4145 C   0  0  1  0  0  0  0  0  0  0  0  0
   20.1731  -16.7492    5.2182 C   0  0  0  0  0  0  0  0  0  0  0  0
   21.1775  -17.1994    3.0112 C   0  0  0  0  0  0  0  0  0  0  0  0
   20.2547  -16.7940    2.3053 O   0  0  0  0  0  0  0  0  0  0  0  0
   22.0777  -18.1815    2.6038 N   0  0  0  0  0  0  0  0  0  0  0  0
   22.2112  -18.4763    1.2283 N   0  0  0  0  0  0  0  0  0  0  0  0
   22.3085  -18.8974    3.2962 H   0  0  0  0  0  0  0  0  0  0  0  0
   21.4271  -19.0866    0.9763 H   0  0  0  0  0  0  0  0  0  0  0  0
   23.0264  -19.0946    1.1316 H   0  0  0  0  0  0  0  0  0  0  0  0
  2  3  1  0  0  0  0
  2  7  1  0  0  0  0
  2  1  1  1  0  0  0
  3  4  1  0  0  0  0
  4  5  1  0  0  0  0
  5  6  1  0  0  0  0
  6  7  1  0  0  0  0
  6  9  1  0  0  0  0
  7  8  1  1  0  0  0
  9 10  1  1  0  0  0
  9 11  1  0  0  0  0
 11 12  2  0  0  0  0
 11 13  1  0  0  0  0
 13 14  1  0  0  0  0
 13 15  1  0  0  0  0
 14 16  1  0  0  0  0
 14 17  1  0  0  0  0
M  END
>  <CHROM.0>
-46.75235988,-63.81636699,-57.05050270,-49.57237136,-57.18583802,-56.87514557
-56.58926458,-55.94274068,-167.18603823,162.30730415

>  <CHROM.1>
39.87770137,-68.99900517,-159.41925352,-79.88388253,22.40403284,-15.60412560
3.81384986,-1.03392718,-0.51593813,-2.44248129

>  <Name>
P128880369

>  <RI>
0

>  <Rbt.Current_Directory>
/home/fstefaniak/projects/zuza/docking/adenine/1Y26

>  <Rbt.Executable>
rbdock ($Id: //depot/dev/client3/rdock/2013.1/src/exe/rbdock.cxx#4 $)

>  <Rbt.Library>
libRbt.so (2013.1, Build901 2013/11/27)

>  <Rbt.Parameter_File>
/home/fstefaniak/progs/rDock//data/scripts/dock_solv.prm

>  <Rbt.Receptor>
1y26.prm

>  <SCORE>
-37.218

>  <SCORE.INTER>
-17.9062

>  <SCORE.INTER.CONST>
1

>  <SCORE.INTER.POLAR>
-4.15596

>  <SCORE.INTER.ROT>
4

>  <SCORE.INTER.SOLV>
13.8114

>  <SCORE.INTER.VDW>
-8.95476

>  <SCORE.INTER.norm>
-1.27901

>  <SCORE.INTRA>
1.82822

>  <SCORE.INTRA.DIHEDRAL>
1.06594

>  <SCORE.INTRA.DIHEDRAL.0>
2.56235

>  <SCORE.INTRA.POLAR>
0.0289466

>  <SCORE.INTRA.POLAR.0>
-0.0289466

>  <SCORE.INTRA.REPUL>
0

>  <SCORE.INTRA.REPUL.0>
0

>  <SCORE.INTRA.SOLV>
-0.801065

>  <SCORE.INTRA.SOLV.lig_0>
-14.3357

>  <SCORE.INTRA.VDW>
1.59736

>  <SCORE.INTRA.VDW.0>
0.386712

>  <SCORE.INTRA.norm>
0.130587

>  <SCORE.RESTR>
0.90347

>  <SCORE.RESTR.CAVITY>
0.90347

>  <SCORE.RESTR.norm>
0.0645335

>  <SCORE.SYSTEM>
-22.0434

>  <SCORE.SYSTEM.CONST>
0

>  <SCORE.SYSTEM.DIHEDRAL>
5.77497

>  <SCORE.SYSTEM.POLAR>
-3.50225

>  <SCORE.SYSTEM.SOLV>
0.675939

>  <SCORE.SYSTEM.VDW>
-5.17177

>  <SCORE.SYSTEM.norm>
-1.57453

>  <SCORE.heavy>
14

>  <SCORE.norm>
-2.65843

$$$$
P128938770
 OpenBabel12072022103D
libRbt.so/2013.1/901 2013/11/27
 12 12  0  0  0  0  0  0  0  0999 V2000
   23.8784  -16.6173    3.9140 C   0  0  0  0  0  0  0  0  0  0  0  0
   22.9305  -15.5217    4.1553 N   0  0  0  0  0  0  0  0  0  0  0  0
   21.6017  -16.0824    4.5227 C   0  0  0  0  0  0  0  0  0  0  0  0
   20.7741  -16.5853    3.4032 C   0  0  0  0  0  0  0  0  0  0  0  0
   20.1340  -16.9788    2.5176 N   0  0  0  0  0  0  0  0  0  0  0  0
   23.4518  -14.5272    5.1451 C   0  0  1  0  0  0  0  0  0  0  0  0
   24.5377  -13.6028    4.5391 C   0  0  0  0  0  0  0  0  0  0  0  0
   23.9565  -12.6872    3.4592 C   0  0  0  0  0  0  0  0  0  0  0  0
   22.7435  -11.9120    3.9788 C   0  0  0  0  0  0  0  0  0  0  0  0
   21.7354  -12.7929    4.5817 N   0  0  0  0  0  0  0  0  0  0  0  0
   22.3417  -13.5702    5.6765 C   0  0  0  0  0  0  0  0  0  0  0  0
   21.4495  -13.4637    3.8635 H   0  0  0  0  0  0  0  0  0  0  0  0
  1  2  1  0  0  0  0
  2  3  1  0  0  0  0
  3  4  1  0  0  0  0
  4  5  3  0  0  0  0
  6  2  1  6  0  0  0
  6  7  1  0  0  0  0
  6 11  1  0  0  0  0
  7  8  1  0  0  0  0
  8  9  1  0  0  0  0
  9 10  1  0  0  0  0
 10 11  1  0  0  0  0
 10 12  1  0  0  0  0
M  END
>  <CHROM.0>
-46.86081919,-63.23300521,-49.79243664,-53.95450187,-59.10547046,-61.08750154
-61.42392400,-178.89111858,-166.02436707,160.21872164

>  <CHROM.1>
-78.76645126,75.33702039,22.57253469,-14.60538444,4.17225512,-2.07047146
-0.20792550,0.14227148

>  <Name>
P128938770

>  <RI>
0

>  <Rbt.Current_Directory>
/home/fstefaniak/projects/zuza/docking/adenine/1Y26

>  <Rbt.Executable>
rbdock ($Id: //depot/dev/client3/rdock/2013.1/src/exe/rbdock.cxx#4 $)

>  <Rbt.Library>
libRbt.so (2013.1, Build901 2013/11/27)

>  <Rbt.Parameter_File>
/home/fstefaniak/progs/rDock//data/scripts/dock_solv.prm

>  <Rbt.Receptor>
1y26.prm

>  <SCORE>
-38.5318

>  <SCORE.INTER>
-16.6549

>  <SCORE.INTER.CONST>
1

>  <SCORE.INTER.POLAR>
-1.43846

>  <SCORE.INTER.ROT>
2

>  <SCORE.INTER.SOLV>
7.92757

>  <SCORE.INTER.VDW>
-13.8842

>  <SCORE.INTER.norm>
-1.51408

>  <SCORE.INTRA>
0.361905

>  <SCORE.INTRA.DIHEDRAL>
1.15127

>  <SCORE.INTRA.DIHEDRAL.0>
0.0595247

>  <SCORE.INTRA.POLAR>
0

>  <SCORE.INTRA.POLAR.0>
0

>  <SCORE.INTRA.REPUL>
0

>  <SCORE.INTRA.REPUL.0>
0

>  <SCORE.INTRA.SOLV>
-0.0512823

>  <SCORE.INTRA.SOLV.lig_0>
-10.4771

>  <SCORE.INTRA.VDW>
-0.188088

>  <SCORE.INTRA.VDW.0>
1.93032

>  <SCORE.INTRA.norm>
0.0329004

>  <SCORE.RESTR>
0.390416

>  <SCORE.RESTR.CAVITY>
0.390416

>  <SCORE.RESTR.norm>
0.0354924

>  <SCORE.SYSTEM>
-22.6293

>  <SCORE.SYSTEM.CONST>
0

>  <SCORE.SYSTEM.DIHEDRAL>
6.10243

>  <SCORE.SYSTEM.POLAR>
-3.52722

>  <SCORE.SYSTEM.SOLV>
0.449705

>  <SCORE.SYSTEM.VDW>
-5.51281

>  <SCORE.SYSTEM.norm>
-2.0572

>  <SCORE.heavy>
11

>  <SCORE.norm>
-3.50289

$$$$
P128938770
 OpenBabel12072022103D
libRbt.so/2013.1/901 2013/11/27
 12 12  0  0  0  0  0  0  0  0999 V2000
   23.9323  -16.6429    3.9142 C   0  0  0  0  0  0  0  0  0  0  0  0
   22.9705  -15.5566    4.1425 N   0  0  0  0  0  0  0  0  0  0  0  0
   21.6432  -16.1303    4.4950 C   0  0  0  0  0  0  0  0  0  0  0  0
   20.8359  -16.6472    3.3671 C   0  0  0  0  0  0  0  0  0  0  0  0
   20.2118  -17.0516    2.4750 N   0  0  0  0  0  0  0  0  0  0  0  0
   23.4699  -14.5553    5.1367 C   0  0  1  0  0  0  0  0  0  0  0  0
   24.5393  -13.6083    4.5365 C   0  0  0  0  0  0  0  0  0  0  0  0
   23.9433  -12.7007    3.4579 C   0  0  0  0  0  0  0  0  0  0  0  0
   22.7143  -11.9507    3.9767 C   0  0  0  0  0  0  0  0  0  0  0  0
   21.7217  -12.8528    4.5742 N   0  0  0  0  0  0  0  0  0  0  0  0
   22.3401  -13.6217    5.6681 C   0  0  0  0  0  0  0  0  0  0  0  0
   21.4507  -13.5268    3.8532 H   0  0  0  0  0  0  0  0  0  0  0  0
  1  2  1  0  0  0  0
  2  3  1  0  0  0  0
  3  4  1  0  0  0  0
  4  5  3  0  0  0  0
  6  2  1  6  0  0  0
  6  7  1  0  0  0  0
  6 11  1  0  0  0  0
  7  8  1  0  0  0  0
  8  9  1  0  0  0  0
  9 10  1  0  0  0  0
 10 11  1  0  0  0  0
 10 12  1  0  0  0  0
M  END
>  <CHROM.0>
-46.71041348,-59.82555152,-54.91642448,-51.90828078,-57.16058836,-61.05823607
-60.63444987,-53.78993910,-166.57000496,161.26082363

>  <CHROM.1>
-78.57912877,76.12787300,22.59365144,-14.64524302,4.15907011,-2.05162114
-0.21578638,0.14858106

>  <Name>
P128938770

>  <RI>
0

>  <Rbt.Current_Directory>
/home/fstefaniak/projects/zuza/docking/adenine/1Y26

>  <Rbt.Executable>
rbdock ($Id: //depot/dev/client3/rdock/2013.1/src/exe/rbdock.cxx#4 $)

>  <Rbt.Library>
libRbt.so (2013.1, Build901 2013/11/27)

>  <Rbt.Parameter_File>
/home/fstefaniak/progs/rDock//data/scripts/dock_solv.prm

>  <Rbt.Receptor>
1y26.prm

>  <SCORE>
-38.1947

>  <SCORE.INTER>
-16.7214

>  <SCORE.INTER.CONST>
1

>  <SCORE.INTER.POLAR>
-1.41163

>  <SCORE.INTER.ROT>
2

>  <SCORE.INTER.SOLV>
7.97065

>  <SCORE.INTER.VDW>
-14.0324

>  <SCORE.INTER.norm>
-1.52013

>  <SCORE.INTRA>
0.434224

>  <SCORE.INTRA.DIHEDRAL>
1.18086

>  <SCORE.INTRA.DIHEDRAL.0>
0.0595247

>  <SCORE.INTRA.POLAR>
0

>  <SCORE.INTRA.POLAR.0>
0

>  <SCORE.INTRA.REPUL>
0

>  <SCORE.INTRA.REPUL.0>
0

>  <SCORE.INTRA.SOLV>
-0.0470597

>  <SCORE.INTRA.SOLV.lig_0>
-10.4771

>  <SCORE.INTRA.VDW>
-0.132676

>  <SCORE.INTRA.VDW.0>
1.93032

>  <SCORE.INTRA.norm>
0.0394749

>  <SCORE.RESTR>
0.384359

>  <SCORE.RESTR.CAVITY>
0.384359

>  <SCORE.RESTR.norm>
0.0349417

>  <SCORE.SYSTEM>
-22.2919

>  <SCORE.SYSTEM.CONST>
0

>  <SCORE.SYSTEM.DIHEDRAL>
5.82376

>  <SCORE.SYSTEM.POLAR>
-3.51915

>  <SCORE.SYSTEM.SOLV>
0.662875

>  <SCORE.SYSTEM.VDW>
-5.29294

>  <SCORE.SYSTEM.norm>
-2.02653

>  <SCORE.heavy>
11

>  <SCORE.norm>
-3.47224

$$$$
P128938770
 OpenBabel12072022103D
libRbt.so/2013.1/901 2013/11/27
 12 12  0  0  0  0  0  0  0  0999 V2000
   23.9601  -16.6231    3.8656 C   0  0  0  0  0  0  0  0  0  0  0  0
   22.9982  -15.5430    4.1205 N   0  0  0  0  0  0  0  0  0  0  0  0
   21.6754  -16.1254    4.4755 C   0  0  0  0  0  0  0  0  0  0  0  0
   20.8638  -16.6357    3.3476 C   0  0  0  0  0  0  0  0  0  0  0  0
   20.2363  -17.0348    2.4555 N   0  0  0  0  0  0  0  0  0  0  0  0
   23.5045  -14.5572    5.1266 C   0  0  1  0  0  0  0  0  0  0  0  0
   24.5631  -13.5950    4.5313 C   0  0  0  0  0  0  0  0  0  0  0  0
   23.9512  -12.6712    3.4757 C   0  0  0  0  0  0  0  0  0  0  0  0
   22.7249  -11.9359    4.0212 C   0  0  0  0  0  0  0  0  0  0  0  0
   21.7430  -12.8527    4.6137 N   0  0  0  0  0  0  0  0  0  0  0  0
   22.3768  -13.6381    5.6870 C   0  0  0  0  0  0  0  0  0  0  0  0
   21.4667  -13.5151    3.8840 H   0  0  0  0  0  0  0  0  0  0  0  0
  1  2  1  0  0  0  0
  2  3  1  0  0  0  0
  3  4  1  0  0  0  0
  4  5  3  0  0  0  0
  6  2  1  6  0  0  0
  6  7  1  0  0  0  0
  6 11  1  0  0  0  0
  7  8  1  0  0  0  0
  8  9  1  0  0  0  0
  9 10  1  0  0  0  0
 10 11  1  0  0  0  0
 10 12  1  0  0  0  0
M  END
>  <CHROM.0>
-49.51850853,-59.46085170,-55.30294152,-51.66441308,-57.88061471,-56.88088665
-59.62202542,-50.66655908,-166.93783593,161.10647548

>  <CHROM.1>
-78.08637541,76.31074730,22.61850632,-14.63548439,4.15709483,-2.04692990
-0.20400591,0.16737276

>  <Name>
P128938770

>  <RI>
0

>  <Rbt.Current_Directory>
/home/fstefaniak/projects/zuza/docking/adenine/1Y26

>  <Rbt.Executable>
rbdock ($Id: //depot/dev/client3/rdock/2013.1/src/exe/rbdock.cxx#4 $)

>  <Rbt.Library>
libRbt.so (2013.1, Build901 2013/11/27)

>  <Rbt.Parameter_File>
/home/fstefaniak/progs/rDock//data/scripts/dock_solv.prm

>  <Rbt.Receptor>
1y26.prm

>  <SCORE>
-38.1747

>  <SCORE.INTER>
-16.7593

>  <SCORE.INTER.CONST>
1

>  <SCORE.INTER.POLAR>
-1.42658

>  <SCORE.INTER.ROT>
2

>  <SCORE.INTER.SOLV>
7.98265

>  <SCORE.INTER.VDW>
-14.0118

>  <SCORE.INTER.norm>
-1.52357

>  <SCORE.INTRA>
0.448559

>  <SCORE.INTRA.DIHEDRAL>
1.16273

>  <SCORE.INTRA.DIHEDRAL.0>
0.0595247

>  <SCORE.INTRA.POLAR>
0

>  <SCORE.INTRA.POLAR.0>
0

>  <SCORE.INTRA.REPUL>
0

>  <SCORE.INTRA.REPUL.0>
0

>  <SCORE.INTRA.SOLV>
-0.0465031

>  <SCORE.INTRA.SOLV.lig_0>
-10.4771

>  <SCORE.INTRA.VDW>
-0.109556

>  <SCORE.INTRA.VDW.0>
1.93032

>  <SCORE.INTRA.norm>
0.0407781

>  <SCORE.RESTR>
0.378571

>  <SCORE.RESTR.CAVITY>
0.378571

>  <SCORE.RESTR.norm>
0.0344156

>  <SCORE.SYSTEM>
-22.2425

>  <SCORE.SYSTEM.CONST>
0

>  <SCORE.SYSTEM.DIHEDRAL>
5.73922

>  <SCORE.SYSTEM.POLAR>
-3.50331

>  <SCORE.SYSTEM.SOLV>
0.671865

>  <SCORE.SYSTEM.VDW>
-5.28767

>  <SCORE.SYSTEM.norm>
-2.02205

>  <SCORE.heavy>
11

>  <SCORE.norm>
-3.47042

$$$$
P128996790
 OpenBabel12072022103D
libRbt.so/2013.1/901 2013/11/27
 16 16  0  0  0  0  0  0  0  0999 V2000
   19.8868  -17.7889    5.5505 C   0  0  0  0  0  0  0  0  0  0  0  0
   19.6013  -19.1849    5.0105 C   0  0  0  0  0  0  0  0  0  0  0  0
   18.5165  -19.1472    4.0847 O   0  0  0  0  0  0  0  0  0  0  0  0
   18.7984  -18.3346    2.9470 C   0  0  0  0  0  0  0  0  0  0  0  0
   19.0578  -16.8900    3.3641 C   0  0  0  0  0  0  0  0  0  0  0  0
   20.1700  -16.7860    4.4194 C   0  0  0  0  0  0  0  0  0  0  0  0
   21.5529  -16.9950    3.7813 C   0  0  0  0  0  0  0  0  0  0  0  0
   22.6237  -16.6019    4.6761 N   0  0  0  0  0  0  0  0  0  0  0  0
   23.6758  -15.8536    4.2035 C   0  0  0  0  0  0  0  0  0  0  0  0
   23.5686  -14.7636    3.6540 O   0  0  0  0  0  0  0  0  0  0  0  0
   24.8904  -16.4953    4.4118 N   0  0  0  0  0  0  0  0  0  0  0  0
   25.2010  -16.9398    5.7224 N   0  0  0  0  0  0  0  0  0  0  0  0
   22.3697  -16.4052    5.6342 H   0  0  0  0  0  0  0  0  0  0  0  0
   25.6668  -16.1635    3.8456 H   0  0  0  0  0  0  0  0  0  0  0  0
   25.5895  -16.1367    6.2260 H   0  0  0  0  0  0  0  0  0  0  0  0
   26.0102  -17.5713    5.6345 H   0  0  0  0  0  0  0  0  0  0  0  0
  1  2  1  0  0  0  0
  1  6  1  0  0  0  0
  2  3  1  0  0  0  0
  3  4  1  0  0  0  0
  4  5  1  0  0  0  0
  5  6  1  0  0  0  0
  6  7  1  0  0  0  0
  7  8  1  0  0  0  0
  8  9  1  0  0  0  0
  8 13  1  0  0  0  0
  9 10  2  0  0  0  0
  9 11  1  0  0  0  0
 11 12  1  0  0  0  0
 11 14  1  0  0  0  0
 12 15  1  0  0  0  0
 12 16  1  0  0  0  0
M  END
>  <CHROM.0>
-52.44950256,-62.27028935,-63.58776650,-52.94091840,-58.23028598,-60.74435980
-170.02674841,-51.09276579,-166.75067291,160.56380400

>  <CHROM.1>
-70.73585418,-135.28922942,57.06993431,-52.87433520,-83.49742669,21.51341106
-17.14786767,4.33272940,-2.90092666,-0.32575119,-0.66686166

>  <Name>
P128996790

>  <RI>
0

>  <Rbt.Current_Directory>
/home/fstefaniak/projects/zuza/docking/adenine/1Y26

>  <Rbt.Executable>
rbdock ($Id: //depot/dev/client3/rdock/2013.1/src/exe/rbdock.cxx#4 $)

>  <Rbt.Library>
libRbt.so (2013.1, Build901 2013/11/27)

>  <Rbt.Parameter_File>
/home/fstefaniak/progs/rDock//data/scripts/dock_solv.prm

>  <Rbt.Receptor>
1y26.prm

>  <SCORE>
-62.1584

>  <SCORE.INTER>
-40.8954

>  <SCORE.INTER.CONST>
1

>  <SCORE.INTER.POLAR>
-5.5104

>  <SCORE.INTER.ROT>
5

>  <SCORE.INTER.SOLV>
16.0207

>  <SCORE.INTER.VDW>
-21.1691

>  <SCORE.INTER.norm>
-3.40795

>  <SCORE.INTRA>
0.103683

>  <SCORE.INTRA.DIHEDRAL>
1.18428

>  <SCORE.INTRA.DIHEDRAL.0>
2.52781

>  <SCORE.INTRA.POLAR>
0

>  <SCORE.INTRA.POLAR.0>
0

>  <SCORE.INTRA.REPUL>
0

>  <SCORE.INTRA.REPUL.0>
0

>  <SCORE.INTRA.SOLV>
0.0563038

>  <SCORE.INTRA.SOLV.lig_0>
-19.1749

>  <SCORE.INTRA.VDW>
-0.51661

>  <SCORE.INTRA.VDW.0>
-0.439135

>  <SCORE.INTRA.norm>
0.00864028

>  <SCORE.RESTR>
0

>  <SCORE.RESTR.CAVITY>
0

>  <SCORE.RESTR.norm>
0

>  <SCORE.SYSTEM>
-21.3668

>  <SCORE.SYSTEM.CONST>
0

>  <SCORE.SYSTEM.DIHEDRAL>
5.86993

>  <SCORE.SYSTEM.POLAR>
-3.41324

>  <SCORE.SYSTEM.SOLV>
0.599265

>  <SCORE.SYSTEM.VDW>
-5.02345

>  <SCORE.SYSTEM.norm>
-1.78056

>  <SCORE.heavy>
12

>  <SCORE.norm>
-5.17987

$$$$
P128996790
 OpenBabel12072022103D
libRbt.so/2013.1/901 2013/11/27
 16 16  0  0  0  0  0  0  0  0999 V2000
   19.7577  -17.7457    5.5500 C   0  0  0  0  0  0  0  0  0  0  0  0
   19.6599  -19.1766    5.0353 C   0  0  0  0  0  0  0  0  0  0  0  0
   18.5997  -19.2924    4.0878 O   0  0  0  0  0  0  0  0  0  0  0  0
   18.8034  -18.4731    2.9383 C   0  0  0  0  0  0  0  0  0  0  0  0
   18.8719  -16.9997    3.3286 C   0  0  0  0  0  0  0  0  0  0  0  0
   19.9389  -16.7374    4.4029 C   0  0  0  0  0  0  0  0  0  0  0  0
   21.3509  -16.7845    3.7967 C   0  0  0  0  0  0  0  0  0  0  0  0
   22.2456  -15.8440    4.4422 N   0  0  0  0  0  0  0  0  0  0  0  0
   23.6030  -15.9391    4.2454 C   0  0  0  0  0  0  0  0  0  0  0  0
   24.2359  -15.3017    3.4119 O   0  0  0  0  0  0  0  0  0  0  0  0
   24.1777  -16.8673    5.1047 N   0  0  0  0  0  0  0  0  0  0  0  0
   25.5053  -16.6414    5.5495 N   0  0  0  0  0  0  0  0  0  0  0  0
   21.9071  -14.8994    4.5615 H   0  0  0  0  0  0  0  0  0  0  0  0
   23.9042  -17.8350    4.9547 H   0  0  0  0  0  0  0  0  0  0  0  0
   26.0454  -16.3355    4.7346 H   0  0  0  0  0  0  0  0  0  0  0  0
   25.9066  -17.5669    5.7589 H   0  0  0  0  0  0  0  0  0  0  0  0
  1  2  1  0  0  0  0
  1  6  1  0  0  0  0
  2  3  1  0  0  0  0
  3  4  1  0  0  0  0
  4  5  1  0  0  0  0
  5  6  1  0  0  0  0
  6  7  1  0  0  0  0
  7  8  1  0  0  0  0
  8  9  1  0  0  0  0
  8 13  1  0  0  0  0
  9 10  2  0  0  0  0
  9 11  1  0  0  0  0
 11 12  1  0  0  0  0
 11 14  1  0  0  0  0
 12 15  1  0  0  0  0
 12 16  1  0  0  0  0
M  END
>  <CHROM.0>
-49.26822750,77.13177399,60.74082328,-53.39894365,-58.77051054,-58.14697860
74.65830799,62.55204635,-167.02369070,160.66181500

>  <CHROM.1>
-91.60985192,165.86657112,95.44290305,-147.99171868,-43.37413561,21.44909927
-17.15889758,4.32735597,-2.91002476,-0.32728952,-0.68109313

>  <Name>
P128996790

>  <RI>
0

>  <Rbt.Current_Directory>
/home/fstefaniak/projects/zuza/docking/adenine/1Y26

>  <Rbt.Executable>
rbdock ($Id: //depot/dev/client3/rdock/2013.1/src/exe/rbdock.cxx#4 $)

>  <Rbt.Library>
libRbt.so (2013.1, Build901 2013/11/27)

>  <Rbt.Parameter_File>
/home/fstefaniak/progs/rDock//data/scripts/dock_solv.prm

>  <Rbt.Receptor>
1y26.prm

>  <SCORE>
-61.6254

>  <SCORE.INTER>
-43.4468

>  <SCORE.INTER.CONST>
1

>  <SCORE.INTER.POLAR>
-6.06217

>  <SCORE.INTER.ROT>
5

>  <SCORE.INTER.SOLV>
16.2022

>  <SCORE.INTER.VDW>
-21.0914

>  <SCORE.INTER.norm>
-3.62057

>  <SCORE.INTRA>
0.448773

>  <SCORE.INTRA.DIHEDRAL>
2.49709

>  <SCORE.INTRA.DIHEDRAL.0>
2.52781

>  <SCORE.INTRA.POLAR>
0

>  <SCORE.INTRA.POLAR.0>
0

>  <SCORE.INTRA.REPUL>
0

>  <SCORE.INTRA.REPUL.0>
0

>  <SCORE.INTRA.SOLV>
-0.201978

>  <SCORE.INTRA.SOLV.lig_0>
-19.1749

>  <SCORE.INTRA.VDW>
-0.698783

>  <SCORE.INTRA.VDW.0>
-0.439135

>  <SCORE.INTRA.norm>
0.0373977

>  <SCORE.RESTR>
0

>  <SCORE.RESTR.CAVITY>
0

>  <SCORE.RESTR.norm>
0

>  <SCORE.SYSTEM>
-18.6274

>  <SCORE.SYSTEM.CONST>
0

>  <SCORE.SYSTEM.DIHEDRAL>
7.49653

>  <SCORE.SYSTEM.POLAR>
-3.68107

>  <SCORE.SYSTEM.SOLV>
0.250418

>  <SCORE.SYSTEM.VDW>
-2.73037

>  <SCORE.SYSTEM.norm>
-1.55228

>  <SCORE.heavy>
12

>  <SCORE.norm>
-5.13545

$$$$
P128996790
 OpenBabel12072022103D
libRbt.so/2013.1/901 2013/11/27
 16 16  0  0  0  0  0  0  0  0999 V2000
   19.7323  -17.8017    5.4500 C   0  0  0  0  0  0  0  0  0  0  0  0
   19.6357  -19.2090    4.8737 C   0  0  0  0  0  0  0  0  0  0  0  0
   18.5646  -19.2890    3.9348 O   0  0  0  0  0  0  0  0  0  0  0  0
   18.7499  -18.4186    2.8203 C   0  0  0  0  0  0  0  0  0  0  0  0
   18.8155  -16.9635    3.2745 C   0  0  0  0  0  0  0  0  0  0  0  0
   19.8942  -16.7427    4.3465 C   0  0  0  0  0  0  0  0  0  0  0  0
   21.2989  -16.7549    3.7219 C   0  0  0  0  0  0  0  0  0  0  0  0
   22.3371  -16.6676    4.7300 N   0  0  0  0  0  0  0  0  0  0  0  0
   23.6363  -16.4123    4.3598 C   0  0  0  0  0  0  0  0  0  0  0  0
   23.9745  -15.5988    3.5080 O   0  0  0  0  0  0  0  0  0  0  0  0
   24.5316  -17.2076    5.0642 N   0  0  0  0  0  0  0  0  0  0  0  0
   25.7897  -16.6556    5.4165 N   0  0  0  0  0  0  0  0  0  0  0  0
   22.0743  -16.2772    5.6242 H   0  0  0  0  0  0  0  0  0  0  0  0
   24.5147  -18.1983    4.8363 H   0  0  0  0  0  0  0  0  0  0  0  0
   26.3748  -17.4302    5.7434 H   0  0  0  0  0  0  0  0  0  0  0  0
   25.6386  -16.1023    6.2723 H   0  0  0  0  0  0  0  0  0  0  0  0
  1  2  1  0  0  0  0
  1  6  1  0  0  0  0
  2  3  1  0  0  0  0
  3  4  1  0  0  0  0
  4  5  1  0  0  0  0
  5  6  1  0  0  0  0
  6  7  1  0  0  0  0
  7  8  1  0  0  0  0
  8  9  1  0  0  0  0
  8 13  1  0  0  0  0
  9 10  2  0  0  0  0
  9 11  1  0  0  0  0
 11 12  1  0  0  0  0
 11 14  1  0  0  0  0
 12 15  1  0  0  0  0
 12 16  1  0  0  0  0
M  END
>  <CHROM.0>
-54.61232018,-61.48043288,-65.77582228,-51.50421217,-55.49421291,-179.45883048
-173.27348837,70.32081915,-166.28324373,160.67982208

>  <CHROM.1>
-52.35588861,-167.75566834,41.55167246,-144.87028329,-168.28880850,21.46741857
-17.31989048,4.30821401,-2.99457287,-0.30892670,-0.67827051

>  <Name>
P128996790

>  <RI>
0

>  <Rbt.Current_Directory>
/home/fstefaniak/projects/zuza/docking/adenine/1Y26

>  <Rbt.Executable>
rbdock ($Id: //depot/dev/client3/rdock/2013.1/src/exe/rbdock.cxx#4 $)

>  <Rbt.Library>
libRbt.so (2013.1, Build901 2013/11/27)

>  <Rbt.Parameter_File>
/home/fstefaniak/progs/rDock//data/scripts/dock_solv.prm

>  <Rbt.Receptor>
1y26.prm

>  <SCORE>
-60.2007

>  <SCORE.INTER>
-39.9687

>  <SCORE.INTER.CONST>
1

>  <SCORE.INTER.POLAR>
-5.65092

>  <SCORE.INTER.ROT>
5

>  <SCORE.INTER.SOLV>
17.4193

>  <SCORE.INTER.VDW>
-20.5492

>  <SCORE.INTER.norm>
-3.33073

>  <SCORE.INTRA>
-0.0934347

>  <SCORE.INTRA.DIHEDRAL>
0.413244

>  <SCORE.INTRA.DIHEDRAL.0>
2.52781

>  <SCORE.INTRA.POLAR>
0

>  <SCORE.INTRA.POLAR.0>
0

>  <SCORE.INTRA.REPUL>
0

>  <SCORE.INTRA.REPUL.0>
0

>  <SCORE.INTRA.SOLV>
-0.211355

>  <SCORE.INTRA.SOLV.lig_0>
-19.1749

>  <SCORE.INTRA.VDW>
-0.194379

>  <SCORE.INTRA.VDW.0>
-0.439135

>  <SCORE.INTRA.norm>
-0.00778622

>  <SCORE.RESTR>
0

>  <SCORE.RESTR.CAVITY>
0

>  <SCORE.RESTR.norm>
0

>  <SCORE.SYSTEM>
-20.1386

>  <SCORE.SYSTEM.CONST>
0

>  <SCORE.SYSTEM.DIHEDRAL>
5.89403

>  <SCORE.SYSTEM.POLAR>
-3.36693

>  <SCORE.SYSTEM.SOLV>
0.230929

>  <SCORE.SYSTEM.VDW>
-4.24428

>  <SCORE.SYSTEM.norm>
-1.67821

>  <SCORE.heavy>
12

>  <SCORE.norm>
-5.01673

$$$$
P129010386
 OpenBabel12072022103D
libRbt.so/2013.1/901 2013/11/27
 17 16  0  0  0  0  0  0  0  0999 V2000
   22.2916  -11.8531    3.2052 C   0  0  0  0  0  0  0  0  0  0  0  0
   22.7189  -11.9455    4.6769 C   0  0  0  0  0  0  0  0  0  0  0  0
   21.8915  -10.9451    5.4928 C   0  0  0  0  0  0  0  0  0  0  0  0
   22.5751  -13.3977    5.1872 C   0  0  1  0  0  0  0  0  0  0  0  0
   23.7063  -14.3588    4.7337 C   0  0  0  0  0  0  0  0  0  0  0  0
   24.6056  -13.9480    3.9995 O   0  0  0  0  0  0  0  0  0  0  0  0
   23.6398  -15.6981    5.0289 N   0  0  0  0  0  0  0  0  0  0  0  0
   24.5884  -16.5972    4.6290 C   0  0  0  0  0  0  0  0  0  0  0  0
   24.5402  -17.2311    3.5801 O   0  0  0  0  0  0  0  0  0  0  0  0
   25.6057  -16.7409    5.5086 N   0  0  0  0  0  0  0  0  0  0  0  0
   22.4184  -13.4476    6.6776 N   0  3  0  0  0  0  0  0  0  0  0  0
   22.6022  -14.4212    7.0020 H   0  0  0  0  0  0  0  0  0  0  0  0
   23.0454  -12.8170    7.1854 H   0  0  0  0  0  0  0  0  0  0  0  0
   21.4516  -13.2313    6.9521 H   0  0  0  0  0  0  0  0  0  0  0  0
   23.3511  -15.8504    5.9890 H   0  0  0  0  0  0  0  0  0  0  0  0
   25.6582  -16.1745    6.3468 H   0  0  0  0  0  0  0  0  0  0  0  0
   25.9920  -17.6751    5.6099 H   0  0  0  0  0  0  0  0  0  0  0  0
  1  2  1  0  0  0  0
  2  3  1  0  0  0  0
  4  2  1  1  0  0  0
  4  5  1  0  0  0  0
  4 11  1  0  0  0  0
  5  6  2  0  0  0  0
  5  7  1  0  0  0  0
  7  8  1  0  0  0  0
  7 15  1  0  0  0  0
  8  9  2  0  0  0  0
  8 10  1  0  0  0  0
 10 16  1  0  0  0  0
 10 17  1  0  0  0  0
 11 12  1  0  0  0  0
 11 13  1  0  0  0  0
 11 14  1  0  0  0  0
M  CHG  1  11   1
M  END
>  <CHROM.0>
59.55489179,-106.64021324,-48.04767498,-54.40978967,-179.28044812,179.65678079
-54.43605936,60.76790510,-166.94990952,159.58197484

>  <CHROM.1>
77.46987325,-1.57373910,-163.73988116,178.39112071,-91.27052980,-3.71898352
23.51706075,-14.21368659,4.82808407,-2.85519567,-1.06176388,1.96081851

>  <Name>
P129010386

>  <RI>
0

>  <Rbt.Current_Directory>
/home/fstefaniak/projects/zuza/docking/adenine/1Y26

>  <Rbt.Executable>
rbdock ($Id: //depot/dev/client3/rdock/2013.1/src/exe/rbdock.cxx#4 $)

>  <Rbt.Library>
libRbt.so (2013.1, Build901 2013/11/27)

>  <Rbt.Parameter_File>
/home/fstefaniak/progs/rDock//data/scripts/dock_solv.prm

>  <Rbt.Receptor>
1y26.prm

>  <SCORE>
-58.6536

>  <SCORE.INTER>
-45.0726

>  <SCORE.INTER.CONST>
1

>  <SCORE.INTER.POLAR>
-7.81521

>  <SCORE.INTER.ROT>
5

>  <SCORE.INTER.SOLV>
20.9419

>  <SCORE.INTER.VDW>
-17.9117

>  <SCORE.INTER.norm>
-4.09751

>  <SCORE.INTRA>
2.86254

>  <SCORE.INTRA.DIHEDRAL>
1.17786

>  <SCORE.INTRA.DIHEDRAL.0>
2.79771

>  <SCORE.INTRA.POLAR>
0.835283

>  <SCORE.INTRA.POLAR.0>
-0.835283

>  <SCORE.INTRA.REPUL>
0.00149174

>  <SCORE.INTRA.REPUL.0>
0

>  <SCORE.INTRA.SOLV>
-2.37814

>  <SCORE.INTRA.SOLV.lig_0>
-33.3433

>  <SCORE.INTRA.VDW>
0.615263

>  <SCORE.INTRA.VDW.0>
-0.69693

>  <SCORE.INTRA.norm>
0.260231

>  <SCORE.RESTR>
0.94522

>  <SCORE.RESTR.CAVITY>
0.94522

>  <SCORE.RESTR.norm>
0.0859291

>  <SCORE.SYSTEM>
-17.3888

>  <SCORE.SYSTEM.CONST>
0

>  <SCORE.SYSTEM.DIHEDRAL>
11.6696

>  <SCORE.SYSTEM.POLAR>
-3.269

>  <SCORE.SYSTEM.SOLV>
0.0893246

>  <SCORE.SYSTEM.VDW>
-4.61552

>  <SCORE.SYSTEM.norm>
-1.5808

>  <SCORE.heavy>
11

>  <SCORE.norm>
-5.33215

$$$$
P129010386
 OpenBabel12072022103D
libRbt.so/2013.1/901 2013/11/27
 17 16  0  0  0  0  0  0  0  0999 V2000
   22.4431  -11.8330    3.1861 C   0  0  0  0  0  0  0  0  0  0  0  0
   22.7571  -11.9316    4.6856 C   0  0  0  0  0  0  0  0  0  0  0  0
   21.8691  -10.9353    5.4405 C   0  0  0  0  0  0  0  0  0  0  0  0
   22.5760  -13.3860    5.1772 C   0  0  1  0  0  0  0  0  0  0  0  0
   23.6778  -14.3718    4.7039 C   0  0  0  0  0  0  0  0  0  0  0  0
   24.5657  -13.9837    3.9442 O   0  0  0  0  0  0  0  0  0  0  0  0
   23.5939  -15.7071    5.0122 N   0  0  0  0  0  0  0  0  0  0  0  0
   24.5186  -16.6260    4.6014 C   0  0  0  0  0  0  0  0  0  0  0  0
   24.4451  -17.2581    3.5528 O   0  0  0  0  0  0  0  0  0  0  0  0
   25.5425  -16.7919    5.4693 N   0  0  0  0  0  0  0  0  0  0  0  0
   22.4265  -13.4520    6.6677 N   0  3  0  0  0  0  0  0  0  0  0  0
   23.1424  -12.8327    7.1046 H   0  0  0  0  0  0  0  0  0  0  0  0
   21.5043  -13.1658    7.0086 H   0  0  0  0  0  0  0  0  0  0  0  0
   22.6183  -14.4009    7.0138 H   0  0  0  0  0  0  0  0  0  0  0  0
   23.3221  -15.8463    5.9792 H   0  0  0  0  0  0  0  0  0  0  0  0
   25.5990  -16.2499    6.3232 H   0  0  0  0  0  0  0  0  0  0  0  0
   25.9323  -17.7273    5.5408 H   0  0  0  0  0  0  0  0  0  0  0  0
  1  2  1  0  0  0  0
  2  3  1  0  0  0  0
  4  2  1  1  0  0  0
  4  5  1  0  0  0  0
  4 11  1  0  0  0  0
  5  6  2  0  0  0  0
  5  7  1  0  0  0  0
  7  8  1  0  0  0  0
  7 15  1  0  0  0  0
  8  9  2  0  0  0  0
  8 10  1  0  0  0  0
 10 16  1  0  0  0  0
 10 17  1  0  0  0  0
 11 12  1  0  0  0  0
 11 13  1  0  0  0  0
 11 14  1  0  0  0  0
M  CHG  1  11   1
M  END
>  <CHROM.0>
62.17574143,-168.11867434,-50.95575392,-54.94254068,-53.31266287,-171.91736488
-42.66901153,-49.84321451,-50.08485846,165.77077642

>  <CHROM.1>
72.46702375,-3.31842575,-44.74735752,178.67728320,-90.51196631,-1.54704816
23.50278534,-14.22414883,4.80224159,-2.79778365,-1.07515041,2.02436271

>  <Name>
P129010386

>  <RI>
0

>  <Rbt.Current_Directory>
/home/fstefaniak/projects/zuza/docking/adenine/1Y26

>  <Rbt.Executable>
rbdock ($Id: //depot/dev/client3/rdock/2013.1/src/exe/rbdock.cxx#4 $)

>  <Rbt.Library>
libRbt.so (2013.1, Build901 2013/11/27)

>  <Rbt.Parameter_File>
/home/fstefaniak/progs/rDock//data/scripts/dock_solv.prm

>  <Rbt.Receptor>
1y26.prm

>  <SCORE>
-56.0813

>  <SCORE.INTER>
-45.0214

>  <SCORE.INTER.CONST>
1

>  <SCORE.INTER.POLAR>
-7.87524

>  <SCORE.INTER.ROT>
5

>  <SCORE.INTER.SOLV>
20.5434

>  <SCORE.INTER.VDW>
-17.5446

>  <SCORE.INTER.norm>
-4.09286

>  <SCORE.INTRA>
2.61248

>  <SCORE.INTRA.DIHEDRAL>
0.731808

>  <SCORE.INTRA.DIHEDRAL.0>
2.79771

>  <SCORE.INTRA.POLAR>
0.835283

>  <SCORE.INTRA.POLAR.0>
-0.835283

>  <SCORE.INTRA.REPUL>
0.00504302

>  <SCORE.INTRA.REPUL.0>
0

>  <SCORE.INTRA.SOLV>
-2.34636

>  <SCORE.INTRA.SOLV.lig_0>
-33.3433

>  <SCORE.INTRA.VDW>
0.554578

>  <SCORE.INTRA.VDW.0>
-0.69693

>  <SCORE.INTRA.norm>
0.237498

>  <SCORE.RESTR>
0.968679

>  <SCORE.RESTR.CAVITY>
0.968679

>  <SCORE.RESTR.norm>
0.0880617

>  <SCORE.SYSTEM>
-14.641

>  <SCORE.SYSTEM.CONST>
0

>  <SCORE.SYSTEM.DIHEDRAL>
6.90209

>  <SCORE.SYSTEM.POLAR>
-2.1912

>  <SCORE.SYSTEM.SOLV>
0.654281

>  <SCORE.SYSTEM.VDW>
-4.97546

>  <SCORE.SYSTEM.norm>
-1.331

>  <SCORE.heavy>
11

>  <SCORE.norm>
-5.0983

$$$$
P129010386
 OpenBabel12072022103D
libRbt.so/2013.1/901 2013/11/27
 17 16  0  0  0  0  0  0  0  0999 V2000
   23.0468  -13.4165    3.6479 C   0  0  0  0  0  0  0  0  0  0  0  0
   24.3194  -14.2306    3.9213 C   0  0  0  0  0  0  0  0  0  0  0  0
   25.3679  -13.3069    4.5524 C   0  0  0  0  0  0  0  0  0  0  0  0
   23.9927  -15.4565    4.8047 C   0  0  1  0  0  0  0  0  0  0  0  0
   22.9704  -16.4471    4.1858 C   0  0  0  0  0  0  0  0  0  0  0  0
   23.3270  -17.2278    3.3029 O   0  0  0  0  0  0  0  0  0  0  0  0
   21.6396  -16.3671    4.5140 N   0  0  0  0  0  0  0  0  0  0  0  0
   20.6432  -16.8363    3.7046 C   0  0  0  0  0  0  0  0  0  0  0  0
   20.5142  -18.0118    3.3789 O   0  0  0  0  0  0  0  0  0  0  0  0
   19.7946  -15.8750    3.2745 N   0  0  0  0  0  0  0  0  0  0  0  0
   25.2350  -16.1857    5.2209 N   0  3  0  0  0  0  0  0  0  0  0  0
   25.9993  -15.9567    4.5498 H   0  0  0  0  0  0  0  0  0  0  0  0
   25.5582  -15.9562    6.1650 H   0  0  0  0  0  0  0  0  0  0  0  0
   25.0990  -17.2031    5.1648 H   0  0  0  0  0  0  0  0  0  0  0  0
   21.4844  -16.6064    5.4872 H   0  0  0  0  0  0  0  0  0  0  0  0
   18.8768  -15.7624    3.6883 H   0  0  0  0  0  0  0  0  0  0  0  0
   20.2143  -15.0102    2.9459 H   0  0  0  0  0  0  0  0  0  0  0  0
  1  2  1  0  0  0  0
  2  3  1  0  0  0  0
  4  2  1  6  0  0  0
  4  5  1  0  0  0  0
  4 11  1  0  0  0  0
  5  6  2  0  0  0  0
  5  7  1  0  0  0  0
  7  8  1  0  0  0  0
  7 15  1  0  0  0  0
  8  9  2  0  0  0  0
  8 10  1  0  0  0  0
 10 16  1  0  0  0  0
 10 17  1  0  0  0  0
 11 12  1  0  0  0  0
 11 13  1  0  0  0  0
 11 14  1  0  0  0  0
M  CHG  1  11   1
M  END
>  <CHROM.0>
-45.67957223,-61.52352294,-54.43630639,-54.22094734,-57.81148974,55.27895926
-59.94687824,-50.80648517,-166.43258239,161.06899498

>  <CHROM.1>
60.21473984,77.01576480,-22.01309487,155.78569978,62.10723104,-102.71799204
22.81135978,-15.77710772,4.05134345,0.51348597,-0.28160169,-0.09765496

>  <Name>
P129010386

>  <RI>
0

>  <Rbt.Current_Directory>
/home/fstefaniak/projects/zuza/docking/adenine/1Y26

>  <Rbt.Executable>
rbdock ($Id: //depot/dev/client3/rdock/2013.1/src/exe/rbdock.cxx#4 $)

>  <Rbt.Library>
libRbt.so (2013.1, Build901 2013/11/27)

>  <Rbt.Parameter_File>
/home/fstefaniak/progs/rDock//data/scripts/dock_solv.prm

>  <Rbt.Receptor>
1y26.prm

>  <SCORE>
-55.3831

>  <SCORE.INTER>
-36.6791

>  <SCORE.INTER.CONST>
1

>  <SCORE.INTER.POLAR>
-6.47788

>  <SCORE.INTER.ROT>
5

>  <SCORE.INTER.SOLV>
22.4458

>  <SCORE.INTER.VDW>
-17.275

>  <SCORE.INTER.norm>
-3.33446

>  <SCORE.INTRA>
2.58624

>  <SCORE.INTRA.DIHEDRAL>
3.30648

>  <SCORE.INTRA.DIHEDRAL.0>
2.79771

>  <SCORE.INTRA.POLAR>
0.835283

>  <SCORE.INTRA.POLAR.0>
-0.835283

>  <SCORE.INTRA.REPUL>
0

>  <SCORE.INTRA.REPUL.0>
0

>  <SCORE.INTRA.SOLV>
-3.29805

>  <SCORE.INTRA.SOLV.lig_0>
-33.3433

>  <SCORE.INTRA.VDW>
-0.257939

>  <SCORE.INTRA.VDW.0>
-0.69693

>  <SCORE.INTRA.norm>
0.235112

>  <SCORE.RESTR>
0.0782037

>  <SCORE.RESTR.CAVITY>
0.0782037

>  <SCORE.RESTR.norm>
0.00710942

>  <SCORE.SYSTEM>
-21.3684

>  <SCORE.SYSTEM.CONST>
0

>  <SCORE.SYSTEM.DIHEDRAL>
6.17097

>  <SCORE.SYSTEM.POLAR>
-3.51707

>  <SCORE.SYSTEM.SOLV>
0.504333

>  <SCORE.SYSTEM.VDW>
-4.74714

>  <SCORE.SYSTEM.norm>
-1.94258

>  <SCORE.heavy>
11

>  <SCORE.norm>
-5.03483

$$$$
P129020650
 OpenBabel12072022103D
libRbt.so/2013.1/901 2013/11/27
 14 14  0  0  0  0  0  0  0  0999 V2000
   24.9531  -15.8218    5.1247 C   0  0  0  0  0  0  0  0  0  0  0  0
   24.0072  -15.2457    4.0716 C   0  0  1  0  0  0  0  0  0  0  0  0
   22.7951  -16.1630    3.8577 C   0  0  0  0  0  0  0  0  0  0  0  0
   21.6033  -15.3663    4.3048 N   0  3  2  0  0  0  0  0  0  0  0  0
   21.3601  -14.8097    3.4388 H   0  0  0  0  0  0  0  0  0  0  0  0
   22.1267  -14.2622    5.1926 C   0  0  0  0  0  0  0  0  0  0  0  0
   23.4280  -13.9026    4.5156 C   0  0  2  0  0  0  0  0  0  0  0  0
   23.0014  -13.0666    3.3033 C   0  0  0  0  0  0  0  0  0  0  0  0
   23.1803  -13.6447    2.1840 O   0  0  0  0  0  0  0  0  0  0  0  0
   22.5192  -11.9426    3.5712 O   0  5  0  0  0  0  0  0  0  0  0  0
   20.4130  -16.1352    4.7522 C   0  0  0  0  0  0  0  0  0  0  0  0
   19.9770  -17.1716    3.7101 C   0  0  0  0  0  0  0  0  0  0  0  0
   18.8349  -16.7049    2.9948 O   0  0  0  0  0  0  0  0  0  0  0  0
   18.1983  -16.3745    3.6559 H   0  0  0  0  0  0  0  0  0  0  0  0
  2  3  1  0  0  0  0
  2  7  1  0  0  0  0
  2  1  1  1  0  0  0
  3  4  1  0  0  0  0
  4  5  1  6  0  0  0
  4  6  1  0  0  0  0
  4 11  1  0  0  0  0
  6  7  1  0  0  0  0
  7  8  1  6  0  0  0
  8  9  2  0  0  0  0
  8 10  1  0  0  0  0
 11 12  1  0  0  0  0
 12 13  1  0  0  0  0
 13 14  1  0  0  0  0
M  CHG  2   4   1  10  -1
M  END
>  <CHROM.0>
-50.23093043,-59.70704481,-54.57384174,-53.82829459,-172.88618785,-53.89848691
-59.34433594,-174.65650411,-165.94757528,162.48278593

>  <CHROM.1>
-52.55329392,1.31233508,-102.72037926,-47.45473183,22.17297166,-14.96187643
3.93511699,-0.59293205,0.29947354,2.78730197

>  <Name>
P129020650

>  <RI>
0

>  <Rbt.Current_Directory>
/home/fstefaniak/projects/zuza/docking/adenine/1Y26

>  <Rbt.Executable>
rbdock ($Id: //depot/dev/client3/rdock/2013.1/src/exe/rbdock.cxx#4 $)

>  <Rbt.Library>
libRbt.so (2013.1, Build901 2013/11/27)

>  <Rbt.Parameter_File>
/home/fstefaniak/progs/rDock//data/scripts/dock_solv.prm

>  <Rbt.Receptor>
1y26.prm

>  <SCORE>
-43.4566

>  <SCORE.INTER>
-24.442

>  <SCORE.INTER.CONST>
1

>  <SCORE.INTER.POLAR>
-4.25867

>  <SCORE.INTER.ROT>
3

>  <SCORE.INTER.SOLV>
17.2794

>  <SCORE.INTER.VDW>
-13.4589

>  <SCORE.INTER.norm>
-2.03683

>  <SCORE.INTRA>
3.38968

>  <SCORE.INTRA.DIHEDRAL>
4.06251

>  <SCORE.INTRA.DIHEDRAL.0>
2.26627

>  <SCORE.INTRA.POLAR>
0.510446

>  <SCORE.INTRA.POLAR.0>
-0.510446

>  <SCORE.INTRA.REPUL>
0

>  <SCORE.INTRA.REPUL.0>
0

>  <SCORE.INTRA.SOLV>
-1.25257

>  <SCORE.INTRA.SOLV.lig_0>
-40.4801

>  <SCORE.INTRA.VDW>
0.249196

>  <SCORE.INTRA.VDW.0>
1.46148

>  <SCORE.INTRA.norm>
0.282474

>  <SCORE.RESTR>
0

>  <SCORE.RESTR.CAVITY>
0

>  <SCORE.RESTR.norm>
0

>  <SCORE.SYSTEM>
-22.4043

>  <SCORE.SYSTEM.CONST>
0

>  <SCORE.SYSTEM.DIHEDRAL>
5.5555

>  <SCORE.SYSTEM.POLAR>
-3.39797

>  <SCORE.SYSTEM.SOLV>
0.297324

>  <SCORE.SYSTEM.VDW>
-5.56059

>  <SCORE.SYSTEM.norm>
-1.86703

>  <SCORE.heavy>
12

>  <SCORE.norm>
-3.62139

$$$$
P129020650
 OpenBabel12072022103D
libRbt.so/2013.1/901 2013/11/27
 14 14  0  0  0  0  0  0  0  0999 V2000
   24.7743  -15.9601    5.1714 C   0  0  0  0  0  0  0  0  0  0  0  0
   23.8915  -15.3313    4.0939 C   0  0  1  0  0  0  0  0  0  0  0  0
   22.6902  -16.2305    3.7707 C   0  0  0  0  0  0  0  0  0  0  0  0
   21.4779  -15.4475    4.1857 N   0  3  2  0  0  0  0  0  0  0  0  0
   21.2860  -14.8509    3.3335 H   0  0  0  0  0  0  0  0  0  0  0  0
   21.9542  -14.3878    5.1507 C   0  0  0  0  0  0  0  0  0  0  0  0
   23.2930  -14.0060    4.5650 C   0  0  2  0  0  0  0  0  0  0  0  0
   22.9386  -13.1136    3.3698 C   0  0  0  0  0  0  0  0  0  0  0  0
   22.4730  -11.9740    3.6916 O   0  0  0  0  0  0  0  0  0  0  0  0
   23.1696  -13.6104    2.2439 O   0  5  0  0  0  0  0  0  0  0  0  0
   20.2614  -16.2285    4.5300 C   0  0  0  0  0  0  0  0  0  0  0  0
   20.1084  -17.4693    3.6428 C   0  0  0  0  0  0  0  0  0  0  0  0
   20.1171  -17.0979    2.2658 O   0  0  0  0  0  0  0  0  0  0  0  0
   20.0786  -17.9228    1.7466 H   0  0  0  0  0  0  0  0  0  0  0  0
  2  3  1  0  0  0  0
  2  7  1  0  0  0  0
  2  1  1  1  0  0  0
  3  4  1  0  0  0  0
  4  5  1  6  0  0  0
  4  6  1  0  0  0  0
  4 11  1  0  0  0  0
  6  7  1  0  0  0  0
  7  8  1  6  0  0  0
  8  9  2  0  0  0  0
  8 10  1  0  0  0  0
 11 12  1  0  0  0  0
 12 13  1  0  0  0  0
 13 14  1  0  0  0  0
M  CHG  2   4   1  10  -1
M  END
>  <CHROM.0>
-47.87294217,-59.74476735,-56.46617115,-52.31081685,-56.28781539,-175.86567798
-60.35568030,179.94195735,-169.32197942,161.55700117

>  <CHROM.1>
-36.05059000,-177.90533298,-55.31723555,176.23827830,22.22369395,-15.09047856
3.84323730,-0.78574903,0.45573199,2.85646471

>  <Name>
P129020650

>  <RI>
0

>  <Rbt.Current_Directory>
/home/fstefaniak/projects/zuza/docking/adenine/1Y26

>  <Rbt.Executable>
rbdock ($Id: //depot/dev/client3/rdock/2013.1/src/exe/rbdock.cxx#4 $)

>  <Rbt.Library>
libRbt.so (2013.1, Build901 2013/11/27)

>  <Rbt.Parameter_File>
/home/fstefaniak/progs/rDock//data/scripts/dock_solv.prm

>  <Rbt.Receptor>
1y26.prm

>  <SCORE>
-43.0409

>  <SCORE.INTER>
-22.5112

>  <SCORE.INTER.CONST>
1

>  <SCORE.INTER.POLAR>
-3.59911

>  <SCORE.INTER.ROT>
3

>  <SCORE.INTER.SOLV>
16.7317

>  <SCORE.INTER.VDW>
-14.1877

>  <SCORE.INTER.norm>
-1.87594

>  <SCORE.INTRA>
1.83876

>  <SCORE.INTRA.DIHEDRAL>
-0.19876

>  <SCORE.INTRA.DIHEDRAL.0>
2.26627

>  <SCORE.INTRA.POLAR>
0.510446

>  <SCORE.INTRA.POLAR.0>
-0.510446

>  <SCORE.INTRA.REPUL>
0

>  <SCORE.INTRA.REPUL.0>
0

>  <SCORE.INTRA.SOLV>
-0.612556

>  <SCORE.INTRA.SOLV.lig_0>
-40.4801

>  <SCORE.INTRA.VDW>
0.508896

>  <SCORE.INTRA.VDW.0>
1.46148

>  <SCORE.INTRA.norm>
0.15323

>  <SCORE.RESTR>
0

>  <SCORE.RESTR.CAVITY>
0

>  <SCORE.RESTR.norm>
0

>  <SCORE.SYSTEM>
-22.3684

>  <SCORE.SYSTEM.CONST>
0

>  <SCORE.SYSTEM.DIHEDRAL>
5.1936

>  <SCORE.SYSTEM.POLAR>
-3.41142

>  <SCORE.SYSTEM.SOLV>
0.315313

>  <SCORE.SYSTEM.VDW>
-5.3772

>  <SCORE.SYSTEM.norm>
-1.86404

>  <SCORE.heavy>
12

>  <SCORE.norm>
-3.58675

$$$$
P129020650
 OpenBabel12072022103D
libRbt.so/2013.1/901 2013/11/27
 14 14  0  0  0  0  0  0  0  0999 V2000
   24.7421  -15.9787    5.1788 C   0  0  0  0  0  0  0  0  0  0  0  0
   23.8607  -15.3486    4.1009 C   0  0  1  0  0  0  0  0  0  0  0  0
   22.6598  -16.2475    3.7750 C   0  0  0  0  0  0  0  0  0  0  0  0
   21.4469  -15.4650    4.1894 N   0  3  2  0  0  0  0  0  0  0  0  0
   21.2562  -14.8674    3.3377 H   0  0  0  0  0  0  0  0  0  0  0  0
   21.9219  -14.4064    5.1563 C   0  0  0  0  0  0  0  0  0  0  0  0
   23.2615  -14.0239    4.5729 C   0  0  2  0  0  0  0  0  0  0  0  0
   22.9087  -13.1301    3.3783 C   0  0  0  0  0  0  0  0  0  0  0  0
   23.1576  -13.6536    2.2456 O   0  0  0  0  0  0  0  0  0  0  0  0
   22.4082  -12.0200    3.6698 O   0  5  0  0  0  0  0  0  0  0  0  0
   20.2300  -16.2464    4.5311 C   0  0  0  0  0  0  0  0  0  0  0  0
   20.0463  -17.4532    3.6038 C   0  0  0  0  0  0  0  0  0  0  0  0
   20.1509  -17.0503    2.2398 O   0  0  0  0  0  0  0  0  0  0  0  0
   20.0303  -17.8503    1.6949 H   0  0  0  0  0  0  0  0  0  0  0  0
  2  3  1  0  0  0  0
  2  7  1  0  0  0  0
  2  1  1  1  0  0  0
  3  4  1  0  0  0  0
  4  5  1  6  0  0  0
  4  6  1  0  0  0  0
  4 11  1  0  0  0  0
  6  7  1  0  0  0  0
  7  8  1  6  0  0  0
  8  9  2  0  0  0  0
  8 10  1  0  0  0  0
 11 12  1  0  0  0  0
 12 13  1  0  0  0  0
 13 14  1  0  0  0  0
M  CHG  2   4   1  10  -1
M  END
>  <CHROM.0>
-48.66150394,-58.99196301,-46.16276419,-51.14818768,-55.45762302,-50.64918498
-51.20576288,-176.02134674,-167.48677729,160.41170100

>  <CHROM.1>
-38.46004764,0.90099477,-50.09739558,179.81935690,22.19456460,-15.10384308
3.83910095,-0.77297265,0.46071915,2.85130241

>  <Name>
P129020650

>  <RI>
0

>  <Rbt.Current_Directory>
/home/fstefaniak/projects/zuza/docking/adenine/1Y26

>  <Rbt.Executable>
rbdock ($Id: //depot/dev/client3/rdock/2013.1/src/exe/rbdock.cxx#4 $)

>  <Rbt.Library>
libRbt.so (2013.1, Build901 2013/11/27)

>  <Rbt.Parameter_File>
/home/fstefaniak/progs/rDock//data/scripts/dock_solv.prm

>  <Rbt.Receptor>
1y26.prm

>  <SCORE>
-42.4543

>  <SCORE.INTER>
-22.2578

>  <SCORE.INTER.CONST>
1

>  <SCORE.INTER.POLAR>
-3.60615

>  <SCORE.INTER.ROT>
3

>  <SCORE.INTER.SOLV>
16.9094

>  <SCORE.INTER.VDW>
-14.0545

>  <SCORE.INTER.norm>
-1.85482

>  <SCORE.INTRA>
1.9791

>  <SCORE.INTRA.DIHEDRAL>
-0.164072

>  <SCORE.INTRA.DIHEDRAL.0>
2.26627

>  <SCORE.INTRA.POLAR>
0.510446

>  <SCORE.INTRA.POLAR.0>
-0.510446

>  <SCORE.INTRA.REPUL>
0

>  <SCORE.INTRA.REPUL.0>
0

>  <SCORE.INTRA.SOLV>
-0.390432

>  <SCORE.INTRA.SOLV.lig_0>
-40.4801

>  <SCORE.INTRA.VDW>
0.520837

>  <SCORE.INTRA.VDW.0>
1.46148

>  <SCORE.INTRA.norm>
0.164925

>  <SCORE.RESTR>
0

>  <SCORE.RESTR.CAVITY>
0

>  <SCORE.RESTR.norm>
0

>  <SCORE.SYSTEM>
-22.1756

>  <SCORE.SYSTEM.CONST>
0

>  <SCORE.SYSTEM.DIHEDRAL>
7.12788

>  <SCORE.SYSTEM.POLAR>
-3.63779

>  <SCORE.SYSTEM.SOLV>
0.503402

>  <SCORE.SYSTEM.VDW>
-5.2015

>  <SCORE.SYSTEM.norm>
-1.84797

>  <SCORE.heavy>
12

>  <SCORE.norm>
-3.53786

$$$$
P129061958
 OpenBabel12072022103D
libRbt.so/2013.1/901 2013/11/27
 14 14  0  0  0  0  0  0  0  0999 V2000
   20.2527  -17.5485    5.2135 C   0  0  0  0  0  0  0  0  0  0  0  0
   20.6736  -16.7724    3.9599 C   0  0  2  0  0  0  0  0  0  0  0  0
   20.8997  -17.6917    2.7320 C   0  0  0  0  0  0  0  0  0  0  0  0
   19.6740  -17.9648    1.9721 N   0  0  0  0  0  0  0  0  0  0  0  0
   21.8372  -15.8993    4.2228 N   0  0  0  0  0  0  0  0  0  0  0  0
   21.5585  -14.4950    4.5038 C   0  0  0  0  0  0  0  0  0  0  0  0
   22.7229  -13.8055    5.1874 C   0  0  0  0  0  0  0  0  0  0  0  0
   23.9498  -14.0351    4.3389 C   0  0  0  0  0  0  0  0  0  0  0  0
   24.1222  -15.4387    4.0763 N   0  0  0  0  0  0  0  0  0  0  0  0
   23.1099  -16.3327    3.9032 C   0  0  0  0  0  0  0  0  0  0  0  0
   23.3804  -17.4570    3.4916 O   0  0  0  0  0  0  0  0  0  0  0  0
   18.9232  -18.1871    2.6264 H   0  0  0  0  0  0  0  0  0  0  0  0
   19.8154  -18.8147    1.4261 H   0  0  0  0  0  0  0  0  0  0  0  0
   25.0218  -15.7846    3.7672 H   0  0  0  0  0  0  0  0  0  0  0  0
  2  3  1  0  0  0  0
  2  5  1  0  0  0  0
  2  1  1  1  0  0  0
  3  4  1  0  0  0  0
  4 12  1  0  0  0  0
  4 13  1  0  0  0  0
  5  6  1  0  0  0  0
  5 10  1  0  0  0  0
  6  7  1  0  0  0  0
  7  8  1  0  0  0  0
  8  9  1  0  0  0  0
  9 10  1  0  0  0  0
  9 14  1  0  0  0  0
 10 11  2  0  0  0  0
M  END
>  <CHROM.0>
-47.89985289,-62.24288685,-55.15168908,-50.16334638,-176.24530469,59.09241928
-57.91224928,64.03814959,-168.05435841,160.20848082

>  <CHROM.1>
86.30317216,-97.63095087,-44.91971027,22.00221271,-16.17804274,3.94075720
2.31297428,-0.18210546,-2.55585472

>  <Name>
P129061958

>  <RI>
0

>  <Rbt.Current_Directory>
/home/fstefaniak/projects/zuza/docking/adenine/1Y26

>  <Rbt.Executable>
rbdock ($Id: //depot/dev/client3/rdock/2013.1/src/exe/rbdock.cxx#4 $)

>  <Rbt.Library>
libRbt.so (2013.1, Build901 2013/11/27)

>  <Rbt.Parameter_File>
/home/fstefaniak/progs/rDock//data/scripts/dock_solv.prm

>  <Rbt.Receptor>
1y26.prm

>  <SCORE>
-39.2339

>  <SCORE.INTER>
-21.4097

>  <SCORE.INTER.CONST>
1

>  <SCORE.INTER.POLAR>
-2.55587

>  <SCORE.INTER.ROT>
3

>  <SCORE.INTER.SOLV>
10.103

>  <SCORE.INTER.VDW>
-14.7212

>  <SCORE.INTER.norm>
-1.94633

>  <SCORE.INTRA>
2.66723

>  <SCORE.INTRA.DIHEDRAL>
1.45204

>  <SCORE.INTRA.DIHEDRAL.0>
2.71517

>  <SCORE.INTRA.POLAR>
0

>  <SCORE.INTRA.POLAR.0>
0

>  <SCORE.INTRA.REPUL>
0

>  <SCORE.INTRA.REPUL.0>
0

>  <SCORE.INTRA.SOLV>
0.0668554

>  <SCORE.INTRA.SOLV.lig_0>
-15.1328

>  <SCORE.INTRA.VDW>
1.90778

>  <SCORE.INTRA.VDW.0>
-0.00798024

>  <SCORE.INTRA.norm>
0.242475

>  <SCORE.RESTR>
0

>  <SCORE.RESTR.CAVITY>
0

>  <SCORE.RESTR.norm>
0

>  <SCORE.SYSTEM>
-20.4914

>  <SCORE.SYSTEM.CONST>
0

>  <SCORE.SYSTEM.DIHEDRAL>
5.77146

>  <SCORE.SYSTEM.POLAR>
-3.51631

>  <SCORE.SYSTEM.SOLV>
0.115563

>  <SCORE.SYSTEM.VDW>
-3.90226

>  <SCORE.SYSTEM.norm>
-1.86286

>  <SCORE.heavy>
11

>  <SCORE.norm>
-3.56671

$$$$
P129061958
 OpenBabel12072022103D
libRbt.so/2013.1/901 2013/11/27
 14 14  0  0  0  0  0  0  0  0999 V2000
   18.0803  -18.2299    2.2191 C   0  0  0  0  0  0  0  0  0  0  0  0
   19.3205  -17.6578    2.9160 C   0  0  2  0  0  0  0  0  0  0  0  0
   20.6268  -17.9095    2.1195 C   0  0  0  0  0  0  0  0  0  0  0  0
   20.4042  -18.1304    0.6856 N   0  0  0  0  0  0  0  0  0  0  0  0
   19.4241  -18.1226    4.3155 N   0  0  0  0  0  0  0  0  0  0  0  0
   18.5920  -19.2586    4.6969 C   0  0  0  0  0  0  0  0  0  0  0  0
   19.0840  -19.9292    5.9645 C   0  0  0  0  0  0  0  0  0  0  0  0
   19.2015  -18.8638    7.0271 C   0  0  0  0  0  0  0  0  0  0  0  0
   20.0003  -17.7666    6.5507 N   0  0  0  0  0  0  0  0  0  0  0  0
   20.0317  -17.3221    5.2641 C   0  0  0  0  0  0  0  0  0  0  0  0
   20.5978  -16.2604    5.0209 O   0  0  0  0  0  0  0  0  0  0  0  0
   20.3209  -19.1331    0.5156 H   0  0  0  0  0  0  0  0  0  0  0  0
   21.2417  -17.8406    0.1805 H   0  0  0  0  0  0  0  0  0  0  0  0
   20.4014  -17.1136    7.2120 H   0  0  0  0  0  0  0  0  0  0  0  0
  2  3  1  0  0  0  0
  2  5  1  0  0  0  0
  2  1  1  6  0  0  0
  3  4  1  0  0  0  0
  4 12  1  0  0  0  0
  4 13  1  0  0  0  0
  5  6  1  0  0  0  0
  5 10  1  0  0  0  0
  6  7  1  0  0  0  0
  7  8  1  0  0  0  0
  8  9  1  0  0  0  0
  9 10  1  0  0  0  0
  9 14  1  0  0  0  0
 10 11  2  0  0  0  0
M  END
>  <CHROM.0>
-55.94192684,57.10567686,-51.09185422,-53.57625652,-57.16468988,-62.51277902
-61.75490610,-178.65837019,-166.46149994,161.14219243

>  <CHROM.1>
23.20050845,15.05013503,-93.14937687,19.59805178,-18.12053364,4.21397328
1.45247122,-0.91091138,-1.56916473

>  <Name>
P129061958

>  <RI>
0

>  <Rbt.Current_Directory>
/home/fstefaniak/projects/zuza/docking/adenine/1Y26

>  <Rbt.Executable>
rbdock ($Id: //depot/dev/client3/rdock/2013.1/src/exe/rbdock.cxx#4 $)

>  <Rbt.Library>
libRbt.so (2013.1, Build901 2013/11/27)

>  <Rbt.Parameter_File>
/home/fstefaniak/progs/rDock//data/scripts/dock_solv.prm

>  <Rbt.Receptor>
1y26.prm

>  <SCORE>
-38.7468

>  <SCORE.INTER>
-24.2466

>  <SCORE.INTER.CONST>
1

>  <SCORE.INTER.POLAR>
-2.94202

>  <SCORE.INTER.ROT>
3

>  <SCORE.INTER.SOLV>
15.8969

>  <SCORE.INTER.VDW>
-17.2566

>  <SCORE.INTER.norm>
-2.20423

>  <SCORE.INTRA>
7.55604

>  <SCORE.INTRA.DIHEDRAL>
3.66852

>  <SCORE.INTRA.DIHEDRAL.0>
2.71517

>  <SCORE.INTRA.POLAR>
0

>  <SCORE.INTRA.POLAR.0>
0

>  <SCORE.INTRA.REPUL>
0

>  <SCORE.INTRA.REPUL.0>
0

>  <SCORE.INTRA.SOLV>
-0.269466

>  <SCORE.INTRA.SOLV.lig_0>
-15.1328

>  <SCORE.INTRA.VDW>
5.85651

>  <SCORE.INTRA.VDW.0>
-0.00798024

>  <SCORE.INTRA.norm>
0.686913

>  <SCORE.RESTR>
0

>  <SCORE.RESTR.CAVITY>
0

>  <SCORE.RESTR.norm>
0

>  <SCORE.SYSTEM>
-22.0562

>  <SCORE.SYSTEM.CONST>
0

>  <SCORE.SYSTEM.DIHEDRAL>
5.15032

>  <SCORE.SYSTEM.POLAR>
-3.3878

>  <SCORE.SYSTEM.SOLV>
0.489403

>  <SCORE.SYSTEM.VDW>
-5.2914

>  <SCORE.SYSTEM.norm>
-2.00511

>  <SCORE.heavy>
11

>  <SCORE.norm>
-3.52244

$$$$
P129061958
 OpenBabel12072022103D
libRbt.so/2013.1/901 2013/11/27
 14 14  0  0  0  0  0  0  0  0999 V2000
   18.0988  -18.2092    2.1984 C   0  0  0  0  0  0  0  0  0  0  0  0
   19.3436  -17.6518    2.8992 C   0  0  2  0  0  0  0  0  0  0  0  0
   20.6476  -17.9071    2.1002 C   0  0  0  0  0  0  0  0  0  0  0  0
   20.4208  -18.1368    0.6684 N   0  0  0  0  0  0  0  0  0  0  0  0
   19.4442  -18.1284    4.2950 N   0  0  0  0  0  0  0  0  0  0  0  0
   18.6173  -19.2728    4.6628 C   0  0  0  0  0  0  0  0  0  0  0  0
   19.1081  -19.9517    5.9265 C   0  0  0  0  0  0  0  0  0  0  0  0
   19.2148  -18.8951    6.9989 C   0  0  0  0  0  0  0  0  0  0  0  0
   20.0089  -17.7889    6.5356 N   0  0  0  0  0  0  0  0  0  0  0  0
   20.0430  -17.3328    5.2532 C   0  0  0  0  0  0  0  0  0  0  0  0
   20.6036  -16.2656    5.0218 O   0  0  0  0  0  0  0  0  0  0  0  0
   20.3382  -19.1405    0.5046 H   0  0  0  0  0  0  0  0  0  0  0  0
   21.2564  -17.8490    0.1590 H   0  0  0  0  0  0  0  0  0  0  0  0
   20.4033  -17.1394    7.2043 H   0  0  0  0  0  0  0  0  0  0  0  0
  2  3  1  0  0  0  0
  2  5  1  0  0  0  0
  2  1  1  6  0  0  0
  3  4  1  0  0  0  0
  4 12  1  0  0  0  0
  4 13  1  0  0  0  0
  5  6  1  0  0  0  0
  5 10  1  0  0  0  0
  6  7  1  0  0  0  0
  7  8  1  0  0  0  0
  8  9  1  0  0  0  0
  9 10  1  0  0  0  0
  9 14  1  0  0  0  0
 10 11  2  0  0  0  0
M  END
>  <CHROM.0>
-51.93577427,62.68074271,-55.73435879,-53.71905117,-57.69298585,-62.78461331
-61.70873058,-51.33821006,-166.22413484,160.65092865

>  <CHROM.1>
22.25726278,15.86832455,-93.16154968,19.61491158,-18.12858849,4.19423974
1.45107972,-0.91966714,-1.56690125

>  <Name>
P129061958

>  <RI>
0

>  <Rbt.Current_Directory>
/home/fstefaniak/projects/zuza/docking/adenine/1Y26

>  <Rbt.Executable>
rbdock ($Id: //depot/dev/client3/rdock/2013.1/src/exe/rbdock.cxx#4 $)

>  <Rbt.Library>
libRbt.so (2013.1, Build901 2013/11/27)

>  <Rbt.Parameter_File>
/home/fstefaniak/progs/rDock//data/scripts/dock_solv.prm

>  <Rbt.Receptor>
1y26.prm

>  <SCORE>
-38.3598

>  <SCORE.INTER>
-24.2186

>  <SCORE.INTER.CONST>
1

>  <SCORE.INTER.POLAR>
-2.91998

>  <SCORE.INTER.ROT>
3

>  <SCORE.INTER.SOLV>
15.894

>  <SCORE.INTER.VDW>
-17.3105

>  <SCORE.INTER.norm>
-2.20169

>  <SCORE.INTRA>
7.5524

>  <SCORE.INTRA.DIHEDRAL>
3.77043

>  <SCORE.INTRA.DIHEDRAL.0>
2.71517

>  <SCORE.INTRA.POLAR>
0

>  <SCORE.INTRA.POLAR.0>
0

>  <SCORE.INTRA.REPUL>
0

>  <SCORE.INTRA.REPUL.0>
0

>  <SCORE.INTRA.SOLV>
-0.267314

>  <SCORE.INTRA.SOLV.lig_0>
-15.1328

>  <SCORE.INTRA.VDW>
5.80085

>  <SCORE.INTRA.VDW.0>
-0.00798024

>  <SCORE.INTRA.norm>
0.686582

>  <SCORE.RESTR>
0

>  <SCORE.RESTR.CAVITY>
0

>  <SCORE.RESTR.norm>
0

>  <SCORE.SYSTEM>
-21.6936

>  <SCORE.SYSTEM.CONST>
0

>  <SCORE.SYSTEM.DIHEDRAL>
5.51187

>  <SCORE.SYSTEM.POLAR>
-3.438

>  <SCORE.SYSTEM.SOLV>
0.674669

>  <SCORE.SYSTEM.VDW>
-5.0646

>  <SCORE.SYSTEM.norm>
-1.97215

>  <SCORE.heavy>
11

>  <SCORE.norm>
-3.48726

$$$$
P129144928
 OpenBabel12072022103D
libRbt.so/2013.1/901 2013/11/27
 17 17  0  0  0  0  0  0  0  0999 V2000
   22.2758  -12.2629    3.5308 C   0  0  0  0  0  0  0  0  0  0  0  0
   22.1497  -13.1674    4.6642 N   0  0  0  0  0  0  0  0  0  0  0  0
   21.9755  -14.5433    4.3582 C   0  0  0  0  0  0  0  0  0  0  0  0
   20.6672  -14.9790    4.0924 C   0  0  0  0  0  0  0  0  0  0  0  0
   20.4051  -16.3184    3.8080 C   0  0  0  0  0  0  0  0  0  0  0  0
   21.4501  -17.2347    3.7737 C   0  0  0  0  0  0  0  0  0  0  0  0
   22.7571  -16.8088    4.0136 C   0  0  0  0  0  0  0  0  0  0  0  0
   23.0449  -15.4589    4.2989 C   0  0  0  0  0  0  0  0  0  0  0  0
   24.4942  -15.0650    4.4676 C   0  0  0  0  0  0  0  0  0  0  0  0
   25.2698  -16.1027    5.1384 N   0  0  0  0  0  0  0  0  0  0  0  0
   22.4800  -12.6810    5.9174 C   0  0  0  0  0  0  0  0  0  0  0  0
   22.8914  -11.5465    6.1400 O   0  0  0  0  0  0  0  0  0  0  0  0
   22.2696  -13.5307    6.9611 N   0  0  0  0  0  0  0  0  0  0  0  0
   26.1969  -16.1133    4.7047 H   0  0  0  0  0  0  0  0  0  0  0  0
   25.4208  -15.8357    6.1083 H   0  0  0  0  0  0  0  0  0  0  0  0
   22.8671  -14.3456    6.9995 H   0  0  0  0  0  0  0  0  0  0  0  0
   21.2882  -13.7004    7.1419 H   0  0  0  0  0  0  0  0  0  0  0  0
  1  2  1  0  0  0  0
  2  3  1  0  0  0  0
  2 11  1  0  0  0  0
  3  4  2  0  0  0  0
  3  8  1  0  0  0  0
  4  5  1  0  0  0  0
  5  6  2  0  0  0  0
  6  7  1  0  0  0  0
  7  8  2  0  0  0  0
  8  9  1  0  0  0  0
  9 10  1  0  0  0  0
 10 14  1  0  0  0  0
 10 15  1  0  0  0  0
 11 12  2  0  0  0  0
 11 13  1  0  0  0  0
 13 16  1  0  0  0  0
 13 17  1  0  0  0  0
M  END
>  <CHROM.0>
-47.66988145,-67.04427155,-55.80495016,62.61772352,-57.65245101,59.73041241
-54.48035050,-55.05031196,-166.05578359,161.07453277

>  <CHROM.1>
-84.49157021,145.80501993,143.07088153,68.14495709,22.53289773,-14.52797894
4.76081102,1.49932757,-0.30554249,0.34813033

>  <Name>
P129144928

>  <RI>
0

>  <Rbt.Current_Directory>
/home/fstefaniak/projects/zuza/docking/adenine/1Y26

>  <Rbt.Executable>
rbdock ($Id: //depot/dev/client3/rdock/2013.1/src/exe/rbdock.cxx#4 $)

>  <Rbt.Library>
libRbt.so (2013.1, Build901 2013/11/27)

>  <Rbt.Parameter_File>
/home/fstefaniak/progs/rDock//data/scripts/dock_solv.prm

>  <Rbt.Receptor>
1y26.prm

>  <SCORE>
-45.3087

>  <SCORE.INTER>
-31.7491

>  <SCORE.INTER.CONST>
1

>  <SCORE.INTER.POLAR>
-4.34913

>  <SCORE.INTER.ROT>
4

>  <SCORE.INTER.SOLV>
13.4616

>  <SCORE.INTER.VDW>
-17.4229

>  <SCORE.INTER.norm>
-2.44224

>  <SCORE.INTRA>
4.56068

>  <SCORE.INTRA.DIHEDRAL>
3.36222

>  <SCORE.INTRA.DIHEDRAL.0>
11.7313

>  <SCORE.INTRA.POLAR>
0.974363

>  <SCORE.INTRA.POLAR.0>
-0.974363

>  <SCORE.INTRA.REPUL>
0

>  <SCORE.INTRA.REPUL.0>
0

>  <SCORE.INTRA.SOLV>
-1.22728

>  <SCORE.INTRA.SOLV.lig_0>
-13.2392

>  <SCORE.INTRA.VDW>
0.180379

>  <SCORE.INTRA.VDW.0>
-2.02501

>  <SCORE.INTRA.norm>
0.350822

>  <SCORE.RESTR>
0.40035

>  <SCORE.RESTR.CAVITY>
0.40035

>  <SCORE.RESTR.norm>
0.0307962

>  <SCORE.SYSTEM>
-18.5206

>  <SCORE.SYSTEM.CONST>
0

>  <SCORE.SYSTEM.DIHEDRAL>
5.79699

>  <SCORE.SYSTEM.POLAR>
-2.94574

>  <SCORE.SYSTEM.SOLV>
0.439944

>  <SCORE.SYSTEM.VDW>
-4.60692

>  <SCORE.SYSTEM.norm>
-1.42466

>  <SCORE.heavy>
13

>  <SCORE.norm>
-3.48529

$$$$
P129144928
 OpenBabel12072022103D
libRbt.so/2013.1/901 2013/11/27
 17 17  0  0  0  0  0  0  0  0999 V2000
   18.1608  -18.1455    1.8826 C   0  0  0  0  0  0  0  0  0  0  0  0
   19.4700  -18.1176    2.5181 N   0  0  0  0  0  0  0  0  0  0  0  0
   19.4947  -18.3219    3.9234 C   0  0  0  0  0  0  0  0  0  0  0  0
   19.0636  -19.5723    4.3958 C   0  0  0  0  0  0  0  0  0  0  0  0
   19.0325  -19.8467    5.7622 C   0  0  0  0  0  0  0  0  0  0  0  0
   19.4440  -18.8784    6.6710 C   0  0  0  0  0  0  0  0  0  0  0  0
   19.8961  -17.6406    6.2118 C   0  0  0  0  0  0  0  0  0  0  0  0
   19.9396  -17.3437    4.8347 C   0  0  0  0  0  0  0  0  0  0  0  0
   20.5168  -16.0111    4.4163 C   0  0  0  0  0  0  0  0  0  0  0  0
   21.9750  -16.0067    4.4617 N   0  0  0  0  0  0  0  0  0  0  0  0
   20.5853  -18.1746    1.7001 C   0  0  0  0  0  0  0  0  0  0  0  0
   20.5502  -18.2674    0.4770 O   0  0  0  0  0  0  0  0  0  0  0  0
   21.7899  -18.0622    2.3261 N   0  0  0  0  0  0  0  0  0  0  0  0
   22.2812  -15.0635    4.2079 H   0  0  0  0  0  0  0  0  0  0  0  0
   22.2820  -16.1488    5.4210 H   0  0  0  0  0  0  0  0  0  0  0  0
   22.4025  -18.8640    2.2605 H   0  0  0  0  0  0  0  0  0  0  0  0
   21.7217  -17.6391    3.2431 H   0  0  0  0  0  0  0  0  0  0  0  0
  1  2  1  0  0  0  0
  2  3  1  0  0  0  0
  2 11  1  0  0  0  0
  3  4  2  0  0  0  0
  3  8  1  0  0  0  0
  4  5  1  0  0  0  0
  5  6  2  0  0  0  0
  6  7  1  0  0  0  0
  7  8  2  0  0  0  0
  8  9  1  0  0  0  0
  9 10  1  0  0  0  0
 10 14  1  0  0  0  0
 10 15  1  0  0  0  0
 11 12  2  0  0  0  0
 11 13  1  0  0  0  0
 13 16  1  0  0  0  0
 13 17  1  0  0  0  0
M  END
>  <CHROM.0>
176.82284659,-61.54786493,175.53955538,-50.61730615,-55.69639171,59.77799937
75.91058856,-50.22370817,-166.36250634,163.03834221

>  <CHROM.1>
64.04299745,-99.68022778,-177.46165164,116.98709537,20.05203824,-17.98993653
3.73313643,1.35128884,-0.80181211,-1.66470745

>  <Name>
P129144928

>  <RI>
0

>  <Rbt.Current_Directory>
/home/fstefaniak/projects/zuza/docking/adenine/1Y26

>  <Rbt.Executable>
rbdock ($Id: //depot/dev/client3/rdock/2013.1/src/exe/rbdock.cxx#4 $)

>  <Rbt.Library>
libRbt.so (2013.1, Build901 2013/11/27)

>  <Rbt.Parameter_File>
/home/fstefaniak/progs/rDock//data/scripts/dock_solv.prm

>  <Rbt.Receptor>
1y26.prm

>  <SCORE>
-42.1491

>  <SCORE.INTER>
-25.5571

>  <SCORE.INTER.CONST>
1

>  <SCORE.INTER.POLAR>
-2.11117

>  <SCORE.INTER.ROT>
4

>  <SCORE.INTER.SOLV>
14.4724

>  <SCORE.INTER.VDW>
-21.0916

>  <SCORE.INTER.norm>
-1.96593

>  <SCORE.INTRA>
2.36868

>  <SCORE.INTRA.DIHEDRAL>
0.756563

>  <SCORE.INTRA.DIHEDRAL.0>
11.7313

>  <SCORE.INTRA.POLAR>
-0.0161628

>  <SCORE.INTRA.POLAR.0>
-0.974363

>  <SCORE.INTRA.REPUL>
0

>  <SCORE.INTRA.REPUL.0>
0

>  <SCORE.INTRA.SOLV>
-0.25531

>  <SCORE.INTRA.SOLV.lig_0>
-13.2392

>  <SCORE.INTRA.VDW>
2.17301

>  <SCORE.INTRA.VDW.0>
-2.02501

>  <SCORE.INTRA.norm>
0.182206

>  <SCORE.RESTR>
0

>  <SCORE.RESTR.CAVITY>
0

>  <SCORE.RESTR.norm>
0

>  <SCORE.SYSTEM>
-18.9607

>  <SCORE.SYSTEM.CONST>
0

>  <SCORE.SYSTEM.DIHEDRAL>
6.3539

>  <SCORE.SYSTEM.POLAR>
-3.4953

>  <SCORE.SYSTEM.SOLV>
0.296849

>  <SCORE.SYSTEM.VDW>
-3.20641

>  <SCORE.SYSTEM.norm>
-1.45852

>  <SCORE.heavy>
13

>  <SCORE.norm>
-3.24224

$$$$
P129144928
 OpenBabel12072022103D
libRbt.so/2013.1/901 2013/11/27
 17 17  0  0  0  0  0  0  0  0999 V2000
   18.1603  -18.0338    1.8905 C   0  0  0  0  0  0  0  0  0  0  0  0
   19.4673  -18.1277    2.5240 N   0  0  0  0  0  0  0  0  0  0  0  0
   19.4751  -18.3202    3.9312 C   0  0  0  0  0  0  0  0  0  0  0  0
   19.0398  -19.5671    4.4088 C   0  0  0  0  0  0  0  0  0  0  0  0
   18.9923  -19.8300    5.7770 C   0  0  0  0  0  0  0  0  0  0  0  0
   19.3916  -18.8536    6.6825 C   0  0  0  0  0  0  0  0  0  0  0  0
   19.8477  -17.6191    6.2185 C   0  0  0  0  0  0  0  0  0  0  0  0
   19.9077  -17.3337    4.8396 C   0  0  0  0  0  0  0  0  0  0  0  0
   20.4884  -16.0039    4.4171 C   0  0  0  0  0  0  0  0  0  0  0  0
   21.9470  -16.0256    4.3925 N   0  0  0  0  0  0  0  0  0  0  0  0
   20.5700  -18.3009    1.7052 C   0  0  0  0  0  0  0  0  0  0  0  0
   20.5233  -18.4014    0.4830 O   0  0  0  0  0  0  0  0  0  0  0  0
   21.7812  -18.3006    2.3285 N   0  0  0  0  0  0  0  0  0  0  0  0
   22.2597  -16.3000    5.3277 H   0  0  0  0  0  0  0  0  0  0  0  0
   22.2618  -16.7638    3.7674 H   0  0  0  0  0  0  0  0  0  0  0  0
   22.5428  -18.7322    1.8222 H   0  0  0  0  0  0  0  0  0  0  0  0
   21.7211  -18.5370    3.3109 H   0  0  0  0  0  0  0  0  0  0  0  0
  1  2  1  0  0  0  0
  2  3  1  0  0  0  0
  2 11  1  0  0  0  0
  3  4  2  0  0  0  0
  3  8  1  0  0  0  0
  4  5  1  0  0  0  0
  5  6  2  0  0  0  0
  6  7  1  0  0  0  0
  7  8  2  0  0  0  0
  8  9  1  0  0  0  0
  9 10  1  0  0  0  0
 10 14  1  0  0  0  0
 10 15  1  0  0  0  0
 11 12  2  0  0  0  0
 11 13  1  0  0  0  0
 13 16  1  0  0  0  0
 13 17  1  0  0  0  0
M  END
>  <CHROM.0>
-51.10447329,-61.15724546,-55.33239246,-50.15761339,-56.20938220,-57.42804317
-57.48837673,-49.06671586,-166.33531036,-59.56642601

>  <CHROM.1>
69.76663380,-95.77205042,-56.84795852,159.61665485,20.02839075,-18.03032203
3.72907918,1.33874835,-0.79062597,-1.70205360

>  <Name>
P129144928

>  <RI>
0

>  <Rbt.Current_Directory>
/home/fstefaniak/projects/zuza/docking/adenine/1Y26

>  <Rbt.Executable>
rbdock ($Id: //depot/dev/client3/rdock/2013.1/src/exe/rbdock.cxx#4 $)

>  <Rbt.Library>
libRbt.so (2013.1, Build901 2013/11/27)

>  <Rbt.Parameter_File>
/home/fstefaniak/progs/rDock//data/scripts/dock_solv.prm

>  <Rbt.Receptor>
1y26.prm

>  <SCORE>
-41.4867

>  <SCORE.INTER>
-23.6361

>  <SCORE.INTER.CONST>
1

>  <SCORE.INTER.POLAR>
-2.4976

>  <SCORE.INTER.ROT>
4

>  <SCORE.INTER.SOLV>
14.5357

>  <SCORE.INTER.VDW>
-18.544

>  <SCORE.INTER.norm>
-1.81816

>  <SCORE.INTRA>
1.46457

>  <SCORE.INTRA.DIHEDRAL>
1.48219

>  <SCORE.INTRA.DIHEDRAL.0>
11.7313

>  <SCORE.INTRA.POLAR>
-0.00534832

>  <SCORE.INTRA.POLAR.0>
-0.974363

>  <SCORE.INTRA.REPUL>
0

>  <SCORE.INTRA.REPUL.0>
0

>  <SCORE.INTRA.SOLV>
-0.106768

>  <SCORE.INTRA.SOLV.lig_0>
-13.2392

>  <SCORE.INTRA.VDW>
0.795041

>  <SCORE.INTRA.VDW.0>
-2.02501

>  <SCORE.INTRA.norm>
0.112659

>  <SCORE.RESTR>
0

>  <SCORE.RESTR.CAVITY>
0

>  <SCORE.RESTR.norm>
0

>  <SCORE.SYSTEM>
-19.3151

>  <SCORE.SYSTEM.CONST>
0

>  <SCORE.SYSTEM.DIHEDRAL>
4.52082

>  <SCORE.SYSTEM.POLAR>
-2.68266

>  <SCORE.SYSTEM.SOLV>
0.749487

>  <SCORE.SYSTEM.VDW>
-5.6913

>  <SCORE.SYSTEM.norm>
-1.48578

>  <SCORE.heavy>
13

>  <SCORE.norm>
-3.19128

$$$$
P129488019
 OpenBabel12072022103D
libRbt.so/2013.1/901 2013/11/27
 17 17  0  0  0  0  0  0  0  0999 V2000
   18.2722  -18.8523    1.0359 C   0  0  0  0  0  0  0  0  0  0  0  0
   19.3635  -18.2872    1.9351 C   0  0  0  0  0  0  0  0  0  0  0  0
   18.8214  -17.4189    3.0900 C   0  0  1  0  0  0  0  0  0  0  0  0
   18.3254  -18.2328    4.2962 C   0  0  0  0  0  0  0  0  0  0  0  0
   19.4618  -18.8941    5.0727 C   0  0  0  0  0  0  0  0  0  0  0  0
   20.5126  -17.8767    5.5094 C   0  0  0  0  0  0  0  0  0  0  0  0
   21.0335  -17.0406    4.3330 C   0  0  1  0  0  0  0  0  0  0  0  0
   19.8768  -16.3989    3.5549 C   0  0  0  0  0  0  0  0  0  0  0  0
   21.9465  -16.0049    4.8003 N   0  0  0  0  0  0  0  0  0  0  0  0
   23.2237  -15.9071    4.3026 C   0  0  0  0  0  0  0  0  0  0  0  0
   23.5383  -15.2830    3.2959 O   0  0  0  0  0  0  0  0  0  0  0  0
   24.1324  -16.6019    5.0916 N   0  0  0  0  0  0  0  0  0  0  0  0
   24.9426  -17.5922    4.4806 N   0  0  0  0  0  0  0  0  0  0  0  0
   21.8320  -15.6892    5.7526 H   0  0  0  0  0  0  0  0  0  0  0  0
   24.5395  -16.0873    5.8674 H   0  0  0  0  0  0  0  0  0  0  0  0
   24.3284  -18.3950    4.2872 H   0  0  0  0  0  0  0  0  0  0  0  0
   25.5648  -17.9551    5.2100 H   0  0  0  0  0  0  0  0  0  0  0  0
  1  2  1  0  0  0  0
  3  2  1  6  0  0  0
  3  4  1  0  0  0  0
  3  8  1  0  0  0  0
  4  5  1  0  0  0  0
  5  6  1  0  0  0  0
  6  7  1  0  0  0  0
  7  8  1  0  0  0  0
  7  9  1  1  0  0  0
  9 10  1  0  0  0  0
  9 14  1  0  0  0  0
 10 11  2  0  0  0  0
 10 12  1  0  0  0  0
 12 13  1  0  0  0  0
 12 15  1  0  0  0  0
 13 16  1  0  0  0  0
 13 17  1  0  0  0  0
M  END
>  <CHROM.0>
-42.33939101,-66.03137355,62.44631758,-51.39017428,-175.58496109,-59.68464623
77.22018776,-56.12925599,-166.10587145,161.45267799

>  <CHROM.1>
81.43642043,124.10780801,87.03494824,124.44373818,-73.21797879,21.09964482
-17.25865906,3.91282261,-2.92741034,0.39708533,1.78104546

>  <Name>
P129488019

>  <RI>
0

>  <Rbt.Current_Directory>
/home/fstefaniak/projects/zuza/docking/adenine/1Y26

>  <Rbt.Executable>
rbdock ($Id: //depot/dev/client3/rdock/2013.1/src/exe/rbdock.cxx#4 $)

>  <Rbt.Library>
libRbt.so (2013.1, Build901 2013/11/27)

>  <Rbt.Parameter_File>
/home/fstefaniak/progs/rDock//data/scripts/dock_solv.prm

>  <Rbt.Receptor>
1y26.prm

>  <SCORE>
-47.2573

>  <SCORE.INTER>
-27.0649

>  <SCORE.INTER.CONST>
1

>  <SCORE.INTER.POLAR>
-3.89213

>  <SCORE.INTER.ROT>
5

>  <SCORE.INTER.SOLV>
15.3586

>  <SCORE.INTER.VDW>
-17.1224

>  <SCORE.INTER.norm>
-2.08192

>  <SCORE.INTRA>
0.462792

>  <SCORE.INTRA.DIHEDRAL>
2.87888

>  <SCORE.INTRA.DIHEDRAL.0>
2.43994

>  <SCORE.INTRA.POLAR>
0

>  <SCORE.INTRA.POLAR.0>
0

>  <SCORE.INTRA.REPUL>
0

>  <SCORE.INTRA.REPUL.0>
0

>  <SCORE.INTRA.SOLV>
0.050747

>  <SCORE.INTRA.SOLV.lig_0>
-16.3484

>  <SCORE.INTRA.VDW>
-1.00202

>  <SCORE.INTRA.VDW.0>
-0.283051

>  <SCORE.INTRA.norm>
0.0355994

>  <SCORE.RESTR>
0

>  <SCORE.RESTR.CAVITY>
0

>  <SCORE.RESTR.norm>
0

>  <SCORE.SYSTEM>
-20.6552

>  <SCORE.SYSTEM.CONST>
0

>  <SCORE.SYSTEM.DIHEDRAL>
7.83293

>  <SCORE.SYSTEM.POLAR>
-3.87845

>  <SCORE.SYSTEM.SOLV>
0.322745

>  <SCORE.SYSTEM.VDW>
-3.5605

>  <SCORE.SYSTEM.norm>
-1.58886

>  <SCORE.heavy>
13

>  <SCORE.norm>
-3.63518

$$$$
P129488019
 OpenBabel12072022103D
libRbt.so/2013.1/901 2013/11/27
 17 17  0  0  0  0  0  0  0  0999 V2000
   22.2739  -12.3692    6.6215 C   0  0  0  0  0  0  0  0  0  0  0  0
   22.0179  -13.7673    6.0751 C   0  0  0  0  0  0  0  0  0  0  0  0
   22.3240  -13.9052    4.5687 C   0  0  1  0  0  0  0  0  0  0  0  0
   23.8122  -14.1329    4.2579 C   0  0  0  0  0  0  0  0  0  0  0  0
   24.3006  -15.5171    4.6787 C   0  0  0  0  0  0  0  0  0  0  0  0
   23.4500  -16.6257    4.0642 C   0  0  0  0  0  0  0  0  0  0  0  0
   21.9548  -16.4346    4.3503 C   0  0  1  0  0  0  0  0  0  0  0  0
   21.4869  -15.0325    3.9373 C   0  0  0  0  0  0  0  0  0  0  0  0
   21.1634  -17.4420    3.6550 N   0  0  0  0  0  0  0  0  0  0  0  0
   19.7927  -17.3582    3.6054 C   0  0  0  0  0  0  0  0  0  0  0  0
   19.1608  -16.6517    2.8286 O   0  0  0  0  0  0  0  0  0  0  0  0
   19.1971  -18.1881    4.5476 N   0  0  0  0  0  0  0  0  0  0  0  0
   17.9643  -18.8082    4.2222 N   0  0  0  0  0  0  0  0  0  0  0  0
   21.5369  -18.3799    3.6289 H   0  0  0  0  0  0  0  0  0  0  0  0
   19.8279  -18.7056    5.1533 H   0  0  0  0  0  0  0  0  0  0  0  0
   17.2572  -18.0608    4.1996 H   0  0  0  0  0  0  0  0  0  0  0  0
   17.6854  -19.3576    5.0416 H   0  0  0  0  0  0  0  0  0  0  0  0
  1  2  1  0  0  0  0
  3  2  1  1  0  0  0
  3  4  1  0  0  0  0
  3  8  1  0  0  0  0
  4  5  1  0  0  0  0
  5  6  1  0  0  0  0
  6  7  1  0  0  0  0
  7  8  1  0  0  0  0
  7  9  1  6  0  0  0
  9 10  1  0  0  0  0
  9 14  1  0  0  0  0
 10 11  2  0  0  0  0
 10 12  1  0  0  0  0
 12 13  1  0  0  0  0
 12 15  1  0  0  0  0
 13 16  1  0  0  0  0
 13 17  1  0  0  0  0
M  END
>  <CHROM.0>
62.83941076,-178.51685916,-50.14253403,-50.45250218,-55.43040087,-58.45863328
-56.57056225,-53.68697381,-166.75055226,-55.15242114

>  <CHROM.1>
82.13811970,-170.61443896,80.82980167,-145.52690147,-69.82961909,21.39332204
-15.90409640,4.42182273,0.81287451,0.16886041,0.48319878

>  <Name>
P129488019

>  <RI>
0

>  <Rbt.Current_Directory>
/home/fstefaniak/projects/zuza/docking/adenine/1Y26

>  <Rbt.Executable>
rbdock ($Id: //depot/dev/client3/rdock/2013.1/src/exe/rbdock.cxx#4 $)

>  <Rbt.Library>
libRbt.so (2013.1, Build901 2013/11/27)

>  <Rbt.Parameter_File>
/home/fstefaniak/progs/rDock//data/scripts/dock_solv.prm

>  <Rbt.Receptor>
1y26.prm

>  <SCORE>
-46.3563

>  <SCORE.INTER>
-28.4521

>  <SCORE.INTER.CONST>
1

>  <SCORE.INTER.POLAR>
-2.91766

>  <SCORE.INTER.ROT>
5

>  <SCORE.INTER.SOLV>
13.2372

>  <SCORE.INTER.VDW>
-20.5883

>  <SCORE.INTER.norm>
-2.18863

>  <SCORE.INTRA>
0.515078

>  <SCORE.INTRA.DIHEDRAL>
1.36137

>  <SCORE.INTRA.DIHEDRAL.0>
2.43994

>  <SCORE.INTRA.POLAR>
0

>  <SCORE.INTRA.POLAR.0>
0

>  <SCORE.INTRA.REPUL>
0

>  <SCORE.INTRA.REPUL.0>
0

>  <SCORE.INTRA.SOLV>
0.0842707

>  <SCORE.INTRA.SOLV.lig_0>
-16.3484

>  <SCORE.INTRA.VDW>
-0.207739

>  <SCORE.INTRA.VDW.0>
-0.283051

>  <SCORE.INTRA.norm>
0.0396214

>  <SCORE.RESTR>
0

>  <SCORE.RESTR.CAVITY>
0

>  <SCORE.RESTR.norm>
0

>  <SCORE.SYSTEM>
-18.4192

>  <SCORE.SYSTEM.CONST>
0

>  <SCORE.SYSTEM.DIHEDRAL>
4.24218

>  <SCORE.SYSTEM.POLAR>
-2.47971

>  <SCORE.SYSTEM.SOLV>
0.678982

>  <SCORE.SYSTEM.VDW>
-5.65419

>  <SCORE.SYSTEM.norm>
-1.41686

>  <SCORE.heavy>
13

>  <SCORE.norm>
-3.56587

$$$$
P129488019
 OpenBabel12072022103D
libRbt.so/2013.1/901 2013/11/27
 17 17  0  0  0  0  0  0  0  0999 V2000
   18.3338  -18.9318    0.9797 C   0  0  0  0  0  0  0  0  0  0  0  0
   19.3150  -18.2344    1.9122 C   0  0  0  0  0  0  0  0  0  0  0  0
   18.6355  -17.5281    3.1043 C   0  0  1  0  0  0  0  0  0  0  0  0
   18.4086  -18.4434    4.3184 C   0  0  0  0  0  0  0  0  0  0  0  0
   19.7066  -18.8144    5.0319 C   0  0  0  0  0  0  0  0  0  0  0  0
   20.5010  -17.5755    5.4370 C   0  0  0  0  0  0  0  0  0  0  0  0
   20.7482  -16.6328    4.2519 C   0  0  1  0  0  0  0  0  0  0  0  0
   19.4351  -16.2857    3.5374 C   0  0  0  0  0  0  0  0  0  0  0  0
   21.4060  -15.4095    4.6939 N   0  0  0  0  0  0  0  0  0  0  0  0
   22.6892  -15.1121    4.3023 C   0  0  0  0  0  0  0  0  0  0  0  0
   23.0346  -14.8795    3.1497 O   0  0  0  0  0  0  0  0  0  0  0  0
   23.5613  -15.0967    5.3841 N   0  0  0  0  0  0  0  0  0  0  0  0
   24.7596  -15.8499    5.2997 N   0  0  0  0  0  0  0  0  0  0  0  0
   21.1384  -15.0466    5.5974 H   0  0  0  0  0  0  0  0  0  0  0  0
   23.5950  -14.2353    5.9219 H   0  0  0  0  0  0  0  0  0  0  0  0
   25.2318  -15.7523    6.2090 H   0  0  0  0  0  0  0  0  0  0  0  0
   25.3839  -15.3405    4.6659 H   0  0  0  0  0  0  0  0  0  0  0  0
  1  2  1  0  0  0  0
  3  2  1  6  0  0  0
  3  4  1  0  0  0  0
  3  8  1  0  0  0  0
  4  5  1  0  0  0  0
  5  6  1  0  0  0  0
  6  7  1  0  0  0  0
  7  8  1  0  0  0  0
  7  9  1  1  0  0  0
  9 10  1  0  0  0  0
  9 14  1  0  0  0  0
 10 11  2  0  0  0  0
 10 12  1  0  0  0  0
 12 13  1  0  0  0  0
 12 15  1  0  0  0  0
 13 16  1  0  0  0  0
 13 17  1  0  0  0  0
M  END
>  <CHROM.0>
-52.52877170,53.38696992,-47.84558201,-50.90962380,-52.78117421,-50.23455345
-62.57286954,-178.87664444,-164.33104348,160.04089966

>  <CHROM.1>
86.94491182,113.60107389,65.20860170,129.14862080,-176.76905440,20.87736896
-16.79957935,3.96390895,-2.94013807,0.62619875,1.82482804

>  <Name>
P129488019

>  <RI>
0

>  <Rbt.Current_Directory>
/home/fstefaniak/projects/zuza/docking/adenine/1Y26

>  <Rbt.Executable>
rbdock ($Id: //depot/dev/client3/rdock/2013.1/src/exe/rbdock.cxx#4 $)

>  <Rbt.Library>
libRbt.so (2013.1, Build901 2013/11/27)

>  <Rbt.Parameter_File>
/home/fstefaniak/progs/rDock//data/scripts/dock_solv.prm

>  <Rbt.Receptor>
1y26.prm

>  <SCORE>
-44.8454

>  <SCORE.INTER>
-23.6946

>  <SCORE.INTER.CONST>
1

>  <SCORE.INTER.POLAR>
-3.97938

>  <SCORE.INTER.ROT>
5

>  <SCORE.INTER.SOLV>
16.3468

>  <SCORE.INTER.VDW>
-14.9141

>  <SCORE.INTER.norm>
-1.82266

>  <SCORE.INTRA>
0.472831

>  <SCORE.INTRA.DIHEDRAL>
3.10594

>  <SCORE.INTRA.DIHEDRAL.0>
2.43994

>  <SCORE.INTRA.POLAR>
0

>  <SCORE.INTRA.POLAR.0>
0

>  <SCORE.INTRA.REPUL>
0

>  <SCORE.INTRA.REPUL.0>
0

>  <SCORE.INTRA.SOLV>
-0.0550288

>  <SCORE.INTRA.SOLV.lig_0>
-16.3484

>  <SCORE.INTRA.VDW>
-1.05262

>  <SCORE.INTRA.VDW.0>
-0.283051

>  <SCORE.INTRA.norm>
0.0363716

>  <SCORE.RESTR>
0

>  <SCORE.RESTR.CAVITY>
0

>  <SCORE.RESTR.norm>
0

>  <SCORE.SYSTEM>
-21.6236

>  <SCORE.SYSTEM.CONST>
0

>  <SCORE.SYSTEM.DIHEDRAL>
7.01788

>  <SCORE.SYSTEM.POLAR>
-3.59968

>  <SCORE.SYSTEM.SOLV>
0.535029

>  <SCORE.SYSTEM.VDW>
-4.93445

>  <SCORE.SYSTEM.norm>
-1.66335

>  <SCORE.heavy>
13

>  <SCORE.norm>
-3.44964

$$$$
P129531989
 OpenBabel12072022103D
libRbt.so/2013.1/901 2013/11/27
 15 16  0  0  0  0  0  0  0  0999 V2000
   20.3980  -17.6669    5.3782 C   0  0  0  0  0  0  0  0  0  0  0  0
   20.6613  -17.2335    4.0767 C   0  0  0  0  0  0  0  0  0  0  0  0
   20.0319  -17.8511    2.9991 C   0  0  0  0  0  0  0  0  0  0  0  0
   19.1133  -18.8812    3.2226 C   0  0  0  0  0  0  0  0  0  0  0  0
   18.8606  -19.3253    4.5203 C   0  0  0  0  0  0  0  0  0  0  0  0
   19.5063  -18.7257    5.6124 C   0  0  0  0  0  0  0  0  0  0  0  0
   19.2164  -19.1840    7.0209 C   0  0  0  0  0  0  0  0  0  0  0  0
   17.8450  -18.8398    7.4069 N   0  0  0  0  0  0  0  0  0  0  0  0
   17.0223  -19.1801    6.2559 O   0  0  0  0  0  0  0  0  0  0  0  0
   18.4262  -19.5080    2.2137 O   0  0  0  0  0  0  0  0  0  0  0  0
   18.4958  -18.7587    0.9952 C   0  0  0  0  0  0  0  0  0  0  0  0
   19.9189  -18.2963    0.7302 C   0  0  0  0  0  0  0  0  0  0  0  0
   20.3534  -17.3881    1.7485 O   0  0  0  0  0  0  0  0  0  0  0  0
   17.7692  -17.8195    7.4391 H   0  0  0  0  0  0  0  0  0  0  0  0
   16.9672  -20.1531    6.3325 H   0  0  0  0  0  0  0  0  0  0  0  0
  1  2  2  0  0  0  0
  1  6  1  0  0  0  0
  2  3  1  0  0  0  0
  3  4  2  0  0  0  0
  3 13  1  0  0  0  0
  4  5  1  0  0  0  0
  4 10  1  0  0  0  0
  5  6  2  0  0  0  0
  6  7  1  0  0  0  0
  7  8  1  0  0  0  0
  8  9  1  0  0  0  0
  8 14  1  0  0  0  0
  9 15  1  0  0  0  0
 10 11  1  0  0  0  0
 11 12  1  0  0  0  0
 12 13  1  0  0  0  0
M  END
>  <CHROM.0>
167.98451991,-61.55328604,-50.29140578,-49.91062238,-58.14595521,-51.54480896
-51.12545499,-47.14744026,-166.38981244,162.09293414

>  <CHROM.1>
110.44239956,43.62235233,76.87810499,19.15488641,-18.54541363,4.01716567
-1.85473438,-0.58452506,-1.60110037

>  <Name>
P129531989

>  <RI>
0

>  <Rbt.Current_Directory>
/home/fstefaniak/projects/zuza/docking/adenine/1Y26

>  <Rbt.Executable>
rbdock ($Id: //depot/dev/client3/rdock/2013.1/src/exe/rbdock.cxx#4 $)

>  <Rbt.Library>
libRbt.so (2013.1, Build901 2013/11/27)

>  <Rbt.Parameter_File>
/home/fstefaniak/progs/rDock//data/scripts/dock_solv.prm

>  <Rbt.Receptor>
1y26.prm

>  <SCORE>
-46.5759

>  <SCORE.INTER>
-29.1603

>  <SCORE.INTER.CONST>
1

>  <SCORE.INTER.POLAR>
-5.49971

>  <SCORE.INTER.ROT>
2

>  <SCORE.INTER.SOLV>
15.5628

>  <SCORE.INTER.VDW>
-11.2288

>  <SCORE.INTER.norm>
-2.2431

>  <SCORE.INTRA>
2.86875

>  <SCORE.INTRA.DIHEDRAL>
-0.521596

>  <SCORE.INTRA.DIHEDRAL.0>
1.58789

>  <SCORE.INTRA.POLAR>
0

>  <SCORE.INTRA.POLAR.0>
0

>  <SCORE.INTRA.REPUL>
0

>  <SCORE.INTRA.REPUL.0>
0

>  <SCORE.INTRA.SOLV>
1.20934

>  <SCORE.INTRA.SOLV.lig_0>
-15.573

>  <SCORE.INTRA.VDW>
2.52488

>  <SCORE.INTRA.VDW.0>
-0.648946

>  <SCORE.INTRA.norm>
0.220673

>  <SCORE.RESTR>
0

>  <SCORE.RESTR.CAVITY>
0

>  <SCORE.RESTR.norm>
0

>  <SCORE.SYSTEM>
-20.2844

>  <SCORE.SYSTEM.CONST>
0

>  <SCORE.SYSTEM.DIHEDRAL>
7.28521

>  <SCORE.SYSTEM.POLAR>
-3.3959

>  <SCORE.SYSTEM.SOLV>
0.654862

>  <SCORE.SYSTEM.VDW>
-4.84992

>  <SCORE.SYSTEM.norm>
-1.56034

>  <SCORE.heavy>
13

>  <SCORE.norm>
-3.58276

$$$$
P129531989
 OpenBabel12072022103D
libRbt.so/2013.1/901 2013/11/27
 15 16  0  0  0  0  0  0  0  0999 V2000
   20.8190  -16.9450    4.9502 C   0  0  0  0  0  0  0  0  0  0  0  0
   21.0050  -16.7801    3.5757 C   0  0  0  0  0  0  0  0  0  0  0  0
   20.2916  -17.5712    2.6791 C   0  0  0  0  0  0  0  0  0  0  0  0
   19.3666  -18.5059    3.1542 C   0  0  0  0  0  0  0  0  0  0  0  0
   19.1907  -18.6824    4.5264 C   0  0  0  0  0  0  0  0  0  0  0  0
   19.9210  -17.9068    5.4396 C   0  0  0  0  0  0  0  0  0  0  0  0
   19.7149  -18.0746    6.9254 C   0  0  0  0  0  0  0  0  0  0  0  0
   18.8938  -19.2559    7.2054 N   0  0  0  0  0  0  0  0  0  0  0  0
   17.5734  -18.9423    6.6804 O   0  0  0  0  0  0  0  0  0  0  0  0
   18.6000  -19.2908    2.3301 O   0  0  0  0  0  0  0  0  0  0  0  0
   18.6055  -18.7934    0.9872 C   0  0  0  0  0  0  0  0  0  0  0  0
   20.0180  -18.4411    0.5513 C   0  0  0  0  0  0  0  0  0  0  0  0
   20.5398  -17.3695    1.3451 O   0  0  0  0  0  0  0  0  0  0  0  0
   18.7268  -19.2965    8.2145 H   0  0  0  0  0  0  0  0  0  0  0  0
   17.3708  -18.1043    7.1411 H   0  0  0  0  0  0  0  0  0  0  0  0
  1  2  2  0  0  0  0
  1  6  1  0  0  0  0
  2  3  1  0  0  0  0
  3  4  2  0  0  0  0
  3 13  1  0  0  0  0
  4  5  1  0  0  0  0
  4 10  1  0  0  0  0
  5  6  2  0  0  0  0
  6  7  1  0  0  0  0
  7  8  1  0  0  0  0
  8  9  1  0  0  0  0
  8 14  1  0  0  0  0
  9 15  1  0  0  0  0
 10 11  1  0  0  0  0
 11 12  1  0  0  0  0
 12 13  1  0  0  0  0
M  END
>  <CHROM.0>
-41.98714892,-61.90300152,-53.33019066,-49.57039703,-54.18142582,-59.97068671
-59.63999872,-174.48528811,-167.15824110,160.67306570

>  <CHROM.1>
-171.63207702,-67.20313218,-55.20240542,19.51892800,-18.23223832,3.89719276
-1.78044910,-0.68704360,-1.62502178

>  <Name>
P129531989

>  <RI>
0

>  <Rbt.Current_Directory>
/home/fstefaniak/projects/zuza/docking/adenine/1Y26

>  <Rbt.Executable>
rbdock ($Id: //depot/dev/client3/rdock/2013.1/src/exe/rbdock.cxx#4 $)

>  <Rbt.Library>
libRbt.so (2013.1, Build901 2013/11/27)

>  <Rbt.Parameter_File>
/home/fstefaniak/progs/rDock//data/scripts/dock_solv.prm

>  <Rbt.Receptor>
1y26.prm

>  <SCORE>
-44.0821

>  <SCORE.INTER>
-23.9738

>  <SCORE.INTER.CONST>
1

>  <SCORE.INTER.POLAR>
-4.01222

>  <SCORE.INTER.ROT>
2

>  <SCORE.INTER.SOLV>
15.5601

>  <SCORE.INTER.VDW>
-12.7285

>  <SCORE.INTER.norm>
-1.84414

>  <SCORE.INTRA>
2.35783

>  <SCORE.INTRA.DIHEDRAL>
-0.790671

>  <SCORE.INTRA.DIHEDRAL.0>
1.58789

>  <SCORE.INTRA.POLAR>
0

>  <SCORE.INTRA.POLAR.0>
0

>  <SCORE.INTRA.REPUL>
0

>  <SCORE.INTRA.REPUL.0>
0

>  <SCORE.INTRA.SOLV>
0.955874

>  <SCORE.INTRA.SOLV.lig_0>
-15.573

>  <SCORE.INTRA.VDW>
2.27523

>  <SCORE.INTRA.VDW.0>
-0.648946

>  <SCORE.INTRA.norm>
0.181372

>  <SCORE.RESTR>
0

>  <SCORE.RESTR.CAVITY>
0

>  <SCORE.RESTR.norm>
0

>  <SCORE.SYSTEM>
-22.4662

>  <SCORE.SYSTEM.CONST>
0

>  <SCORE.SYSTEM.DIHEDRAL>
6.84874

>  <SCORE.SYSTEM.POLAR>
-3.63635

>  <SCORE.SYSTEM.SOLV>
0.469068

>  <SCORE.SYSTEM.VDW>
-5.29555

>  <SCORE.SYSTEM.norm>
-1.72817

>  <SCORE.heavy>
13

>  <SCORE.norm>
-3.39093

$$$$
P129531989
 OpenBabel12072022103D
libRbt.so/2013.1/901 2013/11/27
 15 16  0  0  0  0  0  0  0  0999 V2000
   21.8989  -17.1725    3.7496 C   0  0  0  0  0  0  0  0  0  0  0  0
   23.0834  -16.4652    3.9681 C   0  0  0  0  0  0  0  0  0  0  0  0
   23.0340  -15.1105    4.2858 C   0  0  0  0  0  0  0  0  0  0  0  0
   21.7993  -14.4680    4.4181 C   0  0  0  0  0  0  0  0  0  0  0  0
   20.6162  -15.1689    4.1855 C   0  0  0  0  0  0  0  0  0  0  0  0
   20.6546  -16.5289    3.8423 C   0  0  0  0  0  0  0  0  0  0  0  0
   19.3764  -17.2992    3.6160 C   0  0  0  0  0  0  0  0  0  0  0  0
   19.2791  -17.7458    2.2235 N   0  0  0  0  0  0  0  0  0  0  0  0
   18.2292  -18.7532    2.2129 O   0  0  0  0  0  0  0  0  0  0  0  0
   21.6727  -13.1471    4.7675 O   0  0  0  0  0  0  0  0  0  0  0  0
   22.8950  -12.6344    5.3098 C   0  0  0  0  0  0  0  0  0  0  0  0
   24.0787  -13.0515    4.4530 C   0  0  0  0  0  0  0  0  0  0  0  0
   24.2361  -14.4747    4.4663 O   0  0  0  0  0  0  0  0  0  0  0  0
   20.1149  -18.2950    2.0054 H   0  0  0  0  0  0  0  0  0  0  0  0
   17.4310  -18.2061    2.0743 H   0  0  0  0  0  0  0  0  0  0  0  0
  1  2  2  0  0  0  0
  1  6  1  0  0  0  0
  2  3  1  0  0  0  0
  3  4  2  0  0  0  0
  3 13  1  0  0  0  0
  4  5  1  0  0  0  0
  4 10  1  0  0  0  0
  5  6  2  0  0  0  0
  6  7  1  0  0  0  0
  7  8  1  0  0  0  0
  8  9  1  0  0  0  0
  8 14  1  0  0  0  0
  9 15  1  0  0  0  0
 10 11  1  0  0  0  0
 11 12  1  0  0  0  0
 12 13  1  0  0  0  0
M  END
>  <CHROM.0>
-46.40293760,51.63724589,-55.34368187,-53.22496432,-54.94034116,-59.23187878
-56.24735023,-51.13928362,-167.13634814,161.85259878

>  <CHROM.1>
-66.38419342,165.11339798,87.84529220,21.55364836,-15.56076195,3.92798360
-2.28627205,-0.09113968,0.34866793

>  <Name>
P129531989

>  <RI>
0

>  <Rbt.Current_Directory>
/home/fstefaniak/projects/zuza/docking/adenine/1Y26

>  <Rbt.Executable>
rbdock ($Id: //depot/dev/client3/rdock/2013.1/src/exe/rbdock.cxx#4 $)

>  <Rbt.Library>
libRbt.so (2013.1, Build901 2013/11/27)

>  <Rbt.Parameter_File>
/home/fstefaniak/progs/rDock//data/scripts/dock_solv.prm

>  <Rbt.Receptor>
1y26.prm

>  <SCORE>
-43.7563

>  <SCORE.INTER>
-22.3467

>  <SCORE.INTER.CONST>
1

>  <SCORE.INTER.POLAR>
-2.34881

>  <SCORE.INTER.ROT>
2

>  <SCORE.INTER.SOLV>
11.2541

>  <SCORE.INTER.VDW>
-15.7532

>  <SCORE.INTER.norm>
-1.71898

>  <SCORE.INTRA>
0.0944963

>  <SCORE.INTRA.DIHEDRAL>
-0.405574

>  <SCORE.INTRA.DIHEDRAL.0>
1.58789

>  <SCORE.INTRA.POLAR>
0

>  <SCORE.INTRA.POLAR.0>
0

>  <SCORE.INTRA.REPUL>
0

>  <SCORE.INTRA.REPUL.0>
0

>  <SCORE.INTRA.SOLV>
0.0837599

>  <SCORE.INTRA.SOLV.lig_0>
-15.573

>  <SCORE.INTRA.VDW>
0.255403

>  <SCORE.INTRA.VDW.0>
-0.648946

>  <SCORE.INTRA.norm>
0.00726895

>  <SCORE.RESTR>
0.00967995

>  <SCORE.RESTR.CAVITY>
0.00967995

>  <SCORE.RESTR.norm>
0.000744612

>  <SCORE.SYSTEM>
-21.5137

>  <SCORE.SYSTEM.CONST>
0

>  <SCORE.SYSTEM.DIHEDRAL>
6.25846

>  <SCORE.SYSTEM.POLAR>
-3.52497

>  <SCORE.SYSTEM.SOLV>
0.747871

>  <SCORE.SYSTEM.VDW>
-4.92801

>  <SCORE.SYSTEM.norm>
-1.6549

>  <SCORE.heavy>
13

>  <SCORE.norm>
-3.36587

$$$$
P129629388
 OpenBabel12072022103D
libRbt.so/2013.1/901 2013/11/27
 14 14  0  0  0  0  0  0  0  0999 V2000
   22.8225  -13.3039    3.2199 C   0  0  0  0  0  0  0  0  0  0  0  0
   22.6715  -13.5881    4.6974 C   0  0  0  0  0  0  0  0  0  0  0  0
   21.8973  -14.8107    5.1556 C   0  0  2  0  0  0  0  0  0  0  0  0
   23.4031  -14.7894    5.2965 C   0  0  1  0  0  0  0  0  0  0  0  0
   24.4356  -15.4742    4.4773 C   0  0  0  0  0  0  0  0  0  0  0  0
   24.3828  -15.4258    3.2582 O   0  0  0  0  0  0  0  0  0  0  0  0
   25.4468  -16.0654    5.1421 O   0  0  0  0  0  0  0  0  0  0  0  0
   21.1842  -15.6976    4.2145 C   0  0  0  0  0  0  0  0  0  0  0  0
   21.3055  -15.5230    3.0110 O   0  0  0  0  0  0  0  0  0  0  0  0
   20.4684  -16.6936    4.8187 N   0  0  0  0  0  0  0  0  0  0  0  0
   19.7289  -17.6822    4.0741 C   0  0  0  0  0  0  0  0  0  0  0  0
   22.5824  -12.3409    5.5400 C   0  0  0  0  0  0  0  0  0  0  0  0
   25.4831  -15.8587    6.1060 H   0  0  0  0  0  0  0  0  0  0  0  0
   20.4314  -16.7252    5.8297 H   0  0  0  0  0  0  0  0  0  0  0  0
  1  2  1  0  0  0  0
  2  3  1  0  0  0  0
  2  4  1  0  0  0  0
  2 12  1  0  0  0  0
  3  4  1  0  0  0  0
  3  8  1  6  0  0  0
  4  5  1  6  0  0  0
  5  6  2  0  0  0  0
  5  7  1  0  0  0  0
  7 13  1  0  0  0  0
  8  9  2  0  0  0  0
  8 10  1  0  0  0  0
 10 11  1  0  0  0  0
 10 14  1  0  0  0  0
M  END
>  <CHROM.0>
-52.97972812,-63.19218424,-56.09860145,-52.57670899,-58.74110495,-175.78720065
-61.15865053,63.24188001,-166.61956371,159.89152928

>  <CHROM.1>
6.50255714,-25.79610073,-9.65214149,22.54945135,-15.14784841,4.39231214,0.55274113
-0.06575518,0.10060774

>  <Name>
P129629388

>  <RI>
0

>  <Rbt.Current_Directory>
/home/fstefaniak/projects/zuza/docking/adenine/1Y26

>  <Rbt.Executable>
rbdock ($Id: //depot/dev/client3/rdock/2013.1/src/exe/rbdock.cxx#4 $)

>  <Rbt.Library>
libRbt.so (2013.1, Build901 2013/11/27)

>  <Rbt.Parameter_File>
/home/fstefaniak/progs/rDock//data/scripts/dock_solv.prm

>  <Rbt.Receptor>
1y26.prm

>  <SCORE>
-38.1048

>  <SCORE.INTER>
-23.0001

>  <SCORE.INTER.CONST>
1

>  <SCORE.INTER.POLAR>
-2.79042

>  <SCORE.INTER.ROT>
2

>  <SCORE.INTER.SOLV>
11.5943

>  <SCORE.INTER.VDW>
-14.8301

>  <SCORE.INTER.norm>
-1.91668

>  <SCORE.INTRA>
6.08425

>  <SCORE.INTRA.DIHEDRAL>
0.906943

>  <SCORE.INTRA.DIHEDRAL.0>
4.88741

>  <SCORE.INTRA.POLAR>
0.559421

>  <SCORE.INTRA.POLAR.0>
-0.559421

>  <SCORE.INTRA.REPUL>
0

>  <SCORE.INTRA.REPUL.0>
0

>  <SCORE.INTRA.SOLV>
-0.310584

>  <SCORE.INTRA.SOLV.lig_0>
-13.2448

>  <SCORE.INTRA.VDW>
3.88404

>  <SCORE.INTRA.VDW.0>
-1.2147

>  <SCORE.INTRA.norm>
0.507021

>  <SCORE.RESTR>
0.0569782

>  <SCORE.RESTR.CAVITY>
0.0569782

>  <SCORE.RESTR.norm>
0.00474818

>  <SCORE.SYSTEM>
-21.2459

>  <SCORE.SYSTEM.CONST>
0

>  <SCORE.SYSTEM.DIHEDRAL>
5.30259

>  <SCORE.SYSTEM.POLAR>
-3.41762

>  <SCORE.SYSTEM.SOLV>
0.276239

>  <SCORE.SYSTEM.VDW>
-4.63145

>  <SCORE.SYSTEM.norm>
-1.77049

>  <SCORE.heavy>
12

>  <SCORE.norm>
-3.1754

$$$$
P129629388
 OpenBabel12072022103D
libRbt.so/2013.1/901 2013/11/27
 14 14  0  0  0  0  0  0  0  0999 V2000
   22.6366  -13.3251    3.2926 C   0  0  0  0  0  0  0  0  0  0  0  0
   22.5845  -13.5079    4.7927 C   0  0  0  0  0  0  0  0  0  0  0  0
   21.7375  -14.6176    5.3889 C   0  0  2  0  0  0  0  0  0  0  0  0
   23.2448  -14.7412    5.4093 C   0  0  1  0  0  0  0  0  0  0  0  0
   24.1333  -15.5728    4.5578 C   0  0  0  0  0  0  0  0  0  0  0  0
   23.8381  -15.7911    3.3931 O   0  0  0  0  0  0  0  0  0  0  0  0
   25.2886  -15.9910    5.1096 O   0  0  0  0  0  0  0  0  0  0  0  0
   20.8650  -15.4796    4.5665 C   0  0  0  0  0  0  0  0  0  0  0  0
   20.1428  -14.9747    3.7196 O   0  0  0  0  0  0  0  0  0  0  0  0
   20.9995  -16.8162    4.8214 N   0  0  0  0  0  0  0  0  0  0  0  0
   20.2599  -17.8238    4.1029 C   0  0  0  0  0  0  0  0  0  0  0  0
   22.6879  -12.2122    5.5568 C   0  0  0  0  0  0  0  0  0  0  0  0
   25.4186  -15.7200    6.0492 H   0  0  0  0  0  0  0  0  0  0  0  0
   21.6218  -17.1126    5.5625 H   0  0  0  0  0  0  0  0  0  0  0  0
  1  2  1  0  0  0  0
  2  3  1  0  0  0  0
  2  4  1  0  0  0  0
  2 12  1  0  0  0  0
  3  4  1  0  0  0  0
  3  8  1  6  0  0  0
  4  5  1  6  0  0  0
  5  6  2  0  0  0  0
  5  7  1  0  0  0  0
  7 13  1  0  0  0  0
  8  9  2  0  0  0  0
  8 10  1  0  0  0  0
 10 11  1  0  0  0  0
 10 14  1  0  0  0  0
M  END
>  <CHROM.0>
-52.43662540,-61.03074291,-57.74485094,-53.22849317,-173.92740135,58.07332125
-55.81402453,-50.73672288,-166.83283815,161.02159091

>  <CHROM.1>
-45.92663649,-39.55373344,1.72337866,22.39085322,-15.10591624,4.54016760
0.65058995,-0.10838616,0.09226474

>  <Name>
P129629388

>  <RI>
0

>  <Rbt.Current_Directory>
/home/fstefaniak/projects/zuza/docking/adenine/1Y26

>  <Rbt.Executable>
rbdock ($Id: //depot/dev/client3/rdock/2013.1/src/exe/rbdock.cxx#4 $)

>  <Rbt.Library>
libRbt.so (2013.1, Build901 2013/11/27)

>  <Rbt.Parameter_File>
/home/fstefaniak/progs/rDock//data/scripts/dock_solv.prm

>  <Rbt.Receptor>
1y26.prm

>  <SCORE>
-37.8409

>  <SCORE.INTER>
-19.5615

>  <SCORE.INTER.CONST>
1

>  <SCORE.INTER.POLAR>
-2.6539

>  <SCORE.INTER.ROT>
2

>  <SCORE.INTER.SOLV>
11.6224

>  <SCORE.INTER.VDW>
-13.0021

>  <SCORE.INTER.norm>
-1.63013

>  <SCORE.INTRA>
2.8609

>  <SCORE.INTRA.DIHEDRAL>
-0.170528

>  <SCORE.INTRA.DIHEDRAL.0>
4.88741

>  <SCORE.INTRA.POLAR>
0.559421

>  <SCORE.INTRA.POLAR.0>
-0.559421

>  <SCORE.INTRA.REPUL>
0

>  <SCORE.INTRA.REPUL.0>
0

>  <SCORE.INTRA.SOLV>
0.230163

>  <SCORE.INTRA.SOLV.lig_0>
-13.2448

>  <SCORE.INTRA.VDW>
0.929052

>  <SCORE.INTRA.VDW.0>
-1.2147

>  <SCORE.INTRA.norm>
0.238408

>  <SCORE.RESTR>
0.175505

>  <SCORE.RESTR.CAVITY>
0.175505

>  <SCORE.RESTR.norm>
0.0146254

>  <SCORE.SYSTEM>
-21.3158

>  <SCORE.SYSTEM.CONST>
0

>  <SCORE.SYSTEM.DIHEDRAL>
5.53028

>  <SCORE.SYSTEM.POLAR>
-3.41804

>  <SCORE.SYSTEM.SOLV>
0.339572

>  <SCORE.SYSTEM.VDW>
-4.77366

>  <SCORE.SYSTEM.norm>
-1.77631

>  <SCORE.heavy>
12

>  <SCORE.norm>
-3.15341

$$$$
P129629388
 OpenBabel12072022103D
libRbt.so/2013.1/901 2013/11/27
 14 14  0  0  0  0  0  0  0  0999 V2000
   22.7841  -13.3091    3.2659 C   0  0  0  0  0  0  0  0  0  0  0  0
   22.6622  -13.5876    4.7471 C   0  0  0  0  0  0  0  0  0  0  0  0
   21.9102  -14.8168    5.2246 C   0  0  2  0  0  0  0  0  0  0  0  0
   23.4178  -14.7775    5.3391 C   0  0  1  0  0  0  0  0  0  0  0  0
   24.4437  -15.4545    4.5052 C   0  0  0  0  0  0  0  0  0  0  0  0
   24.3697  -15.4119    3.2871 O   0  0  0  0  0  0  0  0  0  0  0  0
   25.4725  -16.0318    5.1552 O   0  0  0  0  0  0  0  0  0  0  0  0
   21.1911  -15.7164    4.3004 C   0  0  0  0  0  0  0  0  0  0  0  0
   21.1867  -15.4732    3.1026 O   0  0  0  0  0  0  0  0  0  0  0  0
   20.6197  -16.8003    4.9071 N   0  0  0  0  0  0  0  0  0  0  0  0
   19.9009  -17.8131    4.1748 C   0  0  0  0  0  0  0  0  0  0  0  0
   22.5734  -12.3374    5.5853 C   0  0  0  0  0  0  0  0  0  0  0  0
   25.4785  -15.8849    6.1306 H   0  0  0  0  0  0  0  0  0  0  0  0
   20.6780  -16.8844    5.9141 H   0  0  0  0  0  0  0  0  0  0  0  0
  1  2  1  0  0  0  0
  2  3  1  0  0  0  0
  2  4  1  0  0  0  0
  2 12  1  0  0  0  0
  3  4  1  0  0  0  0
  3  8  1  6  0  0  0
  4  5  1  6  0  0  0
  5  6  2  0  0  0  0
  5  7  1  0  0  0  0
  7 13  1  0  0  0  0
  8  9  2  0  0  0  0
  8 10  1  0  0  0  0
 10 11  1  0  0  0  0
 10 14  1  0  0  0  0
M  END
>  <CHROM.0>
59.22812755,-61.90637612,-58.72242845,-49.50495766,-59.18403714,-58.41440192
-60.42138322,-49.49426738,-166.42968639,160.61768405

>  <CHROM.1>
-0.31547969,-25.73996855,-4.58033689,22.56678120,-15.15967537,4.44949703
0.59916345,-0.06742677,0.07845566

>  <Name>
P129629388

>  <RI>
0

>  <Rbt.Current_Directory>
/home/fstefaniak/projects/zuza/docking/adenine/1Y26

>  <Rbt.Executable>
rbdock ($Id: //depot/dev/client3/rdock/2013.1/src/exe/rbdock.cxx#4 $)

>  <Rbt.Library>
libRbt.so (2013.1, Build901 2013/11/27)

>  <Rbt.Parameter_File>
/home/fstefaniak/progs/rDock//data/scripts/dock_solv.prm

>  <Rbt.Receptor>
1y26.prm

>  <SCORE>
-37.7824

>  <SCORE.INTER>
-22.1942

>  <SCORE.INTER.CONST>
1

>  <SCORE.INTER.POLAR>
-2.8541

>  <SCORE.INTER.ROT>
2

>  <SCORE.INTER.SOLV>
11.6639

>  <SCORE.INTER.VDW>
-14.1038

>  <SCORE.INTER.norm>
-1.84951

>  <SCORE.INTRA>
5.6692

>  <SCORE.INTRA.DIHEDRAL>
0.0592355

>  <SCORE.INTRA.DIHEDRAL.0>
4.88741

>  <SCORE.INTRA.POLAR>
0.559421

>  <SCORE.INTRA.POLAR.0>
-0.559421

>  <SCORE.INTRA.REPUL>
0

>  <SCORE.INTRA.REPUL.0>
0

>  <SCORE.INTRA.SOLV>
-0.306911

>  <SCORE.INTRA.SOLV.lig_0>
-13.2448

>  <SCORE.INTRA.VDW>
3.89101

>  <SCORE.INTRA.VDW.0>
-1.2147

>  <SCORE.INTRA.norm>
0.472433

>  <SCORE.RESTR>
0.0585262

>  <SCORE.RESTR.CAVITY>
0.0585262

>  <SCORE.RESTR.norm>
0.00487719

>  <SCORE.SYSTEM>
-21.316

>  <SCORE.SYSTEM.CONST>
0

>  <SCORE.SYSTEM.DIHEDRAL>
5.49658

>  <SCORE.SYSTEM.POLAR>
-3.31018

>  <SCORE.SYSTEM.SOLV>
0.638201

>  <SCORE.SYSTEM.VDW>
-5.22165

>  <SCORE.SYSTEM.norm>
-1.77633

>  <SCORE.heavy>
12

>  <SCORE.norm>
-3.14854

$$$$
P129681270
 OpenBabel12072022103D
libRbt.so/2013.1/901 2013/11/27
 18 18  0  0  0  0  0  0  0  0999 V2000
   20.8172  -17.2842    2.7937 C   0  0  0  0  0  0  0  0  0  0  0  0
   21.1702  -17.4060    4.2779 C   0  0  2  0  0  0  0  0  0  0  0  0
   19.9302  -17.7186    5.1449 C   0  0  1  0  0  0  0  0  0  0  0  0
   19.0159  -18.8110    4.6126 C   0  0  0  0  0  0  0  0  0  0  0  0
   18.2991  -19.2457    5.8656 C   0  0  0  0  0  0  0  0  0  0  0  0
   19.4005  -19.1798    6.8999 C   0  0  0  0  0  0  0  0  0  0  0  0
   20.3509  -18.1912    6.4481 O   0  0  0  0  0  0  0  0  0  0  0  0
   21.8685  -16.1436    4.6910 N   0  0  0  0  0  0  0  0  0  0  0  0
   23.1862  -15.9829    4.9210 C   0  0  0  0  0  0  0  0  0  0  0  0
   24.0743  -17.0143    4.9164 N   0  3  0  0  0  0  0  0  0  0  0  0
   23.7647  -17.9885    4.7943 H   0  0  0  0  0  0  0  0  0  0  0  0
   25.4306  -16.7776    5.1943 N   0  0  0  0  0  0  0  0  0  0  0  0
   23.6540  -14.7409    5.1438 N   0  0  0  0  0  0  0  0  0  0  0  0
   21.3192  -15.2946    4.6965 H   0  0  0  0  0  0  0  0  0  0  0  0
   25.9075  -17.6847    5.2734 H   0  0  0  0  0  0  0  0  0  0  0  0
   25.8537  -16.3329    4.3690 H   0  0  0  0  0  0  0  0  0  0  0  0
   23.0771  -13.9145    5.1518 H   0  0  0  0  0  0  0  0  0  0  0  0
   24.6620  -14.6393    5.1859 H   0  0  0  0  0  0  0  0  0  0  0  0
  2  8  1  0  0  0  0
  2  1  1  6  0  0  0
  3  2  1  6  0  0  0
  3  4  1  0  0  0  0
  3  7  1  0  0  0  0
  4  5  1  0  0  0  0
  5  6  1  0  0  0  0
  6  7  1  0  0  0  0
  8  9  1  0  0  0  0
  8 14  1  0  0  0  0
  9 10  2  0  0  0  0
  9 13  1  0  0  0  0
 10 11  1  0  0  0  0
 10 12  1  0  0  0  0
 12 15  1  0  0  0  0
 12 16  1  0  0  0  0
 13 17  1  0  0  0  0
 13 18  1  0  0  0  0
M  CHG  1  10   1
M  END
>  <CHROM.0>
-48.24798333,-163.33452694,62.39305368,-55.31882586,-54.89100043,-65.83270319
78.25110715,-54.25267701,-167.28193001,160.32894930

>  <CHROM.1>
45.80913795,-104.98907831,172.14104152,21.49903312,-17.34914509,5.07847932
2.80178561,0.39041240,2.05983257

>  <Name>
P129681270

>  <RI>
0

>  <Rbt.Current_Directory>
/home/fstefaniak/projects/zuza/docking/adenine/1Y26

>  <Rbt.Executable>
rbdock ($Id: //depot/dev/client3/rdock/2013.1/src/exe/rbdock.cxx#4 $)

>  <Rbt.Library>
libRbt.so (2013.1, Build901 2013/11/27)

>  <Rbt.Parameter_File>
/home/fstefaniak/progs/rDock//data/scripts/dock_solv.prm

>  <Rbt.Receptor>
1y26.prm

>  <SCORE>
-55.2551

>  <SCORE.INTER>
-36.3706

>  <SCORE.INTER.CONST>
1

>  <SCORE.INTER.POLAR>
-4.98314

>  <SCORE.INTER.ROT>
3

>  <SCORE.INTER.SOLV>
19.2318

>  <SCORE.INTER.VDW>
-19.6472

>  <SCORE.INTER.norm>
-3.03088

>  <SCORE.INTRA>
1.70889

>  <SCORE.INTRA.DIHEDRAL>
0.48284

>  <SCORE.INTRA.DIHEDRAL.0>
3.75321

>  <SCORE.INTRA.POLAR>
0.922115

>  <SCORE.INTRA.POLAR.0>
-0.978601

>  <SCORE.INTRA.REPUL>
0

>  <SCORE.INTRA.REPUL.0>
0

>  <SCORE.INTRA.SOLV>
-1.74972

>  <SCORE.INTRA.SOLV.lig_0>
-28.1054

>  <SCORE.INTRA.VDW>
-0.792864

>  <SCORE.INTRA.VDW.0>
0.9987

>  <SCORE.INTRA.norm>
0.142407

>  <SCORE.RESTR>
0

>  <SCORE.RESTR.CAVITY>
0

>  <SCORE.RESTR.norm>
0

>  <SCORE.SYSTEM>
-20.5934

>  <SCORE.SYSTEM.CONST>
0

>  <SCORE.SYSTEM.DIHEDRAL>
8.35463

>  <SCORE.SYSTEM.POLAR>
-3.77521

>  <SCORE.SYSTEM.SOLV>
0.403579

>  <SCORE.SYSTEM.VDW>
-4.06432

>  <SCORE.SYSTEM.norm>
-1.71612

>  <SCORE.heavy>
12

>  <SCORE.norm>
-4.60459

$$$$
P129681270
 OpenBabel12072022103D
libRbt.so/2013.1/901 2013/11/27
 18 18  0  0  0  0  0  0  0  0999 V2000
   20.8879  -17.4258    2.8225 C   0  0  0  0  0  0  0  0  0  0  0  0
   21.1922  -17.4300    4.3223 C   0  0  2  0  0  0  0  0  0  0  0  0
   19.9269  -17.6901    5.1698 C   0  0  1  0  0  0  0  0  0  0  0  0
   18.9903  -18.7637    4.6381 C   0  0  0  0  0  0  0  0  0  0  0  0
   18.2366  -19.1547    5.8839 C   0  0  0  0  0  0  0  0  0  0  0  0
   19.3194  -19.1036    6.9386 C   0  0  0  0  0  0  0  0  0  0  0  0
   20.3078  -18.1521    6.4890 O   0  0  0  0  0  0  0  0  0  0  0  0
   21.8649  -16.1318    4.6603 N   0  0  0  0  0  0  0  0  0  0  0  0
   23.1737  -15.9377    4.9136 C   0  0  0  0  0  0  0  0  0  0  0  0
   24.0728  -16.9551    5.0092 N   0  3  0  0  0  0  0  0  0  0  0  0
   23.7774  -17.9395    4.9508 H   0  0  0  0  0  0  0  0  0  0  0  0
   25.4182  -16.6811    5.3057 N   0  0  0  0  0  0  0  0  0  0  0  0
   23.6216  -14.6767    5.0569 N   0  0  0  0  0  0  0  0  0  0  0  0
   21.3064  -15.2919    4.5882 H   0  0  0  0  0  0  0  0  0  0  0  0
   25.4562  -16.1830    6.2040 H   0  0  0  0  0  0  0  0  0  0  0  0
   25.8952  -17.5746    5.4838 H   0  0  0  0  0  0  0  0  0  0  0  0
   23.0356  -13.8595    4.9883 H   0  0  0  0  0  0  0  0  0  0  0  0
   24.6268  -14.5593    5.1189 H   0  0  0  0  0  0  0  0  0  0  0  0
  2  8  1  0  0  0  0
  2  1  1  6  0  0  0
  3  2  1  6  0  0  0
  3  4  1  0  0  0  0
  3  7  1  0  0  0  0
  4  5  1  0  0  0  0
  5  6  1  0  0  0  0
  6  7  1  0  0  0  0
  8  9  1  0  0  0  0
  8 14  1  0  0  0  0
  9 10  2  0  0  0  0
  9 13  1  0  0  0  0
 10 11  1  0  0  0  0
 10 12  1  0  0  0  0
 12 15  1  0  0  0  0
 12 16  1  0  0  0  0
 13 17  1  0  0  0  0
 13 18  1  0  0  0  0
M  CHG  1  10   1
M  END
>  <CHROM.0>
-43.32334551,-159.61979123,-50.98499568,-49.96562363,-53.35458476,62.82715256
-44.01049060,-46.88258061,-163.09836788,-55.21194052

>  <CHROM.1>
41.62916807,-104.62950351,58.08613852,21.48116513,-17.31566575,5.11396466
2.82725713,0.40911275,2.01115642

>  <Name>
P129681270

>  <RI>
0

>  <Rbt.Current_Directory>
/home/fstefaniak/projects/zuza/docking/adenine/1Y26

>  <Rbt.Executable>
rbdock ($Id: //depot/dev/client3/rdock/2013.1/src/exe/rbdock.cxx#4 $)

>  <Rbt.Library>
libRbt.so (2013.1, Build901 2013/11/27)

>  <Rbt.Parameter_File>
/home/fstefaniak/progs/rDock//data/scripts/dock_solv.prm

>  <Rbt.Receptor>
1y26.prm

>  <SCORE>
-54.5114

>  <SCORE.INTER>
-39.7528

>  <SCORE.INTER.CONST>
1

>  <SCORE.INTER.POLAR>
-5.52913

>  <SCORE.INTER.ROT>
3

>  <SCORE.INTER.SOLV>
19.2035

>  <SCORE.INTER.VDW>
-20.0726

>  <SCORE.INTER.norm>
-3.31274

>  <SCORE.INTRA>
2.33159

>  <SCORE.INTRA.DIHEDRAL>
0.899472

>  <SCORE.INTRA.DIHEDRAL.0>
3.75321

>  <SCORE.INTRA.POLAR>
0.930175

>  <SCORE.INTRA.POLAR.0>
-0.978601

>  <SCORE.INTRA.REPUL>
0

>  <SCORE.INTRA.REPUL.0>
0

>  <SCORE.INTRA.SOLV>
-1.73136

>  <SCORE.INTRA.SOLV.lig_0>
-28.1054

>  <SCORE.INTRA.VDW>
-0.41506

>  <SCORE.INTRA.VDW.0>
0.9987

>  <SCORE.INTRA.norm>
0.194299

>  <SCORE.RESTR>
0

>  <SCORE.RESTR.CAVITY>
0

>  <SCORE.RESTR.norm>
0

>  <SCORE.SYSTEM>
-17.0901

>  <SCORE.SYSTEM.CONST>
0

>  <SCORE.SYSTEM.DIHEDRAL>
9.51115

>  <SCORE.SYSTEM.POLAR>
-2.94192

>  <SCORE.SYSTEM.SOLV>
0.566102

>  <SCORE.SYSTEM.VDW>
-4.94608

>  <SCORE.SYSTEM.norm>
-1.42418

>  <SCORE.heavy>
12

>  <SCORE.norm>
-4.54261

$$$$
P129681270
 OpenBabel12072022103D
libRbt.so/2013.1/901 2013/11/27
 18 18  0  0  0  0  0  0  0  0999 V2000
   23.4021  -16.5919    4.1066 C   0  0  0  0  0  0  0  0  0  0  0  0
   21.9412  -16.3192    4.4720 C   0  0  2  0  0  0  0  0  0  0  0  0
   20.9924  -17.4048    3.9169 C   0  0  1  0  0  0  0  0  0  0  0  0
   20.0375  -18.0207    4.9276 C   0  0  0  0  0  0  0  0  0  0  0  0
   18.9499  -18.5566    4.0317 C   0  0  0  0  0  0  0  0  0  0  0  0
   18.8451  -17.4759    2.9790 C   0  0  0  0  0  0  0  0  0  0  0  0
   20.1347  -16.8315    2.8998 O   0  0  0  0  0  0  0  0  0  0  0  0
   21.5952  -14.9401    3.9919 N   0  0  0  0  0  0  0  0  0  0  0  0
   21.8764  -13.7733    4.6039 C   0  0  0  0  0  0  0  0  0  0  0  0
   22.4351  -13.6977    5.8427 N   0  3  0  0  0  0  0  0  0  0  0  0
   22.6160  -14.5425    6.4023 H   0  0  0  0  0  0  0  0  0  0  0  0
   22.6734  -12.4455    6.4330 N   0  0  0  0  0  0  0  0  0  0  0  0
   21.6144  -12.6252    3.9524 N   0  0  0  0  0  0  0  0  0  0  0  0
   21.2054  -14.8609    3.0623 H   0  0  0  0  0  0  0  0  0  0  0  0
   22.2378  -12.4389    7.3640 H   0  0  0  0  0  0  0  0  0  0  0  0
   23.6820  -12.3653    6.6177 H   0  0  0  0  0  0  0  0  0  0  0  0
   21.2159  -12.5804    3.0278 H   0  0  0  0  0  0  0  0  0  0  0  0
   21.9538  -11.7734    4.3852 H   0  0  0  0  0  0  0  0  0  0  0  0
  2  8  1  0  0  0  0
  2  1  1  6  0  0  0
  3  2  1  1  0  0  0
  3  4  1  0  0  0  0
  3  7  1  0  0  0  0
  4  5  1  0  0  0  0
  5  6  1  0  0  0  0
  6  7  1  0  0  0  0
  8  9  1  0  0  0  0
  8 14  1  0  0  0  0
  9 10  2  0  0  0  0
  9 13  1  0  0  0  0
 10 11  1  0  0  0  0
 10 12  1  0  0  0  0
 12 15  1  0  0  0  0
 12 16  1  0  0  0  0
 13 17  1  0  0  0  0
 13 18  1  0  0  0  0
M  CHG  1  10   1
M  END
>  <CHROM.0>
61.33392117,-169.70560196,-51.23482014,-50.61990600,-56.54957385,-58.50118742
-51.03943666,-178.16156193,-167.03951624,160.22758508

>  <CHROM.1>
128.80266074,-80.78814232,126.89208028,21.23040791,-15.65989501,4.35485267
-0.98958157,0.53084662,-3.12833066

>  <Name>
P129681270

>  <RI>
0

>  <Rbt.Current_Directory>
/home/fstefaniak/projects/zuza/docking/adenine/1Y26

>  <Rbt.Executable>
rbdock ($Id: //depot/dev/client3/rdock/2013.1/src/exe/rbdock.cxx#4 $)

>  <Rbt.Library>
libRbt.so (2013.1, Build901 2013/11/27)

>  <Rbt.Parameter_File>
/home/fstefaniak/progs/rDock//data/scripts/dock_solv.prm

>  <Rbt.Receptor>
1y26.prm

>  <SCORE>
-53.8957

>  <SCORE.INTER>
-34.9396

>  <SCORE.INTER.CONST>
1

>  <SCORE.INTER.POLAR>
-4.87978

>  <SCORE.INTER.ROT>
3

>  <SCORE.INTER.SOLV>
15.4726

>  <SCORE.INTER.VDW>
-17.7847

>  <SCORE.INTER.norm>
-2.91164

>  <SCORE.INTRA>
2.64885

>  <SCORE.INTRA.DIHEDRAL>
5.03582

>  <SCORE.INTRA.DIHEDRAL.0>
3.75321

>  <SCORE.INTRA.POLAR>
0.901393

>  <SCORE.INTRA.POLAR.0>
-0.978601

>  <SCORE.INTRA.REPUL>
0

>  <SCORE.INTRA.REPUL.0>
0

>  <SCORE.INTRA.SOLV>
-1.08829

>  <SCORE.INTRA.SOLV.lig_0>
-28.1054

>  <SCORE.INTRA.VDW>
-2.38966

>  <SCORE.INTRA.VDW.0>
0.9987

>  <SCORE.INTRA.norm>
0.220737

>  <SCORE.RESTR>
0

>  <SCORE.RESTR.CAVITY>
0

>  <SCORE.RESTR.norm>
0

>  <SCORE.SYSTEM>
-21.6049

>  <SCORE.SYSTEM.CONST>
0

>  <SCORE.SYSTEM.DIHEDRAL>
6.16746

>  <SCORE.SYSTEM.POLAR>
-3.33053

>  <SCORE.SYSTEM.SOLV>
0.393651

>  <SCORE.SYSTEM.VDW>
-5.48856

>  <SCORE.SYSTEM.norm>
-1.80041

>  <SCORE.heavy>
12

>  <SCORE.norm>
-4.49131

$$$$
P129681588
 OpenBabel12072022103D
libRbt.so/2013.1/901 2013/11/27
 20 20  0  0  0  0  0  0  0  0999 V2000
   18.6151  -18.6674    4.2550 C   0  0  0  0  0  0  0  0  0  0  0  0
   18.9888  -17.8715    3.0105 C   0  0  0  0  0  0  0  0  0  0  0  0
   19.5302  -16.4881    3.3700 C   0  0  0  0  0  0  0  0  0  0  0  0
   20.7358  -16.5548    4.3370 C   0  0  0  0  0  0  0  0  0  0  0  0
   20.3509  -17.3970    5.5807 C   0  0  0  0  0  0  0  0  0  0  0  0
   19.7865  -18.7725    5.2232 C   0  0  0  0  0  0  0  0  0  0  0  0
   21.1195  -15.1302    4.8327 C   0  0  0  0  0  0  0  0  0  0  0  0
   21.7442  -14.3649    3.7985 O   0  0  0  0  0  0  0  0  0  0  0  0
   21.9144  -17.2235    3.6654 N   0  0  0  0  0  0  0  0  0  0  0  0
   23.2237  -17.0785    3.9473 C   0  0  0  0  0  0  0  0  0  0  0  0
   23.6828  -16.3517    5.0026 N   0  3  0  0  0  0  0  0  0  0  0  0
   23.0480  -16.1449    5.7901 H   0  0  0  0  0  0  0  0  0  0  0  0
   25.0625  -16.1863    5.1957 N   0  0  0  0  0  0  0  0  0  0  0  0
   24.1250  -17.6838    3.1516 N   0  0  0  0  0  0  0  0  0  0  0  0
   21.1474  -14.4297    3.0231 H   0  0  0  0  0  0  0  0  0  0  0  0
   21.7076  -17.8352    2.8878 H   0  0  0  0  0  0  0  0  0  0  0  0
   25.4201  -15.5452    4.4772 H   0  0  0  0  0  0  0  0  0  0  0  0
   25.2110  -15.7117    6.0951 H   0  0  0  0  0  0  0  0  0  0  0  0
   23.8832  -18.2379    2.3453 H   0  0  0  0  0  0  0  0  0  0  0  0
   25.0922  -17.6445    3.4532 H   0  0  0  0  0  0  0  0  0  0  0  0
  1  2  1  0  0  0  0
  1  6  1  0  0  0  0
  2  3  1  0  0  0  0
  3  4  1  0  0  0  0
  4  5  1  0  0  0  0
  4  7  1  0  0  0  0
  4  9  1  0  0  0  0
  5  6  1  0  0  0  0
  7  8  1  0  0  0  0
  8 15  1  0  0  0  0
  9 10  1  0  0  0  0
  9 16  1  0  0  0  0
 10 11  2  0  0  0  0
 10 14  1  0  0  0  0
 11 12  1  0  0  0  0
 11 13  1  0  0  0  0
 13 17  1  0  0  0  0
 13 18  1  0  0  0  0
 14 19  1  0  0  0  0
 14 20  1  0  0  0  0
M  CHG  1  11   1
M  END
>  <CHROM.0>
-42.89567801,-62.45770066,-55.23568871,-55.90102692,-52.54425335,-65.32132371
-65.78712131,-174.06103332,-166.77779895,161.49957623

>  <CHROM.1>
-72.35967277,154.99270273,51.15308943,72.10628836,21.52562108,-16.86555573
4.24753310,-2.83224498,-0.06805770,-0.01417259

>  <Name>
P129681588

>  <RI>
0

>  <Rbt.Current_Directory>
/home/fstefaniak/projects/zuza/docking/adenine/1Y26

>  <Rbt.Executable>
rbdock ($Id: //depot/dev/client3/rdock/2013.1/src/exe/rbdock.cxx#4 $)

>  <Rbt.Library>
libRbt.so (2013.1, Build901 2013/11/27)

>  <Rbt.Parameter_File>
/home/fstefaniak/progs/rDock//data/scripts/dock_solv.prm

>  <Rbt.Receptor>
1y26.prm

>  <SCORE>
-48.1359

>  <SCORE.INTER>
-29.1019

>  <SCORE.INTER.CONST>
1

>  <SCORE.INTER.POLAR>
-4.40801

>  <SCORE.INTER.ROT>
3

>  <SCORE.INTER.SOLV>
20.76

>  <SCORE.INTER.VDW>
-17.2279

>  <SCORE.INTER.norm>
-2.23861

>  <SCORE.INTRA>
3.41773

>  <SCORE.INTRA.DIHEDRAL>
0.166033

>  <SCORE.INTRA.DIHEDRAL.0>
3.73413

>  <SCORE.INTRA.POLAR>
0.905333

>  <SCORE.INTRA.POLAR.0>
-1.01119

>  <SCORE.INTRA.REPUL>
0

>  <SCORE.INTRA.REPUL.0>
0

>  <SCORE.INTRA.SOLV>
-0.757026

>  <SCORE.INTRA.SOLV.lig_0>
-28.5556

>  <SCORE.INTRA.VDW>
0.63509

>  <SCORE.INTRA.VDW.0>
-0.773546

>  <SCORE.INTRA.norm>
0.262902

>  <SCORE.RESTR>
0

>  <SCORE.RESTR.CAVITY>
0

>  <SCORE.RESTR.norm>
0

>  <SCORE.SYSTEM>
-22.4517

>  <SCORE.SYSTEM.CONST>
0

>  <SCORE.SYSTEM.DIHEDRAL>
6.54884

>  <SCORE.SYSTEM.POLAR>
-3.46903

>  <SCORE.SYSTEM.SOLV>
0.426778

>  <SCORE.SYSTEM.VDW>
-5.7296

>  <SCORE.SYSTEM.norm>
-1.72706

>  <SCORE.heavy>
13

>  <SCORE.norm>
-3.70276

$$$$
P129681588
 OpenBabel12072022103D
libRbt.so/2013.1/901 2013/11/27
 20 20  0  0  0  0  0  0  0  0999 V2000
   18.6254  -18.6926    4.2504 C   0  0  0  0  0  0  0  0  0  0  0  0
   19.0028  -17.8937    3.0090 C   0  0  0  0  0  0  0  0  0  0  0  0
   19.5371  -16.5087    3.3731 C   0  0  0  0  0  0  0  0  0  0  0  0
   20.7379  -16.5723    4.3464 C   0  0  0  0  0  0  0  0  0  0  0  0
   20.3495  -17.4176    5.5870 C   0  0  0  0  0  0  0  0  0  0  0  0
   19.7921  -18.7947    5.2247 C   0  0  0  0  0  0  0  0  0  0  0  0
   21.1138  -15.1470    4.8459 C   0  0  0  0  0  0  0  0  0  0  0  0
   21.7254  -14.3722    3.8111 O   0  0  0  0  0  0  0  0  0  0  0  0
   21.9224  -17.2358    3.6801 N   0  0  0  0  0  0  0  0  0  0  0  0
   23.2304  -17.0771    3.9611 C   0  0  0  0  0  0  0  0  0  0  0  0
   23.6828  -16.3381    5.0107 N   0  3  0  0  0  0  0  0  0  0  0  0
   23.0461  -16.1308    5.7965 H   0  0  0  0  0  0  0  0  0  0  0  0
   25.0610  -16.1590    5.2027 N   0  0  0  0  0  0  0  0  0  0  0  0
   24.1371  -17.6805    3.1702 N   0  0  0  0  0  0  0  0  0  0  0  0
   21.1243  -14.4389    3.0392 H   0  0  0  0  0  0  0  0  0  0  0  0
   21.7212  -17.8553    2.9073 H   0  0  0  0  0  0  0  0  0  0  0  0
   25.4080  -15.4989    4.4961 H   0  0  0  0  0  0  0  0  0  0  0  0
   25.2066  -15.7008    6.1110 H   0  0  0  0  0  0  0  0  0  0  0  0
   23.9003  -18.2431    2.3682 H   0  0  0  0  0  0  0  0  0  0  0  0
   25.1039  -17.6304    3.4715 H   0  0  0  0  0  0  0  0  0  0  0  0
  1  2  1  0  0  0  0
  1  6  1  0  0  0  0
  2  3  1  0  0  0  0
  3  4  1  0  0  0  0
  4  5  1  0  0  0  0
  4  7  1  0  0  0  0
  4  9  1  0  0  0  0
  5  6  1  0  0  0  0
  7  8  1  0  0  0  0
  8 15  1  0  0  0  0
  9 10  1  0  0  0  0
  9 16  1  0  0  0  0
 10 11  2  0  0  0  0
 10 14  1  0  0  0  0
 11 12  1  0  0  0  0
 11 13  1  0  0  0  0
 13 17  1  0  0  0  0
 13 18  1  0  0  0  0
 14 19  1  0  0  0  0
 14 20  1  0  0  0  0
M  CHG  1  11   1
M  END
>  <CHROM.0>
-175.98011900,-60.81607357,-55.28430340,-52.55010128,-173.69272258,59.09469852
-54.50563258,-176.71402795,-166.45773124,161.40470818

>  <CHROM.1>
-71.60664349,154.32468735,51.09401703,73.74419245,21.52820359,-16.87410469
4.25570156,-2.82441343,-0.06871976,-0.00863056

>  <Name>
P129681588

>  <RI>
0

>  <Rbt.Current_Directory>
/home/fstefaniak/projects/zuza/docking/adenine/1Y26

>  <Rbt.Executable>
rbdock ($Id: //depot/dev/client3/rdock/2013.1/src/exe/rbdock.cxx#4 $)

>  <Rbt.Library>
libRbt.so (2013.1, Build901 2013/11/27)

>  <Rbt.Parameter_File>
/home/fstefaniak/progs/rDock//data/scripts/dock_solv.prm

>  <Rbt.Receptor>
1y26.prm

>  <SCORE>
-46.2952

>  <SCORE.INTER>
-29.2083

>  <SCORE.INTER.CONST>
1

>  <SCORE.INTER.POLAR>
-4.40518

>  <SCORE.INTER.ROT>
3

>  <SCORE.INTER.SOLV>
20.7791

>  <SCORE.INTER.VDW>
-17.3146

>  <SCORE.INTER.norm>
-2.24679

>  <SCORE.INTRA>
3.52951

>  <SCORE.INTRA.DIHEDRAL>
0.144682

>  <SCORE.INTRA.DIHEDRAL.0>
3.73413

>  <SCORE.INTRA.POLAR>
0.904662

>  <SCORE.INTRA.POLAR.0>
-1.01119

>  <SCORE.INTRA.REPUL>
0

>  <SCORE.INTRA.REPUL.0>
0

>  <SCORE.INTRA.SOLV>
-0.764059

>  <SCORE.INTRA.SOLV.lig_0>
-28.5556

>  <SCORE.INTRA.VDW>
0.763348

>  <SCORE.INTRA.VDW.0>
-0.773546

>  <SCORE.INTRA.norm>
0.271501

>  <SCORE.RESTR>
0

>  <SCORE.RESTR.CAVITY>
0

>  <SCORE.RESTR.norm>
0

>  <SCORE.SYSTEM>
-20.6164

>  <SCORE.SYSTEM.CONST>
0

>  <SCORE.SYSTEM.DIHEDRAL>
5.16437

>  <SCORE.SYSTEM.POLAR>
-3.21327

>  <SCORE.SYSTEM.SOLV>
0.089129

>  <SCORE.SYSTEM.VDW>
-4.7845

>  <SCORE.SYSTEM.norm>
-1.58587

>  <SCORE.heavy>
13

>  <SCORE.norm>
-3.56117

$$$$
P129681588
 OpenBabel12072022103D
libRbt.so/2013.1/901 2013/11/27
 20 20  0  0  0  0  0  0  0  0999 V2000
   22.7608  -11.9113    5.0036 C   0  0  0  0  0  0  0  0  0  0  0  0
   22.4407  -12.7400    6.2415 C   0  0  0  0  0  0  0  0  0  0  0  0
   21.6477  -13.9974    5.8864 C   0  0  0  0  0  0  0  0  0  0  0  0
   22.3654  -14.8748    4.8336 C   0  0  0  0  0  0  0  0  0  0  0  0
   22.7154  -14.0090    3.5957 C   0  0  0  0  0  0  0  0  0  0  0  0
   23.4881  -12.7381    3.9509 C   0  0  0  0  0  0  0  0  0  0  0  0
   21.4350  -16.0271    4.3552 C   0  0  0  0  0  0  0  0  0  0  0  0
   20.1648  -15.5316    3.9235 O   0  0  0  0  0  0  0  0  0  0  0  0
   23.6551  -15.4273    5.3981 N   0  0  0  0  0  0  0  0  0  0  0  0
   24.3441  -16.5106    4.9901 C   0  0  0  0  0  0  0  0  0  0  0  0
   24.0108  -17.2335    3.8860 N   0  3  0  0  0  0  0  0  0  0  0  0
   23.4148  -16.8046    3.1602 H   0  0  0  0  0  0  0  0  0  0  0  0
   24.7321  -18.3916    3.5593 N   0  0  0  0  0  0  0  0  0  0  0  0
   25.4176  -16.8980    5.7038 N   0  0  0  0  0  0  0  0  0  0  0  0
   20.3506  -14.9727    3.1395 H   0  0  0  0  0  0  0  0  0  0  0  0
   24.0421  -14.9491    6.2001 H   0  0  0  0  0  0  0  0  0  0  0  0
   24.2881  -19.1957    4.0191 H   0  0  0  0  0  0  0  0  0  0  0  0
   24.6398  -18.5589    2.5495 H   0  0  0  0  0  0  0  0  0  0  0  0
   25.7392  -16.4310    6.5369 H   0  0  0  0  0  0  0  0  0  0  0  0
   25.9749  -17.6481    5.3105 H   0  0  0  0  0  0  0  0  0  0  0  0
  1  2  1  0  0  0  0
  1  6  1  0  0  0  0
  2  3  1  0  0  0  0
  3  4  1  0  0  0  0
  4  5  1  0  0  0  0
  4  7  1  0  0  0  0
  4  9  1  0  0  0  0
  5  6  1  0  0  0  0
  7  8  1  0  0  0  0
  8 15  1  0  0  0  0
  9 10  1  0  0  0  0
  9 16  1  0  0  0  0
 10 11  2  0  0  0  0
 10 14  1  0  0  0  0
 11 12  1  0  0  0  0
 11 13  1  0  0  0  0
 13 17  1  0  0  0  0
 13 18  1  0  0  0  0
 14 19  1  0  0  0  0
 14 20  1  0  0  0  0
M  CHG  1  11   1
M  END
>  <CHROM.0>
-48.82132181,-69.94936420,-66.01325813,-52.60981324,-177.01888328,-61.10126886
-172.44968485,-178.37013014,-168.88913191,160.33347015

>  <CHROM.1>
52.31607134,158.08155131,64.26247469,89.87212593,23.01527416,-15.15947706
4.69365449,-2.07853985,0.28868965,-2.84116232

>  <Name>
P129681588

>  <RI>
0

>  <Rbt.Current_Directory>
/home/fstefaniak/projects/zuza/docking/adenine/1Y26

>  <Rbt.Executable>
rbdock ($Id: //depot/dev/client3/rdock/2013.1/src/exe/rbdock.cxx#4 $)

>  <Rbt.Library>
libRbt.so (2013.1, Build901 2013/11/27)

>  <Rbt.Parameter_File>
/home/fstefaniak/progs/rDock//data/scripts/dock_solv.prm

>  <Rbt.Receptor>
1y26.prm

>  <SCORE>
-46.2065

>  <SCORE.INTER>
-28.0177

>  <SCORE.INTER.CONST>
1

>  <SCORE.INTER.POLAR>
-5.3694

>  <SCORE.INTER.ROT>
3

>  <SCORE.INTER.SOLV>
23.7531

>  <SCORE.INTER.VDW>
-14.2981

>  <SCORE.INTER.norm>
-2.15521

>  <SCORE.INTRA>
2.98226

>  <SCORE.INTRA.DIHEDRAL>
-0.136586

>  <SCORE.INTRA.DIHEDRAL.0>
3.73413

>  <SCORE.INTRA.POLAR>
0.942912

>  <SCORE.INTRA.POLAR.0>
-1.01119

>  <SCORE.INTRA.REPUL>
0

>  <SCORE.INTRA.REPUL.0>
0

>  <SCORE.INTRA.SOLV>
-1.86392

>  <SCORE.INTRA.SOLV.lig_0>
-28.5556

>  <SCORE.INTRA.VDW>
0.776609

>  <SCORE.INTRA.VDW.0>
-0.773546

>  <SCORE.INTRA.norm>
0.229405

>  <SCORE.RESTR>
0.377251

>  <SCORE.RESTR.CAVITY>
0.377251

>  <SCORE.RESTR.norm>
0.0290193

>  <SCORE.SYSTEM>
-21.5483

>  <SCORE.SYSTEM.CONST>
0

>  <SCORE.SYSTEM.DIHEDRAL>
6.05062

>  <SCORE.SYSTEM.POLAR>
-3.39276

>  <SCORE.SYSTEM.SOLV>
0.222999

>  <SCORE.SYSTEM.VDW>
-5.14755

>  <SCORE.SYSTEM.norm>
-1.65756

>  <SCORE.heavy>
13

>  <SCORE.norm>
-3.55435

$$$$
P129686110
 OpenBabel12072022103D
libRbt.so/2013.1/901 2013/11/27
 15 16  0  0  0  0  0  0  0  0999 V2000
   21.5635  -11.0328    4.3737 C   0  0  0  0  0  0  0  0  0  0  0  0
   22.8123  -11.7029    4.9364 C   0  0  1  0  0  0  0  0  0  0  0  0
   22.3888  -12.7473    5.9764 C   0  0  0  0  0  0  0  0  0  0  0  0
   22.1012  -12.4693    7.1369 O   0  0  0  0  0  0  0  0  0  0  0  0
   22.0710  -13.9812    5.4630 N   0  0  0  0  0  0  0  0  0  0  0  0
   22.8601  -14.5958    4.3839 C   0  0  1  0  0  0  0  0  0  0  0  0
   23.3397  -13.5230    3.3481 C   0  0  0  0  0  0  0  0  0  0  0  0
   23.7090  -13.7673    2.2011 O   0  0  0  0  0  0  0  0  0  0  0  0
   23.6185  -12.2772    3.8690 N   0  0  0  0  0  0  0  0  0  0  0  0
   24.1342  -15.2099    4.9932 C   0  0  0  0  0  0  0  0  0  0  0  0
   21.9833  -15.7114    3.8237 C   0  0  0  0  0  0  0  0  0  0  0  0
   20.4784  -15.6120    3.7371 C   0  0  0  0  0  0  0  0  0  0  0  0
   21.1112  -16.5963    4.6847 C   0  0  0  0  0  0  0  0  0  0  0  0
   21.7306  -14.6059    6.1824 H   0  0  0  0  0  0  0  0  0  0  0  0
   23.9868  -11.6392    3.1737 H   0  0  0  0  0  0  0  0  0  0  0  0
  2  1  1  6  0  0  0
  2  3  1  0  0  0  0
  2  9  1  0  0  0  0
  3  4  2  0  0  0  0
  3  5  1  0  0  0  0
  5  6  1  0  0  0  0
  5 14  1  0  0  0  0
  6  7  1  0  0  0  0
  6 11  1  0  0  0  0
  6 10  1  1  0  0  0
  7  8  2  0  0  0  0
  7  9  1  0  0  0  0
  9 15  1  0  0  0  0
 11 12  1  0  0  0  0
 11 13  1  0  0  0  0
 12 13  1  0  0  0  0
M  END
>  <CHROM.0>
-54.64774520,-69.39211570,-62.63840904,-51.56485682,59.15752081,-175.73964738
-61.79988470,-52.96794016,-168.19591644,160.95617754

>  <CHROM.1>
34.57808505,22.48030856,-13.76396370,4.53952173,-1.26580992,-0.97474194,-2.62461173

>  <Name>
P129686110

>  <RI>
0

>  <Rbt.Current_Directory>
/home/fstefaniak/projects/zuza/docking/adenine/1Y26

>  <Rbt.Executable>
rbdock ($Id: //depot/dev/client3/rdock/2013.1/src/exe/rbdock.cxx#4 $)

>  <Rbt.Library>
libRbt.so (2013.1, Build901 2013/11/27)

>  <Rbt.Parameter_File>
/home/fstefaniak/progs/rDock//data/scripts/dock_solv.prm

>  <Rbt.Receptor>
1y26.prm

>  <SCORE>
-35.501

>  <SCORE.INTER>
-16.7385

>  <SCORE.INTER.CONST>
1

>  <SCORE.INTER.POLAR>
-2.02992

>  <SCORE.INTER.ROT>
1

>  <SCORE.INTER.SOLV>
8.86688

>  <SCORE.INTER.VDW>
-11.6149

>  <SCORE.INTER.norm>
-1.28757

>  <SCORE.INTRA>
0.190983

>  <SCORE.INTRA.DIHEDRAL>
-0.378377

>  <SCORE.INTRA.DIHEDRAL.0>
3.14242

>  <SCORE.INTRA.POLAR>
0

>  <SCORE.INTRA.POLAR.0>
0

>  <SCORE.INTRA.REPUL>
0

>  <SCORE.INTRA.REPUL.0>
0

>  <SCORE.INTRA.SOLV>
-0.0551235

>  <SCORE.INTRA.SOLV.lig_0>
-13.2699

>  <SCORE.INTRA.VDW>
0.407733

>  <SCORE.INTRA.VDW.0>
-0.283232

>  <SCORE.INTRA.norm>
0.014691

>  <SCORE.RESTR>
1.37282

>  <SCORE.RESTR.CAVITY>
1.37282

>  <SCORE.RESTR.norm>
0.105602

>  <SCORE.SYSTEM>
-20.3264

>  <SCORE.SYSTEM.CONST>
0

>  <SCORE.SYSTEM.DIHEDRAL>
5.45955

>  <SCORE.SYSTEM.POLAR>
-3.37356

>  <SCORE.SYSTEM.SOLV>
0.290927

>  <SCORE.SYSTEM.VDW>
-4.22254

>  <SCORE.SYSTEM.norm>
-1.56357

>  <SCORE.heavy>
13

>  <SCORE.norm>
-2.73085

$$$$
P129686110
 OpenBabel12072022103D
libRbt.so/2013.1/901 2013/11/27
 15 16  0  0  0  0  0  0  0  0999 V2000
   21.5295  -11.0007    4.3617 C   0  0  0  0  0  0  0  0  0  0  0  0
   22.7915  -11.6649    4.9015 C   0  0  1  0  0  0  0  0  0  0  0  0
   22.3919  -12.7102    5.9502 C   0  0  0  0  0  0  0  0  0  0  0  0
   22.1248  -12.4322    7.1156 O   0  0  0  0  0  0  0  0  0  0  0  0
   22.0699  -13.9459    5.4438 N   0  0  0  0  0  0  0  0  0  0  0  0
   22.8414  -14.5581    4.3507 C   0  0  1  0  0  0  0  0  0  0  0  0
   23.2970  -13.4842    3.3052 C   0  0  0  0  0  0  0  0  0  0  0  0
   23.6459  -13.7280    2.1518 O   0  0  0  0  0  0  0  0  0  0  0  0
   23.5800  -12.2368    3.8198 N   0  0  0  0  0  0  0  0  0  0  0  0
   24.1293  -15.1662    4.9367 C   0  0  0  0  0  0  0  0  0  0  0  0
   21.9591  -15.6780    3.8079 C   0  0  0  0  0  0  0  0  0  0  0  0
   20.4542  -15.5749    3.7255 C   0  0  0  0  0  0  0  0  0  0  0  0
   21.0875  -16.5492    4.6833 C   0  0  0  0  0  0  0  0  0  0  0  0
   21.7457  -14.5714    6.1700 H   0  0  0  0  0  0  0  0  0  0  0  0
   23.9326  -11.5979    3.1172 H   0  0  0  0  0  0  0  0  0  0  0  0
  2  1  1  6  0  0  0
  2  3  1  0  0  0  0
  2  9  1  0  0  0  0
  3  4  2  0  0  0  0
  3  5  1  0  0  0  0
  5  6  1  0  0  0  0
  5 14  1  0  0  0  0
  6  7  1  0  0  0  0
  6 11  1  0  0  0  0
  6 10  1  1  0  0  0
  7  8  2  0  0  0  0
  7  9  1  0  0  0  0
  9 15  1  0  0  0  0
 11 12  1  0  0  0  0
 11 13  1  0  0  0  0
 12 13  1  0  0  0  0
M  END
>  <CHROM.0>
-48.74085082,-69.64140003,-65.29269102,-49.74747939,-56.84022595,-60.44707274
-172.27473555,-176.20008041,-168.63711244,-59.02657098

>  <CHROM.1>
35.75159151,22.45962144,-13.72567933,4.51067406,-1.25470850,-0.99190960,-2.61194534

>  <Name>
P129686110

>  <RI>
0

>  <Rbt.Current_Directory>
/home/fstefaniak/projects/zuza/docking/adenine/1Y26

>  <Rbt.Executable>
rbdock ($Id: //depot/dev/client3/rdock/2013.1/src/exe/rbdock.cxx#4 $)

>  <Rbt.Library>
libRbt.so (2013.1, Build901 2013/11/27)

>  <Rbt.Parameter_File>
/home/fstefaniak/progs/rDock//data/scripts/dock_solv.prm

>  <Rbt.Receptor>
1y26.prm

>  <SCORE>
-33.7308

>  <SCORE.INTER>
-16.6133

>  <SCORE.INTER.CONST>
1

>  <SCORE.INTER.POLAR>
-1.99579

>  <SCORE.INTER.ROT>
1

>  <SCORE.INTER.SOLV>
8.81391

>  <SCORE.INTER.VDW>
-11.6275

>  <SCORE.INTER.norm>
-1.27794

>  <SCORE.INTRA>
0.199602

>  <SCORE.INTRA.DIHEDRAL>
-0.346079

>  <SCORE.INTRA.DIHEDRAL.0>
3.14242

>  <SCORE.INTRA.POLAR>
0

>  <SCORE.INTRA.POLAR.0>
0

>  <SCORE.INTRA.REPUL>
0

>  <SCORE.INTRA.REPUL.0>
0

>  <SCORE.INTRA.SOLV>
-0.0510721

>  <SCORE.INTRA.SOLV.lig_0>
-13.2699

>  <SCORE.INTRA.VDW>
0.398177

>  <SCORE.INTRA.VDW.0>
-0.283232

>  <SCORE.INTRA.norm>
0.015354

>  <SCORE.RESTR>
1.36098

>  <SCORE.RESTR.CAVITY>
1.36098

>  <SCORE.RESTR.norm>
0.104691

>  <SCORE.SYSTEM>
-18.6781

>  <SCORE.SYSTEM.CONST>
0

>  <SCORE.SYSTEM.DIHEDRAL>
4.72961

>  <SCORE.SYSTEM.POLAR>
-2.59426

>  <SCORE.SYSTEM.SOLV>
0.46753

>  <SCORE.SYSTEM.VDW>
-5.53695

>  <SCORE.SYSTEM.norm>
-1.43678

>  <SCORE.heavy>
13

>  <SCORE.norm>
-2.59468

$$$$
P129686110
 OpenBabel12072022103D
libRbt.so/2013.1/901 2013/11/27
 15 16  0  0  0  0  0  0  0  0999 V2000
   21.4542  -10.7313    4.9673 C   0  0  0  0  0  0  0  0  0  0  0  0
   22.7166  -11.5414    5.2418 C   0  0  1  0  0  0  0  0  0  0  0  0
   22.3723  -12.6853    6.2035 C   0  0  0  0  0  0  0  0  0  0  0  0
   22.2837  -12.5440    7.4196 O   0  0  0  0  0  0  0  0  0  0  0  0
   21.8857  -13.8210    5.6031 N   0  0  0  0  0  0  0  0  0  0  0  0
   22.4544  -14.3357    4.3475 C   0  0  1  0  0  0  0  0  0  0  0  0
   22.8568  -13.1675    3.3845 C   0  0  0  0  0  0  0  0  0  0  0  0
   23.0307  -13.2821    2.1728 O   0  0  0  0  0  0  0  0  0  0  0  0
   23.3070  -12.0187    3.9998 N   0  0  0  0  0  0  0  0  0  0  0  0
   23.7530  -15.0980    4.6704 C   0  0  0  0  0  0  0  0  0  0  0  0
   21.4191  -15.3152    3.8036 C   0  0  0  0  0  0  0  0  0  0  0  0
   20.5171  -16.1387    4.6926 C   0  0  0  0  0  0  0  0  0  0  0  0
   21.5795  -16.8169    3.8686 C   0  0  0  0  0  0  0  0  0  0  0  0
   21.6085  -14.5128    6.2875 H   0  0  0  0  0  0  0  0  0  0  0  0
   23.6164  -11.3186    3.3363 H   0  0  0  0  0  0  0  0  0  0  0  0
  2  1  1  6  0  0  0
  2  3  1  0  0  0  0
  2  9  1  0  0  0  0
  3  4  2  0  0  0  0
  3  5  1  0  0  0  0
  5  6  1  0  0  0  0
  5 14  1  0  0  0  0
  6  7  1  0  0  0  0
  6 11  1  0  0  0  0
  6 10  1  1  0  0  0
  7  8  2  0  0  0  0
  7  9  1  0  0  0  0
  9 15  1  0  0  0  0
 11 12  1  0  0  0  0
 11 13  1  0  0  0  0
 12 13  1  0  0  0  0
M  END
>  <CHROM.0>
-50.19067884,77.23872728,-51.78646767,-49.50439307,-55.18382979,-58.14810960
-62.13241168,-51.97005363,-165.87529045,160.60538332

>  <CHROM.1>
-31.64710927,22.28760573,-13.63234538,4.65258716,-1.16100176,-1.18044707
-2.43483179

>  <Name>
P129686110

>  <RI>
0

>  <Rbt.Current_Directory>
/home/fstefaniak/projects/zuza/docking/adenine/1Y26

>  <Rbt.Executable>
rbdock ($Id: //depot/dev/client3/rdock/2013.1/src/exe/rbdock.cxx#4 $)

>  <Rbt.Library>
libRbt.so (2013.1, Build901 2013/11/27)

>  <Rbt.Parameter_File>
/home/fstefaniak/progs/rDock//data/scripts/dock_solv.prm

>  <Rbt.Receptor>
1y26.prm

>  <SCORE>
-32.0467

>  <SCORE.INTER>
-15.2908

>  <SCORE.INTER.CONST>
1

>  <SCORE.INTER.POLAR>
-1.77393

>  <SCORE.INTER.ROT>
1

>  <SCORE.INTER.SOLV>
8.80466

>  <SCORE.INTER.VDW>
-11.4823

>  <SCORE.INTER.norm>
-1.17622

>  <SCORE.INTRA>
2.72761

>  <SCORE.INTRA.DIHEDRAL>
-0.504533

>  <SCORE.INTRA.DIHEDRAL.0>
3.14242

>  <SCORE.INTRA.POLAR>
0

>  <SCORE.INTRA.POLAR.0>
0

>  <SCORE.INTRA.REPUL>
0

>  <SCORE.INTRA.REPUL.0>
0

>  <SCORE.INTRA.SOLV>
-0.243281

>  <SCORE.INTRA.SOLV.lig_0>
-13.2699

>  <SCORE.INTRA.VDW>
3.10152

>  <SCORE.INTRA.VDW.0>
-0.283232

>  <SCORE.INTRA.norm>
0.209816

>  <SCORE.RESTR>
1.22194

>  <SCORE.RESTR.CAVITY>
1.22194

>  <SCORE.RESTR.norm>
0.0939957

>  <SCORE.SYSTEM>
-20.7055

>  <SCORE.SYSTEM.CONST>
0

>  <SCORE.SYSTEM.DIHEDRAL>
7.55762

>  <SCORE.SYSTEM.POLAR>
-3.57573

>  <SCORE.SYSTEM.SOLV>
0.668333

>  <SCORE.SYSTEM.VDW>
-4.62652

>  <SCORE.SYSTEM.norm>
-1.59273

>  <SCORE.heavy>
13

>  <SCORE.norm>
-2.46513

$$$$
P129686112
 OpenBabel12072022103D
libRbt.so/2013.1/901 2013/11/27
 15 16  0  0  0  0  0  0  0  0999 V2000
   24.7613  -17.2322    4.6342 C   0  0  0  0  0  0  0  0  0  0  0  0
   24.0325  -16.3739    3.6055 C   0  0  1  0  0  0  0  0  0  0  0  0
   22.5338  -16.3486    3.9410 C   0  0  0  0  0  0  0  0  0  0  0  0
   21.7670  -17.2683    3.6675 O   0  0  0  0  0  0  0  0  0  0  0  0
   22.1503  -15.3712    4.8276 N   0  0  0  0  0  0  0  0  0  0  0  0
   22.7141  -14.0173    4.7607 C   0  0  2  0  0  0  0  0  0  0  0  0
   24.2394  -14.0558    4.4240 C   0  0  0  0  0  0  0  0  0  0  0  0
   25.0335  -13.1607    4.7054 O   0  0  0  0  0  0  0  0  0  0  0  0
   24.6260  -15.0456    3.5455 N   0  0  0  0  0  0  0  0  0  0  0  0
   22.5434  -13.3673    6.1433 C   0  0  0  0  0  0  0  0  0  0  0  0
   21.8882  -13.2348    3.7385 C   0  0  0  0  0  0  0  0  0  0  0  0
   21.7624  -11.7285    3.8081 C   0  0  0  0  0  0  0  0  0  0  0  0
   22.4887  -12.3628    2.6559 C   0  0  0  0  0  0  0  0  0  0  0  0
   21.1670  -15.4393    5.0580 H   0  0  0  0  0  0  0  0  0  0  0  0
   25.6059  -14.9881    3.2968 H   0  0  0  0  0  0  0  0  0  0  0  0
  2  1  1  1  0  0  0
  2  3  1  0  0  0  0
  2  9  1  0  0  0  0
  3  4  2  0  0  0  0
  3  5  1  0  0  0  0
  5  6  1  0  0  0  0
  5 14  1  0  0  0  0
  6  7  1  0  0  0  0
  6 10  1  1  0  0  0
  6 11  1  0  0  0  0
  7  8  2  0  0  0  0
  7  9  1  0  0  0  0
  9 15  1  0  0  0  0
 11 12  1  0  0  0  0
 11 13  1  0  0  0  0
 12 13  1  0  0  0  0
M  END
>  <CHROM.0>
-48.57186482,-173.98578234,-64.14579636,-52.52706550,-57.13675543,-57.82518254
-170.62853902,-48.82533356,-167.99661303,159.92642953

>  <CHROM.1>
153.66084167,23.13371453,-14.60062938,4.20165328,-1.34907040,-0.13826307
0.02721981

>  <Name>
P129686112

>  <RI>
0

>  <Rbt.Current_Directory>
/home/fstefaniak/projects/zuza/docking/adenine/1Y26

>  <Rbt.Executable>
rbdock ($Id: //depot/dev/client3/rdock/2013.1/src/exe/rbdock.cxx#4 $)

>  <Rbt.Library>
libRbt.so (2013.1, Build901 2013/11/27)

>  <Rbt.Parameter_File>
/home/fstefaniak/progs/rDock//data/scripts/dock_solv.prm

>  <Rbt.Receptor>
1y26.prm

>  <SCORE>
-32.3213

>  <SCORE.INTER>
-12.3471

>  <SCORE.INTER.CONST>
1

>  <SCORE.INTER.POLAR>
-1.12841

>  <SCORE.INTER.ROT>
1

>  <SCORE.INTER.SOLV>
9.62757

>  <SCORE.INTER.VDW>
-11.9459

>  <SCORE.INTER.norm>
-0.949779

>  <SCORE.INTRA>
1.13679

>  <SCORE.INTRA.DIHEDRAL>
-0.494407

>  <SCORE.INTRA.DIHEDRAL.0>
3.20552

>  <SCORE.INTRA.POLAR>
0

>  <SCORE.INTRA.POLAR.0>
0

>  <SCORE.INTRA.REPUL>
0

>  <SCORE.INTRA.REPUL.0>
0

>  <SCORE.INTRA.SOLV>
-0.17275

>  <SCORE.INTRA.SOLV.lig_0>
-13.0716

>  <SCORE.INTRA.VDW>
1.47037

>  <SCORE.INTRA.VDW.0>
-0.348237

>  <SCORE.INTRA.norm>
0.0874454

>  <SCORE.RESTR>
0.322016

>  <SCORE.RESTR.CAVITY>
0.322016

>  <SCORE.RESTR.norm>
0.0247704

>  <SCORE.SYSTEM>
-21.433

>  <SCORE.SYSTEM.CONST>
0

>  <SCORE.SYSTEM.DIHEDRAL>
6.55498

>  <SCORE.SYSTEM.POLAR>
-3.47913

>  <SCORE.SYSTEM.SOLV>
0.552828

>  <SCORE.SYSTEM.VDW>
-5.06084

>  <SCORE.SYSTEM.norm>
-1.64869

>  <SCORE.heavy>
13

>  <SCORE.norm>
-2.48626

$$$$
P129686112
 OpenBabel12072022103D
libRbt.so/2013.1/901 2013/11/27
 15 16  0  0  0  0  0  0  0  0999 V2000
   20.5151  -17.8726    4.8972 C   0  0  0  0  0  0  0  0  0  0  0  0
   21.2520  -17.1819    3.7543 C   0  0  1  0  0  0  0  0  0  0  0  0
   20.5286  -15.8723    3.4066 C   0  0  0  0  0  0  0  0  0  0  0  0
   19.5051  -15.8280    2.7290 O   0  0  0  0  0  0  0  0  0  0  0  0
   20.9187  -14.7773    4.1394 N   0  0  0  0  0  0  0  0  0  0  0  0
   22.3298  -14.5456    4.4719 C   0  0  2  0  0  0  0  0  0  0  0  0
   23.0538  -15.8834    4.8287 C   0  0  0  0  0  0  0  0  0  0  0  0
   24.0657  -15.9597    5.5225 O   0  0  0  0  0  0  0  0  0  0  0  0
   22.6520  -16.9848    4.1030 N   0  0  0  0  0  0  0  0  0  0  0  0
   22.3788  -13.6290    5.7050 C   0  0  0  0  0  0  0  0  0  0  0  0
   22.9588  -13.8150    3.2845 C   0  0  0  0  0  0  0  0  0  0  0  0
   23.1333  -12.3120    3.2815 C   0  0  0  0  0  0  0  0  0  0  0  0
   24.3434  -13.2022    3.3061 C   0  0  0  0  0  0  0  0  0  0  0  0
   20.3689  -13.9586    3.9113 H   0  0  0  0  0  0  0  0  0  0  0  0
   23.1970  -17.8122    4.3122 H   0  0  0  0  0  0  0  0  0  0  0  0
  2  1  1  1  0  0  0
  2  3  1  0  0  0  0
  2  9  1  0  0  0  0
  3  4  2  0  0  0  0
  3  5  1  0  0  0  0
  5  6  1  0  0  0  0
  5 14  1  0  0  0  0
  6  7  1  0  0  0  0
  6 10  1  1  0  0  0
  6 11  1  0  0  0  0
  7  8  2  0  0  0  0
  7  9  1  0  0  0  0
  9 15  1  0  0  0  0
 11 12  1  0  0  0  0
 11 13  1  0  0  0  0
 12 13  1  0  0  0  0
M  END
>  <CHROM.0>
-51.09573376,-61.07636255,-56.06052286,-50.58940238,-53.98009517,-58.10757261
-60.89131099,-50.48459234,-165.82293304,160.69566910

>  <CHROM.1>
97.96071517,22.11254293,-15.23778945,4.12587686,-2.31988867,-0.44702511,-0.38765405

>  <Name>
P129686112

>  <RI>
0

>  <Rbt.Current_Directory>
/home/fstefaniak/projects/zuza/docking/adenine/1Y26

>  <Rbt.Executable>
rbdock ($Id: //depot/dev/client3/rdock/2013.1/src/exe/rbdock.cxx#4 $)

>  <Rbt.Library>
libRbt.so (2013.1, Build901 2013/11/27)

>  <Rbt.Parameter_File>
/home/fstefaniak/progs/rDock//data/scripts/dock_solv.prm

>  <Rbt.Receptor>
1y26.prm

>  <SCORE>
-22.9787

>  <SCORE.INTER>
-3.89915

>  <SCORE.INTER.CONST>
1

>  <SCORE.INTER.POLAR>
-0.801467

>  <SCORE.INTER.ROT>
1

>  <SCORE.INTER.SOLV>
12.6222

>  <SCORE.INTER.VDW>
-8.40193

>  <SCORE.INTER.norm>
-0.299934

>  <SCORE.INTRA>
2.64407

>  <SCORE.INTRA.DIHEDRAL>
-0.821422

>  <SCORE.INTRA.DIHEDRAL.0>
3.20552

>  <SCORE.INTRA.POLAR>
0

>  <SCORE.INTRA.POLAR.0>
0

>  <SCORE.INTRA.REPUL>
0

>  <SCORE.INTRA.REPUL.0>
0

>  <SCORE.INTRA.SOLV>
-0.440587

>  <SCORE.INTRA.SOLV.lig_0>
-13.0716

>  <SCORE.INTRA.VDW>
3.27508

>  <SCORE.INTRA.VDW.0>
-0.348237

>  <SCORE.INTRA.norm>
0.20339

>  <SCORE.RESTR>
0.508462

>  <SCORE.RESTR.CAVITY>
0.508462

>  <SCORE.RESTR.norm>
0.0391124

>  <SCORE.SYSTEM>
-22.2321

>  <SCORE.SYSTEM.CONST>
0

>  <SCORE.SYSTEM.DIHEDRAL>
5.97247

>  <SCORE.SYSTEM.POLAR>
-3.51456

>  <SCORE.SYSTEM.SOLV>
0.666436

>  <SCORE.SYSTEM.VDW>
-5.31917

>  <SCORE.SYSTEM.norm>
-1.71016

>  <SCORE.heavy>
13

>  <SCORE.norm>
-1.76759

$$$$
P129686112
 OpenBabel12072022103D
libRbt.so/2013.1/901 2013/11/27
 15 16  0  0  0  0  0  0  0  0999 V2000
   20.2684  -16.7579    5.2128 C   0  0  0  0  0  0  0  0  0  0  0  0
   20.9759  -15.7270    4.3395 C   0  0  1  0  0  0  0  0  0  0  0  0
   21.7999  -14.7890    5.2342 C   0  0  0  0  0  0  0  0  0  0  0  0
   21.3074  -13.8618    5.8716 O   0  0  0  0  0  0  0  0  0  0  0  0
   23.0729  -15.2218    5.5182 N   0  0  0  0  0  0  0  0  0  0  0  0
   23.9056  -15.8652    4.4944 C   0  0  2  0  0  0  0  0  0  0  0  0
   23.0581  -16.8204    3.5941 C   0  0  0  0  0  0  0  0  0  0  0  0
   23.5202  -17.7688    2.9634 O   0  0  0  0  0  0  0  0  0  0  0  0
   21.7760  -16.3925    3.3212 N   0  0  0  0  0  0  0  0  0  0  0  0
   24.9727  -16.7050    5.2149 C   0  0  0  0  0  0  0  0  0  0  0  0
   24.5978  -14.7496    3.7096 C   0  0  0  0  0  0  0  0  0  0  0  0
   23.8609  -13.4919    3.3040 C   0  0  0  0  0  0  0  0  0  0  0  0
   24.9798  -13.4100    4.3033 C   0  0  0  0  0  0  0  0  0  0  0  0
   23.5471  -14.5970    6.1579 H   0  0  0  0  0  0  0  0  0  0  0  0
   21.2887  -17.0015    2.6755 H   0  0  0  0  0  0  0  0  0  0  0  0
  2  1  1  1  0  0  0
  2  3  1  0  0  0  0
  2  9  1  0  0  0  0
  3  4  2  0  0  0  0
  3  5  1  0  0  0  0
  5  6  1  0  0  0  0
  5 14  1  0  0  0  0
  6  7  1  0  0  0  0
  6 10  1  1  0  0  0
  6 11  1  0  0  0  0
  7  8  2  0  0  0  0
  7  9  1  0  0  0  0
  9 15  1  0  0  0  0
 11 12  1  0  0  0  0
 11 13  1  0  0  0  0
 12 13  1  0  0  0  0
M  END
>  <CHROM.0>
-47.39550603,-60.04720372,-29.79847655,-51.24995925,-53.39244913,-54.36241161
25.10631978,-51.04201307,-166.62853203,160.55203241

>  <CHROM.1>
-41.70331182,22.91214280,-15.52048288,4.40321325,-2.84646874,0.29827212,0.35195776

>  <Name>
P129686112

>  <RI>
0

>  <Rbt.Current_Directory>
/home/fstefaniak/projects/zuza/docking/adenine/1Y26

>  <Rbt.Executable>
rbdock ($Id: //depot/dev/client3/rdock/2013.1/src/exe/rbdock.cxx#4 $)

>  <Rbt.Library>
libRbt.so (2013.1, Build901 2013/11/27)

>  <Rbt.Parameter_File>
/home/fstefaniak/progs/rDock//data/scripts/dock_solv.prm

>  <Rbt.Receptor>
1y26.prm

>  <SCORE>
-20.3969

>  <SCORE.INTER>
-4.34727

>  <SCORE.INTER.CONST>
1

>  <SCORE.INTER.POLAR>
-0.518814

>  <SCORE.INTER.ROT>
1

>  <SCORE.INTER.SOLV>
12.6946

>  <SCORE.INTER.VDW>
-9.667

>  <SCORE.INTER.norm>
-0.334405

>  <SCORE.INTRA>
-0.0110839

>  <SCORE.INTRA.DIHEDRAL>
-0.238546

>  <SCORE.INTRA.DIHEDRAL.0>
3.20552

>  <SCORE.INTRA.POLAR>
0

>  <SCORE.INTRA.POLAR.0>
0

>  <SCORE.INTRA.REPUL>
0

>  <SCORE.INTRA.REPUL.0>
0

>  <SCORE.INTRA.SOLV>
0.154595

>  <SCORE.INTRA.SOLV.lig_0>
-13.0716

>  <SCORE.INTRA.VDW>
0.0308918

>  <SCORE.INTRA.VDW.0>
-0.348237

>  <SCORE.INTRA.norm>
-0.00085261

>  <SCORE.RESTR>
0.214203

>  <SCORE.RESTR.CAVITY>
0.214203

>  <SCORE.RESTR.norm>
0.0164772

>  <SCORE.SYSTEM>
-16.2527

>  <SCORE.SYSTEM.CONST>
0

>  <SCORE.SYSTEM.DIHEDRAL>
14.1176

>  <SCORE.SYSTEM.POLAR>
-3.66394

>  <SCORE.SYSTEM.SOLV>
0.650361

>  <SCORE.SYSTEM.VDW>
-3.54468

>  <SCORE.SYSTEM.norm>
-1.25021

>  <SCORE.heavy>
13

>  <SCORE.norm>
-1.56899

$$$$
P129686358
 OpenBabel12072022103D
libRbt.so/2013.1/901 2013/11/27
 14 14  0  0  0  0  0  0  0  0999 V2000
   19.6397  -17.6073    3.9554 C   0  0  0  0  0  0  0  0  0  0  0  0
   20.4709  -16.6142    4.7535 C   0  0  0  0  0  0  0  0  0  0  0  0
   21.1968  -15.6314    3.8324 C   0  0  0  0  0  0  0  0  0  0  0  0
   22.0536  -14.6017    4.5903 C   0  0  2  0  0  0  0  0  0  0  0  0
   22.4259  -13.4471    3.6356 C   0  0  0  0  0  0  0  0  0  0  0  0
   21.6175  -12.5476    3.3881 O   0  0  0  0  0  0  0  0  0  0  0  0
   23.5619  -13.5002    2.8808 N   0  0  0  0  0  0  0  0  0  0  0  0
   24.7858  -14.2166    3.1778 C   0  0  0  0  0  0  0  0  0  0  0  0
   24.6019  -15.6969    3.4330 C   0  0  0  0  0  0  0  0  0  0  0  0
   24.1907  -15.9221    4.8593 C   0  0  0  0  0  0  0  0  0  0  0  0
   24.7802  -16.7136    5.5914 O   0  0  0  0  0  0  0  0  0  0  0  0
   23.1487  -15.1995    5.3513 N   0  0  0  0  0  0  0  0  0  0  0  0
   23.6507  -12.6740    2.2990 H   0  0  0  0  0  0  0  0  0  0  0  0
   22.9378  -15.4579    6.3087 H   0  0  0  0  0  0  0  0  0  0  0  0
  1  2  1  0  0  0  0
  2  3  1  0  0  0  0
  4  5  1  0  0  0  0
  4 12  1  0  0  0  0
  4  3  1  6  0  0  0
  5  6  2  0  0  0  0
  5  7  1  0  0  0  0
  7  8  1  0  0  0  0
  7 13  1  0  0  0  0
  8  9  1  0  0  0  0
  9 10  1  0  0  0  0
 10 11  2  0  0  0  0
 10 12  1  0  0  0  0
 12 14  1  0  0  0  0
M  END
>  <CHROM.0>
-46.60434087,-73.52289171,-46.82680261,-52.21582090,-53.50946325,-54.52239661
-52.49554546,-169.64930942,-167.06876943,160.09701658

>  <CHROM.1>
179.96531683,-164.80018119,22.69581602,-15.14574208,4.12471886,-2.56191209
-0.10751658,-0.42336325

>  <Name>
P129686358

>  <RI>
0

>  <Rbt.Current_Directory>
/home/fstefaniak/projects/zuza/docking/adenine/1Y26

>  <Rbt.Executable>
rbdock ($Id: //depot/dev/client3/rdock/2013.1/src/exe/rbdock.cxx#4 $)

>  <Rbt.Library>
libRbt.so (2013.1, Build901 2013/11/27)

>  <Rbt.Parameter_File>
/home/fstefaniak/progs/rDock//data/scripts/dock_solv.prm

>  <Rbt.Receptor>
1y26.prm

>  <SCORE>
-37.3872

>  <SCORE.INTER>
-15.9059

>  <SCORE.INTER.CONST>
1

>  <SCORE.INTER.POLAR>
-2.28725

>  <SCORE.INTER.ROT>
2

>  <SCORE.INTER.SOLV>
11.6956

>  <SCORE.INTER.VDW>
-11.8116

>  <SCORE.INTER.norm>
-1.32549

>  <SCORE.INTRA>
0.231656

>  <SCORE.INTRA.DIHEDRAL>
0.615112

>  <SCORE.INTRA.DIHEDRAL.0>
0.447682

>  <SCORE.INTRA.POLAR>
0

>  <SCORE.INTRA.POLAR.0>
0

>  <SCORE.INTRA.REPUL>
0

>  <SCORE.INTRA.REPUL.0>
0

>  <SCORE.INTRA.SOLV>
-0.0518762

>  <SCORE.INTRA.SOLV.lig_0>
-15.0362

>  <SCORE.INTRA.VDW>
-0.0499612

>  <SCORE.INTRA.VDW.0>
-0.689545

>  <SCORE.INTRA.norm>
0.0193047

>  <SCORE.RESTR>
0.140268

>  <SCORE.RESTR.CAVITY>
0.140268

>  <SCORE.RESTR.norm>
0.011689

>  <SCORE.SYSTEM>
-21.8532

>  <SCORE.SYSTEM.CONST>
0

>  <SCORE.SYSTEM.DIHEDRAL>
8.28091

>  <SCORE.SYSTEM.POLAR>
-3.62293

>  <SCORE.SYSTEM.SOLV>
0.481904

>  <SCORE.SYSTEM.VDW>
-5.41332

>  <SCORE.SYSTEM.norm>
-1.8211

>  <SCORE.heavy>
12

>  <SCORE.norm>
-3.1156

$$$$
P129686358
 OpenBabel12072022103D
libRbt.so/2013.1/901 2013/11/27
 14 14  0  0  0  0  0  0  0  0999 V2000
   19.6828  -17.6537    3.9208 C   0  0  0  0  0  0  0  0  0  0  0  0
   20.5374  -16.6801    4.7181 C   0  0  0  0  0  0  0  0  0  0  0  0
   21.1813  -15.6324    3.8076 C   0  0  0  0  0  0  0  0  0  0  0  0
   22.0193  -14.5911    4.5705 C   0  0  2  0  0  0  0  0  0  0  0  0
   22.3982  -13.4412    3.6128 C   0  0  0  0  0  0  0  0  0  0  0  0
   21.5876  -12.5492    3.3461 O   0  0  0  0  0  0  0  0  0  0  0  0
   23.5460  -13.4921    2.8756 N   0  0  0  0  0  0  0  0  0  0  0  0
   24.7700  -14.1976    3.1966 C   0  0  0  0  0  0  0  0  0  0  0  0
   24.5924  -15.6772    3.4603 C   0  0  0  0  0  0  0  0  0  0  0  0
   24.1611  -15.8945    4.8819 C   0  0  0  0  0  0  0  0  0  0  0  0
   24.7448  -16.6764    5.6289 O   0  0  0  0  0  0  0  0  0  0  0  0
   23.1068  -15.1755    5.3525 N   0  0  0  0  0  0  0  0  0  0  0  0
   23.6380  -12.6697    2.2890 H   0  0  0  0  0  0  0  0  0  0  0  0
   22.8832  -15.4282    6.3085 H   0  0  0  0  0  0  0  0  0  0  0  0
  1  2  1  0  0  0  0
  2  3  1  0  0  0  0
  4  5  1  0  0  0  0
  4 12  1  0  0  0  0
  4  3  1  6  0  0  0
  5  6  2  0  0  0  0
  5  7  1  0  0  0  0
  7  8  1  0  0  0  0
  7 13  1  0  0  0  0
  8  9  1  0  0  0  0
  9 10  1  0  0  0  0
 10 11  2  0  0  0  0
 10 12  1  0  0  0  0
 12 14  1  0  0  0  0
M  END
>  <CHROM.0>
-42.80502606,-71.51939931,-51.82733847,62.23416076,-175.34199303,-57.03631292
-53.41438410,-49.96946306,-167.41216060,162.03199035

>  <CHROM.1>
178.00559660,-169.35799061,22.68378874,-15.14279349,4.11814058,2.51821705
0.12841155,2.71532364

>  <Name>
P129686358

>  <RI>
0

>  <Rbt.Current_Directory>
/home/fstefaniak/projects/zuza/docking/adenine/1Y26

>  <Rbt.Executable>
rbdock ($Id: //depot/dev/client3/rdock/2013.1/src/exe/rbdock.cxx#4 $)

>  <Rbt.Library>
libRbt.so (2013.1, Build901 2013/11/27)

>  <Rbt.Parameter_File>
/home/fstefaniak/progs/rDock//data/scripts/dock_solv.prm

>  <Rbt.Receptor>
1y26.prm

>  <SCORE>
-34.4555

>  <SCORE.INTER>
-15.7802

>  <SCORE.INTER.CONST>
1

>  <SCORE.INTER.POLAR>
-2.27965

>  <SCORE.INTER.ROT>
2

>  <SCORE.INTER.SOLV>
11.6843

>  <SCORE.INTER.VDW>
-11.7494

>  <SCORE.INTER.norm>
-1.31502

>  <SCORE.INTRA>
0.0964912

>  <SCORE.INTRA.DIHEDRAL>
0.287644

>  <SCORE.INTRA.DIHEDRAL.0>
0.447682

>  <SCORE.INTRA.POLAR>
0

>  <SCORE.INTRA.POLAR.0>
0

>  <SCORE.INTRA.REPUL>
0

>  <SCORE.INTRA.REPUL.0>
0

>  <SCORE.INTRA.SOLV>
-0.0317218

>  <SCORE.INTRA.SOLV.lig_0>
-15.0362

>  <SCORE.INTRA.VDW>
-0.0314698

>  <SCORE.INTRA.VDW.0>
-0.689545

>  <SCORE.INTRA.norm>
0.00804093

>  <SCORE.RESTR>
0.147713

>  <SCORE.RESTR.CAVITY>
0.147713

>  <SCORE.RESTR.norm>
0.0123095

>  <SCORE.SYSTEM>
-18.9195

>  <SCORE.SYSTEM.CONST>
0

>  <SCORE.SYSTEM.DIHEDRAL>
7.25477

>  <SCORE.SYSTEM.POLAR>
-3.04467

>  <SCORE.SYSTEM.SOLV>
0.457024

>  <SCORE.SYSTEM.VDW>
-5.03469

>  <SCORE.SYSTEM.norm>
-1.57662

>  <SCORE.heavy>
12

>  <SCORE.norm>
-2.87129

$$$$
P129686358
 OpenBabel12072022103D
libRbt.so/2013.1/901 2013/11/27
 14 14  0  0  0  0  0  0  0  0999 V2000
   19.3345  -18.7342    6.5339 C   0  0  0  0  0  0  0  0  0  0  0  0
   19.7063  -18.2231    5.1502 C   0  0  0  0  0  0  0  0  0  0  0  0
   20.2277  -16.7858    5.2110 C   0  0  0  0  0  0  0  0  0  0  0  0
   20.8206  -16.2935    3.8788 C   0  0  2  0  0  0  0  0  0  0  0  0
   21.9723  -17.2307    3.4564 C   0  0  0  0  0  0  0  0  0  0  0  0
   21.7371  -18.3155    2.9162 O   0  0  0  0  0  0  0  0  0  0  0  0
   23.2550  -16.9897    3.8562 N   0  0  0  0  0  0  0  0  0  0  0  0
   23.8493  -15.7113    4.1908 C   0  0  0  0  0  0  0  0  0  0  0  0
   23.1169  -14.9398    5.2672 C   0  0  0  0  0  0  0  0  0  0  0  0
   21.9691  -14.1840    4.6626 C   0  0  0  0  0  0  0  0  0  0  0  0
   21.8080  -12.9806    4.8517 O   0  0  0  0  0  0  0  0  0  0  0  0
   21.1041  -14.8600    3.8595 N   0  0  0  0  0  0  0  0  0  0  0  0
   23.8848  -17.7043    3.5077 H   0  0  0  0  0  0  0  0  0  0  0  0
   20.3525  -14.2609    3.5371 H   0  0  0  0  0  0  0  0  0  0  0  0
  1  2  1  0  0  0  0
  2  3  1  0  0  0  0
  4  5  1  0  0  0  0
  4 12  1  0  0  0  0
  4  3  1  1  0  0  0
  5  6  2  0  0  0  0
  5  7  1  0  0  0  0
  7  8  1  0  0  0  0
  7 13  1  0  0  0  0
  8  9  1  0  0  0  0
  9 10  1  0  0  0  0
 10 11  2  0  0  0  0
 10 12  1  0  0  0  0
 12 14  1  0  0  0  0
M  END
>  <CHROM.0>
-47.21447639,-58.81639086,-57.63917538,-52.92278781,-173.81816359,-58.21182215
-61.32117518,-176.42635562,-168.20744814,160.63651337

>  <CHROM.1>
171.08920488,-58.07651553,21.56777587,-16.28072795,4.48680669,2.22294288
-0.56337498,-2.90304405

>  <Name>
P129686358

>  <RI>
0

>  <Rbt.Current_Directory>
/home/fstefaniak/projects/zuza/docking/adenine/1Y26

>  <Rbt.Executable>
rbdock ($Id: //depot/dev/client3/rdock/2013.1/src/exe/rbdock.cxx#4 $)

>  <Rbt.Library>
libRbt.so (2013.1, Build901 2013/11/27)

>  <Rbt.Parameter_File>
/home/fstefaniak/progs/rDock//data/scripts/dock_solv.prm

>  <Rbt.Receptor>
1y26.prm

>  <SCORE>
-33.8468

>  <SCORE.INTER>
-11.8455

>  <SCORE.INTER.CONST>
1

>  <SCORE.INTER.POLAR>
-0.547487

>  <SCORE.INTER.ROT>
2

>  <SCORE.INTER.SOLV>
11.8944

>  <SCORE.INTER.VDW>
-14.9702

>  <SCORE.INTER.norm>
-0.987128

>  <SCORE.INTRA>
0.600973

>  <SCORE.INTRA.DIHEDRAL>
0.243105

>  <SCORE.INTRA.DIHEDRAL.0>
0.447682

>  <SCORE.INTRA.POLAR>
0

>  <SCORE.INTRA.POLAR.0>
0

>  <SCORE.INTRA.REPUL>
0

>  <SCORE.INTRA.REPUL.0>
0

>  <SCORE.INTRA.SOLV>
0.0921375

>  <SCORE.INTRA.SOLV.lig_0>
-15.0362

>  <SCORE.INTRA.VDW>
0.433352

>  <SCORE.INTRA.VDW.0>
-0.689545

>  <SCORE.INTRA.norm>
0.0500811

>  <SCORE.RESTR>
0

>  <SCORE.RESTR.CAVITY>
0

>  <SCORE.RESTR.norm>
0

>  <SCORE.SYSTEM>
-22.6022

>  <SCORE.SYSTEM.CONST>
0

>  <SCORE.SYSTEM.DIHEDRAL>
5.55439

>  <SCORE.SYSTEM.POLAR>
-3.45061

>  <SCORE.SYSTEM.SOLV>
0.287588

>  <SCORE.SYSTEM.VDW>
-5.51342

>  <SCORE.SYSTEM.norm>
-1.88352

>  <SCORE.heavy>
12

>  <SCORE.norm>
-2.82057

$$$$
P129694981
 OpenBabel12072022103D
libRbt.so/2013.1/901 2013/11/27
 17 18  0  0  0  0  0  0  0  0999 V2000
   22.8343  -14.2842    5.4463 C   0  0  0  0  0  0  0  0  0  0  0  0
   21.6583  -14.9605    4.7592 C   0  0  0  0  0  0  0  0  0  0  0  0
   22.2424  -16.1193    4.0982 N   0  0  0  0  0  0  0  0  0  0  0  0
   23.6892  -15.9875    4.0168 C   0  0  0  0  0  0  0  0  0  0  0  0
   23.9912  -14.5666    4.4959 C   0  0  2  0  0  0  0  0  0  0  0  0
   25.2280  -14.4573    5.1781 O   0  0  0  0  0  0  0  0  0  0  0  0
   21.5977  -17.1516    3.4483 C   0  0  0  0  0  0  0  0  0  0  0  0
   22.2522  -17.9819    2.8086 O   0  0  0  0  0  0  0  0  0  0  0  0
   20.0521  -17.2523    3.5186 C   0  0  2  0  0  0  0  0  0  0  0  0
   19.5303  -17.8290    4.8252 C   0  0  0  0  0  0  0  0  0  0  0  0
   18.2134  -18.4767    4.4397 C   0  0  0  0  0  0  0  0  0  0  0  0
   18.2539  -18.7458    3.0332 O   0  0  0  0  0  0  0  0  0  0  0  0
   19.5372  -18.3214    2.5398 C   0  0  0  0  0  0  0  0  0  0  0  0
   19.4217  -15.9342    3.2257 N   0  0  0  0  0  0  0  0  0  0  0  0
   25.9347  -14.6590    4.5403 H   0  0  0  0  0  0  0  0  0  0  0  0
   20.1620  -15.2863    2.9450 H   0  0  0  0  0  0  0  0  0  0  0  0
   19.0689  -15.5532    4.1063 H   0  0  0  0  0  0  0  0  0  0  0  0
  1  2  1  0  0  0  0
  1  5  1  0  0  0  0
  2  3  1  0  0  0  0
  3  4  1  0  0  0  0
  3  7  1  0  0  0  0
  4  5  1  0  0  0  0
  5  6  1  1  0  0  0
  6 15  1  0  0  0  0
  7  8  2  0  0  0  0
  9 10  1  0  0  0  0
  9 13  1  0  0  0  0
  9 14  1  0  0  0  0
  9  7  1  6  0  0  0
 10 11  1  0  0  0  0
 11 12  1  0  0  0  0
 12 13  1  0  0  0  0
 14 16  1  0  0  0  0
 14 17  1  0  0  0  0
M  END
>  <CHROM.0>
-49.60370677,-60.82323956,-56.26292723,-51.64217856,-55.62534282,-57.73904216
-60.43166588,-175.80404382,-167.80005753,160.27774298

>  <CHROM.1>
179.08217349,6.03129974,-78.34728831,21.34169219,-16.56698433,3.98460218
0.59922075,0.17312980,0.61861276

>  <Name>
P129694981

>  <RI>
0

>  <Rbt.Current_Directory>
/home/fstefaniak/projects/zuza/docking/adenine/1Y26

>  <Rbt.Executable>
rbdock ($Id: //depot/dev/client3/rdock/2013.1/src/exe/rbdock.cxx#4 $)

>  <Rbt.Library>
libRbt.so (2013.1, Build901 2013/11/27)

>  <Rbt.Parameter_File>
/home/fstefaniak/progs/rDock//data/scripts/dock_solv.prm

>  <Rbt.Receptor>
1y26.prm

>  <SCORE>
-53.4893

>  <SCORE.INTER>
-33.4517

>  <SCORE.INTER.CONST>
1

>  <SCORE.INTER.POLAR>
-3.87664

>  <SCORE.INTER.ROT>
2

>  <SCORE.INTER.SOLV>
14.6968

>  <SCORE.INTER.VDW>
-19.2113

>  <SCORE.INTER.norm>
-2.38941

>  <SCORE.INTRA>
2.64967

>  <SCORE.INTRA.DIHEDRAL>
2.34342

>  <SCORE.INTRA.DIHEDRAL.0>
0.577854

>  <SCORE.INTRA.POLAR>
0

>  <SCORE.INTRA.POLAR.0>
0

>  <SCORE.INTRA.REPUL>
0

>  <SCORE.INTRA.REPUL.0>
0

>  <SCORE.INTRA.SOLV>
0.125132

>  <SCORE.INTRA.SOLV.lig_0>
-15.9758

>  <SCORE.INTRA.VDW>
1.4154

>  <SCORE.INTRA.VDW.0>
-0.09275

>  <SCORE.INTRA.norm>
0.189262

>  <SCORE.RESTR>
0

>  <SCORE.RESTR.CAVITY>
0

>  <SCORE.RESTR.norm>
0

>  <SCORE.SYSTEM>
-22.6872

>  <SCORE.SYSTEM.CONST>
0

>  <SCORE.SYSTEM.DIHEDRAL>
5.45612

>  <SCORE.SYSTEM.POLAR>
-3.46435

>  <SCORE.SYSTEM.SOLV>
0.456222

>  <SCORE.SYSTEM.VDW>
-5.54776

>  <SCORE.SYSTEM.norm>
-1.62052

>  <SCORE.heavy>
14

>  <SCORE.norm>
-3.82066

$$$$
P129694981
 OpenBabel12072022103D
libRbt.so/2013.1/901 2013/11/27
 17 18  0  0  0  0  0  0  0  0999 V2000
   22.8293  -14.3037    5.4842 C   0  0  0  0  0  0  0  0  0  0  0  0
   21.6503  -14.9670    4.7898 C   0  0  0  0  0  0  0  0  0  0  0  0
   22.2304  -16.1161    4.1088 N   0  0  0  0  0  0  0  0  0  0  0  0
   23.6772  -15.9855    4.0254 C   0  0  0  0  0  0  0  0  0  0  0  0
   23.9831  -14.5730    4.5262 C   0  0  2  0  0  0  0  0  0  0  0  0
   25.2219  -14.4767    5.2066 O   0  0  0  0  0  0  0  0  0  0  0  0
   21.5821  -17.1368    3.4444 C   0  0  0  0  0  0  0  0  0  0  0  0
   22.2333  -17.9580    2.7897 O   0  0  0  0  0  0  0  0  0  0  0  0
   20.0364  -17.2359    3.5174 C   0  0  2  0  0  0  0  0  0  0  0  0
   19.5167  -17.8209    4.8212 C   0  0  0  0  0  0  0  0  0  0  0  0
   18.1981  -18.4641    4.4342 C   0  0  0  0  0  0  0  0  0  0  0  0
   18.2352  -18.7237    3.0258 O   0  0  0  0  0  0  0  0  0  0  0  0
   19.5179  -18.2975    2.5325 C   0  0  0  0  0  0  0  0  0  0  0  0
   19.4072  -15.9150    3.2350 N   0  0  0  0  0  0  0  0  0  0  0  0
   25.9286  -14.6159    4.5522 H   0  0  0  0  0  0  0  0  0  0  0  0
   20.1475  -15.2668    2.9549 H   0  0  0  0  0  0  0  0  0  0  0  0
   19.0589  -15.5385    4.1193 H   0  0  0  0  0  0  0  0  0  0  0  0
  1  2  1  0  0  0  0
  1  5  1  0  0  0  0
  2  3  1  0  0  0  0
  3  4  1  0  0  0  0
  3  7  1  0  0  0  0
  4  5  1  0  0  0  0
  5  6  1  1  0  0  0
  6 15  1  0  0  0  0
  7  8  2  0  0  0  0
  9 10  1  0  0  0  0
  9 13  1  0  0  0  0
  9 14  1  0  0  0  0
  9  7  1  6  0  0  0
 10 11  1  0  0  0  0
 11 12  1  0  0  0  0
 12 13  1  0  0  0  0
 14 16  1  0  0  0  0
 14 17  1  0  0  0  0
M  END
>  <CHROM.0>
-49.95270566,-62.85564454,-51.27112758,-50.10017224,59.67454233,-58.26638741
-57.33288644,-174.18382480,-166.38461735,160.38979857

>  <CHROM.1>
-177.53082544,6.16509143,-77.82759187,21.32867599,-16.56000767,3.99223994
0.59545211,0.17593920,0.63583443

>  <Name>
P129694981

>  <RI>
0

>  <Rbt.Current_Directory>
/home/fstefaniak/projects/zuza/docking/adenine/1Y26

>  <Rbt.Executable>
rbdock ($Id: //depot/dev/client3/rdock/2013.1/src/exe/rbdock.cxx#4 $)

>  <Rbt.Library>
libRbt.so (2013.1, Build901 2013/11/27)

>  <Rbt.Parameter_File>
/home/fstefaniak/progs/rDock//data/scripts/dock_solv.prm

>  <Rbt.Receptor>
1y26.prm

>  <SCORE>
-51.8196

>  <SCORE.INTER>
-33.2864

>  <SCORE.INTER.CONST>
1

>  <SCORE.INTER.POLAR>
-3.88427

>  <SCORE.INTER.ROT>
2

>  <SCORE.INTER.SOLV>
14.7971

>  <SCORE.INTER.VDW>
-19.1091

>  <SCORE.INTER.norm>
-2.3776

>  <SCORE.INTRA>
2.49552

>  <SCORE.INTRA.DIHEDRAL>
2.33601

>  <SCORE.INTRA.DIHEDRAL.0>
0.577854

>  <SCORE.INTRA.POLAR>
0

>  <SCORE.INTRA.POLAR.0>
0

>  <SCORE.INTRA.REPUL>
0

>  <SCORE.INTRA.REPUL.0>
0

>  <SCORE.INTRA.SOLV>
0.122583

>  <SCORE.INTRA.SOLV.lig_0>
-15.9758

>  <SCORE.INTRA.VDW>
1.26623

>  <SCORE.INTRA.VDW.0>
-0.09275

>  <SCORE.INTRA.norm>
0.178252

>  <SCORE.RESTR>
0

>  <SCORE.RESTR.CAVITY>
0

>  <SCORE.RESTR.norm>
0

>  <SCORE.SYSTEM>
-21.0287

>  <SCORE.SYSTEM.CONST>
0

>  <SCORE.SYSTEM.DIHEDRAL>
6.01883

>  <SCORE.SYSTEM.POLAR>
-3.54279

>  <SCORE.SYSTEM.SOLV>
0.265853

>  <SCORE.SYSTEM.VDW>
-4.30473

>  <SCORE.SYSTEM.norm>
-1.50205

>  <SCORE.heavy>
14

>  <SCORE.norm>
-3.7014

$$$$
P129694981
 OpenBabel12072022103D
libRbt.so/2013.1/901 2013/11/27
 17 18  0  0  0  0  0  0  0  0999 V2000
   22.8084  -14.2873    5.4835 C   0  0  0  0  0  0  0  0  0  0  0  0
   21.6319  -14.9585    4.7924 C   0  0  0  0  0  0  0  0  0  0  0  0
   22.2175  -16.1049    4.1115 N   0  0  0  0  0  0  0  0  0  0  0  0
   23.6633  -15.9657    4.0249 C   0  0  0  0  0  0  0  0  0  0  0  0
   23.9618  -14.5507    4.5234 C   0  0  2  0  0  0  0  0  0  0  0  0
   25.2014  -14.4461    5.2010 O   0  0  0  0  0  0  0  0  0  0  0  0
   21.5739  -17.1303    3.4498 C   0  0  0  0  0  0  0  0  0  0  0  0
   22.2287  -17.9483    2.7946 O   0  0  0  0  0  0  0  0  0  0  0  0
   20.0291  -17.2386    3.5262 C   0  0  2  0  0  0  0  0  0  0  0  0
   19.5148  -17.8069    4.8395 C   0  0  0  0  0  0  0  0  0  0  0  0
   18.2001  -18.4649    4.4641 C   0  0  0  0  0  0  0  0  0  0  0  0
   18.2373  -18.7459    3.0599 O   0  0  0  0  0  0  0  0  0  0  0  0
   19.5166  -18.3188    2.5584 C   0  0  0  0  0  0  0  0  0  0  0  0
   19.3906  -15.9264    3.2242 N   0  0  0  0  0  0  0  0  0  0  0  0
   25.9078  -14.5682    4.5428 H   0  0  0  0  0  0  0  0  0  0  0  0
   20.1289  -15.2715    2.9546 H   0  0  0  0  0  0  0  0  0  0  0  0
   19.0213  -15.5490    4.0996 H   0  0  0  0  0  0  0  0  0  0  0  0
  1  2  1  0  0  0  0
  1  5  1  0  0  0  0
  2  3  1  0  0  0  0
  3  4  1  0  0  0  0
  3  7  1  0  0  0  0
  4  5  1  0  0  0  0
  5  6  1  1  0  0  0
  6 15  1  0  0  0  0
  7  8  2  0  0  0  0
  9 10  1  0  0  0  0
  9 13  1  0  0  0  0
  9 14  1  0  0  0  0
  9  7  1  6  0  0  0
 10 11  1  0  0  0  0
 11 12  1  0  0  0  0
 12 13  1  0  0  0  0
 14 16  1  0  0  0  0
 14 17  1  0  0  0  0
M  END
>  <CHROM.0>
-47.84249563,-63.91799680,-61.69418132,-52.53430472,-174.23620782,-58.56173003
-60.88667184,-52.08171690,-166.72135173,-61.51808967

>  <CHROM.1>
-176.67674671,4.85146844,-77.00970377,21.31825894,-16.55415584,4.00015212
0.59798742,0.18317843,0.63477505

>  <Name>
P129694981

>  <RI>
0

>  <Rbt.Current_Directory>
/home/fstefaniak/projects/zuza/docking/adenine/1Y26

>  <Rbt.Executable>
rbdock ($Id: //depot/dev/client3/rdock/2013.1/src/exe/rbdock.cxx#4 $)

>  <Rbt.Library>
libRbt.so (2013.1, Build901 2013/11/27)

>  <Rbt.Parameter_File>
/home/fstefaniak/progs/rDock//data/scripts/dock_solv.prm

>  <Rbt.Receptor>
1y26.prm

>  <SCORE>
-50.1922

>  <SCORE.INTER>
-33.3077

>  <SCORE.INTER.CONST>
1

>  <SCORE.INTER.POLAR>
-3.90738

>  <SCORE.INTER.ROT>
2

>  <SCORE.INTER.SOLV>
14.7602

>  <SCORE.INTER.VDW>
-19.0339

>  <SCORE.INTER.norm>
-2.37912

>  <SCORE.INTRA>
2.47635

>  <SCORE.INTRA.DIHEDRAL>
2.36024

>  <SCORE.INTRA.DIHEDRAL.0>
0.577854

>  <SCORE.INTRA.POLAR>
0

>  <SCORE.INTRA.POLAR.0>
0

>  <SCORE.INTRA.REPUL>
0

>  <SCORE.INTRA.REPUL.0>
0

>  <SCORE.INTRA.SOLV>
0.117455

>  <SCORE.INTRA.SOLV.lig_0>
-15.9758

>  <SCORE.INTRA.VDW>
1.23751

>  <SCORE.INTRA.VDW.0>
-0.09275

>  <SCORE.INTRA.norm>
0.176882

>  <SCORE.RESTR>
0

>  <SCORE.RESTR.CAVITY>
0

>  <SCORE.RESTR.norm>
0

>  <SCORE.SYSTEM>
-19.3609

>  <SCORE.SYSTEM.CONST>
0

>  <SCORE.SYSTEM.DIHEDRAL>
4.38893

>  <SCORE.SYSTEM.POLAR>
-2.63261

>  <SCORE.SYSTEM.SOLV>
0.556213

>  <SCORE.SYSTEM.VDW>
-5.78028

>  <SCORE.SYSTEM.norm>
-1.38292

>  <SCORE.heavy>
14

>  <SCORE.norm>
-3.58516

$$$$
P129738730
 OpenBabel12072022103D
libRbt.so/2013.1/901 2013/11/27
 20 20  0  0  0  0  0  0  0  0999 V2000
   18.9849  -17.6190    2.9983 C   0  0  0  0  0  0  0  0  0  0  0  0
   18.6953  -18.8190    3.8931 C   0  0  0  0  0  0  0  0  0  0  0  0
   19.8864  -19.1602    4.7863 C   0  0  0  0  0  0  0  0  0  0  0  0
   20.3696  -17.9549    5.5973 C   0  0  1  0  0  0  0  0  0  0  0  0
   20.6362  -16.7090    4.7292 C   0  0  2  0  0  0  0  0  0  0  0  0
   19.4331  -16.4088    3.8132 C   0  0  0  0  0  0  0  0  0  0  0  0
   21.9473  -16.8555    3.9441 C   0  0  0  0  0  0  0  0  0  0  0  0
   22.8523  -15.7012    4.0956 N   0  0  0  0  0  0  0  0  0  0  0  0
   24.0820  -15.7270    4.6431 C   0  0  0  0  0  0  0  0  0  0  0  0
   24.6734  -16.8918    5.0619 N   0  3  0  0  0  0  0  0  0  0  0  0
   24.3123  -17.8132    4.8229 H   0  0  0  0  0  0  0  0  0  0  0  0
   25.9130  -16.8362    5.7202 N   0  0  0  0  0  0  0  0  0  0  0  0
   24.7624  -14.5751    4.7710 N   0  0  0  0  0  0  0  0  0  0  0  0
   19.3831  -17.5933    6.5620 O   0  0  0  0  0  0  0  0  0  0  0  0
   22.5380  -14.8114    3.7299 H   0  0  0  0  0  0  0  0  0  0  0  0
   25.8357  -16.2163    6.5367 H   0  0  0  0  0  0  0  0  0  0  0  0
   26.1452  -17.7665    6.0910 H   0  0  0  0  0  0  0  0  0  0  0  0
   24.3941  -13.6760    4.4989 H   0  0  0  0  0  0  0  0  0  0  0  0
   25.7287  -14.6393    5.0697 H   0  0  0  0  0  0  0  0  0  0  0  0
   19.3157  -18.3124    7.2168 H   0  0  0  0  0  0  0  0  0  0  0  0
  1  2  1  0  0  0  0
  1  6  1  0  0  0  0
  2  3  1  0  0  0  0
  3  4  1  0  0  0  0
  4 14  1  1  0  0  0
  4  5  1  0  0  0  0
  5  6  1  0  0  0  0
  5  7  1  6  0  0  0
  7  8  1  0  0  0  0
  8  9  1  0  0  0  0
  8 15  1  0  0  0  0
  9 10  2  0  0  0  0
  9 13  1  0  0  0  0
 10 11  1  0  0  0  0
 10 12  1  0  0  0  0
 12 16  1  0  0  0  0
 12 17  1  0  0  0  0
 13 18  1  0  0  0  0
 13 19  1  0  0  0  0
 14 20  1  0  0  0  0
M  CHG  1  10   1
M  END
>  <CHROM.0>
-44.01607978,-58.84371839,-58.41139960,-49.95780213,-56.61716356,-177.77335188
-59.23086327,-48.27581896,-165.22886090,162.48025664

>  <CHROM.1>
66.65327697,-128.94239296,117.30293106,55.72175661,21.71369192,-16.97461530
4.70610202,2.95406477,0.31454878,2.37362634

>  <Name>
P129738730

>  <RI>
0

>  <Rbt.Current_Directory>
/home/fstefaniak/projects/zuza/docking/adenine/1Y26

>  <Rbt.Executable>
rbdock ($Id: //depot/dev/client3/rdock/2013.1/src/exe/rbdock.cxx#4 $)

>  <Rbt.Library>
libRbt.so (2013.1, Build901 2013/11/27)

>  <Rbt.Parameter_File>
/home/fstefaniak/progs/rDock//data/scripts/dock_solv.prm

>  <Rbt.Receptor>
1y26.prm

>  <SCORE>
-55.0694

>  <SCORE.INTER>
-35.3307

>  <SCORE.INTER.CONST>
1

>  <SCORE.INTER.POLAR>
-4.91526

>  <SCORE.INTER.ROT>
3

>  <SCORE.INTER.SOLV>
22.5323

>  <SCORE.INTER.VDW>
-20.2803

>  <SCORE.INTER.norm>
-2.71774

>  <SCORE.INTRA>
2.03824

>  <SCORE.INTRA.DIHEDRAL>
4.66876

>  <SCORE.INTRA.DIHEDRAL.0>
3.63911

>  <SCORE.INTRA.POLAR>
0.00461613

>  <SCORE.INTRA.POLAR.0>
-0.0360726

>  <SCORE.INTRA.REPUL>
0

>  <SCORE.INTRA.REPUL.0>
0

>  <SCORE.INTRA.SOLV>
-0.593324

>  <SCORE.INTRA.SOLV.lig_0>
-32.1416

>  <SCORE.INTRA.VDW>
-0.0151732

>  <SCORE.INTRA.VDW.0>
-1.04402

>  <SCORE.INTRA.norm>
0.156788

>  <SCORE.RESTR>
0

>  <SCORE.RESTR.CAVITY>
0

>  <SCORE.RESTR.norm>
0

>  <SCORE.SYSTEM>
-21.7769

>  <SCORE.SYSTEM.CONST>
0

>  <SCORE.SYSTEM.DIHEDRAL>
6.68453

>  <SCORE.SYSTEM.POLAR>
-3.56627

>  <SCORE.SYSTEM.SOLV>
0.532651

>  <SCORE.SYSTEM.VDW>
-5.03613

>  <SCORE.SYSTEM.norm>
-1.67515

>  <SCORE.heavy>
13

>  <SCORE.norm>
-4.2361

$$$$
P129738730
 OpenBabel12072022103D
libRbt.so/2013.1/901 2013/11/27
 20 20  0  0  0  0  0  0  0  0999 V2000
   18.9729  -17.5096    3.0215 C   0  0  0  0  0  0  0  0  0  0  0  0
   18.6771  -18.7525    3.8536 C   0  0  0  0  0  0  0  0  0  0  0  0
   19.8853  -19.1778    4.6858 C   0  0  0  0  0  0  0  0  0  0  0  0
   20.4279  -18.0360    5.5494 C   0  0  1  0  0  0  0  0  0  0  0  0
   20.7028  -16.7484    4.7473 C   0  0  2  0  0  0  0  0  0  0  0  0
   19.4807  -16.3624    3.8904 C   0  0  0  0  0  0  0  0  0  0  0  0
   21.9840  -16.8831    3.9123 C   0  0  0  0  0  0  0  0  0  0  0  0
   22.8911  -15.7277    4.0417 N   0  0  0  0  0  0  0  0  0  0  0  0
   24.1140  -15.7416    4.6046 C   0  0  0  0  0  0  0  0  0  0  0  0
   24.6963  -16.8958    5.0635 N   0  3  0  0  0  0  0  0  0  0  0  0
   24.3349  -17.8226    4.8466 H   0  0  0  0  0  0  0  0  0  0  0  0
   25.9281  -16.8252    5.7350 N   0  0  0  0  0  0  0  0  0  0  0  0
   24.7968  -14.5887    4.7077 N   0  0  0  0  0  0  0  0  0  0  0  0
   19.4828  -17.7059    6.5655 O   0  0  0  0  0  0  0  0  0  0  0  0
   22.5843  -14.8478    3.6470 H   0  0  0  0  0  0  0  0  0  0  0  0
   25.8409  -16.1886    6.5373 H   0  0  0  0  0  0  0  0  0  0  0  0
   26.1567  -17.7474    6.1277 H   0  0  0  0  0  0  0  0  0  0  0  0
   24.4349  -13.6966    4.4057 H   0  0  0  0  0  0  0  0  0  0  0  0
   25.7592  -14.6473    5.0199 H   0  0  0  0  0  0  0  0  0  0  0  0
   19.8979  -17.0692    7.1760 H   0  0  0  0  0  0  0  0  0  0  0  0
  1  2  1  0  0  0  0
  1  6  1  0  0  0  0
  2  3  1  0  0  0  0
  3  4  1  0  0  0  0
  4 14  1  1  0  0  0
  4  5  1  0  0  0  0
  5  6  1  0  0  0  0
  5  7  1  6  0  0  0
  7  8  1  0  0  0  0
  8  9  1  0  0  0  0
  8 15  1  0  0  0  0
  9 10  2  0  0  0  0
  9 13  1  0  0  0  0
 10 11  1  0  0  0  0
 10 12  1  0  0  0  0
 12 16  1  0  0  0  0
 12 17  1  0  0  0  0
 13 18  1  0  0  0  0
 13 19  1  0  0  0  0
 14 20  1  0  0  0  0
M  CHG  1  10   1
M  END
>  <CHROM.0>
-50.16699049,-51.70626157,-55.19838853,59.65091757,-55.78950610,60.81971831
-58.80703010,-52.70404666,-166.89622034,160.06921163

>  <CHROM.1>
172.11840313,-132.24590081,113.68642775,56.22436087,21.74923161,-16.97621116
4.68787682,2.95634405,0.31273985,2.37580206

>  <Name>
P129738730

>  <RI>
0

>  <Rbt.Current_Directory>
/home/fstefaniak/projects/zuza/docking/adenine/1Y26

>  <Rbt.Executable>
rbdock ($Id: //depot/dev/client3/rdock/2013.1/src/exe/rbdock.cxx#4 $)

>  <Rbt.Library>
libRbt.so (2013.1, Build901 2013/11/27)

>  <Rbt.Parameter_File>
/home/fstefaniak/progs/rDock//data/scripts/dock_solv.prm

>  <Rbt.Receptor>
1y26.prm

>  <SCORE>
-52.3676

>  <SCORE.INTER>
-35.9003

>  <SCORE.INTER.CONST>
1

>  <SCORE.INTER.POLAR>
-5.33094

>  <SCORE.INTER.ROT>
3

>  <SCORE.INTER.SOLV>
22.4809

>  <SCORE.INTER.VDW>
-19.2574

>  <SCORE.INTER.norm>
-2.76156

>  <SCORE.INTRA>
1.90396

>  <SCORE.INTRA.DIHEDRAL>
4.50315

>  <SCORE.INTRA.DIHEDRAL.0>
3.63911

>  <SCORE.INTRA.POLAR>
0.00422096

>  <SCORE.INTRA.POLAR.0>
-0.0360726

>  <SCORE.INTRA.REPUL>
0

>  <SCORE.INTRA.REPUL.0>
0

>  <SCORE.INTRA.SOLV>
-0.567721

>  <SCORE.INTRA.SOLV.lig_0>
-32.1416

>  <SCORE.INTRA.VDW>
-0.078109

>  <SCORE.INTRA.VDW.0>
-1.04402

>  <SCORE.INTRA.norm>
0.146458

>  <SCORE.RESTR>
0

>  <SCORE.RESTR.CAVITY>
0

>  <SCORE.RESTR.norm>
0

>  <SCORE.SYSTEM>
-18.3712

>  <SCORE.SYSTEM.CONST>
0

>  <SCORE.SYSTEM.DIHEDRAL>
5.72352

>  <SCORE.SYSTEM.POLAR>
-2.93182

>  <SCORE.SYSTEM.SOLV>
0.453309

>  <SCORE.SYSTEM.VDW>
-4.53368

>  <SCORE.SYSTEM.norm>
-1.41317

>  <SCORE.heavy>
13

>  <SCORE.norm>
-4.02828

$$$$
P129738730
 OpenBabel12072022103D
libRbt.so/2013.1/901 2013/11/27
 20 20  0  0  0  0  0  0  0  0999 V2000
   18.9892  -17.6173    2.9942 C   0  0  0  0  0  0  0  0  0  0  0  0
   18.7051  -18.8188    3.8888 C   0  0  0  0  0  0  0  0  0  0  0  0
   19.8994  -19.1572    4.7789 C   0  0  0  0  0  0  0  0  0  0  0  0
   20.3812  -17.9510    5.5895 C   0  0  1  0  0  0  0  0  0  0  0  0
   20.6421  -16.7038    4.7216 C   0  0  2  0  0  0  0  0  0  0  0  0
   19.4359  -16.4064    3.8087 C   0  0  0  0  0  0  0  0  0  0  0  0
   21.9517  -16.8461    3.9332 C   0  0  0  0  0  0  0  0  0  0  0  0
   22.8581  -15.6937    4.0911 N   0  0  0  0  0  0  0  0  0  0  0  0
   24.0884  -15.7243    4.6370 C   0  0  0  0  0  0  0  0  0  0  0  0
   24.6791  -16.8924    5.0473 N   0  3  0  0  0  0  0  0  0  0  0  0
   24.3168  -17.8119    4.8027 H   0  0  0  0  0  0  0  0  0  0  0  0
   25.9196  -16.8424    5.7045 N   0  0  0  0  0  0  0  0  0  0  0  0
   24.7701  -14.5740    4.7715 N   0  0  0  0  0  0  0  0  0  0  0  0
   19.3961  -17.5929    6.5568 O   0  0  0  0  0  0  0  0  0  0  0  0
   22.5442  -14.8012    3.7317 H   0  0  0  0  0  0  0  0  0  0  0  0
   25.8412  -16.2362    6.5309 H   0  0  0  0  0  0  0  0  0  0  0  0
   26.1563  -17.7777    6.0597 H   0  0  0  0  0  0  0  0  0  0  0  0
   24.4024  -13.6728    4.5059 H   0  0  0  0  0  0  0  0  0  0  0  0
   25.7368  -14.6412    5.0687 H   0  0  0  0  0  0  0  0  0  0  0  0
   19.3196  -18.3205    7.2013 H   0  0  0  0  0  0  0  0  0  0  0  0
  1  2  1  0  0  0  0
  1  6  1  0  0  0  0
  2  3  1  0  0  0  0
  3  4  1  0  0  0  0
  4 14  1  1  0  0  0
  4  5  1  0  0  0  0
  5  6  1  0  0  0  0
  5  7  1  6  0  0  0
  7  8  1  0  0  0  0
  8  9  1  0  0  0  0
  8 15  1  0  0  0  0
  9 10  2  0  0  0  0
  9 13  1  0  0  0  0
 10 11  1  0  0  0  0
 10 12  1  0  0  0  0
 12 16  1  0  0  0  0
 12 17  1  0  0  0  0
 13 18  1  0  0  0  0
 13 19  1  0  0  0  0
 14 20  1  0  0  0  0
M  CHG  1  10   1
M  END
>  <CHROM.0>
62.60992757,-61.48100267,-55.74095341,-51.37352875,-54.91230305,-57.95054487
-55.13540890,-176.02069343,-166.98652286,-60.08687564

>  <CHROM.1>
65.53907952,-128.51952111,117.26589016,56.34339722,21.72120342,-16.97254202
4.69895868,2.95229160,0.31301655,2.37934992

>  <Name>
P129738730

>  <RI>
0

>  <Rbt.Current_Directory>
/home/fstefaniak/projects/zuza/docking/adenine/1Y26

>  <Rbt.Executable>
rbdock ($Id: //depot/dev/client3/rdock/2013.1/src/exe/rbdock.cxx#4 $)

>  <Rbt.Library>
libRbt.so (2013.1, Build901 2013/11/27)

>  <Rbt.Parameter_File>
/home/fstefaniak/progs/rDock//data/scripts/dock_solv.prm

>  <Rbt.Receptor>
1y26.prm

>  <SCORE>
-51.9838

>  <SCORE.INTER>
-35.1777

>  <SCORE.INTER.CONST>
1

>  <SCORE.INTER.POLAR>
-4.87447

>  <SCORE.INTER.ROT>
3

>  <SCORE.INTER.SOLV>
22.5082

>  <SCORE.INTER.VDW>
-20.3063

>  <SCORE.INTER.norm>
-2.70598

>  <SCORE.INTRA>
2.02149

>  <SCORE.INTRA.DIHEDRAL>
4.63205

>  <SCORE.INTRA.DIHEDRAL.0>
3.63911

>  <SCORE.INTRA.POLAR>
0.00412756

>  <SCORE.INTRA.POLAR.0>
-0.0360726

>  <SCORE.INTRA.REPUL>
0

>  <SCORE.INTRA.REPUL.0>
0

>  <SCORE.INTRA.SOLV>
-0.596518

>  <SCORE.INTRA.SOLV.lig_0>
-32.1416

>  <SCORE.INTRA.VDW>
-0.0103076

>  <SCORE.INTRA.VDW.0>
-1.04402

>  <SCORE.INTRA.norm>
0.155499

>  <SCORE.RESTR>
0

>  <SCORE.RESTR.CAVITY>
0

>  <SCORE.RESTR.norm>
0

>  <SCORE.SYSTEM>
-18.8276

>  <SCORE.SYSTEM.CONST>
0

>  <SCORE.SYSTEM.DIHEDRAL>
3.64993

>  <SCORE.SYSTEM.POLAR>
-2.39733

>  <SCORE.SYSTEM.SOLV>
0.514127

>  <SCORE.SYSTEM.VDW>
-5.94865

>  <SCORE.SYSTEM.norm>
-1.44827

>  <SCORE.heavy>
13

>  <SCORE.norm>
-3.99875

$$$$
P129922533
 OpenBabel12072022103D
libRbt.so/2013.1/901 2013/11/27
 18 18  0  0  0  0  0  0  0  0999 V2000
   21.7926  -13.7514    3.9780 C   0  0  0  0  0  0  0  0  0  0  0  0
   21.0183  -15.0533    4.1695 C   0  0  0  0  0  0  0  0  0  0  0  0
   21.8697  -16.2051    3.8756 N   0  0  0  0  0  0  0  0  0  0  0  0
   23.0914  -16.2764    4.6728 C   0  0  0  0  0  0  0  0  0  0  0  0
   23.9204  -15.0056    4.4987 C   0  0  0  0  0  0  0  0  0  0  0  0
   23.1014  -13.7463    4.7585 C   0  0  2  0  0  0  0  0  0  0  0  0
   22.8156  -13.6211    6.2212 N   0  3  0  0  0  0  0  0  0  0  0  0
   22.8274  -14.5320    6.7027 H   0  0  0  0  0  0  0  0  0  0  0  0
   23.5061  -13.0193    6.6886 H   0  0  0  0  0  0  0  0  0  0  0  0
   21.8903  -13.2036    6.3862 H   0  0  0  0  0  0  0  0  0  0  0  0
   21.1028  -17.4764    3.8968 C   0  0  0  0  0  0  0  0  0  0  0  0
   20.4450  -17.7941    2.5421 C   0  0  0  0  0  0  0  0  0  0  0  0
   21.2084  -18.1635    1.5534 N   0  0  0  0  0  0  0  0  0  0  0  0
   20.4429  -18.4121    0.4018 O   0  0  0  0  0  0  0  0  0  0  0  0
   19.0813  -17.6454    2.4229 N   0  0  0  0  0  0  0  0  0  0  0  0
   20.7237  -17.6927   -0.1968 H   0  0  0  0  0  0  0  0  0  0  0  0
   18.5395  -17.9061    3.2404 H   0  0  0  0  0  0  0  0  0  0  0  0
   18.7513  -18.1181    1.5823 H   0  0  0  0  0  0  0  0  0  0  0  0
  1  2  1  0  0  0  0
  1  6  1  0  0  0  0
  2  3  1  0  0  0  0
  3  4  1  0  0  0  0
  3 11  1  0  0  0  0
  4  5  1  0  0  0  0
  5  6  1  0  0  0  0
  6  7  1  1  0  0  0
  7  8  1  0  0  0  0
  7  9  1  0  0  0  0
  7 10  1  0  0  0  0
 11 12  1  0  0  0  0
 12 13  2  0  0  0  0
 12 15  1  0  0  0  0
 13 14  1  0  0  0  0
 14 16  1  0  0  0  0
 15 17  1  0  0  0  0
 15 18  1  0  0  0  0
M  CHG  1   7   1
M  END
>  <CHROM.0>
-176.48707230,-172.62769659,-53.12308835,-51.02634048,-172.98271456,-175.62896871
-47.17129262,-50.01346197,-165.73224887,161.71321268

>  <CHROM.1>
86.51936338,97.77561190,71.75668613,-36.94965436,112.42776869,21.62799280
-16.10378946,3.56859482,1.10890424,-0.11946918,0.67646020

>  <Name>
P129922533

>  <RI>
0

>  <Rbt.Current_Directory>
/home/fstefaniak/projects/zuza/docking/adenine/1Y26

>  <Rbt.Executable>
rbdock ($Id: //depot/dev/client3/rdock/2013.1/src/exe/rbdock.cxx#4 $)

>  <Rbt.Library>
libRbt.so (2013.1, Build901 2013/11/27)

>  <Rbt.Parameter_File>
/home/fstefaniak/progs/rDock//data/scripts/dock_solv.prm

>  <Rbt.Receptor>
1y26.prm

>  <SCORE>
-52.3808

>  <SCORE.INTER>
-32.8916

>  <SCORE.INTER.CONST>
1

>  <SCORE.INTER.POLAR>
-5.22737

>  <SCORE.INTER.ROT>
3

>  <SCORE.INTER.SOLV>
20.0189

>  <SCORE.INTER.VDW>
-16.7761

>  <SCORE.INTER.norm>
-2.74097

>  <SCORE.INTRA>
1.17187

>  <SCORE.INTRA.DIHEDRAL>
2.10872

>  <SCORE.INTRA.DIHEDRAL.0>
3.8185

>  <SCORE.INTRA.POLAR>
0.0472384

>  <SCORE.INTRA.POLAR.0>
-0.118298

>  <SCORE.INTRA.REPUL>
0

>  <SCORE.INTRA.REPUL.0>
0

>  <SCORE.INTRA.SOLV>
-0.427488

>  <SCORE.INTRA.SOLV.lig_0>
-31.8262

>  <SCORE.INTRA.VDW>
0.170641

>  <SCORE.INTRA.VDW.0>
-0.589735

>  <SCORE.INTRA.norm>
0.0976557

>  <SCORE.RESTR>
0

>  <SCORE.RESTR.CAVITY>
0

>  <SCORE.RESTR.norm>
0

>  <SCORE.SYSTEM>
-20.661

>  <SCORE.SYSTEM.CONST>
0

>  <SCORE.SYSTEM.DIHEDRAL>
6.8106

>  <SCORE.SYSTEM.POLAR>
-3.34279

>  <SCORE.SYSTEM.SOLV>
0.276851

>  <SCORE.SYSTEM.VDW>
-4.99388

>  <SCORE.SYSTEM.norm>
-1.72175

>  <SCORE.heavy>
12

>  <SCORE.norm>
-4.36507

$$$$
P129922533
 OpenBabel12072022103D
libRbt.so/2013.1/901 2013/11/27
 18 18  0  0  0  0  0  0  0  0999 V2000
   24.1482  -16.0812    5.0212 C   0  0  0  0  0  0  0  0  0  0  0  0
   23.1895  -16.5935    3.9490 C   0  0  0  0  0  0  0  0  0  0  0  0
   21.8448  -16.0620    4.1662 N   0  0  0  0  0  0  0  0  0  0  0  0
   21.7652  -14.6040    4.1939 C   0  0  0  0  0  0  0  0  0  0  0  0
   22.6888  -14.0368    5.2699 C   0  0  0  0  0  0  0  0  0  0  0  0
   24.1138  -14.5622    5.1380 C   0  0  2  0  0  0  0  0  0  0  0  0
   24.7706  -13.9494    3.9423 N   0  3  0  0  0  0  0  0  0  0  0  0
   24.2600  -14.1473    3.0695 H   0  0  0  0  0  0  0  0  0  0  0  0
   24.8369  -12.9272    4.0328 H   0  0  0  0  0  0  0  0  0  0  0  0
   25.7281  -14.3044    3.8197 H   0  0  0  0  0  0  0  0  0  0  0  0
   20.8570  -16.6672    3.2373 C   0  0  0  0  0  0  0  0  0  0  0  0
   19.7918  -17.5039    3.9681 C   0  0  0  0  0  0  0  0  0  0  0  0
   18.8075  -17.9988    3.2731 N   0  0  0  0  0  0  0  0  0  0  0  0
   17.9367  -18.7306    4.0978 O   0  0  0  0  0  0  0  0  0  0  0  0
   19.9067  -17.6691    5.3302 N   0  0  0  0  0  0  0  0  0  0  0  0
   17.2001  -18.1035    4.2347 H   0  0  0  0  0  0  0  0  0  0  0  0
   19.4830  -18.5112    5.7062 H   0  0  0  0  0  0  0  0  0  0  0  0
   19.5799  -16.8324    5.8116 H   0  0  0  0  0  0  0  0  0  0  0  0
  1  2  1  0  0  0  0
  1  6  1  0  0  0  0
  2  3  1  0  0  0  0
  3  4  1  0  0  0  0
  3 11  1  0  0  0  0
  4  5  1  0  0  0  0
  5  6  1  0  0  0  0
  6  7  1  6  0  0  0
  7  8  1  0  0  0  0
  7  9  1  0  0  0  0
  7 10  1  0  0  0  0
 11 12  1  0  0  0  0
 12 13  2  0  0  0  0
 12 15  1  0  0  0  0
 13 14  1  0  0  0  0
 14 16  1  0  0  0  0
 15 17  1  0  0  0  0
 15 18  1  0  0  0  0
M  CHG  1   7   1
M  END
>  <CHROM.0>
-52.93802132,175.69859345,58.83170468,-53.93961802,-57.77733542,-175.81625287
75.28538489,-177.17822886,-167.09983597,160.68221395

>  <CHROM.1>
115.32786794,64.58462258,174.60772354,-153.59469020,101.04817936,21.62373496
-16.21401246,4.30075863,-0.60095506,0.05871728,-3.07796626

>  <Name>
P129922533

>  <RI>
0

>  <Rbt.Current_Directory>
/home/fstefaniak/projects/zuza/docking/adenine/1Y26

>  <Rbt.Executable>
rbdock ($Id: //depot/dev/client3/rdock/2013.1/src/exe/rbdock.cxx#4 $)

>  <Rbt.Library>
libRbt.so (2013.1, Build901 2013/11/27)

>  <Rbt.Parameter_File>
/home/fstefaniak/progs/rDock//data/scripts/dock_solv.prm

>  <Rbt.Receptor>
1y26.prm

>  <SCORE>
-52.1311

>  <SCORE.INTER>
-31.091

>  <SCORE.INTER.CONST>
1

>  <SCORE.INTER.POLAR>
-3.75522

>  <SCORE.INTER.ROT>
3

>  <SCORE.INTER.SOLV>
13.5951

>  <SCORE.INTER.VDW>
-18.3417

>  <SCORE.INTER.norm>
-2.59092

>  <SCORE.INTRA>
0.113869

>  <SCORE.INTRA.DIHEDRAL>
0.521753

>  <SCORE.INTRA.DIHEDRAL.0>
3.8185

>  <SCORE.INTRA.POLAR>
0.118298

>  <SCORE.INTRA.POLAR.0>
-0.118298

>  <SCORE.INTRA.REPUL>
0

>  <SCORE.INTRA.REPUL.0>
0

>  <SCORE.INTRA.SOLV>
-0.0218501

>  <SCORE.INTRA.SOLV.lig_0>
-31.8262

>  <SCORE.INTRA.VDW>
-0.538296

>  <SCORE.INTRA.VDW.0>
-0.589735

>  <SCORE.INTRA.norm>
0.00948908

>  <SCORE.RESTR>
0

>  <SCORE.RESTR.CAVITY>
0

>  <SCORE.RESTR.norm>
0

>  <SCORE.SYSTEM>
-21.1539

>  <SCORE.SYSTEM.CONST>
0

>  <SCORE.SYSTEM.DIHEDRAL>
6.09405

>  <SCORE.SYSTEM.POLAR>
-3.6331

>  <SCORE.SYSTEM.SOLV>
0.0796539

>  <SCORE.SYSTEM.VDW>
-4.05017

>  <SCORE.SYSTEM.norm>
-1.76282

>  <SCORE.heavy>
12

>  <SCORE.norm>
-4.34426

$$$$
P129922533
 OpenBabel12072022103D
libRbt.so/2013.1/901 2013/11/27
 18 18  0  0  0  0  0  0  0  0999 V2000
   21.8762  -13.8266    3.8389 C   0  0  0  0  0  0  0  0  0  0  0  0
   21.0457  -15.0915    4.0431 C   0  0  0  0  0  0  0  0  0  0  0  0
   21.8563  -16.2832    3.7969 N   0  0  0  0  0  0  0  0  0  0  0  0
   23.0559  -16.3833    4.6241 C   0  0  0  0  0  0  0  0  0  0  0  0
   23.9392  -15.1513    4.4393 C   0  0  0  0  0  0  0  0  0  0  0  0
   23.1661  -13.8543    4.6497 C   0  0  2  0  0  0  0  0  0  0  0  0
   22.8527  -13.6816    6.1018 N   0  3  0  0  0  0  0  0  0  0  0  0
   21.9179  -13.2766    6.2561 H   0  0  0  0  0  0  0  0  0  0  0  0
   22.8833  -14.5795    6.6020 H   0  0  0  0  0  0  0  0  0  0  0  0
   23.5316  -13.0583    6.5584 H   0  0  0  0  0  0  0  0  0  0  0  0
   21.0383  -17.5219    3.8304 C   0  0  0  0  0  0  0  0  0  0  0  0
   20.3673  -17.8255    2.4790 C   0  0  0  0  0  0  0  0  0  0  0  0
   21.1202  -18.1916    1.4811 N   0  0  0  0  0  0  0  0  0  0  0  0
   20.3436  -18.4270    0.3341 O   0  0  0  0  0  0  0  0  0  0  0  0
   19.0036  -17.6681    2.3724 N   0  0  0  0  0  0  0  0  0  0  0  0
   20.7190  -17.7933   -0.3078 H   0  0  0  0  0  0  0  0  0  0  0  0
   18.4607  -18.0114    3.1581 H   0  0  0  0  0  0  0  0  0  0  0  0
   18.6762  -18.0537    1.4876 H   0  0  0  0  0  0  0  0  0  0  0  0
  1  2  1  0  0  0  0
  1  6  1  0  0  0  0
  2  3  1  0  0  0  0
  3  4  1  0  0  0  0
  3 11  1  0  0  0  0
  4  5  1  0  0  0  0
  5  6  1  0  0  0  0
  6  7  1  1  0  0  0
  7  8  1  0  0  0  0
  7  9  1  0  0  0  0
  7 10  1  0  0  0  0
 11 12  1  0  0  0  0
 12 13  2  0  0  0  0
 12 15  1  0  0  0  0
 13 14  1  0  0  0  0
 14 16  1  0  0  0  0
 15 17  1  0  0  0  0
 15 18  1  0  0  0  0
M  CHG  1   7   1
M  END
>  <CHROM.0>
-54.39535184,-90.14021500,-58.30545972,-52.70019122,-58.27003363,56.79927495
-62.10726070,-52.27679528,-166.10448386,160.15034085

>  <CHROM.1>
84.92549445,-18.83416198,69.48236057,-42.38536038,120.74490680,21.60890909
-16.16584892,3.48444828,1.08022874,-0.14083032,0.66407047

>  <Name>
P129922533

>  <RI>
0

>  <Rbt.Current_Directory>
/home/fstefaniak/projects/zuza/docking/adenine/1Y26

>  <Rbt.Executable>
rbdock ($Id: //depot/dev/client3/rdock/2013.1/src/exe/rbdock.cxx#4 $)

>  <Rbt.Library>
libRbt.so (2013.1, Build901 2013/11/27)

>  <Rbt.Parameter_File>
/home/fstefaniak/progs/rDock//data/scripts/dock_solv.prm

>  <Rbt.Receptor>
1y26.prm

>  <SCORE>
-51.1369

>  <SCORE.INTER>
-32.5278

>  <SCORE.INTER.CONST>
1

>  <SCORE.INTER.POLAR>
-5.17711

>  <SCORE.INTER.ROT>
3

>  <SCORE.INTER.SOLV>
19.9334

>  <SCORE.INTER.VDW>
-16.6726

>  <SCORE.INTER.norm>
-2.71065

>  <SCORE.INTRA>
1.3368

>  <SCORE.INTRA.DIHEDRAL>
2.52102

>  <SCORE.INTRA.DIHEDRAL.0>
3.8185

>  <SCORE.INTRA.POLAR>
0.0157883

>  <SCORE.INTRA.POLAR.0>
-0.118298

>  <SCORE.INTRA.REPUL>
0

>  <SCORE.INTRA.REPUL.0>
0

>  <SCORE.INTRA.SOLV>
-0.432284

>  <SCORE.INTRA.SOLV.lig_0>
-31.8262

>  <SCORE.INTRA.VDW>
0.23875

>  <SCORE.INTRA.VDW.0>
-0.589735

>  <SCORE.INTRA.norm>
0.1114

>  <SCORE.RESTR>
0

>  <SCORE.RESTR.CAVITY>
0

>  <SCORE.RESTR.norm>
0

>  <SCORE.SYSTEM>
-19.946

>  <SCORE.SYSTEM.CONST>
0

>  <SCORE.SYSTEM.DIHEDRAL>
8.84971

>  <SCORE.SYSTEM.POLAR>
-3.41458

>  <SCORE.SYSTEM.SOLV>
0.457209

>  <SCORE.SYSTEM.VDW>
-5.01767

>  <SCORE.SYSTEM.norm>
-1.66216

>  <SCORE.heavy>
12

>  <SCORE.norm>
-4.26141

$$$$
P129929643
 OpenBabel12072022103D
libRbt.so/2013.1/901 2013/11/27
 14 14  0  0  0  0  0  0  0  0999 V2000
   19.2220  -18.9436    6.1558 C   0  0  0  0  0  0  0  0  0  0  0  0
   19.7702  -18.8216    4.8538 O   0  0  0  0  0  0  0  0  0  0  0  0
   20.7428  -17.8061    4.8714 N   0  0  0  0  0  0  0  0  0  0  0  0
   20.7580  -17.1442    3.7499 C   0  0  0  0  0  0  0  0  0  0  0  0
   21.8137  -15.9898    3.7358 C   0  0  1  0  0  0  0  0  0  0  0  0
   21.4263  -14.8690    4.6988 C   0  0  0  0  0  0  0  0  0  0  0  0
   22.1642  -13.5617    4.4112 C   0  0  0  0  0  0  0  0  0  0  0  0
   23.6122  -13.5199    4.8853 C   0  0  0  0  0  0  0  0  0  0  0  0
   24.5107  -14.6228    4.3308 C   0  0  0  0  0  0  0  0  0  0  0  0
   24.1616  -15.9964    4.8779 C   0  0  0  0  0  0  0  0  0  0  0  0
   23.1189  -16.6448    4.0902 N   0  3  0  0  0  0  0  0  0  0  0  0
   23.4517  -17.1099    3.2417 H   0  0  0  0  0  0  0  0  0  0  0  0
   22.7321  -17.4714    4.6140 H   0  0  0  0  0  0  0  0  0  0  0  0
   20.0771  -17.2473    2.6980 O   0  5  0  0  0  0  0  0  0  0  0  0
  1  2  1  0  0  0  0
  2  3  1  0  0  0  0
  3  4  2  0  0  0  0
  4 14  1  0  0  0  0
  5  4  1  1  0  0  0
  5  6  1  0  0  0  0
  5 11  1  0  0  0  0
  6  7  1  0  0  0  0
  7  8  1  0  0  0  0
  8  9  1  0  0  0  0
  9 10  1  0  0  0  0
 10 11  1  0  0  0  0
 11 12  1  0  0  0  0
 11 13  1  0  0  0  0
M  CHG  2  11   1  14  -1
M  END
>  <CHROM.0>
-49.26746252,167.84740990,58.95999806,-52.32750566,-57.66874714,-176.62554635
76.31136017,-56.09714266,-168.76238712,160.16820107

>  <CHROM.1>
-144.97925889,-68.41264924,21.75102242,-16.32328741,4.44744606,-2.36829302
-0.30385797,-0.36908191

>  <Name>
P129929643

>  <RI>
0

>  <Rbt.Current_Directory>
/home/fstefaniak/projects/zuza/docking/adenine/1Y26

>  <Rbt.Executable>
rbdock ($Id: //depot/dev/client3/rdock/2013.1/src/exe/rbdock.cxx#4 $)

>  <Rbt.Library>
libRbt.so (2013.1, Build901 2013/11/27)

>  <Rbt.Parameter_File>
/home/fstefaniak/progs/rDock//data/scripts/dock_solv.prm

>  <Rbt.Receptor>
1y26.prm

>  <SCORE>
-51.6709

>  <SCORE.INTER>
-27.7315

>  <SCORE.INTER.CONST>
1

>  <SCORE.INTER.POLAR>
-3.18978

>  <SCORE.INTER.ROT>
2

>  <SCORE.INTER.SOLV>
18.9023

>  <SCORE.INTER.VDW>
-19.0891

>  <SCORE.INTER.norm>
-2.31096

>  <SCORE.INTRA>
-3.70675

>  <SCORE.INTRA.DIHEDRAL>
-0.668815

>  <SCORE.INTRA.DIHEDRAL.0>
3.04114

>  <SCORE.INTRA.POLAR>
-0.587376

>  <SCORE.INTRA.POLAR.0>
0

>  <SCORE.INTRA.REPUL>
0

>  <SCORE.INTRA.REPUL.0>
0

>  <SCORE.INTRA.SOLV>
-1.93892

>  <SCORE.INTRA.SOLV.lig_0>
-37.9232

>  <SCORE.INTRA.VDW>
-0.405808

>  <SCORE.INTRA.VDW.0>
-0.325588

>  <SCORE.INTRA.norm>
-0.308896

>  <SCORE.RESTR>
0

>  <SCORE.RESTR.CAVITY>
0

>  <SCORE.RESTR.norm>
0

>  <SCORE.SYSTEM>
-20.2327

>  <SCORE.SYSTEM.CONST>
0

>  <SCORE.SYSTEM.DIHEDRAL>
7.14294

>  <SCORE.SYSTEM.POLAR>
-3.73738

>  <SCORE.SYSTEM.SOLV>
0.306647

>  <SCORE.SYSTEM.VDW>
-3.51372

>  <SCORE.SYSTEM.norm>
-1.68606

>  <SCORE.heavy>
12

>  <SCORE.norm>
-4.30591

$$$$
P129929643
 OpenBabel12072022103D
libRbt.so/2013.1/901 2013/11/27
 14 14  0  0  0  0  0  0  0  0999 V2000
   19.2309  -19.0181    6.2368 C   0  0  0  0  0  0  0  0  0  0  0  0
   19.6368  -18.7852    4.8983 O   0  0  0  0  0  0  0  0  0  0  0  0
   20.6428  -17.8028    4.9006 N   0  0  0  0  0  0  0  0  0  0  0  0
   20.6700  -17.1488    3.7747 C   0  0  0  0  0  0  0  0  0  0  0  0
   21.7635  -16.0306    3.7435 C   0  0  1  0  0  0  0  0  0  0  0  0
   21.4158  -14.8850    4.6926 C   0  0  0  0  0  0  0  0  0  0  0  0
   22.1962  -13.6069    4.3865 C   0  0  0  0  0  0  0  0  0  0  0  0
   23.6458  -13.6073    4.8574 C   0  0  0  0  0  0  0  0  0  0  0  0
   24.5059  -14.7466    4.3158 C   0  0  0  0  0  0  0  0  0  0  0  0
   24.1124  -16.1006    4.8814 C   0  0  0  0  0  0  0  0  0  0  0  0
   23.0469  -16.7240    4.1042 N   0  3  0  0  0  0  0  0  0  0  0  0
   23.3622  -17.2109    3.2612 H   0  0  0  0  0  0  0  0  0  0  0  0
   22.6340  -17.5303    4.6395 H   0  0  0  0  0  0  0  0  0  0  0  0
   19.9764  -17.2357    2.7296 O   0  5  0  0  0  0  0  0  0  0  0  0
  1  2  1  0  0  0  0
  2  3  1  0  0  0  0
  3  4  2  0  0  0  0
  4 14  1  0  0  0  0
  5  4  1  1  0  0  0
  5  6  1  0  0  0  0
  5 11  1  0  0  0  0
  6  7  1  0  0  0  0
  7  8  1  0  0  0  0
  8  9  1  0  0  0  0
  9 10  1  0  0  0  0
 10 11  1  0  0  0  0
 11 12  1  0  0  0  0
 11 13  1  0  0  0  0
M  CHG  2  11   1  14  -1
M  END
>  <CHROM.0>
-50.70157924,169.67356354,-54.82361073,61.46250211,-53.20783734,-58.91486645
-58.53490083,-52.57979182,-166.23625141,160.55895941

>  <CHROM.1>
-153.28479374,-68.96332471,21.70513075,-16.36650468,4.46195864,-2.40129652
-0.34448507,-0.44515355

>  <Name>
P129929643

>  <RI>
0

>  <Rbt.Current_Directory>
/home/fstefaniak/projects/zuza/docking/adenine/1Y26

>  <Rbt.Executable>
rbdock ($Id: //depot/dev/client3/rdock/2013.1/src/exe/rbdock.cxx#4 $)

>  <Rbt.Library>
libRbt.so (2013.1, Build901 2013/11/27)

>  <Rbt.Parameter_File>
/home/fstefaniak/progs/rDock//data/scripts/dock_solv.prm

>  <Rbt.Receptor>
1y26.prm

>  <SCORE>
-50.4379

>  <SCORE.INTER>
-27.6091

>  <SCORE.INTER.CONST>
1

>  <SCORE.INTER.POLAR>
-3.04905

>  <SCORE.INTER.ROT>
2

>  <SCORE.INTER.SOLV>
19.0351

>  <SCORE.INTER.VDW>
-19.521

>  <SCORE.INTER.norm>
-2.30076

>  <SCORE.INTRA>
-3.6327

>  <SCORE.INTRA.DIHEDRAL>
-0.414679

>  <SCORE.INTRA.DIHEDRAL.0>
3.04114

>  <SCORE.INTRA.POLAR>
-0.591257

>  <SCORE.INTRA.POLAR.0>
0

>  <SCORE.INTRA.REPUL>
0

>  <SCORE.INTRA.REPUL.0>
0

>  <SCORE.INTRA.SOLV>
-1.96293

>  <SCORE.INTRA.SOLV.lig_0>
-37.9232

>  <SCORE.INTRA.VDW>
-0.433624

>  <SCORE.INTRA.VDW.0>
-0.325588

>  <SCORE.INTRA.norm>
-0.302725

>  <SCORE.RESTR>
0

>  <SCORE.RESTR.CAVITY>
0

>  <SCORE.RESTR.norm>
0

>  <SCORE.SYSTEM>
-19.196

>  <SCORE.SYSTEM.CONST>
0

>  <SCORE.SYSTEM.DIHEDRAL>
6.01921

>  <SCORE.SYSTEM.POLAR>
-2.93165

>  <SCORE.SYSTEM.SOLV>
0.565745

>  <SCORE.SYSTEM.VDW>
-5.22018

>  <SCORE.SYSTEM.norm>
-1.59967

>  <SCORE.heavy>
12

>  <SCORE.norm>
-4.20316

$$$$
P129929643
 OpenBabel12072022103D
libRbt.so/2013.1/901 2013/11/27
 14 14  0  0  0  0  0  0  0  0999 V2000
   18.4261  -18.4681    1.5855 C   0  0  0  0  0  0  0  0  0  0  0  0
   19.1383  -18.3780    2.8083 O   0  0  0  0  0  0  0  0  0  0  0  0
   20.0567  -17.3174    2.7137 N   0  0  0  0  0  0  0  0  0  0  0  0
   20.7157  -17.1597    3.8258 C   0  0  0  0  0  0  0  0  0  0  0  0
   21.7645  -16.0011    3.7560 C   0  0  1  0  0  0  0  0  0  0  0  0
   21.4029  -14.8642    4.7102 C   0  0  0  0  0  0  0  0  0  0  0  0
   22.1243  -13.5592    4.3745 C   0  0  0  0  0  0  0  0  0  0  0  0
   23.5867  -13.5021    4.8004 C   0  0  0  0  0  0  0  0  0  0  0  0
   24.4724  -14.6111    4.2375 C   0  0  0  0  0  0  0  0  0  0  0  0
   24.1483  -15.9758    4.8210 C   0  0  0  0  0  0  0  0  0  0  0  0
   23.0838  -16.6435    4.0799 N   0  3  0  0  0  0  0  0  0  0  0  0
   23.3914  -17.1228    3.2297 H   0  0  0  0  0  0  0  0  0  0  0  0
   22.7185  -17.4618    4.6312 H   0  0  0  0  0  0  0  0  0  0  0  0
   20.6793  -17.7707    4.9241 O   0  5  0  0  0  0  0  0  0  0  0  0
  1  2  1  0  0  0  0
  2  3  1  0  0  0  0
  3  4  2  0  0  0  0
  4 14  1  0  0  0  0
  5  4  1  1  0  0  0
  5  6  1  0  0  0  0
  5 11  1  0  0  0  0
  6  7  1  0  0  0  0
  7  8  1  0  0  0  0
  8  9  1  0  0  0  0
  9 10  1  0  0  0  0
 10 11  1  0  0  0  0
 11 12  1  0  0  0  0
 11 13  1  0  0  0  0
M  CHG  2  11   1  14  -1
M  END
>  <CHROM.0>
-47.71175713,168.33679306,-51.31804764,-52.66708556,-56.59199726,-59.41172227
-59.57566086,-178.40093937,-166.43359240,160.11842402

>  <CHROM.1>
178.11443073,114.92652964,21.60160357,-16.24660207,3.87457715,2.46050749
0.38566380,-3.08876073

>  <Name>
P129929643

>  <RI>
0

>  <Rbt.Current_Directory>
/home/fstefaniak/projects/zuza/docking/adenine/1Y26

>  <Rbt.Executable>
rbdock ($Id: //depot/dev/client3/rdock/2013.1/src/exe/rbdock.cxx#4 $)

>  <Rbt.Library>
libRbt.so (2013.1, Build901 2013/11/27)

>  <Rbt.Parameter_File>
/home/fstefaniak/progs/rDock//data/scripts/dock_solv.prm

>  <Rbt.Receptor>
1y26.prm

>  <SCORE>
-49.2066

>  <SCORE.INTER>
-26.4645

>  <SCORE.INTER.CONST>
1

>  <SCORE.INTER.POLAR>
-3.20757

>  <SCORE.INTER.ROT>
2

>  <SCORE.INTER.SOLV>
19.2102

>  <SCORE.INTER.VDW>
-18.2879

>  <SCORE.INTER.norm>
-2.20538

>  <SCORE.INTRA>
-0.485554

>  <SCORE.INTRA.DIHEDRAL>
0.00360399

>  <SCORE.INTRA.DIHEDRAL.0>
3.04114

>  <SCORE.INTRA.POLAR>
0

>  <SCORE.INTRA.POLAR.0>
0

>  <SCORE.INTRA.REPUL>
0

>  <SCORE.INTRA.REPUL.0>
0

>  <SCORE.INTRA.SOLV>
-0.314189

>  <SCORE.INTRA.SOLV.lig_0>
-37.9232

>  <SCORE.INTRA.VDW>
-0.330261

>  <SCORE.INTRA.VDW.0>
-0.325588

>  <SCORE.INTRA.norm>
-0.0404628

>  <SCORE.RESTR>
0

>  <SCORE.RESTR.CAVITY>
0

>  <SCORE.RESTR.norm>
0

>  <SCORE.SYSTEM>
-22.2565

>  <SCORE.SYSTEM.CONST>
0

>  <SCORE.SYSTEM.DIHEDRAL>
6.54152

>  <SCORE.SYSTEM.POLAR>
-3.52805

>  <SCORE.SYSTEM.SOLV>
0.423844

>  <SCORE.SYSTEM.VDW>
-5.39932

>  <SCORE.SYSTEM.norm>
-1.85471

>  <SCORE.heavy>
12

>  <SCORE.norm>
-4.10055

$$$$
P129929700
 OpenBabel12072022103D
libRbt.so/2013.1/901 2013/11/27
 12 11  0  0  0  0  0  0  0  0999 V2000
   21.4689  -15.6176    4.3878 C   0  0  0  0  0  0  0  0  0  0  0  0
   22.6421  -14.6578    4.5746 C   0  0  0  0  0  0  0  0  0  0  0  0
   23.9829  -15.3256    4.2846 C   0  0  0  0  0  0  0  0  0  0  0  0
   22.4245  -13.3437    3.7399 C   0  0  0  0  0  0  0  0  0  0  0  0
   21.7799  -12.4140    4.3855 N   0  0  0  0  0  0  0  0  0  0  0  0
   21.6169  -11.2617    3.5963 O   0  0  0  0  0  0  0  0  0  0  0  0
   20.9582  -10.2732    4.3706 C   0  0  0  0  0  0  0  0  0  0  0  0
   22.9149  -13.3767    2.5818 O   0  5  0  0  0  0  0  0  0  0  0  0
   22.6506  -14.2087    6.0115 N   0  3  0  0  0  0  0  0  0  0  0  0
   21.7841  -13.6160    6.0122 H   0  0  0  0  0  0  0  0  0  0  0  0
   22.5715  -14.9302    6.7206 H   0  0  0  0  0  0  0  0  0  0  0  0
   23.3807  -13.5163    6.1776 H   0  0  0  0  0  0  0  0  0  0  0  0
  1  2  1  0  0  0  0
  2  3  1  0  0  0  0
  2  4  1  0  0  0  0
  2  9  1  0  0  0  0
  4  5  2  0  0  0  0
  4  8  1  0  0  0  0
  5  6  1  0  0  0  0
  6  7  1  0  0  0  0
  9 10  1  0  0  0  0
  9 11  1  0  0  0  0
  9 12  1  0  0  0  0
M  CHG  2   8  -1   9   1
M  END
>  <CHROM.0>
-46.29900941,-172.92709830,-55.86192915,-52.96705061,-55.14564768,61.54148235
-56.85379075,-50.81641665,-166.85553174,161.82593789

>  <CHROM.1>
89.11080791,-69.42038497,-177.71476758,22.26681937,-13.35855370,4.23342262
0.81257039,-1.06287968,2.30215165

>  <Name>
P129929700

>  <RI>
0

>  <Rbt.Current_Directory>
/home/fstefaniak/projects/zuza/docking/adenine/1Y26

>  <Rbt.Executable>
rbdock ($Id: //depot/dev/client3/rdock/2013.1/src/exe/rbdock.cxx#4 $)

>  <Rbt.Library>
libRbt.so (2013.1, Build901 2013/11/27)

>  <Rbt.Parameter_File>
/home/fstefaniak/progs/rDock//data/scripts/dock_solv.prm

>  <Rbt.Receptor>
1y26.prm

>  <SCORE>
-43.2835

>  <SCORE.INTER>
-19.6436

>  <SCORE.INTER.CONST>
1

>  <SCORE.INTER.POLAR>
-3.87654

>  <SCORE.INTER.ROT>
2

>  <SCORE.INTER.SOLV>
17.6355

>  <SCORE.INTER.VDW>
-10.9857

>  <SCORE.INTER.norm>
-2.18262

>  <SCORE.INTRA>
-3.55011

>  <SCORE.INTRA.DIHEDRAL>
-1.8462

>  <SCORE.INTRA.DIHEDRAL.0>
4.81264

>  <SCORE.INTRA.POLAR>
-0.225781

>  <SCORE.INTRA.POLAR.0>
0

>  <SCORE.INTRA.REPUL>
0

>  <SCORE.INTRA.REPUL.0>
0

>  <SCORE.INTRA.SOLV>
-1.44612

>  <SCORE.INTRA.SOLV.lig_0>
-39.2359

>  <SCORE.INTRA.VDW>
-1.1363

>  <SCORE.INTRA.VDW.0>
2.37471

>  <SCORE.INTRA.norm>
-0.394457

>  <SCORE.RESTR>
1.32295

>  <SCORE.RESTR.CAVITY>
1.32295

>  <SCORE.RESTR.norm>
0.146995

>  <SCORE.SYSTEM>
-21.4128

>  <SCORE.SYSTEM.CONST>
0

>  <SCORE.SYSTEM.DIHEDRAL>
6.21273

>  <SCORE.SYSTEM.POLAR>
-3.49312

>  <SCORE.SYSTEM.SOLV>
0.452779

>  <SCORE.SYSTEM.VDW>
-4.85328

>  <SCORE.SYSTEM.norm>
-2.37919

>  <SCORE.heavy>
9

>  <SCORE.norm>
-4.80928

$$$$
P129929700
 OpenBabel12072022103D
libRbt.so/2013.1/901 2013/11/27
 12 11  0  0  0  0  0  0  0  0999 V2000
   19.4756  -17.7437    2.9231 C   0  0  0  0  0  0  0  0  0  0  0  0
   20.4000  -17.1720    3.9960 C   0  0  0  0  0  0  0  0  0  0  0  0
   20.0766  -17.7179    5.3835 C   0  0  0  0  0  0  0  0  0  0  0  0
   21.9071  -17.3759    3.5987 C   0  0  0  0  0  0  0  0  0  0  0  0
   22.0724  -18.0844    2.5182 N   0  0  0  0  0  0  0  0  0  0  0  0
   23.4357  -18.2321    2.2066 O   0  0  0  0  0  0  0  0  0  0  0  0
   23.7288  -19.6158    2.1062 C   0  0  0  0  0  0  0  0  0  0  0  0
   22.7280  -16.8157    4.3701 O   0  5  0  0  0  0  0  0  0  0  0  0
   20.2053  -15.6796    4.0296 N   0  3  0  0  0  0  0  0  0  0  0  0
   19.1572  -15.6433    4.0778 H   0  0  0  0  0  0  0  0  0  0  0  0
   20.6010  -15.1805    4.8195 H   0  0  0  0  0  0  0  0  0  0  0  0
   20.3898  -15.2625    3.1173 H   0  0  0  0  0  0  0  0  0  0  0  0
  1  2  1  0  0  0  0
  2  3  1  0  0  0  0
  2  4  1  0  0  0  0
  2  9  1  0  0  0  0
  4  5  2  0  0  0  0
  4  8  1  0  0  0  0
  5  6  1  0  0  0  0
  6  7  1  0  0  0  0
  9 10  1  0  0  0  0
  9 11  1  0  0  0  0
  9 12  1  0  0  0  0
M  CHG  2   8  -1   9   1
M  END
>  <CHROM.0>
60.93080686,77.06963034,-48.98885982,-52.16410634,-55.59626296,-179.76576837
-43.69067749,-49.71400079,-166.72335119,160.11541693

>  <CHROM.1>
-5.84301728,49.46643242,124.47786242,21.57161163,-17.57800721,3.45650364
2.44688261,0.00891365,0.77215487

>  <Name>
P129929700

>  <RI>
0

>  <Rbt.Current_Directory>
/home/fstefaniak/projects/zuza/docking/adenine/1Y26

>  <Rbt.Executable>
rbdock ($Id: //depot/dev/client3/rdock/2013.1/src/exe/rbdock.cxx#4 $)

>  <Rbt.Library>
libRbt.so (2013.1, Build901 2013/11/27)

>  <Rbt.Parameter_File>
/home/fstefaniak/progs/rDock//data/scripts/dock_solv.prm

>  <Rbt.Receptor>
1y26.prm

>  <SCORE>
-42.6968

>  <SCORE.INTER>
-22.4591

>  <SCORE.INTER.CONST>
1

>  <SCORE.INTER.POLAR>
-4.13691

>  <SCORE.INTER.ROT>
2

>  <SCORE.INTER.SOLV>
20.8103

>  <SCORE.INTER.VDW>
-13.0531

>  <SCORE.INTER.norm>
-2.49545

>  <SCORE.INTRA>
-1.04193

>  <SCORE.INTRA.DIHEDRAL>
-3.16865

>  <SCORE.INTRA.DIHEDRAL.0>
4.81264

>  <SCORE.INTRA.POLAR>
0

>  <SCORE.INTRA.POLAR.0>
0

>  <SCORE.INTRA.REPUL>
0

>  <SCORE.INTRA.REPUL.0>
0

>  <SCORE.INTRA.SOLV>
-1.05152

>  <SCORE.INTRA.SOLV.lig_0>
-39.2359

>  <SCORE.INTRA.VDW>
1.06816

>  <SCORE.INTRA.VDW.0>
2.37471

>  <SCORE.INTRA.norm>
-0.11577

>  <SCORE.RESTR>
0

>  <SCORE.RESTR.CAVITY>
0

>  <SCORE.RESTR.norm>
0

>  <SCORE.SYSTEM>
-19.1958

>  <SCORE.SYSTEM.CONST>
0

>  <SCORE.SYSTEM.DIHEDRAL>
8.41645

>  <SCORE.SYSTEM.POLAR>
-3.42655

>  <SCORE.SYSTEM.SOLV>
0.535462

>  <SCORE.SYSTEM.VDW>
-4.35934

>  <SCORE.SYSTEM.norm>
-2.13287

>  <SCORE.heavy>
9

>  <SCORE.norm>
-4.74409

$$$$
P129929700
 OpenBabel12072022103D
libRbt.so/2013.1/901 2013/11/27
 12 11  0  0  0  0  0  0  0  0999 V2000
   24.5048  -14.4310    4.6101 C   0  0  0  0  0  0  0  0  0  0  0  0
   22.9864  -14.2688    4.6318 C   0  0  0  0  0  0  0  0  0  0  0  0
   22.5034  -13.2425    3.6114 C   0  0  0  0  0  0  0  0  0  0  0  0
   22.2755  -15.6621    4.4758 C   0  0  0  0  0  0  0  0  0  0  0  0
   21.0855  -15.7047    5.0038 N   0  0  0  0  0  0  0  0  0  0  0  0
   20.4945  -16.9692    4.8325 O   0  0  0  0  0  0  0  0  0  0  0  0
   19.6438  -16.9204    3.6992 C   0  0  0  0  0  0  0  0  0  0  0  0
   22.9505  -16.5229    3.8544 O   0  5  0  0  0  0  0  0  0  0  0  0
   22.5908  -13.7816    6.0002 N   0  3  0  0  0  0  0  0  0  0  0  0
   22.7421  -14.6643    6.5480 H   0  0  0  0  0  0  0  0  0  0  0  0
   23.1449  -13.0318    6.4007 H   0  0  0  0  0  0  0  0  0  0  0  0
   21.5808  -13.6591    6.0708 H   0  0  0  0  0  0  0  0  0  0  0  0
  1  2  1  0  0  0  0
  2  3  1  0  0  0  0
  2  4  1  0  0  0  0
  2  9  1  0  0  0  0
  4  5  2  0  0  0  0
  4  8  1  0  0  0  0
  5  6  1  0  0  0  0
  6  7  1  0  0  0  0
  9 10  1  0  0  0  0
  9 11  1  0  0  0  0
  9 12  1  0  0  0  0
M  CHG  2   8  -1   9   1
M  END
>  <CHROM.0>
-47.59602092,168.96941905,-58.91999040,-52.21658490,-59.28856464,-179.59668012
-62.69231092,-53.30150347,-166.37342223,160.49920282

>  <CHROM.1>
153.78808210,-72.90389176,-96.96204878,22.09853666,-15.28804945,4.54669610
-0.73154556,-0.23654824,-2.72483343

>  <Name>
P129929700

>  <RI>
0

>  <Rbt.Current_Directory>
/home/fstefaniak/projects/zuza/docking/adenine/1Y26

>  <Rbt.Executable>
rbdock ($Id: //depot/dev/client3/rdock/2013.1/src/exe/rbdock.cxx#4 $)

>  <Rbt.Library>
libRbt.so (2013.1, Build901 2013/11/27)

>  <Rbt.Parameter_File>
/home/fstefaniak/progs/rDock//data/scripts/dock_solv.prm

>  <Rbt.Receptor>
1y26.prm

>  <SCORE>
-42.6133

>  <SCORE.INTER>
-18.4169

>  <SCORE.INTER.CONST>
1

>  <SCORE.INTER.POLAR>
-2.98753

>  <SCORE.INTER.ROT>
2

>  <SCORE.INTER.SOLV>
17.4383

>  <SCORE.INTER.VDW>
-13.0656

>  <SCORE.INTER.norm>
-2.04633

>  <SCORE.INTRA>
-2.45643

>  <SCORE.INTRA.DIHEDRAL>
-3.68858

>  <SCORE.INTRA.DIHEDRAL.0>
4.81264

>  <SCORE.INTRA.POLAR>
0

>  <SCORE.INTRA.POLAR.0>
0

>  <SCORE.INTRA.REPUL>
0

>  <SCORE.INTRA.REPUL.0>
0

>  <SCORE.INTRA.SOLV>
-1.07751

>  <SCORE.INTRA.SOLV.lig_0>
-39.2359

>  <SCORE.INTRA.VDW>
-0.0733817

>  <SCORE.INTRA.VDW.0>
2.37471

>  <SCORE.INTRA.norm>
-0.272937

>  <SCORE.RESTR>
0

>  <SCORE.RESTR.CAVITY>
0

>  <SCORE.RESTR.norm>
0

>  <SCORE.SYSTEM>
-21.7399

>  <SCORE.SYSTEM.CONST>
0

>  <SCORE.SYSTEM.DIHEDRAL>
6.30543

>  <SCORE.SYSTEM.POLAR>
-3.50464

>  <SCORE.SYSTEM.SOLV>
0.469004

>  <SCORE.SYSTEM.VDW>
-5.06928

>  <SCORE.SYSTEM.norm>
-2.41554

>  <SCORE.heavy>
9

>  <SCORE.norm>
-4.73481

$$$$
P129929867
 OpenBabel12072022103D
libRbt.so/2013.1/901 2013/11/27
 14 14  0  0  0  0  0  0  0  0999 V2000
   24.3161  -14.2603    4.3623 C   0  0  0  0  0  0  0  0  0  0  0  0
   24.7162  -15.6319    4.8671 C   0  0  0  0  0  0  0  0  0  0  0  0
   23.8503  -16.5986    4.2862 O   0  0  0  0  0  0  0  0  0  0  0  0
   22.5509  -16.3938    4.7831 N   0  0  0  0  0  0  0  0  0  0  0  0
   21.6492  -16.8227    3.9471 C   0  0  0  0  0  0  0  0  0  0  0  0
   20.1769  -16.6160    4.4323 C   0  0  1  0  0  0  0  0  0  0  0  0
   19.0465  -16.9304    3.4561 C   0  0  0  0  0  0  0  0  0  0  0  0
   18.8254  -18.4252    3.2480 C   0  0  0  0  0  0  0  0  0  0  0  0
   18.6455  -19.1391    4.5824 C   0  0  0  0  0  0  0  0  0  0  0  0
   19.8348  -18.8914    5.4910 C   0  0  0  0  0  0  0  0  0  0  0  0
   20.0229  -17.4379    5.6918 N   0  3  0  0  0  0  0  0  0  0  0  0
   19.3929  -16.9985    6.3595 H   0  0  0  0  0  0  0  0  0  0  0  0
   21.0003  -17.3302    6.0508 H   0  0  0  0  0  0  0  0  0  0  0  0
   21.7455  -17.3768    2.8229 O   0  5  0  0  0  0  0  0  0  0  0  0
  1  2  1  0  0  0  0
  2  3  1  0  0  0  0
  3  4  1  0  0  0  0
  4  5  2  0  0  0  0
  5 14  1  0  0  0  0
  6  7  1  0  0  0  0
  6 11  1  0  0  0  0
  6  5  1  6  0  0  0
  7  8  1  0  0  0  0
  8  9  1  0  0  0  0
  9 10  1  0  0  0  0
 10 11  1  0  0  0  0
 11 12  1  0  0  0  0
 11 13  1  0  0  0  0
M  CHG  2  11   1  14  -1
M  END
>  <CHROM.0>
-52.71533793,57.57184079,-58.94284049,-54.53543230,-57.83365054,-57.35337291
-61.30810173,-56.72424238,-166.75952243,160.41253996

>  <CHROM.1>
-66.39186163,153.75088577,172.79675494,21.32364746,-17.03262677,4.33888216
0.12953478,-0.49845231,-1.26058810

>  <Name>
P129929867

>  <RI>
0

>  <Rbt.Current_Directory>
/home/fstefaniak/projects/zuza/docking/adenine/1Y26

>  <Rbt.Executable>
rbdock ($Id: //depot/dev/client3/rdock/2013.1/src/exe/rbdock.cxx#4 $)

>  <Rbt.Library>
libRbt.so (2013.1, Build901 2013/11/27)

>  <Rbt.Parameter_File>
/home/fstefaniak/progs/rDock//data/scripts/dock_solv.prm

>  <Rbt.Receptor>
1y26.prm

>  <SCORE>
-42.3822

>  <SCORE.INTER>
-20.0332

>  <SCORE.INTER.CONST>
1

>  <SCORE.INTER.POLAR>
-2.338

>  <SCORE.INTER.ROT>
3

>  <SCORE.INTER.SOLV>
22.5649

>  <SCORE.INTER.VDW>
-18.6838

>  <SCORE.INTER.norm>
-1.66943

>  <SCORE.INTRA>
-0.671461

>  <SCORE.INTRA.DIHEDRAL>
-0.189383

>  <SCORE.INTRA.DIHEDRAL.0>
3.03576

>  <SCORE.INTRA.POLAR>
-0.487373

>  <SCORE.INTRA.POLAR.0>
0

>  <SCORE.INTRA.REPUL>
0

>  <SCORE.INTRA.REPUL.0>
0

>  <SCORE.INTRA.SOLV>
0.463671

>  <SCORE.INTRA.SOLV.lig_0>
-38.5828

>  <SCORE.INTRA.VDW>
0.848464

>  <SCORE.INTRA.VDW.0>
-0.647759

>  <SCORE.INTRA.norm>
-0.055955

>  <SCORE.RESTR>
0

>  <SCORE.RESTR.CAVITY>
0

>  <SCORE.RESTR.norm>
0

>  <SCORE.SYSTEM>
-21.6775

>  <SCORE.SYSTEM.CONST>
0

>  <SCORE.SYSTEM.DIHEDRAL>
4.99763

>  <SCORE.SYSTEM.POLAR>
-3.38321

>  <SCORE.SYSTEM.SOLV>
0.693745

>  <SCORE.SYSTEM.VDW>
-5.07146

>  <SCORE.SYSTEM.norm>
-1.80646

>  <SCORE.heavy>
12

>  <SCORE.norm>
-3.53185

$$$$
P129929867
 OpenBabel12072022103D
libRbt.so/2013.1/901 2013/11/27
 14 14  0  0  0  0  0  0  0  0999 V2000
   24.3254  -14.3041    4.4497 C   0  0  0  0  0  0  0  0  0  0  0  0
   24.7023  -15.6941    4.9210 C   0  0  0  0  0  0  0  0  0  0  0  0
   23.8321  -16.6334    4.3028 O   0  0  0  0  0  0  0  0  0  0  0  0
   22.5294  -16.4272    4.7904 N   0  0  0  0  0  0  0  0  0  0  0  0
   21.6330  -16.8427    3.9420 C   0  0  0  0  0  0  0  0  0  0  0  0
   20.1575  -16.6335    4.4163 C   0  0  1  0  0  0  0  0  0  0  0  0
   19.0338  -16.9479    3.4325 C   0  0  0  0  0  0  0  0  0  0  0  0
   18.8123  -18.4427    3.2248 C   0  0  0  0  0  0  0  0  0  0  0  0
   18.6220  -19.1545    4.5588 C   0  0  0  0  0  0  0  0  0  0  0  0
   19.8050  -18.9070    5.4756 C   0  0  0  0  0  0  0  0  0  0  0  0
   19.9935  -17.4534    5.6758 N   0  3  0  0  0  0  0  0  0  0  0  0
   19.3593  -17.0124    6.3383 H   0  0  0  0  0  0  0  0  0  0  0  0
   20.9684  -17.3464    6.0416 H   0  0  0  0  0  0  0  0  0  0  0  0
   21.7364  -17.3854    2.8128 O   0  5  0  0  0  0  0  0  0  0  0  0
  1  2  1  0  0  0  0
  2  3  1  0  0  0  0
  3  4  1  0  0  0  0
  4  5  2  0  0  0  0
  5 14  1  0  0  0  0
  6  7  1  0  0  0  0
  6 11  1  0  0  0  0
  6  5  1  6  0  0  0
  7  8  1  0  0  0  0
  8  9  1  0  0  0  0
  9 10  1  0  0  0  0
 10 11  1  0  0  0  0
 11 12  1  0  0  0  0
 11 13  1  0  0  0  0
M  CHG  2  11   1  14  -1
M  END
>  <CHROM.0>
-51.18263198,60.36566639,-56.47828633,-51.86229767,-55.04798600,-57.51596275
-55.21070180,-49.39643432,-166.40213228,163.04913676

>  <CHROM.1>
-66.45544920,154.86226265,173.52050910,21.30722409,-17.05779689,4.34208835
0.10736847,-0.49799410,-1.27649842

>  <Name>
P129929867

>  <RI>
0

>  <Rbt.Current_Directory>
/home/fstefaniak/projects/zuza/docking/adenine/1Y26

>  <Rbt.Executable>
rbdock ($Id: //depot/dev/client3/rdock/2013.1/src/exe/rbdock.cxx#4 $)

>  <Rbt.Library>
libRbt.so (2013.1, Build901 2013/11/27)

>  <Rbt.Parameter_File>
/home/fstefaniak/progs/rDock//data/scripts/dock_solv.prm

>  <Rbt.Receptor>
1y26.prm

>  <SCORE>
-42.3092

>  <SCORE.INTER>
-20.1223

>  <SCORE.INTER.CONST>
1

>  <SCORE.INTER.POLAR>
-2.36794

>  <SCORE.INTER.ROT>
3

>  <SCORE.INTER.SOLV>
22.5903

>  <SCORE.INTER.VDW>
-18.6518

>  <SCORE.INTER.norm>
-1.67685

>  <SCORE.INTRA>
-0.726902

>  <SCORE.INTRA.DIHEDRAL>
-0.155018

>  <SCORE.INTRA.DIHEDRAL.0>
3.03576

>  <SCORE.INTRA.POLAR>
-0.504968

>  <SCORE.INTRA.POLAR.0>
0

>  <SCORE.INTRA.REPUL>
0

>  <SCORE.INTRA.REPUL.0>
0

>  <SCORE.INTRA.SOLV>
0.436676

>  <SCORE.INTRA.SOLV.lig_0>
-38.5828

>  <SCORE.INTRA.VDW>
0.849161

>  <SCORE.INTRA.VDW.0>
-0.647759

>  <SCORE.INTRA.norm>
-0.0605752

>  <SCORE.RESTR>
0

>  <SCORE.RESTR.CAVITY>
0

>  <SCORE.RESTR.norm>
0

>  <SCORE.SYSTEM>
-21.4601

>  <SCORE.SYSTEM.CONST>
0

>  <SCORE.SYSTEM.DIHEDRAL>
5.61615

>  <SCORE.SYSTEM.POLAR>
-3.42511

>  <SCORE.SYSTEM.SOLV>
0.7174

>  <SCORE.SYSTEM.VDW>
-5.00087

>  <SCORE.SYSTEM.norm>
-1.78834

>  <SCORE.heavy>
12

>  <SCORE.norm>
-3.52577

$$$$
P129929867
 OpenBabel12072022103D
libRbt.so/2013.1/901 2013/11/27
 14 14  0  0  0  0  0  0  0  0999 V2000
   24.4772  -14.5020    4.6506 C   0  0  0  0  0  0  0  0  0  0  0  0
   24.7617  -15.9703    4.8945 C   0  0  0  0  0  0  0  0  0  0  0  0
   23.8220  -16.7421    4.1577 O   0  0  0  0  0  0  0  0  0  0  0  0
   22.5366  -16.4950    4.6717 N   0  0  0  0  0  0  0  0  0  0  0  0
   21.6104  -16.9008    3.8511 C   0  0  0  0  0  0  0  0  0  0  0  0
   20.1522  -16.6464    4.3557 C   0  0  1  0  0  0  0  0  0  0  0  0
   18.9974  -16.9641    3.4096 C   0  0  0  0  0  0  0  0  0  0  0  0
   18.7396  -18.4591    3.2506 C   0  0  0  0  0  0  0  0  0  0  0  0
   18.5684  -19.1286    4.6089 C   0  0  0  0  0  0  0  0  0  0  0  0
   19.7794  -18.8810    5.4885 C   0  0  0  0  0  0  0  0  0  0  0  0
   20.0032  -17.4267    5.6420 N   0  3  0  0  0  0  0  0  0  0  0  0
   19.3954  -16.9535    6.3071 H   0  0  0  0  0  0  0  0  0  0  0  0
   20.9892  -17.3305    5.9802 H   0  0  0  0  0  0  0  0  0  0  0  0
   21.6737  -17.4637    2.7288 O   0  5  0  0  0  0  0  0  0  0  0  0
  1  2  1  0  0  0  0
  2  3  1  0  0  0  0
  3  4  1  0  0  0  0
  4  5  2  0  0  0  0
  5 14  1  0  0  0  0
  6  7  1  0  0  0  0
  6 11  1  0  0  0  0
  6  5  1  6  0  0  0
  7  8  1  0  0  0  0
  8  9  1  0  0  0  0
  9 10  1  0  0  0  0
 10 11  1  0  0  0  0
 11 12  1  0  0  0  0
 11 13  1  0  0  0  0
M  CHG  2  11   1  14  -1
M  END
>  <CHROM.0>
-57.58825516,58.59453252,-54.57989098,-49.74701759,-55.07836998,-172.88460707
-64.85959926,-177.22412967,-167.93396581,160.84576874

>  <CHROM.1>
-64.63383991,164.25356988,174.28078430,21.30294337,-17.12130859,4.31766384
-0.04637239,0.46706644,1.76368221

>  <Name>
P129929867

>  <RI>
0

>  <Rbt.Current_Directory>
/home/fstefaniak/projects/zuza/docking/adenine/1Y26

>  <Rbt.Executable>
rbdock ($Id: //depot/dev/client3/rdock/2013.1/src/exe/rbdock.cxx#4 $)

>  <Rbt.Library>
libRbt.so (2013.1, Build901 2013/11/27)

>  <Rbt.Parameter_File>
/home/fstefaniak/progs/rDock//data/scripts/dock_solv.prm

>  <Rbt.Receptor>
1y26.prm

>  <SCORE>
-42.0306

>  <SCORE.INTER>
-19.7252

>  <SCORE.INTER.CONST>
1

>  <SCORE.INTER.POLAR>
-2.22348

>  <SCORE.INTER.ROT>
3

>  <SCORE.INTER.SOLV>
22.9436

>  <SCORE.INTER.VDW>
-18.9864

>  <SCORE.INTER.norm>
-1.64377

>  <SCORE.INTRA>
-0.637593

>  <SCORE.INTRA.DIHEDRAL>
-0.0395575

>  <SCORE.INTRA.DIHEDRAL.0>
3.03576

>  <SCORE.INTRA.POLAR>
-0.511712

>  <SCORE.INTRA.POLAR.0>
0

>  <SCORE.INTRA.REPUL>
0

>  <SCORE.INTRA.REPUL.0>
0

>  <SCORE.INTRA.SOLV>
0.305565

>  <SCORE.INTRA.SOLV.lig_0>
-38.5828

>  <SCORE.INTRA.VDW>
0.969225

>  <SCORE.INTRA.VDW.0>
-0.647759

>  <SCORE.INTRA.norm>
-0.0531328

>  <SCORE.RESTR>
0

>  <SCORE.RESTR.CAVITY>
0

>  <SCORE.RESTR.norm>
0

>  <SCORE.SYSTEM>
-21.6678

>  <SCORE.SYSTEM.CONST>
0

>  <SCORE.SYSTEM.DIHEDRAL>
5.39844

>  <SCORE.SYSTEM.POLAR>
-3.40371

>  <SCORE.SYSTEM.SOLV>
0.340006

>  <SCORE.SYSTEM.VDW>
-5.01233

>  <SCORE.SYSTEM.norm>
-1.80565

>  <SCORE.heavy>
12

>  <SCORE.norm>
-3.50255

$$$$
P129960895
 OpenBabel12072022103D
libRbt.so/2013.1/901 2013/11/27
 11 11  0  0  0  0  0  0  0  0999 V2000
   20.7641  -15.9984    4.0603 C   0  0  0  0  0  0  0  0  0  0  0  0
   19.8425  -17.2013    3.8492 C   0  0  2  0  0  0  0  0  0  0  0  0
   20.0932  -18.3578    4.8434 C   0  0  2  0  0  0  0  0  0  0  0  0
   19.0954  -19.5090    4.7670 C   0  0  0  0  0  0  0  0  0  0  0  0
   18.2506  -19.3381    6.0063 C   0  0  0  0  0  0  0  0  0  0  0  0
   19.2297  -18.7250    6.9782 C   0  0  0  0  0  0  0  0  0  0  0  0
   20.0574  -17.8536    6.1996 O   0  0  0  0  0  0  0  0  0  0  0  0
   20.0069  -17.6999    2.4842 N   0  0  0  0  0  0  0  0  0  0  0  0
   19.0525  -18.4431    1.8461 C   0  0  0  0  0  0  0  0  0  0  0  0
   18.0105  -18.8447    2.3426 O   0  0  0  0  0  0  0  0  0  0  0  0
   20.7786  -17.3173    1.9486 H   0  0  0  0  0  0  0  0  0  0  0  0
  2  8  1  0  0  0  0
  2  1  1  1  0  0  0
  3  4  1  0  0  0  0
  3  7  1  0  0  0  0
  3  2  1  6  0  0  0
  4  5  1  0  0  0  0
  5  6  1  0  0  0  0
  6  7  1  0  0  0  0
  8  9  1  0  0  0  0
  8 11  1  0  0  0  0
  9 10  2  0  0  0  0
M  END
>  <CHROM.0>
-50.61679236,-174.38420210,-59.73222950,-52.99391500,-57.42983014,-56.72199336
-59.71580284,-50.50550400,-167.39243761,160.25777464

>  <CHROM.1>
-157.59741207,173.49453164,19.44304417,-18.18381383,4.33473660,-1.56812586
0.86982515,1.74546319

>  <Name>
P129960895

>  <RI>
0

>  <Rbt.Current_Directory>
/home/fstefaniak/projects/zuza/docking/adenine/1Y26

>  <Rbt.Executable>
rbdock ($Id: //depot/dev/client3/rdock/2013.1/src/exe/rbdock.cxx#4 $)

>  <Rbt.Library>
libRbt.so (2013.1, Build901 2013/11/27)

>  <Rbt.Parameter_File>
/home/fstefaniak/progs/rDock//data/scripts/dock_solv.prm

>  <Rbt.Receptor>
1y26.prm

>  <SCORE>
-45.0486

>  <SCORE.INTER>
-23.9906

>  <SCORE.INTER.CONST>
1

>  <SCORE.INTER.POLAR>
-1.67719

>  <SCORE.INTER.ROT>
2

>  <SCORE.INTER.SOLV>
10.7961

>  <SCORE.INTER.VDW>
-18.9352

>  <SCORE.INTER.norm>
-2.39906

>  <SCORE.INTRA>
1.3192

>  <SCORE.INTRA.DIHEDRAL>
0.804085

>  <SCORE.INTRA.DIHEDRAL.0>
0.846562

>  <SCORE.INTRA.POLAR>
0

>  <SCORE.INTRA.POLAR.0>
0

>  <SCORE.INTRA.REPUL>
0

>  <SCORE.INTRA.REPUL.0>
0

>  <SCORE.INTRA.SOLV>
0.243932

>  <SCORE.INTRA.SOLV.lig_0>
-10.6719

>  <SCORE.INTRA.VDW>
0.795196

>  <SCORE.INTRA.VDW.0>
0.369087

>  <SCORE.INTRA.norm>
0.13192

>  <SCORE.RESTR>
0

>  <SCORE.RESTR.CAVITY>
0

>  <SCORE.RESTR.norm>
0

>  <SCORE.SYSTEM>
-22.3772

>  <SCORE.SYSTEM.CONST>
0

>  <SCORE.SYSTEM.DIHEDRAL>
5.69331

>  <SCORE.SYSTEM.POLAR>
-3.45858

>  <SCORE.SYSTEM.SOLV>
0.59976

>  <SCORE.SYSTEM.VDW>
-5.48721

>  <SCORE.SYSTEM.norm>
-2.23772

>  <SCORE.heavy>
10

>  <SCORE.norm>
-4.50486

$$$$
P129960895
 OpenBabel12072022103D
libRbt.so/2013.1/901 2013/11/27
 11 11  0  0  0  0  0  0  0  0999 V2000
   20.7491  -15.9996    4.0564 C   0  0  0  0  0  0  0  0  0  0  0  0
   19.8277  -17.2029    3.8470 C   0  0  2  0  0  0  0  0  0  0  0  0
   20.0781  -18.3577    4.8433 C   0  0  2  0  0  0  0  0  0  0  0  0
   19.0853  -19.5128    4.7630 C   0  0  0  0  0  0  0  0  0  0  0  0
   18.2338  -19.3443    5.9981 C   0  0  0  0  0  0  0  0  0  0  0  0
   19.2058  -18.7266    6.9743 C   0  0  0  0  0  0  0  0  0  0  0  0
   20.0338  -17.8527    6.1989 O   0  0  0  0  0  0  0  0  0  0  0  0
   19.9926  -17.7038    2.4829 N   0  0  0  0  0  0  0  0  0  0  0  0
   19.0278  -18.4259    1.8364 C   0  0  0  0  0  0  0  0  0  0  0  0
   17.9735  -18.8057    2.3240 O   0  0  0  0  0  0  0  0  0  0  0  0
   20.7766  -17.3373    1.9541 H   0  0  0  0  0  0  0  0  0  0  0  0
  2  8  1  0  0  0  0
  2  1  1  1  0  0  0
  3  4  1  0  0  0  0
  3  7  1  0  0  0  0
  3  2  1  6  0  0  0
  4  5  1  0  0  0  0
  5  6  1  0  0  0  0
  6  7  1  0  0  0  0
  8  9  1  0  0  0  0
  8 11  1  0  0  0  0
  9 10  2  0  0  0  0
M  END
>  <CHROM.0>
-52.25357164,-176.63018485,-55.60499792,-52.60285642,-57.97102246,-62.06835234
-61.08281717,-52.47737182,-168.73951568,160.38371482

>  <CHROM.1>
-156.28382143,173.83499707,19.42334687,-18.17971960,4.32943393,-1.57170908
0.86472617,1.75142285

>  <Name>
P129960895

>  <RI>
0

>  <Rbt.Current_Directory>
/home/fstefaniak/projects/zuza/docking/adenine/1Y26

>  <Rbt.Executable>
rbdock ($Id: //depot/dev/client3/rdock/2013.1/src/exe/rbdock.cxx#4 $)

>  <Rbt.Library>
libRbt.so (2013.1, Build901 2013/11/27)

>  <Rbt.Parameter_File>
/home/fstefaniak/progs/rDock//data/scripts/dock_solv.prm

>  <Rbt.Receptor>
1y26.prm

>  <SCORE>
-45.0402

>  <SCORE.INTER>
-23.7165

>  <SCORE.INTER.CONST>
1

>  <SCORE.INTER.POLAR>
-1.59421

>  <SCORE.INTER.ROT>
2

>  <SCORE.INTER.SOLV>
10.7846

>  <SCORE.INTER.VDW>
-19.0252

>  <SCORE.INTER.norm>
-2.37165

>  <SCORE.INTRA>
1.09985

>  <SCORE.INTRA.DIHEDRAL>
0.80422

>  <SCORE.INTRA.DIHEDRAL.0>
0.846562

>  <SCORE.INTRA.POLAR>
0

>  <SCORE.INTRA.POLAR.0>
0

>  <SCORE.INTRA.REPUL>
0

>  <SCORE.INTRA.REPUL.0>
0

>  <SCORE.INTRA.SOLV>
0.235858

>  <SCORE.INTRA.SOLV.lig_0>
-10.6719

>  <SCORE.INTRA.VDW>
0.579813

>  <SCORE.INTRA.VDW.0>
0.369087

>  <SCORE.INTRA.norm>
0.109985

>  <SCORE.RESTR>
0

>  <SCORE.RESTR.CAVITY>
0

>  <SCORE.RESTR.norm>
0

>  <SCORE.SYSTEM>
-22.4235

>  <SCORE.SYSTEM.CONST>
0

>  <SCORE.SYSTEM.DIHEDRAL>
5.23857

>  <SCORE.SYSTEM.POLAR>
-3.42342

>  <SCORE.SYSTEM.SOLV>
0.594076

>  <SCORE.SYSTEM.VDW>
-5.48181

>  <SCORE.SYSTEM.norm>
-2.24235

>  <SCORE.heavy>
10

>  <SCORE.norm>
-4.50402

$$$$
P129960895
 OpenBabel12072022103D
libRbt.so/2013.1/901 2013/11/27
 11 11  0  0  0  0  0  0  0  0999 V2000
   22.0440  -13.9713    4.7588 C   0  0  0  0  0  0  0  0  0  0  0  0
   21.9765  -15.2532    3.9264 C   0  0  2  0  0  0  0  0  0  0  0  0
   20.5556  -15.8525    3.8229 C   0  0  2  0  0  0  0  0  0  0  0  0
   20.1198  -16.7021    5.0124 C   0  0  0  0  0  0  0  0  0  0  0  0
   20.1754  -18.1160    4.4865 C   0  0  0  0  0  0  0  0  0  0  0  0
   19.8480  -17.9263    3.0249 C   0  0  0  0  0  0  0  0  0  0  0  0
   20.4620  -16.6894    2.6458 O   0  0  0  0  0  0  0  0  0  0  0  0
   22.8754  -16.2510    4.5053 N   0  0  0  0  0  0  0  0  0  0  0  0
   24.1366  -16.4789    4.0278 C   0  0  0  0  0  0  0  0  0  0  0  0
   24.6304  -15.9575    3.0389 O   0  0  0  0  0  0  0  0  0  0  0  0
   22.6046  -16.6445    5.4000 H   0  0  0  0  0  0  0  0  0  0  0  0
  2  8  1  0  0  0  0
  2  1  1  1  0  0  0
  3  4  1  0  0  0  0
  3  7  1  0  0  0  0
  3  2  1  1  0  0  0
  4  5  1  0  0  0  0
  5  6  1  0  0  0  0
  6  7  1  0  0  0  0
  8  9  1  0  0  0  0
  8 11  1  0  0  0  0
  9 10  2  0  0  0  0
M  END
>  <CHROM.0>
-50.84456400,-63.77377126,-54.95460518,-53.16584312,-177.42206300,-60.08509123
-60.44058197,-52.08481200,-165.78606037,160.44267750

>  <CHROM.1>
-98.00103032,-81.92437037,21.70362633,-16.31536328,3.91130048,0.39066624
0.17835751,0.43966655

>  <Name>
P129960895

>  <RI>
0

>  <Rbt.Current_Directory>
/home/fstefaniak/projects/zuza/docking/adenine/1Y26

>  <Rbt.Executable>
rbdock ($Id: //depot/dev/client3/rdock/2013.1/src/exe/rbdock.cxx#4 $)

>  <Rbt.Library>
libRbt.so (2013.1, Build901 2013/11/27)

>  <Rbt.Parameter_File>
/home/fstefaniak/progs/rDock//data/scripts/dock_solv.prm

>  <Rbt.Receptor>
1y26.prm

>  <SCORE>
-45.0023

>  <SCORE.INTER>
-23.2317

>  <SCORE.INTER.CONST>
1

>  <SCORE.INTER.POLAR>
-2.34087

>  <SCORE.INTER.ROT>
2

>  <SCORE.INTER.SOLV>
9.06928

>  <SCORE.INTER.VDW>
-15.6413

>  <SCORE.INTER.norm>
-2.32317

>  <SCORE.INTRA>
0.484204

>  <SCORE.INTRA.DIHEDRAL>
1.6921

>  <SCORE.INTRA.DIHEDRAL.0>
0.846562

>  <SCORE.INTRA.POLAR>
0

>  <SCORE.INTRA.POLAR.0>
0

>  <SCORE.INTRA.REPUL>
0

>  <SCORE.INTRA.REPUL.0>
0

>  <SCORE.INTRA.SOLV>
0.486866

>  <SCORE.INTRA.SOLV.lig_0>
-10.6719

>  <SCORE.INTRA.VDW>
-0.605279

>  <SCORE.INTRA.VDW.0>
0.369087

>  <SCORE.INTRA.norm>
0.0484204

>  <SCORE.RESTR>
0

>  <SCORE.RESTR.CAVITY>
0

>  <SCORE.RESTR.norm>
0

>  <SCORE.SYSTEM>
-22.2548

>  <SCORE.SYSTEM.CONST>
0

>  <SCORE.SYSTEM.DIHEDRAL>
5.68441

>  <SCORE.SYSTEM.POLAR>
-3.47115

>  <SCORE.SYSTEM.SOLV>
0.491339

>  <SCORE.SYSTEM.VDW>
-5.32461

>  <SCORE.SYSTEM.norm>
-2.22548

>  <SCORE.heavy>
10

>  <SCORE.norm>
-4.50023

$$$$
P129962631
 OpenBabel12072022103D
libRbt.so/2013.1/901 2013/11/27
 10 10  0  0  0  0  0  0  0  0999 V2000
   19.1487  -18.8355    7.1936 C   0  0  0  0  0  0  0  0  0  0  0  0
   18.9923  -19.8167    6.0665 C   0  0  0  0  0  0  0  0  0  0  0  0
   19.9349  -18.6442    5.9169 C   0  0  0  0  0  0  0  0  0  0  0  0
   19.6089  -17.5016    4.9908 C   0  0  2  0  0  0  0  0  0  0  0  0
   18.9928  -18.1804    3.7783 C   0  0  0  0  0  0  0  0  0  0  0  0
   18.4817  -18.7435    2.7724 N   0  0  0  0  0  0  0  0  0  0  0  0
   20.8287  -16.8031    4.6408 N   0  0  0  0  0  0  0  0  0  0  0  0
   21.0385  -16.3342    3.3744 C   0  0  0  0  0  0  0  0  0  0  0  0
   20.2830  -16.4918    2.4275 O   0  0  0  0  0  0  0  0  0  0  0  0
   21.4831  -16.5564    5.3719 H   0  0  0  0  0  0  0  0  0  0  0  0
  1  2  1  0  0  0  0
  1  3  1  0  0  0  0
  2  3  1  0  0  0  0
  4  5  1  6  0  0  0
  4  7  1  0  0  0  0
  4  3  1  0  0  0  0
  5  6  3  0  0  0  0
  7  8  1  0  0  0  0
  7 10  1  0  0  0  0
  8  9  2  0  0  0  0
M  END
>  <CHROM.0>
-49.46363784,-63.63233566,-56.71654791,-52.79873890,-56.98529465,-58.89542857
-57.61408167,-176.99128634,-167.70089490,160.31172156

>  <CHROM.1>
140.74328129,-109.92920421,19.72426795,-17.90047019,4.55445965,-1.96046462
-0.82112232,-1.25276795

>  <Name>
P129962631

>  <RI>
0

>  <Rbt.Current_Directory>
/home/fstefaniak/projects/zuza/docking/adenine/1Y26

>  <Rbt.Executable>
rbdock ($Id: //depot/dev/client3/rdock/2013.1/src/exe/rbdock.cxx#4 $)

>  <Rbt.Library>
libRbt.so (2013.1, Build901 2013/11/27)

>  <Rbt.Parameter_File>
/home/fstefaniak/progs/rDock//data/scripts/dock_solv.prm

>  <Rbt.Receptor>
1y26.prm

>  <SCORE>
-45.8125

>  <SCORE.INTER>
-26.1543

>  <SCORE.INTER.CONST>
1

>  <SCORE.INTER.POLAR>
-3.11025

>  <SCORE.INTER.ROT>
2

>  <SCORE.INTER.SOLV>
9.66815

>  <SCORE.INTER.VDW>
-15.2248

>  <SCORE.INTER.norm>
-2.90604

>  <SCORE.INTRA>
3.01791

>  <SCORE.INTRA.DIHEDRAL>
-1.01181

>  <SCORE.INTRA.DIHEDRAL.0>
3.74909

>  <SCORE.INTRA.POLAR>
0

>  <SCORE.INTRA.POLAR.0>
0

>  <SCORE.INTRA.REPUL>
0

>  <SCORE.INTRA.REPUL.0>
0

>  <SCORE.INTRA.SOLV>
0.435008

>  <SCORE.INTRA.SOLV.lig_0>
-12.3972

>  <SCORE.INTRA.VDW>
3.30631

>  <SCORE.INTRA.VDW.0>
-1.14106

>  <SCORE.INTRA.norm>
0.335323

>  <SCORE.RESTR>
0

>  <SCORE.RESTR.CAVITY>
0

>  <SCORE.RESTR.norm>
0

>  <SCORE.SYSTEM>
-22.676

>  <SCORE.SYSTEM.CONST>
0

>  <SCORE.SYSTEM.DIHEDRAL>
5.36546

>  <SCORE.SYSTEM.POLAR>
-3.43753

>  <SCORE.SYSTEM.SOLV>
0.454832

>  <SCORE.SYSTEM.VDW>
-5.59901

>  <SCORE.SYSTEM.norm>
-2.51956

>  <SCORE.heavy>
9

>  <SCORE.norm>
-5.09027

$$$$
P129962631
 OpenBabel12072022103D
libRbt.so/2013.1/901 2013/11/27
 10 10  0  0  0  0  0  0  0  0999 V2000
   19.1568  -18.8297    7.1805 C   0  0  0  0  0  0  0  0  0  0  0  0
   19.0647  -19.8290    6.0622 C   0  0  0  0  0  0  0  0  0  0  0  0
   19.9687  -18.6253    5.9221 C   0  0  0  0  0  0  0  0  0  0  0  0
   19.6267  -17.5059    4.9736 C   0  0  2  0  0  0  0  0  0  0  0  0
   19.0504  -18.2194    3.7614 C   0  0  0  0  0  0  0  0  0  0  0  0
   18.5723  -18.8113    2.7559 N   0  0  0  0  0  0  0  0  0  0  0  0
   20.8323  -16.7786    4.6334 N   0  0  0  0  0  0  0  0  0  0  0  0
   21.0418  -16.3064    3.3681 C   0  0  0  0  0  0  0  0  0  0  0  0
   20.2988  -16.4834    2.4149 O   0  0  0  0  0  0  0  0  0  0  0  0
   21.4741  -16.5152    5.3698 H   0  0  0  0  0  0  0  0  0  0  0  0
  1  2  1  0  0  0  0
  1  3  1  0  0  0  0
  2  3  1  0  0  0  0
  4  5  1  6  0  0  0
  4  7  1  0  0  0  0
  4  3  1  0  0  0  0
  5  6  3  0  0  0  0
  7  8  1  0  0  0  0
  7 10  1  0  0  0  0
  8  9  2  0  0  0  0
M  END
>  <CHROM.0>
-48.68982268,-60.85802570,-52.72778002,-52.97746115,-176.00296426,-60.93136314
-61.44564862,-176.45034628,-165.81289494,161.25951244

>  <CHROM.1>
141.66118903,-109.23042544,19.75726668,-17.90400851,4.54459550,-1.97150978
-0.85631711,-1.26845018

>  <Name>
P129962631

>  <RI>
0

>  <Rbt.Current_Directory>
/home/fstefaniak/projects/zuza/docking/adenine/1Y26

>  <Rbt.Executable>
rbdock ($Id: //depot/dev/client3/rdock/2013.1/src/exe/rbdock.cxx#4 $)

>  <Rbt.Library>
libRbt.so (2013.1, Build901 2013/11/27)

>  <Rbt.Parameter_File>
/home/fstefaniak/progs/rDock//data/scripts/dock_solv.prm

>  <Rbt.Receptor>
1y26.prm

>  <SCORE>
-45.7177

>  <SCORE.INTER>
-26.0651

>  <SCORE.INTER.CONST>
1

>  <SCORE.INTER.POLAR>
-3.09601

>  <SCORE.INTER.ROT>
2

>  <SCORE.INTER.SOLV>
9.69185

>  <SCORE.INTER.VDW>
-15.2206

>  <SCORE.INTER.norm>
-2.89612

>  <SCORE.INTRA>
2.96445

>  <SCORE.INTRA.DIHEDRAL>
-1.0091

>  <SCORE.INTRA.DIHEDRAL.0>
3.74909

>  <SCORE.INTRA.POLAR>
0

>  <SCORE.INTRA.POLAR.0>
0

>  <SCORE.INTRA.REPUL>
0

>  <SCORE.INTRA.REPUL.0>
0

>  <SCORE.INTRA.SOLV>
0.430458

>  <SCORE.INTRA.SOLV.lig_0>
-12.3972

>  <SCORE.INTRA.VDW>
3.25377

>  <SCORE.INTRA.VDW.0>
-1.14106

>  <SCORE.INTRA.norm>
0.329384

>  <SCORE.RESTR>
0

>  <SCORE.RESTR.CAVITY>
0

>  <SCORE.RESTR.norm>
0

>  <SCORE.SYSTEM>
-22.6171

>  <SCORE.SYSTEM.CONST>
0

>  <SCORE.SYSTEM.DIHEDRAL>
5.67086

>  <SCORE.SYSTEM.POLAR>
-3.46892

>  <SCORE.SYSTEM.SOLV>
0.285461

>  <SCORE.SYSTEM.VDW>
-5.50044

>  <SCORE.SYSTEM.norm>
-2.51301

>  <SCORE.heavy>
9

>  <SCORE.norm>
-5.07974

$$$$
P129962631
 OpenBabel12072022103D
libRbt.so/2013.1/901 2013/11/27
 10 10  0  0  0  0  0  0  0  0999 V2000
   19.1416  -18.8469    7.1931 C   0  0  0  0  0  0  0  0  0  0  0  0
   19.0124  -19.8274    6.0620 C   0  0  0  0  0  0  0  0  0  0  0  0
   19.9402  -18.6415    5.9264 C   0  0  0  0  0  0  0  0  0  0  0  0
   19.6094  -17.5013    4.9991 C   0  0  2  0  0  0  0  0  0  0  0  0
   18.9992  -18.1842    3.7859 C   0  0  0  0  0  0  0  0  0  0  0  0
   18.4929  -18.7508    2.7796 N   0  0  0  0  0  0  0  0  0  0  0  0
   20.8260  -16.7963    4.6507 N   0  0  0  0  0  0  0  0  0  0  0  0
   21.0285  -16.3133    3.3883 C   0  0  0  0  0  0  0  0  0  0  0  0
   20.2687  -16.4625    2.4436 O   0  0  0  0  0  0  0  0  0  0  0  0
   21.4834  -16.5559    5.3812 H   0  0  0  0  0  0  0  0  0  0  0  0
  1  2  1  0  0  0  0
  1  3  1  0  0  0  0
  2  3  1  0  0  0  0
  4  5  1  6  0  0  0
  4  7  1  0  0  0  0
  4  3  1  0  0  0  0
  5  6  3  0  0  0  0
  7  8  1  0  0  0  0
  7 10  1  0  0  0  0
  8  9  2  0  0  0  0
M  END
>  <CHROM.0>
-49.03320024,-62.28253708,-54.70737701,-49.88027053,-56.52328915,-58.93256893
-56.81452750,-50.96688623,-166.27477973,161.08727279

>  <CHROM.1>
141.51527998,-109.14820792,19.72503889,-17.89711122,4.56205180,-1.96088049
-0.82995983,-1.24675770

>  <Name>
P129962631

>  <RI>
0

>  <Rbt.Current_Directory>
/home/fstefaniak/projects/zuza/docking/adenine/1Y26

>  <Rbt.Executable>
rbdock ($Id: //depot/dev/client3/rdock/2013.1/src/exe/rbdock.cxx#4 $)

>  <Rbt.Library>
libRbt.so (2013.1, Build901 2013/11/27)

>  <Rbt.Parameter_File>
/home/fstefaniak/progs/rDock//data/scripts/dock_solv.prm

>  <Rbt.Receptor>
1y26.prm

>  <SCORE>
-45.3189

>  <SCORE.INTER>
-26.1271

>  <SCORE.INTER.CONST>
1

>  <SCORE.INTER.POLAR>
-3.10267

>  <SCORE.INTER.ROT>
2

>  <SCORE.INTER.SOLV>
9.69959

>  <SCORE.INTER.VDW>
-15.2424

>  <SCORE.INTER.norm>
-2.90301

>  <SCORE.INTRA>
2.98454

>  <SCORE.INTRA.DIHEDRAL>
-1.00681

>  <SCORE.INTRA.DIHEDRAL.0>
3.74909

>  <SCORE.INTRA.POLAR>
0

>  <SCORE.INTRA.POLAR.0>
0

>  <SCORE.INTRA.REPUL>
0

>  <SCORE.INTRA.REPUL.0>
0

>  <SCORE.INTRA.SOLV>
0.431641

>  <SCORE.INTRA.SOLV.lig_0>
-12.3972

>  <SCORE.INTRA.VDW>
3.27213

>  <SCORE.INTRA.VDW.0>
-1.14106

>  <SCORE.INTRA.norm>
0.331616

>  <SCORE.RESTR>
0

>  <SCORE.RESTR.CAVITY>
0

>  <SCORE.RESTR.norm>
0

>  <SCORE.SYSTEM>
-22.1764

>  <SCORE.SYSTEM.CONST>
0

>  <SCORE.SYSTEM.DIHEDRAL>
6.07903

>  <SCORE.SYSTEM.POLAR>
-3.54772

>  <SCORE.SYSTEM.SOLV>
0.677383

>  <SCORE.SYSTEM.VDW>
-5.21063

>  <SCORE.SYSTEM.norm>
-2.46404

>  <SCORE.heavy>
9

>  <SCORE.norm>
-5.03544

$$$$
P129973817
 OpenBabel12072022103D
libRbt.so/2013.1/901 2013/11/27
 12 11  0  0  0  0  0  0  0  0999 V2000
   21.4474  -15.5483    4.0434 C   0  0  0  0  0  0  0  0  0  0  0  0
   22.8534  -14.9761    4.1588 C   0  0  1  0  0  0  0  0  0  0  0  0
   22.7897  -13.5415    4.6829 C   0  0  0  0  0  0  0  0  0  0  0  0
   21.7731  -13.0831    5.2111 O   0  0  0  0  0  0  0  0  0  0  0  0
   24.0255  -12.7000    4.5016 C   0  0  0  0  0  0  0  0  0  0  0  0
   23.6734  -15.7415    5.0840 N   0  0  0  0  0  0  0  0  0  0  0  0
   24.5633  -16.6709    4.6530 C   0  0  0  0  0  0  0  0  0  0  0  0
   24.4678  -17.3134    3.6187 O   0  0  0  0  0  0  0  0  0  0  0  0
   25.6109  -16.8198    5.4986 N   0  0  0  0  0  0  0  0  0  0  0  0
   23.3463  -15.8031    6.0406 H   0  0  0  0  0  0  0  0  0  0  0  0
   25.9003  -17.7635    5.7097 H   0  0  0  0  0  0  0  0  0  0  0  0
   25.5795  -16.1934    6.2930 H   0  0  0  0  0  0  0  0  0  0  0  0
  2  1  1  1  0  0  0
  2  3  1  0  0  0  0
  2  6  1  0  0  0  0
  3  4  2  0  0  0  0
  3  5  1  0  0  0  0
  6  7  1  0  0  0  0
  6 10  1  0  0  0  0
  7  8  2  0  0  0  0
  7  9  1  0  0  0  0
  9 11  1  0  0  0  0
  9 12  1  0  0  0  0
M  END
>  <CHROM.0>
-48.35530953,-171.27874608,-52.83792998,-52.72053193,-62.40328178,-58.57806463
-57.43264255,-49.15145039,-166.33886278,160.70167662

>  <CHROM.1>
15.36319979,99.34991573,-28.08508779,135.56108091,23.47751077,-15.17611108
4.62890898,2.19577972,-0.27606364,0.21419822

>  <Name>
P129973817

>  <RI>
0

>  <Rbt.Current_Directory>
/home/fstefaniak/projects/zuza/docking/adenine/1Y26

>  <Rbt.Executable>
rbdock ($Id: //depot/dev/client3/rdock/2013.1/src/exe/rbdock.cxx#4 $)

>  <Rbt.Library>
libRbt.so (2013.1, Build901 2013/11/27)

>  <Rbt.Parameter_File>
/home/fstefaniak/progs/rDock//data/scripts/dock_solv.prm

>  <Rbt.Receptor>
1y26.prm

>  <SCORE>
-54.0182

>  <SCORE.INTER>
-32.383

>  <SCORE.INTER.CONST>
1

>  <SCORE.INTER.POLAR>
-4.96286

>  <SCORE.INTER.ROT>
4

>  <SCORE.INTER.SOLV>
12.2928

>  <SCORE.INTER.VDW>
-15.4101

>  <SCORE.INTER.norm>
-3.59812

>  <SCORE.INTRA>
0.406178

>  <SCORE.INTRA.DIHEDRAL>
-0.377595

>  <SCORE.INTRA.DIHEDRAL.0>
3.27417

>  <SCORE.INTRA.POLAR>
0

>  <SCORE.INTRA.POLAR.0>
0

>  <SCORE.INTRA.REPUL>
0

>  <SCORE.INTRA.REPUL.0>
0

>  <SCORE.INTRA.SOLV>
-0.00379965

>  <SCORE.INTRA.SOLV.lig_0>
-16.0052

>  <SCORE.INTRA.VDW>
0.596875

>  <SCORE.INTRA.VDW.0>
-0.310316

>  <SCORE.INTRA.norm>
0.0451309

>  <SCORE.RESTR>
0.209181

>  <SCORE.RESTR.CAVITY>
0.209181

>  <SCORE.RESTR.norm>
0.0232423

>  <SCORE.SYSTEM>
-22.2505

>  <SCORE.SYSTEM.CONST>
0

>  <SCORE.SYSTEM.DIHEDRAL>
6.53827

>  <SCORE.SYSTEM.POLAR>
-3.54309

>  <SCORE.SYSTEM.SOLV>
0.606873

>  <SCORE.SYSTEM.VDW>
-5.40508

>  <SCORE.SYSTEM.norm>
-2.47228

>  <SCORE.heavy>
9

>  <SCORE.norm>
-6.00202

$$$$
P129973817
 OpenBabel12072022103D
libRbt.so/2013.1/901 2013/11/27
 12 11  0  0  0  0  0  0  0  0999 V2000
   18.2643  -18.3000    1.8643 C   0  0  0  0  0  0  0  0  0  0  0  0
   18.9516  -18.4396    3.2154 C   0  0  1  0  0  0  0  0  0  0  0  0
   19.9072  -17.2671    3.4366 C   0  0  0  0  0  0  0  0  0  0  0  0
   20.1897  -16.4749    2.5337 O   0  0  0  0  0  0  0  0  0  0  0  0
   20.5109  -17.1368    4.8102 C   0  0  0  0  0  0  0  0  0  0  0  0
   17.9952  -18.4343    4.3106 N   0  0  0  0  0  0  0  0  0  0  0  0
   18.0607  -19.3346    5.3239 C   0  0  0  0  0  0  0  0  0  0  0  0
   18.9591  -20.1448    5.4914 O   0  0  0  0  0  0  0  0  0  0  0  0
   17.0067  -19.2436    6.1697 N   0  0  0  0  0  0  0  0  0  0  0  0
   17.1108  -17.9704    4.1422 H   0  0  0  0  0  0  0  0  0  0  0  0
   16.8407  -18.3467    6.6020 H   0  0  0  0  0  0  0  0  0  0  0  0
   16.9160  -20.0403    6.7875 H   0  0  0  0  0  0  0  0  0  0  0  0
  2  1  1  6  0  0  0
  2  3  1  0  0  0  0
  2  6  1  0  0  0  0
  3  4  2  0  0  0  0
  3  5  1  0  0  0  0
  6  7  1  0  0  0  0
  6 10  1  0  0  0  0
  7  8  2  0  0  0  0
  7  9  1  0  0  0  0
  9 11  1  0  0  0  0
  9 12  1  0  0  0  0
M  END
>  <CHROM.0>
62.50004543,-58.99960986,-56.20405727,-51.87292922,-56.48794157,-177.03376903
-56.34742112,-51.73258058,-165.67219184,160.95967360

>  <CHROM.1>
-10.11505947,134.15725817,6.59560724,-56.60255816,18.85281616,-18.30946411
4.15144158,0.95753441,-0.61686830,-1.26649622

>  <Name>
P129973817

>  <RI>
0

>  <Rbt.Current_Directory>
/home/fstefaniak/projects/zuza/docking/adenine/1Y26

>  <Rbt.Executable>
rbdock ($Id: //depot/dev/client3/rdock/2013.1/src/exe/rbdock.cxx#4 $)

>  <Rbt.Library>
libRbt.so (2013.1, Build901 2013/11/27)

>  <Rbt.Parameter_File>
/home/fstefaniak/progs/rDock//data/scripts/dock_solv.prm

>  <Rbt.Receptor>
1y26.prm

>  <SCORE>
-52.5704

>  <SCORE.INTER>
-33.3722

>  <SCORE.INTER.CONST>
1

>  <SCORE.INTER.POLAR>
-5.12328

>  <SCORE.INTER.ROT>
4

>  <SCORE.INTER.SOLV>
13.1071

>  <SCORE.INTER.VDW>
-15.8063

>  <SCORE.INTER.norm>
-3.70803

>  <SCORE.INTRA>
1.86517

>  <SCORE.INTRA.DIHEDRAL>
0.383977

>  <SCORE.INTRA.DIHEDRAL.0>
3.27417

>  <SCORE.INTRA.POLAR>
0

>  <SCORE.INTRA.POLAR.0>
0

>  <SCORE.INTRA.REPUL>
0

>  <SCORE.INTRA.REPUL.0>
0

>  <SCORE.INTRA.SOLV>
0.191964

>  <SCORE.INTRA.SOLV.lig_0>
-16.0052

>  <SCORE.INTRA.VDW>
1.5772

>  <SCORE.INTRA.VDW.0>
-0.310316

>  <SCORE.INTRA.norm>
0.207241

>  <SCORE.RESTR>
0

>  <SCORE.RESTR.CAVITY>
0

>  <SCORE.RESTR.norm>
0

>  <SCORE.SYSTEM>
-21.0633

>  <SCORE.SYSTEM.CONST>
0

>  <SCORE.SYSTEM.DIHEDRAL>
5.37711

>  <SCORE.SYSTEM.POLAR>
-3.25838

>  <SCORE.SYSTEM.SOLV>
0.504833

>  <SCORE.SYSTEM.VDW>
-5.1416

>  <SCORE.SYSTEM.norm>
-2.34037

>  <SCORE.heavy>
9

>  <SCORE.norm>
-5.84115

$$$$
P129973817
 OpenBabel12072022103D
libRbt.so/2013.1/901 2013/11/27
 12 11  0  0  0  0  0  0  0  0999 V2000
   18.2579  -18.3264    1.9252 C   0  0  0  0  0  0  0  0  0  0  0  0
   18.9193  -18.4099    3.2938 C   0  0  1  0  0  0  0  0  0  0  0  0
   19.8250  -17.1973    3.5085 C   0  0  0  0  0  0  0  0  0  0  0  0
   19.8496  -16.2513    2.7166 O   0  0  0  0  0  0  0  0  0  0  0  0
   20.7100  -17.2218    4.7269 C   0  0  0  0  0  0  0  0  0  0  0  0
   17.9389  -18.4165    4.3676 N   0  0  0  0  0  0  0  0  0  0  0  0
   17.9889  -19.3207    5.3783 C   0  0  0  0  0  0  0  0  0  0  0  0
   18.8766  -20.1422    5.5472 O   0  0  0  0  0  0  0  0  0  0  0  0
   16.9323  -19.2194    6.2197 N   0  0  0  0  0  0  0  0  0  0  0  0
   17.0549  -17.9586    4.1815 H   0  0  0  0  0  0  0  0  0  0  0  0
   16.7618  -18.3160    6.6363 H   0  0  0  0  0  0  0  0  0  0  0  0
   16.8430  -20.0059    6.8507 H   0  0  0  0  0  0  0  0  0  0  0  0
  2  1  1  6  0  0  0
  2  3  1  0  0  0  0
  2  6  1  0  0  0  0
  3  4  2  0  0  0  0
  3  5  1  0  0  0  0
  6  7  1  0  0  0  0
  6 10  1  0  0  0  0
  7  8  2  0  0  0  0
  7  9  1  0  0  0  0
  9 11  1  0  0  0  0
  9 12  1  0  0  0  0
M  END
>  <CHROM.0>
-53.70836756,57.23845968,-58.58511887,-50.34339654,-175.92712635,179.62781008
-64.68514089,-49.51967750,-164.02815856,160.76611803

>  <CHROM.1>
7.57824848,131.84821189,5.07376058,-55.12784576,18.79000691,-18.27871689
4.21027490,0.97638513,-0.58791785,-1.20276205

>  <Name>
P129973817

>  <RI>
0

>  <Rbt.Current_Directory>
/home/fstefaniak/projects/zuza/docking/adenine/1Y26

>  <Rbt.Executable>
rbdock ($Id: //depot/dev/client3/rdock/2013.1/src/exe/rbdock.cxx#4 $)

>  <Rbt.Library>
libRbt.so (2013.1, Build901 2013/11/27)

>  <Rbt.Parameter_File>
/home/fstefaniak/progs/rDock//data/scripts/dock_solv.prm

>  <Rbt.Receptor>
1y26.prm

>  <SCORE>
-52.3969

>  <SCORE.INTER>
-32.5175

>  <SCORE.INTER.CONST>
1

>  <SCORE.INTER.POLAR>
-5.12941

>  <SCORE.INTER.ROT>
4

>  <SCORE.INTER.SOLV>
13.2632

>  <SCORE.INTER.VDW>
-15.2681

>  <SCORE.INTER.norm>
-3.61306

>  <SCORE.INTRA>
1.34765

>  <SCORE.INTRA.DIHEDRAL>
0.322993

>  <SCORE.INTRA.DIHEDRAL.0>
3.27417

>  <SCORE.INTRA.POLAR>
0

>  <SCORE.INTRA.POLAR.0>
0

>  <SCORE.INTRA.REPUL>
0

>  <SCORE.INTRA.REPUL.0>
0

>  <SCORE.INTRA.SOLV>
0.136818

>  <SCORE.INTRA.SOLV.lig_0>
-16.0052

>  <SCORE.INTRA.VDW>
1.11774

>  <SCORE.INTRA.VDW.0>
-0.310316

>  <SCORE.INTRA.norm>
0.149739

>  <SCORE.RESTR>
0

>  <SCORE.RESTR.CAVITY>
0

>  <SCORE.RESTR.norm>
0

>  <SCORE.SYSTEM>
-21.227

>  <SCORE.SYSTEM.CONST>
0

>  <SCORE.SYSTEM.DIHEDRAL>
6.06901

>  <SCORE.SYSTEM.POLAR>
-3.47784

>  <SCORE.SYSTEM.SOLV>
0.387986

>  <SCORE.SYSTEM.VDW>
-4.71087

>  <SCORE.SYSTEM.norm>
-2.35855

>  <SCORE.heavy>
9

>  <SCORE.norm>
-5.82187

$$$$
P130426551
 OpenBabel12072022103D
libRbt.so/2013.1/901 2013/11/27
 15 16  0  0  0  0  0  0  0  0999 V2000
   21.0051  -17.1928    4.7711 C   0  0  0  0  0  0  0  0  0  0  0  0
   19.6019  -17.4431    5.3392 C   0  0  2  0  0  0  0  0  0  0  0  0
   19.7013  -17.8907    6.8070 C   0  0  0  0  0  0  0  0  0  0  0  0
   19.6918  -19.4213    6.7929 C   0  0  0  0  0  0  0  0  0  0  0  0
   19.4226  -19.8467    5.3489 C   0  0  0  0  0  0  0  0  0  0  0  0
   18.8478  -18.6065    4.6610 C   0  0  2  0  0  0  0  0  0  0  0  0
   18.8867  -18.5971    3.1698 C   0  0  0  0  0  0  0  0  0  0  0  0
   18.6825  -17.4089    2.5527 N   0  0  0  0  0  0  0  0  0  0  0  0
   18.2272  -17.7580    1.3332 N   0  5  0  0  0  0  0  0  0  0  0  0
   18.1572  -19.1051    1.2479 N   0  0  0  0  0  0  0  0  0  0  0  0
   18.5379  -19.6552    2.4213 N   0  0  0  0  0  0  0  0  0  0  0  0
   17.3726  -18.5107    5.0346 N   0  3  0  0  0  0  0  0  0  0  0  0
   17.0370  -19.4927    5.0100 H   0  0  0  0  0  0  0  0  0  0  0  0
   17.3214  -18.2744    6.0350 H   0  0  0  0  0  0  0  0  0  0  0  0
   16.7899  -17.9035    4.4639 H   0  0  0  0  0  0  0  0  0  0  0  0
  2  3  1  0  0  0  0
  2  6  1  0  0  0  0
  2  1  1  6  0  0  0
  3  4  1  0  0  0  0
  4  5  1  0  0  0  0
  5  6  1  0  0  0  0
  6 12  1  1  0  0  0
  6  7  1  0  0  0  0
  7  8  2  0  0  0  0
  7 11  1  0  0  0  0
  8  9  1  0  0  0  0
  9 10  1  0  0  0  0
 10 11  2  0  0  0  0
 12 13  1  0  0  0  0
 12 14  1  0  0  0  0
 12 15  1  0  0  0  0
M  CHG  2   9  -1  12   1
M  END
>  <CHROM.0>
-52.36316048,-56.58858700,-57.32343156,-50.20462116,-52.31571340,-59.69622035
-59.14312774,-50.75857309,-167.22640793,160.18408886

>  <CHROM.1>
-150.91019675,-43.98530259,18.98815463,-18.44977436,4.14476616,-1.09198493
-0.87548571,-1.20311721

>  <Name>
P130426551

>  <RI>
0

>  <Rbt.Current_Directory>
/home/fstefaniak/projects/zuza/docking/adenine/1Y26

>  <Rbt.Executable>
rbdock ($Id: //depot/dev/client3/rdock/2013.1/src/exe/rbdock.cxx#4 $)

>  <Rbt.Library>
libRbt.so (2013.1, Build901 2013/11/27)

>  <Rbt.Parameter_File>
/home/fstefaniak/progs/rDock//data/scripts/dock_solv.prm

>  <Rbt.Receptor>
1y26.prm

>  <SCORE>
-39.2545

>  <SCORE.INTER>
-18.7924

>  <SCORE.INTER.CONST>
1

>  <SCORE.INTER.POLAR>
-4.55577

>  <SCORE.INTER.ROT>
1

>  <SCORE.INTER.SOLV>
20.5831

>  <SCORE.INTER.VDW>
-8.47008

>  <SCORE.INTER.norm>
-1.56603

>  <SCORE.INTRA>
1.61991

>  <SCORE.INTRA.DIHEDRAL>
0.533998

>  <SCORE.INTRA.DIHEDRAL.0>
0.964793

>  <SCORE.INTRA.POLAR>
0.19666

>  <SCORE.INTRA.POLAR.0>
-0.19666

>  <SCORE.INTRA.REPUL>
0

>  <SCORE.INTRA.REPUL.0>
0

>  <SCORE.INTRA.SOLV>
-0.22374

>  <SCORE.INTRA.SOLV.lig_0>
-25.1069

>  <SCORE.INTRA.VDW>
0.796139

>  <SCORE.INTRA.VDW.0>
-0.980818

>  <SCORE.INTRA.norm>
0.134993

>  <SCORE.RESTR>
0

>  <SCORE.RESTR.CAVITY>
0

>  <SCORE.RESTR.norm>
0

>  <SCORE.SYSTEM>
-22.082

>  <SCORE.SYSTEM.CONST>
0

>  <SCORE.SYSTEM.DIHEDRAL>
5.89253

>  <SCORE.SYSTEM.POLAR>
-3.48989

>  <SCORE.SYSTEM.SOLV>
0.670061

>  <SCORE.SYSTEM.VDW>
-5.2759

>  <SCORE.SYSTEM.norm>
-1.84017

>  <SCORE.heavy>
12

>  <SCORE.norm>
-3.27121

$$$$
P130426551
 OpenBabel12072022103D
libRbt.so/2013.1/901 2013/11/27
 15 16  0  0  0  0  0  0  0  0999 V2000
   21.0242  -17.2070    4.7486 C   0  0  0  0  0  0  0  0  0  0  0  0
   19.6210  -17.4477    5.3210 C   0  0  2  0  0  0  0  0  0  0  0  0
   19.7207  -17.8736    6.7951 C   0  0  0  0  0  0  0  0  0  0  0  0
   19.7100  -19.4043    6.8037 C   0  0  0  0  0  0  0  0  0  0  0  0
   19.4398  -19.8507    5.3663 C   0  0  0  0  0  0  0  0  0  0  0  0
   18.8657  -18.6204    4.6604 C   0  0  2  0  0  0  0  0  0  0  0  0
   18.9039  -18.6331    3.1691 C   0  0  0  0  0  0  0  0  0  0  0  0
   18.7390  -17.4474    2.5356 N   0  0  0  0  0  0  0  0  0  0  0  0
   18.2716  -17.7981    1.3212 N   0  5  0  0  0  0  0  0  0  0  0  0
   18.1567  -19.1432    1.2547 N   0  0  0  0  0  0  0  0  0  0  0  0
   18.5195  -19.6893    2.4356 N   0  0  0  0  0  0  0  0  0  0  0  0
   17.3907  -18.5179    5.0332 N   0  3  0  0  0  0  0  0  0  0  0  0
   17.0556  -19.5004    5.0284 H   0  0  0  0  0  0  0  0  0  0  0  0
   17.3402  -18.2617    6.0287 H   0  0  0  0  0  0  0  0  0  0  0  0
   16.8073  -17.9224    4.4509 H   0  0  0  0  0  0  0  0  0  0  0  0
  2  3  1  0  0  0  0
  2  6  1  0  0  0  0
  2  1  1  6  0  0  0
  3  4  1  0  0  0  0
  4  5  1  0  0  0  0
  5  6  1  0  0  0  0
  6 12  1  1  0  0  0
  6  7  1  0  0  0  0
  7  8  2  0  0  0  0
  7 11  1  0  0  0  0
  8  9  1  0  0  0  0
  9 10  1  0  0  0  0
 10 11  2  0  0  0  0
 12 13  1  0  0  0  0
 12 14  1  0  0  0  0
 12 15  1  0  0  0  0
M  CHG  2   9  -1  12   1
M  END
>  <CHROM.0>
62.23106646,-54.67213032,-55.25241332,-52.22394182,-61.59656877,-55.41198157
-56.12474597,-174.71184898,-165.71422262,160.31007640

>  <CHROM.1>
-150.60613168,-42.12042416,19.00717339,-18.46579333,4.14180755,-1.09803008
-0.86707689,-1.22085659

>  <Name>
P130426551

>  <RI>
0

>  <Rbt.Current_Directory>
/home/fstefaniak/projects/zuza/docking/adenine/1Y26

>  <Rbt.Executable>
rbdock ($Id: //depot/dev/client3/rdock/2013.1/src/exe/rbdock.cxx#4 $)

>  <Rbt.Library>
libRbt.so (2013.1, Build901 2013/11/27)

>  <Rbt.Parameter_File>
/home/fstefaniak/progs/rDock//data/scripts/dock_solv.prm

>  <Rbt.Receptor>
1y26.prm

>  <SCORE>
-38.5326

>  <SCORE.INTER>
-18.736

>  <SCORE.INTER.CONST>
1

>  <SCORE.INTER.POLAR>
-4.57883

>  <SCORE.INTER.ROT>
1

>  <SCORE.INTER.SOLV>
20.5336

>  <SCORE.INTER.VDW>
-8.33909

>  <SCORE.INTER.norm>
-1.56133

>  <SCORE.INTRA>
1.66395

>  <SCORE.INTRA.DIHEDRAL>
0.558908

>  <SCORE.INTRA.DIHEDRAL.0>
0.964793

>  <SCORE.INTRA.POLAR>
0.19666

>  <SCORE.INTRA.POLAR.0>
-0.19666

>  <SCORE.INTRA.REPUL>
0

>  <SCORE.INTRA.REPUL.0>
0

>  <SCORE.INTRA.SOLV>
-0.224814

>  <SCORE.INTRA.SOLV.lig_0>
-25.1069

>  <SCORE.INTRA.VDW>
0.828257

>  <SCORE.INTRA.VDW.0>
-0.980818

>  <SCORE.INTRA.norm>
0.138662

>  <SCORE.RESTR>
0

>  <SCORE.RESTR.CAVITY>
0

>  <SCORE.RESTR.norm>
0

>  <SCORE.SYSTEM>
-21.4605

>  <SCORE.SYSTEM.CONST>
0

>  <SCORE.SYSTEM.DIHEDRAL>
5.44107

>  <SCORE.SYSTEM.POLAR>
-3.2588

>  <SCORE.SYSTEM.SOLV>
0.440716

>  <SCORE.SYSTEM.VDW>
-5.40493

>  <SCORE.SYSTEM.norm>
-1.78838

>  <SCORE.heavy>
12

>  <SCORE.norm>
-3.21105

$$$$
P130426551
 OpenBabel12072022103D
libRbt.so/2013.1/901 2013/11/27
 15 16  0  0  0  0  0  0  0  0999 V2000
   21.7296  -16.4909    3.8748 C   0  0  0  0  0  0  0  0  0  0  0  0
   22.9292  -16.3770    4.8247 C   0  0  2  0  0  0  0  0  0  0  0  0
   23.0500  -14.9363    5.3483 C   0  0  0  0  0  0  0  0  0  0  0  0
   24.0386  -14.2223    4.4231 C   0  0  0  0  0  0  0  0  0  0  0  0
   24.6055  -15.2848    3.4806 C   0  0  0  0  0  0  0  0  0  0  0  0
   24.2932  -16.6265    4.1468 C   0  0  2  0  0  0  0  0  0  0  0  0
   24.3486  -17.8317    3.2694 C   0  0  0  0  0  0  0  0  0  0  0  0
   23.3017  -18.0391    2.4355 N   0  0  0  0  0  0  0  0  0  0  0  0
   23.3300  -19.3682    2.2143 N   0  5  0  0  0  0  0  0  0  0  0  0
   24.3525  -19.9178    2.9066 N   0  0  0  0  0  0  0  0  0  0  0  0
   24.9894  -18.9596    3.6140 N   0  0  0  0  0  0  0  0  0  0  0  0
   25.3382  -16.8597    5.2325 N   0  3  0  0  0  0  0  0  0  0  0  0
   26.1226  -16.2312    4.9732 H   0  0  0  0  0  0  0  0  0  0  0  0
   24.9817  -16.4377    6.1008 H   0  0  0  0  0  0  0  0  0  0  0  0
   25.6564  -17.8156    5.3697 H   0  0  0  0  0  0  0  0  0  0  0  0
  2  3  1  0  0  0  0
  2  6  1  0  0  0  0
  2  1  1  6  0  0  0
  3  4  1  0  0  0  0
  4  5  1  0  0  0  0
  5  6  1  0  0  0  0
  6 12  1  1  0  0  0
  6  7  1  0  0  0  0
  7  8  2  0  0  0  0
  7 11  1  0  0  0  0
  8  9  1  0  0  0  0
  9 10  1  0  0  0  0
 10 11  2  0  0  0  0
 12 13  1  0  0  0  0
 12 14  1  0  0  0  0
 12 15  1  0  0  0  0
M  CHG  2   9  -1  12   1
M  END
>  <CHROM.0>
-52.02071368,-64.08282022,-57.28852685,-51.74281411,-60.27835031,-178.51661294
-59.29991162,-53.47739831,-167.76673558,160.28166220

>  <CHROM.1>
-130.85641297,43.93947353,23.87150635,-17.06773654,3.84150658,1.66121398
-0.31974588,0.46041528

>  <Name>
P130426551

>  <RI>
0

>  <Rbt.Current_Directory>
/home/fstefaniak/projects/zuza/docking/adenine/1Y26

>  <Rbt.Executable>
rbdock ($Id: //depot/dev/client3/rdock/2013.1/src/exe/rbdock.cxx#4 $)

>  <Rbt.Library>
libRbt.so (2013.1, Build901 2013/11/27)

>  <Rbt.Parameter_File>
/home/fstefaniak/progs/rDock//data/scripts/dock_solv.prm

>  <Rbt.Receptor>
1y26.prm

>  <SCORE>
-38.3765

>  <SCORE.INTER>
-21.6611

>  <SCORE.INTER.CONST>
1

>  <SCORE.INTER.POLAR>
-4.32593

>  <SCORE.INTER.ROT>
1

>  <SCORE.INTER.SOLV>
19.6732

>  <SCORE.INTER.VDW>
-10.8454

>  <SCORE.INTER.norm>
-1.80509

>  <SCORE.INTRA>
5.30743

>  <SCORE.INTRA.DIHEDRAL>
2.45646

>  <SCORE.INTRA.DIHEDRAL.0>
0.964793

>  <SCORE.INTRA.POLAR>
0.0417607

>  <SCORE.INTRA.POLAR.0>
-0.19666

>  <SCORE.INTRA.REPUL>
0

>  <SCORE.INTRA.REPUL.0>
0

>  <SCORE.INTRA.SOLV>
-0.270476

>  <SCORE.INTRA.SOLV.lig_0>
-25.1069

>  <SCORE.INTRA.VDW>
4.07246

>  <SCORE.INTRA.VDW.0>
-0.980818

>  <SCORE.INTRA.norm>
0.442286

>  <SCORE.RESTR>
0

>  <SCORE.RESTR.CAVITY>
0

>  <SCORE.RESTR.norm>
0

>  <SCORE.SYSTEM>
-22.0229

>  <SCORE.SYSTEM.CONST>
0

>  <SCORE.SYSTEM.DIHEDRAL>
5.30449

>  <SCORE.SYSTEM.POLAR>
-3.43894

>  <SCORE.SYSTEM.SOLV>
0.511996

>  <SCORE.SYSTEM.VDW>
-5.15762

>  <SCORE.SYSTEM.norm>
-1.83524

>  <SCORE.heavy>
12

>  <SCORE.norm>
-3.19804

$$$$
P130489237
 OpenBabel12072022103D
libRbt.so/2013.1/901 2013/11/27
 16 16  0  0  0  0  0  0  0  0999 V2000
   21.0677   -9.9923    7.3463 C   0  0  0  0  0  0  0  0  0  0  0  0
   21.9858  -11.2107    7.3148 C   0  0  0  0  0  0  0  0  0  0  0  0
   21.8219  -12.0559    6.1118 N   0  0  0  0  0  0  0  0  0  0  0  0
   22.3574  -11.3858    4.9174 C   0  0  0  0  0  0  0  0  0  0  0  0
   22.2267  -12.1498    3.5936 C   0  0  0  0  0  0  0  0  0  0  0  0
   23.2045  -13.3156    3.4686 C   0  0  0  0  0  0  0  0  0  0  0  0
   22.7300  -14.6175    4.1282 C   0  0  2  0  0  0  0  0  0  0  0  0
   21.8969  -14.4406    5.4013 C   0  0  0  0  0  0  0  0  0  0  0  0
   22.4225  -13.3775    6.3654 C   0  0  0  0  0  0  0  0  0  0  0  0
   23.9676  -15.5100    4.4054 C   0  0  0  0  0  0  0  0  0  0  0  0
   24.0288  -16.7122    4.1731 O   0  0  0  0  0  0  0  0  0  0  0  0
   25.0242  -14.8521    4.9749 N   0  0  0  0  0  0  0  0  0  0  0  0
   21.9215  -15.3208    3.1595 O   0  0  0  0  0  0  0  0  0  0  0  0
   25.3279  -15.1262    5.9028 H   0  0  0  0  0  0  0  0  0  0  0  0
   25.2310  -13.9186    4.6475 H   0  0  0  0  0  0  0  0  0  0  0  0
   21.6828  -16.1775    3.5574 H   0  0  0  0  0  0  0  0  0  0  0  0
  1  2  1  0  0  0  0
  2  3  1  0  0  0  0
  3  4  1  0  0  0  0
  3  9  1  0  0  0  0
  4  5  1  0  0  0  0
  5  6  1  0  0  0  0
  6  7  1  0  0  0  0
  7  8  1  0  0  0  0
  7 10  1  1  0  0  0
  7 13  1  0  0  0  0
  8  9  1  0  0  0  0
 10 11  2  0  0  0  0
 10 12  1  0  0  0  0
 12 14  1  0  0  0  0
 12 15  1  0  0  0  0
 13 16  1  0  0  0  0
M  END
>  <CHROM.0>
57.77919889,-66.52300057,-55.98606290,-49.35982548,-172.01436777,-173.77063858
-59.26839192,-52.58927931,-167.90151018,160.39241826

>  <CHROM.1>
71.23896942,-135.30205985,175.55319354,116.72292950,22.67173658,-13.48394513
5.02250964,-2.23253728,0.98024394,-2.06133439

>  <Name>
P130489237

>  <RI>
0

>  <Rbt.Current_Directory>
/home/fstefaniak/projects/zuza/docking/adenine/1Y26

>  <Rbt.Executable>
rbdock ($Id: //depot/dev/client3/rdock/2013.1/src/exe/rbdock.cxx#4 $)

>  <Rbt.Library>
libRbt.so (2013.1, Build901 2013/11/27)

>  <Rbt.Parameter_File>
/home/fstefaniak/progs/rDock//data/scripts/dock_solv.prm

>  <Rbt.Receptor>
1y26.prm

>  <SCORE>
-37.5445

>  <SCORE.INTER>
-17.033

>  <SCORE.INTER.CONST>
1

>  <SCORE.INTER.POLAR>
-2.43745

>  <SCORE.INTER.ROT>
3

>  <SCORE.INTER.SOLV>
10.4952

>  <SCORE.INTER.VDW>
-12.3289

>  <SCORE.INTER.norm>
-1.31023

>  <SCORE.INTRA>
-0.146698

>  <SCORE.INTRA.DIHEDRAL>
0.0996475

>  <SCORE.INTRA.DIHEDRAL.0>
1.75399

>  <SCORE.INTRA.POLAR>
0.00139688

>  <SCORE.INTRA.POLAR.0>
-0.00139688

>  <SCORE.INTRA.REPUL>
0

>  <SCORE.INTRA.REPUL.0>
0

>  <SCORE.INTRA.SOLV>
-0.0564264

>  <SCORE.INTRA.SOLV.lig_0>
-14.8658

>  <SCORE.INTRA.VDW>
-0.173058

>  <SCORE.INTRA.VDW.0>
1.19279

>  <SCORE.INTRA.norm>
-0.0112844

>  <SCORE.RESTR>
0.533823

>  <SCORE.RESTR.CAVITY>
0.533823

>  <SCORE.RESTR.norm>
0.0410633

>  <SCORE.SYSTEM>
-20.8986

>  <SCORE.SYSTEM.CONST>
0

>  <SCORE.SYSTEM.DIHEDRAL>
5.85372

>  <SCORE.SYSTEM.POLAR>
-3.29233

>  <SCORE.SYSTEM.SOLV>
0.335464

>  <SCORE.SYSTEM.VDW>
-5.02104

>  <SCORE.SYSTEM.norm>
-1.60759

>  <SCORE.heavy>
13

>  <SCORE.norm>
-2.88804

$$$$
P130489237
 OpenBabel12072022103D
libRbt.so/2013.1/901 2013/11/27
 16 16  0  0  0  0  0  0  0  0999 V2000
   19.8107  -17.9889    4.4966 C   0  0  0  0  0  0  0  0  0  0  0  0
   21.0920  -17.6717    3.7310 C   0  0  0  0  0  0  0  0  0  0  0  0
   21.8897  -16.5752    4.3223 N   0  0  0  0  0  0  0  0  0  0  0  0
   23.3089  -16.6965    3.9565 C   0  0  0  0  0  0  0  0  0  0  0  0
   24.2515  -15.6300    4.5283 C   0  0  0  0  0  0  0  0  0  0  0  0
   24.1151  -14.2721    3.8441 C   0  0  0  0  0  0  0  0  0  0  0  0
   22.9828  -13.3938    4.3935 C   0  0  2  0  0  0  0  0  0  0  0  0
   21.7372  -14.1505    4.8649 C   0  0  0  0  0  0  0  0  0  0  0  0
   21.2912  -15.2836    3.9414 C   0  0  0  0  0  0  0  0  0  0  0  0
   22.6077  -12.3418    3.3175 C   0  0  0  0  0  0  0  0  0  0  0  0
   23.3576  -11.9521    2.4294 O   0  0  0  0  0  0  0  0  0  0  0  0
   21.3434  -11.8319    3.4404 N   0  0  0  0  0  0  0  0  0  0  0  0
   23.5138  -12.6619    5.5201 O   0  0  0  0  0  0  0  0  0  0  0  0
   21.1352  -11.2255    4.2261 H   0  0  0  0  0  0  0  0  0  0  0  0
   20.5873  -12.3318    2.9934 H   0  0  0  0  0  0  0  0  0  0  0  0
   22.8117  -12.0580    5.8227 H   0  0  0  0  0  0  0  0  0  0  0  0
  1  2  1  0  0  0  0
  2  3  1  0  0  0  0
  3  4  1  0  0  0  0
  3  9  1  0  0  0  0
  4  5  1  0  0  0  0
  5  6  1  0  0  0  0
  6  7  1  0  0  0  0
  7  8  1  0  0  0  0
  7 10  1  6  0  0  0
  7 13  1  0  0  0  0
  8  9  1  0  0  0  0
 10 11  2  0  0  0  0
 10 12  1  0  0  0  0
 12 14  1  0  0  0  0
 12 15  1  0  0  0  0
 13 16  1  0  0  0  0
M  END
>  <CHROM.0>
62.17402162,83.20420863,-56.06919414,-52.84486140,-57.91179607,-58.42459301
-58.91133112,-53.19564531,-166.71724795,160.41455601

>  <CHROM.1>
154.86076111,-24.20803998,175.86669338,69.32306227,22.39275836,-14.61200111
4.07013208,1.90401786,0.13646906,3.00126095

>  <Name>
P130489237

>  <RI>
0

>  <Rbt.Current_Directory>
/home/fstefaniak/projects/zuza/docking/adenine/1Y26

>  <Rbt.Executable>
rbdock ($Id: //depot/dev/client3/rdock/2013.1/src/exe/rbdock.cxx#4 $)

>  <Rbt.Library>
libRbt.so (2013.1, Build901 2013/11/27)

>  <Rbt.Parameter_File>
/home/fstefaniak/progs/rDock//data/scripts/dock_solv.prm

>  <Rbt.Receptor>
1y26.prm

>  <SCORE>
-35.2647

>  <SCORE.INTER>
-16.7828

>  <SCORE.INTER.CONST>
1

>  <SCORE.INTER.POLAR>
-1.62078

>  <SCORE.INTER.ROT>
3

>  <SCORE.INTER.SOLV>
8.78792

>  <SCORE.INTER.VDW>
-14.3152

>  <SCORE.INTER.norm>
-1.29098

>  <SCORE.INTRA>
0.144856

>  <SCORE.INTRA.DIHEDRAL>
1.18584

>  <SCORE.INTRA.DIHEDRAL.0>
1.75399

>  <SCORE.INTRA.POLAR>
0.00139688

>  <SCORE.INTRA.POLAR.0>
-0.00139688

>  <SCORE.INTRA.REPUL>
0

>  <SCORE.INTRA.REPUL.0>
0

>  <SCORE.INTRA.SOLV>
-0.0414192

>  <SCORE.INTRA.SOLV.lig_0>
-14.8658

>  <SCORE.INTRA.VDW>
-0.432106

>  <SCORE.INTRA.VDW.0>
1.19279

>  <SCORE.INTRA.norm>
0.0111428

>  <SCORE.RESTR>
0.683647

>  <SCORE.RESTR.CAVITY>
0.683647

>  <SCORE.RESTR.norm>
0.0525882

>  <SCORE.SYSTEM>
-19.3104

>  <SCORE.SYSTEM.CONST>
0

>  <SCORE.SYSTEM.DIHEDRAL>
7.31436

>  <SCORE.SYSTEM.POLAR>
-3.2435

>  <SCORE.SYSTEM.SOLV>
0.636228

>  <SCORE.SYSTEM.VDW>
-4.71214

>  <SCORE.SYSTEM.norm>
-1.48542

>  <SCORE.heavy>
13

>  <SCORE.norm>
-2.71267

$$$$
P130489237
 OpenBabel12072022103D
libRbt.so/2013.1/901 2013/11/27
 16 16  0  0  0  0  0  0  0  0999 V2000
   21.5556  -11.5817    8.4917 C   0  0  0  0  0  0  0  0  0  0  0  0
   22.1990  -11.1411    7.1801 C   0  0  0  0  0  0  0  0  0  0  0  0
   21.9107  -12.0366    6.0384 N   0  0  0  0  0  0  0  0  0  0  0  0
   22.3946  -11.4574    4.7763 C   0  0  0  0  0  0  0  0  0  0  0  0
   22.1350  -12.2798    3.5077 C   0  0  0  0  0  0  0  0  0  0  0  0
   23.0430  -13.5006    3.3814 C   0  0  0  0  0  0  0  0  0  0  0  0
   22.5517  -14.7403    4.1410 C   0  0  2  0  0  0  0  0  0  0  0  0
   21.8186  -14.4549    5.4553 C   0  0  0  0  0  0  0  0  0  0  0  0
   22.4615  -13.3735    6.3230 C   0  0  0  0  0  0  0  0  0  0  0  0
   23.7601  -15.6818    4.3833 C   0  0  0  0  0  0  0  0  0  0  0  0
   23.7585  -16.8895    4.1731 O   0  0  0  0  0  0  0  0  0  0  0  0
   24.8681  -15.0612    4.8939 N   0  0  0  0  0  0  0  0  0  0  0  0
   21.6443  -15.4483    3.2680 O   0  0  0  0  0  0  0  0  0  0  0  0
   25.6374  -14.8434    4.2700 H   0  0  0  0  0  0  0  0  0  0  0  0
   25.0524  -15.1624    5.8824 H   0  0  0  0  0  0  0  0  0  0  0  0
   20.9619  -14.8107    2.9906 H   0  0  0  0  0  0  0  0  0  0  0  0
  1  2  1  0  0  0  0
  2  3  1  0  0  0  0
  3  4  1  0  0  0  0
  3  9  1  0  0  0  0
  4  5  1  0  0  0  0
  5  6  1  0  0  0  0
  6  7  1  0  0  0  0
  7  8  1  0  0  0  0
  7 10  1  1  0  0  0
  7 13  1  0  0  0  0
  8  9  1  0  0  0  0
 10 11  2  0  0  0  0
 10 12  1  0  0  0  0
 12 14  1  0  0  0  0
 12 15  1  0  0  0  0
 13 16  1  0  0  0  0
M  END
>  <CHROM.0>
-47.32063601,-66.58651476,-57.43229809,60.55610137,-172.04166089,-58.86785510
-62.18993336,-49.36311224,57.65989801,-63.22420150

>  <CHROM.1>
171.88342459,-132.87746417,-54.35809141,-101.95098639,22.62778937,-13.69413384
5.07389848,-2.22676679,1.12053575,-1.90952248

>  <Name>
P130489237

>  <RI>
0

>  <Rbt.Current_Directory>
/home/fstefaniak/projects/zuza/docking/adenine/1Y26

>  <Rbt.Executable>
rbdock ($Id: //depot/dev/client3/rdock/2013.1/src/exe/rbdock.cxx#4 $)

>  <Rbt.Library>
libRbt.so (2013.1, Build901 2013/11/27)

>  <Rbt.Parameter_File>
/home/fstefaniak/progs/rDock//data/scripts/dock_solv.prm

>  <Rbt.Receptor>
1y26.prm

>  <SCORE>
-34.4323

>  <SCORE.INTER>
-24.531

>  <SCORE.INTER.CONST>
1

>  <SCORE.INTER.POLAR>
-3.90283

>  <SCORE.INTER.ROT>
3

>  <SCORE.INTER.SOLV>
10.9238

>  <SCORE.INTER.VDW>
-12.5858

>  <SCORE.INTER.norm>
-1.887

>  <SCORE.INTRA>
0.0556212

>  <SCORE.INTRA.DIHEDRAL>
-0.0030295

>  <SCORE.INTRA.DIHEDRAL.0>
1.75399

>  <SCORE.INTRA.POLAR>
0.00139688

>  <SCORE.INTRA.POLAR.0>
-0.00139688

>  <SCORE.INTRA.REPUL>
0

>  <SCORE.INTRA.REPUL.0>
0

>  <SCORE.INTRA.SOLV>
-0.2051

>  <SCORE.INTRA.SOLV.lig_0>
-14.8658

>  <SCORE.INTRA.VDW>
0.154937

>  <SCORE.INTRA.VDW.0>
1.19279

>  <SCORE.INTRA.norm>
0.00427856

>  <SCORE.RESTR>
0.640256

>  <SCORE.RESTR.CAVITY>
0.640256

>  <SCORE.RESTR.norm>
0.0492504

>  <SCORE.SYSTEM>
-10.5972

>  <SCORE.SYSTEM.CONST>
0

>  <SCORE.SYSTEM.DIHEDRAL>
4.00221

>  <SCORE.SYSTEM.POLAR>
-1.08941

>  <SCORE.SYSTEM.SOLV>
0.473174

>  <SCORE.SYSTEM.VDW>
-4.92523

>  <SCORE.SYSTEM.norm>
-0.815171

>  <SCORE.heavy>
13

>  <SCORE.norm>
-2.64864

$$$$
P130754868
 OpenBabel12072022103D
libRbt.so/2013.1/901 2013/11/27
 15 15  0  0  0  0  0  0  0  0999 V2000
   23.4076  -13.7865    3.8591 C   0  0  0  0  0  0  0  0  0  0  0  0
   24.2644  -14.8086    4.5844 C   0  0  0  0  0  0  0  0  0  0  0  0
   23.3608  -16.0289    4.7406 C   0  0  0  0  0  0  0  0  0  0  0  0
   21.9207  -15.5075    4.6575 C   0  0  0  0  0  0  0  0  0  0  0  0
   22.0315  -13.9932    4.4740 C   0  0  0  0  0  0  0  0  0  0  0  0
   21.2084  -16.1219    3.4759 C   0  0  0  0  0  0  0  0  0  0  0  0
   20.2110  -16.9259    3.6520 N   0  0  0  0  0  0  0  0  0  0  0  0
   19.7216  -17.3646    2.4155 N   0  0  0  0  0  0  0  0  0  0  0  0
   18.7644  -18.2260    2.5465 C   0  0  0  0  0  0  0  0  0  0  0  0
   18.2499  -18.6646    3.7210 N   0  0  0  0  0  0  0  0  0  0  0  0
   18.1434  -18.8084    1.4964 N   0  0  0  0  0  0  0  0  0  0  0  0
   17.4350  -18.0843    3.9186 H   0  0  0  0  0  0  0  0  0  0  0  0
   18.9239  -18.5892    4.4719 H   0  0  0  0  0  0  0  0  0  0  0  0
   18.6868  -19.5890    1.1439 H   0  0  0  0  0  0  0  0  0  0  0  0
   17.9390  -18.1404    0.7633 H   0  0  0  0  0  0  0  0  0  0  0  0
  1  2  1  0  0  0  0
  1  5  1  0  0  0  0
  2  3  1  0  0  0  0
  3  4  1  0  0  0  0
  4  5  1  0  0  0  0
  4  6  1  0  0  0  0
  6  7  2  0  0  0  0
  7  8  1  0  0  0  0
  8  9  2  0  0  0  0
  9 10  1  0  0  0  0
  9 11  1  0  0  0  0
 10 12  1  0  0  0  0
 10 13  1  0  0  0  0
 11 14  1  0  0  0  0
 11 15  1  0  0  0  0
M  END
>  <CHROM.0>
63.62761395,-57.26239990,-72.14544710,-54.64579121,-58.94870494,-62.48798065
-174.90914799,-55.08351446,-164.97793841,162.32737816

>  <CHROM.1>
114.02699741,176.71129300,94.73630990,81.62990641,20.97666328,-16.42562601
3.58332442,0.14391468,-0.71853045,-0.88262185

>  <Name>
P130754868

>  <RI>
0

>  <Rbt.Current_Directory>
/home/fstefaniak/projects/zuza/docking/adenine/1Y26

>  <Rbt.Executable>
rbdock ($Id: //depot/dev/client3/rdock/2013.1/src/exe/rbdock.cxx#4 $)

>  <Rbt.Library>
libRbt.so (2013.1, Build901 2013/11/27)

>  <Rbt.Parameter_File>
/home/fstefaniak/progs/rDock//data/scripts/dock_solv.prm

>  <Rbt.Receptor>
1y26.prm

>  <SCORE>
-55.2772

>  <SCORE.INTER>
-35.9535

>  <SCORE.INTER.CONST>
1

>  <SCORE.INTER.POLAR>
-4.51694

>  <SCORE.INTER.ROT>
4

>  <SCORE.INTER.SOLV>
11.5385

>  <SCORE.INTER.VDW>
-19.0254

>  <SCORE.INTER.norm>
-3.2685

>  <SCORE.INTRA>
0.685273

>  <SCORE.INTRA.DIHEDRAL>
0.0320517

>  <SCORE.INTRA.DIHEDRAL.0>
2.01532

>  <SCORE.INTRA.POLAR>
0.198813

>  <SCORE.INTRA.POLAR.0>
-0.198813

>  <SCORE.INTRA.REPUL>
0

>  <SCORE.INTRA.REPUL.0>
0

>  <SCORE.INTRA.SOLV>
-0.0622287

>  <SCORE.INTRA.SOLV.lig_0>
-10.8406

>  <SCORE.INTRA.VDW>
0.0243982

>  <SCORE.INTRA.VDW.0>
-0.710625

>  <SCORE.INTRA.norm>
0.0622975

>  <SCORE.RESTR>
0

>  <SCORE.RESTR.CAVITY>
0

>  <SCORE.RESTR.norm>
0

>  <SCORE.SYSTEM>
-20.0089

>  <SCORE.SYSTEM.CONST>
0

>  <SCORE.SYSTEM.DIHEDRAL>
5.56904

>  <SCORE.SYSTEM.POLAR>
-3.05153

>  <SCORE.SYSTEM.SOLV>
0.558169

>  <SCORE.SYSTEM.VDW>
-5.2099

>  <SCORE.SYSTEM.norm>
-1.81899

>  <SCORE.heavy>
11

>  <SCORE.norm>
-5.0252

$$$$
P130754868
 OpenBabel12072022103D
libRbt.so/2013.1/901 2013/11/27
 15 15  0  0  0  0  0  0  0  0999 V2000
   23.1475  -13.8107    4.0914 C   0  0  0  0  0  0  0  0  0  0  0  0
   24.0596  -14.8322    4.7466 C   0  0  0  0  0  0  0  0  0  0  0  0
   23.2701  -16.1379    4.7052 C   0  0  0  0  0  0  0  0  0  0  0  0
   21.7929  -15.7405    4.5928 C   0  0  0  0  0  0  0  0  0  0  0  0
   21.7676  -14.2113    4.5916 C   0  0  0  0  0  0  0  0  0  0  0  0
   21.2044  -16.2696    3.3065 C   0  0  0  0  0  0  0  0  0  0  0  0
   20.1184  -16.9716    3.3175 N   0  0  0  0  0  0  0  0  0  0  0  0
   19.7744  -17.3475    2.0132 N   0  0  0  0  0  0  0  0  0  0  0  0
   18.8432  -18.2463    1.9932 C   0  0  0  0  0  0  0  0  0  0  0  0
   18.2298  -18.7745    3.0801 N   0  0  0  0  0  0  0  0  0  0  0  0
   18.3551  -18.7817    0.8519 N   0  0  0  0  0  0  0  0  0  0  0  0
   17.6004  -18.0567    3.4388 H   0  0  0  0  0  0  0  0  0  0  0  0
   18.8992  -19.0402    3.7908 H   0  0  0  0  0  0  0  0  0  0  0  0
   17.3813  -19.0426    0.9638 H   0  0  0  0  0  0  0  0  0  0  0  0
   18.9131  -19.5655    0.5361 H   0  0  0  0  0  0  0  0  0  0  0  0
  1  2  1  0  0  0  0
  1  5  1  0  0  0  0
  2  3  1  0  0  0  0
  3  4  1  0  0  0  0
  4  5  1  0  0  0  0
  4  6  1  0  0  0  0
  6  7  2  0  0  0  0
  7  8  1  0  0  0  0
  8  9  2  0  0  0  0
  9 10  1  0  0  0  0
  9 11  1  0  0  0  0
 10 12  1  0  0  0  0
 10 13  1  0  0  0  0
 11 14  1  0  0  0  0
 11 15  1  0  0  0  0
M  END
>  <CHROM.0>
-48.35138321,-56.41085830,-55.52241799,-50.13481451,57.57821015,-57.98986153
-58.23981299,-50.34999530,-166.54941577,162.45274307

>  <CHROM.1>
127.44692549,168.19960716,73.72720143,-149.37267403,20.90964685,-16.51209620
3.36992764,0.13231765,-0.78551821,-0.77085557

>  <Name>
P130754868

>  <RI>
0

>  <Rbt.Current_Directory>
/home/fstefaniak/projects/zuza/docking/adenine/1Y26

>  <Rbt.Executable>
rbdock ($Id: //depot/dev/client3/rdock/2013.1/src/exe/rbdock.cxx#4 $)

>  <Rbt.Library>
libRbt.so (2013.1, Build901 2013/11/27)

>  <Rbt.Parameter_File>
/home/fstefaniak/progs/rDock//data/scripts/dock_solv.prm

>  <Rbt.Receptor>
1y26.prm

>  <SCORE>
-51.8272

>  <SCORE.INTER>
-32.043

>  <SCORE.INTER.CONST>
1

>  <SCORE.INTER.POLAR>
-4.11629

>  <SCORE.INTER.ROT>
4

>  <SCORE.INTER.SOLV>
12.2692

>  <SCORE.INTER.VDW>
-17.9975

>  <SCORE.INTER.norm>
-2.913

>  <SCORE.INTRA>
0.754013

>  <SCORE.INTRA.DIHEDRAL>
0.144678

>  <SCORE.INTRA.DIHEDRAL.0>
2.01532

>  <SCORE.INTRA.POLAR>
0.198813

>  <SCORE.INTRA.POLAR.0>
-0.198813

>  <SCORE.INTRA.REPUL>
0

>  <SCORE.INTRA.REPUL.0>
0

>  <SCORE.INTRA.SOLV>
0.0250738

>  <SCORE.INTRA.SOLV.lig_0>
-10.8406

>  <SCORE.INTRA.VDW>
-0.00682515

>  <SCORE.INTRA.VDW.0>
-0.710625

>  <SCORE.INTRA.norm>
0.0685467

>  <SCORE.RESTR>
0

>  <SCORE.RESTR.CAVITY>
0

>  <SCORE.RESTR.norm>
0

>  <SCORE.SYSTEM>
-20.5381

>  <SCORE.SYSTEM.CONST>
0

>  <SCORE.SYSTEM.DIHEDRAL>
5.90832

>  <SCORE.SYSTEM.POLAR>
-3.50541

>  <SCORE.SYSTEM.SOLV>
0.478443

>  <SCORE.SYSTEM.VDW>
-4.13629

>  <SCORE.SYSTEM.norm>
-1.8671

>  <SCORE.heavy>
11

>  <SCORE.norm>
-4.71156

$$$$
P130754868
 OpenBabel12072022103D
libRbt.so/2013.1/901 2013/11/27
 15 15  0  0  0  0  0  0  0  0999 V2000
   23.7154  -15.8854    5.0330 C   0  0  0  0  0  0  0  0  0  0  0  0
   23.4686  -14.4624    4.5648 C   0  0  0  0  0  0  0  0  0  0  0  0
   22.0102  -14.4516    4.1141 C   0  0  0  0  0  0  0  0  0  0  0  0
   21.6548  -15.9063    3.7826 C   0  0  0  0  0  0  0  0  0  0  0  0
   22.9266  -16.7178    4.0332 C   0  0  0  0  0  0  0  0  0  0  0  0
   20.5440  -16.3925    4.6829 C   0  0  0  0  0  0  0  0  0  0  0  0
   20.2941  -17.6560    4.7992 N   0  0  0  0  0  0  0  0  0  0  0  0
   19.2257  -17.8568    5.6817 N   0  0  0  0  0  0  0  0  0  0  0  0
   18.3991  -18.7553    5.2521 C   0  0  0  0  0  0  0  0  0  0  0  0
   18.5239  -19.4594    4.1008 N   0  0  0  0  0  0  0  0  0  0  0  0
   17.2790  -19.1112    5.9202 N   0  0  0  0  0  0  0  0  0  0  0  0
   19.1477  -20.2408    4.3016 H   0  0  0  0  0  0  0  0  0  0  0  0
   18.9053  -18.8890    3.3572 H   0  0  0  0  0  0  0  0  0  0  0  0
   16.9879  -18.3746    6.5539 H   0  0  0  0  0  0  0  0  0  0  0  0
   17.3957  -19.9916    6.4067 H   0  0  0  0  0  0  0  0  0  0  0  0
  1  2  1  0  0  0  0
  1  5  1  0  0  0  0
  2  3  1  0  0  0  0
  3  4  1  0  0  0  0
  4  5  1  0  0  0  0
  4  6  1  0  0  0  0
  6  7  2  0  0  0  0
  7  8  1  0  0  0  0
  8  9  2  0  0  0  0
  9 10  1  0  0  0  0
  9 11  1  0  0  0  0
 10 12  1  0  0  0  0
 10 13  1  0  0  0  0
 11 14  1  0  0  0  0
 11 15  1  0  0  0  0
M  END
>  <CHROM.0>
-41.98250414,-56.16592687,-51.44142696,-50.82919769,-171.78219406,-38.13629956
-43.86770625,-173.66565430,-165.27421934,164.60063118

>  <CHROM.1>
-163.90546756,137.58725059,83.22763569,22.41185442,20.68914355,-17.01804986
4.73462690,-0.57694062,-0.36011423,-2.87308003

>  <Name>
P130754868

>  <RI>
0

>  <Rbt.Current_Directory>
/home/fstefaniak/projects/zuza/docking/adenine/1Y26

>  <Rbt.Executable>
rbdock ($Id: //depot/dev/client3/rdock/2013.1/src/exe/rbdock.cxx#4 $)

>  <Rbt.Library>
libRbt.so (2013.1, Build901 2013/11/27)

>  <Rbt.Parameter_File>
/home/fstefaniak/progs/rDock//data/scripts/dock_solv.prm

>  <Rbt.Receptor>
1y26.prm

>  <SCORE>
-51.3023

>  <SCORE.INTER>
-32.1805

>  <SCORE.INTER.CONST>
1

>  <SCORE.INTER.POLAR>
-4.26309

>  <SCORE.INTER.ROT>
4

>  <SCORE.INTER.SOLV>
11.9481

>  <SCORE.INTER.VDW>
-17.4928

>  <SCORE.INTER.norm>
-2.9255

>  <SCORE.INTRA>
1.92234

>  <SCORE.INTRA.DIHEDRAL>
1.96467

>  <SCORE.INTRA.DIHEDRAL.0>
2.01532

>  <SCORE.INTRA.POLAR>
0.198813

>  <SCORE.INTRA.POLAR.0>
-0.198813

>  <SCORE.INTRA.REPUL>
0

>  <SCORE.INTRA.REPUL.0>
0

>  <SCORE.INTRA.SOLV>
0.0808515

>  <SCORE.INTRA.SOLV.lig_0>
-10.8406

>  <SCORE.INTRA.VDW>
0.223615

>  <SCORE.INTRA.VDW.0>
-0.710625

>  <SCORE.INTRA.norm>
0.174758

>  <SCORE.RESTR>
0

>  <SCORE.RESTR.CAVITY>
0

>  <SCORE.RESTR.norm>
0

>  <SCORE.SYSTEM>
-21.0441

>  <SCORE.SYSTEM.CONST>
0

>  <SCORE.SYSTEM.DIHEDRAL>
9.93855

>  <SCORE.SYSTEM.POLAR>
-3.74331

>  <SCORE.SYSTEM.SOLV>
0.356444

>  <SCORE.SYSTEM.VDW>
-4.98336

>  <SCORE.SYSTEM.norm>
-1.9131

>  <SCORE.heavy>
11

>  <SCORE.norm>
-4.66384

$$$$
P130754917
 OpenBabel12072022103D
libRbt.so/2013.1/901 2013/11/27
 18 18  0  0  0  0  0  0  0  0999 V2000
   19.8767  -18.2992    7.1782 C   0  0  0  0  0  0  0  0  0  0  0  0
   19.7797  -18.6853    5.6994 C   0  0  0  0  0  0  0  0  0  0  0  0
   18.8485  -19.8959    5.5539 C   0  0  0  0  0  0  0  0  0  0  0  0
   19.2926  -17.5059    4.8146 C   0  0  1  0  0  0  0  0  0  0  0  0
   20.3837  -16.5227    4.3821 C   0  0  0  0  0  0  0  0  0  0  0  0
   21.2198  -17.1987    3.3216 C   0  0  0  0  0  0  0  0  0  0  0  0
   22.5047  -17.3833    3.3547 N   0  0  0  0  0  0  0  0  0  0  0  0
   23.1097  -16.8847    4.5098 N   0  0  0  0  0  0  0  0  0  0  0  0
   24.1304  -16.1342    4.2455 C   0  0  0  0  0  0  0  0  0  0  0  0
   24.6094  -15.8556    3.0089 N   0  0  0  0  0  0  0  0  0  0  0  0
   24.8652  -15.5219    5.2005 N   0  0  0  0  0  0  0  0  0  0  0  0
   20.4469  -17.7053    2.1329 C   0  0  0  0  0  0  0  0  0  0  0  0
   19.3625  -18.6201    2.6694 C   0  0  0  0  0  0  0  0  0  0  0  0
   18.5623  -17.9588    3.6554 O   0  0  0  0  0  0  0  0  0  0  0  0
   25.4612  -15.3104    3.1375 H   0  0  0  0  0  0  0  0  0  0  0  0
   24.8084  -16.7001    2.4881 H   0  0  0  0  0  0  0  0  0  0  0  0
   24.6720  -15.9158    6.1149 H   0  0  0  0  0  0  0  0  0  0  0  0
   25.8553  -15.5457    4.9892 H   0  0  0  0  0  0  0  0  0  0  0  0
  1  2  1  0  0  0  0
  2  3  1  0  0  0  0
  4  2  1  6  0  0  0
  4  5  1  0  0  0  0
  4 14  1  0  0  0  0
  5  6  1  0  0  0  0
  6  7  2  0  0  0  0
  6 12  1  0  0  0  0
  7  8  1  0  0  0  0
  8  9  2  0  0  0  0
  9 10  1  0  0  0  0
  9 11  1  0  0  0  0
 10 15  1  0  0  0  0
 10 16  1  0  0  0  0
 11 17  1  0  0  0  0
 11 18  1  0  0  0  0
 12 13  1  0  0  0  0
 13 14  1  0  0  0  0
M  END
>  <CHROM.0>
-47.67692582,74.37702425,-49.65954047,-54.36147427,-55.98540840,60.97018592
-53.81925153,-169.02660481,-167.19447539,160.56885494

>  <CHROM.1>
83.46606351,-129.64231103,-175.10448411,14.95007834,21.23587824,-17.44034015
4.27962220,-2.96578040,-0.44447481,-1.45500833

>  <Name>
P130754917

>  <RI>
0

>  <Rbt.Current_Directory>
/home/fstefaniak/projects/zuza/docking/adenine/1Y26

>  <Rbt.Executable>
rbdock ($Id: //depot/dev/client3/rdock/2013.1/src/exe/rbdock.cxx#4 $)

>  <Rbt.Library>
libRbt.so (2013.1, Build901 2013/11/27)

>  <Rbt.Parameter_File>
/home/fstefaniak/progs/rDock//data/scripts/dock_solv.prm

>  <Rbt.Receptor>
1y26.prm

>  <SCORE>
-47.1574

>  <SCORE.INTER>
-30.7255

>  <SCORE.INTER.CONST>
1

>  <SCORE.INTER.POLAR>
-5.10556

>  <SCORE.INTER.ROT>
4

>  <SCORE.INTER.SOLV>
15.6976

>  <SCORE.INTER.VDW>
-14.9644

>  <SCORE.INTER.norm>
-2.19468

>  <SCORE.INTRA>
3.85397

>  <SCORE.INTRA.DIHEDRAL>
3.71234

>  <SCORE.INTRA.DIHEDRAL.0>
1.10544

>  <SCORE.INTRA.POLAR>
0.189558

>  <SCORE.INTRA.POLAR.0>
-0.189558

>  <SCORE.INTRA.REPUL>
0

>  <SCORE.INTRA.REPUL.0>
0

>  <SCORE.INTRA.SOLV>
0.181316

>  <SCORE.INTRA.SOLV.lig_0>
-12.6681

>  <SCORE.INTRA.VDW>
1.26264

>  <SCORE.INTRA.VDW.0>
-0.219943

>  <SCORE.INTRA.norm>
0.275283

>  <SCORE.RESTR>
0

>  <SCORE.RESTR.CAVITY>
0

>  <SCORE.RESTR.norm>
0

>  <SCORE.SYSTEM>
-20.2858

>  <SCORE.SYSTEM.CONST>
0

>  <SCORE.SYSTEM.DIHEDRAL>
7.48258

>  <SCORE.SYSTEM.POLAR>
-3.50992

>  <SCORE.SYSTEM.SOLV>
0.307772

>  <SCORE.SYSTEM.VDW>
-4.4209

>  <SCORE.SYSTEM.norm>
-1.44899

>  <SCORE.heavy>
14

>  <SCORE.norm>
-3.36838

$$$$
P130754917
 OpenBabel12072022103D
libRbt.so/2013.1/901 2013/11/27
 18 18  0  0  0  0  0  0  0  0999 V2000
   19.8222  -18.3125    7.1620 C   0  0  0  0  0  0  0  0  0  0  0  0
   19.7698  -18.6857    5.6777 C   0  0  0  0  0  0  0  0  0  0  0  0
   18.8657  -19.9120    5.4971 C   0  0  0  0  0  0  0  0  0  0  0  0
   19.2828  -17.5069    4.7919 C   0  0  1  0  0  0  0  0  0  0  0  0
   20.3756  -16.5292    4.3513 C   0  0  0  0  0  0  0  0  0  0  0  0
   21.2038  -17.2115    3.2885 C   0  0  0  0  0  0  0  0  0  0  0  0
   22.4882  -17.4009    3.3158 N   0  0  0  0  0  0  0  0  0  0  0  0
   23.1008  -16.9015    4.4664 N   0  0  0  0  0  0  0  0  0  0  0  0
   24.1128  -16.1420    4.1944 C   0  0  0  0  0  0  0  0  0  0  0  0
   24.5771  -15.8554    2.9540 N   0  0  0  0  0  0  0  0  0  0  0  0
   24.8524  -15.5271    5.1441 N   0  0  0  0  0  0  0  0  0  0  0  0
   20.4230  -17.7184    2.1051 C   0  0  0  0  0  0  0  0  0  0  0  0
   19.3377  -18.6274    2.6496 C   0  0  0  0  0  0  0  0  0  0  0  0
   18.5450  -17.9602    3.6377 O   0  0  0  0  0  0  0  0  0  0  0  0
   25.3893  -15.2512    3.0745 H   0  0  0  0  0  0  0  0  0  0  0  0
   24.8352  -16.6943    2.4504 H   0  0  0  0  0  0  0  0  0  0  0  0
   24.6816  -15.9346    6.0570 H   0  0  0  0  0  0  0  0  0  0  0  0
   25.8390  -15.5305    4.9161 H   0  0  0  0  0  0  0  0  0  0  0  0
  1  2  1  0  0  0  0
  2  3  1  0  0  0  0
  4  2  1  6  0  0  0
  4  5  1  0  0  0  0
  4 14  1  0  0  0  0
  5  6  1  0  0  0  0
  6  7  2  0  0  0  0
  6 12  1  0  0  0  0
  7  8  1  0  0  0  0
  8  9  2  0  0  0  0
  9 10  1  0  0  0  0
  9 11  1  0  0  0  0
 10 15  1  0  0  0  0
 10 16  1  0  0  0  0
 11 17  1  0  0  0  0
 11 18  1  0  0  0  0
 12 13  1  0  0  0  0
 13 14  1  0  0  0  0
M  END
>  <CHROM.0>
-47.93602659,73.98737399,-63.91635495,-53.16342463,-179.59727632,-178.66985150
-166.02049746,-177.78924262,-166.11962303,160.72837667

>  <CHROM.1>
85.74961310,-128.82200168,-178.86743382,15.77761235,21.21905958,-17.44839687
4.24421809,-2.96036678,-0.44496231,-1.45667115

>  <Name>
P130754917

>  <RI>
0

>  <Rbt.Current_Directory>
/home/fstefaniak/projects/zuza/docking/adenine/1Y26

>  <Rbt.Executable>
rbdock ($Id: //depot/dev/client3/rdock/2013.1/src/exe/rbdock.cxx#4 $)

>  <Rbt.Library>
libRbt.so (2013.1, Build901 2013/11/27)

>  <Rbt.Parameter_File>
/home/fstefaniak/progs/rDock//data/scripts/dock_solv.prm

>  <Rbt.Receptor>
1y26.prm

>  <SCORE>
-46.9654

>  <SCORE.INTER>
-31.0324

>  <SCORE.INTER.CONST>
1

>  <SCORE.INTER.POLAR>
-5.10589

>  <SCORE.INTER.ROT>
4

>  <SCORE.INTER.SOLV>
15.5637

>  <SCORE.INTER.VDW>
-15.1232

>  <SCORE.INTER.norm>
-2.2166

>  <SCORE.INTRA>
4.21678

>  <SCORE.INTRA.DIHEDRAL>
4.08796

>  <SCORE.INTRA.DIHEDRAL.0>
1.10544

>  <SCORE.INTRA.POLAR>
0.189558

>  <SCORE.INTRA.POLAR.0>
-0.189558

>  <SCORE.INTRA.REPUL>
0

>  <SCORE.INTRA.REPUL.0>
0

>  <SCORE.INTRA.SOLV>
0.19027

>  <SCORE.INTRA.SOLV.lig_0>
-12.6681

>  <SCORE.INTRA.VDW>
1.43316

>  <SCORE.INTRA.VDW.0>
-0.219943

>  <SCORE.INTRA.norm>
0.301198

>  <SCORE.RESTR>
0

>  <SCORE.RESTR.CAVITY>
0

>  <SCORE.RESTR.norm>
0

>  <SCORE.SYSTEM>
-20.1497

>  <SCORE.SYSTEM.CONST>
0

>  <SCORE.SYSTEM.DIHEDRAL>
7.2885

>  <SCORE.SYSTEM.POLAR>
-3.43317

>  <SCORE.SYSTEM.SOLV>
0.0845299

>  <SCORE.SYSTEM.VDW>
-4.44695

>  <SCORE.SYSTEM.norm>
-1.43927

>  <SCORE.heavy>
14

>  <SCORE.norm>
-3.35467

$$$$
P130754917
 OpenBabel12072022103D
libRbt.so/2013.1/901 2013/11/27
 18 18  0  0  0  0  0  0  0  0999 V2000
   19.8322  -18.3384    7.1703 C   0  0  0  0  0  0  0  0  0  0  0  0
   19.8197  -18.6845    5.6786 C   0  0  0  0  0  0  0  0  0  0  0  0
   18.9348  -19.9176    5.4539 C   0  0  0  0  0  0  0  0  0  0  0  0
   19.3401  -17.4952    4.8030 C   0  0  1  0  0  0  0  0  0  0  0  0
   20.4370  -16.5143    4.3803 C   0  0  0  0  0  0  0  0  0  0  0  0
   21.2710  -17.1859    3.3152 C   0  0  0  0  0  0  0  0  0  0  0  0
   22.5548  -17.3776    3.3484 N   0  0  0  0  0  0  0  0  0  0  0  0
   23.1610  -16.8921    4.5083 N   0  0  0  0  0  0  0  0  0  0  0  0
   24.1682  -16.1212    4.2511 C   0  0  0  0  0  0  0  0  0  0  0  0
   24.6336  -15.8118    3.0166 N   0  0  0  0  0  0  0  0  0  0  0  0
   24.9009  -15.5161    5.2123 N   0  0  0  0  0  0  0  0  0  0  0  0
   20.4969  -17.6783    2.1212 C   0  0  0  0  0  0  0  0  0  0  0  0
   19.4069  -18.5917    2.6487 C   0  0  0  0  0  0  0  0  0  0  0  0
   18.6089  -17.9344    3.6392 O   0  0  0  0  0  0  0  0  0  0  0  0
   25.4896  -15.2744    3.1493 H   0  0  0  0  0  0  0  0  0  0  0  0
   24.8220  -16.6431    2.4710 H   0  0  0  0  0  0  0  0  0  0  0  0
   24.7551  -15.9598    6.1126 H   0  0  0  0  0  0  0  0  0  0  0  0
   25.8841  -15.4806    4.9722 H   0  0  0  0  0  0  0  0  0  0  0  0
  1  2  1  0  0  0  0
  2  3  1  0  0  0  0
  4  2  1  6  0  0  0
  4  5  1  0  0  0  0
  4 14  1  0  0  0  0
  5  6  1  0  0  0  0
  6  7  2  0  0  0  0
  6 12  1  0  0  0  0
  7  8  1  0  0  0  0
  8  9  2  0  0  0  0
  9 10  1  0  0  0  0
  9 11  1  0  0  0  0
 10 15  1  0  0  0  0
 10 16  1  0  0  0  0
 11 17  1  0  0  0  0
 11 18  1  0  0  0  0
 12 13  1  0  0  0  0
 13 14  1  0  0  0  0
M  END
>  <CHROM.0>
-45.21004512,73.44510124,-49.58190178,-47.22125277,-49.07984805,-44.42032915
-45.43515966,-172.85114482,-163.31987497,162.83619653

>  <CHROM.1>
87.07873087,-128.22651668,-173.84380932,17.74114055,21.27657141,-17.43221091
4.26623026,-2.96717343,-0.44732605,-1.44934584

>  <Name>
P130754917

>  <RI>
0

>  <Rbt.Current_Directory>
/home/fstefaniak/projects/zuza/docking/adenine/1Y26

>  <Rbt.Executable>
rbdock ($Id: //depot/dev/client3/rdock/2013.1/src/exe/rbdock.cxx#4 $)

>  <Rbt.Library>
libRbt.so (2013.1, Build901 2013/11/27)

>  <Rbt.Parameter_File>
/home/fstefaniak/progs/rDock//data/scripts/dock_solv.prm

>  <Rbt.Receptor>
1y26.prm

>  <SCORE>
-46.7074

>  <SCORE.INTER>
-31.1396

>  <SCORE.INTER.CONST>
1

>  <SCORE.INTER.POLAR>
-5.13309

>  <SCORE.INTER.ROT>
4

>  <SCORE.INTER.SOLV>
15.7387

>  <SCORE.INTER.VDW>
-15.1623

>  <SCORE.INTER.norm>
-2.22426

>  <SCORE.INTRA>
4.59333

>  <SCORE.INTRA.DIHEDRAL>
4.3171

>  <SCORE.INTRA.DIHEDRAL.0>
1.10544

>  <SCORE.INTRA.POLAR>
0.189558

>  <SCORE.INTRA.POLAR.0>
-0.189558

>  <SCORE.INTRA.REPUL>
0

>  <SCORE.INTRA.REPUL.0>
0

>  <SCORE.INTRA.SOLV>
0.201233

>  <SCORE.INTRA.SOLV.lig_0>
-12.6681

>  <SCORE.INTRA.VDW>
1.68966

>  <SCORE.INTRA.VDW.0>
-0.219943

>  <SCORE.INTRA.norm>
0.328095

>  <SCORE.RESTR>
0

>  <SCORE.RESTR.CAVITY>
0

>  <SCORE.RESTR.norm>
0

>  <SCORE.SYSTEM>
-20.1611

>  <SCORE.SYSTEM.CONST>
0

>  <SCORE.SYSTEM.DIHEDRAL>
10.3806

>  <SCORE.SYSTEM.POLAR>
-3.77894

>  <SCORE.SYSTEM.SOLV>
0.517388

>  <SCORE.SYSTEM.VDW>
-4.47694

>  <SCORE.SYSTEM.norm>
-1.44008

>  <SCORE.heavy>
14

>  <SCORE.norm>
-3.33624

$$$$
P131452763
 OpenBabel12072022103D
libRbt.so/2013.1/901 2013/11/27
 17 17  0  0  0  0  0  0  0  0999 V2000
   19.0373  -18.9671    4.9253 C   0  0  0  0  0  0  0  0  0  0  0  0
   19.8309  -17.7803    4.5958 C   0  0  0  0  0  0  0  0  0  0  0  0
   20.4831  -16.8122    4.3094 C   0  0  0  0  0  0  0  0  0  0  0  0
   21.2811  -15.6412    3.9250 C   0  0  0  0  0  0  0  0  0  0  0  0
   22.4781  -15.4272    4.7484 N   0  0  0  0  0  0  0  0  0  0  0  0
   22.3647  -14.3019    5.6991 C   0  0  0  0  0  0  0  0  0  0  0  0
   22.8269  -12.9155    5.1975 C   0  0  0  0  0  0  0  0  0  0  0  0
   24.1640  -13.0205    4.5336 N   0  3  0  0  0  0  0  0  0  0  0  0
   24.8718  -13.3226    5.2327 H   0  0  0  0  0  0  0  0  0  0  0  0
   24.4766  -12.1085    4.1818 H   0  0  0  0  0  0  0  0  0  0  0  0
   24.1973  -14.0540    3.4380 C   0  0  0  0  0  0  0  0  0  0  0  0
   23.7514  -15.4331    3.9838 C   0  0  1  0  0  0  0  0  0  0  0  0
   24.8590  -15.9189    4.9366 C   0  0  0  0  0  0  0  0  0  0  0  0
   25.6087  -15.1316    5.5140 O   0  0  0  0  0  0  0  0  0  0  0  0
   24.9178  -17.2614    5.1539 N   0  0  0  0  0  0  0  0  0  0  0  0
   24.1968  -17.8405    4.7367 H   0  0  0  0  0  0  0  0  0  0  0  0
   25.8001  -17.7170    5.3594 H   0  0  0  0  0  0  0  0  0  0  0  0
  1  2  1  0  0  0  0
  2  3  3  0  0  0  0
  3  4  1  0  0  0  0
  4  5  1  0  0  0  0
  5  6  1  0  0  0  0
  5 12  1  0  0  0  0
  6  7  1  0  0  0  0
  7  8  1  0  0  0  0
  8  9  1  0  0  0  0
  8 10  1  0  0  0  0
  8 11  1  0  0  0  0
 11 12  1  0  0  0  0
 12 13  1  1  0  0  0
 13 14  2  0  0  0  0
 13 15  1  0  0  0  0
 15 16  1  0  0  0  0
 15 17  1  0  0  0  0
M  CHG  1   8   1
M  END
>  <CHROM.0>
-56.99043173,-173.74157707,-56.70691518,-50.15984533,-55.60305185,-57.71214348
-56.68768959,-176.36561300,-166.86537992,160.82485730

>  <CHROM.1>
-127.25931490,-105.95521106,-98.53786574,-4.44335816,22.83856967,-15.55535154
4.71002294,-2.48738755,-0.08836580,-0.07680139

>  <Name>
P131452763

>  <RI>
0

>  <Rbt.Current_Directory>
/home/fstefaniak/projects/zuza/docking/adenine/1Y26

>  <Rbt.Executable>
rbdock ($Id: //depot/dev/client3/rdock/2013.1/src/exe/rbdock.cxx#4 $)

>  <Rbt.Library>
libRbt.so (2013.1, Build901 2013/11/27)

>  <Rbt.Parameter_File>
/home/fstefaniak/progs/rDock//data/scripts/dock_solv.prm

>  <Rbt.Receptor>
1y26.prm

>  <SCORE>
-45.2588

>  <SCORE.INTER>
-23.6745

>  <SCORE.INTER.CONST>
1

>  <SCORE.INTER.POLAR>
-2.5899

>  <SCORE.INTER.ROT>
4

>  <SCORE.INTER.SOLV>
14.8718

>  <SCORE.INTER.VDW>
-18.3739

>  <SCORE.INTER.norm>
-1.82111

>  <SCORE.INTRA>
1.0931

>  <SCORE.INTRA.DIHEDRAL>
2.41956

>  <SCORE.INTRA.DIHEDRAL.0>
1.7075

>  <SCORE.INTRA.POLAR>
-0.041637

>  <SCORE.INTRA.POLAR.0>
-0.0632002

>  <SCORE.INTRA.REPUL>
0

>  <SCORE.INTRA.REPUL.0>
0

>  <SCORE.INTRA.SOLV>
-0.138019

>  <SCORE.INTRA.SOLV.lig_0>
-30.2683

>  <SCORE.INTRA.VDW>
0.0938985

>  <SCORE.INTRA.VDW.0>
-0.637986

>  <SCORE.INTRA.norm>
0.0840849

>  <SCORE.RESTR>
0.046729

>  <SCORE.RESTR.CAVITY>
0.046729

>  <SCORE.RESTR.norm>
0.00359454

>  <SCORE.SYSTEM>
-22.7242

>  <SCORE.SYSTEM.CONST>
0

>  <SCORE.SYSTEM.DIHEDRAL>
5.3257

>  <SCORE.SYSTEM.POLAR>
-3.40405

>  <SCORE.SYSTEM.SOLV>
0.39583

>  <SCORE.SYSTEM.VDW>
-5.70982

>  <SCORE.SYSTEM.norm>
-1.74802

>  <SCORE.heavy>
13

>  <SCORE.norm>
-3.48145

$$$$
P131452763
 OpenBabel12072022103D
libRbt.so/2013.1/901 2013/11/27
 17 17  0  0  0  0  0  0  0  0999 V2000
   19.2102  -18.7983    5.0048 C   0  0  0  0  0  0  0  0  0  0  0  0
   19.9357  -17.5817    4.6300 C   0  0  0  0  0  0  0  0  0  0  0  0
   20.5400  -16.5850    4.3370 C   0  0  0  0  0  0  0  0  0  0  0  0
   21.2977  -15.3707    4.0096 C   0  0  0  0  0  0  0  0  0  0  0  0
   22.5161  -15.1834    4.8076 N   0  0  0  0  0  0  0  0  0  0  0  0
   22.4628  -14.0315    5.7312 C   0  0  0  0  0  0  0  0  0  0  0  0
   22.9694  -12.6770    5.1873 C   0  0  0  0  0  0  0  0  0  0  0  0
   24.2898  -12.8504    4.5045 N   0  3  0  0  0  0  0  0  0  0  0  0
   24.9973  -13.1627    5.1993 H   0  0  0  0  0  0  0  0  0  0  0  0
   24.6313  -11.9602    4.1247 H   0  0  0  0  0  0  0  0  0  0  0  0
   24.2641  -13.9111    3.4350 C   0  0  0  0  0  0  0  0  0  0  0  0
   23.7748  -15.2579    4.0226 C   0  0  1  0  0  0  0  0  0  0  0  0
   24.8791  -15.7630    4.9692 C   0  0  0  0  0  0  0  0  0  0  0  0
   25.6715  -14.9920    5.5105 O   0  0  0  0  0  0  0  0  0  0  0  0
   24.8863  -17.1002    5.2238 N   0  0  0  0  0  0  0  0  0  0  0  0
   24.1421  -17.6621    4.8245 H   0  0  0  0  0  0  0  0  0  0  0  0
   25.7509  -17.5840    5.4400 H   0  0  0  0  0  0  0  0  0  0  0  0
  1  2  1  0  0  0  0
  2  3  3  0  0  0  0
  3  4  1  0  0  0  0
  4  5  1  0  0  0  0
  5  6  1  0  0  0  0
  5 12  1  0  0  0  0
  6  7  1  0  0  0  0
  7  8  1  0  0  0  0
  8  9  1  0  0  0  0
  8 10  1  0  0  0  0
  8 11  1  0  0  0  0
 11 12  1  0  0  0  0
 12 13  1  1  0  0  0
 13 14  2  0  0  0  0
 13 15  1  0  0  0  0
 15 16  1  0  0  0  0
 15 17  1  0  0  0  0
M  CHG  1   8   1
M  END
>  <CHROM.0>
-47.94036020,80.58242294,-58.73317929,-49.39535597,-176.62174799,-60.27952501
-60.31424846,-50.23491770,-168.25811388,160.20001703

>  <CHROM.1>
13.96763632,-112.49226347,-98.80076008,-3.53589052,22.90809200,-15.35967972
4.74134489,-2.47249303,-0.09049801,-0.09273484

>  <Name>
P131452763

>  <RI>
0

>  <Rbt.Current_Directory>
/home/fstefaniak/projects/zuza/docking/adenine/1Y26

>  <Rbt.Executable>
rbdock ($Id: //depot/dev/client3/rdock/2013.1/src/exe/rbdock.cxx#4 $)

>  <Rbt.Library>
libRbt.so (2013.1, Build901 2013/11/27)

>  <Rbt.Parameter_File>
/home/fstefaniak/progs/rDock//data/scripts/dock_solv.prm

>  <Rbt.Receptor>
1y26.prm

>  <SCORE>
-44.4121

>  <SCORE.INTER>
-25.4384

>  <SCORE.INTER.CONST>
1

>  <SCORE.INTER.POLAR>
-3.12824

>  <SCORE.INTER.ROT>
4

>  <SCORE.INTER.SOLV>
14.6371

>  <SCORE.INTER.VDW>
-17.6772

>  <SCORE.INTER.norm>
-1.9568

>  <SCORE.INTRA>
1.122

>  <SCORE.INTRA.DIHEDRAL>
2.49543

>  <SCORE.INTRA.DIHEDRAL.0>
1.7075

>  <SCORE.INTRA.POLAR>
-0.0400903

>  <SCORE.INTRA.POLAR.0>
-0.0632002

>  <SCORE.INTRA.REPUL>
0

>  <SCORE.INTRA.REPUL.0>
0

>  <SCORE.INTRA.SOLV>
-0.117449

>  <SCORE.INTRA.SOLV.lig_0>
-30.2683

>  <SCORE.INTRA.VDW>
0.0693198

>  <SCORE.INTRA.VDW.0>
-0.637986

>  <SCORE.INTRA.norm>
0.0863081

>  <SCORE.RESTR>
0.249527

>  <SCORE.RESTR.CAVITY>
0.249527

>  <SCORE.RESTR.norm>
0.0191944

>  <SCORE.SYSTEM>
-20.3452

>  <SCORE.SYSTEM.CONST>
0

>  <SCORE.SYSTEM.DIHEDRAL>
7.84618

>  <SCORE.SYSTEM.POLAR>
-3.54592

>  <SCORE.SYSTEM.SOLV>
0.497868

>  <SCORE.SYSTEM.VDW>
-4.52508

>  <SCORE.SYSTEM.norm>
-1.56502

>  <SCORE.heavy>
13

>  <SCORE.norm>
-3.41632

$$$$
P131452763
 OpenBabel12072022103D
libRbt.so/2013.1/901 2013/11/27
 17 17  0  0  0  0  0  0  0  0999 V2000
   18.9672  -18.8478    5.0265 C   0  0  0  0  0  0  0  0  0  0  0  0
   19.7796  -17.7092    4.5898 C   0  0  0  0  0  0  0  0  0  0  0  0
   20.4602  -16.7843    4.2351 C   0  0  0  0  0  0  0  0  0  0  0  0
   21.3213  -15.6741    3.8088 C   0  0  0  0  0  0  0  0  0  0  0  0
   22.4885  -15.4474    4.6706 N   0  0  0  0  0  0  0  0  0  0  0  0
   22.3264  -14.3332    5.6273 C   0  0  0  0  0  0  0  0  0  0  0  0
   22.7795  -12.9345    5.1527 C   0  0  0  0  0  0  0  0  0  0  0  0
   24.1381  -13.0102    4.5296 N   0  3  0  0  0  0  0  0  0  0  0  0
   24.8291  -13.3068    5.2475 H   0  0  0  0  0  0  0  0  0  0  0  0
   24.4454  -12.0897    4.1957 H   0  0  0  0  0  0  0  0  0  0  0  0
   24.2230  -14.0327    3.4264 C   0  0  0  0  0  0  0  0  0  0  0  0
   23.7847  -15.4243    3.9458 C   0  0  1  0  0  0  0  0  0  0  0  0
   24.8706  -15.9000    4.9280 C   0  0  0  0  0  0  0  0  0  0  0  0
   25.6142  -15.1073    5.5059 O   0  0  0  0  0  0  0  0  0  0  0  0
   24.9166  -17.2388    5.1699 N   0  0  0  0  0  0  0  0  0  0  0  0
   24.1884  -17.8181    4.7658 H   0  0  0  0  0  0  0  0  0  0  0  0
   25.7949  -17.6995    5.3809 H   0  0  0  0  0  0  0  0  0  0  0  0
  1  2  1  0  0  0  0
  2  3  3  0  0  0  0
  3  4  1  0  0  0  0
  4  5  1  0  0  0  0
  5  6  1  0  0  0  0
  5 12  1  0  0  0  0
  6  7  1  0  0  0  0
  7  8  1  0  0  0  0
  8  9  1  0  0  0  0
  8 10  1  0  0  0  0
  8 11  1  0  0  0  0
 11 12  1  0  0  0  0
 12 13  1  1  0  0  0
 13 14  2  0  0  0  0
 13 15  1  0  0  0  0
 15 16  1  0  0  0  0
 15 17  1  0  0  0  0
M  CHG  1   8   1
M  END
>  <CHROM.0>
-49.54805476,-64.87564825,-55.06323174,-50.56709655,-55.22585375,-57.76146269
-63.39400724,-175.37020924,-166.83440566,162.27171802

>  <CHROM.1>
-42.29704741,-100.33029784,-100.68536203,-5.75309651,22.82824120,-15.53832938
4.68565165,-2.51123392,-0.09251555,-0.09780401

>  <Name>
P131452763

>  <RI>
0

>  <Rbt.Current_Directory>
/home/fstefaniak/projects/zuza/docking/adenine/1Y26

>  <Rbt.Executable>
rbdock ($Id: //depot/dev/client3/rdock/2013.1/src/exe/rbdock.cxx#4 $)

>  <Rbt.Library>
libRbt.so (2013.1, Build901 2013/11/27)

>  <Rbt.Parameter_File>
/home/fstefaniak/progs/rDock//data/scripts/dock_solv.prm

>  <Rbt.Receptor>
1y26.prm

>  <SCORE>
-44.4001

>  <SCORE.INTER>
-22.8887

>  <SCORE.INTER.CONST>
1

>  <SCORE.INTER.POLAR>
-2.61106

>  <SCORE.INTER.ROT>
4

>  <SCORE.INTER.SOLV>
14.8203

>  <SCORE.INTER.VDW>
-17.7624

>  <SCORE.INTER.norm>
-1.76067

>  <SCORE.INTRA>
1.05931

>  <SCORE.INTRA.DIHEDRAL>
2.16098

>  <SCORE.INTRA.DIHEDRAL.0>
1.7075

>  <SCORE.INTRA.POLAR>
-0.027586

>  <SCORE.INTRA.POLAR.0>
-0.0632002

>  <SCORE.INTRA.REPUL>
0

>  <SCORE.INTRA.REPUL.0>
0

>  <SCORE.INTRA.SOLV>
-0.134586

>  <SCORE.INTRA.SOLV.lig_0>
-30.2683

>  <SCORE.INTRA.VDW>
0.139909

>  <SCORE.INTRA.VDW.0>
-0.637986

>  <SCORE.INTRA.norm>
0.0814857

>  <SCORE.RESTR>
0.0272539

>  <SCORE.RESTR.CAVITY>
0.0272539

>  <SCORE.RESTR.norm>
0.00209645

>  <SCORE.SYSTEM>
-22.598

>  <SCORE.SYSTEM.CONST>
0

>  <SCORE.SYSTEM.DIHEDRAL>
5.61333

>  <SCORE.SYSTEM.POLAR>
-3.4492

>  <SCORE.SYSTEM.SOLV>
0.449528

>  <SCORE.SYSTEM.VDW>
-5.58893

>  <SCORE.SYSTEM.norm>
-1.73831

>  <SCORE.heavy>
13

>  <SCORE.norm>
-3.41539

$$$$
P131557109
 OpenBabel12072022103D
libRbt.so/2013.1/901 2013/11/27
 17 17  0  0  0  0  0  0  0  0999 V2000
   23.0828  -11.9335    3.6847 C   0  0  0  0  0  0  0  0  0  0  0  0
   22.0420  -13.0208    3.9789 C   0  0  0  0  0  0  0  0  0  0  0  0
   22.2335  -13.6319    5.3708 C   0  0  2  0  0  0  0  0  0  0  0  0
   22.1422  -12.5360    6.4535 C   0  0  0  0  0  0  0  0  0  0  0  0
   22.9404  -11.3133    6.1069 C   0  0  0  0  0  0  0  0  0  0  0  0
   23.3733  -11.0531    4.8647 C   0  0  0  0  0  0  0  0  0  0  0  0
   23.5419  -14.3345    5.4632 N   0  0  0  0  0  0  0  0  0  0  0  0
   23.7960  -15.5936    5.0691 C   0  0  0  0  0  0  0  0  0  0  0  0
   25.0650  -16.1029    5.2228 N   0  3  0  0  0  0  0  0  0  0  0  0
   25.7861  -15.6426    5.7762 H   0  0  0  0  0  0  0  0  0  0  0  0
   25.3478  -17.3938    4.7471 N   0  0  0  0  0  0  0  0  0  0  0  0
   22.8454  -16.3758    4.5363 N   0  0  0  0  0  0  0  0  0  0  0  0
   24.3098  -13.8160    5.8732 H   0  0  0  0  0  0  0  0  0  0  0  0
   26.1658  -17.7702    5.2422 H   0  0  0  0  0  0  0  0  0  0  0  0
   24.5641  -18.0223    4.9643 H   0  0  0  0  0  0  0  0  0  0  0  0
   21.8939  -16.0694    4.4059 H   0  0  0  0  0  0  0  0  0  0  0  0
   23.0709  -17.3514    4.3864 H   0  0  0  0  0  0  0  0  0  0  0  0
  1  2  1  0  0  0  0
  1  6  1  0  0  0  0
  2  3  1  0  0  0  0
  3  4  1  0  0  0  0
  3  7  1  6  0  0  0
  4  5  1  0  0  0  0
  5  6  2  0  0  0  0
  7  8  1  0  0  0  0
  7 13  1  0  0  0  0
  8  9  2  0  0  0  0
  8 12  1  0  0  0  0
  9 10  1  0  0  0  0
  9 11  1  0  0  0  0
 11 14  1  0  0  0  0
 11 15  1  0  0  0  0
 12 16  1  0  0  0  0
 12 17  1  0  0  0  0
M  CHG  1   9   1
M  END
>  <CHROM.0>
63.14526871,-173.10041129,-50.72055131,-53.85404874,-171.54401556,60.08786319
-57.68042160,-50.54989395,-165.71444358,161.00922274

>  <CHROM.1>
-84.02442326,-157.59318032,23.35076054,-14.04826079,5.03960154,1.97762910
-0.47970042,0.24573326

>  <Name>
P131557109

>  <RI>
0

>  <Rbt.Current_Directory>
/home/fstefaniak/projects/zuza/docking/adenine/1Y26

>  <Rbt.Executable>
rbdock ($Id: //depot/dev/client3/rdock/2013.1/src/exe/rbdock.cxx#4 $)

>  <Rbt.Library>
libRbt.so (2013.1, Build901 2013/11/27)

>  <Rbt.Parameter_File>
/home/fstefaniak/progs/rDock//data/scripts/dock_solv.prm

>  <Rbt.Receptor>
1y26.prm

>  <SCORE>
-49.4532

>  <SCORE.INTER>
-32.4788

>  <SCORE.INTER.CONST>
1

>  <SCORE.INTER.POLAR>
-5.20237

>  <SCORE.INTER.ROT>
2

>  <SCORE.INTER.SOLV>
16.7888

>  <SCORE.INTER.VDW>
-14.8409

>  <SCORE.INTER.norm>
-2.95262

>  <SCORE.INTRA>
1.77667

>  <SCORE.INTRA.DIHEDRAL>
0.153314

>  <SCORE.INTRA.DIHEDRAL.0>
3.12423

>  <SCORE.INTRA.POLAR>
0.0234158

>  <SCORE.INTRA.POLAR.0>
-0.02985

>  <SCORE.INTRA.REPUL>
0

>  <SCORE.INTRA.REPUL.0>
0

>  <SCORE.INTRA.SOLV>
0.131994

>  <SCORE.INTRA.SOLV.lig_0>
-26.9231

>  <SCORE.INTRA.VDW>
1.5544

>  <SCORE.INTRA.VDW.0>
-0.988517

>  <SCORE.INTRA.norm>
0.161515

>  <SCORE.RESTR>
1.68074

>  <SCORE.RESTR.CAVITY>
1.68074

>  <SCORE.RESTR.norm>
0.152794

>  <SCORE.SYSTEM>
-20.4318

>  <SCORE.SYSTEM.CONST>
0

>  <SCORE.SYSTEM.DIHEDRAL>
6.08194

>  <SCORE.SYSTEM.POLAR>
-3.26741

>  <SCORE.SYSTEM.SOLV>
0.257906

>  <SCORE.SYSTEM.VDW>
-4.84314

>  <SCORE.SYSTEM.norm>
-1.85744

>  <SCORE.heavy>
11

>  <SCORE.norm>
-4.49575

$$$$
P131557109
 OpenBabel12072022103D
libRbt.so/2013.1/901 2013/11/27
 17 17  0  0  0  0  0  0  0  0999 V2000
   23.1045  -11.8272    3.8729 C   0  0  0  0  0  0  0  0  0  0  0  0
   22.0849  -12.9658    4.0005 C   0  0  0  0  0  0  0  0  0  0  0  0
   22.2220  -13.7073    5.3341 C   0  0  2  0  0  0  0  0  0  0  0  0
   22.0387  -12.7277    6.5124 C   0  0  0  0  0  0  0  0  0  0  0  0
   22.8146  -11.4558    6.3325 C   0  0  0  0  0  0  0  0  0  0  0  0
   23.3040  -11.0615    5.1479 C   0  0  0  0  0  0  0  0  0  0  0  0
   23.5455  -14.3807    5.4299 N   0  0  0  0  0  0  0  0  0  0  0  0
   23.8211  -15.6443    5.0661 C   0  0  0  0  0  0  0  0  0  0  0  0
   25.1018  -16.1236    5.2185 N   0  3  0  0  0  0  0  0  0  0  0  0
   25.8193  -15.6344    5.7514 H   0  0  0  0  0  0  0  0  0  0  0  0
   25.4059  -17.4206    4.7735 N   0  0  0  0  0  0  0  0  0  0  0  0
   22.8809  -16.4593    4.5648 N   0  0  0  0  0  0  0  0  0  0  0  0
   24.3070  -13.8360    5.8174 H   0  0  0  0  0  0  0  0  0  0  0  0
   26.2077  -17.7855    5.3025 H   0  0  0  0  0  0  0  0  0  0  0  0
   24.6175  -18.0490    4.9736 H   0  0  0  0  0  0  0  0  0  0  0  0
   21.9220  -16.1758    4.4373 H   0  0  0  0  0  0  0  0  0  0  0  0
   23.1248  -17.4338    4.4379 H   0  0  0  0  0  0  0  0  0  0  0  0
  1  2  1  0  0  0  0
  1  6  1  0  0  0  0
  2  3  1  0  0  0  0
  3  4  1  0  0  0  0
  3  7  1  1  0  0  0
  4  5  1  0  0  0  0
  5  6  2  0  0  0  0
  7  8  1  0  0  0  0
  7 13  1  0  0  0  0
  8  9  2  0  0  0  0
  8 12  1  0  0  0  0
  9 10  1  0  0  0  0
  9 11  1  0  0  0  0
 11 14  1  0  0  0  0
 11 15  1  0  0  0  0
 12 16  1  0  0  0  0
 12 17  1  0  0  0  0
M  CHG  1   9   1
M  END
>  <CHROM.0>
-49.69615173,-60.55562327,62.88334336,-51.16471062,-56.74191495,60.67084709
76.74963720,-52.88890222,-167.96002930,160.96583743

>  <CHROM.1>
-92.15222248,-154.74898186,23.34529681,-14.09148162,5.10528203,-1.96926204
0.34550318,-2.92480324

>  <Name>
P131557109

>  <RI>
0

>  <Rbt.Current_Directory>
/home/fstefaniak/projects/zuza/docking/adenine/1Y26

>  <Rbt.Executable>
rbdock ($Id: //depot/dev/client3/rdock/2013.1/src/exe/rbdock.cxx#4 $)

>  <Rbt.Library>
libRbt.so (2013.1, Build901 2013/11/27)

>  <Rbt.Parameter_File>
/home/fstefaniak/progs/rDock//data/scripts/dock_solv.prm

>  <Rbt.Receptor>
1y26.prm

>  <SCORE>
-48.5919

>  <SCORE.INTER>
-32.4523

>  <SCORE.INTER.CONST>
1

>  <SCORE.INTER.POLAR>
-5.14103

>  <SCORE.INTER.ROT>
2

>  <SCORE.INTER.SOLV>
16.9227

>  <SCORE.INTER.VDW>
-15.0723

>  <SCORE.INTER.norm>
-2.95021

>  <SCORE.INTRA>
2.25575

>  <SCORE.INTRA.DIHEDRAL>
0.165064

>  <SCORE.INTRA.DIHEDRAL.0>
3.12423

>  <SCORE.INTRA.POLAR>
0.0255278

>  <SCORE.INTRA.POLAR.0>
-0.02985

>  <SCORE.INTRA.REPUL>
0

>  <SCORE.INTRA.REPUL.0>
0

>  <SCORE.INTRA.SOLV>
0.121995

>  <SCORE.INTRA.SOLV.lig_0>
-26.9231

>  <SCORE.INTRA.VDW>
2.02543

>  <SCORE.INTRA.VDW.0>
-0.988517

>  <SCORE.INTRA.norm>
0.205068

>  <SCORE.RESTR>
1.62378

>  <SCORE.RESTR.CAVITY>
1.62378

>  <SCORE.RESTR.norm>
0.147616

>  <SCORE.SYSTEM>
-20.0192

>  <SCORE.SYSTEM.CONST>
0

>  <SCORE.SYSTEM.DIHEDRAL>
6.69789

>  <SCORE.SYSTEM.POLAR>
-3.77237

>  <SCORE.SYSTEM.SOLV>
0.328942

>  <SCORE.SYSTEM.VDW>
-3.11383

>  <SCORE.SYSTEM.norm>
-1.81992

>  <SCORE.heavy>
11

>  <SCORE.norm>
-4.41745

$$$$
P131557109
 OpenBabel12072022103D
libRbt.so/2013.1/901 2013/11/27
 17 17  0  0  0  0  0  0  0  0999 V2000
   19.6301  -18.4325    5.3035 C   0  0  0  0  0  0  0  0  0  0  0  0
   19.9487  -16.9799    5.6783 C   0  0  0  0  0  0  0  0  0  0  0  0
   20.8987  -16.3260    4.6698 C   0  0  2  0  0  0  0  0  0  0  0  0
   20.2841  -16.3616    3.2547 C   0  0  0  0  0  0  0  0  0  0  0  0
   19.7071  -17.7032    2.9090 C   0  0  0  0  0  0  0  0  0  0  0  0
   19.4278  -18.6363    3.8306 C   0  0  0  0  0  0  0  0  0  0  0  0
   22.2208  -17.0089    4.6706 N   0  0  0  0  0  0  0  0  0  0  0  0
   23.4010  -16.4527    4.9912 C   0  0  0  0  0  0  0  0  0  0  0  0
   24.5416  -17.2208    4.9420 N   0  3  0  0  0  0  0  0  0  0  0  0
   24.5729  -18.1435    4.5108 H   0  0  0  0  0  0  0  0  0  0  0  0
   25.7644  -16.6590    5.3442 N   0  0  0  0  0  0  0  0  0  0  0  0
   23.5039  -15.1646    5.3510 N   0  0  0  0  0  0  0  0  0  0  0  0
   22.2308  -17.9829    4.3913 H   0  0  0  0  0  0  0  0  0  0  0  0
   25.6261  -16.1190    6.2076 H   0  0  0  0  0  0  0  0  0  0  0  0
   26.4301  -17.4073    5.5748 H   0  0  0  0  0  0  0  0  0  0  0  0
   22.7108  -14.5440    5.3971 H   0  0  0  0  0  0  0  0  0  0  0  0
   24.4347  -14.7782    5.4487 H   0  0  0  0  0  0  0  0  0  0  0  0
  1  2  1  0  0  0  0
  1  6  1  0  0  0  0
  2  3  1  0  0  0  0
  3  4  1  0  0  0  0
  3  7  1  6  0  0  0
  4  5  1  0  0  0  0
  5  6  2  0  0  0  0
  7  8  1  0  0  0  0
  7 13  1  0  0  0  0
  8  9  2  0  0  0  0
  8 12  1  0  0  0  0
  9 10  1  0  0  0  0
  9 11  1  0  0  0  0
 11 14  1  0  0  0  0
 11 15  1  0  0  0  0
 12 16  1  0  0  0  0
 12 17  1  0  0  0  0
M  CHG  1   9   1
M  END
>  <CHROM.0>
-49.02387456,-58.94657624,60.14960709,-52.14745158,-53.98281159,-57.85317031
79.23313881,-51.01377640,-166.87037125,161.27124521

>  <CHROM.1>
-118.05205098,43.40479657,21.86902079,-16.97197472,4.66688652,-2.88833008
-0.20449720,0.03708682

>  <Name>
P131557109

>  <RI>
0

>  <Rbt.Current_Directory>
/home/fstefaniak/projects/zuza/docking/adenine/1Y26

>  <Rbt.Executable>
rbdock ($Id: //depot/dev/client3/rdock/2013.1/src/exe/rbdock.cxx#4 $)

>  <Rbt.Library>
libRbt.so (2013.1, Build901 2013/11/27)

>  <Rbt.Parameter_File>
/home/fstefaniak/progs/rDock//data/scripts/dock_solv.prm

>  <Rbt.Receptor>
1y26.prm

>  <SCORE>
-46.6736

>  <SCORE.INTER>
-26.0125

>  <SCORE.INTER.CONST>
1

>  <SCORE.INTER.POLAR>
-4.05529

>  <SCORE.INTER.ROT>
2

>  <SCORE.INTER.SOLV>
19.6122

>  <SCORE.INTER.VDW>
-15.2948

>  <SCORE.INTER.norm>
-2.36478

>  <SCORE.INTRA>
0.197876

>  <SCORE.INTRA.DIHEDRAL>
-0.0819372

>  <SCORE.INTRA.DIHEDRAL.0>
3.12423

>  <SCORE.INTRA.POLAR>
0.0123895

>  <SCORE.INTRA.POLAR.0>
-0.02985

>  <SCORE.INTRA.REPUL>
0

>  <SCORE.INTRA.REPUL.0>
0

>  <SCORE.INTRA.SOLV>
-0.0128156

>  <SCORE.INTRA.SOLV.lig_0>
-26.9231

>  <SCORE.INTRA.VDW>
0.203128

>  <SCORE.INTRA.VDW.0>
-0.988517

>  <SCORE.INTRA.norm>
0.0179887

>  <SCORE.RESTR>
0

>  <SCORE.RESTR.CAVITY>
0

>  <SCORE.RESTR.norm>
0

>  <SCORE.SYSTEM>
-20.8589

>  <SCORE.SYSTEM.CONST>
0

>  <SCORE.SYSTEM.DIHEDRAL>
7.36857

>  <SCORE.SYSTEM.POLAR>
-3.85018

>  <SCORE.SYSTEM.SOLV>
0.4969

>  <SCORE.SYSTEM.VDW>
-3.69382

>  <SCORE.SYSTEM.norm>
-1.89627

>  <SCORE.heavy>
11

>  <SCORE.norm>
-4.24305

$$$$
P131664782
 OpenBabel12072022103D
libRbt.so/2013.1/901 2013/11/27
 16 16  0  0  0  0  0  0  0  0999 V2000
   20.8565  -15.8178    4.5130 C   0  0  0  0  0  0  0  0  0  0  0  0
   19.8589  -16.7948    3.9221 C   0  0  0  0  0  0  0  0  0  0  0  0
   19.4041  -16.4956    2.7376 N   0  0  0  0  0  0  0  0  0  0  0  0
   18.4866  -17.3871    2.1813 N   0  0  0  0  0  0  0  0  0  0  0  0
   19.0373  -18.1862    1.3250 C   0  0  0  0  0  0  0  0  0  0  0  0
   20.3448  -18.1893    0.9680 N   0  0  0  0  0  0  0  0  0  0  0  0
   18.3538  -19.1464    0.6631 N   0  0  0  0  0  0  0  0  0  0  0  0
   19.5342  -17.9535    4.7376 C   0  0  0  0  0  0  0  0  0  0  0  0
   18.9196  -19.1696    4.4913 C   0  0  0  0  0  0  0  0  0  0  0  0
   18.9000  -19.8901    5.7104 C   0  0  0  0  0  0  0  0  0  0  0  0
   19.5015  -19.0784    6.6384 C   0  0  0  0  0  0  0  0  0  0  0  0
   19.8847  -17.9102    6.0677 O   0  0  0  0  0  0  0  0  0  0  0  0
   20.6115  -19.1614    0.8182 H   0  0  0  0  0  0  0  0  0  0  0  0
   20.5022  -17.6481    0.1271 H   0  0  0  0  0  0  0  0  0  0  0  0
   17.3770  -19.1508    0.9358 H   0  0  0  0  0  0  0  0  0  0  0  0
   18.4556  -19.0564   -0.3405 H   0  0  0  0  0  0  0  0  0  0  0  0
  1  2  1  0  0  0  0
  2  3  2  0  0  0  0
  2  8  1  0  0  0  0
  3  4  1  0  0  0  0
  4  5  2  0  0  0  0
  5  6  1  0  0  0  0
  5  7  1  0  0  0  0
  6 13  1  0  0  0  0
  6 14  1  0  0  0  0
  7 15  1  0  0  0  0
  7 16  1  0  0  0  0
  8  9  2  0  0  0  0
  8 12  1  0  0  0  0
  9 10  1  0  0  0  0
 10 11  2  0  0  0  0
 11 12  1  0  0  0  0
M  END
>  <CHROM.0>
-47.10490054,-172.96081619,-54.29535240,-50.94635244,-57.09184374,-57.68422558
-58.54931477,63.88869600,-166.72709922,161.45570245

>  <CHROM.1>
-164.62140661,-99.89994540,143.87220275,-0.44268229,19.43709025,-17.99352311
3.59478750,-1.33443366,-1.11393235,-1.30853427

>  <Name>
P131664782

>  <RI>
0

>  <Rbt.Current_Directory>
/home/fstefaniak/projects/zuza/docking/adenine/1Y26

>  <Rbt.Executable>
rbdock ($Id: //depot/dev/client3/rdock/2013.1/src/exe/rbdock.cxx#4 $)

>  <Rbt.Library>
libRbt.so (2013.1, Build901 2013/11/27)

>  <Rbt.Parameter_File>
/home/fstefaniak/progs/rDock//data/scripts/dock_solv.prm

>  <Rbt.Receptor>
1y26.prm

>  <SCORE>
-60.5551

>  <SCORE.INTER>
-41.462

>  <SCORE.INTER.CONST>
1

>  <SCORE.INTER.POLAR>
-5.04637

>  <SCORE.INTER.ROT>
4

>  <SCORE.INTER.SOLV>
16.2019

>  <SCORE.INTER.VDW>
-22.4874

>  <SCORE.INTER.norm>
-3.45517

>  <SCORE.INTRA>
2.4315

>  <SCORE.INTRA.DIHEDRAL>
3.79694

>  <SCORE.INTRA.DIHEDRAL.0>
1.04121

>  <SCORE.INTRA.POLAR>
0.184672

>  <SCORE.INTRA.POLAR.0>
-0.184672

>  <SCORE.INTRA.REPUL>
0

>  <SCORE.INTRA.REPUL.0>
0

>  <SCORE.INTRA.SOLV>
0.917882

>  <SCORE.INTRA.SOLV.lig_0>
-15.2379

>  <SCORE.INTRA.VDW>
-0.553792

>  <SCORE.INTRA.VDW.0>
0.0418228

>  <SCORE.INTRA.norm>
0.202625

>  <SCORE.RESTR>
0

>  <SCORE.RESTR.CAVITY>
0

>  <SCORE.RESTR.norm>
0

>  <SCORE.SYSTEM>
-21.5246

>  <SCORE.SYSTEM.CONST>
0

>  <SCORE.SYSTEM.DIHEDRAL>
5.99217

>  <SCORE.SYSTEM.POLAR>
-3.51084

>  <SCORE.SYSTEM.SOLV>
0.382843

>  <SCORE.SYSTEM.VDW>
-4.77192

>  <SCORE.SYSTEM.norm>
-1.79371

>  <SCORE.heavy>
12

>  <SCORE.norm>
-5.04626

$$$$
P131664782
 OpenBabel12072022103D
libRbt.so/2013.1/901 2013/11/27
 16 16  0  0  0  0  0  0  0  0999 V2000
   18.6695  -18.6008    1.5758 C   0  0  0  0  0  0  0  0  0  0  0  0
   18.5455  -18.2479    3.0451 C   0  0  0  0  0  0  0  0  0  0  0  0
   17.5622  -18.8163    3.6848 N   0  0  0  0  0  0  0  0  0  0  0  0
   17.4375  -18.5016    5.0382 N   0  0  0  0  0  0  0  0  0  0  0  0
   18.2849  -19.1488    5.7718 C   0  0  0  0  0  0  0  0  0  0  0  0
   19.1984  -20.0458    5.3268 N   0  0  0  0  0  0  0  0  0  0  0  0
   18.3653  -19.0027    7.1132 N   0  0  0  0  0  0  0  0  0  0  0  0
   19.5405  -17.3279    3.5711 C   0  0  0  0  0  0  0  0  0  0  0  0
   19.9314  -16.9479    4.8439 C   0  0  0  0  0  0  0  0  0  0  0  0
   20.9752  -16.0014    4.7029 C   0  0  0  0  0  0  0  0  0  0  0  0
   21.1682  -15.8504    3.3532 C   0  0  0  0  0  0  0  0  0  0  0  0
   20.3104  -16.6396    2.6613 O   0  0  0  0  0  0  0  0  0  0  0  0
   18.6845  -20.8754    5.0334 H   0  0  0  0  0  0  0  0  0  0  0  0
   19.7381  -19.6754    4.5547 H   0  0  0  0  0  0  0  0  0  0  0  0
   18.2269  -18.0349    7.3824 H   0  0  0  0  0  0  0  0  0  0  0  0
   17.7204  -19.6155    7.5975 H   0  0  0  0  0  0  0  0  0  0  0  0
  1  2  1  0  0  0  0
  2  3  2  0  0  0  0
  2  8  1  0  0  0  0
  3  4  1  0  0  0  0
  4  5  2  0  0  0  0
  5  6  1  0  0  0  0
  5  7  1  0  0  0  0
  6 13  1  0  0  0  0
  6 14  1  0  0  0  0
  7 15  1  0  0  0  0
  7 16  1  0  0  0  0
  8  9  2  0  0  0  0
  8 12  1  0  0  0  0
  9 10  1  0  0  0  0
 10 11  2  0  0  0  0
 11 12  1  0  0  0  0
M  END
>  <CHROM.0>
-178.09779093,-63.52912417,-57.32542139,-51.99123277,-58.15572670,-177.64409138
-61.56904684,-179.35747157,-167.72866233,160.98919312

>  <CHROM.1>
-166.17047359,-78.43031396,-70.52482986,-38.39079001,19.14882018,-17.97400229
4.23747652,0.73155020,-0.81582045,-1.45178352

>  <Name>
P131664782

>  <RI>
0

>  <Rbt.Current_Directory>
/home/fstefaniak/projects/zuza/docking/adenine/1Y26

>  <Rbt.Executable>
rbdock ($Id: //depot/dev/client3/rdock/2013.1/src/exe/rbdock.cxx#4 $)

>  <Rbt.Library>
libRbt.so (2013.1, Build901 2013/11/27)

>  <Rbt.Parameter_File>
/home/fstefaniak/progs/rDock//data/scripts/dock_solv.prm

>  <Rbt.Receptor>
1y26.prm

>  <SCORE>
-57.8568

>  <SCORE.INTER>
-39.8617

>  <SCORE.INTER.CONST>
1

>  <SCORE.INTER.POLAR>
-5.62229

>  <SCORE.INTER.ROT>
4

>  <SCORE.INTER.SOLV>
14.6965

>  <SCORE.INTER.VDW>
-18.999

>  <SCORE.INTER.norm>
-3.3218

>  <SCORE.INTRA>
3.37737

>  <SCORE.INTRA.DIHEDRAL>
3.61454

>  <SCORE.INTRA.DIHEDRAL.0>
1.04121

>  <SCORE.INTRA.POLAR>
0.184672

>  <SCORE.INTRA.POLAR.0>
-0.184672

>  <SCORE.INTRA.REPUL>
0

>  <SCORE.INTRA.REPUL.0>
0

>  <SCORE.INTRA.SOLV>
1.76394

>  <SCORE.INTRA.SOLV.lig_0>
-15.2379

>  <SCORE.INTRA.VDW>
0.0602501

>  <SCORE.INTRA.VDW.0>
0.0418228

>  <SCORE.INTRA.norm>
0.281448

>  <SCORE.RESTR>
0

>  <SCORE.RESTR.CAVITY>
0

>  <SCORE.RESTR.norm>
0

>  <SCORE.SYSTEM>
-21.3725

>  <SCORE.SYSTEM.CONST>
0

>  <SCORE.SYSTEM.DIHEDRAL>
4.72587

>  <SCORE.SYSTEM.POLAR>
-3.19206

>  <SCORE.SYSTEM.SOLV>
0.253195

>  <SCORE.SYSTEM.VDW>
-5.26786

>  <SCORE.SYSTEM.norm>
-1.78104

>  <SCORE.heavy>
12

>  <SCORE.norm>
-4.8214

$$$$
P131664782
 OpenBabel12072022103D
libRbt.so/2013.1/901 2013/11/27
 16 16  0  0  0  0  0  0  0  0999 V2000
   18.5248  -18.4714    1.7772 C   0  0  0  0  0  0  0  0  0  0  0  0
   19.6041  -18.0713    2.7640 C   0  0  0  0  0  0  0  0  0  0  0  0
   20.6026  -17.3940    2.2703 N   0  0  0  0  0  0  0  0  0  0  0  0
   21.6021  -17.0179    3.1679 N   0  0  0  0  0  0  0  0  0  0  0  0
   21.2517  -16.0068    3.8958 C   0  0  0  0  0  0  0  0  0  0  0  0
   20.0689  -15.3487    3.8250 N   0  0  0  0  0  0  0  0  0  0  0  0
   22.0477  -15.4682    4.8464 N   0  0  0  0  0  0  0  0  0  0  0  0
   19.3961  -18.4788    4.1438 C   0  0  0  0  0  0  0  0  0  0  0  0
   20.0071  -18.1701    5.3475 C   0  0  0  0  0  0  0  0  0  0  0  0
   19.3374  -18.8964    6.3622 C   0  0  0  0  0  0  0  0  0  0  0  0
   18.3536  -19.6116    5.7279 C   0  0  0  0  0  0  0  0  0  0  0  0
   18.3797  -19.3723    4.3941 O   0  0  0  0  0  0  0  0  0  0  0  0
   20.2105  -14.5439    3.2161 H   0  0  0  0  0  0  0  0  0  0  0  0
   19.3346  -15.9415    3.4588 H   0  0  0  0  0  0  0  0  0  0  0  0
   22.1375  -16.0916    5.6412 H   0  0  0  0  0  0  0  0  0  0  0  0
   22.9545  -15.2108    4.4759 H   0  0  0  0  0  0  0  0  0  0  0  0
  1  2  1  0  0  0  0
  2  3  2  0  0  0  0
  2  8  1  0  0  0  0
  3  4  1  0  0  0  0
  4  5  2  0  0  0  0
  5  6  1  0  0  0  0
  5  7  1  0  0  0  0
  6 13  1  0  0  0  0
  6 14  1  0  0  0  0
  7 15  1  0  0  0  0
  7 16  1  0  0  0  0
  8  9  2  0  0  0  0
  8 12  1  0  0  0  0
  9 10  1  0  0  0  0
 10 11  2  0  0  0  0
 11 12  1  0  0  0  0
M  END
>  <CHROM.0>
-52.19849383,-59.38217547,-58.76648967,-51.43180483,-57.11950724,-59.57870163
-61.38601919,-176.99566810,-167.79706676,161.50969767

>  <CHROM.1>
-169.12477898,-77.24565589,-95.28915128,-70.58861673,19.94076564,-17.64761877
4.02182608,2.77191300,0.85478199,1.74590956

>  <Name>
P131664782

>  <RI>
0

>  <Rbt.Current_Directory>
/home/fstefaniak/projects/zuza/docking/adenine/1Y26

>  <Rbt.Executable>
rbdock ($Id: //depot/dev/client3/rdock/2013.1/src/exe/rbdock.cxx#4 $)

>  <Rbt.Library>
libRbt.so (2013.1, Build901 2013/11/27)

>  <Rbt.Parameter_File>
/home/fstefaniak/progs/rDock//data/scripts/dock_solv.prm

>  <Rbt.Receptor>
1y26.prm

>  <SCORE>
-57.2623

>  <SCORE.INTER>
-38.3785

>  <SCORE.INTER.CONST>
1

>  <SCORE.INTER.POLAR>
-4.52833

>  <SCORE.INTER.ROT>
4

>  <SCORE.INTER.SOLV>
13.4505

>  <SCORE.INTER.VDW>
-21.2414

>  <SCORE.INTER.norm>
-3.19821

>  <SCORE.INTRA>
3.78686

>  <SCORE.INTRA.DIHEDRAL>
3.34794

>  <SCORE.INTRA.DIHEDRAL.0>
1.04121

>  <SCORE.INTRA.POLAR>
0.184672

>  <SCORE.INTRA.POLAR.0>
-0.184672

>  <SCORE.INTRA.REPUL>
0

>  <SCORE.INTRA.REPUL.0>
0

>  <SCORE.INTRA.SOLV>
1.77999

>  <SCORE.INTRA.SOLV.lig_0>
-15.2379

>  <SCORE.INTRA.VDW>
0.595011

>  <SCORE.INTRA.VDW.0>
0.0418228

>  <SCORE.INTRA.norm>
0.315572

>  <SCORE.RESTR>
0

>  <SCORE.RESTR.CAVITY>
0

>  <SCORE.RESTR.norm>
0

>  <SCORE.SYSTEM>
-22.6707

>  <SCORE.SYSTEM.CONST>
0

>  <SCORE.SYSTEM.DIHEDRAL>
4.91189

>  <SCORE.SYSTEM.POLAR>
-3.38115

>  <SCORE.SYSTEM.SOLV>
0.444815

>  <SCORE.SYSTEM.VDW>
-5.62889

>  <SCORE.SYSTEM.norm>
-1.88923

>  <SCORE.heavy>
12

>  <SCORE.norm>
-4.77186

$$$$
P132005043
 OpenBabel12072022103D
libRbt.so/2013.1/901 2013/11/27
 14 14  0  0  0  0  0  0  0  0999 V2000
   24.7112  -13.7152    3.1742 C   0  0  0  0  0  0  0  0  0  0  0  0
   24.2550  -13.4624    4.6043 C   0  0  0  0  0  0  0  0  0  0  0  0
   22.9846  -14.2254    4.9489 C   0  0  0  0  0  0  0  0  0  0  0  0
   21.7847  -14.1692    3.9688 C   0  0  0  0  0  0  0  0  0  0  0  0
   21.7694  -15.6198    4.0028 N   0  0  0  0  0  0  0  0  0  0  0  0
   23.0174  -15.7619    4.7295 C   0  0  0  0  0  0  0  0  0  0  0  0
   20.7030  -16.4576    3.8890 C   0  0  0  0  0  0  0  0  0  0  0  0
   19.9446  -16.4738    2.9269 O   0  0  0  0  0  0  0  0  0  0  0  0
   20.5995  -17.2801    4.9685 O   0  0  0  0  0  0  0  0  0  0  0  0
   19.5216  -18.2248    4.9307 C   0  0  0  0  0  0  0  0  0  0  0  0
   19.3917  -18.9362    6.2650 C   0  0  0  0  0  0  0  0  0  0  0  0
   22.5023  -13.9719    6.3244 N   0  0  0  0  0  0  0  0  0  0  0  0
   23.0226  -13.2555    6.8286 H   0  0  0  0  0  0  0  0  0  0  0  0
   22.4954  -14.7960    6.9238 H   0  0  0  0  0  0  0  0  0  0  0  0
  1  2  1  0  0  0  0
  2  3  1  0  0  0  0
  3  4  1  0  0  0  0
  3  6  1  0  0  0  0
  3 12  1  0  0  0  0
  4  5  1  0  0  0  0
  5  6  1  0  0  0  0
  5  7  1  0  0  0  0
  7  8  2  0  0  0  0
  7  9  1  0  0  0  0
  9 10  1  0  0  0  0
 10 11  1  0  0  0  0
 12 13  1  0  0  0  0
 12 14  1  0  0  0  0
M  END
>  <CHROM.0>
-52.54483160,169.81561553,58.43182078,-49.93733371,-61.12782795,-59.49153693
76.20216119,-53.27376456,-165.46985200,160.59850702

>  <CHROM.1>
-48.12394430,5.79779846,57.79898445,-178.64222390,-171.75239857,21.74425690
-15.71501226,4.57918473,0.23570410,-0.78187380,-1.39748069

>  <Name>
P132005043

>  <RI>
0

>  <Rbt.Current_Directory>
/home/fstefaniak/projects/zuza/docking/adenine/1Y26

>  <Rbt.Executable>
rbdock ($Id: //depot/dev/client3/rdock/2013.1/src/exe/rbdock.cxx#4 $)

>  <Rbt.Library>
libRbt.so (2013.1, Build901 2013/11/27)

>  <Rbt.Parameter_File>
/home/fstefaniak/progs/rDock//data/scripts/dock_solv.prm

>  <Rbt.Receptor>
1y26.prm

>  <SCORE>
-46.3424

>  <SCORE.INTER>
-27.5571

>  <SCORE.INTER.CONST>
1

>  <SCORE.INTER.POLAR>
-3.49226

>  <SCORE.INTER.ROT>
5

>  <SCORE.INTER.SOLV>
11.2482

>  <SCORE.INTER.VDW>
-17.4132

>  <SCORE.INTER.norm>
-2.29642

>  <SCORE.INTRA>
1.28944

>  <SCORE.INTRA.DIHEDRAL>
-0.365291

>  <SCORE.INTRA.DIHEDRAL.0>
3.6382

>  <SCORE.INTRA.POLAR>
0

>  <SCORE.INTRA.POLAR.0>
0

>  <SCORE.INTRA.REPUL>
0

>  <SCORE.INTRA.REPUL.0>
0

>  <SCORE.INTRA.SOLV>
-0.214058

>  <SCORE.INTRA.SOLV.lig_0>
-9.88095

>  <SCORE.INTRA.VDW>
1.57911

>  <SCORE.INTRA.VDW.0>
1.05056

>  <SCORE.INTRA.norm>
0.107453

>  <SCORE.RESTR>
0.475812

>  <SCORE.RESTR.CAVITY>
0.475812

>  <SCORE.RESTR.norm>
0.039651

>  <SCORE.SYSTEM>
-20.5506

>  <SCORE.SYSTEM.CONST>
0

>  <SCORE.SYSTEM.DIHEDRAL>
7.20637

>  <SCORE.SYSTEM.POLAR>
-3.77322

>  <SCORE.SYSTEM.SOLV>
0.441778

>  <SCORE.SYSTEM.VDW>
-3.67235

>  <SCORE.SYSTEM.norm>
-1.71255

>  <SCORE.heavy>
12

>  <SCORE.norm>
-3.86186

$$$$
P132005043
 OpenBabel12072022103D
libRbt.so/2013.1/901 2013/11/27
 14 14  0  0  0  0  0  0  0  0999 V2000
   24.3404  -12.3874    4.3870 C   0  0  0  0  0  0  0  0  0  0  0  0
   24.4354  -13.9050    4.3150 C   0  0  0  0  0  0  0  0  0  0  0  0
   23.1291  -14.5845    4.6979 C   0  0  0  0  0  0  0  0  0  0  0  0
   21.9586  -14.5903    3.6814 C   0  0  0  0  0  0  0  0  0  0  0  0
   21.8891  -16.0281    3.8646 N   0  0  0  0  0  0  0  0  0  0  0  0
   23.1113  -16.1358    4.6395 C   0  0  0  0  0  0  0  0  0  0  0  0
   20.7960  -16.8367    3.8057 C   0  0  0  0  0  0  0  0  0  0  0  0
   20.1044  -16.9812    2.8048 O   0  0  0  0  0  0  0  0  0  0  0  0
   20.5828  -17.4715    4.9906 O   0  0  0  0  0  0  0  0  0  0  0  0
   19.4505  -18.3501    5.0316 C   0  0  0  0  0  0  0  0  0  0  0  0
   19.3174  -18.9814    6.4052 C   0  0  0  0  0  0  0  0  0  0  0  0
   22.6201  -14.1728    6.0247 N   0  0  0  0  0  0  0  0  0  0  0  0
   22.6230  -14.9122    6.7257 H   0  0  0  0  0  0  0  0  0  0  0  0
   21.6737  -13.7949    6.0108 H   0  0  0  0  0  0  0  0  0  0  0  0
  1  2  1  0  0  0  0
  2  3  1  0  0  0  0
  3  4  1  0  0  0  0
  3  6  1  0  0  0  0
  3 12  1  0  0  0  0
  4  5  1  0  0  0  0
  5  6  1  0  0  0  0
  5  7  1  0  0  0  0
  7  8  2  0  0  0  0
  7  9  1  0  0  0  0
  9 10  1  0  0  0  0
 10 11  1  0  0  0  0
 12 13  1  0  0  0  0
 12 14  1  0  0  0  0
M  END
>  <CHROM.0>
59.34752806,163.27714514,-59.43036468,60.52026991,-56.95338245,-174.50383213
-64.55781617,-177.37423579,-168.40393105,160.83281226

>  <CHROM.1>
75.94018953,-113.29928639,61.82317046,-179.99144305,-179.45620874,21.77812503
-15.88381755,4.57704093,-0.22711619,0.82741371,1.77686765

>  <Name>
P132005043

>  <RI>
0

>  <Rbt.Current_Directory>
/home/fstefaniak/projects/zuza/docking/adenine/1Y26

>  <Rbt.Executable>
rbdock ($Id: //depot/dev/client3/rdock/2013.1/src/exe/rbdock.cxx#4 $)

>  <Rbt.Library>
libRbt.so (2013.1, Build901 2013/11/27)

>  <Rbt.Parameter_File>
/home/fstefaniak/progs/rDock//data/scripts/dock_solv.prm

>  <Rbt.Receptor>
1y26.prm

>  <SCORE>
-45.0002

>  <SCORE.INTER>
-27.4214

>  <SCORE.INTER.CONST>
1

>  <SCORE.INTER.POLAR>
-3.43503

>  <SCORE.INTER.ROT>
5

>  <SCORE.INTER.SOLV>
10.3436

>  <SCORE.INTER.VDW>
-17.212

>  <SCORE.INTER.norm>
-2.28512

>  <SCORE.INTRA>
-0.158972

>  <SCORE.INTRA.DIHEDRAL>
-0.553033

>  <SCORE.INTRA.DIHEDRAL.0>
3.6382

>  <SCORE.INTRA.POLAR>
0

>  <SCORE.INTRA.POLAR.0>
0

>  <SCORE.INTRA.REPUL>
0

>  <SCORE.INTRA.REPUL.0>
0

>  <SCORE.INTRA.SOLV>
-0.0787506

>  <SCORE.INTRA.SOLV.lig_0>
-9.88095

>  <SCORE.INTRA.VDW>
0.15692

>  <SCORE.INTRA.VDW.0>
1.05056

>  <SCORE.INTRA.norm>
-0.0132477

>  <SCORE.RESTR>
0.518675

>  <SCORE.RESTR.CAVITY>
0.518675

>  <SCORE.RESTR.norm>
0.0432229

>  <SCORE.SYSTEM>
-17.9384

>  <SCORE.SYSTEM.CONST>
0

>  <SCORE.SYSTEM.DIHEDRAL>
5.79623

>  <SCORE.SYSTEM.POLAR>
-2.61936

>  <SCORE.SYSTEM.SOLV>
0.178034

>  <SCORE.SYSTEM.VDW>
-5.21918

>  <SCORE.SYSTEM.norm>
-1.49487

>  <SCORE.heavy>
12

>  <SCORE.norm>
-3.75001

$$$$
P132005043
 OpenBabel12072022103D
libRbt.so/2013.1/901 2013/11/27
 14 14  0  0  0  0  0  0  0  0999 V2000
   25.0384  -13.4536    4.4322 C   0  0  0  0  0  0  0  0  0  0  0  0
   23.6078  -13.3194    3.9297 C   0  0  0  0  0  0  0  0  0  0  0  0
   22.6730  -14.3349    4.5695 C   0  0  0  0  0  0  0  0  0  0  0  0
   21.2252  -14.4677    4.0312 C   0  0  0  0  0  0  0  0  0  0  0  0
   21.4694  -15.8925    3.9050 N   0  0  0  0  0  0  0  0  0  0  0  0
   22.8926  -15.8216    4.1798 C   0  0  0  0  0  0  0  0  0  0  0  0
   20.5848  -16.9179    4.0402 C   0  0  0  0  0  0  0  0  0  0  0  0
   20.4424  -17.5681    5.0687 O   0  0  0  0  0  0  0  0  0  0  0  0
   19.8729  -17.1143    2.8969 O   0  0  0  0  0  0  0  0  0  0  0  0
   18.8228  -18.0873    2.9764 C   0  0  0  0  0  0  0  0  0  0  0  0
   18.2317  -18.3444    1.6025 C   0  0  0  0  0  0  0  0  0  0  0  0
   22.6378  -14.2517    6.0463 N   0  0  0  0  0  0  0  0  0  0  0  0
   23.5522  -14.2986    6.4934 H   0  0  0  0  0  0  0  0  0  0  0  0
   22.0640  -14.9662    6.4920 H   0  0  0  0  0  0  0  0  0  0  0  0
  1  2  1  0  0  0  0
  2  3  1  0  0  0  0
  3  4  1  0  0  0  0
  3  6  1  0  0  0  0
  3 12  1  0  0  0  0
  4  5  1  0  0  0  0
  5  6  1  0  0  0  0
  5  7  1  0  0  0  0
  7  8  2  0  0  0  0
  7  9  1  0  0  0  0
  9 10  1  0  0  0  0
 10 11  1  0  0  0  0
 12 13  1  0  0  0  0
 12 14  1  0  0  0  0
M  END
>  <CHROM.0>
-41.89077509,175.80574540,-46.56085439,-49.14735750,-168.66506511,-171.71423160
-43.43013115,-169.44038066,-166.02329017,164.49590885

>  <CHROM.1>
-171.70266306,-53.20249992,-97.18027548,-174.18821223,-172.53422723,21.44217148
-15.82487444,3.98372429,-0.12799677,-0.76081275,-1.32027291

>  <Name>
P132005043

>  <RI>
0

>  <Rbt.Current_Directory>
/home/fstefaniak/projects/zuza/docking/adenine/1Y26

>  <Rbt.Executable>
rbdock ($Id: //depot/dev/client3/rdock/2013.1/src/exe/rbdock.cxx#4 $)

>  <Rbt.Library>
libRbt.so (2013.1, Build901 2013/11/27)

>  <Rbt.Parameter_File>
/home/fstefaniak/progs/rDock//data/scripts/dock_solv.prm

>  <Rbt.Receptor>
1y26.prm

>  <SCORE>
-44.6004

>  <SCORE.INTER>
-22.1286

>  <SCORE.INTER.CONST>
1

>  <SCORE.INTER.POLAR>
-3.56774

>  <SCORE.INTER.ROT>
5

>  <SCORE.INTER.SOLV>
11.1642

>  <SCORE.INTER.VDW>
-13.5146

>  <SCORE.INTER.norm>
-1.84405

>  <SCORE.INTRA>
-1.33271

>  <SCORE.INTRA.DIHEDRAL>
-2.24644

>  <SCORE.INTRA.DIHEDRAL.0>
3.6382

>  <SCORE.INTRA.POLAR>
0

>  <SCORE.INTRA.POLAR.0>
0

>  <SCORE.INTRA.REPUL>
0

>  <SCORE.INTRA.REPUL.0>
0

>  <SCORE.INTRA.SOLV>
0.0918192

>  <SCORE.INTRA.SOLV.lig_0>
-9.88095

>  <SCORE.INTRA.VDW>
-0.255401

>  <SCORE.INTRA.VDW.0>
1.05056

>  <SCORE.INTRA.norm>
-0.111059

>  <SCORE.RESTR>
0.0104693

>  <SCORE.RESTR.CAVITY>
0.0104693

>  <SCORE.RESTR.norm>
0.000872438

>  <SCORE.SYSTEM>
-21.1496

>  <SCORE.SYSTEM.CONST>
0

>  <SCORE.SYSTEM.DIHEDRAL>
9.51041

>  <SCORE.SYSTEM.POLAR>
-3.67745

>  <SCORE.SYSTEM.SOLV>
0.149071

>  <SCORE.SYSTEM.VDW>
-5.06141

>  <SCORE.SYSTEM.norm>
-1.76247

>  <SCORE.heavy>
12

>  <SCORE.norm>
-3.7167

$$$$
P132137500
 OpenBabel12072022103D
libRbt.so/2013.1/901 2013/11/27
 17 18  0  0  0  0  0  0  0  0999 V2000
   22.4900  -12.4965    3.3448 C   0  0  0  0  0  0  0  0  0  0  0  0
   23.3675  -12.7310    4.5966 C   0  0  2  0  0  0  0  0  0  0  0  0
   24.2435  -11.4787    4.8183 C   0  0  0  0  0  0  0  0  0  0  0  0
   25.6796  -11.8749    4.4812 C   0  0  0  0  0  0  0  0  0  0  0  0
   25.7251  -13.3506    4.5918 N   0  3  0  0  0  0  0  0  0  0  0  0
   26.4680  -13.7756    4.0274 H   0  0  0  0  0  0  0  0  0  0  0  0
   26.0716  -13.6116    5.5708 H   0  0  0  0  0  0  0  0  0  0  0  0
   24.3560  -13.8662    4.2793 C   0  0  0  0  0  0  0  0  0  0  0  0
   22.4040  -13.0549    5.7948 C   0  0  0  0  0  0  0  0  0  0  0  0
   22.3167  -12.2917    6.7601 O   0  0  0  0  0  0  0  0  0  0  0  0
   21.6399  -14.1983    5.8209 N   0  0  0  0  0  0  0  0  0  0  0  0
   21.5312  -15.1237    4.7189 C   0  0  1  0  0  0  0  0  0  0  0  0
   22.4245  -16.3209    4.3984 C   0  0  0  0  0  0  0  0  0  0  0  0
   21.1241  -16.8995    3.6848 C   0  0  1  0  0  0  0  0  0  0  0  0
   20.3793  -16.1801    4.8341 C   0  0  0  0  0  0  0  0  0  0  0  0
   20.7915  -16.2977    2.4681 O   0  5  0  0  0  0  0  0  0  0  0  0
   21.0580  -14.2962    6.6466 H   0  0  0  0  0  0  0  0  0  0  0  0
  2  1  1  6  0  0  0
  2  3  1  0  0  0  0
  2  8  1  0  0  0  0
  2  9  1  0  0  0  0
  3  4  1  0  0  0  0
  4  5  1  0  0  0  0
  5  6  1  0  0  0  0
  5  7  1  0  0  0  0
  5  8  1  0  0  0  0
  9 10  2  0  0  0  0
  9 11  1  0  0  0  0
 11 17  1  0  0  0  0
 12 11  1  1  0  0  0
 12 13  1  0  0  0  0
 12 15  1  0  0  0  0
 13 14  1  0  0  0  0
 14 15  1  0  0  0  0
 14 16  1  6  0  0  0
M  CHG  2   5   1  16  -1
M  END
>  <CHROM.0>
-46.67273353,-76.38534105,-60.86510630,-51.02509738,-170.75611170,-52.80543003
-170.76449395,64.91277576,-164.81630315,-58.84865459

>  <CHROM.1>
-114.93930235,87.88646069,22.76167195,-14.01036745,4.61172591,-0.73249904
-0.48646833,-2.43214406

>  <Name>
P132137500

>  <RI>
0

>  <Rbt.Current_Directory>
/home/fstefaniak/projects/zuza/docking/adenine/1Y26

>  <Rbt.Executable>
rbdock ($Id: //depot/dev/client3/rdock/2013.1/src/exe/rbdock.cxx#4 $)

>  <Rbt.Library>
libRbt.so (2013.1, Build901 2013/11/27)

>  <Rbt.Parameter_File>
/home/fstefaniak/progs/rDock//data/scripts/dock_solv.prm

>  <Rbt.Receptor>
1y26.prm

>  <SCORE>
-33.8977

>  <SCORE.INTER>
-14.9425

>  <SCORE.INTER.CONST>
1

>  <SCORE.INTER.POLAR>
-2.75987

>  <SCORE.INTER.ROT>
2

>  <SCORE.INTER.SOLV>
26.0493

>  <SCORE.INTER.VDW>
-14.3785

>  <SCORE.INTER.norm>
-1.06732

>  <SCORE.INTRA>
-4.36117

>  <SCORE.INTRA.DIHEDRAL>
0.441124

>  <SCORE.INTRA.DIHEDRAL.0>
1.03468

>  <SCORE.INTRA.POLAR>
0

>  <SCORE.INTRA.POLAR.0>
0

>  <SCORE.INTRA.REPUL>
0

>  <SCORE.INTRA.REPUL.0>
0

>  <SCORE.INTRA.SOLV>
-10.0293

>  <SCORE.INTRA.SOLV.lig_0>
-45.2568

>  <SCORE.INTRA.VDW>
0.432906

>  <SCORE.INTRA.VDW.0>
-0.666104

>  <SCORE.INTRA.norm>
-0.311512

>  <SCORE.RESTR>
2.21912

>  <SCORE.RESTR.CAVITY>
2.21912

>  <SCORE.RESTR.norm>
0.158509

>  <SCORE.SYSTEM>
-16.8131

>  <SCORE.SYSTEM.CONST>
0

>  <SCORE.SYSTEM.DIHEDRAL>
6.65837

>  <SCORE.SYSTEM.POLAR>
-2.68291

>  <SCORE.SYSTEM.SOLV>
0.289026

>  <SCORE.SYSTEM.VDW>
-4.58149

>  <SCORE.SYSTEM.norm>
-1.20094

>  <SCORE.heavy>
14

>  <SCORE.norm>
-2.42126

$$$$
P132137500
 OpenBabel12072022103D
libRbt.so/2013.1/901 2013/11/27
 17 18  0  0  0  0  0  0  0  0999 V2000
   24.5533  -13.7484    4.4124 C   0  0  0  0  0  0  0  0  0  0  0  0
   23.3089  -12.8418    4.2659 C   0  0  2  0  0  0  0  0  0  0  0  0
   22.6401  -13.1490    2.9082 C   0  0  0  0  0  0  0  0  0  0  0  0
   22.8803  -11.9375    2.0096 C   0  0  0  0  0  0  0  0  0  0  0  0
   23.1720  -10.8108    2.9248 N   0  3  0  0  0  0  0  0  0  0  0  0
   23.7281  -10.0686    2.4878 H   0  0  0  0  0  0  0  0  0  0  0  0
   22.2648  -10.2721    3.1071 H   0  0  0  0  0  0  0  0  0  0  0  0
   23.7911  -11.3848    4.1598 C   0  0  0  0  0  0  0  0  0  0  0  0
   22.3826  -13.1071    5.5071 C   0  0  0  0  0  0  0  0  0  0  0  0
   22.2984  -12.2827    6.4210 O   0  0  0  0  0  0  0  0  0  0  0  0
   21.6492  -14.2642    5.6291 N   0  0  0  0  0  0  0  0  0  0  0  0
   21.5385  -15.2644    4.5946 C   0  0  1  0  0  0  0  0  0  0  0  0
   22.3567  -16.5434    4.4251 C   0  0  0  0  0  0  0  0  0  0  0  0
   21.0623  -17.0837    3.6716 C   0  0  1  0  0  0  0  0  0  0  0  0
   20.3051  -16.2244    4.7115 C   0  0  0  0  0  0  0  0  0  0  0  0
   20.8511  -16.5587    2.3937 O   0  5  0  0  0  0  0  0  0  0  0  0
   21.0896  -14.3201    6.4739 H   0  0  0  0  0  0  0  0  0  0  0  0
  2  1  1  1  0  0  0
  2  3  1  0  0  0  0
  2  8  1  0  0  0  0
  2  9  1  0  0  0  0
  3  4  1  0  0  0  0
  4  5  1  0  0  0  0
  5  6  1  0  0  0  0
  5  7  1  0  0  0  0
  5  8  1  0  0  0  0
  9 10  2  0  0  0  0
  9 11  1  0  0  0  0
 11 17  1  0  0  0  0
 12 11  1  1  0  0  0
 12 13  1  0  0  0  0
 12 15  1  0  0  0  0
 13 14  1  0  0  0  0
 14 15  1  0  0  0  0
 14 16  1  6  0  0  0
M  CHG  2   5   1  16  -1
M  END
>  <CHROM.0>
61.82397270,-69.11090832,-58.45889856,-52.64770226,-169.47065307,-59.83530298
-59.66484334,-50.31422651,-166.51426818,161.16423010

>  <CHROM.1>
105.76201575,95.48516390,22.33870452,-13.91230320,4.13505042,0.08276225,1.13649116
1.45044385

>  <Name>
P132137500

>  <RI>
0

>  <Rbt.Current_Directory>
/home/fstefaniak/projects/zuza/docking/adenine/1Y26

>  <Rbt.Executable>
rbdock ($Id: //depot/dev/client3/rdock/2013.1/src/exe/rbdock.cxx#4 $)

>  <Rbt.Library>
libRbt.so (2013.1, Build901 2013/11/27)

>  <Rbt.Parameter_File>
/home/fstefaniak/progs/rDock//data/scripts/dock_solv.prm

>  <Rbt.Receptor>
1y26.prm

>  <SCORE>
-33.4988

>  <SCORE.INTER>
-10.6172

>  <SCORE.INTER.CONST>
1

>  <SCORE.INTER.POLAR>
-1.63132

>  <SCORE.INTER.ROT>
2

>  <SCORE.INTER.SOLV>
17.3865

>  <SCORE.INTER.VDW>
-12.3693

>  <SCORE.INTER.norm>
-0.758374

>  <SCORE.INTRA>
-4.28474

>  <SCORE.INTRA.DIHEDRAL>
0.978149

>  <SCORE.INTRA.DIHEDRAL.0>
1.03468

>  <SCORE.INTRA.POLAR>
0

>  <SCORE.INTRA.POLAR.0>
0

>  <SCORE.INTRA.REPUL>
0

>  <SCORE.INTRA.REPUL.0>
0

>  <SCORE.INTRA.SOLV>
-9.91204

>  <SCORE.INTRA.SOLV.lig_0>
-45.2568

>  <SCORE.INTRA.VDW>
0.182211

>  <SCORE.INTRA.VDW.0>
-0.666104

>  <SCORE.INTRA.norm>
-0.306053

>  <SCORE.RESTR>
2.51966

>  <SCORE.RESTR.CAVITY>
2.51966

>  <SCORE.RESTR.norm>
0.179976

>  <SCORE.SYSTEM>
-21.1165

>  <SCORE.SYSTEM.CONST>
0

>  <SCORE.SYSTEM.DIHEDRAL>
5.95098

>  <SCORE.SYSTEM.POLAR>
-3.22807

>  <SCORE.SYSTEM.SOLV>
0.460015

>  <SCORE.SYSTEM.VDW>
-5.45443

>  <SCORE.SYSTEM.norm>
-1.50832

>  <SCORE.heavy>
14

>  <SCORE.norm>
-2.39277

$$$$
P132137500
 OpenBabel12072022103D
libRbt.so/2013.1/901 2013/11/27
 17 18  0  0  0  0  0  0  0  0999 V2000
   22.5149  -12.4129    3.2982 C   0  0  0  0  0  0  0  0  0  0  0  0
   23.3674  -12.6775    4.5611 C   0  0  2  0  0  0  0  0  0  0  0  0
   24.2743  -11.4508    4.8018 C   0  0  0  0  0  0  0  0  0  0  0  0
   25.7036  -11.8848    4.4832 C   0  0  0  0  0  0  0  0  0  0  0  0
   25.7069  -13.3617    4.5869 N   0  3  0  0  0  0  0  0  0  0  0  0
   26.4460  -13.8043    4.0309 H   0  0  0  0  0  0  0  0  0  0  0  0
   26.0320  -13.6368    5.5693 H   0  0  0  0  0  0  0  0  0  0  0  0
   24.3289  -13.8379    4.2521 C   0  0  0  0  0  0  0  0  0  0  0  0
   22.3782  -12.9804    5.7437 C   0  0  0  0  0  0  0  0  0  0  0  0
   22.2508  -12.1877    6.6803 O   0  0  0  0  0  0  0  0  0  0  0  0
   21.6351  -14.1370    5.7880 N   0  0  0  0  0  0  0  0  0  0  0  0
   21.5734  -15.1001    4.7150 C   0  0  1  0  0  0  0  0  0  0  0  0
   22.5038  -16.2830    4.4520 C   0  0  0  0  0  0  0  0  0  0  0  0
   21.2339  -16.9186    3.7320 C   0  0  1  0  0  0  0  0  0  0  0  0
   20.4470  -16.1825    4.8419 C   0  0  0  0  0  0  0  0  0  0  0  0
   20.9114  -16.3656    2.4897 O   0  5  0  0  0  0  0  0  0  0  0  0
   21.0332  -14.2190    6.6009 H   0  0  0  0  0  0  0  0  0  0  0  0
  2  1  1  6  0  0  0
  2  3  1  0  0  0  0
  2  8  1  0  0  0  0
  2  9  1  0  0  0  0
  3  4  1  0  0  0  0
  4  5  1  0  0  0  0
  5  6  1  0  0  0  0
  5  7  1  0  0  0  0
  5  8  1  0  0  0  0
  9 10  2  0  0  0  0
  9 11  1  0  0  0  0
 11 17  1  0  0  0  0
 12 11  1  1  0  0  0
 12 13  1  0  0  0  0
 12 15  1  0  0  0  0
 13 14  1  0  0  0  0
 14 15  1  0  0  0  0
 14 16  1  6  0  0  0
M  CHG  2   5   1  16  -1
M  END
>  <CHROM.0>
-47.67697817,-73.31182693,-29.83266333,-49.87122133,-172.60696835,-50.72538703
25.00144169,-50.86563923,-167.86906013,161.38597634

>  <CHROM.1>
-111.41828104,87.34607975,22.78662272,-13.98360666,4.59961262,-0.77233431
-0.46471822,-2.49465124

>  <Name>
P132137500

>  <RI>
0

>  <Rbt.Current_Directory>
/home/fstefaniak/projects/zuza/docking/adenine/1Y26

>  <Rbt.Executable>
rbdock ($Id: //depot/dev/client3/rdock/2013.1/src/exe/rbdock.cxx#4 $)

>  <Rbt.Library>
libRbt.so (2013.1, Build901 2013/11/27)

>  <Rbt.Parameter_File>
/home/fstefaniak/progs/rDock//data/scripts/dock_solv.prm

>  <Rbt.Receptor>
1y26.prm

>  <SCORE>
-33.0788

>  <SCORE.INTER>
-15.4211

>  <SCORE.INTER.CONST>
1

>  <SCORE.INTER.POLAR>
-2.79604

>  <SCORE.INTER.ROT>
2

>  <SCORE.INTER.SOLV>
25.6245

>  <SCORE.INTER.VDW>
-14.4354

>  <SCORE.INTER.norm>
-1.10151

>  <SCORE.INTRA>
-4.11222

>  <SCORE.INTRA.DIHEDRAL>
0.606487

>  <SCORE.INTRA.DIHEDRAL.0>
1.03468

>  <SCORE.INTRA.POLAR>
0

>  <SCORE.INTRA.POLAR.0>
0

>  <SCORE.INTRA.REPUL>
0

>  <SCORE.INTRA.REPUL.0>
0

>  <SCORE.INTRA.SOLV>
-10.0279

>  <SCORE.INTRA.SOLV.lig_0>
-45.2568

>  <SCORE.INTRA.VDW>
0.5985

>  <SCORE.INTRA.VDW.0>
-0.666104

>  <SCORE.INTRA.norm>
-0.29373

>  <SCORE.RESTR>
2.269

>  <SCORE.RESTR.CAVITY>
2.269

>  <SCORE.RESTR.norm>
0.162071

>  <SCORE.SYSTEM>
-15.8145

>  <SCORE.SYSTEM.CONST>
0

>  <SCORE.SYSTEM.DIHEDRAL>
15.0739

>  <SCORE.SYSTEM.POLAR>
-3.66032

>  <SCORE.SYSTEM.SOLV>
0.478876

>  <SCORE.SYSTEM.VDW>
-3.52618

>  <SCORE.SYSTEM.norm>
-1.12961

>  <SCORE.heavy>
14

>  <SCORE.norm>
-2.36277

$$$$
P132150445
 OpenBabel12072022103D
libRbt.so/2013.1/901 2013/11/27
 15 15  0  0  0  0  0  0  0  0999 V2000
   24.4694  -14.2138    4.7935 C   0  0  0  0  0  0  0  0  0  0  0  0
   22.9629  -14.4516    4.5327 C   0  0  0  0  0  0  0  0  0  0  0  0
   22.4874  -13.4475    3.4703 C   0  0  0  0  0  0  0  0  0  0  0  0
   22.7944  -15.9247    4.0050 C   0  0  0  0  0  0  0  0  0  0  0  0
   23.7824  -16.6579    3.8669 O   0  0  0  0  0  0  0  0  0  0  0  0
   21.5402  -16.4218    3.7037 N   0  0  0  0  0  0  0  0  0  0  0  0
   20.2372  -15.7913    3.8615 C   0  0  0  0  0  0  0  0  0  0  0  0
   19.2461  -16.9463    3.7870 C   0  0  0  0  0  0  0  0  0  0  0  0
   19.9323  -17.9135    2.8336 C   0  0  0  0  0  0  0  0  0  0  0  0
   21.3959  -17.7898    3.2293 C   0  0  0  0  0  0  0  0  0  0  0  0
   22.2086  -14.3496    5.8208 N   0  0  0  0  0  0  0  0  0  0  0  0
   22.1065  -12.9771    6.2862 N   0  0  0  0  0  0  0  0  0  0  0  0
   22.7160  -14.9281    6.5033 H   0  0  0  0  0  0  0  0  0  0  0  0
   22.9908  -12.6697    6.7033 H   0  0  0  0  0  0  0  0  0  0  0  0
   21.4232  -12.8956    7.0452 H   0  0  0  0  0  0  0  0  0  0  0  0
  1  2  1  0  0  0  0
  2  3  1  0  0  0  0
  2  4  1  0  0  0  0
  2 11  1  0  0  0  0
  4  5  2  0  0  0  0
  4  6  1  0  0  0  0
  6  7  1  0  0  0  0
  6 10  1  0  0  0  0
  7  8  1  0  0  0  0
  8  9  1  0  0  0  0
  9 10  1  0  0  0  0
 11 12  1  0  0  0  0
 11 13  1  0  0  0  0
 12 14  1  0  0  0  0
 12 15  1  0  0  0  0
M  END
>  <CHROM.0>
-54.18544240,-75.84996894,-48.64161954,-52.20679573,-176.76976159,-59.24971286
-60.27363882,-177.74180935,-166.59781515,160.74720639

>  <CHROM.1>
-0.13578451,72.89909160,-76.88340011,21.95538558,-15.53848255,4.22124476
-0.96972028,-0.07193010,-2.60443403

>  <Name>
P132150445

>  <RI>
0

>  <Rbt.Current_Directory>
/home/fstefaniak/projects/zuza/docking/adenine/1Y26

>  <Rbt.Executable>
rbdock ($Id: //depot/dev/client3/rdock/2013.1/src/exe/rbdock.cxx#4 $)

>  <Rbt.Library>
libRbt.so (2013.1, Build901 2013/11/27)

>  <Rbt.Parameter_File>
/home/fstefaniak/progs/rDock//data/scripts/dock_solv.prm

>  <Rbt.Receptor>
1y26.prm

>  <SCORE>
-43.0514

>  <SCORE.INTER>
-21.0846

>  <SCORE.INTER.CONST>
1

>  <SCORE.INTER.POLAR>
-2.99561

>  <SCORE.INTER.ROT>
3

>  <SCORE.INTER.SOLV>
12.2431

>  <SCORE.INTER.VDW>
-13.752

>  <SCORE.INTER.norm>
-1.75705

>  <SCORE.INTRA>
0.194882

>  <SCORE.INTRA.DIHEDRAL>
0.371087

>  <SCORE.INTRA.DIHEDRAL.0>
0.310745

>  <SCORE.INTRA.POLAR>
0

>  <SCORE.INTRA.POLAR.0>
0

>  <SCORE.INTRA.REPUL>
0

>  <SCORE.INTRA.REPUL.0>
0

>  <SCORE.INTRA.SOLV>
0.0379732

>  <SCORE.INTRA.SOLV.lig_0>
-12.8377

>  <SCORE.INTRA.VDW>
-0.00964751

>  <SCORE.INTRA.VDW.0>
1.55732

>  <SCORE.INTRA.norm>
0.0162402

>  <SCORE.RESTR>
0

>  <SCORE.RESTR.CAVITY>
0

>  <SCORE.RESTR.norm>
0

>  <SCORE.SYSTEM>
-22.1617

>  <SCORE.SYSTEM.CONST>
0

>  <SCORE.SYSTEM.DIHEDRAL>
6.66327

>  <SCORE.SYSTEM.POLAR>
-3.45632

>  <SCORE.SYSTEM.SOLV>
0.279786

>  <SCORE.SYSTEM.VDW>
-5.56775

>  <SCORE.SYSTEM.norm>
-1.84681

>  <SCORE.heavy>
12

>  <SCORE.norm>
-3.58762

$$$$
P132150445
 OpenBabel12072022103D
libRbt.so/2013.1/901 2013/11/27
 15 15  0  0  0  0  0  0  0  0999 V2000
   24.4331  -14.1660    4.7927 C   0  0  0  0  0  0  0  0  0  0  0  0
   22.9262  -14.4235    4.5544 C   0  0  0  0  0  0  0  0  0  0  0  0
   22.4197  -13.4199    3.5060 C   0  0  0  0  0  0  0  0  0  0  0  0
   22.7699  -15.8956    4.0203 C   0  0  0  0  0  0  0  0  0  0  0  0
   23.7623  -16.6248    3.8929 O   0  0  0  0  0  0  0  0  0  0  0  0
   21.5216  -16.3964    3.7012 N   0  0  0  0  0  0  0  0  0  0  0  0
   20.2144  -15.7711    3.8440 C   0  0  0  0  0  0  0  0  0  0  0  0
   19.2286  -16.9294    3.7532 C   0  0  0  0  0  0  0  0  0  0  0  0
   19.9306  -17.8913    2.8060 C   0  0  0  0  0  0  0  0  0  0  0  0
   21.3884  -17.7634    3.2210 C   0  0  0  0  0  0  0  0  0  0  0  0
   22.1912  -14.3398    5.8549 N   0  0  0  0  0  0  0  0  0  0  0  0
   22.1135  -12.9766    6.3512 N   0  0  0  0  0  0  0  0  0  0  0  0
   22.7004  -14.9395    6.5176 H   0  0  0  0  0  0  0  0  0  0  0  0
   23.0069  -12.6902    6.7638 H   0  0  0  0  0  0  0  0  0  0  0  0
   21.4406  -12.9025    7.1202 H   0  0  0  0  0  0  0  0  0  0  0  0
  1  2  1  0  0  0  0
  2  3  1  0  0  0  0
  2  4  1  0  0  0  0
  2 11  1  0  0  0  0
  4  5  2  0  0  0  0
  4  6  1  0  0  0  0
  6  7  1  0  0  0  0
  6 10  1  0  0  0  0
  7  8  1  0  0  0  0
  8  9  1  0  0  0  0
  9 10  1  0  0  0  0
 11 12  1  0  0  0  0
 11 13  1  0  0  0  0
 12 14  1  0  0  0  0
 12 15  1  0  0  0  0
M  END
>  <CHROM.0>
-48.68192744,-78.74326975,-57.94924339,-52.50703779,-172.90643223,-60.64551851
-56.23139234,-53.17542402,-165.68390361,159.78772278

>  <CHROM.1>
1.63483234,71.11316548,-76.98713121,21.93376597,-15.51504446,4.23098342,-0.97656916
-0.06533404,-2.59487797

>  <Name>
P132150445

>  <RI>
0

>  <Rbt.Current_Directory>
/home/fstefaniak/projects/zuza/docking/adenine/1Y26

>  <Rbt.Executable>
rbdock ($Id: //depot/dev/client3/rdock/2013.1/src/exe/rbdock.cxx#4 $)

>  <Rbt.Library>
libRbt.so (2013.1, Build901 2013/11/27)

>  <Rbt.Parameter_File>
/home/fstefaniak/progs/rDock//data/scripts/dock_solv.prm

>  <Rbt.Receptor>
1y26.prm

>  <SCORE>
-42.425

>  <SCORE.INTER>
-21.0088

>  <SCORE.INTER.CONST>
1

>  <SCORE.INTER.POLAR>
-2.97996

>  <SCORE.INTER.ROT>
3

>  <SCORE.INTER.SOLV>
12.3284

>  <SCORE.INTER.VDW>
-13.7821

>  <SCORE.INTER.norm>
-1.75074

>  <SCORE.INTRA>
0.172752

>  <SCORE.INTRA.DIHEDRAL>
0.317291

>  <SCORE.INTRA.DIHEDRAL.0>
0.310745

>  <SCORE.INTRA.POLAR>
0

>  <SCORE.INTRA.POLAR.0>
0

>  <SCORE.INTRA.REPUL>
0

>  <SCORE.INTRA.REPUL.0>
0

>  <SCORE.INTRA.SOLV>
0.0168746

>  <SCORE.INTRA.SOLV.lig_0>
-12.8377

>  <SCORE.INTRA.VDW>
0.00566906

>  <SCORE.INTRA.VDW.0>
1.55732

>  <SCORE.INTRA.norm>
0.014396

>  <SCORE.RESTR>
0

>  <SCORE.RESTR.CAVITY>
0

>  <SCORE.RESTR.norm>
0

>  <SCORE.SYSTEM>
-21.5889

>  <SCORE.SYSTEM.CONST>
0

>  <SCORE.SYSTEM.DIHEDRAL>
7.61551

>  <SCORE.SYSTEM.POLAR>
-3.4985

>  <SCORE.SYSTEM.SOLV>
0.483187

>  <SCORE.SYSTEM.VDW>
-5.43049

>  <SCORE.SYSTEM.norm>
-1.79908

>  <SCORE.heavy>
12

>  <SCORE.norm>
-3.53542

$$$$
P132150445
 OpenBabel12072022103D
libRbt.so/2013.1/901 2013/11/27
 15 15  0  0  0  0  0  0  0  0999 V2000
   24.5587  -13.5252    4.5417 C   0  0  0  0  0  0  0  0  0  0  0  0
   23.0716  -13.9526    4.5311 C   0  0  0  0  0  0  0  0  0  0  0  0
   22.3166  -13.0659    3.5278 C   0  0  0  0  0  0  0  0  0  0  0  0
   23.0091  -15.4596    4.0820 C   0  0  0  0  0  0  0  0  0  0  0  0
   24.0504  -16.1112    3.9268 O   0  0  0  0  0  0  0  0  0  0  0  0
   21.7908  -16.0774    3.8699 N   0  0  0  0  0  0  0  0  0  0  0  0
   20.4463  -15.5542    4.0660 C   0  0  0  0  0  0  0  0  0  0  0  0
   19.5588  -16.7925    4.0970 C   0  0  0  0  0  0  0  0  0  0  0  0
   20.2815  -17.7443    3.1552 C   0  0  0  0  0  0  0  0  0  0  0  0
   21.7456  -17.4751    3.4678 C   0  0  0  0  0  0  0  0  0  0  0  0
   22.5180  -13.8767    5.9190 N   0  0  0  0  0  0  0  0  0  0  0  0
   21.8846  -12.5966    6.1847 N   0  0  0  0  0  0  0  0  0  0  0  0
   23.3091  -14.0305    6.5581 H   0  0  0  0  0  0  0  0  0  0  0  0
   22.5823  -11.8975    6.4587 H   0  0  0  0  0  0  0  0  0  0  0  0
   21.2537  -12.6579    6.9897 H   0  0  0  0  0  0  0  0  0  0  0  0
  1  2  1  0  0  0  0
  2  3  1  0  0  0  0
  2  4  1  0  0  0  0
  2 11  1  0  0  0  0
  4  5  2  0  0  0  0
  4  6  1  0  0  0  0
  6  7  1  0  0  0  0
  6 10  1  0  0  0  0
  7  8  1  0  0  0  0
  8  9  1  0  0  0  0
  9 10  1  0  0  0  0
 11 12  1  0  0  0  0
 11 13  1  0  0  0  0
 12 14  1  0  0  0  0
 12 15  1  0  0  0  0
M  END
>  <CHROM.0>
-48.72319387,41.94449415,-59.04431824,-51.63278828,-55.85578519,-61.19109633
-59.63996924,-170.36824363,-168.59752718,161.27876453

>  <CHROM.1>
6.35751936,93.18030256,-83.24499856,22.12369086,-15.14494148,4.31497328,-1.02270653
-0.15902806,-2.66805219

>  <Name>
P132150445

>  <RI>
0

>  <Rbt.Current_Directory>
/home/fstefaniak/projects/zuza/docking/adenine/1Y26

>  <Rbt.Executable>
rbdock ($Id: //depot/dev/client3/rdock/2013.1/src/exe/rbdock.cxx#4 $)

>  <Rbt.Library>
libRbt.so (2013.1, Build901 2013/11/27)

>  <Rbt.Parameter_File>
/home/fstefaniak/progs/rDock//data/scripts/dock_solv.prm

>  <Rbt.Receptor>
1y26.prm

>  <SCORE>
-40.9982

>  <SCORE.INTER>
-21.7277

>  <SCORE.INTER.CONST>
1

>  <SCORE.INTER.POLAR>
-3.68742

>  <SCORE.INTER.ROT>
3

>  <SCORE.INTER.SOLV>
10.7998

>  <SCORE.INTER.VDW>
-11.3937

>  <SCORE.INTER.norm>
-1.81064

>  <SCORE.INTRA>
2.39512

>  <SCORE.INTRA.DIHEDRAL>
1.72907

>  <SCORE.INTRA.DIHEDRAL.0>
0.310745

>  <SCORE.INTRA.POLAR>
0

>  <SCORE.INTRA.POLAR.0>
0

>  <SCORE.INTRA.REPUL>
0

>  <SCORE.INTRA.REPUL.0>
0

>  <SCORE.INTRA.SOLV>
0.0239136

>  <SCORE.INTRA.SOLV.lig_0>
-12.8377

>  <SCORE.INTRA.VDW>
1.51863

>  <SCORE.INTRA.VDW.0>
1.55732

>  <SCORE.INTRA.norm>
0.199593

>  <SCORE.RESTR>
0

>  <SCORE.RESTR.CAVITY>
0

>  <SCORE.RESTR.norm>
0

>  <SCORE.SYSTEM>
-21.6656

>  <SCORE.SYSTEM.CONST>
0

>  <SCORE.SYSTEM.DIHEDRAL>
7.01394

>  <SCORE.SYSTEM.POLAR>
-3.53833

>  <SCORE.SYSTEM.SOLV>
0.546332

>  <SCORE.SYSTEM.VDW>
-5.16938

>  <SCORE.SYSTEM.norm>
-1.80547

>  <SCORE.heavy>
12

>  <SCORE.norm>
-3.41651

$$$$
P132826030
 OpenBabel12072022103D
libRbt.so/2013.1/901 2013/11/27
 17 16  0  0  0  0  0  0  0  0999 V2000
   19.0416  -18.8057    4.6062 C   0  0  0  0  0  0  0  0  0  0  0  0
   19.4437  -18.0796    3.4085 N   0  0  0  0  0  0  0  0  0  0  0  0
   18.5189  -18.1763    2.2847 C   0  0  0  0  0  0  0  0  0  0  0  0
   20.4832  -17.1726    3.3327 C   0  0  0  0  0  0  0  0  0  0  0  0
   20.6930  -16.4721    2.3336 O   0  0  0  0  0  0  0  0  0  0  0  0
   21.3385  -16.8951    4.5595 C   0  0  0  0  0  0  0  0  0  0  0  0
   22.2213  -15.7429    4.3073 N   0  0  0  0  0  0  0  0  0  0  0  0
   23.5476  -15.7340    4.5675 C   0  0  0  0  0  0  0  0  0  0  0  0
   24.2187  -16.8157    5.0709 N   0  3  0  0  0  0  0  0  0  0  0  0
   23.8501  -17.7758    4.9700 H   0  0  0  0  0  0  0  0  0  0  0  0
   25.5754  -16.6843    5.4148 N   0  0  0  0  0  0  0  0  0  0  0  0
   24.2427  -14.6083    4.3272 N   0  0  0  0  0  0  0  0  0  0  0  0
   21.8107  -14.8879    3.9615 H   0  0  0  0  0  0  0  0  0  0  0  0
   25.6429  -16.1876    6.3116 H   0  0  0  0  0  0  0  0  0  0  0  0
   25.9610  -17.6229    5.5823 H   0  0  0  0  0  0  0  0  0  0  0  0
   23.8421  -13.7707    3.9351 H   0  0  0  0  0  0  0  0  0  0  0  0
   25.2501  -14.6720    4.4299 H   0  0  0  0  0  0  0  0  0  0  0  0
  1  2  1  0  0  0  0
  2  3  1  0  0  0  0
  2  4  1  0  0  0  0
  4  5  2  0  0  0  0
  4  6  1  0  0  0  0
  6  7  1  0  0  0  0
  7  8  1  0  0  0  0
  7 13  1  0  0  0  0
  8  9  2  0  0  0  0
  8 12  1  0  0  0  0
  9 10  1  0  0  0  0
  9 11  1  0  0  0  0
 11 14  1  0  0  0  0
 11 15  1  0  0  0  0
 12 16  1  0  0  0  0
 12 17  1  0  0  0  0
M  CHG  1   9   1
M  END
>  <CHROM.0>
62.06352786,-61.88310951,-67.20735712,-55.87442741,-171.32311572,-60.53769639
-171.17264914,-176.81117219,-167.18129754,160.86565159

>  <CHROM.1>
-170.40768894,-131.60292664,76.95508286,21.79837891,-16.82306279,4.02474100
-3.03575591,-0.45915670,-0.65098127

>  <Name>
P132826030

>  <RI>
0

>  <Rbt.Current_Directory>
/home/fstefaniak/projects/zuza/docking/adenine/1Y26

>  <Rbt.Executable>
rbdock ($Id: //depot/dev/client3/rdock/2013.1/src/exe/rbdock.cxx#4 $)

>  <Rbt.Library>
libRbt.so (2013.1, Build901 2013/11/27)

>  <Rbt.Parameter_File>
/home/fstefaniak/progs/rDock//data/scripts/dock_solv.prm

>  <Rbt.Receptor>
1y26.prm

>  <SCORE>
-63.7593

>  <SCORE.INTER>
-44.3198

>  <SCORE.INTER.CONST>
1

>  <SCORE.INTER.POLAR>
-6.28993

>  <SCORE.INTER.ROT>
3

>  <SCORE.INTER.SOLV>
17.8665

>  <SCORE.INTER.VDW>
-20.1356

>  <SCORE.INTER.norm>
-4.02907

>  <SCORE.INTRA>
1.27294

>  <SCORE.INTRA.DIHEDRAL>
0.411356

>  <SCORE.INTRA.DIHEDRAL.0>
4.37463

>  <SCORE.INTRA.POLAR>
0.505293

>  <SCORE.INTRA.POLAR.0>
-0.57776

>  <SCORE.INTRA.REPUL>
0

>  <SCORE.INTRA.REPUL.0>
0

>  <SCORE.INTRA.SOLV>
-1.83736

>  <SCORE.INTRA.SOLV.lig_0>
-32.5569

>  <SCORE.INTRA.VDW>
0.267949

>  <SCORE.INTRA.VDW.0>
-0.906106

>  <SCORE.INTRA.norm>
0.115722

>  <SCORE.RESTR>
0

>  <SCORE.RESTR.CAVITY>
0

>  <SCORE.RESTR.norm>
0

>  <SCORE.SYSTEM>
-20.7124

>  <SCORE.SYSTEM.CONST>
0

>  <SCORE.SYSTEM.DIHEDRAL>
5.45608

>  <SCORE.SYSTEM.POLAR>
-3.08816

>  <SCORE.SYSTEM.SOLV>
0.191937

>  <SCORE.SYSTEM.VDW>
-5.39706

>  <SCORE.SYSTEM.norm>
-1.88295

>  <SCORE.heavy>
11

>  <SCORE.norm>
-5.7963

$$$$
P132826030
 OpenBabel12072022103D
libRbt.so/2013.1/901 2013/11/27
 17 16  0  0  0  0  0  0  0  0999 V2000
   19.0538  -18.8630    4.5778 C   0  0  0  0  0  0  0  0  0  0  0  0
   19.4212  -18.1160    3.3818 N   0  0  0  0  0  0  0  0  0  0  0  0
   18.4741  -18.2096    2.2766 C   0  0  0  0  0  0  0  0  0  0  0  0
   20.4474  -17.1948    3.2965 C   0  0  0  0  0  0  0  0  0  0  0  0
   20.6272  -16.4785    2.3027 O   0  0  0  0  0  0  0  0  0  0  0  0
   21.3250  -16.9226    4.5086 C   0  0  0  0  0  0  0  0  0  0  0  0
   22.2119  -15.7771    4.2408 N   0  0  0  0  0  0  0  0  0  0  0  0
   23.5356  -15.7643    4.5140 C   0  0  0  0  0  0  0  0  0  0  0  0
   24.2000  -16.8358    5.0471 N   0  3  0  0  0  0  0  0  0  0  0  0
   23.8310  -17.7974    4.9630 H   0  0  0  0  0  0  0  0  0  0  0  0
   25.5534  -16.6988    5.4015 N   0  0  0  0  0  0  0  0  0  0  0  0
   24.2347  -14.6449    4.2567 N   0  0  0  0  0  0  0  0  0  0  0  0
   21.8060  -14.9292    3.8727 H   0  0  0  0  0  0  0  0  0  0  0  0
   25.6125  -16.1866    6.2902 H   0  0  0  0  0  0  0  0  0  0  0  0
   25.9370  -17.6344    5.5891 H   0  0  0  0  0  0  0  0  0  0  0  0
   23.8391  -13.8153    3.8428 H   0  0  0  0  0  0  0  0  0  0  0  0
   25.2408  -14.7075    4.3708 H   0  0  0  0  0  0  0  0  0  0  0  0
  1  2  1  0  0  0  0
  2  3  1  0  0  0  0
  2  4  1  0  0  0  0
  4  5  2  0  0  0  0
  4  6  1  0  0  0  0
  6  7  1  0  0  0  0
  7  8  1  0  0  0  0
  7 13  1  0  0  0  0
  8  9  2  0  0  0  0
  8 12  1  0  0  0  0
  9 10  1  0  0  0  0
  9 11  1  0  0  0  0
 11 14  1  0  0  0  0
 11 15  1  0  0  0  0
 12 16  1  0  0  0  0
 12 17  1  0  0  0  0
M  CHG  1   9   1
M  END
>  <CHROM.0>
-52.82210493,-162.15650262,-61.53094166,-50.69999575,-172.67648348,-54.70628269
-167.84285260,-50.93642320,-165.39269653,160.18886032

>  <CHROM.1>
-171.84062889,-133.55585170,77.19097265,21.77634504,-16.85189368,3.98783866
-3.03437568,-0.45762871,-0.65153951

>  <Name>
P132826030

>  <RI>
0

>  <Rbt.Current_Directory>
/home/fstefaniak/projects/zuza/docking/adenine/1Y26

>  <Rbt.Executable>
rbdock ($Id: //depot/dev/client3/rdock/2013.1/src/exe/rbdock.cxx#4 $)

>  <Rbt.Library>
libRbt.so (2013.1, Build901 2013/11/27)

>  <Rbt.Parameter_File>
/home/fstefaniak/progs/rDock//data/scripts/dock_solv.prm

>  <Rbt.Receptor>
1y26.prm

>  <SCORE>
-63.3878

>  <SCORE.INTER>
-43.9749

>  <SCORE.INTER.CONST>
1

>  <SCORE.INTER.POLAR>
-6.27733

>  <SCORE.INTER.ROT>
3

>  <SCORE.INTER.SOLV>
17.765

>  <SCORE.INTER.VDW>
-19.9138

>  <SCORE.INTER.norm>
-3.99772

>  <SCORE.INTRA>
1.28757

>  <SCORE.INTRA.DIHEDRAL>
0.422415

>  <SCORE.INTRA.DIHEDRAL.0>
4.37463

>  <SCORE.INTRA.POLAR>
0.505293

>  <SCORE.INTRA.POLAR.0>
-0.57776

>  <SCORE.INTRA.REPUL>
0

>  <SCORE.INTRA.REPUL.0>
0

>  <SCORE.INTRA.SOLV>
-1.84172

>  <SCORE.INTRA.SOLV.lig_0>
-32.5569

>  <SCORE.INTRA.VDW>
0.27923

>  <SCORE.INTRA.VDW.0>
-0.906106

>  <SCORE.INTRA.norm>
0.117052

>  <SCORE.RESTR>
0

>  <SCORE.RESTR.CAVITY>
0

>  <SCORE.RESTR.norm>
0

>  <SCORE.SYSTEM>
-20.7005

>  <SCORE.SYSTEM.CONST>
0

>  <SCORE.SYSTEM.DIHEDRAL>
8.14205

>  <SCORE.SYSTEM.POLAR>
-3.48746

>  <SCORE.SYSTEM.SOLV>
0.385322

>  <SCORE.SYSTEM.VDW>
-5.01792

>  <SCORE.SYSTEM.norm>
-1.88186

>  <SCORE.heavy>
11

>  <SCORE.norm>
-5.76253

$$$$
P132826030
 OpenBabel12072022103D
libRbt.so/2013.1/901 2013/11/27
 17 16  0  0  0  0  0  0  0  0999 V2000
   19.0990  -18.8684    4.5822 C   0  0  0  0  0  0  0  0  0  0  0  0
   19.4559  -18.0917    3.4020 N   0  0  0  0  0  0  0  0  0  0  0  0
   18.5121  -18.1786    2.2934 C   0  0  0  0  0  0  0  0  0  0  0  0
   20.4671  -17.1523    3.3371 C   0  0  0  0  0  0  0  0  0  0  0  0
   20.6365  -16.4133    2.3582 O   0  0  0  0  0  0  0  0  0  0  0  0
   21.3382  -16.8902    4.5560 C   0  0  0  0  0  0  0  0  0  0  0  0
   22.2293  -15.7451    4.3009 N   0  0  0  0  0  0  0  0  0  0  0  0
   23.5557  -15.7451    4.5609 C   0  0  0  0  0  0  0  0  0  0  0  0
   24.2190  -16.8304    5.0669 N   0  3  0  0  0  0  0  0  0  0  0  0
   23.8434  -17.7881    4.9684 H   0  0  0  0  0  0  0  0  0  0  0  0
   25.5766  -16.7081    5.4102 N   0  0  0  0  0  0  0  0  0  0  0  0
   24.2589  -14.6252    4.3177 N   0  0  0  0  0  0  0  0  0  0  0  0
   21.8249  -14.8880    3.9530 H   0  0  0  0  0  0  0  0  0  0  0  0
   25.6490  -16.1898    6.2943 H   0  0  0  0  0  0  0  0  0  0  0  0
   25.9496  -17.6471    5.6022 H   0  0  0  0  0  0  0  0  0  0  0  0
   23.8643  -13.7856    3.9236 H   0  0  0  0  0  0  0  0  0  0  0  0
   25.2658  -14.6959    4.4204 H   0  0  0  0  0  0  0  0  0  0  0  0
  1  2  1  0  0  0  0
  2  3  1  0  0  0  0
  2  4  1  0  0  0  0
  4  5  2  0  0  0  0
  4  6  1  0  0  0  0
  6  7  1  0  0  0  0
  7  8  1  0  0  0  0
  7 13  1  0  0  0  0
  8  9  2  0  0  0  0
  8 12  1  0  0  0  0
  9 10  1  0  0  0  0
  9 11  1  0  0  0  0
 11 14  1  0  0  0  0
 11 15  1  0  0  0  0
 12 16  1  0  0  0  0
 12 17  1  0  0  0  0
M  CHG  1   9   1
M  END
>  <CHROM.0>
-178.75359383,-61.49728914,-62.90799092,-52.97833926,-171.99526717,-58.99674169
-168.75253826,-57.35531297,-166.38789334,160.56626551

>  <CHROM.1>
-173.18071775,-132.39046459,75.60132806,21.80042105,-16.82875246,4.02239182
-3.02421892,-0.45547773,-0.62193852

>  <Name>
P132826030

>  <RI>
0

>  <Rbt.Current_Directory>
/home/fstefaniak/projects/zuza/docking/adenine/1Y26

>  <Rbt.Executable>
rbdock ($Id: //depot/dev/client3/rdock/2013.1/src/exe/rbdock.cxx#4 $)

>  <Rbt.Library>
libRbt.so (2013.1, Build901 2013/11/27)

>  <Rbt.Parameter_File>
/home/fstefaniak/progs/rDock//data/scripts/dock_solv.prm

>  <Rbt.Receptor>
1y26.prm

>  <SCORE>
-63.1975

>  <SCORE.INTER>
-44.3356

>  <SCORE.INTER.CONST>
1

>  <SCORE.INTER.POLAR>
-6.30859

>  <SCORE.INTER.ROT>
3

>  <SCORE.INTER.SOLV>
17.8712

>  <SCORE.INTER.VDW>
-20.0855

>  <SCORE.INTER.norm>
-4.03051

>  <SCORE.INTRA>
1.26656

>  <SCORE.INTRA.DIHEDRAL>
0.377214

>  <SCORE.INTRA.DIHEDRAL.0>
4.37463

>  <SCORE.INTRA.POLAR>
0.505293

>  <SCORE.INTRA.POLAR.0>
-0.57776

>  <SCORE.INTRA.REPUL>
0

>  <SCORE.INTRA.REPUL.0>
0

>  <SCORE.INTRA.SOLV>
-1.83271

>  <SCORE.INTRA.SOLV.lig_0>
-32.5569

>  <SCORE.INTRA.VDW>
0.276307

>  <SCORE.INTRA.VDW.0>
-0.906106

>  <SCORE.INTRA.norm>
0.115141

>  <SCORE.RESTR>
0

>  <SCORE.RESTR.CAVITY>
0

>  <SCORE.RESTR.norm>
0

>  <SCORE.SYSTEM>
-20.1285

>  <SCORE.SYSTEM.CONST>
0

>  <SCORE.SYSTEM.DIHEDRAL>
5.67597

>  <SCORE.SYSTEM.POLAR>
-3.19584

>  <SCORE.SYSTEM.SOLV>
0.38672

>  <SCORE.SYSTEM.VDW>
-4.78711

>  <SCORE.SYSTEM.norm>
-1.82986

>  <SCORE.heavy>
11

>  <SCORE.norm>
-5.74523

$$$$
P132826043
 OpenBabel12072022103D
libRbt.so/2013.1/901 2013/11/27
 18 18  0  0  0  0  0  0  0  0999 V2000
   22.3977  -13.5149    6.0168 C   0  0  0  0  0  0  0  0  0  0  0  0
   22.4012  -13.8283    4.5183 C   0  0  1  0  0  0  0  0  0  0  0  0
   23.7854  -14.2823    4.0361 C   0  0  0  0  0  0  0  0  0  0  0  0
   24.1405  -15.6955    4.4912 C   0  0  0  0  0  0  0  0  0  0  0  0
   23.0629  -16.7024    4.1018 C   0  0  0  0  0  0  0  0  0  0  0  0
   21.6772  -16.2913    4.6098 C   0  0  1  0  0  0  0  0  0  0  0  0
   21.3313  -14.8659    4.1515 C   0  0  0  0  0  0  0  0  0  0  0  0
   20.6347  -17.2294    4.1290 N   0  0  0  0  0  0  0  0  0  0  0  0
   19.8385  -17.9852    4.9082 C   0  0  0  0  0  0  0  0  0  0  0  0
   19.8697  -17.9087    6.2782 N   0  3  0  0  0  0  0  0  0  0  0  0
   20.3396  -17.1549    6.7759 H   0  0  0  0  0  0  0  0  0  0  0  0
   19.0702  -18.7819    7.0338 N   0  0  0  0  0  0  0  0  0  0  0  0
   18.9727  -18.8330    4.3275 N   0  0  0  0  0  0  0  0  0  0  0  0
   20.4683  -17.2803    3.1317 H   0  0  0  0  0  0  0  0  0  0  0  0
   19.4510  -18.8547    7.9856 H   0  0  0  0  0  0  0  0  0  0  0  0
   18.1268  -18.3861    7.1318 H   0  0  0  0  0  0  0  0  0  0  0  0
   18.8972  -18.9548    3.3288 H   0  0  0  0  0  0  0  0  0  0  0  0
   18.3003  -19.2940    4.9298 H   0  0  0  0  0  0  0  0  0  0  0  0
  2  1  1  1  0  0  0
  2  3  1  0  0  0  0
  2  7  1  0  0  0  0
  3  4  1  0  0  0  0
  4  5  1  0  0  0  0
  5  6  1  0  0  0  0
  6  7  1  0  0  0  0
  6  8  1  6  0  0  0
  8  9  1  0  0  0  0
  8 14  1  0  0  0  0
  9 10  2  0  0  0  0
  9 13  1  0  0  0  0
 10 11  1  0  0  0  0
 10 12  1  0  0  0  0
 12 15  1  0  0  0  0
 12 16  1  0  0  0  0
 13 17  1  0  0  0  0
 13 18  1  0  0  0  0
M  CHG  1  10   1
M  END
>  <CHROM.0>
60.33679770,-57.68825840,-49.60506909,-49.58921783,-172.36589286,-61.68332655
-58.13175483,-52.99687821,-167.62623533,160.51646106

>  <CHROM.1>
118.94627419,158.72879125,21.37339651,-16.37495908,4.91682309,0.41230035
0.74215727,0.74311543

>  <Name>
P132826043

>  <RI>
0

>  <Rbt.Current_Directory>
/home/fstefaniak/projects/zuza/docking/adenine/1Y26

>  <Rbt.Executable>
rbdock ($Id: //depot/dev/client3/rdock/2013.1/src/exe/rbdock.cxx#4 $)

>  <Rbt.Library>
libRbt.so (2013.1, Build901 2013/11/27)

>  <Rbt.Parameter_File>
/home/fstefaniak/progs/rDock//data/scripts/dock_solv.prm

>  <Rbt.Receptor>
1y26.prm

>  <SCORE>
-52.9113

>  <SCORE.INTER>
-31.1458

>  <SCORE.INTER.CONST>
1

>  <SCORE.INTER.POLAR>
-3.11574

>  <SCORE.INTER.ROT>
2

>  <SCORE.INTER.SOLV>
17.2937

>  <SCORE.INTER.VDW>
-21.076

>  <SCORE.INTER.norm>
-2.59548

>  <SCORE.INTRA>
-0.639253

>  <SCORE.INTRA.DIHEDRAL>
-0.101401

>  <SCORE.INTRA.DIHEDRAL.0>
3.08996

>  <SCORE.INTRA.POLAR>
-0.00637318

>  <SCORE.INTRA.POLAR.0>
-0.0362239

>  <SCORE.INTRA.REPUL>
0

>  <SCORE.INTRA.REPUL.0>
0

>  <SCORE.INTRA.SOLV>
-0.27212

>  <SCORE.INTRA.SOLV.lig_0>
-27.2241

>  <SCORE.INTRA.VDW>
-0.430824

>  <SCORE.INTRA.VDW.0>
-0.602231

>  <SCORE.INTRA.norm>
-0.0532711

>  <SCORE.RESTR>
0

>  <SCORE.RESTR.CAVITY>
0

>  <SCORE.RESTR.norm>
0

>  <SCORE.SYSTEM>
-21.1262

>  <SCORE.SYSTEM.CONST>
0

>  <SCORE.SYSTEM.DIHEDRAL>
5.86466

>  <SCORE.SYSTEM.POLAR>
-3.34096

>  <SCORE.SYSTEM.SOLV>
0.489706

>  <SCORE.SYSTEM.VDW>
-5.06574

>  <SCORE.SYSTEM.norm>
-1.76052

>  <SCORE.heavy>
12

>  <SCORE.norm>
-4.40927

$$$$
P132826043
 OpenBabel12072022103D
libRbt.so/2013.1/901 2013/11/27
 18 18  0  0  0  0  0  0  0  0999 V2000
   19.2011  -18.3432    2.0073 C   0  0  0  0  0  0  0  0  0  0  0  0
   18.7085  -17.4850    3.1754 C   0  0  1  0  0  0  0  0  0  0  0  0
   18.4106  -18.3342    4.4182 C   0  0  0  0  0  0  0  0  0  0  0  0
   19.6737  -18.8343    5.1145 C   0  0  0  0  0  0  0  0  0  0  0  0
   20.6283  -17.6909    5.4434 C   0  0  0  0  0  0  0  0  0  0  0  0
   20.9743  -16.8535    4.2080 C   0  0  1  0  0  0  0  0  0  0  0  0
   19.6970  -16.3597    3.5111 C   0  0  0  0  0  0  0  0  0  0  0  0
   21.8169  -15.6896    4.5735 N   0  0  0  0  0  0  0  0  0  0  0  0
   23.1197  -15.7378    4.9091 C   0  0  0  0  0  0  0  0  0  0  0  0
   23.8400  -16.9057    4.8802 N   0  3  0  0  0  0  0  0  0  0  0  0
   23.4995  -17.7501    4.4246 H   0  0  0  0  0  0  0  0  0  0  0  0
   25.1742  -16.9015    5.3190 N   0  0  0  0  0  0  0  0  0  0  0  0
   23.7421  -14.6030    5.2707 N   0  0  0  0  0  0  0  0  0  0  0  0
   21.3978  -14.7694    4.5261 H   0  0  0  0  0  0  0  0  0  0  0  0
   25.2231  -16.4825    6.2562 H   0  0  0  0  0  0  0  0  0  0  0  0
   25.5060  -17.8689    5.4197 H   0  0  0  0  0  0  0  0  0  0  0  0
   23.2800  -13.7079    5.3274 H   0  0  0  0  0  0  0  0  0  0  0  0
   24.7472  -14.6445    5.3946 H   0  0  0  0  0  0  0  0  0  0  0  0
  2  1  1  6  0  0  0
  2  3  1  0  0  0  0
  2  7  1  0  0  0  0
  3  4  1  0  0  0  0
  4  5  1  0  0  0  0
  5  6  1  0  0  0  0
  6  7  1  0  0  0  0
  6  8  1  1  0  0  0
  8  9  1  0  0  0  0
  8 14  1  0  0  0  0
  9 10  2  0  0  0  0
  9 13  1  0  0  0  0
 10 11  1  0  0  0  0
 10 12  1  0  0  0  0
 12 15  1  0  0  0  0
 12 16  1  0  0  0  0
 13 17  1  0  0  0  0
 13 18  1  0  0  0  0
M  CHG  1  10   1
M  END
>  <CHROM.0>
-44.93653140,-59.09805150,-55.92115925,178.22937351,-55.08941224,-57.21324263
-55.38631462,-50.93612281,-165.03957234,160.19424976

>  <CHROM.1>
73.81929891,52.28584742,21.32536294,-16.95992007,4.41958713,2.90678228,0.41197682
2.76736386

>  <Name>
P132826043

>  <RI>
0

>  <Rbt.Current_Directory>
/home/fstefaniak/projects/zuza/docking/adenine/1Y26

>  <Rbt.Executable>
rbdock ($Id: //depot/dev/client3/rdock/2013.1/src/exe/rbdock.cxx#4 $)

>  <Rbt.Library>
libRbt.so (2013.1, Build901 2013/11/27)

>  <Rbt.Parameter_File>
/home/fstefaniak/progs/rDock//data/scripts/dock_solv.prm

>  <Rbt.Receptor>
1y26.prm

>  <SCORE>
-50.1963

>  <SCORE.INTER>
-30.2543

>  <SCORE.INTER.CONST>
1

>  <SCORE.INTER.POLAR>
-3.64319

>  <SCORE.INTER.ROT>
2

>  <SCORE.INTER.SOLV>
18.3524

>  <SCORE.INTER.VDW>
-19.0763

>  <SCORE.INTER.norm>
-2.52119

>  <SCORE.INTRA>
-0.0479424

>  <SCORE.INTRA.DIHEDRAL>
-0.133902

>  <SCORE.INTRA.DIHEDRAL.0>
3.08996

>  <SCORE.INTRA.POLAR>
0.00808753

>  <SCORE.INTRA.POLAR.0>
-0.0362239

>  <SCORE.INTRA.REPUL>
0

>  <SCORE.INTRA.REPUL.0>
0

>  <SCORE.INTRA.SOLV>
-0.0276525

>  <SCORE.INTRA.SOLV.lig_0>
-27.2241

>  <SCORE.INTRA.VDW>
0.00533695

>  <SCORE.INTRA.VDW.0>
-0.602231

>  <SCORE.INTRA.norm>
-0.0039952

>  <SCORE.RESTR>
0

>  <SCORE.RESTR.CAVITY>
0

>  <SCORE.RESTR.norm>
0

>  <SCORE.SYSTEM>
-19.8941

>  <SCORE.SYSTEM.CONST>
0

>  <SCORE.SYSTEM.DIHEDRAL>
6.46318

>  <SCORE.SYSTEM.POLAR>
-3.03183

>  <SCORE.SYSTEM.SOLV>
0.491843

>  <SCORE.SYSTEM.VDW>
-5.47499

>  <SCORE.SYSTEM.norm>
-1.65784

>  <SCORE.heavy>
12

>  <SCORE.norm>
-4.18303

$$$$
P132826043
 OpenBabel12072022103D
libRbt.so/2013.1/901 2013/11/27
 18 18  0  0  0  0  0  0  0  0999 V2000
   19.2210  -18.3610    1.9908 C   0  0  0  0  0  0  0  0  0  0  0  0
   18.7179  -17.4921    3.1465 C   0  0  1  0  0  0  0  0  0  0  0  0
   18.3789  -18.3335    4.3842 C   0  0  0  0  0  0  0  0  0  0  0  0
   19.6180  -18.8533    5.1085 C   0  0  0  0  0  0  0  0  0  0  0  0
   20.5845  -17.7254    5.4559 C   0  0  0  0  0  0  0  0  0  0  0  0
   20.9712  -16.8967    4.2267 C   0  0  1  0  0  0  0  0  0  0  0  0
   19.7177  -16.3829    3.5015 C   0  0  0  0  0  0  0  0  0  0  0  0
   21.8253  -15.7464    4.6082 N   0  0  0  0  0  0  0  0  0  0  0  0
   23.1384  -15.8055    4.8988 C   0  0  0  0  0  0  0  0  0  0  0  0
   23.8574  -16.9705    4.8019 N   0  3  0  0  0  0  0  0  0  0  0  0
   23.5022  -17.7975    4.3260 H   0  0  0  0  0  0  0  0  0  0  0  0
   25.2054  -16.9811    5.1965 N   0  0  0  0  0  0  0  0  0  0  0  0
   23.7722  -14.6845    5.2826 N   0  0  0  0  0  0  0  0  0  0  0  0
   21.4047  -14.8255    4.6097 H   0  0  0  0  0  0  0  0  0  0  0  0
   25.5297  -17.9532    5.2745 H   0  0  0  0  0  0  0  0  0  0  0  0
   25.7809  -16.5446    4.4655 H   0  0  0  0  0  0  0  0  0  0  0  0
   23.3121  -13.7928    5.3884 H   0  0  0  0  0  0  0  0  0  0  0  0
   24.7808  -14.7293    5.3717 H   0  0  0  0  0  0  0  0  0  0  0  0
  2  1  1  6  0  0  0
  2  3  1  0  0  0  0
  2  7  1  0  0  0  0
  3  4  1  0  0  0  0
  4  5  1  0  0  0  0
  5  6  1  0  0  0  0
  6  7  1  0  0  0  0
  6  8  1  1  0  0  0
  8  9  1  0  0  0  0
  8 14  1  0  0  0  0
  9 10  2  0  0  0  0
  9 13  1  0  0  0  0
 10 11  1  0  0  0  0
 10 12  1  0  0  0  0
 12 15  1  0  0  0  0
 12 16  1  0  0  0  0
 13 17  1  0  0  0  0
 13 18  1  0  0  0  0
M  CHG  1  10   1
M  END
>  <CHROM.0>
-49.85243082,-57.32231339,-52.67458582,-50.76628998,-57.08905836,58.86724359
-58.19709057,-51.76432245,-166.30372393,-58.25262422

>  <CHROM.1>
77.82089702,166.68479121,21.33081295,-17.00187704,4.38972965,2.89323733,0.38073933
2.81189955

>  <Name>
P132826043

>  <RI>
0

>  <Rbt.Current_Directory>
/home/fstefaniak/projects/zuza/docking/adenine/1Y26

>  <Rbt.Executable>
rbdock ($Id: //depot/dev/client3/rdock/2013.1/src/exe/rbdock.cxx#4 $)

>  <Rbt.Library>
libRbt.so (2013.1, Build901 2013/11/27)

>  <Rbt.Parameter_File>
/home/fstefaniak/progs/rDock//data/scripts/dock_solv.prm

>  <Rbt.Receptor>
1y26.prm

>  <SCORE>
-49.3211

>  <SCORE.INTER>
-30.593

>  <SCORE.INTER.CONST>
1

>  <SCORE.INTER.POLAR>
-3.75008

>  <SCORE.INTER.ROT>
2

>  <SCORE.INTER.SOLV>
18.1799

>  <SCORE.INTER.VDW>
-18.8884

>  <SCORE.INTER.norm>
-2.54942

>  <SCORE.INTRA>
-0.314167

>  <SCORE.INTRA.DIHEDRAL>
-0.19846

>  <SCORE.INTRA.DIHEDRAL.0>
3.08996

>  <SCORE.INTRA.POLAR>
-0.000624084

>  <SCORE.INTRA.POLAR.0>
-0.0362239

>  <SCORE.INTRA.REPUL>
0

>  <SCORE.INTRA.REPUL.0>
0

>  <SCORE.INTRA.SOLV>
-0.115291

>  <SCORE.INTRA.SOLV.lig_0>
-27.2241

>  <SCORE.INTRA.VDW>
-0.155169

>  <SCORE.INTRA.VDW.0>
-0.602231

>  <SCORE.INTRA.norm>
-0.0261806

>  <SCORE.RESTR>
0

>  <SCORE.RESTR.CAVITY>
0

>  <SCORE.RESTR.norm>
0

>  <SCORE.SYSTEM>
-18.4139

>  <SCORE.SYSTEM.CONST>
0

>  <SCORE.SYSTEM.DIHEDRAL>
4.47991

>  <SCORE.SYSTEM.POLAR>
-2.69019

>  <SCORE.SYSTEM.SOLV>
0.590367

>  <SCORE.SYSTEM.VDW>
-4.99874

>  <SCORE.SYSTEM.norm>
-1.53449

>  <SCORE.heavy>
12

>  <SCORE.norm>
-4.11009

$$$$
P132826048
 OpenBabel12072022103D
libRbt.so/2013.1/901 2013/11/27
 18 18  0  0  0  0  0  0  0  0999 V2000
   20.4460  -18.0227    2.0481 C   0  0  0  0  0  0  0  0  0  0  0  0
   19.2619  -17.5965    2.9193 C   0  0  1  0  0  0  0  0  0  0  0  0
   18.7878  -18.7357    3.8306 C   0  0  0  0  0  0  0  0  0  0  0  0
   19.7149  -18.9758    5.0186 C   0  0  0  0  0  0  0  0  0  0  0  0
   19.9455  -17.6967    5.8195 C   0  0  0  0  0  0  0  0  0  0  0  0
   20.4581  -16.5387    4.9536 C   0  0  2  0  0  0  0  0  0  0  0  0
   19.5556  -16.3229    3.7305 C   0  0  0  0  0  0  0  0  0  0  0  0
   21.8721  -16.7662    4.5768 N   0  0  0  0  0  0  0  0  0  0  0  0
   22.6783  -15.8838    3.9562 C   0  0  0  0  0  0  0  0  0  0  0  0
   23.9588  -16.2645    3.6237 N   0  3  0  0  0  0  0  0  0  0  0  0
   24.3953  -17.1196    3.9642 H   0  0  0  0  0  0  0  0  0  0  0  0
   24.7703  -15.3768    2.8981 N   0  0  0  0  0  0  0  0  0  0  0  0
   22.2783  -14.6381    3.6609 N   0  0  0  0  0  0  0  0  0  0  0  0
   22.2950  -17.6458    4.8445 H   0  0  0  0  0  0  0  0  0  0  0  0
   25.1610  -15.8601    2.0794 H   0  0  0  0  0  0  0  0  0  0  0  0
   25.5715  -15.0897    3.4741 H   0  0  0  0  0  0  0  0  0  0  0  0
   21.3683  -14.2829    3.9107 H   0  0  0  0  0  0  0  0  0  0  0  0
   22.9753  -13.9920    3.3117 H   0  0  0  0  0  0  0  0  0  0  0  0
  2  1  1  1  0  0  0
  2  3  1  0  0  0  0
  2  7  1  0  0  0  0
  3  4  1  0  0  0  0
  4  5  1  0  0  0  0
  5  6  1  0  0  0  0
  6  7  1  0  0  0  0
  6  8  1  6  0  0  0
  8  9  1  0  0  0  0
  8 14  1  0  0  0  0
  9 10  2  0  0  0  0
  9 13  1  0  0  0  0
 10 11  1  0  0  0  0
 10 12  1  0  0  0  0
 12 15  1  0  0  0  0
 12 16  1  0  0  0  0
 13 17  1  0  0  0  0
 13 18  1  0  0  0  0
M  CHG  1  10   1
M  END
>  <CHROM.0>
-49.47603070,43.47837704,-54.33338634,-52.25842440,-171.98440863,-61.79150362
-62.55632526,-54.00901156,-167.90693593,160.16398037

>  <CHROM.1>
-171.77581372,-128.57907226,21.22364594,-16.87501766,3.89675007,3.05009800
0.54545520,1.47129921

>  <Name>
P132826048

>  <RI>
0

>  <Rbt.Current_Directory>
/home/fstefaniak/projects/zuza/docking/adenine/1Y26

>  <Rbt.Executable>
rbdock ($Id: //depot/dev/client3/rdock/2013.1/src/exe/rbdock.cxx#4 $)

>  <Rbt.Library>
libRbt.so (2013.1, Build901 2013/11/27)

>  <Rbt.Parameter_File>
/home/fstefaniak/progs/rDock//data/scripts/dock_solv.prm

>  <Rbt.Receptor>
1y26.prm

>  <SCORE>
-41.6591

>  <SCORE.INTER>
-20.3959

>  <SCORE.INTER.CONST>
1

>  <SCORE.INTER.POLAR>
-2.51734

>  <SCORE.INTER.ROT>
2

>  <SCORE.INTER.SOLV>
16.0816

>  <SCORE.INTER.VDW>
-15.5

>  <SCORE.INTER.norm>
-1.69966

>  <SCORE.INTRA>
0.0717585

>  <SCORE.INTRA.DIHEDRAL>
0.0516426

>  <SCORE.INTRA.DIHEDRAL.0>
3.05781

>  <SCORE.INTRA.POLAR>
-0.0069856

>  <SCORE.INTRA.POLAR.0>
-0.0299945

>  <SCORE.INTRA.REPUL>
0

>  <SCORE.INTRA.REPUL.0>
0

>  <SCORE.INTRA.SOLV>
0.0207938

>  <SCORE.INTRA.SOLV.lig_0>
-26.0797

>  <SCORE.INTRA.VDW>
0.0592913

>  <SCORE.INTRA.VDW.0>
-1.12556

>  <SCORE.INTRA.norm>
0.00597987

>  <SCORE.RESTR>
0

>  <SCORE.RESTR.CAVITY>
0

>  <SCORE.RESTR.norm>
0

>  <SCORE.SYSTEM>
-21.3349

>  <SCORE.SYSTEM.CONST>
0

>  <SCORE.SYSTEM.DIHEDRAL>
7.04198

>  <SCORE.SYSTEM.POLAR>
-3.58915

>  <SCORE.SYSTEM.SOLV>
0.583191

>  <SCORE.SYSTEM.VDW>
-4.80117

>  <SCORE.SYSTEM.norm>
-1.77791

>  <SCORE.heavy>
12

>  <SCORE.norm>
-3.47159

$$$$
P132826048
 OpenBabel12072022103D
libRbt.so/2013.1/901 2013/11/27
 18 18  0  0  0  0  0  0  0  0999 V2000
   22.3681  -13.6112    6.0504 C   0  0  0  0  0  0  0  0  0  0  0  0
   23.0814  -13.6023    4.6962 C   0  0  1  0  0  0  0  0  0  0  0  0
   24.5068  -14.1592    4.8012 C   0  0  0  0  0  0  0  0  0  0  0  0
   24.5462  -15.6789    4.9338 C   0  0  0  0  0  0  0  0  0  0  0  0
   23.7754  -16.3620    3.8070 C   0  0  0  0  0  0  0  0  0  0  0  0
   22.3296  -15.8627    3.6894 C   0  0  2  0  0  0  0  0  0  0  0  0
   22.2803  -14.3305    3.6034 C   0  0  0  0  0  0  0  0  0  0  0  0
   21.5117  -16.3905    4.8055 N   0  0  0  0  0  0  0  0  0  0  0  0
   20.5298  -17.3065    4.7039 C   0  0  0  0  0  0  0  0  0  0  0  0
   19.8214  -17.6577    5.8308 N   0  3  0  0  0  0  0  0  0  0  0  0
   20.1004  -17.3911    6.7736 H   0  0  0  0  0  0  0  0  0  0  0  0
   18.7398  -18.5457    5.7105 N   0  0  0  0  0  0  0  0  0  0  0  0
   20.2255  -17.8991    3.5398 N   0  0  0  0  0  0  0  0  0  0  0  0
   21.7316  -16.0734    5.7412 H   0  0  0  0  0  0  0  0  0  0  0  0
   18.0100  -18.2914    6.3882 H   0  0  0  0  0  0  0  0  0  0  0  0
   19.0429  -19.4967    5.9550 H   0  0  0  0  0  0  0  0  0  0  0  0
   20.7296  -17.7167    2.6857 H   0  0  0  0  0  0  0  0  0  0  0  0
   19.5659  -18.6670    3.5626 H   0  0  0  0  0  0  0  0  0  0  0  0
  2  1  1  1  0  0  0
  2  3  1  0  0  0  0
  2  7  1  0  0  0  0
  3  4  1  0  0  0  0
  4  5  1  0  0  0  0
  5  6  1  0  0  0  0
  6  7  1  0  0  0  0
  6  8  1  1  0  0  0
  8  9  1  0  0  0  0
  8 14  1  0  0  0  0
  9 10  2  0  0  0  0
  9 13  1  0  0  0  0
 10 11  1  0  0  0  0
 10 12  1  0  0  0  0
 12 15  1  0  0  0  0
 12 16  1  0  0  0  0
 13 17  1  0  0  0  0
 13 18  1  0  0  0  0
M  CHG  1  10   1
M  END
>  <CHROM.0>
-48.17824658,-60.28051236,60.06495907,-51.19577585,-174.17961540,-58.29765577
75.64765405,-52.25362871,-167.16482142,161.65242322

>  <CHROM.1>
-110.65941632,-145.61314494,21.91335700,-16.00458552,4.71216053,0.52109612
0.53892305,0.61565740

>  <Name>
P132826048

>  <RI>
0

>  <Rbt.Current_Directory>
/home/fstefaniak/projects/zuza/docking/adenine/1Y26

>  <Rbt.Executable>
rbdock ($Id: //depot/dev/client3/rdock/2013.1/src/exe/rbdock.cxx#4 $)

>  <Rbt.Library>
libRbt.so (2013.1, Build901 2013/11/27)

>  <Rbt.Parameter_File>
/home/fstefaniak/progs/rDock//data/scripts/dock_solv.prm

>  <Rbt.Receptor>
1y26.prm

>  <SCORE>
-40.9616

>  <SCORE.INTER>
-20.406

>  <SCORE.INTER.CONST>
1

>  <SCORE.INTER.POLAR>
-2.39176

>  <SCORE.INTER.ROT>
2

>  <SCORE.INTER.SOLV>
15.9172

>  <SCORE.INTER.VDW>
-15.8705

>  <SCORE.INTER.norm>
-1.7005

>  <SCORE.INTRA>
0.26251

>  <SCORE.INTRA.DIHEDRAL>
0.0968754

>  <SCORE.INTRA.DIHEDRAL.0>
3.05781

>  <SCORE.INTRA.POLAR>
-0.0069856

>  <SCORE.INTRA.POLAR.0>
-0.0299945

>  <SCORE.INTRA.REPUL>
0

>  <SCORE.INTRA.REPUL.0>
0

>  <SCORE.INTRA.SOLV>
-0.108515

>  <SCORE.INTRA.SOLV.lig_0>
-26.0797

>  <SCORE.INTRA.VDW>
0.29208

>  <SCORE.INTRA.VDW.0>
-1.12556

>  <SCORE.INTRA.norm>
0.0218758

>  <SCORE.RESTR>
0

>  <SCORE.RESTR.CAVITY>
0

>  <SCORE.RESTR.norm>
0

>  <SCORE.SYSTEM>
-20.8181

>  <SCORE.SYSTEM.CONST>
0

>  <SCORE.SYSTEM.DIHEDRAL>
6.80268

>  <SCORE.SYSTEM.POLAR>
-3.75848

>  <SCORE.SYSTEM.SOLV>
0.329328

>  <SCORE.SYSTEM.VDW>
-3.72781

>  <SCORE.SYSTEM.norm>
-1.73484

>  <SCORE.heavy>
12

>  <SCORE.norm>
-3.41347

$$$$
P132826048
 OpenBabel12072022103D
libRbt.so/2013.1/901 2013/11/27
 18 18  0  0  0  0  0  0  0  0999 V2000
   22.3538  -13.6173    6.0364 C   0  0  0  0  0  0  0  0  0  0  0  0
   23.0488  -13.6140    4.6727 C   0  0  1  0  0  0  0  0  0  0  0  0
   24.4781  -14.1635    4.7621 C   0  0  0  0  0  0  0  0  0  0  0  0
   24.5266  -15.6821    4.9041 C   0  0  0  0  0  0  0  0  0  0  0  0
   23.7439  -16.3763    3.7923 C   0  0  0  0  0  0  0  0  0  0  0  0
   22.2943  -15.8845    3.6909 C   0  0  2  0  0  0  0  0  0  0  0  0
   22.2366  -14.3532    3.5956 C   0  0  0  0  0  0  0  0  0  0  0  0
   21.4941  -16.4087    4.8214 N   0  0  0  0  0  0  0  0  0  0  0  0
   20.5267  -17.3422    4.7414 C   0  0  0  0  0  0  0  0  0  0  0  0
   19.8331  -17.6880    5.8792 N   0  3  0  0  0  0  0  0  0  0  0  0
   20.1149  -17.4026    6.8156 H   0  0  0  0  0  0  0  0  0  0  0  0
   18.7654  -18.5953    5.7810 N   0  0  0  0  0  0  0  0  0  0  0  0
   20.2232  -17.9573    3.5889 N   0  0  0  0  0  0  0  0  0  0  0  0
   21.7160  -16.0740    5.7504 H   0  0  0  0  0  0  0  0  0  0  0  0
   17.9963  -18.2874    6.3893 H   0  0  0  0  0  0  0  0  0  0  0  0
   19.0594  -19.5160    6.1301 H   0  0  0  0  0  0  0  0  0  0  0  0
   20.7175  -17.7796    2.7281 H   0  0  0  0  0  0  0  0  0  0  0  0
   19.5766  -18.7355    3.6286 H   0  0  0  0  0  0  0  0  0  0  0  0
  2  1  1  1  0  0  0
  2  3  1  0  0  0  0
  2  7  1  0  0  0  0
  3  4  1  0  0  0  0
  4  5  1  0  0  0  0
  5  6  1  0  0  0  0
  6  7  1  0  0  0  0
  6  8  1  1  0  0  0
  8  9  1  0  0  0  0
  8 14  1  0  0  0  0
  9 10  2  0  0  0  0
  9 13  1  0  0  0  0
 10 11  1  0  0  0  0
 10 12  1  0  0  0  0
 12 15  1  0  0  0  0
 12 16  1  0  0  0  0
 13 17  1  0  0  0  0
 13 18  1  0  0  0  0
M  CHG  1  10   1
M  END
>  <CHROM.0>
-48.03185865,-60.77222820,-54.04386882,-53.31138059,59.90329206,-57.13321442
-59.17863183,-51.82476596,-166.42497647,161.58883337

>  <CHROM.1>
-109.76890666,-139.75147156,21.89803350,-16.02753175,4.72142202,0.52216460
0.55500070,0.60663582

>  <Name>
P132826048

>  <RI>
0

>  <Rbt.Current_Directory>
/home/fstefaniak/projects/zuza/docking/adenine/1Y26

>  <Rbt.Executable>
rbdock ($Id: //depot/dev/client3/rdock/2013.1/src/exe/rbdock.cxx#4 $)

>  <Rbt.Library>
libRbt.so (2013.1, Build901 2013/11/27)

>  <Rbt.Parameter_File>
/home/fstefaniak/progs/rDock//data/scripts/dock_solv.prm

>  <Rbt.Receptor>
1y26.prm

>  <SCORE>
-40.7561

>  <SCORE.INTER>
-20.3805

>  <SCORE.INTER.CONST>
1

>  <SCORE.INTER.POLAR>
-2.38053

>  <SCORE.INTER.ROT>
2

>  <SCORE.INTER.SOLV>
16.0201

>  <SCORE.INTER.VDW>
-15.9252

>  <SCORE.INTER.norm>
-1.69837

>  <SCORE.INTRA>
0.302746

>  <SCORE.INTRA.DIHEDRAL>
0.13077

>  <SCORE.INTRA.DIHEDRAL.0>
3.05781

>  <SCORE.INTRA.POLAR>
-0.0069856

>  <SCORE.INTRA.POLAR.0>
-0.0299945

>  <SCORE.INTRA.REPUL>
0

>  <SCORE.INTRA.REPUL.0>
0

>  <SCORE.INTRA.SOLV>
-0.119468

>  <SCORE.INTRA.SOLV.lig_0>
-26.0797

>  <SCORE.INTRA.VDW>
0.320846

>  <SCORE.INTRA.VDW.0>
-1.12556

>  <SCORE.INTRA.norm>
0.0252288

>  <SCORE.RESTR>
0

>  <SCORE.RESTR.CAVITY>
0

>  <SCORE.RESTR.norm>
0

>  <SCORE.SYSTEM>
-20.6784

>  <SCORE.SYSTEM.CONST>
0

>  <SCORE.SYSTEM.DIHEDRAL>
5.72232

>  <SCORE.SYSTEM.POLAR>
-3.48749

>  <SCORE.SYSTEM.SOLV>
0.469611

>  <SCORE.SYSTEM.VDW>
-4.22458

>  <SCORE.SYSTEM.norm>
-1.7232

>  <SCORE.heavy>
12

>  <SCORE.norm>
-3.39634

$$$$
P133005854
 OpenBabel12072022103D
libRbt.so/2013.1/901 2013/11/27
 10 10  0  0  0  0  0  0  0  0999 V2000
   20.4316  -16.5005    4.5668 C   0  0  0  0  0  0  0  0  0  0  0  0
   21.7951  -16.7623    3.9549 C   0  0  0  0  0  0  0  0  0  0  0  0
   21.6076  -17.6856    2.8700 O   0  0  0  0  0  0  0  0  0  0  0  0
   20.2025  -17.8837    2.6812 C   0  0  0  0  0  0  0  0  0  0  0  0
   19.5628  -17.6257    4.0296 C   0  0  1  0  0  0  0  0  0  0  0  0
   19.5178  -18.8727    4.9235 C   0  0  1  0  0  0  0  0  0  0  0  0
   19.0364  -18.6448    6.3541 C   0  0  0  0  0  0  0  0  0  0  0  0
   19.7533  -18.1342    7.2142 O   0  0  0  0  0  0  0  0  0  0  0  0
   18.6969  -19.8506    4.2823 O   0  0  0  0  0  0  0  0  0  0  0  0
   18.5773  -20.5773    4.9283 H   0  0  0  0  0  0  0  0  0  0  0  0
  1  2  1  0  0  0  0
  1  5  1  0  0  0  0
  2  3  1  0  0  0  0
  3  4  1  0  0  0  0
  4  5  1  0  0  0  0
  5  6  1  1  0  0  0
  6  7  1  1  0  0  0
  6  9  1  0  0  0  0
  7  8  2  0  0  0  0
  9 10  1  0  0  0  0
M  END
>  <CHROM.0>
-48.27782419,-171.03563535,-54.98171176,-51.71785358,-58.29592598,-57.66783457
-57.89170496,-176.50131819,-166.31869857,161.18327712

>  <CHROM.1>
57.54570861,-76.46247688,-171.81877077,20.06953089,-18.03212212,4.54303971
-0.67586027,0.83778078,1.31285007

>  <Name>
P133005854

>  <RI>
0

>  <Rbt.Current_Directory>
/home/fstefaniak/projects/zuza/docking/adenine/1Y26

>  <Rbt.Executable>
rbdock ($Id: //depot/dev/client3/rdock/2013.1/src/exe/rbdock.cxx#4 $)

>  <Rbt.Library>
libRbt.so (2013.1, Build901 2013/11/27)

>  <Rbt.Parameter_File>
/home/fstefaniak/progs/rDock//data/scripts/dock_solv.prm

>  <Rbt.Receptor>
1y26.prm

>  <SCORE>
-51.7195

>  <SCORE.INTER>
-27.2459

>  <SCORE.INTER.CONST>
1

>  <SCORE.INTER.POLAR>
-3.17756

>  <SCORE.INTER.ROT>
2

>  <SCORE.INTER.SOLV>
10.2587

>  <SCORE.INTER.VDW>
-15.9249

>  <SCORE.INTER.norm>
-3.02732

>  <SCORE.INTRA>
-1.7396

>  <SCORE.INTRA.DIHEDRAL>
-1.12796

>  <SCORE.INTRA.DIHEDRAL.0>
4.46298

>  <SCORE.INTRA.POLAR>
0

>  <SCORE.INTRA.POLAR.0>
0

>  <SCORE.INTRA.REPUL>
0

>  <SCORE.INTRA.REPUL.0>
0

>  <SCORE.INTRA.SOLV>
-0.411457

>  <SCORE.INTRA.SOLV.lig_0>
-10.1399

>  <SCORE.INTRA.VDW>
-0.969897

>  <SCORE.INTRA.VDW.0>
0.782296

>  <SCORE.INTRA.norm>
-0.193289

>  <SCORE.RESTR>
0

>  <SCORE.RESTR.CAVITY>
0

>  <SCORE.RESTR.norm>
0

>  <SCORE.SYSTEM>
-22.734

>  <SCORE.SYSTEM.CONST>
0

>  <SCORE.SYSTEM.DIHEDRAL>
5.96968

>  <SCORE.SYSTEM.POLAR>
-3.48571

>  <SCORE.SYSTEM.SOLV>
0.398952

>  <SCORE.SYSTEM.VDW>
-5.65985

>  <SCORE.SYSTEM.norm>
-2.526

>  <SCORE.heavy>
9

>  <SCORE.norm>
-5.74661

$$$$
P133005854
 OpenBabel12072022103D
libRbt.so/2013.1/901 2013/11/27
 10 10  0  0  0  0  0  0  0  0999 V2000
   20.4143  -16.5077    4.5750 C   0  0  0  0  0  0  0  0  0  0  0  0
   21.7889  -16.7510    3.9805 C   0  0  0  0  0  0  0  0  0  0  0  0
   21.6257  -17.6654    2.8841 O   0  0  0  0  0  0  0  0  0  0  0  0
   20.2254  -17.8745    2.6731 C   0  0  0  0  0  0  0  0  0  0  0  0
   19.5640  -17.6356    4.0145 C   0  0  1  0  0  0  0  0  0  0  0  0
   19.5177  -18.8916    4.8956 C   0  0  1  0  0  0  0  0  0  0  0  0
   19.1160  -18.6651    6.3508 C   0  0  0  0  0  0  0  0  0  0  0  0
   19.8695  -18.1312    7.1640 O   0  0  0  0  0  0  0  0  0  0  0  0
   18.6312  -19.8312    4.2851 O   0  0  0  0  0  0  0  0  0  0  0  0
   18.5403  -20.5753    4.9159 H   0  0  0  0  0  0  0  0  0  0  0  0
  1  2  1  0  0  0  0
  1  5  1  0  0  0  0
  2  3  1  0  0  0  0
  3  4  1  0  0  0  0
  4  5  1  0  0  0  0
  5  6  1  1  0  0  0
  6  7  1  1  0  0  0
  6  9  1  0  0  0  0
  7  8  2  0  0  0  0
  9 10  1  0  0  0  0
M  END
>  <CHROM.0>
-49.08058480,-172.04952935,-57.34224353,-53.44035365,-55.15842875,-51.88425790
-56.58350870,-53.31590845,-167.55471437,160.46408890

>  <CHROM.1>
53.05050235,-72.79467178,-173.61934952,20.08569752,-18.03036136,4.53700189
-0.68904629,0.82518851,1.35761400

>  <Name>
P133005854

>  <RI>
0

>  <Rbt.Current_Directory>
/home/fstefaniak/projects/zuza/docking/adenine/1Y26

>  <Rbt.Executable>
rbdock ($Id: //depot/dev/client3/rdock/2013.1/src/exe/rbdock.cxx#4 $)

>  <Rbt.Library>
libRbt.so (2013.1, Build901 2013/11/27)

>  <Rbt.Parameter_File>
/home/fstefaniak/progs/rDock//data/scripts/dock_solv.prm

>  <Rbt.Receptor>
1y26.prm

>  <SCORE>
-51.168

>  <SCORE.INTER>
-27.3182

>  <SCORE.INTER.CONST>
1

>  <SCORE.INTER.POLAR>
-3.14598

>  <SCORE.INTER.ROT>
2

>  <SCORE.INTER.SOLV>
10.2628

>  <SCORE.INTER.VDW>
-16.0798

>  <SCORE.INTER.norm>
-3.03536

>  <SCORE.INTRA>
-1.62232

>  <SCORE.INTRA.DIHEDRAL>
-0.940287

>  <SCORE.INTRA.DIHEDRAL.0>
4.46298

>  <SCORE.INTRA.POLAR>
0

>  <SCORE.INTRA.POLAR.0>
0

>  <SCORE.INTRA.REPUL>
0

>  <SCORE.INTRA.REPUL.0>
0

>  <SCORE.INTRA.SOLV>
-0.412094

>  <SCORE.INTRA.SOLV.lig_0>
-10.1399

>  <SCORE.INTRA.VDW>
-0.946134

>  <SCORE.INTRA.VDW.0>
0.782296

>  <SCORE.INTRA.norm>
-0.180258

>  <SCORE.RESTR>
0

>  <SCORE.RESTR.CAVITY>
0

>  <SCORE.RESTR.norm>
0

>  <SCORE.SYSTEM>
-22.2274

>  <SCORE.SYSTEM.CONST>
0

>  <SCORE.SYSTEM.DIHEDRAL>
6.11964

>  <SCORE.SYSTEM.POLAR>
-3.48724

>  <SCORE.SYSTEM.SOLV>
0.616149

>  <SCORE.SYSTEM.VDW>
-5.43943

>  <SCORE.SYSTEM.norm>
-2.46971

>  <SCORE.heavy>
9

>  <SCORE.norm>
-5.68533

$$$$
P133005854
 OpenBabel12072022103D
libRbt.so/2013.1/901 2013/11/27
 10 10  0  0  0  0  0  0  0  0999 V2000
   20.4435  -16.4865    4.5668 C   0  0  0  0  0  0  0  0  0  0  0  0
   21.8283  -16.7276    3.9954 C   0  0  0  0  0  0  0  0  0  0  0  0
   21.6868  -17.6535    2.9058 O   0  0  0  0  0  0  0  0  0  0  0  0
   20.2911  -17.8727    2.6757 C   0  0  0  0  0  0  0  0  0  0  0  0
   19.6081  -17.6247    4.0045 C   0  0  1  0  0  0  0  0  0  0  0  0
   19.5555  -18.8723    4.8971 C   0  0  1  0  0  0  0  0  0  0  0  0
   19.0716  -18.6438    6.3267 C   0  0  0  0  0  0  0  0  0  0  0  0
   19.7884  -18.1371    7.1891 O   0  0  0  0  0  0  0  0  0  0  0  0
   18.7322  -19.8461    4.2528 O   0  0  0  0  0  0  0  0  0  0  0  0
   18.6059  -20.5719    4.8987 H   0  0  0  0  0  0  0  0  0  0  0  0
  1  2  1  0  0  0  0
  1  5  1  0  0  0  0
  2  3  1  0  0  0  0
  3  4  1  0  0  0  0
  4  5  1  0  0  0  0
  5  6  1  1  0  0  0
  6  7  1  1  0  0  0
  6  9  1  0  0  0  0
  7  8  2  0  0  0  0
  9 10  1  0  0  0  0
M  END
>  <CHROM.0>
-44.20977012,-171.64007093,-55.32356609,-53.25653861,-55.93696098,-176.11478390
-60.89426888,-53.05929873,-167.34521183,159.88412168

>  <CHROM.1>
55.64225906,-76.46553217,-171.67072061,20.11439167,-18.02128026,4.53638297
-0.64984799,0.83689047,1.30754962

>  <Name>
P133005854

>  <RI>
0

>  <Rbt.Current_Directory>
/home/fstefaniak/projects/zuza/docking/adenine/1Y26

>  <Rbt.Executable>
rbdock ($Id: //depot/dev/client3/rdock/2013.1/src/exe/rbdock.cxx#4 $)

>  <Rbt.Library>
libRbt.so (2013.1, Build901 2013/11/27)

>  <Rbt.Parameter_File>
/home/fstefaniak/progs/rDock//data/scripts/dock_solv.prm

>  <Rbt.Receptor>
1y26.prm

>  <SCORE>
-51.0803

>  <SCORE.INTER>
-27.274

>  <SCORE.INTER.CONST>
1

>  <SCORE.INTER.POLAR>
-3.17542

>  <SCORE.INTER.ROT>
2

>  <SCORE.INTER.SOLV>
10.2539

>  <SCORE.INTER.VDW>
-15.9492

>  <SCORE.INTER.norm>
-3.03045

>  <SCORE.INTRA>
-1.7053

>  <SCORE.INTRA.DIHEDRAL>
-1.08107

>  <SCORE.INTRA.DIHEDRAL.0>
4.46298

>  <SCORE.INTRA.POLAR>
0

>  <SCORE.INTRA.POLAR.0>
0

>  <SCORE.INTRA.REPUL>
0

>  <SCORE.INTRA.REPUL.0>
0

>  <SCORE.INTRA.SOLV>
-0.415883

>  <SCORE.INTRA.SOLV.lig_0>
-10.1399

>  <SCORE.INTRA.VDW>
-0.956818

>  <SCORE.INTRA.VDW.0>
0.782296

>  <SCORE.INTRA.norm>
-0.189477

>  <SCORE.RESTR>
0

>  <SCORE.RESTR.CAVITY>
0

>  <SCORE.RESTR.norm>
0

>  <SCORE.SYSTEM>
-22.1009

>  <SCORE.SYSTEM.CONST>
0

>  <SCORE.SYSTEM.DIHEDRAL>
6.62782

>  <SCORE.SYSTEM.POLAR>
-3.55199

>  <SCORE.SYSTEM.SOLV>
0.460346

>  <SCORE.SYSTEM.VDW>
-5.2567

>  <SCORE.SYSTEM.norm>
-2.45566

>  <SCORE.heavy>
9

>  <SCORE.norm>
-5.67558

$$$$
P133035570
 OpenBabel12072022103D
libRbt.so/2013.1/901 2013/11/27
 19 19  0  0  0  0  0  0  0  0999 V2000
   19.0792  -17.1356    3.4224 C   0  0  0  0  0  0  0  0  0  0  0  0
   18.8057  -18.6207    3.7012 C   0  0  0  0  0  0  0  0  0  0  0  0
   19.6011  -18.9607    4.9574 C   0  0  1  0  0  0  0  0  0  0  0  0
   19.8601  -17.6226    5.6353 C   0  0  0  0  0  0  0  0  0  0  0  0
   20.1270  -16.6928    4.4495 C   0  0  1  0  0  0  0  0  0  0  0  0
   21.5433  -16.8639    3.9101 C   0  0  0  0  0  0  0  0  0  0  0  0
   21.7547  -17.2791    2.7749 O   0  0  0  0  0  0  0  0  0  0  0  0
   22.5296  -16.4869    4.7871 N   0  0  0  0  0  0  0  0  0  0  0  0
   23.8348  -16.0840    4.2892 C   0  0  0  0  0  0  0  0  0  0  0  0
   24.8577  -17.1910    4.5644 C   0  0  0  0  0  0  0  0  0  0  0  0
   24.9703  -18.2030    3.8760 O   0  0  0  0  0  0  0  0  0  0  0  0
   25.6740  -16.9747    5.6362 N   0  0  0  0  0  0  0  0  0  0  0  0
   18.8350  -19.8572    5.8464 N   0  3  0  0  0  0  0  0  0  0  0  0
   18.0471  -19.3818    6.3044 H   0  0  0  0  0  0  0  0  0  0  0  0
   18.4558  -20.6570    5.3222 H   0  0  0  0  0  0  0  0  0  0  0  0
   19.4406  -20.2418    6.5839 H   0  0  0  0  0  0  0  0  0  0  0  0
   22.2526  -16.0759    5.6708 H   0  0  0  0  0  0  0  0  0  0  0  0
   25.5929  -16.1761    6.2516 H   0  0  0  0  0  0  0  0  0  0  0  0
   26.3649  -17.6807    5.8602 H   0  0  0  0  0  0  0  0  0  0  0  0
  1  2  1  0  0  0  0
  1  5  1  0  0  0  0
  2  3  1  0  0  0  0
  3  4  1  0  0  0  0
  3 13  1  1  0  0  0
  4  5  1  0  0  0  0
  5  6  1  6  0  0  0
  6  7  2  0  0  0  0
  6  8  1  0  0  0  0
  8  9  1  0  0  0  0
  8 17  1  0  0  0  0
  9 10  1  0  0  0  0
 10 11  2  0  0  0  0
 10 12  1  0  0  0  0
 12 18  1  0  0  0  0
 12 19  1  0  0  0  0
 13 14  1  0  0  0  0
 13 15  1  0  0  0  0
 13 16  1  0  0  0  0
M  CHG  1  13   1
M  END
>  <CHROM.0>
62.49940658,-64.75671838,-65.79555214,-51.91448761,-56.43463544,60.51693014
-168.78928971,-52.38122876,-167.32055547,160.78449546

>  <CHROM.1>
-71.39368746,1.59551963,-155.50181134,-106.15256978,79.57357470,21.67490155
-17.57549139,4.47801805,2.96664432,0.17162101,2.34835977

>  <Name>
P133035570

>  <RI>
0

>  <Rbt.Current_Directory>
/home/fstefaniak/projects/zuza/docking/adenine/1Y26

>  <Rbt.Executable>
rbdock ($Id: //depot/dev/client3/rdock/2013.1/src/exe/rbdock.cxx#4 $)

>  <Rbt.Library>
libRbt.so (2013.1, Build901 2013/11/27)

>  <Rbt.Parameter_File>
/home/fstefaniak/progs/rDock//data/scripts/dock_solv.prm

>  <Rbt.Receptor>
1y26.prm

>  <SCORE>
-62.8633

>  <SCORE.INTER>
-44.2023

>  <SCORE.INTER.CONST>
1

>  <SCORE.INTER.POLAR>
-5.48415

>  <SCORE.INTER.ROT>
4

>  <SCORE.INTER.SOLV>
26.2067

>  <SCORE.INTER.VDW>
-26.19

>  <SCORE.INTER.norm>
-3.40018

>  <SCORE.INTRA>
0.861821

>  <SCORE.INTRA.DIHEDRAL>
1.58699

>  <SCORE.INTRA.DIHEDRAL.0>
3.12305

>  <SCORE.INTRA.POLAR>
0

>  <SCORE.INTRA.POLAR.0>
0

>  <SCORE.INTRA.REPUL>
0

>  <SCORE.INTRA.REPUL.0>
0

>  <SCORE.INTRA.SOLV>
-0.30166

>  <SCORE.INTRA.SOLV.lig_0>
-38.6798

>  <SCORE.INTRA.VDW>
0.219158

>  <SCORE.INTRA.VDW.0>
-0.586582

>  <SCORE.INTRA.norm>
0.066294

>  <SCORE.RESTR>
0

>  <SCORE.RESTR.CAVITY>
0

>  <SCORE.RESTR.norm>
0

>  <SCORE.SYSTEM>
-19.5228

>  <SCORE.SYSTEM.CONST>
0

>  <SCORE.SYSTEM.DIHEDRAL>
5.84525

>  <SCORE.SYSTEM.POLAR>
-3.20275

>  <SCORE.SYSTEM.SOLV>
0.413665

>  <SCORE.SYSTEM.VDW>
-4.42567

>  <SCORE.SYSTEM.norm>
-1.50175

>  <SCORE.heavy>
13

>  <SCORE.norm>
-4.83564

$$$$
P133035570
 OpenBabel12072022103D
libRbt.so/2013.1/901 2013/11/27
 19 19  0  0  0  0  0  0  0  0999 V2000
   19.0824  -17.1265    3.5169 C   0  0  0  0  0  0  0  0  0  0  0  0
   18.9026  -18.6514    3.5421 C   0  0  0  0  0  0  0  0  0  0  0  0
   19.7423  -19.1491    4.7140 C   0  0  1  0  0  0  0  0  0  0  0  0
   19.9362  -17.9314    5.6066 C   0  0  0  0  0  0  0  0  0  0  0  0
   20.1233  -16.8001    4.5934 C   0  0  1  0  0  0  0  0  0  0  0  0
   21.5357  -16.7902    4.0180 C   0  0  0  0  0  0  0  0  0  0  0  0
   21.7669  -17.1593    2.8708 O   0  0  0  0  0  0  0  0  0  0  0  0
   22.4913  -16.3100    4.8785 N   0  0  0  0  0  0  0  0  0  0  0  0
   23.7997  -15.9241    4.3754 C   0  0  0  0  0  0  0  0  0  0  0  0
   24.7880  -17.0796    4.5645 C   0  0  0  0  0  0  0  0  0  0  0  0
   24.8581  -18.0482    3.8111 O   0  0  0  0  0  0  0  0  0  0  0  0
   25.6240  -16.9599    5.6363 N   0  0  0  0  0  0  0  0  0  0  0  0
   19.0488  -20.2283    5.4456 N   0  3  0  0  0  0  0  0  0  0  0  0
   18.0495  -20.2862    5.2121 H   0  0  0  0  0  0  0  0  0  0  0  0
   19.4721  -21.1427    5.2382 H   0  0  0  0  0  0  0  0  0  0  0  0
   19.1256  -20.0858    6.4617 H   0  0  0  0  0  0  0  0  0  0  0  0
   22.1833  -15.8255    5.7133 H   0  0  0  0  0  0  0  0  0  0  0  0
   25.5772  -16.2003    6.3027 H   0  0  0  0  0  0  0  0  0  0  0  0
   26.2934  -17.7011    5.8048 H   0  0  0  0  0  0  0  0  0  0  0  0
  1  2  1  0  0  0  0
  1  5  1  0  0  0  0
  2  3  1  0  0  0  0
  3  4  1  0  0  0  0
  3 13  1  1  0  0  0
  4  5  1  0  0  0  0
  5  6  1  6  0  0  0
  6  7  2  0  0  0  0
  6  8  1  0  0  0  0
  8  9  1  0  0  0  0
  8 17  1  0  0  0  0
  9 10  1  0  0  0  0
 10 11  2  0  0  0  0
 10 12  1  0  0  0  0
 12 18  1  0  0  0  0
 12 19  1  0  0  0  0
 13 14  1  0  0  0  0
 13 15  1  0  0  0  0
 13 16  1  0  0  0  0
M  CHG  1  13   1
M  END
>  <CHROM.0>
-45.14442560,-61.79453591,-51.00982142,-48.21914173,-174.13205601,-54.88103297
-53.09722995,66.70295082,-165.96831153,-55.94387566

>  <CHROM.1>
-15.27627557,-7.87023339,-164.40973964,-96.56128583,80.19983757,21.69396173
-17.59254045,4.45008553,2.89104672,0.18286652,2.60520523

>  <Name>
P133035570

>  <RI>
0

>  <Rbt.Current_Directory>
/home/fstefaniak/projects/zuza/docking/adenine/1Y26

>  <Rbt.Executable>
rbdock ($Id: //depot/dev/client3/rdock/2013.1/src/exe/rbdock.cxx#4 $)

>  <Rbt.Library>
libRbt.so (2013.1, Build901 2013/11/27)

>  <Rbt.Parameter_File>
/home/fstefaniak/progs/rDock//data/scripts/dock_solv.prm

>  <Rbt.Receptor>
1y26.prm

>  <SCORE>
-59.6208

>  <SCORE.INTER>
-44.4727

>  <SCORE.INTER.CONST>
1

>  <SCORE.INTER.POLAR>
-5.52254

>  <SCORE.INTER.ROT>
4

>  <SCORE.INTER.SOLV>
28.0423

>  <SCORE.INTER.VDW>
-26.8541

>  <SCORE.INTER.norm>
-3.42098

>  <SCORE.INTRA>
2.88723

>  <SCORE.INTRA.DIHEDRAL>
4.50673

>  <SCORE.INTRA.DIHEDRAL.0>
3.12305

>  <SCORE.INTRA.POLAR>
0

>  <SCORE.INTRA.POLAR.0>
0

>  <SCORE.INTRA.REPUL>
0

>  <SCORE.INTRA.REPUL.0>
0

>  <SCORE.INTRA.SOLV>
-0.212704

>  <SCORE.INTRA.SOLV.lig_0>
-38.6798

>  <SCORE.INTRA.VDW>
0.740211

>  <SCORE.INTRA.VDW.0>
-0.586582

>  <SCORE.INTRA.norm>
0.222094

>  <SCORE.RESTR>
0

>  <SCORE.RESTR.CAVITY>
0

>  <SCORE.RESTR.norm>
0

>  <SCORE.SYSTEM>
-18.0353

>  <SCORE.SYSTEM.CONST>
0

>  <SCORE.SYSTEM.DIHEDRAL>
5.78526

>  <SCORE.SYSTEM.POLAR>
-2.8236

>  <SCORE.SYSTEM.SOLV>
0.382435

>  <SCORE.SYSTEM.VDW>
-4.66746

>  <SCORE.SYSTEM.norm>
-1.38733

>  <SCORE.heavy>
13

>  <SCORE.norm>
-4.58622

$$$$
P133035570
 OpenBabel12072022103D
libRbt.so/2013.1/901 2013/11/27
 19 19  0  0  0  0  0  0  0  0999 V2000
   19.6924  -18.3106    4.5223 C   0  0  0  0  0  0  0  0  0  0  0  0
   18.5105  -18.4768    3.5561 C   0  0  0  0  0  0  0  0  0  0  0  0
   18.9728  -17.8847    2.2288 C   0  0  1  0  0  0  0  0  0  0  0  0
   20.4932  -17.8860    2.3037 C   0  0  0  0  0  0  0  0  0  0  0  0
   20.7567  -17.5104    3.7636 C   0  0  1  0  0  0  0  0  0  0  0  0
   20.5968  -16.0113    3.9948 C   0  0  0  0  0  0  0  0  0  0  0  0
   19.6144  -15.3979    3.5896 O   0  0  0  0  0  0  0  0  0  0  0  0
   21.6195  -15.4393    4.7097 N   0  0  0  0  0  0  0  0  0  0  0  0
   22.3237  -14.2830    4.1797 C   0  0  0  0  0  0  0  0  0  0  0  0
   23.7856  -14.6493    3.9038 C   0  0  0  0  0  0  0  0  0  0  0  0
   24.2697  -14.7239    2.7765 O   0  0  0  0  0  0  0  0  0  0  0  0
   24.5475  -14.8753    5.0130 N   0  0  0  0  0  0  0  0  0  0  0  0
   18.5050  -18.7003    1.0901 N   0  3  0  0  0  0  0  0  0  0  0  0
   19.0295  -19.5786    0.9903 H   0  0  0  0  0  0  0  0  0  0  0  0
   17.5102  -18.9402    1.1950 H   0  0  0  0  0  0  0  0  0  0  0  0
   18.5963  -18.1787    0.2079 H   0  0  0  0  0  0  0  0  0  0  0  0
   21.5960  -15.5119    5.7200 H   0  0  0  0  0  0  0  0  0  0  0  0
   24.1833  -14.8615    5.9566 H   0  0  0  0  0  0  0  0  0  0  0  0
   25.5204  -15.1241    4.8814 H   0  0  0  0  0  0  0  0  0  0  0  0
  1  2  1  0  0  0  0
  1  5  1  0  0  0  0
  2  3  1  0  0  0  0
  3  4  1  0  0  0  0
  3 13  1  6  0  0  0
  4  5  1  0  0  0  0
  5  6  1  6  0  0  0
  6  7  2  0  0  0  0
  6  8  1  0  0  0  0
  8  9  1  0  0  0  0
  8 17  1  0  0  0  0
  9 10  1  0  0  0  0
 10 11  2  0  0  0  0
 10 12  1  0  0  0  0
 12 18  1  0  0  0  0
 12 19  1  0  0  0  0
 13 14  1  0  0  0  0
 13 15  1  0  0  0  0
 13 16  1  0  0  0  0
M  CHG  1  13   1
M  END
>  <CHROM.0>
-54.08490696,-170.32113937,-55.57445528,-48.10274303,58.44788300,-56.18481416
-56.92330926,-51.18332496,-168.04157153,161.82956512

>  <CHROM.1>
-74.40085003,-65.90450813,126.54472216,-115.29956346,111.69072119,21.06043639
-16.47276558,3.48780715,2.68328729,-0.53155249,-1.91603814

>  <Name>
P133035570

>  <RI>
0

>  <Rbt.Current_Directory>
/home/fstefaniak/projects/zuza/docking/adenine/1Y26

>  <Rbt.Executable>
rbdock ($Id: //depot/dev/client3/rdock/2013.1/src/exe/rbdock.cxx#4 $)

>  <Rbt.Library>
libRbt.so (2013.1, Build901 2013/11/27)

>  <Rbt.Parameter_File>
/home/fstefaniak/progs/rDock//data/scripts/dock_solv.prm

>  <Rbt.Receptor>
1y26.prm

>  <SCORE>
-59.4049

>  <SCORE.INTER>
-40.4272

>  <SCORE.INTER.CONST>
1

>  <SCORE.INTER.POLAR>
-6.74602

>  <SCORE.INTER.ROT>
4

>  <SCORE.INTER.SOLV>
23.7158

>  <SCORE.INTER.VDW>
-18.6366

>  <SCORE.INTER.norm>
-3.10978

>  <SCORE.INTRA>
1.5245

>  <SCORE.INTRA.DIHEDRAL>
4.73996

>  <SCORE.INTRA.DIHEDRAL.0>
3.12305

>  <SCORE.INTRA.POLAR>
0

>  <SCORE.INTRA.POLAR.0>
0

>  <SCORE.INTRA.REPUL>
0

>  <SCORE.INTRA.REPUL.0>
0

>  <SCORE.INTRA.SOLV>
-0.412508

>  <SCORE.INTRA.SOLV.lig_0>
-38.6798

>  <SCORE.INTRA.VDW>
-0.639224

>  <SCORE.INTRA.VDW.0>
-0.586582

>  <SCORE.INTRA.norm>
0.117269

>  <SCORE.RESTR>
0

>  <SCORE.RESTR.CAVITY>
0

>  <SCORE.RESTR.norm>
0

>  <SCORE.SYSTEM>
-20.5022

>  <SCORE.SYSTEM.CONST>
0

>  <SCORE.SYSTEM.DIHEDRAL>
5.91863

>  <SCORE.SYSTEM.POLAR>
-3.46687

>  <SCORE.SYSTEM.SOLV>
0.412479

>  <SCORE.SYSTEM.VDW>
-4.22225

>  <SCORE.SYSTEM.norm>
-1.57709

>  <SCORE.heavy>
13

>  <SCORE.norm>
-4.56961

$$$$
P133055839
 OpenBabel12072022103D
libRbt.so/2013.1/901 2013/11/27
 14 14  0  0  0  0  0  0  0  0999 V2000
   21.3015  -15.0337    4.9352 C   0  0  0  0  0  0  0  0  0  0  0  0
   22.5820  -14.2205    5.1309 C   0  0  0  0  0  0  0  0  0  0  0  0
   23.6370  -14.9563    4.3219 C   0  0  2  0  0  0  0  0  0  0  0  0
   23.2753  -16.4220    4.4673 C   0  0  0  0  0  0  0  0  0  0  0  0
   21.7444  -16.4266    4.4708 C   0  0  2  0  0  0  0  0  0  0  0  0
   21.1580  -16.8980    3.1392 C   0  0  0  0  0  0  0  0  0  0  0  0
   20.1154  -16.3790    2.7245 O   0  0  0  0  0  0  0  0  0  0  0  0
   21.7098  -17.9489    2.4507 N   0  0  0  0  0  0  0  0  0  0  0  0
   21.2417  -18.3288    1.2104 O   0  5  0  0  0  0  0  0  0  0  0  0
   24.9872  -14.7067    4.8781 N   0  3  0  0  0  0  0  0  0  0  0  0
   25.0937  -15.0847    5.8235 H   0  0  0  0  0  0  0  0  0  0  0  0
   25.6819  -15.1412    4.2597 H   0  0  0  0  0  0  0  0  0  0  0  0
   25.1679  -13.6972    4.8889 H   0  0  0  0  0  0  0  0  0  0  0  0
   22.0465  -18.7130    3.0313 H   0  0  0  0  0  0  0  0  0  0  0  0
  1  2  1  0  0  0  0
  1  5  1  0  0  0  0
  2  3  1  0  0  0  0
  3  4  1  0  0  0  0
  3 10  1  1  0  0  0
  4  5  1  0  0  0  0
  5  6  1  6  0  0  0
  6  7  2  0  0  0  0
  6  8  1  0  0  0  0
  8  9  1  0  0  0  0
  8 14  1  0  0  0  0
 10 11  1  0  0  0  0
 10 12  1  0  0  0  0
 10 13  1  0  0  0  0
M  CHG  2   9  -1  10   1
M  END
>  <CHROM.0>
-49.72751313,-59.89123155,-51.10371100,-51.10618600,-55.12733698,-59.63117261
-61.75551248,-52.37039856,-166.07437686,159.65316871

>  <CHROM.1>
64.42975122,-21.38442988,-175.87983673,22.20589168,-16.14765575,3.74403724
0.97475469,-0.06086275,0.72616632

>  <Name>
P133055839

>  <RI>
0

>  <Rbt.Current_Directory>
/home/fstefaniak/projects/zuza/docking/adenine/1Y26

>  <Rbt.Executable>
rbdock ($Id: //depot/dev/client3/rdock/2013.1/src/exe/rbdock.cxx#4 $)

>  <Rbt.Library>
libRbt.so (2013.1, Build901 2013/11/27)

>  <Rbt.Parameter_File>
/home/fstefaniak/progs/rDock//data/scripts/dock_solv.prm

>  <Rbt.Receptor>
1y26.prm

>  <SCORE>
-46.364

>  <SCORE.INTER>
-22.5795

>  <SCORE.INTER.CONST>
1

>  <SCORE.INTER.POLAR>
-4.88329

>  <SCORE.INTER.ROT>
2

>  <SCORE.INTER.SOLV>
27.934

>  <SCORE.INTER.VDW>
-13.02

>  <SCORE.INTER.norm>
-2.25795

>  <SCORE.INTRA>
-1.57968

>  <SCORE.INTRA.DIHEDRAL>
0.839936

>  <SCORE.INTRA.DIHEDRAL.0>
1.19454

>  <SCORE.INTRA.POLAR>
0

>  <SCORE.INTRA.POLAR.0>
0

>  <SCORE.INTRA.REPUL>
0

>  <SCORE.INTRA.REPUL.0>
0

>  <SCORE.INTRA.SOLV>
-5.63315

>  <SCORE.INTRA.SOLV.lig_0>
-54.2655

>  <SCORE.INTRA.VDW>
0.816931

>  <SCORE.INTRA.VDW.0>
-1.02733

>  <SCORE.INTRA.norm>
-0.157968

>  <SCORE.RESTR>
0

>  <SCORE.RESTR.CAVITY>
0

>  <SCORE.RESTR.norm>
0

>  <SCORE.SYSTEM>
-22.2049

>  <SCORE.SYSTEM.CONST>
0

>  <SCORE.SYSTEM.DIHEDRAL>
6.26008

>  <SCORE.SYSTEM.POLAR>
-3.5651

>  <SCORE.SYSTEM.SOLV>
0.668027

>  <SCORE.SYSTEM.VDW>
-5.22895

>  <SCORE.SYSTEM.norm>
-2.22049

>  <SCORE.heavy>
10

>  <SCORE.norm>
-4.6364

$$$$
P133055839
 OpenBabel12072022103D
libRbt.so/2013.1/901 2013/11/27
 14 14  0  0  0  0  0  0  0  0999 V2000
   20.4643  -17.0052    4.9476 C   0  0  0  0  0  0  0  0  0  0  0  0
   19.8107  -17.9393    5.9672 C   0  0  0  0  0  0  0  0  0  0  0  0
   19.1127  -18.9992    5.1315 C   0  0  2  0  0  0  0  0  0  0  0  0
   18.6232  -18.2554    3.9039 C   0  0  0  0  0  0  0  0  0  0  0  0
   19.7324  -17.2391    3.6203 C   0  0  2  0  0  0  0  0  0  0  0  0
   20.6152  -17.6507    2.4411 C   0  0  0  0  0  0  0  0  0  0  0  0
   21.8329  -17.7731    2.6161 O   0  0  0  0  0  0  0  0  0  0  0  0
   20.0971  -17.7877    1.1779 N   0  0  0  0  0  0  0  0  0  0  0  0
   19.0071  -18.5937    0.9248 O   0  5  0  0  0  0  0  0  0  0  0  0
   17.9648  -19.5728    5.8717 N   0  3  0  0  0  0  0  0  0  0  0  0
   17.2011  -18.9007    5.9853 H   0  0  0  0  0  0  0  0  0  0  0  0
   17.6206  -20.3927    5.3585 H   0  0  0  0  0  0  0  0  0  0  0  0
   18.2815  -19.8927    6.7933 H   0  0  0  0  0  0  0  0  0  0  0  0
   20.7815  -17.7485    0.4266 H   0  0  0  0  0  0  0  0  0  0  0  0
  1  2  1  0  0  0  0
  1  5  1  0  0  0  0
  2  3  1  0  0  0  0
  3  4  1  0  0  0  0
  3 10  1  1  0  0  0
  4  5  1  0  0  0  0
  5  6  1  6  0  0  0
  6  7  2  0  0  0  0
  6  8  1  0  0  0  0
  8  9  1  0  0  0  0
  8 14  1  0  0  0  0
 10 11  1  0  0  0  0
 10 12  1  0  0  0  0
 10 13  1  0  0  0  0
M  CHG  2   9  -1  10   1
M  END
>  <CHROM.0>
-48.17808603,57.66293197,-53.31517288,-51.31025113,-55.28003547,-61.85613228
-53.90896374,-49.97740873,-166.95755262,161.07343415

>  <CHROM.1>
69.06182548,0.21555312,-53.73940001,19.70194638,-18.12195003,3.64298708,-1.97243506
-0.56409353,-1.59670763

>  <Name>
P133055839

>  <RI>
0

>  <Rbt.Current_Directory>
/home/fstefaniak/projects/zuza/docking/adenine/1Y26

>  <Rbt.Executable>
rbdock ($Id: //depot/dev/client3/rdock/2013.1/src/exe/rbdock.cxx#4 $)

>  <Rbt.Library>
libRbt.so (2013.1, Build901 2013/11/27)

>  <Rbt.Parameter_File>
/home/fstefaniak/progs/rDock//data/scripts/dock_solv.prm

>  <Rbt.Receptor>
1y26.prm

>  <SCORE>
-46.188

>  <SCORE.INTER>
-23.5734

>  <SCORE.INTER.CONST>
1

>  <SCORE.INTER.POLAR>
-3.61231

>  <SCORE.INTER.ROT>
2

>  <SCORE.INTER.SOLV>
29.6742

>  <SCORE.INTER.VDW>
-18.4993

>  <SCORE.INTER.norm>
-2.35734

>  <SCORE.INTRA>
-1.06852

>  <SCORE.INTRA.DIHEDRAL>
0.0799104

>  <SCORE.INTRA.DIHEDRAL.0>
1.19454

>  <SCORE.INTRA.POLAR>
0

>  <SCORE.INTRA.POLAR.0>
0

>  <SCORE.INTRA.REPUL>
0

>  <SCORE.INTRA.REPUL.0>
0

>  <SCORE.INTRA.SOLV>
-3.77117

>  <SCORE.INTRA.SOLV.lig_0>
-54.2655

>  <SCORE.INTRA.VDW>
0.777108

>  <SCORE.INTRA.VDW.0>
-1.02733

>  <SCORE.INTRA.norm>
-0.106852

>  <SCORE.RESTR>
0

>  <SCORE.RESTR.CAVITY>
0

>  <SCORE.RESTR.norm>
0

>  <SCORE.SYSTEM>
-21.5462

>  <SCORE.SYSTEM.CONST>
0

>  <SCORE.SYSTEM.DIHEDRAL>
6.32199

>  <SCORE.SYSTEM.POLAR>
-3.56269

>  <SCORE.SYSTEM.SOLV>
0.730483

>  <SCORE.SYSTEM.VDW>
-4.83928

>  <SCORE.SYSTEM.norm>
-2.15462

>  <SCORE.heavy>
10

>  <SCORE.norm>
-4.6188

$$$$
P133055839
 OpenBabel12072022103D
libRbt.so/2013.1/901 2013/11/27
 14 14  0  0  0  0  0  0  0  0999 V2000
   20.5600  -17.1254    4.9744 C   0  0  0  0  0  0  0  0  0  0  0  0
   19.8827  -17.9714    6.0537 C   0  0  0  0  0  0  0  0  0  0  0  0
   18.9337  -18.8832    5.2940 C   0  0  2  0  0  0  0  0  0  0  0  0
   18.4361  -18.0372    4.1378 C   0  0  0  0  0  0  0  0  0  0  0  0
   19.6558  -17.2029    3.7380 C   0  0  2  0  0  0  0  0  0  0  0  0
   20.3229  -17.7170    2.4613 C   0  0  0  0  0  0  0  0  0  0  0  0
   21.5544  -17.6662    2.3645 O   0  0  0  0  0  0  0  0  0  0  0  0
   19.5777  -18.1377    1.3886 N   0  0  0  0  0  0  0  0  0  0  0  0
   18.2077  -17.9849    1.3530 O   0  5  0  0  0  0  0  0  0  0  0  0
   17.7985  -19.2870    6.1560 N   0  3  0  0  0  0  0  0  0  0  0  0
   18.0959  -19.8746    6.9397 H   0  0  0  0  0  0  0  0  0  0  0  0
   17.3462  -18.4405    6.5202 H   0  0  0  0  0  0  0  0  0  0  0  0
   17.1068  -19.7913    5.5910 H   0  0  0  0  0  0  0  0  0  0  0  0
   19.9252  -18.9742    0.9262 H   0  0  0  0  0  0  0  0  0  0  0  0
  1  2  1  0  0  0  0
  1  5  1  0  0  0  0
  2  3  1  0  0  0  0
  3  4  1  0  0  0  0
  3 10  1  1  0  0  0
  4  5  1  0  0  0  0
  5  6  1  6  0  0  0
  6  7  2  0  0  0  0
  6  8  1  0  0  0  0
  8  9  1  0  0  0  0
  8 14  1  0  0  0  0
 10 11  1  0  0  0  0
 10 12  1  0  0  0  0
 10 13  1  0  0  0  0
M  CHG  2   9  -1  10   1
M  END
>  <CHROM.0>
-50.21501998,-59.97123745,-55.35514063,-51.87958829,-57.72722531,-57.00305545
-55.50292861,-51.03833069,-165.47691518,162.51629711

>  <CHROM.1>
-65.95510059,-20.79785364,7.06620761,19.45652704,-18.03516008,3.78131422
-1.86723510,-0.38946331,-1.49752250

>  <Name>
P133055839

>  <RI>
0

>  <Rbt.Current_Directory>
/home/fstefaniak/projects/zuza/docking/adenine/1Y26

>  <Rbt.Executable>
rbdock ($Id: //depot/dev/client3/rdock/2013.1/src/exe/rbdock.cxx#4 $)

>  <Rbt.Library>
libRbt.so (2013.1, Build901 2013/11/27)

>  <Rbt.Parameter_File>
/home/fstefaniak/progs/rDock//data/scripts/dock_solv.prm

>  <Rbt.Receptor>
1y26.prm

>  <SCORE>
-45.4031

>  <SCORE.INTER>
-23.6464

>  <SCORE.INTER.CONST>
1

>  <SCORE.INTER.POLAR>
-4.18338

>  <SCORE.INTER.ROT>
2

>  <SCORE.INTER.SOLV>
29.3158

>  <SCORE.INTER.VDW>
-16.5249

>  <SCORE.INTER.norm>
-2.36464

>  <SCORE.INTRA>
0.333365

>  <SCORE.INTRA.DIHEDRAL>
0.873047

>  <SCORE.INTRA.DIHEDRAL.0>
1.19454

>  <SCORE.INTRA.POLAR>
0

>  <SCORE.INTRA.POLAR.0>
0

>  <SCORE.INTRA.REPUL>
0

>  <SCORE.INTRA.REPUL.0>
0

>  <SCORE.INTRA.SOLV>
-3.10823

>  <SCORE.INTRA.SOLV.lig_0>
-54.2655

>  <SCORE.INTRA.VDW>
1.45096

>  <SCORE.INTRA.VDW.0>
-1.02733

>  <SCORE.INTRA.norm>
0.0333365

>  <SCORE.RESTR>
0

>  <SCORE.RESTR.CAVITY>
0

>  <SCORE.RESTR.norm>
0

>  <SCORE.SYSTEM>
-22.0901

>  <SCORE.SYSTEM.CONST>
0

>  <SCORE.SYSTEM.DIHEDRAL>
5.69391

>  <SCORE.SYSTEM.POLAR>
-3.45558

>  <SCORE.SYSTEM.SOLV>
0.679168

>  <SCORE.SYSTEM.VDW>
-5.3325

>  <SCORE.SYSTEM.norm>
-2.20901

>  <SCORE.heavy>
10

>  <SCORE.norm>
-4.54031

$$$$
P133406437
 OpenBabel12072022103D
libRbt.so/2013.1/901 2013/11/27
 13 13  0  0  0  0  0  0  0  0999 V2000
   19.2427  -19.4250    5.1015 C   0  0  0  0  0  0  0  0  0  0  0  0
   18.7768  -18.0905    4.5376 C   0  0  0  0  0  0  0  0  0  0  0  0
   19.4122  -17.7705    3.2617 N   0  0  0  0  0  0  0  0  0  0  0  0
   20.5255  -16.7743    3.2201 C   0  0  0  0  0  0  0  0  0  0  0  0
   20.4437  -15.6381    4.2755 C   0  0  0  0  0  0  0  0  0  0  0  0
   21.9214  -15.6896    4.3726 N   0  0  0  0  0  0  0  0  0  0  0  0
   21.8597  -17.1048    3.9395 C   0  0  0  0  0  0  0  0  0  0  0  0
   18.9528  -18.4457    2.1447 C   0  0  0  0  0  0  0  0  0  0  0  0
   17.9953  -19.2113    2.1316 O   0  0  0  0  0  0  0  0  0  0  0  0
   19.6328  -18.2119    0.9935 N   0  0  0  0  0  0  0  0  0  0  0  0
   22.2874  -15.5471    5.3134 H   0  0  0  0  0  0  0  0  0  0  0  0
   20.4040  -18.8271    0.7838 H   0  0  0  0  0  0  0  0  0  0  0  0
   19.0173  -18.0376    0.2086 H   0  0  0  0  0  0  0  0  0  0  0  0
  1  2  1  0  0  0  0
  2  3  1  0  0  0  0
  3  4  1  0  0  0  0
  3  8  1  0  0  0  0
  4  5  1  0  0  0  0
  4  7  1  0  0  0  0
  5  6  1  0  0  0  0
  6  7  1  0  0  0  0
  6 11  1  0  0  0  0
  8  9  2  0  0  0  0
  8 10  1  0  0  0  0
 10 12  1  0  0  0  0
 10 13  1  0  0  0  0
M  END
>  <CHROM.0>
-48.79073715,-61.58689102,-53.12758432,-53.28575977,-56.31041878,-59.91198705
-57.96612944,-52.05211244,-166.63619344,160.29405767

>  <CHROM.1>
-102.78065287,-31.60322917,91.01718296,19.86879581,-17.66181597,3.38411644
2.74315389,-0.80957762,-1.49890018

>  <Name>
P133406437

>  <RI>
0

>  <Rbt.Current_Directory>
/home/fstefaniak/projects/zuza/docking/adenine/1Y26

>  <Rbt.Executable>
rbdock ($Id: //depot/dev/client3/rdock/2013.1/src/exe/rbdock.cxx#4 $)

>  <Rbt.Library>
libRbt.so (2013.1, Build901 2013/11/27)

>  <Rbt.Parameter_File>
/home/fstefaniak/progs/rDock//data/scripts/dock_solv.prm

>  <Rbt.Receptor>
1y26.prm

>  <SCORE>
-47.2996

>  <SCORE.INTER>
-25.0265

>  <SCORE.INTER.CONST>
1

>  <SCORE.INTER.POLAR>
-3.72921

>  <SCORE.INTER.ROT>
3

>  <SCORE.INTER.SOLV>
12.4599

>  <SCORE.INTER.VDW>
-14.0069

>  <SCORE.INTER.norm>
-2.50265

>  <SCORE.INTRA>
-0.00539086

>  <SCORE.INTRA.DIHEDRAL>
-0.102287

>  <SCORE.INTRA.DIHEDRAL.0>
2.92104

>  <SCORE.INTRA.POLAR>
0

>  <SCORE.INTRA.POLAR.0>
0

>  <SCORE.INTRA.REPUL>
0

>  <SCORE.INTRA.REPUL.0>
0

>  <SCORE.INTRA.SOLV>
-0.187014

>  <SCORE.INTRA.SOLV.lig_0>
-14.9407

>  <SCORE.INTRA.VDW>
0.13926

>  <SCORE.INTRA.VDW.0>
0.0640313

>  <SCORE.INTRA.norm>
-0.000539086

>  <SCORE.RESTR>
0

>  <SCORE.RESTR.CAVITY>
0

>  <SCORE.RESTR.norm>
0

>  <SCORE.SYSTEM>
-22.2678

>  <SCORE.SYSTEM.CONST>
0

>  <SCORE.SYSTEM.DIHEDRAL>
5.89194

>  <SCORE.SYSTEM.POLAR>
-3.51266

>  <SCORE.SYSTEM.SOLV>
0.669491

>  <SCORE.SYSTEM.VDW>
-5.32344

>  <SCORE.SYSTEM.norm>
-2.22678

>  <SCORE.heavy>
10

>  <SCORE.norm>
-4.72996

$$$$
P133406437
 OpenBabel12072022103D
libRbt.so/2013.1/901 2013/11/27
 13 13  0  0  0  0  0  0  0  0999 V2000
   19.2259  -19.4269    5.1072 C   0  0  0  0  0  0  0  0  0  0  0  0
   18.7631  -18.0952    4.5341 C   0  0  0  0  0  0  0  0  0  0  0  0
   19.4058  -17.7813    3.2604 N   0  0  0  0  0  0  0  0  0  0  0  0
   20.5254  -16.7921    3.2217 C   0  0  0  0  0  0  0  0  0  0  0  0
   20.4596  -15.6680    4.2912 C   0  0  0  0  0  0  0  0  0  0  0  0
   21.9376  -15.7305    4.3759 N   0  0  0  0  0  0  0  0  0  0  0  0
   21.8630  -17.1400    3.9266 C   0  0  0  0  0  0  0  0  0  0  0  0
   18.9469  -18.4555    2.1425 C   0  0  0  0  0  0  0  0  0  0  0  0
   17.9847  -19.2153    2.1268 O   0  0  0  0  0  0  0  0  0  0  0  0
   19.6331  -18.2279    0.9938 N   0  0  0  0  0  0  0  0  0  0  0  0
   22.3119  -15.6016    5.3154 H   0  0  0  0  0  0  0  0  0  0  0  0
   20.3891  -18.8599    0.7787 H   0  0  0  0  0  0  0  0  0  0  0  0
   19.0225  -18.0313    0.2104 H   0  0  0  0  0  0  0  0  0  0  0  0
  1  2  1  0  0  0  0
  2  3  1  0  0  0  0
  3  4  1  0  0  0  0
  3  8  1  0  0  0  0
  4  5  1  0  0  0  0
  4  7  1  0  0  0  0
  5  6  1  0  0  0  0
  6  7  1  0  0  0  0
  6 11  1  0  0  0  0
  8  9  2  0  0  0  0
  8 10  1  0  0  0  0
 10 12  1  0  0  0  0
 10 13  1  0  0  0  0
M  END
>  <CHROM.0>
-50.67802242,-60.97315593,-55.50612550,-54.83169965,-55.40386432,-57.15189432
-60.17534017,-49.65134321,-167.25787123,160.88220778

>  <CHROM.1>
-102.36317850,-30.56356087,92.25817585,19.86698081,-17.67891361,3.38428950
2.73341618,-0.79821520,-1.50783417

>  <Name>
P133406437

>  <RI>
0

>  <Rbt.Current_Directory>
/home/fstefaniak/projects/zuza/docking/adenine/1Y26

>  <Rbt.Executable>
rbdock ($Id: //depot/dev/client3/rdock/2013.1/src/exe/rbdock.cxx#4 $)

>  <Rbt.Library>
libRbt.so (2013.1, Build901 2013/11/27)

>  <Rbt.Parameter_File>
/home/fstefaniak/progs/rDock//data/scripts/dock_solv.prm

>  <Rbt.Receptor>
1y26.prm

>  <SCORE>
-47.2067

>  <SCORE.INTER>
-24.96

>  <SCORE.INTER.CONST>
1

>  <SCORE.INTER.POLAR>
-3.74696

>  <SCORE.INTER.ROT>
3

>  <SCORE.INTER.SOLV>
12.4664

>  <SCORE.INTER.VDW>
-13.9056

>  <SCORE.INTER.norm>
-2.496

>  <SCORE.INTRA>
0.00925083

>  <SCORE.INTRA.DIHEDRAL>
-0.102765

>  <SCORE.INTRA.DIHEDRAL.0>
2.92104

>  <SCORE.INTRA.POLAR>
0

>  <SCORE.INTRA.POLAR.0>
0

>  <SCORE.INTRA.REPUL>
0

>  <SCORE.INTRA.REPUL.0>
0

>  <SCORE.INTRA.SOLV>
-0.18528

>  <SCORE.INTRA.SOLV.lig_0>
-14.9407

>  <SCORE.INTRA.VDW>
0.153273

>  <SCORE.INTRA.VDW.0>
0.0640313

>  <SCORE.INTRA.norm>
0.000925083

>  <SCORE.RESTR>
0

>  <SCORE.RESTR.CAVITY>
0

>  <SCORE.RESTR.norm>
0

>  <SCORE.SYSTEM>
-22.2559

>  <SCORE.SYSTEM.CONST>
0

>  <SCORE.SYSTEM.DIHEDRAL>
5.58777

>  <SCORE.SYSTEM.POLAR>
-3.4347

>  <SCORE.SYSTEM.SOLV>
0.663999

>  <SCORE.SYSTEM.VDW>
-5.47221

>  <SCORE.SYSTEM.norm>
-2.22559

>  <SCORE.heavy>
10

>  <SCORE.norm>
-4.72067

$$$$
P133406437
 OpenBabel12072022103D
libRbt.so/2013.1/901 2013/11/27
 13 13  0  0  0  0  0  0  0  0999 V2000
   19.2319  -19.3515    5.1085 C   0  0  0  0  0  0  0  0  0  0  0  0
   18.7532  -18.0422    4.4981 C   0  0  0  0  0  0  0  0  0  0  0  0
   19.4204  -17.7376    3.2348 N   0  0  0  0  0  0  0  0  0  0  0  0
   20.5379  -16.7456    3.2098 C   0  0  0  0  0  0  0  0  0  0  0  0
   20.4686  -15.6352    4.2933 C   0  0  0  0  0  0  0  0  0  0  0  0
   21.9466  -15.6957    4.3788 N   0  0  0  0  0  0  0  0  0  0  0  0
   21.8755  -17.0996    3.9116 C   0  0  0  0  0  0  0  0  0  0  0  0
   18.9857  -18.4228    2.1140 C   0  0  0  0  0  0  0  0  0  0  0  0
   18.0260  -19.1854    2.0857 O   0  0  0  0  0  0  0  0  0  0  0  0
   19.6941  -18.2033    0.9772 N   0  0  0  0  0  0  0  0  0  0  0  0
   22.3197  -15.5779    5.3203 H   0  0  0  0  0  0  0  0  0  0  0  0
   20.4669  -18.8243    0.7918 H   0  0  0  0  0  0  0  0  0  0  0  0
   19.0984  -18.0334    0.1763 H   0  0  0  0  0  0  0  0  0  0  0  0
  1  2  1  0  0  0  0
  2  3  1  0  0  0  0
  3  4  1  0  0  0  0
  3  8  1  0  0  0  0
  4  5  1  0  0  0  0
  4  7  1  0  0  0  0
  5  6  1  0  0  0  0
  6  7  1  0  0  0  0
  6 11  1  0  0  0  0
  8  9  2  0  0  0  0
  8 10  1  0  0  0  0
 10 12  1  0  0  0  0
 10 13  1  0  0  0  0
M  END
>  <CHROM.0>
-50.45984856,-59.32694012,-54.94628497,-51.45978737,-58.39818085,-57.61996792
-56.97992224,-53.52223988,-166.84082943,160.93420456

>  <CHROM.1>
-101.00978756,-28.92684873,91.12709242,19.88715820,-17.63785342,3.36761850
2.69887317,-0.79296198,-1.54009847

>  <Name>
P133406437

>  <RI>
0

>  <Rbt.Current_Directory>
/home/fstefaniak/projects/zuza/docking/adenine/1Y26

>  <Rbt.Executable>
rbdock ($Id: //depot/dev/client3/rdock/2013.1/src/exe/rbdock.cxx#4 $)

>  <Rbt.Library>
libRbt.so (2013.1, Build901 2013/11/27)

>  <Rbt.Parameter_File>
/home/fstefaniak/progs/rDock//data/scripts/dock_solv.prm

>  <Rbt.Receptor>
1y26.prm

>  <SCORE>
-47.0835

>  <SCORE.INTER>
-24.881

>  <SCORE.INTER.CONST>
1

>  <SCORE.INTER.POLAR>
-3.68985

>  <SCORE.INTER.ROT>
3

>  <SCORE.INTER.SOLV>
12.4602

>  <SCORE.INTER.VDW>
-14.0412

>  <SCORE.INTER.norm>
-2.4881

>  <SCORE.INTRA>
0.0185595

>  <SCORE.INTRA.DIHEDRAL>
-0.10456

>  <SCORE.INTRA.DIHEDRAL.0>
2.92104

>  <SCORE.INTRA.POLAR>
0

>  <SCORE.INTRA.POLAR.0>
0

>  <SCORE.INTRA.REPUL>
0

>  <SCORE.INTRA.REPUL.0>
0

>  <SCORE.INTRA.SOLV>
-0.181242

>  <SCORE.INTRA.SOLV.lig_0>
-14.9407

>  <SCORE.INTRA.VDW>
0.161461

>  <SCORE.INTRA.VDW.0>
0.0640313

>  <SCORE.INTRA.norm>
0.00185595

>  <SCORE.RESTR>
0

>  <SCORE.RESTR.CAVITY>
0

>  <SCORE.RESTR.norm>
0

>  <SCORE.SYSTEM>
-22.221

>  <SCORE.SYSTEM.CONST>
0

>  <SCORE.SYSTEM.DIHEDRAL>
5.53329

>  <SCORE.SYSTEM.POLAR>
-3.48722

>  <SCORE.SYSTEM.SOLV>
0.674095

>  <SCORE.SYSTEM.VDW>
-5.25907

>  <SCORE.SYSTEM.norm>
-2.2221

>  <SCORE.heavy>
10

>  <SCORE.norm>
-4.70835

$$$$
P133607560
 OpenBabel12072022103D
libRbt.so/2013.1/901 2013/11/27
 13 13  0  0  0  0  0  0  0  0999 V2000
   22.3060  -15.2443    4.6294 C   0  0  0  0  0  0  0  0  0  0  0  0
   22.8045  -13.8067    4.4690 C   0  0  1  0  0  0  0  0  0  0  0  0
   21.7793  -12.9231    3.7633 C   0  0  0  0  0  0  0  0  0  0  0  0
   21.4262  -11.8823    4.7103 O   0  0  0  0  0  0  0  0  0  0  0  0
   22.6402  -11.6197    5.4353 C   0  0  0  0  0  0  0  0  0  0  0  0
   23.1353  -13.0338    5.7397 C   0  0  1  0  0  0  0  0  0  0  0  0
   22.2679  -13.5380    6.8714 N   0  3  0  0  0  0  0  0  0  0  0  0
   21.2759  -13.4927    6.6176 H   0  0  0  0  0  0  0  0  0  0  0  0
   22.5060  -14.5041    7.1116 H   0  0  0  0  0  0  0  0  0  0  0  0
   22.4404  -12.9460    7.6968 H   0  0  0  0  0  0  0  0  0  0  0  0
   24.1549  -13.7555    3.7375 C   0  0  0  0  0  0  0  0  0  0  0  0
   25.1400  -13.4440    4.4578 O   0  0  0  0  0  0  0  0  0  0  0  0
   24.1302  -14.1277    2.5382 O   0  5  0  0  0  0  0  0  0  0  0  0
  2  1  1  1  0  0  0
  2  3  1  0  0  0  0
  2  6  1  0  0  0  0
  2 11  1  0  0  0  0
  3  4  1  0  0  0  0
  4  5  1  0  0  0  0
  5  6  1  0  0  0  0
  6  7  1  1  0  0  0
  7  8  1  0  0  0  0
  7  9  1  0  0  0  0
  7 10  1  0  0  0  0
 11 12  2  0  0  0  0
 11 13  1  0  0  0  0
M  CHG  2   7   1  13  -1
M  END
>  <CHROM.0>
-49.10250303,-173.14053675,-52.68075390,-48.55946662,-177.79100725,-57.20599341
-62.69739704,-53.90430144,-167.13310890,160.47096734

>  <CHROM.1>
-108.81512371,-54.56413006,22.96397203,-13.33938885,4.66428417,-0.56089793
-0.73711730,1.84069566

>  <Name>
P133607560

>  <RI>
0

>  <Rbt.Current_Directory>
/home/fstefaniak/projects/zuza/docking/adenine/1Y26

>  <Rbt.Executable>
rbdock ($Id: //depot/dev/client3/rdock/2013.1/src/exe/rbdock.cxx#4 $)

>  <Rbt.Library>
libRbt.so (2013.1, Build901 2013/11/27)

>  <Rbt.Parameter_File>
/home/fstefaniak/progs/rDock//data/scripts/dock_solv.prm

>  <Rbt.Receptor>
1y26.prm

>  <SCORE>
-39.5006

>  <SCORE.INTER>
-17.97

>  <SCORE.INTER.CONST>
1

>  <SCORE.INTER.POLAR>
-4.31788

>  <SCORE.INTER.ROT>
1

>  <SCORE.INTER.SOLV>
18.4318

>  <SCORE.INTER.VDW>
-7.99764

>  <SCORE.INTER.norm>
-1.797

>  <SCORE.INTRA>
0.185019

>  <SCORE.INTRA.DIHEDRAL>
-0.00467326

>  <SCORE.INTRA.DIHEDRAL.0>
0.92964

>  <SCORE.INTRA.POLAR>
0.000563443

>  <SCORE.INTRA.POLAR.0>
-0.000563443

>  <SCORE.INTRA.REPUL>
0

>  <SCORE.INTRA.REPUL.0>
0

>  <SCORE.INTRA.SOLV>
-0.0219102

>  <SCORE.INTRA.SOLV.lig_0>
-45.0273

>  <SCORE.INTRA.VDW>
0.196395

>  <SCORE.INTRA.VDW.0>
3.41698

>  <SCORE.INTRA.norm>
0.0185019

>  <SCORE.RESTR>
0.542109

>  <SCORE.RESTR.CAVITY>
0.542109

>  <SCORE.RESTR.norm>
0.0542109

>  <SCORE.SYSTEM>
-22.2577

>  <SCORE.SYSTEM.CONST>
0

>  <SCORE.SYSTEM.DIHEDRAL>
6.28724

>  <SCORE.SYSTEM.POLAR>
-3.58626

>  <SCORE.SYSTEM.SOLV>
0.444123

>  <SCORE.SYSTEM.VDW>
-5.12808

>  <SCORE.SYSTEM.norm>
-2.22577

>  <SCORE.heavy>
10

>  <SCORE.norm>
-3.95006

$$$$
P133607560
 OpenBabel12072022103D
libRbt.so/2013.1/901 2013/11/27
 13 13  0  0  0  0  0  0  0  0999 V2000
   24.2656  -12.2518    4.8517 C   0  0  0  0  0  0  0  0  0  0  0  0
   23.3528  -13.3040    4.2189 C   0  0  1  0  0  0  0  0  0  0  0  0
   24.0565  -14.6494    4.0624 C   0  0  0  0  0  0  0  0  0  0  0  0
   23.3046  -15.5924    4.8687 O   0  0  0  0  0  0  0  0  0  0  0  0
   21.9371  -15.1618    4.7561 C   0  0  0  0  0  0  0  0  0  0  0  0
   22.0667  -13.6518    4.9581 C   0  0  1  0  0  0  0  0  0  0  0  0
   22.2740  -13.4523    6.4428 N   0  3  0  0  0  0  0  0  0  0  0  0
   23.0857  -13.9847    6.7717 H   0  0  0  0  0  0  0  0  0  0  0  0
   22.4143  -12.4624    6.6622 H   0  0  0  0  0  0  0  0  0  0  0  0
   21.4272  -13.7767    6.9320 H   0  0  0  0  0  0  0  0  0  0  0  0
   22.7930  -12.8281    2.8693 C   0  0  0  0  0  0  0  0  0  0  0  0
   23.0542  -13.5760    1.8901 O   0  0  0  0  0  0  0  0  0  0  0  0
   22.0600  -11.8096    2.9213 O   0  5  0  0  0  0  0  0  0  0  0  0
  2  1  1  1  0  0  0
  2  3  1  0  0  0  0
  2  6  1  0  0  0  0
  2 11  1  0  0  0  0
  3  4  1  0  0  0  0
  4  5  1  0  0  0  0
  5  6  1  0  0  0  0
  6  7  1  1  0  0  0
  7  8  1  0  0  0  0
  7  9  1  0  0  0  0
  7 10  1  0  0  0  0
 11 12  2  0  0  0  0
 11 13  1  0  0  0  0
M  CHG  2   7   1  13  -1
M  END
>  <CHROM.0>
-50.84344249,-177.25440302,-55.99977522,-52.59452732,-59.87203261,-178.62855779
-61.67215232,-53.25869558,-166.79030460,160.05214252

>  <CHROM.1>
122.33086668,-54.55702889,22.91031453,-13.63033090,4.21590054,1.38045433
1.40376626,-0.78159937

>  <Name>
P133607560

>  <RI>
0

>  <Rbt.Current_Directory>
/home/fstefaniak/projects/zuza/docking/adenine/1Y26

>  <Rbt.Executable>
rbdock ($Id: //depot/dev/client3/rdock/2013.1/src/exe/rbdock.cxx#4 $)

>  <Rbt.Library>
libRbt.so (2013.1, Build901 2013/11/27)

>  <Rbt.Parameter_File>
/home/fstefaniak/progs/rDock//data/scripts/dock_solv.prm

>  <Rbt.Receptor>
1y26.prm

>  <SCORE>
-37.2013

>  <SCORE.INTER>
-13.868

>  <SCORE.INTER.CONST>
1

>  <SCORE.INTER.POLAR>
-3.17825

>  <SCORE.INTER.ROT>
1

>  <SCORE.INTER.SOLV>
18.1519

>  <SCORE.INTER.VDW>
-8.96846

>  <SCORE.INTER.norm>
-1.3868

>  <SCORE.INTRA>
-1.51506

>  <SCORE.INTRA.DIHEDRAL>
0.0400978

>  <SCORE.INTRA.DIHEDRAL.0>
0.92964

>  <SCORE.INTRA.POLAR>
0.000563443

>  <SCORE.INTRA.POLAR.0>
-0.000563443

>  <SCORE.INTRA.REPUL>
0

>  <SCORE.INTRA.REPUL.0>
0

>  <SCORE.INTRA.SOLV>
0.0656633

>  <SCORE.INTRA.SOLV.lig_0>
-45.0273

>  <SCORE.INTRA.VDW>
-1.56986

>  <SCORE.INTRA.VDW.0>
3.41698

>  <SCORE.INTRA.norm>
-0.151506

>  <SCORE.RESTR>
0.40495

>  <SCORE.RESTR.CAVITY>
0.40495

>  <SCORE.RESTR.norm>
0.040495

>  <SCORE.SYSTEM>
-22.2232

>  <SCORE.SYSTEM.CONST>
0

>  <SCORE.SYSTEM.DIHEDRAL>
5.50006

>  <SCORE.SYSTEM.POLAR>
-3.4665

>  <SCORE.SYSTEM.SOLV>
0.453814

>  <SCORE.SYSTEM.VDW>
-5.24506

>  <SCORE.SYSTEM.norm>
-2.22232

>  <SCORE.heavy>
10

>  <SCORE.norm>
-3.72013

$$$$
P133607560
 OpenBabel12072022103D
libRbt.so/2013.1/901 2013/11/27
 13 13  0  0  0  0  0  0  0  0999 V2000
   24.4327  -12.7067    4.7895 C   0  0  0  0  0  0  0  0  0  0  0  0
   23.3008  -13.5524    4.2027 C   0  0  1  0  0  0  0  0  0  0  0  0
   23.7261  -15.0021    3.9853 C   0  0  0  0  0  0  0  0  0  0  0  0
   22.8587  -15.8058    4.8258 O   0  0  0  0  0  0  0  0  0  0  0  0
   21.5934  -15.1225    4.8053 C   0  0  0  0  0  0  0  0  0  0  0  0
   22.0186  -13.6694    5.0174 C   0  0  1  0  0  0  0  0  0  0  0  0
   22.3484  -13.5485    6.4884 N   0  3  0  0  0  0  0  0  0  0  0  0
   23.0363  -12.8056    6.6473 H   0  0  0  0  0  0  0  0  0  0  0  0
   21.5075  -13.3457    7.0357 H   0  0  0  0  0  0  0  0  0  0  0  0
   22.7337  -14.4495    6.8065 H   0  0  0  0  0  0  0  0  0  0  0  0
   22.7618  -12.9471    2.8972 C   0  0  0  0  0  0  0  0  0  0  0  0
   23.0315  -13.6008    1.8550 O   0  0  0  0  0  0  0  0  0  0  0  0
   22.0340  -11.9329    3.0361 O   0  5  0  0  0  0  0  0  0  0  0  0
  2  1  1  1  0  0  0
  2  3  1  0  0  0  0
  2  6  1  0  0  0  0
  2 11  1  0  0  0  0
  3  4  1  0  0  0  0
  4  5  1  0  0  0  0
  5  6  1  0  0  0  0
  6  7  1  1  0  0  0
  7  8  1  0  0  0  0
  7  9  1  0  0  0  0
  7 10  1  0  0  0  0
 11 12  2  0  0  0  0
 11 13  1  0  0  0  0
M  CHG  2   7   1  13  -1
M  END
>  <CHROM.0>
-52.78099035,-76.57100426,-55.77786129,-53.03897235,-174.18435403,57.51935116
-60.17621223,-52.08149648,-167.54737279,160.66326562

>  <CHROM.1>
110.14775560,42.07004604,22.80639100,-13.79145467,4.22237032,0.54694088,1.45633910
0.02619783

>  <Name>
P133607560

>  <RI>
0

>  <Rbt.Current_Directory>
/home/fstefaniak/projects/zuza/docking/adenine/1Y26

>  <Rbt.Executable>
rbdock ($Id: //depot/dev/client3/rdock/2013.1/src/exe/rbdock.cxx#4 $)

>  <Rbt.Library>
libRbt.so (2013.1, Build901 2013/11/27)

>  <Rbt.Parameter_File>
/home/fstefaniak/progs/rDock//data/scripts/dock_solv.prm

>  <Rbt.Receptor>
1y26.prm

>  <SCORE>
-35.7195

>  <SCORE.INTER>
-16.0763

>  <SCORE.INTER.CONST>
1

>  <SCORE.INTER.POLAR>
-3.94942

>  <SCORE.INTER.ROT>
1

>  <SCORE.INTER.SOLV>
19.0106

>  <SCORE.INTER.VDW>
-8.15628

>  <SCORE.INTER.norm>
-1.60763

>  <SCORE.INTRA>
1.21125

>  <SCORE.INTRA.DIHEDRAL>
0.680563

>  <SCORE.INTRA.DIHEDRAL.0>
0.92964

>  <SCORE.INTRA.POLAR>
-0.00352407

>  <SCORE.INTRA.POLAR.0>
-0.000563443

>  <SCORE.INTRA.REPUL>
0

>  <SCORE.INTRA.REPUL.0>
0

>  <SCORE.INTRA.SOLV>
0.146574

>  <SCORE.INTRA.SOLV.lig_0>
-45.0273

>  <SCORE.INTRA.VDW>
0.809659

>  <SCORE.INTRA.VDW.0>
3.41698

>  <SCORE.INTRA.norm>
0.121125

>  <SCORE.RESTR>
0.098782

>  <SCORE.RESTR.CAVITY>
0.098782

>  <SCORE.RESTR.norm>
0.0098782

>  <SCORE.SYSTEM>
-20.9533

>  <SCORE.SYSTEM.CONST>
0

>  <SCORE.SYSTEM.DIHEDRAL>
6.58962

>  <SCORE.SYSTEM.POLAR>
-3.42038

>  <SCORE.SYSTEM.SOLV>
0.318442

>  <SCORE.SYSTEM.VDW>
-4.87027

>  <SCORE.SYSTEM.norm>
-2.09533

>  <SCORE.heavy>
10

>  <SCORE.norm>
-3.57195

$$$$
P133621473
 OpenBabel12072022103D
libRbt.so/2013.1/901 2013/11/27
 19 19  0  0  0  0  0  0  0  0999 V2000
   25.3713  -15.1478    2.5148 H   0  0  0  0  0  0  0  0  0  0  0  0
   24.5672  -14.5236    2.5168 N   0  0  0  0  0  0  0  0  0  0  0  0
   24.0654  -14.3407    3.6804 C   0  0  0  0  0  0  0  0  0  0  0  0
   24.5253  -15.0998    4.7617 N   0  0  0  0  0  0  0  0  0  0  0  0
   24.9865  -16.3511    4.7902 C   0  0  0  0  0  0  0  0  0  0  0  0
   24.8677  -17.1675    3.7387 N   0  3  0  0  0  0  0  0  0  0  0  0
   25.2073  -18.1199    3.7468 H   0  0  0  0  0  0  0  0  0  0  0  0
   24.3389  -16.8675    2.9224 H   0  0  0  0  0  0  0  0  0  0  0  0
   25.5549  -16.8257    5.9048 N   0  0  0  0  0  0  0  0  0  0  0  0
   23.1192  -13.4039    3.9903 N   0  0  0  0  0  0  0  0  0  0  0  0
   23.3641  -11.9615    3.9931 C   0  0  0  0  0  0  0  0  0  0  0  0
   23.8094  -11.4586    5.3672 C   0  0  0  0  0  0  0  0  0  0  0  0
   22.6428  -11.3127    6.3417 C   0  0  0  0  0  0  0  0  0  0  0  0
   22.1916  -12.5920    7.0445 C   0  0  0  0  0  0  0  0  0  0  0  0
   22.2971  -13.9081    6.2752 C   0  0  0  0  0  0  0  0  0  0  0  0
   21.9503  -13.8223    4.7902 C   0  0  0  0  0  0  0  0  0  0  0  0
   24.4732  -14.6180    5.6445 H   0  0  0  0  0  0  0  0  0  0  0  0
   25.7016  -16.2443    6.7203 H   0  0  0  0  0  0  0  0  0  0  0  0
   25.8991  -17.7766    5.9554 H   0  0  0  0  0  0  0  0  0  0  0  0
  1  2  1  0  0  0  0
  2  3  2  0  0  0  0
  3  4  1  0  0  0  0
  3 10  1  0  0  0  0
  4  5  1  0  0  0  0
  4 17  1  0  0  0  0
  5  6  2  0  0  0  0
  5  9  1  0  0  0  0
  6  7  1  0  0  0  0
  6  8  1  0  0  0  0
  9 18  1  0  0  0  0
  9 19  1  0  0  0  0
 10 11  1  0  0  0  0
 10 16  1  0  0  0  0
 11 12  1  0  0  0  0
 12 13  1  0  0  0  0
 13 14  1  0  0  0  0
 14 15  1  0  0  0  0
 15 16  1  0  0  0  0
M  CHG  1   6   1
M  END
>  <CHROM.0>
-179.48097472,-173.82216689,-49.09895616,-52.20900220,-53.61731488,-58.28459206
-59.71568221,-175.89989210,-167.70504609,160.68122315

>  <CHROM.1>
-68.77774991,23.71751224,-14.10902339,4.86611087,-0.19989161,1.09234845,-1.03607302

>  <Name>
P133621473

>  <RI>
0

>  <Rbt.Current_Directory>
/home/fstefaniak/projects/zuza/docking/adenine/1Y26

>  <Rbt.Executable>
rbdock ($Id: //depot/dev/client3/rdock/2013.1/src/exe/rbdock.cxx#4 $)

>  <Rbt.Library>
libRbt.so (2013.1, Build901 2013/11/27)

>  <Rbt.Parameter_File>
/home/fstefaniak/progs/rDock//data/scripts/dock_solv.prm

>  <Rbt.Receptor>
1y26.prm

>  <SCORE>
-54.2507

>  <SCORE.INTER>
-34.6187

>  <SCORE.INTER.CONST>
1

>  <SCORE.INTER.POLAR>
-5.28392

>  <SCORE.INTER.ROT>
1

>  <SCORE.INTER.SOLV>
21.564

>  <SCORE.INTER.VDW>
-16.9207

>  <SCORE.INTER.norm>
-2.66298

>  <SCORE.INTRA>
0.603982

>  <SCORE.INTRA.DIHEDRAL>
0.00780029

>  <SCORE.INTRA.DIHEDRAL.0>
0.488893

>  <SCORE.INTRA.POLAR>
0

>  <SCORE.INTRA.POLAR.0>
0

>  <SCORE.INTRA.REPUL>
0

>  <SCORE.INTRA.REPUL.0>
0

>  <SCORE.INTRA.SOLV>
0.850356

>  <SCORE.INTRA.SOLV.lig_0>
-30.5203

>  <SCORE.INTRA.VDW>
0.174904

>  <SCORE.INTRA.VDW.0>
0.0338725

>  <SCORE.INTRA.norm>
0.0464602

>  <SCORE.RESTR>
1.40381

>  <SCORE.RESTR.CAVITY>
1.40381

>  <SCORE.RESTR.norm>
0.107985

>  <SCORE.SYSTEM>
-21.6397

>  <SCORE.SYSTEM.CONST>
0

>  <SCORE.SYSTEM.DIHEDRAL>
5.58919

>  <SCORE.SYSTEM.POLAR>
-3.2714

>  <SCORE.SYSTEM.SOLV>
0.357844

>  <SCORE.SYSTEM.VDW>
-5.50417

>  <SCORE.SYSTEM.norm>
-1.6646

>  <SCORE.heavy>
13

>  <SCORE.norm>
-4.17313

$$$$
P133621473
 OpenBabel12072022103D
libRbt.so/2013.1/901 2013/11/27
 19 19  0  0  0  0  0  0  0  0999 V2000
   25.3658  -15.1148    2.5281 H   0  0  0  0  0  0  0  0  0  0  0  0
   24.5618  -14.4905    2.5294 N   0  0  0  0  0  0  0  0  0  0  0  0
   24.0567  -14.3107    3.6921 C   0  0  0  0  0  0  0  0  0  0  0  0
   24.5136  -15.0727    4.7727 N   0  0  0  0  0  0  0  0  0  0  0  0
   24.9746  -16.3242    4.7991 C   0  0  0  0  0  0  0  0  0  0  0  0
   24.8586  -17.1377    3.7451 N   0  3  0  0  0  0  0  0  0  0  0  0
   25.1982  -18.0902    3.7517 H   0  0  0  0  0  0  0  0  0  0  0  0
   24.3322  -16.8355    2.9282 H   0  0  0  0  0  0  0  0  0  0  0  0
   25.5399  -16.8018    5.9140 N   0  0  0  0  0  0  0  0  0  0  0  0
   23.1098  -13.3746    4.0020 N   0  0  0  0  0  0  0  0  0  0  0  0
   23.3526  -11.9319    4.0015 C   0  0  0  0  0  0  0  0  0  0  0  0
   23.7997  -11.4256    5.3737 C   0  0  0  0  0  0  0  0  0  0  0  0
   22.6346  -11.2795    6.3501 C   0  0  0  0  0  0  0  0  0  0  0  0
   22.1866  -12.5580    7.0562 C   0  0  0  0  0  0  0  0  0  0  0  0
   22.2926  -13.8755    6.2894 C   0  0  0  0  0  0  0  0  0  0  0  0
   21.9430  -13.7931    4.8048 C   0  0  0  0  0  0  0  0  0  0  0  0
   24.4591  -14.5933    5.6566 H   0  0  0  0  0  0  0  0  0  0  0  0
   25.6843  -16.2225    6.7315 H   0  0  0  0  0  0  0  0  0  0  0  0
   25.8839  -17.7528    5.9630 H   0  0  0  0  0  0  0  0  0  0  0  0
  1  2  1  0  0  0  0
  2  3  2  0  0  0  0
  3  4  1  0  0  0  0
  3 10  1  0  0  0  0
  4  5  1  0  0  0  0
  4 17  1  0  0  0  0
  5  6  2  0  0  0  0
  5  9  1  0  0  0  0
  6  7  1  0  0  0  0
  6  8  1  0  0  0  0
  9 18  1  0  0  0  0
  9 19  1  0  0  0  0
 10 11  1  0  0  0  0
 10 16  1  0  0  0  0
 11 12  1  0  0  0  0
 12 13  1  0  0  0  0
 13 14  1  0  0  0  0
 14 15  1  0  0  0  0
 15 16  1  0  0  0  0
M  CHG  1   6   1
M  END
>  <CHROM.0>
-47.87194426,-72.96657435,-63.89467320,-51.02179189,-57.64502931,-58.55340824
-170.79982358,-175.99063222,-167.99739774,159.74285937

>  <CHROM.1>
-68.39161681,23.70841833,-14.07894851,4.87647066,-0.20394548,1.09302218,-1.03196595

>  <Name>
P133621473

>  <RI>
0

>  <Rbt.Current_Directory>
/home/fstefaniak/projects/zuza/docking/adenine/1Y26

>  <Rbt.Executable>
rbdock ($Id: //depot/dev/client3/rdock/2013.1/src/exe/rbdock.cxx#4 $)

>  <Rbt.Library>
libRbt.so (2013.1, Build901 2013/11/27)

>  <Rbt.Parameter_File>
/home/fstefaniak/progs/rDock//data/scripts/dock_solv.prm

>  <Rbt.Receptor>
1y26.prm

>  <SCORE>
-53.8482

>  <SCORE.INTER>
-34.5059

>  <SCORE.INTER.CONST>
1

>  <SCORE.INTER.POLAR>
-5.29509

>  <SCORE.INTER.ROT>
1

>  <SCORE.INTER.SOLV>
21.4085

>  <SCORE.INTER.VDW>
-16.7565

>  <SCORE.INTER.norm>
-2.6543

>  <SCORE.INTRA>
0.659134

>  <SCORE.INTRA.DIHEDRAL>
0.00778406

>  <SCORE.INTRA.DIHEDRAL.0>
0.488893

>  <SCORE.INTRA.POLAR>
0

>  <SCORE.INTRA.POLAR.0>
0

>  <SCORE.INTRA.REPUL>
0

>  <SCORE.INTRA.REPUL.0>
0

>  <SCORE.INTRA.SOLV>
0.85081

>  <SCORE.INTRA.SOLV.lig_0>
-30.5203

>  <SCORE.INTRA.VDW>
0.229837

>  <SCORE.INTRA.VDW.0>
0.0338725

>  <SCORE.INTRA.norm>
0.0507027

>  <SCORE.RESTR>
1.45691

>  <SCORE.RESTR.CAVITY>
1.45691

>  <SCORE.RESTR.norm>
0.11207

>  <SCORE.SYSTEM>
-21.4583

>  <SCORE.SYSTEM.CONST>
0

>  <SCORE.SYSTEM.DIHEDRAL>
6.83644

>  <SCORE.SYSTEM.POLAR>
-3.46957

>  <SCORE.SYSTEM.SOLV>
0.392486

>  <SCORE.SYSTEM.VDW>
-5.14996

>  <SCORE.SYSTEM.norm>
-1.65064

>  <SCORE.heavy>
13

>  <SCORE.norm>
-4.14217

$$$$
P133621473
 OpenBabel12072022103D
libRbt.so/2013.1/901 2013/11/27
 19 19  0  0  0  0  0  0  0  0999 V2000
   25.3737  -15.1546    2.5033 H   0  0  0  0  0  0  0  0  0  0  0  0
   24.5739  -14.5249    2.5055 N   0  0  0  0  0  0  0  0  0  0  0  0
   24.0743  -14.3379    3.6695 C   0  0  0  0  0  0  0  0  0  0  0  0
   24.5300  -15.0993    4.7509 N   0  0  0  0  0  0  0  0  0  0  0  0
   24.9827  -16.3538    4.7798 C   0  0  0  0  0  0  0  0  0  0  0  0
   24.8574  -17.1700    3.7290 N   0  3  0  0  0  0  0  0  0  0  0  0
   25.1907  -18.1247    3.7375 H   0  0  0  0  0  0  0  0  0  0  0  0
   24.3301  -16.8670    2.9130 H   0  0  0  0  0  0  0  0  0  0  0  0
   25.5489  -16.8314    5.8943 N   0  0  0  0  0  0  0  0  0  0  0  0
   23.1348  -13.3945    3.9796 N   0  0  0  0  0  0  0  0  0  0  0  0
   23.3878  -11.9535    3.9755 C   0  0  0  0  0  0  0  0  0  0  0  0
   23.8418  -11.4475    5.3456 C   0  0  0  0  0  0  0  0  0  0  0  0
   22.6801  -11.2911    6.3244 C   0  0  0  0  0  0  0  0  0  0  0  0
   22.2247  -12.5650    7.0343 C   0  0  0  0  0  0  0  0  0  0  0  0
   22.3195  -13.8847    6.2699 C   0  0  0  0  0  0  0  0  0  0  0  0
   21.9669  -13.8030    4.7861 C   0  0  0  0  0  0  0  0  0  0  0  0
   24.4819  -14.6166    5.6334 H   0  0  0  0  0  0  0  0  0  0  0  0
   25.7001  -16.2504    6.7093 H   0  0  0  0  0  0  0  0  0  0  0  0
   25.8867  -17.7846    5.9452 H   0  0  0  0  0  0  0  0  0  0  0  0
  1  2  1  0  0  0  0
  2  3  2  0  0  0  0
  3  4  1  0  0  0  0
  3 10  1  0  0  0  0
  4  5  1  0  0  0  0
  4 17  1  0  0  0  0
  5  6  2  0  0  0  0
  5  9  1  0  0  0  0
  6  7  1  0  0  0  0
  6  8  1  0  0  0  0
  9 18  1  0  0  0  0
  9 19  1  0  0  0  0
 10 11  1  0  0  0  0
 10 16  1  0  0  0  0
 11 12  1  0  0  0  0
 12 13  1  0  0  0  0
 13 14  1  0  0  0  0
 14 15  1  0  0  0  0
 15 16  1  0  0  0  0
M  CHG  1   6   1
M  END
>  <CHROM.0>
-47.89409403,-73.74548951,-55.06838871,-51.04405784,-56.45004333,60.09533945
-58.97177273,-56.73968695,-166.85266121,160.66385608

>  <CHROM.1>
-68.49665400,23.73109363,-14.10072788,4.85454608,-0.20495720,1.10008904,-1.03381500

>  <Name>
P133621473

>  <RI>
0

>  <Rbt.Current_Directory>
/home/fstefaniak/projects/zuza/docking/adenine/1Y26

>  <Rbt.Executable>
rbdock ($Id: //depot/dev/client3/rdock/2013.1/src/exe/rbdock.cxx#4 $)

>  <Rbt.Library>
libRbt.so (2013.1, Build901 2013/11/27)

>  <Rbt.Parameter_File>
/home/fstefaniak/progs/rDock//data/scripts/dock_solv.prm

>  <Rbt.Receptor>
1y26.prm

>  <SCORE>
-53.5952

>  <SCORE.INTER>
-34.5813

>  <SCORE.INTER.CONST>
1

>  <SCORE.INTER.POLAR>
-5.25786

>  <SCORE.INTER.ROT>
1

>  <SCORE.INTER.SOLV>
21.4255

>  <SCORE.INTER.VDW>
-16.9365

>  <SCORE.INTER.norm>
-2.6601

>  <SCORE.INTRA>
0.644019

>  <SCORE.INTRA.DIHEDRAL>
0.00778915

>  <SCORE.INTRA.DIHEDRAL.0>
0.488893

>  <SCORE.INTRA.POLAR>
0

>  <SCORE.INTRA.POLAR.0>
0

>  <SCORE.INTRA.REPUL>
0

>  <SCORE.INTRA.REPUL.0>
0

>  <SCORE.INTRA.SOLV>
0.850693

>  <SCORE.INTRA.SOLV.lig_0>
-30.5203

>  <SCORE.INTRA.VDW>
0.214778

>  <SCORE.INTRA.VDW.0>
0.0338725

>  <SCORE.INTRA.norm>
0.0495399

>  <SCORE.RESTR>
1.4526

>  <SCORE.RESTR.CAVITY>
1.4526

>  <SCORE.RESTR.norm>
0.111738

>  <SCORE.SYSTEM>
-21.1105

>  <SCORE.SYSTEM.CONST>
0

>  <SCORE.SYSTEM.DIHEDRAL>
6.55568

>  <SCORE.SYSTEM.POLAR>
-3.52042

>  <SCORE.SYSTEM.SOLV>
0.494654

>  <SCORE.SYSTEM.VDW>
-4.68904

>  <SCORE.SYSTEM.norm>
-1.62388

>  <SCORE.heavy>
13

>  <SCORE.norm>
-4.1227

$$$$
P133628255
 OpenBabel12072022103D
libRbt.so/2013.1/901 2013/11/27
 15 15  0  0  0  0  0  0  0  0999 V2000
   19.1028  -19.2022    5.3902 C   0  0  0  0  0  0  0  0  0  0  0  0
   19.9057  -18.5356    4.2751 C   0  0  0  0  0  0  0  0  0  0  0  0
   18.9797  -18.0097    3.1832 C   0  0  0  0  0  0  0  0  0  0  0  0
   20.7190  -17.4505    4.8075 N   0  0  0  0  0  0  0  0  0  0  0  0
   21.8007  -16.9433    4.1130 C   0  0  0  0  0  0  0  0  0  0  0  0
   22.0945  -17.3080    2.9789 O   0  0  0  0  0  0  0  0  0  0  0  0
   22.5780  -15.8801    4.8777 C   0  0  1  0  0  0  0  0  0  0  0  0
   23.7583  -15.3854    4.0530 C   0  0  0  0  0  0  0  0  0  0  0  0
   23.3861  -14.1340    3.4453 O   0  0  0  0  0  0  0  0  0  0  0  0
   22.0154  -13.8668    3.7875 C   0  0  0  0  0  0  0  0  0  0  0  0
   21.7572  -14.6182    5.0939 C   0  0  2  0  0  0  0  0  0  0  0  0
   22.2822  -13.8586    6.2513 N   0  0  0  0  0  0  0  0  0  0  0  0
   20.5849  -17.1850    5.7747 H   0  0  0  0  0  0  0  0  0  0  0  0
   22.8905  -14.4732    6.7944 H   0  0  0  0  0  0  0  0  0  0  0  0
   21.5055  -13.6412    6.8809 H   0  0  0  0  0  0  0  0  0  0  0  0
  1  2  1  0  0  0  0
  2  3  1  0  0  0  0
  2  4  1  0  0  0  0
  4  5  1  0  0  0  0
  4 13  1  0  0  0  0
  5  6  2  0  0  0  0
  7  5  1  6  0  0  0
  7  8  1  0  0  0  0
  7 11  1  0  0  0  0
  8  9  1  0  0  0  0
  9 10  1  0  0  0  0
 10 11  1  0  0  0  0
 11 12  1  1  0  0  0
 12 14  1  0  0  0  0
 12 15  1  0  0  0  0
M  END
>  <CHROM.0>
-48.20852051,-67.94277422,-55.65200032,-52.12224235,-56.10833428,-56.52524034
-60.39871996,-50.39343071,-167.43948746,161.02510533

>  <CHROM.1>
161.22357754,179.38196554,-15.98857462,21.53134602,-16.25129745,4.36074879
2.59686358,-0.77403827,-2.24401085

>  <Name>
P133628255

>  <RI>
0

>  <Rbt.Current_Directory>
/home/fstefaniak/projects/zuza/docking/adenine/1Y26

>  <Rbt.Executable>
rbdock ($Id: //depot/dev/client3/rdock/2013.1/src/exe/rbdock.cxx#4 $)

>  <Rbt.Library>
libRbt.so (2013.1, Build901 2013/11/27)

>  <Rbt.Parameter_File>
/home/fstefaniak/progs/rDock//data/scripts/dock_solv.prm

>  <Rbt.Receptor>
1y26.prm

>  <SCORE>
-50.2315

>  <SCORE.INTER>
-29.9125

>  <SCORE.INTER.CONST>
1

>  <SCORE.INTER.POLAR>
-3.69278

>  <SCORE.INTER.ROT>
3

>  <SCORE.INTER.SOLV>
11.8841

>  <SCORE.INTER.VDW>
-17.1938

>  <SCORE.INTER.norm>
-2.49271

>  <SCORE.INTRA>
1.81517

>  <SCORE.INTRA.DIHEDRAL>
2.3863

>  <SCORE.INTRA.DIHEDRAL.0>
1.70904

>  <SCORE.INTRA.POLAR>
0

>  <SCORE.INTRA.POLAR.0>
0

>  <SCORE.INTRA.REPUL>
0

>  <SCORE.INTRA.REPUL.0>
0

>  <SCORE.INTRA.SOLV>
0.0644266

>  <SCORE.INTRA.SOLV.lig_0>
-13.9426

>  <SCORE.INTRA.VDW>
0.589808

>  <SCORE.INTRA.VDW.0>
-0.331955

>  <SCORE.INTRA.norm>
0.151264

>  <SCORE.RESTR>
0

>  <SCORE.RESTR.CAVITY>
0

>  <SCORE.RESTR.norm>
0

>  <SCORE.SYSTEM>
-22.1342

>  <SCORE.SYSTEM.CONST>
0

>  <SCORE.SYSTEM.DIHEDRAL>
6.16068

>  <SCORE.SYSTEM.POLAR>
-3.51025

>  <SCORE.SYSTEM.SOLV>
0.665194

>  <SCORE.SYSTEM.VDW>
-5.3306

>  <SCORE.SYSTEM.norm>
-1.84452

>  <SCORE.heavy>
12

>  <SCORE.norm>
-4.18596

$$$$
P133628255
 OpenBabel12072022103D
libRbt.so/2013.1/901 2013/11/27
 15 15  0  0  0  0  0  0  0  0999 V2000
   19.0465  -19.2224    5.4625 C   0  0  0  0  0  0  0  0  0  0  0  0
   19.8320  -18.5473    4.3401 C   0  0  0  0  0  0  0  0  0  0  0  0
   18.8887  -18.0052    3.2712 C   0  0  0  0  0  0  0  0  0  0  0  0
   20.6602  -17.4719    4.8693 N   0  0  0  0  0  0  0  0  0  0  0  0
   21.7023  -16.9301    4.1411 C   0  0  0  0  0  0  0  0  0  0  0  0
   21.9440  -17.2535    2.9825 O   0  0  0  0  0  0  0  0  0  0  0  0
   22.5059  -15.8847    4.9031 C   0  0  1  0  0  0  0  0  0  0  0  0
   23.7551  -15.4989    4.1230 C   0  0  0  0  0  0  0  0  0  0  0  0
   23.4940  -14.2542    3.4474 O   0  0  0  0  0  0  0  0  0  0  0  0
   22.1275  -13.8892    3.7057 C   0  0  0  0  0  0  0  0  0  0  0  0
   21.7568  -14.5668    5.0254 C   0  0  2  0  0  0  0  0  0  0  0  0
   22.2700  -13.7918    6.1780 N   0  0  0  0  0  0  0  0  0  0  0  0
   20.5707  -17.2403    5.8502 H   0  0  0  0  0  0  0  0  0  0  0  0
   23.0000  -14.3382    6.6377 H   0  0  0  0  0  0  0  0  0  0  0  0
   21.5273  -13.7125    6.8772 H   0  0  0  0  0  0  0  0  0  0  0  0
  1  2  1  0  0  0  0
  2  3  1  0  0  0  0
  2  4  1  0  0  0  0
  4  5  1  0  0  0  0
  4 13  1  0  0  0  0
  5  6  2  0  0  0  0
  7  5  1  6  0  0  0
  7  8  1  0  0  0  0
  7 11  1  0  0  0  0
  8  9  1  0  0  0  0
  9 10  1  0  0  0  0
 10 11  1  0  0  0  0
 11 12  1  1  0  0  0
 12 14  1  0  0  0  0
 12 15  1  0  0  0  0
M  END
>  <CHROM.0>
-45.25231311,-63.43204425,-52.47438894,-53.32228538,-54.39156635,-57.04621464
-58.28869626,-51.45828873,-167.61382710,161.08905651

>  <CHROM.1>
163.54187176,171.10592676,-1.23768328,21.50041231,-16.26252831,4.37649728
2.63391744,-0.77007195,-2.22998544

>  <Name>
P133628255

>  <RI>
0

>  <Rbt.Current_Directory>
/home/fstefaniak/projects/zuza/docking/adenine/1Y26

>  <Rbt.Executable>
rbdock ($Id: //depot/dev/client3/rdock/2013.1/src/exe/rbdock.cxx#4 $)

>  <Rbt.Library>
libRbt.so (2013.1, Build901 2013/11/27)

>  <Rbt.Parameter_File>
/home/fstefaniak/progs/rDock//data/scripts/dock_solv.prm

>  <Rbt.Receptor>
1y26.prm

>  <SCORE>
-49.7205

>  <SCORE.INTER>
-29.7634

>  <SCORE.INTER.CONST>
1

>  <SCORE.INTER.POLAR>
-3.61605

>  <SCORE.INTER.ROT>
3

>  <SCORE.INTER.SOLV>
11.9108

>  <SCORE.INTER.VDW>
-17.3591

>  <SCORE.INTER.norm>
-2.48029

>  <SCORE.INTRA>
2.15908

>  <SCORE.INTRA.DIHEDRAL>
2.86816

>  <SCORE.INTRA.DIHEDRAL.0>
1.70904

>  <SCORE.INTRA.POLAR>
0

>  <SCORE.INTRA.POLAR.0>
0

>  <SCORE.INTRA.REPUL>
0

>  <SCORE.INTRA.REPUL.0>
0

>  <SCORE.INTRA.SOLV>
0.036763

>  <SCORE.INTRA.SOLV.lig_0>
-13.9426

>  <SCORE.INTRA.VDW>
0.706618

>  <SCORE.INTRA.VDW.0>
-0.331955

>  <SCORE.INTRA.norm>
0.179923

>  <SCORE.RESTR>
0

>  <SCORE.RESTR.CAVITY>
0

>  <SCORE.RESTR.norm>
0

>  <SCORE.SYSTEM>
-22.1161

>  <SCORE.SYSTEM.CONST>
0

>  <SCORE.SYSTEM.DIHEDRAL>
6.32611

>  <SCORE.SYSTEM.POLAR>
-3.54703

>  <SCORE.SYSTEM.SOLV>
0.68006

>  <SCORE.SYSTEM.VDW>
-5.25604

>  <SCORE.SYSTEM.norm>
-1.84301

>  <SCORE.heavy>
12

>  <SCORE.norm>
-4.14337

$$$$
P133628255
 OpenBabel12072022103D
libRbt.so/2013.1/901 2013/11/27
 15 15  0  0  0  0  0  0  0  0999 V2000
   22.6252  -14.5239    4.3305 C   0  0  0  0  0  0  0  0  0  0  0  0
   22.5326  -16.0105    3.9930 C   0  0  0  0  0  0  0  0  0  0  0  0
   23.8334  -16.7258    4.3431 C   0  0  0  0  0  0  0  0  0  0  0  0
   21.4166  -16.6274    4.6976 N   0  0  0  0  0  0  0  0  0  0  0  0
   20.2644  -17.0136    4.0395 C   0  0  0  0  0  0  0  0  0  0  0  0
   20.1380  -16.9434    2.8211 O   0  0  0  0  0  0  0  0  0  0  0  0
   19.1794  -17.5500    4.9638 C   0  0  1  0  0  0  0  0  0  0  0  0
   18.0818  -18.2320    4.1589 C   0  0  0  0  0  0  0  0  0  0  0  0
   18.3026  -19.6539    4.2165 O   0  0  0  0  0  0  0  0  0  0  0  0
   19.5186  -19.8831    4.9487 C   0  0  0  0  0  0  0  0  0  0  0  0
   19.6933  -18.6670    5.8589 C   0  0  2  0  0  0  0  0  0  0  0  0
   18.8446  -18.7863    7.0663 N   0  0  0  0  0  0  0  0  0  0  0  0
   21.4264  -16.6147    5.7094 H   0  0  0  0  0  0  0  0  0  0  0  0
   18.1075  -19.4678    6.8793 H   0  0  0  0  0  0  0  0  0  0  0  0
   18.3495  -17.9022    7.2084 H   0  0  0  0  0  0  0  0  0  0  0  0
  1  2  1  0  0  0  0
  2  3  1  0  0  0  0
  2  4  1  0  0  0  0
  4  5  1  0  0  0  0
  4 13  1  0  0  0  0
  5  6  2  0  0  0  0
  7  5  1  6  0  0  0
  7  8  1  0  0  0  0
  7 11  1  0  0  0  0
  8  9  1  0  0  0  0
  9 10  1  0  0  0  0
 10 11  1  0  0  0  0
 11 12  1  1  0  0  0
 12 14  1  0  0  0  0
 12 15  1  0  0  0  0
M  END
>  <CHROM.0>
-166.75342057,-61.07520201,-50.67320522,-48.86783358,-54.81788338,-57.39239637
-58.23570510,-51.44452174,-167.94438485,160.81295826

>  <CHROM.1>
107.74495246,-167.50116023,91.84001978,20.35702614,-17.56252292,4.62695286
-0.46304862,0.55715487,2.02479853

>  <Name>
P133628255

>  <RI>
0

>  <Rbt.Current_Directory>
/home/fstefaniak/projects/zuza/docking/adenine/1Y26

>  <Rbt.Executable>
rbdock ($Id: //depot/dev/client3/rdock/2013.1/src/exe/rbdock.cxx#4 $)

>  <Rbt.Library>
libRbt.so (2013.1, Build901 2013/11/27)

>  <Rbt.Parameter_File>
/home/fstefaniak/progs/rDock//data/scripts/dock_solv.prm

>  <Rbt.Receptor>
1y26.prm

>  <SCORE>
-49.5659

>  <SCORE.INTER>
-30.4363

>  <SCORE.INTER.CONST>
1

>  <SCORE.INTER.POLAR>
-5.25487

>  <SCORE.INTER.ROT>
3

>  <SCORE.INTER.SOLV>
12.726

>  <SCORE.INTER.VDW>
-12.6166

>  <SCORE.INTER.norm>
-2.53635

>  <SCORE.INTRA>
1.57457

>  <SCORE.INTRA.DIHEDRAL>
1.62182

>  <SCORE.INTRA.DIHEDRAL.0>
1.70904

>  <SCORE.INTRA.POLAR>
0

>  <SCORE.INTRA.POLAR.0>
0

>  <SCORE.INTRA.REPUL>
0

>  <SCORE.INTRA.REPUL.0>
0

>  <SCORE.INTRA.SOLV>
0.197849

>  <SCORE.INTRA.SOLV.lig_0>
-13.9426

>  <SCORE.INTRA.VDW>
0.664736

>  <SCORE.INTRA.VDW.0>
-0.331955

>  <SCORE.INTRA.norm>
0.131214

>  <SCORE.RESTR>
0

>  <SCORE.RESTR.CAVITY>
0

>  <SCORE.RESTR.norm>
0

>  <SCORE.SYSTEM>
-20.7043

>  <SCORE.SYSTEM.CONST>
0

>  <SCORE.SYSTEM.DIHEDRAL>
6.54985

>  <SCORE.SYSTEM.POLAR>
-3.34736

>  <SCORE.SYSTEM.SOLV>
0.630452

>  <SCORE.SYSTEM.VDW>
-5.03841

>  <SCORE.SYSTEM.norm>
-1.72535

>  <SCORE.heavy>
12

>  <SCORE.norm>
-4.13049

$$$$
P133629862
 OpenBabel12072022103D
libRbt.so/2013.1/901 2013/11/27
 15 15  0  0  0  0  0  0  0  0999 V2000
   24.6565  -16.4002    5.0658 C   0  0  0  0  0  0  0  0  0  0  0  0
   23.5874  -16.5089    4.5290 C   0  0  0  0  0  0  0  0  0  0  0  0
   22.2846  -16.6360    3.8711 C   0  0  0  0  0  0  0  0  0  0  0  0
   21.2855  -17.0272    4.8357 N   0  0  0  0  0  0  0  0  0  0  0  0
   20.1490  -17.6918    4.4279 C   0  0  0  0  0  0  0  0  0  0  0  0
   19.9667  -18.0374    3.2649 O   0  0  0  0  0  0  0  0  0  0  0  0
   19.1561  -17.9547    5.5506 C   0  0  2  0  0  0  0  0  0  0  0  0
   19.8862  -18.4260    6.8011 C   0  0  0  0  0  0  0  0  0  0  0  0
   19.7370  -19.8560    6.8930 O   0  0  0  0  0  0  0  0  0  0  0  0
   19.0512  -20.3057    5.7129 C   0  0  0  0  0  0  0  0  0  0  0  0
   18.2244  -19.1132    5.2328 C   0  0  1  0  0  0  0  0  0  0  0  0
   16.9739  -18.9879    6.0152 N   0  0  0  0  0  0  0  0  0  0  0  0
   21.2977  -16.5716    5.7385 H   0  0  0  0  0  0  0  0  0  0  0  0
   17.0943  -18.2446    6.7081 H   0  0  0  0  0  0  0  0  0  0  0  0
   16.8490  -19.8373    6.5682 H   0  0  0  0  0  0  0  0  0  0  0  0
  1  2  3  0  0  0  0
  2  3  1  0  0  0  0
  3  4  1  0  0  0  0
  4  5  1  0  0  0  0
  4 13  1  0  0  0  0
  5  6  2  0  0  0  0
  7  8  1  0  0  0  0
  7  5  1  6  0  0  0
  7 11  1  0  0  0  0
  8  9  1  0  0  0  0
  9 10  1  0  0  0  0
 10 11  1  0  0  0  0
 11 12  1  1  0  0  0
 12 14  1  0  0  0  0
 12 15  1  0  0  0  0
M  END
>  <CHROM.0>
-46.14452142,-62.21801924,-59.22319101,-51.60746269,-57.41594725,-60.41720656
-59.79759241,-53.05377178,-165.88659974,161.02257236

>  <CHROM.1>
-136.07287397,-155.10805647,-42.91159529,-9.87598088,20.32473534,-18.12968956
5.21668910,-0.45915523,0.33229694,2.06488557

>  <Name>
P133629862

>  <RI>
0

>  <Rbt.Current_Directory>
/home/fstefaniak/projects/zuza/docking/adenine/1Y26

>  <Rbt.Executable>
rbdock ($Id: //depot/dev/client3/rdock/2013.1/src/exe/rbdock.cxx#4 $)

>  <Rbt.Library>
libRbt.so (2013.1, Build901 2013/11/27)

>  <Rbt.Parameter_File>
/home/fstefaniak/progs/rDock//data/scripts/dock_solv.prm

>  <Rbt.Receptor>
1y26.prm

>  <SCORE>
-51.0982

>  <SCORE.INTER>
-31.6436

>  <SCORE.INTER.CONST>
1

>  <SCORE.INTER.POLAR>
-4.37775

>  <SCORE.INTER.ROT>
4

>  <SCORE.INTER.SOLV>
13.5992

>  <SCORE.INTER.VDW>
-17.303

>  <SCORE.INTER.norm>
-2.63697

>  <SCORE.INTRA>
2.83055

>  <SCORE.INTRA.DIHEDRAL>
2.44306

>  <SCORE.INTRA.DIHEDRAL.0>
1.82166

>  <SCORE.INTRA.POLAR>
0

>  <SCORE.INTRA.POLAR.0>
0

>  <SCORE.INTRA.REPUL>
0

>  <SCORE.INTRA.REPUL.0>
0

>  <SCORE.INTRA.SOLV>
0.179907

>  <SCORE.INTRA.SOLV.lig_0>
-15.2803

>  <SCORE.INTRA.VDW>
1.51907

>  <SCORE.INTRA.VDW.0>
-0.554709

>  <SCORE.INTRA.norm>
0.235879

>  <SCORE.RESTR>
0

>  <SCORE.RESTR.CAVITY>
0

>  <SCORE.RESTR.norm>
0

>  <SCORE.SYSTEM>
-22.2851

>  <SCORE.SYSTEM.CONST>
0

>  <SCORE.SYSTEM.DIHEDRAL>
5.965

>  <SCORE.SYSTEM.POLAR>
-3.52243

>  <SCORE.SYSTEM.SOLV>
0.657874

>  <SCORE.SYSTEM.VDW>
-5.32292

>  <SCORE.SYSTEM.norm>
-1.85709

>  <SCORE.heavy>
12

>  <SCORE.norm>
-4.25818

$$$$
P133629862
 OpenBabel12072022103D
libRbt.so/2013.1/901 2013/11/27
 15 15  0  0  0  0  0  0  0  0999 V2000
   19.1032  -19.8926    5.7602 C   0  0  0  0  0  0  0  0  0  0  0  0
   19.2930  -18.8671    5.1642 C   0  0  0  0  0  0  0  0  0  0  0  0
   19.5204  -17.6183    4.4327 C   0  0  0  0  0  0  0  0  0  0  0  0
   20.7124  -16.9724    4.9262 N   0  0  0  0  0  0  0  0  0  0  0  0
   21.8436  -16.9089    4.1414 C   0  0  0  0  0  0  0  0  0  0  0  0
   21.8719  -17.3252    2.9877 O   0  0  0  0  0  0  0  0  0  0  0  0
   23.0388  -16.2753    4.8382 C   0  0  2  0  0  0  0  0  0  0  0  0
   23.2598  -14.8592    4.3237 C   0  0  0  0  0  0  0  0  0  0  0  0
   24.3503  -14.8912    3.3827 O   0  0  0  0  0  0  0  0  0  0  0  0
   24.7410  -16.2627    3.2052 C   0  0  0  0  0  0  0  0  0  0  0  0
   24.3421  -16.9788    4.4952 C   0  0  1  0  0  0  0  0  0  0  0  0
   25.3417  -16.7430    5.5613 N   0  0  0  0  0  0  0  0  0  0  0  0
   20.7910  -16.8261    5.9239 H   0  0  0  0  0  0  0  0  0  0  0  0
   26.0190  -16.0519    5.2282 H   0  0  0  0  0  0  0  0  0  0  0  0
   25.8875  -17.5963    5.6909 H   0  0  0  0  0  0  0  0  0  0  0  0
  1  2  3  0  0  0  0
  2  3  1  0  0  0  0
  3  4  1  0  0  0  0
  4  5  1  0  0  0  0
  4 13  1  0  0  0  0
  5  6  2  0  0  0  0
  7  8  1  0  0  0  0
  7  5  1  6  0  0  0
  7 11  1  0  0  0  0
  8  9  1  0  0  0  0
  9 10  1  0  0  0  0
 10 11  1  0  0  0  0
 11 12  1  1  0  0  0
 12 14  1  0  0  0  0
 12 15  1  0  0  0  0
M  END
>  <CHROM.0>
-44.36305596,-59.37513668,-51.45585516,-50.80973168,-53.93067731,58.92367519
-59.27067665,-177.60714918,-167.86266552,160.42189586

>  <CHROM.1>
-162.67610250,110.16638566,-104.48431464,-104.21909770,22.38243985,-16.90800492
4.41065278,-2.66186817,-0.22285189,-0.72131372

>  <Name>
P133629862

>  <RI>
0

>  <Rbt.Current_Directory>
/home/fstefaniak/projects/zuza/docking/adenine/1Y26

>  <Rbt.Executable>
rbdock ($Id: //depot/dev/client3/rdock/2013.1/src/exe/rbdock.cxx#4 $)

>  <Rbt.Library>
libRbt.so (2013.1, Build901 2013/11/27)

>  <Rbt.Parameter_File>
/home/fstefaniak/progs/rDock//data/scripts/dock_solv.prm

>  <Rbt.Receptor>
1y26.prm

>  <SCORE>
-50.914

>  <SCORE.INTER>
-31.4633

>  <SCORE.INTER.CONST>
1

>  <SCORE.INTER.POLAR>
-3.90541

>  <SCORE.INTER.ROT>
4

>  <SCORE.INTER.SOLV>
13.3103

>  <SCORE.INTER.VDW>
-18.661

>  <SCORE.INTER.norm>
-2.62194

>  <SCORE.INTRA>
2.21311

>  <SCORE.INTRA.DIHEDRAL>
4.29892

>  <SCORE.INTRA.DIHEDRAL.0>
1.82166

>  <SCORE.INTRA.POLAR>
0

>  <SCORE.INTRA.POLAR.0>
0

>  <SCORE.INTRA.REPUL>
0

>  <SCORE.INTRA.REPUL.0>
0

>  <SCORE.INTRA.SOLV>
0.014989

>  <SCORE.INTRA.SOLV.lig_0>
-15.2803

>  <SCORE.INTRA.VDW>
0.0561493

>  <SCORE.INTRA.VDW.0>
-0.554709

>  <SCORE.INTRA.norm>
0.184425

>  <SCORE.RESTR>
0

>  <SCORE.RESTR.CAVITY>
0

>  <SCORE.RESTR.norm>
0

>  <SCORE.SYSTEM>
-21.6638

>  <SCORE.SYSTEM.CONST>
0

>  <SCORE.SYSTEM.DIHEDRAL>
6.38472

>  <SCORE.SYSTEM.POLAR>
-3.59086

>  <SCORE.SYSTEM.SOLV>
0.312498

>  <SCORE.SYSTEM.VDW>
-4.70537

>  <SCORE.SYSTEM.norm>
-1.80531

>  <SCORE.heavy>
12

>  <SCORE.norm>
-4.24283

$$$$
P133629862
 OpenBabel12072022103D
libRbt.so/2013.1/901 2013/11/27
 15 15  0  0  0  0  0  0  0  0999 V2000
   24.6770  -16.4974    5.0567 C   0  0  0  0  0  0  0  0  0  0  0  0
   23.6002  -16.5452    4.5265 C   0  0  0  0  0  0  0  0  0  0  0  0
   22.2877  -16.5972    3.8778 C   0  0  0  0  0  0  0  0  0  0  0  0
   21.2853  -17.0016    4.8336 N   0  0  0  0  0  0  0  0  0  0  0  0
   20.1549  -17.6692    4.4141 C   0  0  0  0  0  0  0  0  0  0  0  0
   19.9812  -18.0067    3.2474 O   0  0  0  0  0  0  0  0  0  0  0  0
   19.1572  -17.9465    5.5290 C   0  0  2  0  0  0  0  0  0  0  0  0
   19.8842  -18.4063    6.7855 C   0  0  0  0  0  0  0  0  0  0  0  0
   19.7556  -19.8383    6.8771 O   0  0  0  0  0  0  0  0  0  0  0  0
   19.0861  -20.2987    5.6918 C   0  0  0  0  0  0  0  0  0  0  0  0
   18.2454  -19.1189    5.2044 C   0  0  1  0  0  0  0  0  0  0  0  0
   16.9870  -19.0120    5.9768 N   0  0  0  0  0  0  0  0  0  0  0  0
   21.2898  -16.5530    5.7400 H   0  0  0  0  0  0  0  0  0  0  0  0
   17.0903  -18.2659    6.6694 H   0  0  0  0  0  0  0  0  0  0  0  0
   16.8710  -19.8625    6.5302 H   0  0  0  0  0  0  0  0  0  0  0  0
  1  2  3  0  0  0  0
  2  3  1  0  0  0  0
  3  4  1  0  0  0  0
  4  5  1  0  0  0  0
  4 13  1  0  0  0  0
  5  6  2  0  0  0  0
  7  8  1  0  0  0  0
  7  5  1  6  0  0  0
  7 11  1  0  0  0  0
  8  9  1  0  0  0  0
  9 10  1  0  0  0  0
 10 11  1  0  0  0  0
 11 12  1  1  0  0  0
 12 14  1  0  0  0  0
 12 15  1  0  0  0  0
M  END
>  <CHROM.0>
-50.38243352,-60.88605099,-63.91986543,-54.25151615,-58.82519679,-59.30468772
-171.26552506,-177.86877750,-168.46359328,160.32075416

>  <CHROM.1>
-125.92094754,-151.77033151,-42.18088409,-9.80835662,20.33667635,-18.12797399
5.20144706,-0.45979288,0.32138060,2.08141899

>  <Name>
P133629862

>  <RI>
0

>  <Rbt.Current_Directory>
/home/fstefaniak/projects/zuza/docking/adenine/1Y26

>  <Rbt.Executable>
rbdock ($Id: //depot/dev/client3/rdock/2013.1/src/exe/rbdock.cxx#4 $)

>  <Rbt.Library>
libRbt.so (2013.1, Build901 2013/11/27)

>  <Rbt.Parameter_File>
/home/fstefaniak/progs/rDock//data/scripts/dock_solv.prm

>  <Rbt.Receptor>
1y26.prm

>  <SCORE>
-50.5396

>  <SCORE.INTER>
-31.7178

>  <SCORE.INTER.CONST>
1

>  <SCORE.INTER.POLAR>
-4.34691

>  <SCORE.INTER.ROT>
4

>  <SCORE.INTER.SOLV>
13.5696

>  <SCORE.INTER.VDW>
-17.4454

>  <SCORE.INTER.norm>
-2.64315

>  <SCORE.INTRA>
2.90384

>  <SCORE.INTRA.DIHEDRAL>
2.52635

>  <SCORE.INTRA.DIHEDRAL.0>
1.82166

>  <SCORE.INTRA.POLAR>
0

>  <SCORE.INTRA.POLAR.0>
0

>  <SCORE.INTRA.REPUL>
0

>  <SCORE.INTRA.REPUL.0>
0

>  <SCORE.INTRA.SOLV>
0.186717

>  <SCORE.INTRA.SOLV.lig_0>
-15.2803

>  <SCORE.INTRA.VDW>
1.54731

>  <SCORE.INTRA.VDW.0>
-0.554709

>  <SCORE.INTRA.norm>
0.241987

>  <SCORE.RESTR>
0

>  <SCORE.RESTR.CAVITY>
0

>  <SCORE.RESTR.norm>
0

>  <SCORE.SYSTEM>
-21.7257

>  <SCORE.SYSTEM.CONST>
0

>  <SCORE.SYSTEM.DIHEDRAL>
5.35375

>  <SCORE.SYSTEM.POLAR>
-3.35825

>  <SCORE.SYSTEM.SOLV>
0.393494

>  <SCORE.SYSTEM.VDW>
-5.20536

>  <SCORE.SYSTEM.norm>
-1.81047

>  <SCORE.heavy>
12

>  <SCORE.norm>
-4.21163

$$$$
P133633748
 OpenBabel12072022103D
libRbt.so/2013.1/901 2013/11/27
 16 17  0  0  0  0  0  0  0  0999 V2000
   24.9198  -16.5176    5.1933 C   0  0  0  0  0  0  0  0  0  0  0  0
   24.2658  -15.2074    4.7132 C   0  0  0  0  0  0  0  0  0  0  0  0
   23.2689  -16.0668    3.8987 C   0  0  0  0  0  0  0  0  0  0  0  0
   24.3230  -17.1989    3.9464 C   0  0  0  0  0  0  0  0  0  0  0  0
   22.0155  -16.3856    4.6171 N   0  0  0  0  0  0  0  0  0  0  0  0
   21.0371  -17.1849    4.0543 C   0  0  0  0  0  0  0  0  0  0  0  0
   21.1449  -17.6779    2.9358 O   0  0  0  0  0  0  0  0  0  0  0  0
   19.8247  -17.3932    4.9503 C   0  0  1  0  0  0  0  0  0  0  0  0
   18.5975  -17.7272    4.1129 C   0  0  0  0  0  0  0  0  0  0  0  0
   18.3911  -19.1512    4.1709 O   0  0  0  0  0  0  0  0  0  0  0  0
   19.4751  -19.7252    4.9207 C   0  0  0  0  0  0  0  0  0  0  0  0
   19.9769  -18.6143    5.8433 C   0  0  2  0  0  0  0  0  0  0  0  0
   19.1072  -18.4842    7.0343 N   0  0  0  0  0  0  0  0  0  0  0  0
   21.8912  -16.0782    5.5745 H   0  0  0  0  0  0  0  0  0  0  0  0
   18.1912  -18.1477    6.7328 H   0  0  0  0  0  0  0  0  0  0  0  0
   19.4739  -17.7359    7.6283 H   0  0  0  0  0  0  0  0  0  0  0  0
  1  2  1  0  0  0  0
  1  4  1  0  0  0  0
  2  3  1  0  0  0  0
  3  4  1  0  0  0  0
  3  5  1  0  0  0  0
  5  6  1  0  0  0  0
  5 14  1  0  0  0  0
  6  7  2  0  0  0  0
  8  6  1  6  0  0  0
  8  9  1  0  0  0  0
  8 12  1  0  0  0  0
  9 10  1  0  0  0  0
 10 11  1  0  0  0  0
 11 12  1  0  0  0  0
 12 13  1  1  0  0  0
 13 15  1  0  0  0  0
 13 16  1  0  0  0  0
M  END
>  <CHROM.0>
-162.84935446,-61.04045052,-56.62003714,-52.44068962,-55.54419725,-60.38062257
-59.54798013,-51.26594391,-166.56955477,160.71382887

>  <CHROM.1>
-177.59980599,155.44244989,44.32840036,21.20895055,-17.50983053,4.65697057
-0.14189672,0.44350966,1.64584208

>  <Name>
P133633748

>  <RI>
0

>  <Rbt.Current_Directory>
/home/fstefaniak/projects/zuza/docking/adenine/1Y26

>  <Rbt.Executable>
rbdock ($Id: //depot/dev/client3/rdock/2013.1/src/exe/rbdock.cxx#4 $)

>  <Rbt.Library>
libRbt.so (2013.1, Build901 2013/11/27)

>  <Rbt.Parameter_File>
/home/fstefaniak/progs/rDock//data/scripts/dock_solv.prm

>  <Rbt.Receptor>
1y26.prm

>  <SCORE>
-50.9776

>  <SCORE.INTER>
-30.983

>  <SCORE.INTER.CONST>
1

>  <SCORE.INTER.POLAR>
-3.63113

>  <SCORE.INTER.ROT>
3

>  <SCORE.INTER.SOLV>
14.0215

>  <SCORE.INTER.VDW>
-18.8254

>  <SCORE.INTER.norm>
-2.3833

>  <SCORE.INTRA>
0.645966

>  <SCORE.INTRA.DIHEDRAL>
1.34532

>  <SCORE.INTRA.DIHEDRAL.0>
2.15352

>  <SCORE.INTRA.POLAR>
0

>  <SCORE.INTRA.POLAR.0>
0

>  <SCORE.INTRA.REPUL>
0

>  <SCORE.INTRA.REPUL.0>
0

>  <SCORE.INTRA.SOLV>
-0.00436499

>  <SCORE.INTRA.SOLV.lig_0>
-14.0672

>  <SCORE.INTRA.VDW>
-0.0245116

>  <SCORE.INTRA.VDW.0>
-0.908363

>  <SCORE.INTRA.norm>
0.0496897

>  <SCORE.RESTR>
0

>  <SCORE.RESTR.CAVITY>
0

>  <SCORE.RESTR.norm>
0

>  <SCORE.SYSTEM>
-20.6406

>  <SCORE.SYSTEM.CONST>
0

>  <SCORE.SYSTEM.DIHEDRAL>
6.53444

>  <SCORE.SYSTEM.POLAR>
-3.25008

>  <SCORE.SYSTEM.SOLV>
0.603473

>  <SCORE.SYSTEM.VDW>
-5.30613

>  <SCORE.SYSTEM.norm>
-1.58774

>  <SCORE.heavy>
13

>  <SCORE.norm>
-3.92135

$$$$
P133633748
 OpenBabel12072022103D
libRbt.so/2013.1/901 2013/11/27
 16 17  0  0  0  0  0  0  0  0999 V2000
   25.0812  -16.4010    5.2996 C   0  0  0  0  0  0  0  0  0  0  0  0
   24.4374  -15.2294    4.5331 C   0  0  0  0  0  0  0  0  0  0  0  0
   23.5214  -16.2617    3.8325 C   0  0  0  0  0  0  0  0  0  0  0  0
   24.5922  -17.3271    4.1689 C   0  0  0  0  0  0  0  0  0  0  0  0
   22.2252  -16.4810    4.5112 N   0  0  0  0  0  0  0  0  0  0  0  0
   21.1939  -17.1744    3.9042 C   0  0  0  0  0  0  0  0  0  0  0  0
   21.2868  -17.6494    2.7766 O   0  0  0  0  0  0  0  0  0  0  0  0
   19.9438  -17.2915    4.7643 C   0  0  1  0  0  0  0  0  0  0  0  0
   18.7267  -17.5769    3.8947 C   0  0  0  0  0  0  0  0  0  0  0  0
   18.4376  -18.9851    3.9791 O   0  0  0  0  0  0  0  0  0  0  0  0
   19.4628  -19.6002    4.7775 C   0  0  0  0  0  0  0  0  0  0  0  0
   19.9977  -18.4964    5.6900 C   0  0  2  0  0  0  0  0  0  0  0  0
   19.0995  -18.2877    6.8482 N   0  0  0  0  0  0  0  0  0  0  0  0
   22.1035  -16.1856    5.4727 H   0  0  0  0  0  0  0  0  0  0  0  0
   19.5175  -17.5860    7.4615 H   0  0  0  0  0  0  0  0  0  0  0  0
   19.0833  -19.1433    7.4094 H   0  0  0  0  0  0  0  0  0  0  0  0
  1  2  1  0  0  0  0
  1  4  1  0  0  0  0
  2  3  1  0  0  0  0
  3  4  1  0  0  0  0
  3  5  1  0  0  0  0
  5  6  1  0  0  0  0
  5 14  1  0  0  0  0
  6  7  2  0  0  0  0
  8  6  1  6  0  0  0
  8  9  1  0  0  0  0
  8 12  1  0  0  0  0
  9 10  1  0  0  0  0
 10 11  1  0  0  0  0
 11 12  1  0  0  0  0
 12 13  1  1  0  0  0
 13 15  1  0  0  0  0
 13 16  1  0  0  0  0
M  END
>  <CHROM.0>
-48.48981387,-60.14806009,-60.23334240,-52.87414176,-54.83035443,-60.63277281
-60.75229211,-52.24620964,-167.43601625,160.68646058

>  <CHROM.1>
168.00342569,158.86796558,-72.10436683,21.33964261,-17.46963454,4.55189405
-0.11114437,0.40308192,1.66616244

>  <Name>
P133633748

>  <RI>
0

>  <Rbt.Current_Directory>
/home/fstefaniak/projects/zuza/docking/adenine/1Y26

>  <Rbt.Executable>
rbdock ($Id: //depot/dev/client3/rdock/2013.1/src/exe/rbdock.cxx#4 $)

>  <Rbt.Library>
libRbt.so (2013.1, Build901 2013/11/27)

>  <Rbt.Parameter_File>
/home/fstefaniak/progs/rDock//data/scripts/dock_solv.prm

>  <Rbt.Receptor>
1y26.prm

>  <SCORE>
-50.898

>  <SCORE.INTER>
-28.7331

>  <SCORE.INTER.CONST>
1

>  <SCORE.INTER.POLAR>
-2.83271

>  <SCORE.INTER.ROT>
3

>  <SCORE.INTER.SOLV>
14.1978

>  <SCORE.INTER.VDW>
-20.0457

>  <SCORE.INTER.norm>
-2.21024

>  <SCORE.INTRA>
0.12562

>  <SCORE.INTRA.DIHEDRAL>
0.887669

>  <SCORE.INTRA.DIHEDRAL.0>
2.15352

>  <SCORE.INTRA.POLAR>
0

>  <SCORE.INTRA.POLAR.0>
0

>  <SCORE.INTRA.REPUL>
0

>  <SCORE.INTRA.REPUL.0>
0

>  <SCORE.INTRA.SOLV>
-0.109542

>  <SCORE.INTRA.SOLV.lig_0>
-14.0672

>  <SCORE.INTRA.VDW>
-0.263444

>  <SCORE.INTRA.VDW.0>
-0.908363

>  <SCORE.INTRA.norm>
0.00966306

>  <SCORE.RESTR>
0

>  <SCORE.RESTR.CAVITY>
0

>  <SCORE.RESTR.norm>
0

>  <SCORE.SYSTEM>
-22.2904

>  <SCORE.SYSTEM.CONST>
0

>  <SCORE.SYSTEM.DIHEDRAL>
5.60207

>  <SCORE.SYSTEM.POLAR>
-3.46485

>  <SCORE.SYSTEM.SOLV>
0.653804

>  <SCORE.SYSTEM.VDW>
-5.39607

>  <SCORE.SYSTEM.norm>
-1.71465

>  <SCORE.heavy>
13

>  <SCORE.norm>
-3.91523

$$$$
P133633748
 OpenBabel12072022103D
libRbt.so/2013.1/901 2013/11/27
 16 17  0  0  0  0  0  0  0  0999 V2000
   25.0597  -16.4499    5.2939 C   0  0  0  0  0  0  0  0  0  0  0  0
   24.4423  -15.2223    4.5963 C   0  0  0  0  0  0  0  0  0  0  0  0
   23.5054  -16.1924    3.8370 C   0  0  0  0  0  0  0  0  0  0  0  0
   24.5527  -17.2983    4.1113 C   0  0  0  0  0  0  0  0  0  0  0  0
   22.2039  -16.4227    4.5016 N   0  0  0  0  0  0  0  0  0  0  0  0
   21.1916  -17.1406    3.8908 C   0  0  0  0  0  0  0  0  0  0  0  0
   21.3070  -17.6296    2.7713 O   0  0  0  0  0  0  0  0  0  0  0  0
   19.9321  -17.2655    4.7359 C   0  0  1  0  0  0  0  0  0  0  0  0
   18.7261  -17.5510    3.8512 C   0  0  0  0  0  0  0  0  0  0  0  0
   18.4406  -18.9604    3.9261 O   0  0  0  0  0  0  0  0  0  0  0  0
   19.4586  -19.5757    4.7335 C   0  0  0  0  0  0  0  0  0  0  0  0
   19.9793  -18.4743    5.6569 C   0  0  2  0  0  0  0  0  0  0  0  0
   19.0672  -18.2736    6.8057 N   0  0  0  0  0  0  0  0  0  0  0  0
   22.0647  -16.1161    5.4572 H   0  0  0  0  0  0  0  0  0  0  0  0
   19.4984  -17.6096    7.4510 H   0  0  0  0  0  0  0  0  0  0  0  0
   19.0095  -19.1472    7.3355 H   0  0  0  0  0  0  0  0  0  0  0  0
  1  2  1  0  0  0  0
  1  4  1  0  0  0  0
  2  3  1  0  0  0  0
  3  4  1  0  0  0  0
  3  5  1  0  0  0  0
  5  6  1  0  0  0  0
  5 14  1  0  0  0  0
  6  7  2  0  0  0  0
  8  6  1  6  0  0  0
  8  9  1  0  0  0  0
  8 12  1  0  0  0  0
  9 10  1  0  0  0  0
 10 11  1  0  0  0  0
 11 12  1  0  0  0  0
 12 13  1  1  0  0  0
 13 15  1  0  0  0  0
 13 16  1  0  0  0  0
M  END
>  <CHROM.0>
-49.63306031,-62.59129054,-55.70476405,-52.35789762,-173.68940255,-57.82738325
-58.40578258,-50.59141782,-165.68834468,160.85397310

>  <CHROM.1>
172.68864441,157.59854271,-75.01587300,21.32880395,-17.44667714,4.53077734
-0.10105971,0.40392350,1.65764994

>  <Name>
P133633748

>  <RI>
0

>  <Rbt.Current_Directory>
/home/fstefaniak/projects/zuza/docking/adenine/1Y26

>  <Rbt.Executable>
rbdock ($Id: //depot/dev/client3/rdock/2013.1/src/exe/rbdock.cxx#4 $)

>  <Rbt.Library>
libRbt.so (2013.1, Build901 2013/11/27)

>  <Rbt.Parameter_File>
/home/fstefaniak/progs/rDock//data/scripts/dock_solv.prm

>  <Rbt.Receptor>
1y26.prm

>  <SCORE>
-50.8532

>  <SCORE.INTER>
-28.9007

>  <SCORE.INTER.CONST>
1

>  <SCORE.INTER.POLAR>
-2.83846

>  <SCORE.INTER.ROT>
3

>  <SCORE.INTER.SOLV>
14.091

>  <SCORE.INTER.VDW>
-20.1026

>  <SCORE.INTER.norm>
-2.22313

>  <SCORE.INTRA>
0.239101

>  <SCORE.INTRA.DIHEDRAL>
1.09581

>  <SCORE.INTRA.DIHEDRAL.0>
2.15352

>  <SCORE.INTRA.POLAR>
0

>  <SCORE.INTRA.POLAR.0>
0

>  <SCORE.INTRA.REPUL>
0

>  <SCORE.INTRA.REPUL.0>
0

>  <SCORE.INTRA.SOLV>
-0.103263

>  <SCORE.INTRA.SOLV.lig_0>
-14.0672

>  <SCORE.INTRA.VDW>
-0.257172

>  <SCORE.INTRA.VDW.0>
-0.908363

>  <SCORE.INTRA.norm>
0.0183924

>  <SCORE.RESTR>
0

>  <SCORE.RESTR.CAVITY>
0

>  <SCORE.RESTR.norm>
0

>  <SCORE.SYSTEM>
-22.1916

>  <SCORE.SYSTEM.CONST>
0

>  <SCORE.SYSTEM.DIHEDRAL>
6.02594

>  <SCORE.SYSTEM.POLAR>
-3.4978

>  <SCORE.SYSTEM.SOLV>
0.503729

>  <SCORE.SYSTEM.VDW>
-5.31163

>  <SCORE.SYSTEM.norm>
-1.70705

>  <SCORE.heavy>
13

>  <SCORE.norm>
-3.91179

$$$$
P133651182
 OpenBabel12072022103D
libRbt.so/2013.1/901 2013/11/27
 16 16  0  0  0  0  0  0  0  0999 V2000
   23.9223  -15.9424    5.2008 C   0  0  0  0  0  0  0  0  0  0  0  0
   22.8671  -14.9282    4.7408 C   0  0  1  0  0  0  0  0  0  0  0  0
   22.3056  -14.0931    5.8920 C   0  0  0  0  0  0  0  0  0  0  0  0
   21.9748  -12.7887    5.3741 O   0  0  0  0  0  0  0  0  0  0  0  0
   22.3537  -12.7448    3.9872 C   0  0  0  0  0  0  0  0  0  0  0  0
   23.4127  -13.8376    3.8037 C   0  0  1  0  0  0  0  0  0  0  0  0
   24.7387  -13.3209    4.2167 N   0  0  0  0  0  0  0  0  0  0  0  0
   21.7281  -15.6986    4.0436 C   0  0  0  0  0  0  0  0  0  0  0  0
   21.4191  -15.5122    2.8682 O   0  0  0  0  0  0  0  0  0  0  0  0
   21.0801  -16.6381    4.8129 N   0  0  0  0  0  0  0  0  0  0  0  0
   19.9907  -17.4120    4.2692 C   0  0  0  0  0  0  0  0  0  0  0  0
   19.5686  -18.4275    5.2374 C   0  0  0  0  0  0  0  0  0  0  0  0
   19.2236  -19.2601    6.0316 C   0  0  0  0  0  0  0  0  0  0  0  0
   25.4382  -14.0536    4.0756 H   0  0  0  0  0  0  0  0  0  0  0  0
   24.7282  -13.1613    5.2253 H   0  0  0  0  0  0  0  0  0  0  0  0
   21.3235  -16.7768    5.7836 H   0  0  0  0  0  0  0  0  0  0  0  0
  2  1  1  1  0  0  0
  2  3  1  0  0  0  0
  2  8  1  0  0  0  0
  2  6  1  0  0  0  0
  3  4  1  0  0  0  0
  4  5  1  0  0  0  0
  5  6  1  0  0  0  0
  6  7  1  1  0  0  0
  7 14  1  0  0  0  0
  7 15  1  0  0  0  0
  8  9  2  0  0  0  0
  8 10  1  0  0  0  0
 10 11  1  0  0  0  0
 10 16  1  0  0  0  0
 11 12  1  0  0  0  0
 12 13  3  0  0  0  0
M  END
>  <CHROM.0>
-49.74904225,-66.23267061,-51.24697570,-50.58697919,-56.38124567,-55.59277716
-59.32165633,-54.22087673,-167.95601386,158.98113279

>  <CHROM.1>
-119.24532915,69.16357535,174.22652309,-23.90609634,21.95317757,-15.35065068
4.64631517,-0.91789783,0.22323332,2.83819986

>  <Name>
P133651182

>  <RI>
0

>  <Rbt.Current_Directory>
/home/fstefaniak/projects/zuza/docking/adenine/1Y26

>  <Rbt.Executable>
rbdock ($Id: //depot/dev/client3/rdock/2013.1/src/exe/rbdock.cxx#4 $)

>  <Rbt.Library>
libRbt.so (2013.1, Build901 2013/11/27)

>  <Rbt.Parameter_File>
/home/fstefaniak/progs/rDock//data/scripts/dock_solv.prm

>  <Rbt.Receptor>
1y26.prm

>  <SCORE>
-46.3282

>  <SCORE.INTER>
-24.7241

>  <SCORE.INTER.CONST>
1

>  <SCORE.INTER.POLAR>
-3.31336

>  <SCORE.INTER.ROT>
4

>  <SCORE.INTER.SOLV>
10.3727

>  <SCORE.INTER.VDW>
-15.1624

>  <SCORE.INTER.norm>
-1.90185

>  <SCORE.INTRA>
0.0992675

>  <SCORE.INTRA.DIHEDRAL>
0.170709

>  <SCORE.INTRA.DIHEDRAL.0>
1.36138

>  <SCORE.INTRA.POLAR>
0

>  <SCORE.INTRA.POLAR.0>
0

>  <SCORE.INTRA.REPUL>
0

>  <SCORE.INTRA.REPUL.0>
0

>  <SCORE.INTRA.SOLV>
-0.0105343

>  <SCORE.INTRA.SOLV.lig_0>
-14.007

>  <SCORE.INTRA.VDW>
0.0191802

>  <SCORE.INTRA.VDW.0>
-0.3462

>  <SCORE.INTRA.norm>
0.00763596

>  <SCORE.RESTR>
0.302978

>  <SCORE.RESTR.CAVITY>
0.302978

>  <SCORE.RESTR.norm>
0.023306

>  <SCORE.SYSTEM>
-22.0063

>  <SCORE.SYSTEM.CONST>
0

>  <SCORE.SYSTEM.DIHEDRAL>
6.28115

>  <SCORE.SYSTEM.POLAR>
-3.56341

>  <SCORE.SYSTEM.SOLV>
0.674393

>  <SCORE.SYSTEM.VDW>
-5.11137

>  <SCORE.SYSTEM.norm>
-1.69279

>  <SCORE.heavy>
13

>  <SCORE.norm>
-3.5637

$$$$
P133651182
 OpenBabel12072022103D
libRbt.so/2013.1/901 2013/11/27
 16 16  0  0  0  0  0  0  0  0999 V2000
   24.0768  -15.9294    5.1247 C   0  0  0  0  0  0  0  0  0  0  0  0
   22.9707  -14.9504    4.7101 C   0  0  1  0  0  0  0  0  0  0  0  0
   22.4032  -14.1621    5.8909 C   0  0  0  0  0  0  0  0  0  0  0  0
   22.0076  -12.8623    5.4079 O   0  0  0  0  0  0  0  0  0  0  0  0
   22.3514  -12.7754    4.0140 C   0  0  0  0  0  0  0  0  0  0  0  0
   23.4493  -13.8200    3.7837 C   0  0  1  0  0  0  0  0  0  0  0  0
   24.7626  -13.2575    4.1769 N   0  0  0  0  0  0  0  0  0  0  0  0
   21.8477  -15.7530    4.0233 C   0  0  0  0  0  0  0  0  0  0  0  0
   21.4901  -15.5426    2.8659 O   0  0  0  0  0  0  0  0  0  0  0  0
   21.2731  -16.7493    4.7794 N   0  0  0  0  0  0  0  0  0  0  0  0
   20.2051  -17.5580    4.2441 C   0  0  0  0  0  0  0  0  0  0  0  0
   19.5414  -18.2880    5.3274 C   0  0  0  0  0  0  0  0  0  0  0  0
   18.9983  -18.8872    6.2156 C   0  0  0  0  0  0  0  0  0  0  0  0
   25.4912  -13.9469    3.9770 H   0  0  0  0  0  0  0  0  0  0  0  0
   24.7805  -13.1464    5.1918 H   0  0  0  0  0  0  0  0  0  0  0  0
   21.5560  -16.9083    5.7362 H   0  0  0  0  0  0  0  0  0  0  0  0
  2  1  1  1  0  0  0
  2  3  1  0  0  0  0
  2  8  1  0  0  0  0
  2  6  1  0  0  0  0
  3  4  1  0  0  0  0
  4  5  1  0  0  0  0
  5  6  1  0  0  0  0
  6  7  1  1  0  0  0
  7 14  1  0  0  0  0
  7 15  1  0  0  0  0
  8  9  2  0  0  0  0
  8 10  1  0  0  0  0
 10 11  1  0  0  0  0
 10 16  1  0  0  0  0
 11 12  1  0  0  0  0
 12 13  3  0  0  0  0
M  END
>  <CHROM.0>
-49.03036132,-68.11212393,-53.19875981,-52.87394727,56.42635506,-57.20708551
-60.49183895,-54.13603359,-167.25791699,160.42818598

>  <CHROM.1>
-120.36753986,70.94246872,-165.34503595,-71.15843092,22.01685812,-15.34928659
4.65052043,-0.86019097,-0.33999161,-3.02323652

>  <Name>
P133651182

>  <RI>
0

>  <Rbt.Current_Directory>
/home/fstefaniak/projects/zuza/docking/adenine/1Y26

>  <Rbt.Executable>
rbdock ($Id: //depot/dev/client3/rdock/2013.1/src/exe/rbdock.cxx#4 $)

>  <Rbt.Library>
libRbt.so (2013.1, Build901 2013/11/27)

>  <Rbt.Parameter_File>
/home/fstefaniak/progs/rDock//data/scripts/dock_solv.prm

>  <Rbt.Receptor>
1y26.prm

>  <SCORE>
-44.5509

>  <SCORE.INTER>
-24.4383

>  <SCORE.INTER.CONST>
1

>  <SCORE.INTER.POLAR>
-3.17712

>  <SCORE.INTER.ROT>
4

>  <SCORE.INTER.SOLV>
10.2689

>  <SCORE.INTER.VDW>
-15.3914

>  <SCORE.INTER.norm>
-1.87987

>  <SCORE.INTRA>
0.171187

>  <SCORE.INTRA.DIHEDRAL>
0.318927

>  <SCORE.INTRA.DIHEDRAL.0>
1.36138

>  <SCORE.INTRA.POLAR>
0

>  <SCORE.INTRA.POLAR.0>
0

>  <SCORE.INTRA.REPUL>
0

>  <SCORE.INTRA.REPUL.0>
0

>  <SCORE.INTRA.SOLV>
-0.0119239

>  <SCORE.INTRA.SOLV.lig_0>
-14.007

>  <SCORE.INTRA.VDW>
0.0176851

>  <SCORE.INTRA.VDW.0>
-0.3462

>  <SCORE.INTRA.norm>
0.0131682

>  <SCORE.RESTR>
0.37378

>  <SCORE.RESTR.CAVITY>
0.37378

>  <SCORE.RESTR.norm>
0.0287523

>  <SCORE.SYSTEM>
-20.6576

>  <SCORE.SYSTEM.CONST>
0

>  <SCORE.SYSTEM.DIHEDRAL>
5.98108

>  <SCORE.SYSTEM.POLAR>
-3.50227

>  <SCORE.SYSTEM.SOLV>
0.458965

>  <SCORE.SYSTEM.VDW>
-4.24419

>  <SCORE.SYSTEM.norm>
-1.58905

>  <SCORE.heavy>
13

>  <SCORE.norm>
-3.42699

$$$$
P133651182
 OpenBabel12072022103D
libRbt.so/2013.1/901 2013/11/27
 16 16  0  0  0  0  0  0  0  0999 V2000
   23.9466  -15.9291    5.2041 C   0  0  0  0  0  0  0  0  0  0  0  0
   22.8856  -14.9275    4.7298 C   0  0  1  0  0  0  0  0  0  0  0  0
   22.3110  -14.0874    5.8708 C   0  0  0  0  0  0  0  0  0  0  0  0
   21.9723  -12.7902    5.3401 O   0  0  0  0  0  0  0  0  0  0  0  0
   22.3584  -12.7549    3.9549 C   0  0  0  0  0  0  0  0  0  0  0  0
   23.4274  -13.8405    3.7864 C   0  0  1  0  0  0  0  0  0  0  0  0
   24.7467  -13.3093    4.2021 N   0  0  0  0  0  0  0  0  0  0  0  0
   21.7567  -15.7133    4.0331 C   0  0  0  0  0  0  0  0  0  0  0  0
   21.4216  -15.5068    2.8683 O   0  0  0  0  0  0  0  0  0  0  0  0
   21.1497  -16.6899    4.7895 N   0  0  0  0  0  0  0  0  0  0  0  0
   20.0734  -17.4814    4.2452 C   0  0  0  0  0  0  0  0  0  0  0  0
   19.6229  -18.4603    5.2380 C   0  0  0  0  0  0  0  0  0  0  0  0
   19.2525  -19.2622    6.0521 C   0  0  0  0  0  0  0  0  0  0  0  0
   25.4577  -14.0273    4.0432 H   0  0  0  0  0  0  0  0  0  0  0  0
   24.7394  -13.1694    5.2136 H   0  0  0  0  0  0  0  0  0  0  0  0
   21.4144  -16.8454    5.7521 H   0  0  0  0  0  0  0  0  0  0  0  0
  2  1  1  1  0  0  0
  2  3  1  0  0  0  0
  2  8  1  0  0  0  0
  2  6  1  0  0  0  0
  3  4  1  0  0  0  0
  4  5  1  0  0  0  0
  5  6  1  0  0  0  0
  6  7  1  1  0  0  0
  7 14  1  0  0  0  0
  7 15  1  0  0  0  0
  8  9  2  0  0  0  0
  8 10  1  0  0  0  0
 10 11  1  0  0  0  0
 10 16  1  0  0  0  0
 11 12  1  0  0  0  0
 12 13  3  0  0  0  0
M  END
>  <CHROM.0>
60.51995674,-67.31496830,-55.19906862,-51.02876408,-173.44656615,-61.81621830
-58.21010370,63.32786887,-166.68073979,158.78757501

>  <CHROM.1>
-121.85309372,70.94161014,178.91437606,108.57512602,21.97877057,-15.36171358
4.63315100,-0.92479584,0.24330270,2.82282803

>  <Name>
P133651182

>  <RI>
0

>  <Rbt.Current_Directory>
/home/fstefaniak/projects/zuza/docking/adenine/1Y26

>  <Rbt.Executable>
rbdock ($Id: //depot/dev/client3/rdock/2013.1/src/exe/rbdock.cxx#4 $)

>  <Rbt.Library>
libRbt.so (2013.1, Build901 2013/11/27)

>  <Rbt.Parameter_File>
/home/fstefaniak/progs/rDock//data/scripts/dock_solv.prm

>  <Rbt.Receptor>
1y26.prm

>  <SCORE>
-44.5035

>  <SCORE.INTER>
-24.6954

>  <SCORE.INTER.CONST>
1

>  <SCORE.INTER.POLAR>
-3.3122

>  <SCORE.INTER.ROT>
4

>  <SCORE.INTER.SOLV>
10.3633

>  <SCORE.INTER.VDW>
-15.144

>  <SCORE.INTER.norm>
-1.89964

>  <SCORE.INTRA>
0.209574

>  <SCORE.INTRA.DIHEDRAL>
0.261002

>  <SCORE.INTRA.DIHEDRAL.0>
1.36138

>  <SCORE.INTRA.POLAR>
0

>  <SCORE.INTRA.POLAR.0>
0

>  <SCORE.INTRA.REPUL>
0

>  <SCORE.INTRA.REPUL.0>
0

>  <SCORE.INTRA.SOLV>
-0.0177583

>  <SCORE.INTRA.SOLV.lig_0>
-14.007

>  <SCORE.INTRA.VDW>
0.0879521

>  <SCORE.INTRA.VDW.0>
-0.3462

>  <SCORE.INTRA.norm>
0.0161211

>  <SCORE.RESTR>
0.322007

>  <SCORE.RESTR.CAVITY>
0.322007

>  <SCORE.RESTR.norm>
0.0247698

>  <SCORE.SYSTEM>
-20.3397

>  <SCORE.SYSTEM.CONST>
0

>  <SCORE.SYSTEM.DIHEDRAL>
5.70771

>  <SCORE.SYSTEM.POLAR>
-3.27569

>  <SCORE.SYSTEM.SOLV>
0.236891

>  <SCORE.SYSTEM.VDW>
-4.62239

>  <SCORE.SYSTEM.norm>
-1.56459

>  <SCORE.heavy>
13

>  <SCORE.norm>
-3.42335

$$$$
P133654346
 OpenBabel12072022103D
libRbt.so/2013.1/901 2013/11/27
 17 18  0  0  0  0  0  0  0  0999 V2000
   19.7606  -18.2735    6.5458 C   0  0  0  0  0  0  0  0  0  0  0  0
   19.7653  -18.5053    5.0730 C   0  0  1  0  0  0  0  0  0  0  0  0
   19.2240  -17.4637    4.1338 C   0  0  0  0  0  0  0  0  0  0  0  0
   20.7021  -17.7556    4.1595 C   0  0  1  0  0  0  0  0  0  0  0  0
   21.6248  -16.7854    4.6586 N   0  0  0  0  0  0  0  0  0  0  0  0
   21.9771  -15.6636    3.9279 C   0  0  0  0  0  0  0  0  0  0  0  0
   21.4970  -15.4294    2.8185 O   0  0  0  0  0  0  0  0  0  0  0  0
   23.0176  -14.7442    4.5978 C   0  0  2  0  0  0  0  0  0  0  0  0
   22.3660  -14.0293    5.7812 C   0  0  0  0  0  0  0  0  0  0  0  0
   21.7324  -12.8387    5.2745 O   0  0  0  0  0  0  0  0  0  0  0  0
   22.1813  -12.6236    3.9245 C   0  0  0  0  0  0  0  0  0  0  0  0
   23.3948  -13.5321    3.7338 C   0  0  2  0  0  0  0  0  0  0  0  0
   23.7989  -13.8065    2.3563 N   0  0  0  0  0  0  0  0  0  0  0  0
   24.2475  -15.5636    4.9998 C   0  0  0  0  0  0  0  0  0  0  0  0
   22.0288  -16.9457    5.5719 H   0  0  0  0  0  0  0  0  0  0  0  0
   24.8126  -13.7376    2.2718 H   0  0  0  0  0  0  0  0  0  0  0  0
   23.4304  -13.0520    1.7603 H   0  0  0  0  0  0  0  0  0  0  0  0
  2  1  1  1  0  0  0
  2  3  1  0  0  0  0
  2  4  1  0  0  0  0
  3  4  1  0  0  0  0
  4  5  1  1  0  0  0
  5  6  1  0  0  0  0
  5 15  1  0  0  0  0
  6  7  2  0  0  0  0
  8  9  1  0  0  0  0
  8 12  1  0  0  0  0
  8 14  1  1  0  0  0
  8  6  1  0  0  0  0
  9 10  1  0  0  0  0
 10 11  1  0  0  0  0
 11 12  1  0  0  0  0
 12 13  1  6  0  0  0
 13 16  1  0  0  0  0
 13 17  1  0  0  0  0
M  END
>  <CHROM.0>
-51.36328775,-66.75467171,-56.99005425,-51.84948412,-56.64473200,-179.17481994
-61.56492838,-178.49539055,-167.33112038,160.74147659

>  <CHROM.1>
-146.55255799,-71.05426489,-103.15938905,21.82292704,-15.46352800,4.42002594
2.88770753,-0.95555380,-2.13772317

>  <Name>
P133654346

>  <RI>
0

>  <Rbt.Current_Directory>
/home/fstefaniak/projects/zuza/docking/adenine/1Y26

>  <Rbt.Executable>
rbdock ($Id: //depot/dev/client3/rdock/2013.1/src/exe/rbdock.cxx#4 $)

>  <Rbt.Library>
libRbt.so (2013.1, Build901 2013/11/27)

>  <Rbt.Parameter_File>
/home/fstefaniak/progs/rDock//data/scripts/dock_solv.prm

>  <Rbt.Receptor>
1y26.prm

>  <SCORE>
-45.1543

>  <SCORE.INTER>
-24.0017

>  <SCORE.INTER.CONST>
1

>  <SCORE.INTER.POLAR>
-2.723

>  <SCORE.INTER.ROT>
3

>  <SCORE.INTER.SOLV>
11.7197

>  <SCORE.INTER.VDW>
-16.431

>  <SCORE.INTER.norm>
-1.71441

>  <SCORE.INTRA>
1.29841

>  <SCORE.INTRA.DIHEDRAL>
1.73057

>  <SCORE.INTRA.DIHEDRAL.0>
1.44444

>  <SCORE.INTRA.POLAR>
0

>  <SCORE.INTRA.POLAR.0>
0

>  <SCORE.INTRA.REPUL>
0

>  <SCORE.INTRA.REPUL.0>
0

>  <SCORE.INTRA.SOLV>
-0.224176

>  <SCORE.INTRA.SOLV.lig_0>
-12.3174

>  <SCORE.INTRA.VDW>
0.545219

>  <SCORE.INTRA.VDW.0>
-1.45316

>  <SCORE.INTRA.norm>
0.0927438

>  <SCORE.RESTR>
0

>  <SCORE.RESTR.CAVITY>
0

>  <SCORE.RESTR.norm>
0

>  <SCORE.SYSTEM>
-22.451

>  <SCORE.SYSTEM.CONST>
0

>  <SCORE.SYSTEM.DIHEDRAL>
5.34187

>  <SCORE.SYSTEM.POLAR>
-3.42202

>  <SCORE.SYSTEM.SOLV>
0.300201

>  <SCORE.SYSTEM.VDW>
-5.4413

>  <SCORE.SYSTEM.norm>
-1.60364

>  <SCORE.heavy>
14

>  <SCORE.norm>
-3.22531

$$$$
P133654346
 OpenBabel12072022103D
libRbt.so/2013.1/901 2013/11/27
 17 18  0  0  0  0  0  0  0  0999 V2000
   19.7442  -18.2821    6.5433 C   0  0  0  0  0  0  0  0  0  0  0  0
   19.7286  -18.4953    5.0678 C   0  0  1  0  0  0  0  0  0  0  0  0
   19.1720  -17.4431    4.1495 C   0  0  0  0  0  0  0  0  0  0  0  0
   20.6510  -17.7321    4.1508 C   0  0  1  0  0  0  0  0  0  0  0  0
   21.5787  -16.7663    4.6491 N   0  0  0  0  0  0  0  0  0  0  0  0
   21.9629  -15.6648    3.9036 C   0  0  0  0  0  0  0  0  0  0  0  0
   21.5086  -15.4456    2.7804 O   0  0  0  0  0  0  0  0  0  0  0  0
   23.0041  -14.7482    4.5760 C   0  0  2  0  0  0  0  0  0  0  0  0
   22.3542  -14.0388    5.7636 C   0  0  0  0  0  0  0  0  0  0  0  0
   21.7194  -12.8462    5.2633 O   0  0  0  0  0  0  0  0  0  0  0  0
   22.1661  -12.6248    3.9136 C   0  0  0  0  0  0  0  0  0  0  0  0
   23.3797  -13.5320    3.7169 C   0  0  2  0  0  0  0  0  0  0  0  0
   23.7816  -13.8001    2.3376 N   0  0  0  0  0  0  0  0  0  0  0  0
   24.2349  -15.5690    4.9724 C   0  0  0  0  0  0  0  0  0  0  0  0
   21.9620  -16.9144    5.5733 H   0  0  0  0  0  0  0  0  0  0  0  0
   24.7973  -13.8671    2.2790 H   0  0  0  0  0  0  0  0  0  0  0  0
   23.5361  -12.9775    1.7690 H   0  0  0  0  0  0  0  0  0  0  0  0
  2  1  1  1  0  0  0
  2  3  1  0  0  0  0
  2  4  1  0  0  0  0
  3  4  1  0  0  0  0
  4  5  1  1  0  0  0
  5  6  1  0  0  0  0
  5 15  1  0  0  0  0
  6  7  2  0  0  0  0
  8  9  1  0  0  0  0
  8 12  1  0  0  0  0
  8 14  1  1  0  0  0
  8  6  1  0  0  0  0
  9 10  1  0  0  0  0
 10 11  1  0  0  0  0
 11 12  1  0  0  0  0
 12 13  1  6  0  0  0
 13 16  1  0  0  0  0
 13 17  1  0  0  0  0
M  END
>  <CHROM.0>
-47.90784070,-64.38131600,-54.90830474,61.30206169,-53.71121643,-52.24990753
-61.12726761,-173.21284604,-165.66357146,161.77648311

>  <CHROM.1>
-149.42994565,-68.98254574,-94.82303777,21.80223142,-15.46222356,4.40615286
2.89260657,-0.95044492,-2.13901034

>  <Name>
P133654346

>  <RI>
0

>  <Rbt.Current_Directory>
/home/fstefaniak/projects/zuza/docking/adenine/1Y26

>  <Rbt.Executable>
rbdock ($Id: //depot/dev/client3/rdock/2013.1/src/exe/rbdock.cxx#4 $)

>  <Rbt.Library>
libRbt.so (2013.1, Build901 2013/11/27)

>  <Rbt.Parameter_File>
/home/fstefaniak/progs/rDock//data/scripts/dock_solv.prm

>  <Rbt.Receptor>
1y26.prm

>  <SCORE>
-42.3287

>  <SCORE.INTER>
-23.4961

>  <SCORE.INTER.CONST>
1

>  <SCORE.INTER.POLAR>
-2.73236

>  <SCORE.INTER.ROT>
3

>  <SCORE.INTER.SOLV>
11.7047

>  <SCORE.INTER.VDW>
-16.0578

>  <SCORE.INTER.norm>
-1.67829

>  <SCORE.INTRA>
0.868114

>  <SCORE.INTRA.DIHEDRAL>
1.176

>  <SCORE.INTRA.DIHEDRAL.0>
1.44444

>  <SCORE.INTRA.POLAR>
0

>  <SCORE.INTRA.POLAR.0>
0

>  <SCORE.INTRA.REPUL>
0

>  <SCORE.INTRA.REPUL.0>
0

>  <SCORE.INTRA.SOLV>
-0.228773

>  <SCORE.INTRA.SOLV.lig_0>
-12.3174

>  <SCORE.INTRA.VDW>
0.394502

>  <SCORE.INTRA.VDW.0>
-1.45316

>  <SCORE.INTRA.norm>
0.0620081

>  <SCORE.RESTR>
0

>  <SCORE.RESTR.CAVITY>
0

>  <SCORE.RESTR.norm>
0

>  <SCORE.SYSTEM>
-19.7007

>  <SCORE.SYSTEM.CONST>
0

>  <SCORE.SYSTEM.DIHEDRAL>
5.9682

>  <SCORE.SYSTEM.POLAR>
-2.93471

>  <SCORE.SYSTEM.SOLV>
0.398412

>  <SCORE.SYSTEM.VDW>
-5.47366

>  <SCORE.SYSTEM.norm>
-1.4072

>  <SCORE.heavy>
14

>  <SCORE.norm>
-3.02348

$$$$
P133654346
 OpenBabel12072022103D
libRbt.so/2013.1/901 2013/11/27
 17 18  0  0  0  0  0  0  0  0999 V2000
   19.7784  -18.2701    6.5899 C   0  0  0  0  0  0  0  0  0  0  0  0
   19.7686  -18.5044    5.1176 C   0  0  1  0  0  0  0  0  0  0  0  0
   19.1961  -17.4748    4.1837 C   0  0  0  0  0  0  0  0  0  0  0  0
   20.6796  -17.7391    4.1910 C   0  0  1  0  0  0  0  0  0  0  0  0
   21.5904  -16.7511    4.6767 N   0  0  0  0  0  0  0  0  0  0  0  0
   21.9559  -15.6531    3.9169 C   0  0  0  0  0  0  0  0  0  0  0  0
   21.4982  -15.4564    2.7908 O   0  0  0  0  0  0  0  0  0  0  0  0
   22.9810  -14.7099    4.5773 C   0  0  2  0  0  0  0  0  0  0  0  0
   22.3210  -14.0025    5.7606 C   0  0  0  0  0  0  0  0  0  0  0  0
   21.6612  -12.8273    5.2515 O   0  0  0  0  0  0  0  0  0  0  0  0
   22.0992  -12.6096    3.8983 C   0  0  0  0  0  0  0  0  0  0  0  0
   23.3298  -13.4946    3.7059 C   0  0  2  0  0  0  0  0  0  0  0  0
   23.7325  -13.7675    2.3277 N   0  0  0  0  0  0  0  0  0  0  0  0
   24.2289  -15.5026    4.9771 C   0  0  0  0  0  0  0  0  0  0  0  0
   21.9759  -16.8805    5.6028 H   0  0  0  0  0  0  0  0  0  0  0  0
   24.7485  -13.7319    2.2497 H   0  0  0  0  0  0  0  0  0  0  0  0
   23.3932  -12.9945    1.7381 H   0  0  0  0  0  0  0  0  0  0  0  0
  2  1  1  1  0  0  0
  2  3  1  0  0  0  0
  2  4  1  0  0  0  0
  3  4  1  0  0  0  0
  4  5  1  1  0  0  0
  5  6  1  0  0  0  0
  5 15  1  0  0  0  0
  6  7  2  0  0  0  0
  8  9  1  0  0  0  0
  8 12  1  0  0  0  0
  8 14  1  1  0  0  0
  8  6  1  0  0  0  0
  9 10  1  0  0  0  0
 10 11  1  0  0  0  0
 11 12  1  0  0  0  0
 12 13  1  6  0  0  0
 13 16  1  0  0  0  0
 13 17  1  0  0  0  0
M  END
>  <CHROM.0>
-49.70539123,-63.23438233,-52.31956772,61.73415837,-56.76449845,58.41902480
-58.88156486,-176.48026876,-166.91846957,160.99333900

>  <CHROM.1>
-149.33096193,-68.65020829,-99.89437570,21.78932333,-15.44566014,4.41823474
2.88107334,-0.96593207,-2.15859057

>  <Name>
P133654346

>  <RI>
0

>  <Rbt.Current_Directory>
/home/fstefaniak/projects/zuza/docking/adenine/1Y26

>  <Rbt.Executable>
rbdock ($Id: //depot/dev/client3/rdock/2013.1/src/exe/rbdock.cxx#4 $)

>  <Rbt.Library>
libRbt.so (2013.1, Build901 2013/11/27)

>  <Rbt.Parameter_File>
/home/fstefaniak/progs/rDock//data/scripts/dock_solv.prm

>  <Rbt.Receptor>
1y26.prm

>  <SCORE>
-41.7635

>  <SCORE.INTER>
-23.7552

>  <SCORE.INTER.CONST>
1

>  <SCORE.INTER.POLAR>
-2.81758

>  <SCORE.INTER.ROT>
3

>  <SCORE.INTER.SOLV>
11.7955

>  <SCORE.INTER.VDW>
-15.9767

>  <SCORE.INTER.norm>
-1.6968

>  <SCORE.INTRA>
1.0539

>  <SCORE.INTRA.DIHEDRAL>
1.47348

>  <SCORE.INTRA.DIHEDRAL.0>
1.44444

>  <SCORE.INTRA.POLAR>
0

>  <SCORE.INTRA.POLAR.0>
0

>  <SCORE.INTRA.REPUL>
0

>  <SCORE.INTRA.REPUL.0>
0

>  <SCORE.INTRA.SOLV>
-0.224846

>  <SCORE.INTRA.SOLV.lig_0>
-12.3174

>  <SCORE.INTRA.VDW>
0.42958

>  <SCORE.INTRA.VDW.0>
-1.45316

>  <SCORE.INTRA.norm>
0.0752784

>  <SCORE.RESTR>
0

>  <SCORE.RESTR.CAVITY>
0

>  <SCORE.RESTR.norm>
0

>  <SCORE.SYSTEM>
-19.0622

>  <SCORE.SYSTEM.CONST>
0

>  <SCORE.SYSTEM.DIHEDRAL>
5.32424

>  <SCORE.SYSTEM.POLAR>
-2.9145

>  <SCORE.SYSTEM.SOLV>
0.23299

>  <SCORE.SYSTEM.VDW>
-4.84555

>  <SCORE.SYSTEM.norm>
-1.36159

>  <SCORE.heavy>
14

>  <SCORE.norm>
-2.98311

$$$$
P134346401
 OpenBabel12072022103D
libRbt.so/2013.1/901 2013/11/27
 12 12  0  0  0  0  0  0  0  0999 V2000
   21.7602  -15.0666    4.1675 C   0  0  0  0  0  0  0  0  0  0  0  0
   20.8144  -16.0024    4.0086 C   0  0  0  0  0  0  0  0  0  0  0  0
   20.0687  -16.6649    5.1324 C   0  0  0  0  0  0  0  0  0  0  0  0
   20.2018  -18.1299    5.0838 N   0  0  0  0  0  0  0  0  0  0  0  0
   20.0631  -18.7472    6.4269 C   0  0  0  0  0  0  0  0  0  0  0  0
   18.6331  -18.7129    7.0161 C   0  0  0  0  0  0  0  0  0  0  0  0
   17.6298  -19.2993    6.1174 N   0  0  0  0  0  0  0  0  0  0  0  0
   17.7406  -18.7281    4.7632 C   0  0  0  0  0  0  0  0  0  0  0  0
   19.1866  -18.7711    4.1862 C   0  0  1  0  0  0  0  0  0  0  0  0
   19.1813  -18.2577    2.7934 C   0  0  0  0  0  0  0  0  0  0  0  0
   19.1478  -17.8463    1.7072 N   0  0  0  0  0  0  0  0  0  0  0  0
   16.6948  -19.1328    6.4892 H   0  0  0  0  0  0  0  0  0  0  0  0
  1  2  2  0  0  0  0
  2  3  1  0  0  0  0
  3  4  1  0  0  0  0
  4  5  1  0  0  0  0
  4  9  1  0  0  0  0
  5  6  1  0  0  0  0
  6  7  1  0  0  0  0
  7  8  1  0  0  0  0
  7 12  1  0  0  0  0
  8  9  1  0  0  0  0
  9 10  1  6  0  0  0
 10 11  3  0  0  0  0
M  END
>  <CHROM.0>
-47.72439958,-62.07692399,-55.50523860,-50.41255102,-57.83068352,-58.88747937
-58.61103627,-52.00381470,-167.13215321,160.49801065

>  <CHROM.1>
-123.80003313,153.02422733,19.47233553,-17.84760636,4.71796494,-0.67385339
0.78576968,1.70980100

>  <Name>
P134346401

>  <RI>
0

>  <Rbt.Current_Directory>
/home/fstefaniak/projects/zuza/docking/adenine/1Y26

>  <Rbt.Executable>
rbdock ($Id: //depot/dev/client3/rdock/2013.1/src/exe/rbdock.cxx#4 $)

>  <Rbt.Library>
libRbt.so (2013.1, Build901 2013/11/27)

>  <Rbt.Parameter_File>
/home/fstefaniak/progs/rDock//data/scripts/dock_solv.prm

>  <Rbt.Receptor>
1y26.prm

>  <SCORE>
-34.2195

>  <SCORE.INTER>
-11.9847

>  <SCORE.INTER.CONST>
1

>  <SCORE.INTER.POLAR>
-0.945636

>  <SCORE.INTER.ROT>
2

>  <SCORE.INTER.SOLV>
11.9414

>  <SCORE.INTER.VDW>
-13.7515

>  <SCORE.INTER.norm>
-1.08952

>  <SCORE.INTRA>
0.0443483

>  <SCORE.INTRA.DIHEDRAL>
0.825624

>  <SCORE.INTRA.DIHEDRAL.0>
0.173776

>  <SCORE.INTRA.POLAR>
0

>  <SCORE.INTRA.POLAR.0>
0

>  <SCORE.INTRA.REPUL>
0

>  <SCORE.INTRA.REPUL.0>
0

>  <SCORE.INTRA.SOLV>
0.173112

>  <SCORE.INTRA.SOLV.lig_0>
-11.4098

>  <SCORE.INTRA.VDW>
-0.45502

>  <SCORE.INTRA.VDW.0>
-0.148853

>  <SCORE.INTRA.norm>
0.00403167

>  <SCORE.RESTR>
0

>  <SCORE.RESTR.CAVITY>
0

>  <SCORE.RESTR.norm>
0

>  <SCORE.SYSTEM>
-22.2792

>  <SCORE.SYSTEM.CONST>
0

>  <SCORE.SYSTEM.DIHEDRAL>
5.9702

>  <SCORE.SYSTEM.POLAR>
-3.5527

>  <SCORE.SYSTEM.SOLV>
0.671093

>  <SCORE.SYSTEM.VDW>
-5.22423

>  <SCORE.SYSTEM.norm>
-2.02538

>  <SCORE.heavy>
11

>  <SCORE.norm>
-3.11087

$$$$
P134346401
 OpenBabel12072022103D
libRbt.so/2013.1/901 2013/11/27
 12 12  0  0  0  0  0  0  0  0999 V2000
   21.7434  -15.0130    4.1772 C   0  0  0  0  0  0  0  0  0  0  0  0
   20.8658  -16.0091    3.9959 C   0  0  0  0  0  0  0  0  0  0  0  0
   20.0746  -16.6628    5.0935 C   0  0  0  0  0  0  0  0  0  0  0  0
   20.2238  -18.1269    5.0732 N   0  0  0  0  0  0  0  0  0  0  0  0
   20.0848  -18.7203    6.4270 C   0  0  0  0  0  0  0  0  0  0  0  0
   18.6513  -18.6907    7.0082 C   0  0  0  0  0  0  0  0  0  0  0  0
   17.6592  -19.3048    6.1156 N   0  0  0  0  0  0  0  0  0  0  0  0
   17.7709  -18.7580    4.7515 C   0  0  0  0  0  0  0  0  0  0  0  0
   19.2203  -18.7960    4.1827 C   0  0  1  0  0  0  0  0  0  0  0  0
   19.2168  -18.3089    2.7805 C   0  0  0  0  0  0  0  0  0  0  0  0
   19.1845  -17.9185    1.6866 N   0  0  0  0  0  0  0  0  0  0  0  0
   16.7205  -19.1416    6.4795 H   0  0  0  0  0  0  0  0  0  0  0  0
  1  2  2  0  0  0  0
  2  3  1  0  0  0  0
  3  4  1  0  0  0  0
  4  5  1  0  0  0  0
  4  9  1  0  0  0  0
  5  6  1  0  0  0  0
  6  7  1  0  0  0  0
  7  8  1  0  0  0  0
  7 12  1  0  0  0  0
  8  9  1  0  0  0  0
  9 10  1  6  0  0  0
 10 11  3  0  0  0  0
M  END
>  <CHROM.0>
-52.66741059,-61.28163553,-55.20078462,-52.30108573,-57.78825898,-58.79192602
-55.21068094,-52.30690730,-167.08936827,160.76358792

>  <CHROM.1>
-127.46347922,150.62308075,19.49631509,-17.85442694,4.70790428,-0.64617737
0.80285835,1.68384203

>  <Name>
P134346401

>  <RI>
0

>  <Rbt.Current_Directory>
/home/fstefaniak/projects/zuza/docking/adenine/1Y26

>  <Rbt.Executable>
rbdock ($Id: //depot/dev/client3/rdock/2013.1/src/exe/rbdock.cxx#4 $)

>  <Rbt.Library>
libRbt.so (2013.1, Build901 2013/11/27)

>  <Rbt.Parameter_File>
/home/fstefaniak/progs/rDock//data/scripts/dock_solv.prm

>  <Rbt.Receptor>
1y26.prm

>  <SCORE>
-34.2126

>  <SCORE.INTER>
-12.0603

>  <SCORE.INTER.CONST>
1

>  <SCORE.INTER.POLAR>
-0.932764

>  <SCORE.INTER.ROT>
2

>  <SCORE.INTER.SOLV>
11.8992

>  <SCORE.INTER.VDW>
-13.8307

>  <SCORE.INTER.norm>
-1.09639

>  <SCORE.INTRA>
0.102007

>  <SCORE.INTRA.DIHEDRAL>
1.05819

>  <SCORE.INTRA.DIHEDRAL.0>
0.173776

>  <SCORE.INTRA.POLAR>
0

>  <SCORE.INTRA.POLAR.0>
0

>  <SCORE.INTRA.REPUL>
0

>  <SCORE.INTRA.REPUL.0>
0

>  <SCORE.INTRA.SOLV>
0.161717

>  <SCORE.INTRA.SOLV.lig_0>
-11.4098

>  <SCORE.INTRA.VDW>
-0.507944

>  <SCORE.INTRA.VDW.0>
-0.148853

>  <SCORE.INTRA.norm>
0.00927335

>  <SCORE.RESTR>
0

>  <SCORE.RESTR.CAVITY>
0

>  <SCORE.RESTR.norm>
0

>  <SCORE.SYSTEM>
-22.2544

>  <SCORE.SYSTEM.CONST>
0

>  <SCORE.SYSTEM.DIHEDRAL>
5.42307

>  <SCORE.SYSTEM.POLAR>
-3.45166

>  <SCORE.SYSTEM.SOLV>
0.671296

>  <SCORE.SYSTEM.VDW>
-5.36215

>  <SCORE.SYSTEM.norm>
-2.02312

>  <SCORE.heavy>
11

>  <SCORE.norm>
-3.11024

$$$$
P134346401
 OpenBabel12072022103D
libRbt.so/2013.1/901 2013/11/27
 12 12  0  0  0  0  0  0  0  0999 V2000
   21.7957  -15.0792    4.1714 C   0  0  0  0  0  0  0  0  0  0  0  0
   20.8127  -15.9730    3.9972 C   0  0  0  0  0  0  0  0  0  0  0  0
   20.0599  -16.6449    5.1106 C   0  0  0  0  0  0  0  0  0  0  0  0
   20.2333  -18.1062    5.0796 N   0  0  0  0  0  0  0  0  0  0  0  0
   20.0988  -18.7124    6.4281 C   0  0  0  0  0  0  0  0  0  0  0  0
   18.6629  -18.7108    7.0039 C   0  0  0  0  0  0  0  0  0  0  0  0
   17.6845  -19.3342    6.1027 N   0  0  0  0  0  0  0  0  0  0  0  0
   17.7924  -18.7750    4.7433 C   0  0  0  0  0  0  0  0  0  0  0  0
   19.2444  -18.7847    4.1800 C   0  0  1  0  0  0  0  0  0  0  0  0
   19.2382  -18.2868    2.7816 C   0  0  0  0  0  0  0  0  0  0  0  0
   19.2037  -17.8884    1.6906 N   0  0  0  0  0  0  0  0  0  0  0  0
   16.7418  -19.1893    6.4641 H   0  0  0  0  0  0  0  0  0  0  0  0
  1  2  2  0  0  0  0
  2  3  1  0  0  0  0
  3  4  1  0  0  0  0
  4  5  1  0  0  0  0
  4  9  1  0  0  0  0
  5  6  1  0  0  0  0
  6  7  1  0  0  0  0
  7  8  1  0  0  0  0
  7 12  1  0  0  0  0
  8  9  1  0  0  0  0
  9 10  1  6  0  0  0
 10 11  3  0  0  0  0
M  END
>  <CHROM.0>
-50.84540320,-61.44855853,-56.51079388,-54.32784548,-175.96449584,-62.60487507
-59.08274358,-51.45217543,-167.04791134,160.41236199

>  <CHROM.1>
-118.82169594,152.26107206,19.50852040,-17.85411797,4.70751941,-0.65842764
0.80040882,1.69313808

>  <Name>
P134346401

>  <RI>
0

>  <Rbt.Current_Directory>
/home/fstefaniak/projects/zuza/docking/adenine/1Y26

>  <Rbt.Executable>
rbdock ($Id: //depot/dev/client3/rdock/2013.1/src/exe/rbdock.cxx#4 $)

>  <Rbt.Library>
libRbt.so (2013.1, Build901 2013/11/27)

>  <Rbt.Parameter_File>
/home/fstefaniak/progs/rDock//data/scripts/dock_solv.prm

>  <Rbt.Receptor>
1y26.prm

>  <SCORE>
-34.1809

>  <SCORE.INTER>
-11.951

>  <SCORE.INTER.CONST>
1

>  <SCORE.INTER.POLAR>
-0.942347

>  <SCORE.INTER.ROT>
2

>  <SCORE.INTER.SOLV>
11.9244

>  <SCORE.INTER.VDW>
-13.7343

>  <SCORE.INTER.norm>
-1.08646

>  <SCORE.INTRA>
0.0299999

>  <SCORE.INTRA.DIHEDRAL>
0.846194

>  <SCORE.INTRA.DIHEDRAL.0>
0.173776

>  <SCORE.INTRA.POLAR>
0

>  <SCORE.INTRA.POLAR.0>
0

>  <SCORE.INTRA.REPUL>
0

>  <SCORE.INTRA.REPUL.0>
0

>  <SCORE.INTRA.SOLV>
0.173928

>  <SCORE.INTRA.SOLV.lig_0>
-11.4098

>  <SCORE.INTRA.VDW>
-0.480061

>  <SCORE.INTRA.VDW.0>
-0.148853

>  <SCORE.INTRA.norm>
0.00272726

>  <SCORE.RESTR>
0

>  <SCORE.RESTR.CAVITY>
0

>  <SCORE.RESTR.norm>
0

>  <SCORE.SYSTEM>
-22.2598

>  <SCORE.SYSTEM.CONST>
0

>  <SCORE.SYSTEM.DIHEDRAL>
5.48307

>  <SCORE.SYSTEM.POLAR>
-3.43121

>  <SCORE.SYSTEM.SOLV>
0.487858

>  <SCORE.SYSTEM.VDW>
-5.39285

>  <SCORE.SYSTEM.norm>
-2.02362

>  <SCORE.heavy>
11

>  <SCORE.norm>
-3.10735

$$$$
P134378955
 OpenBabel12072022103D
libRbt.so/2013.1/901 2013/11/27
 14 14  0  0  0  0  0  0  0  0999 V2000
   23.6786  -16.0005    4.1688 C   0  0  0  0  0  0  0  0  0  0  0  0
   22.2046  -15.7238    4.4489 C   0  0  1  0  0  0  0  0  0  0  0  0
   22.0212  -14.2254    4.7639 C   0  0  0  0  0  0  0  0  0  0  0  0
   21.5299  -13.4372    3.9568 O   0  0  0  0  0  0  0  0  0  0  0  0
   22.4860  -13.8415    6.0044 N   0  0  0  0  0  0  0  0  0  0  0  0
   22.3367  -12.4827    6.4608 C   0  0  0  0  0  0  0  0  0  0  0  0
   21.4134  -16.0859    3.2556 N   0  0  0  0  0  0  0  0  0  0  0  0
   20.4473  -17.0713    3.5589 N   0  0  0  0  0  0  0  0  0  0  0  0
   19.8662  -17.8808    2.6259 C   0  0  0  0  0  0  0  0  0  0  0  0
   18.9694  -18.7025    3.2749 C   0  0  0  0  0  0  0  0  0  0  0  0
   19.0068  -18.3594    4.6489 C   0  0  0  0  0  0  0  0  0  0  0  0
   19.9207  -17.3356    4.7906 C   0  0  0  0  0  0  0  0  0  0  0  0
   22.7062  -14.5556    6.6868 H   0  0  0  0  0  0  0  0  0  0  0  0
   20.9654  -15.2321    2.9109 H   0  0  0  0  0  0  0  0  0  0  0  0
  2  1  1  6  0  0  0
  2  3  1  0  0  0  0
  2  7  1  0  0  0  0
  3  4  2  0  0  0  0
  3  5  1  0  0  0  0
  5  6  1  0  0  0  0
  5 13  1  0  0  0  0
  7  8  1  0  0  0  0
  7 14  1  0  0  0  0
  8  9  1  0  0  0  0
  8 12  1  0  0  0  0
  9 10  2  0  0  0  0
 10 11  1  0  0  0  0
 11 12  2  0  0  0  0
M  END
>  <CHROM.0>
-52.73220082,-173.98016825,-60.42711570,-52.24315726,-174.17752271,-60.54926591
-58.00779796,-50.72556890,-167.79226963,160.46604425

>  <CHROM.1>
104.92788390,121.12128545,-159.21384658,21.21617658,-15.83690637,4.34898297
-0.96210330,-0.47914888,-2.44630009

>  <Name>
P134378955

>  <RI>
0

>  <Rbt.Current_Directory>
/home/fstefaniak/projects/zuza/docking/adenine/1Y26

>  <Rbt.Executable>
rbdock ($Id: //depot/dev/client3/rdock/2013.1/src/exe/rbdock.cxx#4 $)

>  <Rbt.Library>
libRbt.so (2013.1, Build901 2013/11/27)

>  <Rbt.Parameter_File>
/home/fstefaniak/progs/rDock//data/scripts/dock_solv.prm

>  <Rbt.Receptor>
1y26.prm

>  <SCORE>
-45.3766

>  <SCORE.INTER>
-24.7047

>  <SCORE.INTER.CONST>
1

>  <SCORE.INTER.POLAR>
-2.47711

>  <SCORE.INTER.ROT>
3

>  <SCORE.INTER.SOLV>
11.9245

>  <SCORE.INTER.VDW>
-17.7876

>  <SCORE.INTER.norm>
-2.05873

>  <SCORE.INTRA>
1.67318

>  <SCORE.INTRA.DIHEDRAL>
0.972072

>  <SCORE.INTRA.DIHEDRAL.0>
3.19132

>  <SCORE.INTRA.POLAR>
0

>  <SCORE.INTRA.POLAR.0>
0

>  <SCORE.INTRA.REPUL>
0

>  <SCORE.INTRA.REPUL.0>
0

>  <SCORE.INTRA.SOLV>
-0.262024

>  <SCORE.INTRA.SOLV.lig_0>
-15.864

>  <SCORE.INTRA.VDW>
1.31815

>  <SCORE.INTRA.VDW.0>
-1.3474

>  <SCORE.INTRA.norm>
0.139431

>  <SCORE.RESTR>
0

>  <SCORE.RESTR.CAVITY>
0

>  <SCORE.RESTR.norm>
0

>  <SCORE.SYSTEM>
-22.345

>  <SCORE.SYSTEM.CONST>
0

>  <SCORE.SYSTEM.DIHEDRAL>
5.60014

>  <SCORE.SYSTEM.POLAR>
-3.4247

>  <SCORE.SYSTEM.SOLV>
0.430312

>  <SCORE.SYSTEM.VDW>
-5.4912

>  <SCORE.SYSTEM.norm>
-1.86209

>  <SCORE.heavy>
12

>  <SCORE.norm>
-3.78138

$$$$
P134378955
 OpenBabel12072022103D
libRbt.so/2013.1/901 2013/11/27
 14 14  0  0  0  0  0  0  0  0999 V2000
   23.5756  -16.0659    4.2068 C   0  0  0  0  0  0  0  0  0  0  0  0
   22.1228  -15.7756    4.5710 C   0  0  1  0  0  0  0  0  0  0  0  0
   21.9512  -14.2606    4.8019 C   0  0  0  0  0  0  0  0  0  0  0  0
   21.4219  -13.5227    3.9715 O   0  0  0  0  0  0  0  0  0  0  0  0
   22.4716  -13.8019    5.9940 N   0  0  0  0  0  0  0  0  0  0  0  0
   22.3408  -12.4176    6.3728 C   0  0  0  0  0  0  0  0  0  0  0  0
   21.2530  -16.2155    3.4615 N   0  0  0  0  0  0  0  0  0  0  0  0
   20.2784  -17.1366    3.9064 N   0  0  0  0  0  0  0  0  0  0  0  0
   19.1452  -17.4425    3.2094 C   0  0  0  0  0  0  0  0  0  0  0  0
   18.4268  -18.3597    3.9466 C   0  0  0  0  0  0  0  0  0  0  0  0
   19.1542  -18.5999    5.1383 C   0  0  0  0  0  0  0  0  0  0  0  0
   20.2888  -17.8164    5.0906 C   0  0  0  0  0  0  0  0  0  0  0  0
   22.7243  -14.4731    6.7080 H   0  0  0  0  0  0  0  0  0  0  0  0
   20.8103  -15.3811    3.0662 H   0  0  0  0  0  0  0  0  0  0  0  0
  2  1  1  6  0  0  0
  2  3  1  0  0  0  0
  2  7  1  0  0  0  0
  3  4  2  0  0  0  0
  3  5  1  0  0  0  0
  5  6  1  0  0  0  0
  5 13  1  0  0  0  0
  7  8  1  0  0  0  0
  7 14  1  0  0  0  0
  8  9  1  0  0  0  0
  8 12  1  0  0  0  0
  9 10  2  0  0  0  0
 10 11  1  0  0  0  0
 11 12  2  0  0  0  0
M  END
>  <CHROM.0>
-49.61034901,-78.17849890,-52.31416325,-52.64678296,-53.78946661,-57.86499437
-60.12168499,-171.64396457,-167.86703025,161.14928975

>  <CHROM.1>
103.52388541,123.77923529,162.25083005,21.09770054,-15.86042348,4.56389798
-0.96064642,-0.25370697,-2.69853987

>  <Name>
P134378955

>  <RI>
0

>  <Rbt.Current_Directory>
/home/fstefaniak/projects/zuza/docking/adenine/1Y26

>  <Rbt.Executable>
rbdock ($Id: //depot/dev/client3/rdock/2013.1/src/exe/rbdock.cxx#4 $)

>  <Rbt.Library>
libRbt.so (2013.1, Build901 2013/11/27)

>  <Rbt.Parameter_File>
/home/fstefaniak/progs/rDock//data/scripts/dock_solv.prm

>  <Rbt.Receptor>
1y26.prm

>  <SCORE>
-45.318

>  <SCORE.INTER>
-25.2883

>  <SCORE.INTER.CONST>
1

>  <SCORE.INTER.POLAR>
-2.23108

>  <SCORE.INTER.ROT>
3

>  <SCORE.INTER.SOLV>
12.1081

>  <SCORE.INTER.VDW>
-19.058

>  <SCORE.INTER.norm>
-2.10736

>  <SCORE.INTRA>
1.96671

>  <SCORE.INTRA.DIHEDRAL>
1.06793

>  <SCORE.INTRA.DIHEDRAL.0>
3.19132

>  <SCORE.INTRA.POLAR>
0

>  <SCORE.INTRA.POLAR.0>
0

>  <SCORE.INTRA.REPUL>
0

>  <SCORE.INTRA.REPUL.0>
0

>  <SCORE.INTRA.SOLV>
-0.290049

>  <SCORE.INTRA.SOLV.lig_0>
-15.864

>  <SCORE.INTRA.VDW>
1.57777

>  <SCORE.INTRA.VDW.0>
-1.3474

>  <SCORE.INTRA.norm>
0.163892

>  <SCORE.RESTR>
0

>  <SCORE.RESTR.CAVITY>
0

>  <SCORE.RESTR.norm>
0

>  <SCORE.SYSTEM>
-21.9964

>  <SCORE.SYSTEM.CONST>
0

>  <SCORE.SYSTEM.DIHEDRAL>
7.24125

>  <SCORE.SYSTEM.POLAR>
-3.45621

>  <SCORE.SYSTEM.SOLV>
0.446118

>  <SCORE.SYSTEM.VDW>
-5.70603

>  <SCORE.SYSTEM.norm>
-1.83303

>  <SCORE.heavy>
12

>  <SCORE.norm>
-3.7765

$$$$
P134378955
 OpenBabel12072022103D
libRbt.so/2013.1/901 2013/11/27
 14 14  0  0  0  0  0  0  0  0999 V2000
   23.5876  -16.0055    4.1101 C   0  0  0  0  0  0  0  0  0  0  0  0
   22.1508  -15.7529    4.5565 C   0  0  1  0  0  0  0  0  0  0  0  0
   21.9620  -14.2468    4.8286 C   0  0  0  0  0  0  0  0  0  0  0  0
   21.4186  -13.4938    4.0214 O   0  0  0  0  0  0  0  0  0  0  0  0
   22.4842  -13.8135    6.0295 N   0  0  0  0  0  0  0  0  0  0  0  0
   22.3388  -12.4415    6.4458 C   0  0  0  0  0  0  0  0  0  0  0  0
   21.2320  -16.1879    3.4852 N   0  0  0  0  0  0  0  0  0  0  0  0
   20.2736  -17.1053    3.9709 N   0  0  0  0  0  0  0  0  0  0  0  0
   19.2505  -17.6074    3.2194 C   0  0  0  0  0  0  0  0  0  0  0  0
   18.5119  -18.4545    4.0179 C   0  0  0  0  0  0  0  0  0  0  0  0
   19.1106  -18.4464    5.3019 C   0  0  0  0  0  0  0  0  0  0  0  0
   20.1905  -17.5897    5.2449 C   0  0  0  0  0  0  0  0  0  0  0  0
   22.7496  -14.5003    6.7238 H   0  0  0  0  0  0  0  0  0  0  0  0
   20.7763  -15.3512    3.1100 H   0  0  0  0  0  0  0  0  0  0  0  0
  2  1  1  6  0  0  0
  2  3  1  0  0  0  0
  2  7  1  0  0  0  0
  3  4  2  0  0  0  0
  3  5  1  0  0  0  0
  5  6  1  0  0  0  0
  5 13  1  0  0  0  0
  7  8  1  0  0  0  0
  7 14  1  0  0  0  0
  8  9  1  0  0  0  0
  8 12  1  0  0  0  0
  9 10  2  0  0  0  0
 10 11  1  0  0  0  0
 11 12  2  0  0  0  0
M  END
>  <CHROM.0>
-51.51375559,-73.45287287,-59.04102633,-52.36015417,-54.95604430,-174.70545601
-58.51414186,-53.89931611,-166.39179290,159.94471173

>  <CHROM.1>
100.78234797,125.67619798,175.77894786,21.10383473,-15.83826772,4.60909982
-0.86603413,-0.53673384,-2.46930327

>  <Name>
P134378955

>  <RI>
0

>  <Rbt.Current_Directory>
/home/fstefaniak/projects/zuza/docking/adenine/1Y26

>  <Rbt.Executable>
rbdock ($Id: //depot/dev/client3/rdock/2013.1/src/exe/rbdock.cxx#4 $)

>  <Rbt.Library>
libRbt.so (2013.1, Build901 2013/11/27)

>  <Rbt.Parameter_File>
/home/fstefaniak/progs/rDock//data/scripts/dock_solv.prm

>  <Rbt.Receptor>
1y26.prm

>  <SCORE>
-44.8766

>  <SCORE.INTER>
-25.1548

>  <SCORE.INTER.CONST>
1

>  <SCORE.INTER.POLAR>
-2.16771

>  <SCORE.INTER.ROT>
3

>  <SCORE.INTER.SOLV>
12.0602

>  <SCORE.INTER.VDW>
-19.1642

>  <SCORE.INTER.norm>
-2.09623

>  <SCORE.INTRA>
2.04928

>  <SCORE.INTRA.DIHEDRAL>
1.09814

>  <SCORE.INTRA.DIHEDRAL.0>
3.19132

>  <SCORE.INTRA.POLAR>
0

>  <SCORE.INTRA.POLAR.0>
0

>  <SCORE.INTRA.REPUL>
0

>  <SCORE.INTRA.REPUL.0>
0

>  <SCORE.INTRA.SOLV>
-0.268851

>  <SCORE.INTRA.SOLV.lig_0>
-15.864

>  <SCORE.INTRA.VDW>
1.63464

>  <SCORE.INTRA.VDW.0>
-1.3474

>  <SCORE.INTRA.norm>
0.170774

>  <SCORE.RESTR>
0

>  <SCORE.RESTR.CAVITY>
0

>  <SCORE.RESTR.norm>
0

>  <SCORE.SYSTEM>
-21.7711

>  <SCORE.SYSTEM.CONST>
0

>  <SCORE.SYSTEM.DIHEDRAL>
6.43716

>  <SCORE.SYSTEM.POLAR>
-3.45147

>  <SCORE.SYSTEM.SOLV>
0.505412

>  <SCORE.SYSTEM.VDW>
-5.32335

>  <SCORE.SYSTEM.norm>
-1.81426

>  <SCORE.heavy>
12

>  <SCORE.norm>
-3.73971

$$$$
P134486215
 OpenBabel12072022103D
libRbt.so/2013.1/901 2013/11/27
  9  8  0  0  0  0  0  0  0  0999 V2000
   20.6940  -16.9633    4.2382 C   0  0  0  0  0  0  0  0  0  0  0  0
   19.3826  -17.6613    4.5998 C   0  0  1  0  0  0  0  0  0  0  0  0
   18.7691  -18.2566    3.3429 C   0  0  0  0  0  0  0  0  0  0  0  0
   18.2601  -18.7504    2.3003 N   0  0  0  0  0  0  0  0  0  0  0  0
   19.5850  -18.7698    5.6410 C   0  0  2  0  0  0  0  0  0  0  0  0
   18.3347  -19.6328    5.7888 C   0  0  0  0  0  0  0  0  0  0  0  0
   17.2041  -19.1492    5.8019 O   0  0  0  0  0  0  0  0  0  0  0  0
   19.9031  -18.1878    6.9079 O   0  0  0  0  0  0  0  0  0  0  0  0
   19.0920  -17.7351    7.2230 H   0  0  0  0  0  0  0  0  0  0  0  0
  2  1  1  6  0  0  0
  2  3  1  0  0  0  0
  3  4  3  0  0  0  0
  5  6  1  1  0  0  0
  5  8  1  0  0  0  0
  5  2  1  0  0  0  0
  6  7  2  0  0  0  0
  8  9  1  0  0  0  0
M  END
>  <CHROM.0>
-49.60178074,-171.61454959,-61.13189909,-51.86118750,-179.94140483,-63.63333792
-61.39826606,61.31282759,-167.53199980,160.69859584

>  <CHROM.1>
-41.20788740,69.10344492,-168.82185661,19.01833694,-18.40668086,4.91009853
-1.59555987,0.59774136,1.74006763

>  <Name>
P134486215

>  <RI>
0

>  <Rbt.Current_Directory>
/home/fstefaniak/projects/zuza/docking/adenine/1Y26

>  <Rbt.Executable>
rbdock ($Id: //depot/dev/client3/rdock/2013.1/src/exe/rbdock.cxx#4 $)

>  <Rbt.Library>
libRbt.so (2013.1, Build901 2013/11/27)

>  <Rbt.Parameter_File>
/home/fstefaniak/progs/rDock//data/scripts/dock_solv.prm

>  <Rbt.Receptor>
1y26.prm

>  <SCORE>
-49.483

>  <SCORE.INTER>
-26.3773

>  <SCORE.INTER.CONST>
1

>  <SCORE.INTER.POLAR>
-3.22

>  <SCORE.INTER.ROT>
2

>  <SCORE.INTER.SOLV>
10.4496

>  <SCORE.INTER.VDW>
-15.2681

>  <SCORE.INTER.norm>
-3.29716

>  <SCORE.INTRA>
-1.62804

>  <SCORE.INTRA.DIHEDRAL>
-1.92867

>  <SCORE.INTRA.DIHEDRAL.0>
5.3869

>  <SCORE.INTRA.POLAR>
0

>  <SCORE.INTRA.POLAR.0>
0

>  <SCORE.INTRA.REPUL>
0

>  <SCORE.INTRA.REPUL.0>
0

>  <SCORE.INTRA.SOLV>
0.178631

>  <SCORE.INTRA.SOLV.lig_0>
-11.8403

>  <SCORE.INTRA.VDW>
-0.753021

>  <SCORE.INTRA.VDW.0>
1.05287

>  <SCORE.INTRA.norm>
-0.203505

>  <SCORE.RESTR>
0

>  <SCORE.RESTR.CAVITY>
0

>  <SCORE.RESTR.norm>
0

>  <SCORE.SYSTEM>
-21.4776

>  <SCORE.SYSTEM.CONST>
0

>  <SCORE.SYSTEM.DIHEDRAL>
5.56286

>  <SCORE.SYSTEM.POLAR>
-3.43198

>  <SCORE.SYSTEM.SOLV>
0.182989

>  <SCORE.SYSTEM.VDW>
-4.79379

>  <SCORE.SYSTEM.norm>
-2.68471

>  <SCORE.heavy>
8

>  <SCORE.norm>
-6.18537

$$$$
P134486215
 OpenBabel12072022103D
libRbt.so/2013.1/901 2013/11/27
  9  8  0  0  0  0  0  0  0  0999 V2000
   21.1884  -16.9259    4.4651 C   0  0  0  0  0  0  0  0  0  0  0  0
   19.7067  -17.2863    4.5770 C   0  0  1  0  0  0  0  0  0  0  0  0
   19.1147  -17.4096    3.1824 C   0  0  0  0  0  0  0  0  0  0  0  0
   18.6235  -17.5119    2.0256 N   0  0  0  0  0  0  0  0  0  0  0  0
   19.4864  -18.5985    5.3408 C   0  0  2  0  0  0  0  0  0  0  0  0
   18.0840  -19.1533    5.1056 C   0  0  0  0  0  0  0  0  0  0  0  0
   17.1534  -18.9275    5.8772 O   0  0  0  0  0  0  0  0  0  0  0  0
   19.6721  -18.3771    6.7413 O   0  0  0  0  0  0  0  0  0  0  0  0
   18.8508  -17.9552    7.0725 H   0  0  0  0  0  0  0  0  0  0  0  0
  2  1  1  6  0  0  0
  2  3  1  0  0  0  0
  3  4  3  0  0  0  0
  5  6  1  1  0  0  0
  5  8  1  0  0  0  0
  5  2  1  0  0  0  0
  6  7  2  0  0  0  0
  8  9  1  0  0  0  0
M  END
>  <CHROM.0>
-50.44967906,-162.72756937,-55.55925580,-52.83971899,-56.98309919,-177.21165127
-62.98286998,-52.67818549,-166.26296735,160.97054228

>  <CHROM.1>
-95.04877173,78.70824703,-163.57234461,19.12085526,-18.03771251,4.75913434
-1.17643629,0.43447352,1.87360809

>  <Name>
P134486215

>  <RI>
0

>  <Rbt.Current_Directory>
/home/fstefaniak/projects/zuza/docking/adenine/1Y26

>  <Rbt.Executable>
rbdock ($Id: //depot/dev/client3/rdock/2013.1/src/exe/rbdock.cxx#4 $)

>  <Rbt.Library>
libRbt.so (2013.1, Build901 2013/11/27)

>  <Rbt.Parameter_File>
/home/fstefaniak/progs/rDock//data/scripts/dock_solv.prm

>  <Rbt.Receptor>
1y26.prm

>  <SCORE>
-48.3212

>  <SCORE.INTER>
-25.3595

>  <SCORE.INTER.CONST>
1

>  <SCORE.INTER.POLAR>
-3.32782

>  <SCORE.INTER.ROT>
2

>  <SCORE.INTER.SOLV>
10.0138

>  <SCORE.INTER.VDW>
-14.0849

>  <SCORE.INTER.norm>
-3.16994

>  <SCORE.INTRA>
-1.16416

>  <SCORE.INTRA.DIHEDRAL>
-1.39174

>  <SCORE.INTRA.DIHEDRAL.0>
5.3869

>  <SCORE.INTRA.POLAR>
0

>  <SCORE.INTRA.POLAR.0>
0

>  <SCORE.INTRA.REPUL>
0

>  <SCORE.INTRA.REPUL.0>
0

>  <SCORE.INTRA.SOLV>
0.0433356

>  <SCORE.INTRA.SOLV.lig_0>
-11.8403

>  <SCORE.INTRA.VDW>
-0.489955

>  <SCORE.INTRA.VDW.0>
1.05287

>  <SCORE.INTRA.norm>
-0.14552

>  <SCORE.RESTR>
0

>  <SCORE.RESTR.CAVITY>
0

>  <SCORE.RESTR.norm>
0

>  <SCORE.SYSTEM>
-21.7975

>  <SCORE.SYSTEM.CONST>
0

>  <SCORE.SYSTEM.DIHEDRAL>
6.89304

>  <SCORE.SYSTEM.POLAR>
-3.45889

>  <SCORE.SYSTEM.SOLV>
0.446314

>  <SCORE.SYSTEM.VDW>
-5.44851

>  <SCORE.SYSTEM.norm>
-2.72469

>  <SCORE.heavy>
8

>  <SCORE.norm>
-6.04015

$$$$
P134486215
 OpenBabel12072022103D
libRbt.so/2013.1/901 2013/11/27
  9  8  0  0  0  0  0  0  0  0999 V2000
   20.6552  -16.9232    4.0386 C   0  0  0  0  0  0  0  0  0  0  0  0
   19.3519  -17.5684    4.5105 C   0  0  1  0  0  0  0  0  0  0  0  0
   18.6912  -18.2771    3.3393 C   0  0  0  0  0  0  0  0  0  0  0  0
   18.1431  -18.8651    2.3678 N   0  0  0  0  0  0  0  0  0  0  0  0
   19.5817  -18.5719    5.6481 C   0  0  2  0  0  0  0  0  0  0  0  0
   18.3634  -19.4671    5.8582 C   0  0  0  0  0  0  0  0  0  0  0  0
   17.2142  -19.0347    5.7886 O   0  0  0  0  0  0  0  0  0  0  0  0
   19.8589  -17.8683    6.8618 O   0  0  0  0  0  0  0  0  0  0  0  0
   20.6545  -17.3192    6.6951 H   0  0  0  0  0  0  0  0  0  0  0  0
  2  1  1  6  0  0  0
  2  3  1  0  0  0  0
  3  4  3  0  0  0  0
  5  6  1  1  0  0  0
  5  8  1  0  0  0  0
  5  2  1  0  0  0  0
  6  7  2  0  0  0  0
  8  9  1  0  0  0  0
M  END
>  <CHROM.0>
-49.92884839,60.31084121,-55.53524204,-52.95821490,-176.05204926,-60.51024366
-60.73823067,-176.78254388,-167.34584059,160.65074335

>  <CHROM.1>
-39.67515912,-58.75257332,-164.94694256,18.99892099,-18.30007097,4.87695318
-1.73119066,0.61097340,1.68604379

>  <Name>
P134486215

>  <RI>
0

>  <Rbt.Current_Directory>
/home/fstefaniak/projects/zuza/docking/adenine/1Y26

>  <Rbt.Executable>
rbdock ($Id: //depot/dev/client3/rdock/2013.1/src/exe/rbdock.cxx#4 $)

>  <Rbt.Library>
libRbt.so (2013.1, Build901 2013/11/27)

>  <Rbt.Parameter_File>
/home/fstefaniak/progs/rDock//data/scripts/dock_solv.prm

>  <Rbt.Receptor>
1y26.prm

>  <SCORE>
-48.2805

>  <SCORE.INTER>
-24.6449

>  <SCORE.INTER.CONST>
1

>  <SCORE.INTER.POLAR>
-2.81322

>  <SCORE.INTER.ROT>
2

>  <SCORE.INTER.SOLV>
10.4282

>  <SCORE.INTER.VDW>
-15.4619

>  <SCORE.INTER.norm>
-3.08061

>  <SCORE.INTRA>
-1.56214

>  <SCORE.INTRA.DIHEDRAL>
-2.1181

>  <SCORE.INTRA.DIHEDRAL.0>
5.3869

>  <SCORE.INTRA.POLAR>
0

>  <SCORE.INTRA.POLAR.0>
0

>  <SCORE.INTRA.REPUL>
0

>  <SCORE.INTRA.REPUL.0>
0

>  <SCORE.INTRA.SOLV>
0.148139

>  <SCORE.INTRA.SOLV.lig_0>
-11.8403

>  <SCORE.INTRA.VDW>
-0.577165

>  <SCORE.INTRA.VDW.0>
1.05287

>  <SCORE.INTRA.norm>
-0.195268

>  <SCORE.RESTR>
0

>  <SCORE.RESTR.CAVITY>
0

>  <SCORE.RESTR.norm>
0

>  <SCORE.SYSTEM>
-22.0734

>  <SCORE.SYSTEM.CONST>
0

>  <SCORE.SYSTEM.DIHEDRAL>
5.28526

>  <SCORE.SYSTEM.POLAR>
-3.43533

>  <SCORE.SYSTEM.SOLV>
0.321424

>  <SCORE.SYSTEM.VDW>
-5.13342

>  <SCORE.SYSTEM.norm>
-2.75918

>  <SCORE.heavy>
8

>  <SCORE.norm>
-6.03506

$$$$
P134619762
 OpenBabel12072022103D
libRbt.so/2013.1/901 2013/11/27
 13 13  0  0  0  0  0  0  0  0999 V2000
   18.6689  -18.4804    3.8253 C   0  0  0  0  0  0  0  0  0  0  0  0
   19.7911  -17.8937    4.5383 N   0  0  0  0  0  0  0  0  0  0  0  0
   19.8121  -18.1320    5.9754 C   0  0  0  0  0  0  0  0  0  0  0  0
   20.4840  -16.8717    3.8991 C   0  0  0  0  0  0  0  0  0  0  0  0
   20.1583  -16.4325    2.7979 O   0  0  0  0  0  0  0  0  0  0  0  0
   21.5693  -16.3854    4.5900 N   0  0  0  0  0  0  0  0  0  0  0  0
   22.9030  -16.5346    4.0858 C   0  0  2  0  0  0  0  0  0  0  0  0
   24.0902  -16.4497    5.0057 C   0  0  0  0  0  0  0  0  0  0  0  0
   23.8453  -15.3553    4.0117 C   0  0  1  0  0  0  0  0  0  0  0  0
   24.7437  -15.2003    2.8689 N   0  0  0  0  0  0  0  0  0  0  0  0
   21.4646  -16.3544    5.5924 H   0  0  0  0  0  0  0  0  0  0  0  0
   24.9167  -16.0930    2.4066 H   0  0  0  0  0  0  0  0  0  0  0  0
   25.6570  -14.8632    3.1727 H   0  0  0  0  0  0  0  0  0  0  0  0
  1  2  1  0  0  0  0
  2  3  1  0  0  0  0
  2  4  1  0  0  0  0
  4  5  2  0  0  0  0
  4  6  1  0  0  0  0
  6 11  1  0  0  0  0
  7  8  1  0  0  0  0
  7  9  1  0  0  0  0
  7  6  1  1  0  0  0
  8  9  1  0  0  0  0
  9 10  1  6  0  0  0
 10 12  1  0  0  0  0
 10 13  1  0  0  0  0
M  END
>  <CHROM.0>
-49.02976113,-63.38498069,-56.84256110,-52.76850199,-173.62050004,-176.03286526
-58.35400786,-50.67018051,-165.63597411,162.60632557

>  <CHROM.1>
115.15773926,-158.69920642,-23.10548989,21.59487126,-16.77965025,4.14755146
2.85341482,0.36289883,1.98676427

>  <Name>
P134619762

>  <RI>
0

>  <Rbt.Current_Directory>
/home/fstefaniak/projects/zuza/docking/adenine/1Y26

>  <Rbt.Executable>
rbdock ($Id: //depot/dev/client3/rdock/2013.1/src/exe/rbdock.cxx#4 $)

>  <Rbt.Library>
libRbt.so (2013.1, Build901 2013/11/27)

>  <Rbt.Parameter_File>
/home/fstefaniak/progs/rDock//data/scripts/dock_solv.prm

>  <Rbt.Receptor>
1y26.prm

>  <SCORE>
-54.1852

>  <SCORE.INTER>
-32.3498

>  <SCORE.INTER.CONST>
1

>  <SCORE.INTER.POLAR>
-4.52476

>  <SCORE.INTER.ROT>
3

>  <SCORE.INTER.SOLV>
11.1579

>  <SCORE.INTER.VDW>
-15.8033

>  <SCORE.INTER.norm>
-3.23498

>  <SCORE.INTRA>
0.0394207

>  <SCORE.INTRA.DIHEDRAL>
-0.279581

>  <SCORE.INTRA.DIHEDRAL.0>
2.97979

>  <SCORE.INTRA.POLAR>
0

>  <SCORE.INTRA.POLAR.0>
0

>  <SCORE.INTRA.REPUL>
0

>  <SCORE.INTRA.REPUL.0>
0

>  <SCORE.INTRA.SOLV>
-0.103408

>  <SCORE.INTRA.SOLV.lig_0>
-14.5147

>  <SCORE.INTRA.VDW>
0.230915

>  <SCORE.INTRA.VDW.0>
-0.216234

>  <SCORE.INTRA.norm>
0.00394207

>  <SCORE.RESTR>
0

>  <SCORE.RESTR.CAVITY>
0

>  <SCORE.RESTR.norm>
0

>  <SCORE.SYSTEM>
-21.8749

>  <SCORE.SYSTEM.CONST>
0

>  <SCORE.SYSTEM.DIHEDRAL>
5.85168

>  <SCORE.SYSTEM.POLAR>
-3.42812

>  <SCORE.SYSTEM.SOLV>
0.35762

>  <SCORE.SYSTEM.VDW>
-5.22593

>  <SCORE.SYSTEM.norm>
-2.18749

>  <SCORE.heavy>
10

>  <SCORE.norm>
-5.41852

$$$$
P134619762
 OpenBabel12072022103D
libRbt.so/2013.1/901 2013/11/27
 13 13  0  0  0  0  0  0  0  0999 V2000
   19.2700  -18.1666    3.2538 C   0  0  0  0  0  0  0  0  0  0  0  0
   20.2277  -17.5892    4.1820 N   0  0  0  0  0  0  0  0  0  0  0  0
   19.9698  -17.8538    5.5913 C   0  0  0  0  0  0  0  0  0  0  0  0
   21.0248  -16.5534    3.7080 C   0  0  0  0  0  0  0  0  0  0  0  0
   20.9169  -16.0952    2.5722 O   0  0  0  0  0  0  0  0  0  0  0  0
   21.9512  -16.0762    4.6056 N   0  0  0  0  0  0  0  0  0  0  0  0
   23.3471  -16.0277    4.2827 C   0  0  2  0  0  0  0  0  0  0  0  0
   23.9982  -17.1373    3.5031 C   0  0  0  0  0  0  0  0  0  0  0  0
   24.3351  -16.9553    4.9519 C   0  0  1  0  0  0  0  0  0  0  0  0
   25.6608  -16.4701    5.3320 N   0  0  0  0  0  0  0  0  0  0  0  0
   21.7149  -16.2015    5.5778 H   0  0  0  0  0  0  0  0  0  0  0  0
   25.6342  -15.9695    6.2203 H   0  0  0  0  0  0  0  0  0  0  0  0
   26.0088  -15.8005    4.6460 H   0  0  0  0  0  0  0  0  0  0  0  0
  1  2  1  0  0  0  0
  2  3  1  0  0  0  0
  2  4  1  0  0  0  0
  4  5  2  0  0  0  0
  4  6  1  0  0  0  0
  6 11  1  0  0  0  0
  7  8  1  0  0  0  0
  7  9  1  0  0  0  0
  7  6  1  1  0  0  0
  8  9  1  0  0  0  0
  9 10  1  6  0  0  0
 10 12  1  0  0  0  0
 10 13  1  0  0  0  0
M  END
>  <CHROM.0>
-50.94140821,-61.65130902,-53.27344430,-51.77043124,-56.52537092,-58.64229798
-59.74708993,-176.53116594,-167.35464282,161.85002635

>  <CHROM.1>
124.68147799,-38.95259661,81.62585960,22.05964989,-16.88867362,4.20688187
-3.04988188,0.25285170,1.98044746

>  <Name>
P134619762

>  <RI>
0

>  <Rbt.Current_Directory>
/home/fstefaniak/projects/zuza/docking/adenine/1Y26

>  <Rbt.Executable>
rbdock ($Id: //depot/dev/client3/rdock/2013.1/src/exe/rbdock.cxx#4 $)

>  <Rbt.Library>
libRbt.so (2013.1, Build901 2013/11/27)

>  <Rbt.Parameter_File>
/home/fstefaniak/progs/rDock//data/scripts/dock_solv.prm

>  <Rbt.Receptor>
1y26.prm

>  <SCORE>
-52.5779

>  <SCORE.INTER>
-30.723

>  <SCORE.INTER.CONST>
1

>  <SCORE.INTER.POLAR>
-4.26052

>  <SCORE.INTER.ROT>
3

>  <SCORE.INTER.SOLV>
12.8316

>  <SCORE.INTER.VDW>
-16.1575

>  <SCORE.INTER.norm>
-3.0723

>  <SCORE.INTRA>
0.778142

>  <SCORE.INTRA.DIHEDRAL>
-0.0581861

>  <SCORE.INTRA.DIHEDRAL.0>
2.97979

>  <SCORE.INTRA.POLAR>
0

>  <SCORE.INTRA.POLAR.0>
0

>  <SCORE.INTRA.REPUL>
0

>  <SCORE.INTRA.REPUL.0>
0

>  <SCORE.INTRA.SOLV>
0.172471

>  <SCORE.INTRA.SOLV.lig_0>
-14.5147

>  <SCORE.INTRA.VDW>
0.720999

>  <SCORE.INTRA.VDW.0>
-0.216234

>  <SCORE.INTRA.norm>
0.0778142

>  <SCORE.RESTR>
0

>  <SCORE.RESTR.CAVITY>
0

>  <SCORE.RESTR.norm>
0

>  <SCORE.SYSTEM>
-22.633

>  <SCORE.SYSTEM.CONST>
0

>  <SCORE.SYSTEM.DIHEDRAL>
5.22986

>  <SCORE.SYSTEM.POLAR>
-3.42545

>  <SCORE.SYSTEM.SOLV>
0.458808

>  <SCORE.SYSTEM.VDW>
-5.56674

>  <SCORE.SYSTEM.norm>
-2.2633

>  <SCORE.heavy>
10

>  <SCORE.norm>
-5.25779

$$$$
P134619762
 OpenBabel12072022103D
libRbt.so/2013.1/901 2013/11/27
 13 13  0  0  0  0  0  0  0  0999 V2000
   18.7102  -18.4334    3.7698 C   0  0  0  0  0  0  0  0  0  0  0  0
   19.8452  -17.9193    4.5177 N   0  0  0  0  0  0  0  0  0  0  0  0
   19.8229  -18.1863    5.9498 C   0  0  0  0  0  0  0  0  0  0  0  0
   20.6031  -16.9222    3.9141 C   0  0  0  0  0  0  0  0  0  0  0  0
   20.3242  -16.4455    2.8157 O   0  0  0  0  0  0  0  0  0  0  0  0
   21.6965  -16.5060    4.6371 N   0  0  0  0  0  0  0  0  0  0  0  0
   23.0224  -16.5857    4.0976 C   0  0  2  0  0  0  0  0  0  0  0  0
   24.2275  -16.4463    4.9870 C   0  0  0  0  0  0  0  0  0  0  0  0
   23.9025  -15.3603    4.0068 C   0  0  1  0  0  0  0  0  0  0  0  0
   24.7619  -15.1548    2.8421 N   0  0  0  0  0  0  0  0  0  0  0  0
   21.6090  -16.5878    5.6383 H   0  0  0  0  0  0  0  0  0  0  0  0
   24.9331  -16.0293    2.3458 H   0  0  0  0  0  0  0  0  0  0  0  0
   25.6794  -14.8135    3.1281 H   0  0  0  0  0  0  0  0  0  0  0  0
  1  2  1  0  0  0  0
  2  3  1  0  0  0  0
  2  4  1  0  0  0  0
  4  5  2  0  0  0  0
  4  6  1  0  0  0  0
  6 11  1  0  0  0  0
  7  8  1  0  0  0  0
  7  9  1  0  0  0  0
  7  6  1  1  0  0  0
  8  9  1  0  0  0  0
  9 10  1  6  0  0  0
 10 12  1  0  0  0  0
 10 13  1  0  0  0  0
M  END
>  <CHROM.0>
-53.10592606,-62.42373119,-56.67725290,59.68844069,-59.17941088,-58.96018036
-58.74291905,-51.83742216,-167.41158415,160.50459359

>  <CHROM.1>
121.79791544,-165.24392166,-20.57037454,21.67917962,-16.80155553,4.14063359
2.84990846,0.36561180,1.98945024

>  <Name>
P134619762

>  <RI>
0

>  <Rbt.Current_Directory>
/home/fstefaniak/projects/zuza/docking/adenine/1Y26

>  <Rbt.Executable>
rbdock ($Id: //depot/dev/client3/rdock/2013.1/src/exe/rbdock.cxx#4 $)

>  <Rbt.Library>
libRbt.so (2013.1, Build901 2013/11/27)

>  <Rbt.Parameter_File>
/home/fstefaniak/progs/rDock//data/scripts/dock_solv.prm

>  <Rbt.Receptor>
1y26.prm

>  <SCORE>
-51.8843

>  <SCORE.INTER>
-32.7521

>  <SCORE.INTER.CONST>
1

>  <SCORE.INTER.POLAR>
-4.46895

>  <SCORE.INTER.ROT>
3

>  <SCORE.INTER.SOLV>
11.1871

>  <SCORE.INTER.VDW>
-16.2672

>  <SCORE.INTER.norm>
-3.27521

>  <SCORE.INTRA>
0.381742

>  <SCORE.INTRA.DIHEDRAL>
-0.247938

>  <SCORE.INTRA.DIHEDRAL.0>
2.97979

>  <SCORE.INTRA.POLAR>
0

>  <SCORE.INTRA.POLAR.0>
0

>  <SCORE.INTRA.REPUL>
0

>  <SCORE.INTRA.REPUL.0>
0

>  <SCORE.INTRA.SOLV>
-0.0890257

>  <SCORE.INTRA.SOLV.lig_0>
-14.5147

>  <SCORE.INTRA.VDW>
0.550224

>  <SCORE.INTRA.VDW.0>
-0.216234

>  <SCORE.INTRA.norm>
0.0381742

>  <SCORE.RESTR>
0

>  <SCORE.RESTR.CAVITY>
0

>  <SCORE.RESTR.norm>
0

>  <SCORE.SYSTEM>
-19.514

>  <SCORE.SYSTEM.CONST>
0

>  <SCORE.SYSTEM.DIHEDRAL>
5.00517

>  <SCORE.SYSTEM.POLAR>
-2.87264

>  <SCORE.SYSTEM.SOLV>
0.599303

>  <SCORE.SYSTEM.VDW>
-5.30203

>  <SCORE.SYSTEM.norm>
-1.9514

>  <SCORE.heavy>
10

>  <SCORE.norm>
-5.18843

$$$$
P134782587
 OpenBabel12072022103D
libRbt.so/2013.1/901 2013/11/27
 18 18  0  0  0  0  0  0  0  0999 V2000
   19.9669  -18.3035    4.4729 C   0  0  0  0  0  0  0  0  0  0  0  0
   18.7970  -18.6974    3.5638 C   0  0  0  0  0  0  0  0  0  0  0  0
   19.0346  -17.9366    2.2709 C   0  0  1  0  0  0  0  0  0  0  0  0
   20.5489  -17.8947    2.1546 C   0  0  0  0  0  0  0  0  0  0  0  0
   20.9928  -17.5717    3.5887 C   0  0  1  0  0  0  0  0  0  0  0  0
   20.9587  -16.0670    3.8525 C   0  0  0  0  0  0  0  0  0  0  0  0
   19.8856  -15.4584    3.8647 O   0  0  0  0  0  0  0  0  0  0  0  0
   22.1205  -15.3981    4.1445 N   0  0  0  0  0  0  0  0  0  0  0  0
   23.3710  -15.9068    4.3880 C   0  0  0  0  0  0  0  0  0  0  0  0
   23.6954  -17.0832    4.3325 O   0  0  0  0  0  0  0  0  0  0  0  0
   24.2705  -14.9509    4.7447 N   0  0  0  0  0  0  0  0  0  0  0  0
   18.4336  -18.6399    1.1222 N   0  3  0  0  0  0  0  0  0  0  0  0
   18.9249  -19.5143    0.8946 H   0  0  0  0  0  0  0  0  0  0  0  0
   17.4494  -18.8755    1.3064 H   0  0  0  0  0  0  0  0  0  0  0  0
   18.4487  -18.0464    0.2818 H   0  0  0  0  0  0  0  0  0  0  0  0
   21.9866  -14.4224    4.3623 H   0  0  0  0  0  0  0  0  0  0  0  0
   25.1801  -14.9256    4.3045 H   0  0  0  0  0  0  0  0  0  0  0  0
   24.2897  -14.7550    5.7409 H   0  0  0  0  0  0  0  0  0  0  0  0
  1  2  1  0  0  0  0
  1  5  1  0  0  0  0
  2  3  1  0  0  0  0
  3  4  1  0  0  0  0
  3 12  1  6  0  0  0
  4  5  1  0  0  0  0
  5  6  1  6  0  0  0
  6  7  2  0  0  0  0
  6  8  1  0  0  0  0
  8  9  1  0  0  0  0
  8 16  1  0  0  0  0
  9 10  2  0  0  0  0
  9 11  1  0  0  0  0
 11 17  1  0  0  0  0
 11 18  1  0  0  0  0
 12 13  1  0  0  0  0
 12 14  1  0  0  0  0
 12 15  1  0  0  0  0
M  CHG  1  12   1
M  END
>  <CHROM.0>
-46.45414388,-170.22801318,-55.72446331,-49.30323257,-59.96276913,-62.14605579
-61.34180639,-175.34753074,-166.98328678,163.91725481

>  <CHROM.1>
-69.56348693,-48.86968852,-132.53063027,21.00995234,-16.98239575,3.52260241
-2.53547644,-0.26718984,0.31543863

>  <Name>
P134782587

>  <RI>
0

>  <Rbt.Current_Directory>
/home/fstefaniak/projects/zuza/docking/adenine/1Y26

>  <Rbt.Executable>
rbdock ($Id: //depot/dev/client3/rdock/2013.1/src/exe/rbdock.cxx#4 $)

>  <Rbt.Library>
libRbt.so (2013.1, Build901 2013/11/27)

>  <Rbt.Parameter_File>
/home/fstefaniak/progs/rDock//data/scripts/dock_solv.prm

>  <Rbt.Receptor>
1y26.prm

>  <SCORE>
-51.8037

>  <SCORE.INTER>
-30.008

>  <SCORE.INTER.CONST>
1

>  <SCORE.INTER.POLAR>
-4.63532

>  <SCORE.INTER.ROT>
2

>  <SCORE.INTER.SOLV>
22.7659

>  <SCORE.INTER.VDW>
-17.0762

>  <SCORE.INTER.norm>
-2.50067

>  <SCORE.INTRA>
0.740302

>  <SCORE.INTRA.DIHEDRAL>
2.67484

>  <SCORE.INTRA.DIHEDRAL.0>
1.79452

>  <SCORE.INTRA.POLAR>
0

>  <SCORE.INTRA.POLAR.0>
0

>  <SCORE.INTRA.REPUL>
0

>  <SCORE.INTRA.REPUL.0>
0

>  <SCORE.INTRA.SOLV>
-0.199061

>  <SCORE.INTRA.SOLV.lig_0>
-40.1875

>  <SCORE.INTRA.VDW>
-0.497586

>  <SCORE.INTRA.VDW.0>
-0.318058

>  <SCORE.INTRA.norm>
0.0616918

>  <SCORE.RESTR>
0

>  <SCORE.RESTR.CAVITY>
0

>  <SCORE.RESTR.norm>
0

>  <SCORE.SYSTEM>
-22.536

>  <SCORE.SYSTEM.CONST>
0

>  <SCORE.SYSTEM.DIHEDRAL>
5.98485

>  <SCORE.SYSTEM.POLAR>
-3.45167

>  <SCORE.SYSTEM.SOLV>
0.385988

>  <SCORE.SYSTEM.VDW>
-5.64204

>  <SCORE.SYSTEM.norm>
-1.878

>  <SCORE.heavy>
12

>  <SCORE.norm>
-4.31698

$$$$
P134782587
 OpenBabel12072022103D
libRbt.so/2013.1/901 2013/11/27
 18 18  0  0  0  0  0  0  0  0999 V2000
   19.9369  -18.2405    4.5231 C   0  0  0  0  0  0  0  0  0  0  0  0
   18.7537  -18.6367    3.6325 C   0  0  0  0  0  0  0  0  0  0  0  0
   18.9895  -17.9049    2.3226 C   0  0  1  0  0  0  0  0  0  0  0  0
   20.5031  -17.8856    2.1921 C   0  0  0  0  0  0  0  0  0  0  0  0
   20.9643  -17.5402    3.6155 C   0  0  1  0  0  0  0  0  0  0  0  0
   20.9525  -16.0302    3.8495 C   0  0  0  0  0  0  0  0  0  0  0  0
   19.8884  -15.4057    3.8495 O   0  0  0  0  0  0  0  0  0  0  0  0
   22.1241  -15.3729    4.1284 N   0  0  0  0  0  0  0  0  0  0  0  0
   23.3670  -15.8951    4.3820 C   0  0  0  0  0  0  0  0  0  0  0  0
   23.6739  -17.0770    4.3498 O   0  0  0  0  0  0  0  0  0  0  0  0
   24.2805  -14.9457    4.7199 N   0  0  0  0  0  0  0  0  0  0  0  0
   18.3689  -18.6228    1.1935 N   0  3  0  0  0  0  0  0  0  0  0  0
   18.4371  -18.1013    0.3097 H   0  0  0  0  0  0  0  0  0  0  0  0
   18.8132  -19.5391    1.0487 H   0  0  0  0  0  0  0  0  0  0  0  0
   17.3714  -18.7976    1.3757 H   0  0  0  0  0  0  0  0  0  0  0  0
   22.0046  -14.3912    4.3268 H   0  0  0  0  0  0  0  0  0  0  0  0
   25.1608  -14.8950    4.2255 H   0  0  0  0  0  0  0  0  0  0  0  0
   24.3603  -14.7888    5.7200 H   0  0  0  0  0  0  0  0  0  0  0  0
  1  2  1  0  0  0  0
  1  5  1  0  0  0  0
  2  3  1  0  0  0  0
  3  4  1  0  0  0  0
  3 12  1  6  0  0  0
  4  5  1  0  0  0  0
  5  6  1  6  0  0  0
  6  7  2  0  0  0  0
  6  8  1  0  0  0  0
  8  9  1  0  0  0  0
  8 16  1  0  0  0  0
  9 10  2  0  0  0  0
  9 11  1  0  0  0  0
 11 17  1  0  0  0  0
 11 18  1  0  0  0  0
 12 13  1  0  0  0  0
 12 14  1  0  0  0  0
 12 15  1  0  0  0  0
M  CHG  1  12   1
M  END
>  <CHROM.0>
-47.96539508,-174.17663736,-59.21737609,-51.04871298,-56.69176241,-62.14868758
-59.97775035,-179.86926016,-167.86268561,161.87323188

>  <CHROM.1>
174.50051209,-49.39143392,-127.44773311,20.98731396,-16.95394053,3.54400142
-2.55554144,-0.27819464,0.27500226

>  <Name>
P134782587

>  <RI>
0

>  <Rbt.Current_Directory>
/home/fstefaniak/projects/zuza/docking/adenine/1Y26

>  <Rbt.Executable>
rbdock ($Id: //depot/dev/client3/rdock/2013.1/src/exe/rbdock.cxx#4 $)

>  <Rbt.Library>
libRbt.so (2013.1, Build901 2013/11/27)

>  <Rbt.Parameter_File>
/home/fstefaniak/progs/rDock//data/scripts/dock_solv.prm

>  <Rbt.Receptor>
1y26.prm

>  <SCORE>
-51.7329

>  <SCORE.INTER>
-29.6255

>  <SCORE.INTER.CONST>
1

>  <SCORE.INTER.POLAR>
-4.34684

>  <SCORE.INTER.ROT>
2

>  <SCORE.INTER.SOLV>
22.7487

>  <SCORE.INTER.VDW>
-17.7771

>  <SCORE.INTER.norm>
-2.46879

>  <SCORE.INTRA>
0.693222

>  <SCORE.INTRA.DIHEDRAL>
2.54778

>  <SCORE.INTRA.DIHEDRAL.0>
1.79452

>  <SCORE.INTRA.POLAR>
0

>  <SCORE.INTRA.POLAR.0>
0

>  <SCORE.INTRA.REPUL>
0

>  <SCORE.INTRA.REPUL.0>
0

>  <SCORE.INTRA.SOLV>
-0.173657

>  <SCORE.INTRA.SOLV.lig_0>
-40.1875

>  <SCORE.INTRA.VDW>
-0.493838

>  <SCORE.INTRA.VDW.0>
-0.318058

>  <SCORE.INTRA.norm>
0.0577685

>  <SCORE.RESTR>
0

>  <SCORE.RESTR.CAVITY>
0

>  <SCORE.RESTR.norm>
0

>  <SCORE.SYSTEM>
-22.8007

>  <SCORE.SYSTEM.CONST>
0

>  <SCORE.SYSTEM.DIHEDRAL>
5.4114

>  <SCORE.SYSTEM.POLAR>
-3.43357

>  <SCORE.SYSTEM.SOLV>
0.387457

>  <SCORE.SYSTEM.VDW>
-5.68815

>  <SCORE.SYSTEM.norm>
-1.90005

>  <SCORE.heavy>
12

>  <SCORE.norm>
-4.31108

$$$$
P134782587
 OpenBabel12072022103D
libRbt.so/2013.1/901 2013/11/27
 18 18  0  0  0  0  0  0  0  0999 V2000
   22.0381  -14.4822    4.0311 C   0  0  0  0  0  0  0  0  0  0  0  0
   23.3450  -14.5192    4.8315 C   0  0  0  0  0  0  0  0  0  0  0  0
   23.5871  -15.9916    5.1151 C   0  0  1  0  0  0  0  0  0  0  0  0
   23.0348  -16.6878    3.8827 C   0  0  0  0  0  0  0  0  0  0  0  0
   21.7232  -15.9327    3.6228 C   0  0  1  0  0  0  0  0  0  0  0  0
   20.5828  -16.4976    4.4685 C   0  0  0  0  0  0  0  0  0  0  0  0
   20.3554  -16.0454    5.5936 O   0  0  0  0  0  0  0  0  0  0  0  0
   19.7630  -17.4677    3.9494 N   0  0  0  0  0  0  0  0  0  0  0  0
   19.7056  -17.9536    2.6679 C   0  0  0  0  0  0  0  0  0  0  0  0
   20.4367  -17.6367    1.7421 O   0  0  0  0  0  0  0  0  0  0  0  0
   18.6962  -18.8471    2.4860 N   0  0  0  0  0  0  0  0  0  0  0  0
   25.0255  -16.2712    5.2825 N   0  3  0  0  0  0  0  0  0  0  0  0
   25.2348  -17.2782    5.2741 H   0  0  0  0  0  0  0  0  0  0  0  0
   25.5772  -15.8331    4.5330 H   0  0  0  0  0  0  0  0  0  0  0  0
   25.3708  -15.8888    6.1731 H   0  0  0  0  0  0  0  0  0  0  0  0
   19.0049  -17.7317    4.5602 H   0  0  0  0  0  0  0  0  0  0  0  0
   18.7851  -19.5721    1.7873 H   0  0  0  0  0  0  0  0  0  0  0  0
   17.7689  -18.4366    2.5377 H   0  0  0  0  0  0  0  0  0  0  0  0
  1  2  1  0  0  0  0
  1  5  1  0  0  0  0
  2  3  1  0  0  0  0
  3  4  1  0  0  0  0
  3 12  1  6  0  0  0
  4  5  1  0  0  0  0
  5  6  1  1  0  0  0
  6  7  2  0  0  0  0
  6  8  1  0  0  0  0
  8  9  1  0  0  0  0
  8 16  1  0  0  0  0
  9 10  2  0  0  0  0
  9 11  1  0  0  0  0
 11 17  1  0  0  0  0
 11 18  1  0  0  0  0
 12 13  1  0  0  0  0
 12 14  1  0  0  0  0
 12 15  1  0  0  0  0
M  CHG  1  12   1
M  END
>  <CHROM.0>
-50.70458793,-174.90587014,-55.87463015,-49.59277646,-175.27395731,-55.49852545
-49.60842110,-47.30878712,-168.09989049,160.54814702

>  <CHROM.1>
-167.71964156,-25.26228538,-151.56702630,21.53299771,-16.55748575,3.97667477
0.64543963,0.05444111,0.79355327

>  <Name>
P134782587

>  <RI>
0

>  <Rbt.Current_Directory>
/home/fstefaniak/projects/zuza/docking/adenine/1Y26

>  <Rbt.Executable>
rbdock ($Id: //depot/dev/client3/rdock/2013.1/src/exe/rbdock.cxx#4 $)

>  <Rbt.Library>
libRbt.so (2013.1, Build901 2013/11/27)

>  <Rbt.Parameter_File>
/home/fstefaniak/progs/rDock//data/scripts/dock_solv.prm

>  <Rbt.Receptor>
1y26.prm

>  <SCORE>
-48.9262

>  <SCORE.INTER>
-27.1779

>  <SCORE.INTER.CONST>
1

>  <SCORE.INTER.POLAR>
-3.83063

>  <SCORE.INTER.ROT>
2

>  <SCORE.INTER.SOLV>
24.3244

>  <SCORE.INTER.VDW>
-18.3913

>  <SCORE.INTER.norm>
-2.26482

>  <SCORE.INTRA>
0.247692

>  <SCORE.INTRA.DIHEDRAL>
1.17981

>  <SCORE.INTRA.DIHEDRAL.0>
1.79452

>  <SCORE.INTRA.POLAR>
0

>  <SCORE.INTRA.POLAR.0>
0

>  <SCORE.INTRA.REPUL>
0

>  <SCORE.INTRA.REPUL.0>
0

>  <SCORE.INTRA.SOLV>
-0.119597

>  <SCORE.INTRA.SOLV.lig_0>
-40.1875

>  <SCORE.INTRA.VDW>
-0.282413

>  <SCORE.INTRA.VDW.0>
-0.318058

>  <SCORE.INTRA.norm>
0.020641

>  <SCORE.RESTR>
0

>  <SCORE.RESTR.CAVITY>
0

>  <SCORE.RESTR.norm>
0

>  <SCORE.SYSTEM>
-21.996

>  <SCORE.SYSTEM.CONST>
0

>  <SCORE.SYSTEM.DIHEDRAL>
6.81033

>  <SCORE.SYSTEM.POLAR>
-3.59029

>  <SCORE.SYSTEM.SOLV>
0.47345

>  <SCORE.SYSTEM.VDW>
-5.12425

>  <SCORE.SYSTEM.norm>
-1.833

>  <SCORE.heavy>
12

>  <SCORE.norm>
-4.07718

$$$$
P134782635
 OpenBabel12072022103D
libRbt.so/2013.1/901 2013/11/27
 18 18  0  0  0  0  0  0  0  0999 V2000
   21.8935  -14.2042    3.9453 C   0  0  0  0  0  0  0  0  0  0  0  0
   21.2158  -15.2019    4.8741 C   0  0  0  0  0  0  0  0  0  0  0  0
   21.9250  -16.5387    4.6016 C   0  0  2  0  0  0  0  0  0  0  0  0
   23.3028  -16.1420    4.0456 C   0  0  1  0  0  0  0  0  0  0  0  0
   23.3532  -14.6165    4.0139 C   0  0  0  0  0  0  0  0  0  0  0  0
   24.3917  -16.6467    4.9209 N   0  3  0  0  0  0  0  0  0  0  0  0
   24.3394  -16.3026    5.8866 H   0  0  0  0  0  0  0  0  0  0  0  0
   24.3129  -17.6866    4.9704 H   0  0  0  0  0  0  0  0  0  0  0  0
   25.3257  -16.4418    4.5477 H   0  0  0  0  0  0  0  0  0  0  0  0
   21.1779  -17.3689    3.5619 C   0  0  0  0  0  0  0  0  0  0  0  0
   21.5822  -17.4808    2.4064 O   0  0  0  0  0  0  0  0  0  0  0  0
   20.0673  -18.0868    3.9470 N   0  0  0  0  0  0  0  0  0  0  0  0
   19.6909  -18.4853    5.2032 C   0  0  0  0  0  0  0  0  0  0  0  0
   20.2776  -18.2002    6.2428 O   0  0  0  0  0  0  0  0  0  0  0  0
   18.5989  -19.2885    5.2068 N   0  0  0  0  0  0  0  0  0  0  0  0
   19.6635  -18.6105    3.1808 H   0  0  0  0  0  0  0  0  0  0  0  0
   18.6916  -20.2967    5.1753 H   0  0  0  0  0  0  0  0  0  0  0  0
   17.7660  -18.9304    4.7506 H   0  0  0  0  0  0  0  0  0  0  0  0
  1  2  1  0  0  0  0
  1  5  1  0  0  0  0
  2  3  1  0  0  0  0
  3 10  1  6  0  0  0
  3  4  1  0  0  0  0
  4  5  1  0  0  0  0
  4  6  1  1  0  0  0
  6  7  1  0  0  0  0
  6  8  1  0  0  0  0
  6  9  1  0  0  0  0
 10 11  2  0  0  0  0
 10 12  1  0  0  0  0
 12 13  1  0  0  0  0
 12 16  1  0  0  0  0
 13 14  2  0  0  0  0
 13 15  1  0  0  0  0
 15 17  1  0  0  0  0
 15 18  1  0  0  0  0
M  CHG  1   6   1
M  END
>  <CHROM.0>
-49.50882829,-168.38739787,-50.01421767,-49.28252652,-52.96236431,-47.59985212
-50.16239122,-45.06971269,-164.38502200,161.18905058

>  <CHROM.1>
104.89075483,-58.81656081,92.29331753,21.46284002,-16.89993820,4.42564025
0.51510322,-0.56287299,-1.00075550

>  <Name>
P134782635

>  <RI>
0

>  <Rbt.Current_Directory>
/home/fstefaniak/projects/zuza/docking/adenine/1Y26

>  <Rbt.Executable>
rbdock ($Id: //depot/dev/client3/rdock/2013.1/src/exe/rbdock.cxx#4 $)

>  <Rbt.Library>
libRbt.so (2013.1, Build901 2013/11/27)

>  <Rbt.Parameter_File>
/home/fstefaniak/progs/rDock//data/scripts/dock_solv.prm

>  <Rbt.Receptor>
1y26.prm

>  <SCORE>
-48.5515

>  <SCORE.INTER>
-28.0893

>  <SCORE.INTER.CONST>
1

>  <SCORE.INTER.POLAR>
-3.9718

>  <SCORE.INTER.ROT>
2

>  <SCORE.INTER.SOLV>
21.4794

>  <SCORE.INTER.VDW>
-17.58

>  <SCORE.INTER.norm>
-2.34078

>  <SCORE.INTRA>
1.01591

>  <SCORE.INTRA.DIHEDRAL>
-0.781864

>  <SCORE.INTRA.DIHEDRAL.0>
2.30794

>  <SCORE.INTRA.POLAR>
0.957875

>  <SCORE.INTRA.POLAR.0>
-0.957875

>  <SCORE.INTRA.REPUL>
0

>  <SCORE.INTRA.REPUL.0>
0

>  <SCORE.INTRA.SOLV>
-3.04053

>  <SCORE.INTRA.SOLV.lig_0>
-36.6402

>  <SCORE.INTRA.VDW>
-0.329668

>  <SCORE.INTRA.VDW.0>
-0.753591

>  <SCORE.INTRA.norm>
0.084659

>  <SCORE.RESTR>
0

>  <SCORE.RESTR.CAVITY>
0

>  <SCORE.RESTR.norm>
0

>  <SCORE.SYSTEM>
-21.4781

>  <SCORE.SYSTEM.CONST>
0

>  <SCORE.SYSTEM.DIHEDRAL>
9.07875

>  <SCORE.SYSTEM.POLAR>
-3.73054

>  <SCORE.SYSTEM.SOLV>
0.652893

>  <SCORE.SYSTEM.VDW>
-5.12747

>  <SCORE.SYSTEM.norm>
-1.78984

>  <SCORE.heavy>
12

>  <SCORE.norm>
-4.04596

$$$$
P134782635
 OpenBabel12072022103D
libRbt.so/2013.1/901 2013/11/27
 18 18  0  0  0  0  0  0  0  0999 V2000
   21.7690  -14.2821    4.0231 C   0  0  0  0  0  0  0  0  0  0  0  0
   21.1156  -15.3878    4.8401 C   0  0  0  0  0  0  0  0  0  0  0  0
   21.9002  -16.6602    4.4799 C   0  0  2  0  0  0  0  0  0  0  0  0
   23.2720  -16.1508    4.0074 C   0  0  1  0  0  0  0  0  0  0  0  0
   23.2452  -14.6276    4.1067 C   0  0  0  0  0  0  0  0  0  0  0  0
   24.3584  -16.6759    4.8738 N   0  3  0  0  0  0  0  0  0  0  0  0
   25.3002  -16.4132    4.5613 H   0  0  0  0  0  0  0  0  0  0  0  0
   24.2371  -16.2706    5.8283 H   0  0  0  0  0  0  0  0  0  0  0  0
   24.3191  -17.6958    4.9822 H   0  0  0  0  0  0  0  0  0  0  0  0
   21.2283  -17.4328    3.3486 C   0  0  0  0  0  0  0  0  0  0  0  0
   21.8323  -17.7409    2.3232 O   0  0  0  0  0  0  0  0  0  0  0  0
   19.9349  -17.8768    3.5135 N   0  0  0  0  0  0  0  0  0  0  0  0
   19.2277  -18.0614    4.6730 C   0  0  0  0  0  0  0  0  0  0  0  0
   19.6306  -17.7893    5.7999 O   0  0  0  0  0  0  0  0  0  0  0  0
   18.0138  -18.6319    4.4761 N   0  0  0  0  0  0  0  0  0  0  0  0
   19.5986  -18.3887    2.7078 H   0  0  0  0  0  0  0  0  0  0  0  0
   17.1951  -18.0664    4.2866 H   0  0  0  0  0  0  0  0  0  0  0  0
   17.8222  -19.4876    4.9871 H   0  0  0  0  0  0  0  0  0  0  0  0
  1  2  1  0  0  0  0
  1  5  1  0  0  0  0
  2  3  1  0  0  0  0
  3 10  1  6  0  0  0
  3  4  1  0  0  0  0
  4  5  1  0  0  0  0
  4  6  1  1  0  0  0
  6  7  1  0  0  0  0
  6  8  1  0  0  0  0
  6  9  1  0  0  0  0
 10 11  2  0  0  0  0
 10 12  1  0  0  0  0
 12 13  1  0  0  0  0
 12 16  1  0  0  0  0
 13 14  2  0  0  0  0
 13 15  1  0  0  0  0
 15 17  1  0  0  0  0
 15 18  1  0  0  0  0
M  CHG  1   6   1
M  END
>  <CHROM.0>
61.53901630,-171.55931627,-52.29792035,-48.79674361,59.67613190,-177.80029032
-62.02046780,-51.71121000,-167.77963223,160.68056180

>  <CHROM.1>
125.55668923,176.19689980,-88.49014844,21.29525597,-16.81353273,4.21862969
0.43513517,0.35271254,0.54828738

>  <Name>
P134782635

>  <RI>
0

>  <Rbt.Current_Directory>
/home/fstefaniak/projects/zuza/docking/adenine/1Y26

>  <Rbt.Executable>
rbdock ($Id: //depot/dev/client3/rdock/2013.1/src/exe/rbdock.cxx#4 $)

>  <Rbt.Library>
libRbt.so (2013.1, Build901 2013/11/27)

>  <Rbt.Parameter_File>
/home/fstefaniak/progs/rDock//data/scripts/dock_solv.prm

>  <Rbt.Receptor>
1y26.prm

>  <SCORE>
-48.3473

>  <SCORE.INTER>
-30.2352

>  <SCORE.INTER.CONST>
1

>  <SCORE.INTER.POLAR>
-4.36813

>  <SCORE.INTER.ROT>
2

>  <SCORE.INTER.SOLV>
20.6619

>  <SCORE.INTER.VDW>
-17.417

>  <SCORE.INTER.norm>
-2.5196

>  <SCORE.INTRA>
1.48986

>  <SCORE.INTRA.DIHEDRAL>
-1.05931

>  <SCORE.INTRA.DIHEDRAL.0>
2.30794

>  <SCORE.INTRA.POLAR>
0.957875

>  <SCORE.INTRA.POLAR.0>
-0.957875

>  <SCORE.INTRA.REPUL>
0

>  <SCORE.INTRA.REPUL.0>
0

>  <SCORE.INTRA.SOLV>
-2.76266

>  <SCORE.INTRA.SOLV.lig_0>
-36.6402

>  <SCORE.INTRA.VDW>
0.14407

>  <SCORE.INTRA.VDW.0>
-0.753591

>  <SCORE.INTRA.norm>
0.124155

>  <SCORE.RESTR>
0

>  <SCORE.RESTR.CAVITY>
0

>  <SCORE.RESTR.norm>
0

>  <SCORE.SYSTEM>
-19.602

>  <SCORE.SYSTEM.CONST>
0

>  <SCORE.SYSTEM.DIHEDRAL>
5.84142

>  <SCORE.SYSTEM.POLAR>
-3.33314

>  <SCORE.SYSTEM.SOLV>
0.2371

>  <SCORE.SYSTEM.VDW>
-3.98369

>  <SCORE.SYSTEM.norm>
-1.6335

>  <SCORE.heavy>
12

>  <SCORE.norm>
-4.02894

$$$$
P134782635
 OpenBabel12072022103D
libRbt.so/2013.1/901 2013/11/27
 18 18  0  0  0  0  0  0  0  0999 V2000
   21.9201  -14.2073    3.9450 C   0  0  0  0  0  0  0  0  0  0  0  0
   21.2149  -15.1978    4.8608 C   0  0  0  0  0  0  0  0  0  0  0  0
   21.8962  -16.5474    4.5809 C   0  0  2  0  0  0  0  0  0  0  0  0
   23.2859  -16.1764    4.0369 C   0  0  1  0  0  0  0  0  0  0  0  0
   23.3699  -14.6521    4.0188 C   0  0  0  0  0  0  0  0  0  0  0  0
   24.3579  -16.7126    4.9143 N   0  3  0  0  0  0  0  0  0  0  0  0
   24.3636  -17.7368    4.9817 H   0  0  0  0  0  0  0  0  0  0  0  0
   25.2789  -16.4353    4.5082 H   0  0  0  0  0  0  0  0  0  0  0  0
   24.3261  -16.3196    5.8620 H   0  0  0  0  0  0  0  0  0  0  0  0
   21.1376  -17.3519    3.5295 C   0  0  0  0  0  0  0  0  0  0  0  0
   21.5526  -17.4726    2.3786 O   0  0  0  0  0  0  0  0  0  0  0  0
   20.0014  -18.0375    3.8985 N   0  0  0  0  0  0  0  0  0  0  0  0
   19.5977  -18.4281    5.1487 C   0  0  0  0  0  0  0  0  0  0  0  0
   20.1797  -18.1636    6.1964 O   0  0  0  0  0  0  0  0  0  0  0  0
   18.4822  -19.1983    5.1362 N   0  0  0  0  0  0  0  0  0  0  0  0
   19.5916  -18.5466    3.1257 H   0  0  0  0  0  0  0  0  0  0  0  0
   18.5444  -20.2087    5.1694 H   0  0  0  0  0  0  0  0  0  0  0  0
   17.6880  -18.8449    4.6124 H   0  0  0  0  0  0  0  0  0  0  0  0
  1  2  1  0  0  0  0
  1  5  1  0  0  0  0
  2  3  1  0  0  0  0
  3 10  1  6  0  0  0
  3  4  1  0  0  0  0
  4  5  1  0  0  0  0
  4  6  1  1  0  0  0
  6  7  1  0  0  0  0
  6  8  1  0  0  0  0
  6  9  1  0  0  0  0
 10 11  2  0  0  0  0
 10 12  1  0  0  0  0
 12 13  1  0  0  0  0
 12 16  1  0  0  0  0
 13 14  2  0  0  0  0
 13 15  1  0  0  0  0
 15 17  1  0  0  0  0
 15 18  1  0  0  0  0
M  CHG  1   6   1
M  END
>  <CHROM.0>
-47.93549784,-172.13503476,-50.96880093,-48.98352659,61.10988577,-53.43474865
-53.09618242,-176.34196025,-165.68174415,161.52711753

>  <CHROM.1>
105.54863860,61.93027299,96.70296983,21.42226762,-16.88963682,4.39804294
0.45126540,-0.57297927,-1.07711814

>  <Name>
P134782635

>  <RI>
0

>  <Rbt.Current_Directory>
/home/fstefaniak/projects/zuza/docking/adenine/1Y26

>  <Rbt.Executable>
rbdock ($Id: //depot/dev/client3/rdock/2013.1/src/exe/rbdock.cxx#4 $)

>  <Rbt.Library>
libRbt.so (2013.1, Build901 2013/11/27)

>  <Rbt.Parameter_File>
/home/fstefaniak/progs/rDock//data/scripts/dock_solv.prm

>  <Rbt.Receptor>
1y26.prm

>  <SCORE>
-47.442

>  <SCORE.INTER>
-27.6519

>  <SCORE.INTER.CONST>
1

>  <SCORE.INTER.POLAR>
-3.80742

>  <SCORE.INTER.ROT>
2

>  <SCORE.INTER.SOLV>
21.2028

>  <SCORE.INTER.VDW>
-17.7442

>  <SCORE.INTER.norm>
-2.30433

>  <SCORE.INTRA>
1.07923

>  <SCORE.INTRA.DIHEDRAL>
-0.818478

>  <SCORE.INTRA.DIHEDRAL.0>
2.30794

>  <SCORE.INTRA.POLAR>
0.957875

>  <SCORE.INTRA.POLAR.0>
-0.957875

>  <SCORE.INTRA.REPUL>
0

>  <SCORE.INTRA.REPUL.0>
0

>  <SCORE.INTRA.SOLV>
-3.09339

>  <SCORE.INTRA.SOLV.lig_0>
-36.6402

>  <SCORE.INTRA.VDW>
-0.221609

>  <SCORE.INTRA.VDW.0>
-0.753591

>  <SCORE.INTRA.norm>
0.089936

>  <SCORE.RESTR>
0

>  <SCORE.RESTR.CAVITY>
0

>  <SCORE.RESTR.norm>
0

>  <SCORE.SYSTEM>
-20.8693

>  <SCORE.SYSTEM.CONST>
0

>  <SCORE.SYSTEM.DIHEDRAL>
6.80803

>  <SCORE.SYSTEM.POLAR>
-3.60242

>  <SCORE.SYSTEM.SOLV>
0.226342

>  <SCORE.SYSTEM.VDW>
-4.24955

>  <SCORE.SYSTEM.norm>
-1.7391

>  <SCORE.heavy>
12

>  <SCORE.norm>
-3.9535

$$$$
P134782687
 OpenBabel12072022103D
libRbt.so/2013.1/901 2013/11/27
 18 18  0  0  0  0  0  0  0  0999 V2000
   19.4586  -16.9145    3.4622 C   0  0  0  0  0  0  0  0  0  0  0  0
   19.2016  -18.3856    3.7461 C   0  0  1  0  0  0  0  0  0  0  0  0
   19.2027  -18.4535    5.2702 C   0  0  0  0  0  0  0  0  0  0  0  0
   20.1809  -17.4121    5.7005 N   0  3  0  0  0  0  0  0  0  0  0  0
   19.8408  -16.8746    6.5073 H   0  0  0  0  0  0  0  0  0  0  0  0
   21.0768  -17.8548    5.9805 H   0  0  0  0  0  0  0  0  0  0  0  0
   20.4883  -16.5035    4.5030 C   0  0  1  0  0  0  0  0  0  0  0  0
   21.9464  -16.7531    4.0613 C   0  0  0  0  0  0  0  0  0  0  0  0
   22.1398  -17.3153    2.9768 O   0  0  0  0  0  0  0  0  0  0  0  0
   22.9972  -16.3991    4.8611 N   0  0  0  0  0  0  0  0  0  0  0  0
   24.1997  -15.9378    4.4076 C   0  0  0  0  0  0  0  0  0  0  0  0
   24.3474  -15.3109    3.3689 O   0  0  0  0  0  0  0  0  0  0  0  0
   25.2432  -16.2467    5.2130 N   0  0  0  0  0  0  0  0  0  0  0  0
   17.9489  -18.7836    3.2271 O   0  0  0  0  0  0  0  0  0  0  0  0
   22.7314  -16.1077    5.7923 H   0  0  0  0  0  0  0  0  0  0  0  0
   25.3734  -15.7915    6.1070 H   0  0  0  0  0  0  0  0  0  0  0  0
   25.5316  -17.2208    5.1960 H   0  0  0  0  0  0  0  0  0  0  0  0
   17.2493  -18.2107    3.5946 H   0  0  0  0  0  0  0  0  0  0  0  0
  1  2  1  0  0  0  0
  1  7  1  0  0  0  0
  2  3  1  0  0  0  0
  2 14  1  1  0  0  0
  3  4  1  0  0  0  0
  4  5  1  0  0  0  0
  4  6  1  0  0  0  0
  4  7  1  0  0  0  0
  7  8  1  6  0  0  0
  8  9  2  0  0  0  0
  8 10  1  0  0  0  0
 10 11  1  0  0  0  0
 10 15  1  0  0  0  0
 11 12  2  0  0  0  0
 11 13  1  0  0  0  0
 13 16  1  0  0  0  0
 13 17  1  0  0  0  0
 14 18  1  0  0  0  0
M  CHG  1   4   1
M  END
>  <CHROM.0>
-47.45573408,-58.12441356,-50.31327087,-56.00927819,-57.12352539,-53.74191740
-55.55175557,-52.07474836,-167.44023735,160.18306602

>  <CHROM.1>
-55.94984556,-4.03175500,-145.19935353,29.44581850,-72.13467400,21.44583139
-17.04857853,4.24362234,-3.12206009,0.38315938,1.68394282

>  <Name>
P134782687

>  <RI>
0

>  <Rbt.Current_Directory>
/home/fstefaniak/projects/zuza/docking/adenine/1Y26

>  <Rbt.Executable>
rbdock ($Id: //depot/dev/client3/rdock/2013.1/src/exe/rbdock.cxx#4 $)

>  <Rbt.Library>
libRbt.so (2013.1, Build901 2013/11/27)

>  <Rbt.Parameter_File>
/home/fstefaniak/progs/rDock//data/scripts/dock_solv.prm

>  <Rbt.Receptor>
1y26.prm

>  <SCORE>
-56.2059

>  <SCORE.INTER>
-34.491

>  <SCORE.INTER.CONST>
1

>  <SCORE.INTER.POLAR>
-4.79271

>  <SCORE.INTER.ROT>
4

>  <SCORE.INTER.SOLV>
25.6634

>  <SCORE.INTER.VDW>
-21.8395

>  <SCORE.INTER.norm>
-2.87425

>  <SCORE.INTRA>
0.294239

>  <SCORE.INTRA.DIHEDRAL>
-0.309101

>  <SCORE.INTRA.DIHEDRAL.0>
2.76127

>  <SCORE.INTRA.POLAR>
0

>  <SCORE.INTRA.POLAR.0>
0

>  <SCORE.INTRA.REPUL>
0

>  <SCORE.INTRA.REPUL.0>
0

>  <SCORE.INTRA.SOLV>
0.366911

>  <SCORE.INTRA.SOLV.lig_0>
-41.0816

>  <SCORE.INTRA.VDW>
0.265334

>  <SCORE.INTRA.VDW.0>
-0.449492

>  <SCORE.INTRA.norm>
0.02452

>  <SCORE.RESTR>
0

>  <SCORE.RESTR.CAVITY>
0

>  <SCORE.RESTR.norm>
0

>  <SCORE.SYSTEM>
-22.0091

>  <SCORE.SYSTEM.CONST>
0

>  <SCORE.SYSTEM.DIHEDRAL>
6.27644

>  <SCORE.SYSTEM.POLAR>
-3.52178

>  <SCORE.SYSTEM.SOLV>
0.687593

>  <SCORE.SYSTEM.VDW>
-5.2548

>  <SCORE.SYSTEM.norm>
-1.83409

>  <SCORE.heavy>
12

>  <SCORE.norm>
-4.68382

$$$$
P134782687
 OpenBabel12072022103D
libRbt.so/2013.1/901 2013/11/27
 18 18  0  0  0  0  0  0  0  0999 V2000
   19.4612  -16.9350    3.3981 C   0  0  0  0  0  0  0  0  0  0  0  0
   19.2761  -18.4228    3.6491 C   0  0  1  0  0  0  0  0  0  0  0  0
   19.2588  -18.5215    5.1714 C   0  0  0  0  0  0  0  0  0  0  0  0
   20.1758  -17.4404    5.6371 N   0  3  0  0  0  0  0  0  0  0  0  0
   19.7969  -16.9375    6.4489 H   0  0  0  0  0  0  0  0  0  0  0  0
   21.0892  -17.8423    5.9222 H   0  0  0  0  0  0  0  0  0  0  0  0
   20.4533  -16.4931    4.4625 C   0  0  1  0  0  0  0  0  0  0  0  0
   21.9285  -16.6588    4.0386 C   0  0  0  0  0  0  0  0  0  0  0  0
   22.1726  -17.3125    3.0174 O   0  0  0  0  0  0  0  0  0  0  0  0
   22.9426  -16.1321    4.7892 N   0  0  0  0  0  0  0  0  0  0  0  0
   24.0049  -15.4383    4.2847 C   0  0  0  0  0  0  0  0  0  0  0  0
   24.0247  -14.9221    3.1771 O   0  0  0  0  0  0  0  0  0  0  0  0
   25.0653  -15.3749    5.1241 N   0  0  0  0  0  0  0  0  0  0  0  0
   18.0532  -18.8737    3.1032 O   0  0  0  0  0  0  0  0  0  0  0  0
   22.6867  -15.9214    5.7445 H   0  0  0  0  0  0  0  0  0  0  0  0
   24.9889  -15.6524    6.0939 H   0  0  0  0  0  0  0  0  0  0  0  0
   25.9663  -15.5809    4.7020 H   0  0  0  0  0  0  0  0  0  0  0  0
   18.0556  -18.7271    2.1383 H   0  0  0  0  0  0  0  0  0  0  0  0
  1  2  1  0  0  0  0
  1  7  1  0  0  0  0
  2  3  1  0  0  0  0
  2 14  1  6  0  0  0
  3  4  1  0  0  0  0
  4  5  1  0  0  0  0
  4  6  1  0  0  0  0
  4  7  1  0  0  0  0
  7  8  1  6  0  0  0
  8  9  2  0  0  0  0
  8 10  1  0  0  0  0
 10 11  1  0  0  0  0
 10 15  1  0  0  0  0
 11 12  2  0  0  0  0
 11 13  1  0  0  0  0
 13 16  1  0  0  0  0
 13 17  1  0  0  0  0
 14 18  1  0  0  0  0
M  CHG  1   4   1
M  END
>  <CHROM.0>
-43.53091477,-60.87026585,-65.61809762,-49.62664984,-56.31799837,-65.99773276
-171.13059090,-50.48920388,-167.69139838,160.53900069

>  <CHROM.1>
60.98234207,-11.56574147,-134.81707182,18.83635268,-11.83874060,21.40720326
-16.89168280,4.15457014,-3.10806922,0.49392018,1.63581446

>  <Name>
P134782687

>  <RI>
0

>  <Rbt.Current_Directory>
/home/fstefaniak/projects/zuza/docking/adenine/1Y26

>  <Rbt.Executable>
rbdock ($Id: //depot/dev/client3/rdock/2013.1/src/exe/rbdock.cxx#4 $)

>  <Rbt.Library>
libRbt.so (2013.1, Build901 2013/11/27)

>  <Rbt.Parameter_File>
/home/fstefaniak/progs/rDock//data/scripts/dock_solv.prm

>  <Rbt.Receptor>
1y26.prm

>  <SCORE>
-55.6743

>  <SCORE.INTER>
-34.3064

>  <SCORE.INTER.CONST>
1

>  <SCORE.INTER.POLAR>
-5.15507

>  <SCORE.INTER.ROT>
4

>  <SCORE.INTER.SOLV>
24.9924

>  <SCORE.INTER.VDW>
-20.2848

>  <SCORE.INTER.norm>
-2.85886

>  <SCORE.INTRA>
-0.174064

>  <SCORE.INTRA.DIHEDRAL>
-0.271401

>  <SCORE.INTRA.DIHEDRAL.0>
2.76127

>  <SCORE.INTRA.POLAR>
0

>  <SCORE.INTRA.POLAR.0>
0

>  <SCORE.INTRA.REPUL>
0

>  <SCORE.INTRA.REPUL.0>
0

>  <SCORE.INTRA.SOLV>
0.157849

>  <SCORE.INTRA.SOLV.lig_0>
-41.0816

>  <SCORE.INTRA.VDW>
-0.117288

>  <SCORE.INTRA.VDW.0>
-0.449492

>  <SCORE.INTRA.norm>
-0.0145053

>  <SCORE.RESTR>
0

>  <SCORE.RESTR.CAVITY>
0

>  <SCORE.RESTR.norm>
0

>  <SCORE.SYSTEM>
-21.1939

>  <SCORE.SYSTEM.CONST>
0

>  <SCORE.SYSTEM.DIHEDRAL>
7.21949

>  <SCORE.SYSTEM.POLAR>
-3.58202

>  <SCORE.SYSTEM.SOLV>
0.604782

>  <SCORE.SYSTEM.VDW>
-4.79729

>  <SCORE.SYSTEM.norm>
-1.76616

>  <SCORE.heavy>
12

>  <SCORE.norm>
-4.63953

$$$$
P134782687
 OpenBabel12072022103D
libRbt.so/2013.1/901 2013/11/27
 18 18  0  0  0  0  0  0  0  0999 V2000
   19.2571  -16.8402    3.5252 C   0  0  0  0  0  0  0  0  0  0  0  0
   19.2204  -18.3546    3.6529 C   0  0  1  0  0  0  0  0  0  0  0  0
   19.3100  -18.5811    5.1590 C   0  0  0  0  0  0  0  0  0  0  0  0
   20.1562  -17.4617    5.6663 N   0  3  0  0  0  0  0  0  0  0  0  0
   19.7876  -17.0658    6.5398 H   0  0  0  0  0  0  0  0  0  0  0  0
   21.1179  -17.7989    5.8624 H   0  0  0  0  0  0  0  0  0  0  0  0
   20.2728  -16.3979    4.5668 C   0  0  1  0  0  0  0  0  0  0  0  0
   21.7266  -16.3892    4.0471 C   0  0  0  0  0  0  0  0  0  0  0  0
   22.0563  -17.2482    3.2207 O   0  0  0  0  0  0  0  0  0  0  0  0
   22.6380  -15.4831    4.5134 N   0  0  0  0  0  0  0  0  0  0  0  0
   23.9307  -15.3881    4.0841 C   0  0  0  0  0  0  0  0  0  0  0  0
   24.2590  -14.9893    2.9764 O   0  0  0  0  0  0  0  0  0  0  0  0
   24.8424  -15.7908    5.0002 N   0  0  0  0  0  0  0  0  0  0  0  0
   18.0094  -18.8706    3.1392 O   0  0  0  0  0  0  0  0  0  0  0  0
   22.2295  -14.6364    4.8860 H   0  0  0  0  0  0  0  0  0  0  0  0
   25.8355  -15.6813    4.8410 H   0  0  0  0  0  0  0  0  0  0  0  0
   24.5617  -15.6795    5.9704 H   0  0  0  0  0  0  0  0  0  0  0  0
   17.2574  -18.4204    3.5687 H   0  0  0  0  0  0  0  0  0  0  0  0
  1  2  1  0  0  0  0
  1  7  1  0  0  0  0
  2  3  1  0  0  0  0
  2 14  1  1  0  0  0
  3  4  1  0  0  0  0
  4  5  1  0  0  0  0
  4  6  1  0  0  0  0
  4  7  1  0  0  0  0
  7  8  1  6  0  0  0
  8  9  2  0  0  0  0
  8 10  1  0  0  0  0
 10 11  1  0  0  0  0
 10 15  1  0  0  0  0
 11 12  2  0  0  0  0
 11 13  1  0  0  0  0
 13 16  1  0  0  0  0
 13 17  1  0  0  0  0
 14 18  1  0  0  0  0
M  CHG  1   4   1
M  END
>  <CHROM.0>
-46.60712184,61.72000160,-61.10289594,-52.52425261,-176.72868052,-170.62068552
-63.56945127,-176.55481596,-166.84232364,159.24494441

>  <CHROM.1>
-53.78212396,-33.91626393,-178.37434398,69.84786925,-173.65582134,21.31062289
-16.82953143,4.13597173,3.10643052,0.48667334,1.67384443

>  <Name>
P134782687

>  <RI>
0

>  <Rbt.Current_Directory>
/home/fstefaniak/projects/zuza/docking/adenine/1Y26

>  <Rbt.Executable>
rbdock ($Id: //depot/dev/client3/rdock/2013.1/src/exe/rbdock.cxx#4 $)

>  <Rbt.Library>
libRbt.so (2013.1, Build901 2013/11/27)

>  <Rbt.Parameter_File>
/home/fstefaniak/progs/rDock//data/scripts/dock_solv.prm

>  <Rbt.Receptor>
1y26.prm

>  <SCORE>
-55.2471

>  <SCORE.INTER>
-33.7599

>  <SCORE.INTER.CONST>
1

>  <SCORE.INTER.POLAR>
-4.71259

>  <SCORE.INTER.ROT>
4

>  <SCORE.INTER.SOLV>
24.532

>  <SCORE.INTER.VDW>
-21.242

>  <SCORE.INTER.norm>
-2.81333

>  <SCORE.INTRA>
0.126913

>  <SCORE.INTRA.DIHEDRAL>
0.750651

>  <SCORE.INTRA.DIHEDRAL.0>
2.76127

>  <SCORE.INTRA.POLAR>
0

>  <SCORE.INTRA.POLAR.0>
0

>  <SCORE.INTRA.REPUL>
0

>  <SCORE.INTRA.REPUL.0>
0

>  <SCORE.INTRA.SOLV>
-0.581272

>  <SCORE.INTRA.SOLV.lig_0>
-41.0816

>  <SCORE.INTRA.VDW>
0.0422239

>  <SCORE.INTRA.VDW.0>
-0.449492

>  <SCORE.INTRA.norm>
0.0105761

>  <SCORE.RESTR>
0

>  <SCORE.RESTR.CAVITY>
0

>  <SCORE.RESTR.norm>
0

>  <SCORE.SYSTEM>
-21.6141

>  <SCORE.SYSTEM.CONST>
0

>  <SCORE.SYSTEM.DIHEDRAL>
6.29477

>  <SCORE.SYSTEM.POLAR>
-3.49205

>  <SCORE.SYSTEM.SOLV>
0.161631

>  <SCORE.SYSTEM.VDW>
-4.92138

>  <SCORE.SYSTEM.norm>
-1.80117

>  <SCORE.heavy>
12

>  <SCORE.norm>
-4.60392

$$$$
P134782778
 OpenBabel12072022103D
libRbt.so/2013.1/901 2013/11/27
 19 19  0  0  0  0  0  0  0  0999 V2000
   22.7512  -13.3922    4.2325 C   0  0  0  0  0  0  0  0  0  0  0  0
   23.7876  -14.4229    4.6743 C   0  0  0  0  0  0  0  0  0  0  0  0
   23.0531  -15.7697    4.7641 C   0  0  1  0  0  0  0  0  0  0  0  0
   21.8422  -15.5811    3.8185 C   0  0  2  0  0  0  0  0  0  0  0  0
   21.4314  -14.1421    4.1228 C   0  0  0  0  0  0  0  0  0  0  0  0
   20.7255  -16.5897    4.0707 C   0  0  0  0  0  0  0  0  0  0  0  0
   20.8734  -17.4838    4.9128 O   0  0  0  0  0  0  0  0  0  0  0  0
   19.6094  -16.5685    3.2821 N   0  0  0  0  0  0  0  0  0  0  0  0
   19.0269  -17.7187    2.8228 C   0  0  0  0  0  0  0  0  0  0  0  0
   18.2371  -18.4187    3.4373 O   0  0  0  0  0  0  0  0  0  0  0  0
   19.4153  -18.0318    1.5580 N   0  0  0  0  0  0  0  0  0  0  0  0
   23.9816  -16.9329    4.4069 C   0  0  0  0  0  0  0  0  0  0  0  0
   25.2122  -16.9006    5.2269 N   0  3  0  0  0  0  0  0  0  0  0  0
   25.9309  -16.2906    4.8197 H   0  0  0  0  0  0  0  0  0  0  0  0
   25.0326  -16.4972    6.1693 H   0  0  0  0  0  0  0  0  0  0  0  0
   25.6226  -17.8308    5.3658 H   0  0  0  0  0  0  0  0  0  0  0  0
   18.9085  -15.9266    3.6264 H   0  0  0  0  0  0  0  0  0  0  0  0
   20.0550  -18.8036    1.4194 H   0  0  0  0  0  0  0  0  0  0  0  0
   18.6617  -18.0024    0.8775 H   0  0  0  0  0  0  0  0  0  0  0  0
  1  2  1  0  0  0  0
  1  5  1  0  0  0  0
  2  3  1  0  0  0  0
  3 12  1  6  0  0  0
  3  4  1  0  0  0  0
  4  5  1  0  0  0  0
  4  6  1  1  0  0  0
  6  7  2  0  0  0  0
  6  8  1  0  0  0  0
  8  9  1  0  0  0  0
  8 17  1  0  0  0  0
  9 10  2  0  0  0  0
  9 11  1  0  0  0  0
 11 18  1  0  0  0  0
 11 19  1  0  0  0  0
 12 13  1  0  0  0  0
 13 14  1  0  0  0  0
 13 15  1  0  0  0  0
 13 16  1  0  0  0  0
M  CHG  1  13   1
M  END
>  <CHROM.0>
-49.29245190,176.23809729,-51.10101821,-53.51047173,-173.62557451,57.80380096
-63.27285261,63.27387588,-166.36464577,160.71682854

>  <CHROM.1>
53.74826282,-3.58901269,138.27205175,83.16931090,106.69234013,-85.42493152
21.54559007,-16.35699183,3.95292500,0.43739144,-0.36729566,-0.00281616

>  <Name>
P134782778

>  <RI>
0

>  <Rbt.Current_Directory>
/home/fstefaniak/projects/zuza/docking/adenine/1Y26

>  <Rbt.Executable>
rbdock ($Id: //depot/dev/client3/rdock/2013.1/src/exe/rbdock.cxx#4 $)

>  <Rbt.Library>
libRbt.so (2013.1, Build901 2013/11/27)

>  <Rbt.Parameter_File>
/home/fstefaniak/progs/rDock//data/scripts/dock_solv.prm

>  <Rbt.Receptor>
1y26.prm

>  <SCORE>
-68.9962

>  <SCORE.INTER>
-49.6743

>  <SCORE.INTER.CONST>
1

>  <SCORE.INTER.POLAR>
-8.24886

>  <SCORE.INTER.ROT>
5

>  <SCORE.INTER.SOLV>
25.9641

>  <SCORE.INTER.VDW>
-21.208

>  <SCORE.INTER.norm>
-3.8211

>  <SCORE.INTRA>
1.27208

>  <SCORE.INTRA.DIHEDRAL>
-0.247651

>  <SCORE.INTRA.DIHEDRAL.0>
3.87105

>  <SCORE.INTRA.POLAR>
0.874571

>  <SCORE.INTRA.POLAR.0>
-0.874571

>  <SCORE.INTRA.REPUL>
0

>  <SCORE.INTRA.REPUL.0>
0

>  <SCORE.INTRA.SOLV>
-2.86667

>  <SCORE.INTRA.SOLV.lig_0>
-36.5463

>  <SCORE.INTRA.VDW>
-0.144302

>  <SCORE.INTRA.VDW.0>
-0.982517

>  <SCORE.INTRA.norm>
0.097852

>  <SCORE.RESTR>
0

>  <SCORE.RESTR.CAVITY>
0

>  <SCORE.RESTR.norm>
0

>  <SCORE.SYSTEM>
-20.5939

>  <SCORE.SYSTEM.CONST>
0

>  <SCORE.SYSTEM.DIHEDRAL>
5.93452

>  <SCORE.SYSTEM.POLAR>
-3.4802

>  <SCORE.SYSTEM.SOLV>
0.051477

>  <SCORE.SYSTEM.VDW>
-4.12395

>  <SCORE.SYSTEM.norm>
-1.58415

>  <SCORE.heavy>
13

>  <SCORE.norm>
-5.3074

$$$$
P134782778
 OpenBabel12072022103D
libRbt.so/2013.1/901 2013/11/27
 19 19  0  0  0  0  0  0  0  0999 V2000
   23.2380  -13.2377    4.1025 C   0  0  0  0  0  0  0  0  0  0  0  0
   24.2064  -14.2686    4.6777 C   0  0  0  0  0  0  0  0  0  0  0  0
   23.4155  -15.5785    4.8204 C   0  0  1  0  0  0  0  0  0  0  0  0
   22.2682  -15.4178    3.7937 C   0  0  2  0  0  0  0  0  0  0  0  0
   21.8979  -13.9467    3.9692 C   0  0  0  0  0  0  0  0  0  0  0  0
   21.1002  -16.3651    4.0513 C   0  0  0  0  0  0  0  0  0  0  0  0
   21.1214  -17.1284    5.0246 O   0  0  0  0  0  0  0  0  0  0  0  0
   20.0859  -16.4457    3.1388 N   0  0  0  0  0  0  0  0  0  0  0  0
   19.4130  -17.6148    2.9074 C   0  0  0  0  0  0  0  0  0  0  0  0
   18.8490  -18.2975    3.7484 O   0  0  0  0  0  0  0  0  0  0  0  0
   19.4189  -17.9698    1.5949 N   0  0  0  0  0  0  0  0  0  0  0  0
   24.3161  -16.7969    4.6030 C   0  0  0  0  0  0  0  0  0  0  0  0
   25.5961  -16.6468    5.3290 N   0  3  0  0  0  0  0  0  0  0  0  0
   26.2934  -16.1318    4.7786 H   0  0  0  0  0  0  0  0  0  0  0  0
   25.4798  -16.0816    6.1952 H   0  0  0  0  0  0  0  0  0  0  0  0
   26.0057  -17.5465    5.6039 H   0  0  0  0  0  0  0  0  0  0  0  0
   19.4403  -15.6713    3.2135 H   0  0  0  0  0  0  0  0  0  0  0  0
   19.9443  -18.7869    1.3114 H   0  0  0  0  0  0  0  0  0  0  0  0
   18.5114  -17.8947    1.1447 H   0  0  0  0  0  0  0  0  0  0  0  0
  1  2  1  0  0  0  0
  1  5  1  0  0  0  0
  2  3  1  0  0  0  0
  3 12  1  6  0  0  0
  3  4  1  0  0  0  0
  4  5  1  0  0  0  0
  4  6  1  1  0  0  0
  6  7  2  0  0  0  0
  6  8  1  0  0  0  0
  8  9  1  0  0  0  0
  8 17  1  0  0  0  0
  9 10  2  0  0  0  0
  9 11  1  0  0  0  0
 11 18  1  0  0  0  0
 11 19  1  0  0  0  0
 12 13  1  0  0  0  0
 13 14  1  0  0  0  0
 13 15  1  0  0  0  0
 13 16  1  0  0  0  0
M  CHG  1  13   1
M  END
>  <CHROM.0>
-45.23593837,19.32802387,-49.96777120,-53.16956979,-57.13968319,-63.03670793
-54.91788374,-45.12525877,-167.00940258,161.13539778

>  <CHROM.1>
44.89468653,1.96752291,146.76181247,54.92198555,111.49424008,-86.14119672
21.92508331,-16.18215454,3.98886054,0.40317305,-0.41061717,-0.12202630

>  <Name>
P134782778

>  <RI>
0

>  <Rbt.Current_Directory>
/home/fstefaniak/projects/zuza/docking/adenine/1Y26

>  <Rbt.Executable>
rbdock ($Id: //depot/dev/client3/rdock/2013.1/src/exe/rbdock.cxx#4 $)

>  <Rbt.Library>
libRbt.so (2013.1, Build901 2013/11/27)

>  <Rbt.Parameter_File>
/home/fstefaniak/progs/rDock//data/scripts/dock_solv.prm

>  <Rbt.Receptor>
1y26.prm

>  <SCORE>
-63.0146

>  <SCORE.INTER>
-45.9426

>  <SCORE.INTER.CONST>
1

>  <SCORE.INTER.POLAR>
-7.25678

>  <SCORE.INTER.ROT>
5

>  <SCORE.INTER.SOLV>
26.7188

>  <SCORE.INTER.VDW>
-22.2787

>  <SCORE.INTER.norm>
-3.53404

>  <SCORE.INTRA>
2.20246

>  <SCORE.INTRA.DIHEDRAL>
0.545567

>  <SCORE.INTRA.DIHEDRAL.0>
3.87105

>  <SCORE.INTRA.POLAR>
0.874571

>  <SCORE.INTRA.POLAR.0>
-0.874571

>  <SCORE.INTRA.REPUL>
0

>  <SCORE.INTRA.REPUL.0>
0

>  <SCORE.INTRA.SOLV>
-2.73746

>  <SCORE.INTRA.SOLV.lig_0>
-36.5463

>  <SCORE.INTRA.VDW>
0.32487

>  <SCORE.INTRA.VDW.0>
-0.982517

>  <SCORE.INTRA.norm>
0.16942

>  <SCORE.RESTR>
0

>  <SCORE.RESTR.CAVITY>
0

>  <SCORE.RESTR.norm>
0

>  <SCORE.SYSTEM>
-19.2745

>  <SCORE.SYSTEM.CONST>
0

>  <SCORE.SYSTEM.DIHEDRAL>
12.5261

>  <SCORE.SYSTEM.POLAR>
-3.8502

>  <SCORE.SYSTEM.SOLV>
0.831677

>  <SCORE.SYSTEM.VDW>
-4.46829

>  <SCORE.SYSTEM.norm>
-1.48265

>  <SCORE.heavy>
13

>  <SCORE.norm>
-4.84728

$$$$
P134782778
 OpenBabel12072022103D
libRbt.so/2013.1/901 2013/11/27
 19 19  0  0  0  0  0  0  0  0999 V2000
   22.4588  -13.7139    4.5787 C   0  0  0  0  0  0  0  0  0  0  0  0
   23.6891  -14.5296    4.9693 C   0  0  0  0  0  0  0  0  0  0  0  0
   23.2555  -16.0038    4.9627 C   0  0  1  0  0  0  0  0  0  0  0  0
   22.0329  -16.0133    4.0134 C   0  0  2  0  0  0  0  0  0  0  0  0
   21.3272  -14.7161    4.4025 C   0  0  0  0  0  0  0  0  0  0  0  0
   21.1541  -17.2488    4.1848 C   0  0  0  0  0  0  0  0  0  0  0  0
   20.9645  -18.0143    3.2317 O   0  0  0  0  0  0  0  0  0  0  0  0
   20.4874  -17.4418    5.3622 N   0  0  0  0  0  0  0  0  0  0  0  0
   19.6383  -18.4991    5.5472 C   0  0  0  0  0  0  0  0  0  0  0  0
   19.1844  -19.2177    4.6703 O   0  0  0  0  0  0  0  0  0  0  0  0
   19.3297  -18.6983    6.8563 N   0  0  0  0  0  0  0  0  0  0  0  0
   24.4089  -16.9196    4.5459 C   0  0  0  0  0  0  0  0  0  0  0  0
   25.6225  -16.6412    5.3444 N   0  3  0  0  0  0  0  0  0  0  0  0
   25.3955  -16.2624    6.2715 H   0  0  0  0  0  0  0  0  0  0  0  0
   26.1568  -17.5120    5.5433 H   0  0  0  0  0  0  0  0  0  0  0  0
   26.2637  -15.9886    4.8798 H   0  0  0  0  0  0  0  0  0  0  0  0
   21.0872  -17.3210    6.1670 H   0  0  0  0  0  0  0  0  0  0  0  0
   20.0802  -18.7552    7.5328 H   0  0  0  0  0  0  0  0  0  0  0  0
   18.5337  -18.1553    7.1781 H   0  0  0  0  0  0  0  0  0  0  0  0
  1  2  1  0  0  0  0
  1  5  1  0  0  0  0
  2  3  1  0  0  0  0
  3 12  1  6  0  0  0
  3  4  1  0  0  0  0
  4  5  1  0  0  0  0
  4  6  1  1  0  0  0
  6  7  2  0  0  0  0
  6  8  1  0  0  0  0
  8  9  1  0  0  0  0
  8 17  1  0  0  0  0
  9 10  2  0  0  0  0
  9 11  1  0  0  0  0
 11 18  1  0  0  0  0
 11 19  1  0  0  0  0
 12 13  1  0  0  0  0
 13 14  1  0  0  0  0
 13 15  1  0  0  0  0
 13 16  1  0  0  0  0
M  CHG  1  13   1
M  END
>  <CHROM.0>
-57.14336442,-57.68332195,-64.38301402,-55.85501683,-59.47441560,-60.09488092
-172.80783523,62.39683605,-164.91753833,160.15654940

>  <CHROM.1>
51.25900191,-120.24468412,176.93376120,-14.52141332,-50.68575217,27.44724288
21.83259178,-16.78490725,4.85139720,0.62483031,-0.04963487,-0.22512275

>  <Name>
P134782778

>  <RI>
0

>  <Rbt.Current_Directory>
/home/fstefaniak/projects/zuza/docking/adenine/1Y26

>  <Rbt.Executable>
rbdock ($Id: //depot/dev/client3/rdock/2013.1/src/exe/rbdock.cxx#4 $)

>  <Rbt.Library>
libRbt.so (2013.1, Build901 2013/11/27)

>  <Rbt.Parameter_File>
/home/fstefaniak/progs/rDock//data/scripts/dock_solv.prm

>  <Rbt.Receptor>
1y26.prm

>  <SCORE>
-62.537

>  <SCORE.INTER>
-44.3727

>  <SCORE.INTER.CONST>
1

>  <SCORE.INTER.POLAR>
-6.01852

>  <SCORE.INTER.ROT>
5

>  <SCORE.INTER.SOLV>
28.5992

>  <SCORE.INTER.VDW>
-25.9864

>  <SCORE.INTER.norm>
-3.41328

>  <SCORE.INTRA>
2.16903

>  <SCORE.INTRA.DIHEDRAL>
0.666382

>  <SCORE.INTRA.DIHEDRAL.0>
3.87105

>  <SCORE.INTRA.POLAR>
0.874571

>  <SCORE.INTRA.POLAR.0>
-0.874571

>  <SCORE.INTRA.REPUL>
0

>  <SCORE.INTRA.REPUL.0>
0

>  <SCORE.INTRA.SOLV>
-2.65868

>  <SCORE.INTRA.SOLV.lig_0>
-36.5463

>  <SCORE.INTRA.VDW>
0.191642

>  <SCORE.INTRA.VDW.0>
-0.982517

>  <SCORE.INTRA.norm>
0.166849

>  <SCORE.RESTR>
0

>  <SCORE.RESTR.CAVITY>
0

>  <SCORE.RESTR.norm>
0

>  <SCORE.SYSTEM>
-20.3333

>  <SCORE.SYSTEM.CONST>
0

>  <SCORE.SYSTEM.DIHEDRAL>
5.2263

>  <SCORE.SYSTEM.POLAR>
-3.28019

>  <SCORE.SYSTEM.SOLV>
0.357101

>  <SCORE.SYSTEM.VDW>
-4.4827

>  <SCORE.SYSTEM.norm>
-1.5641

>  <SCORE.heavy>
13

>  <SCORE.norm>
-4.81053

$$$$
P134836611
 OpenBabel12072022103D
libRbt.so/2013.1/901 2013/11/27
 14 14  0  0  0  0  0  0  0  0999 V2000
   20.4925  -18.0933    3.4059 C   0  0  0  0  0  0  0  0  0  0  0  0
   19.8091  -18.6457    4.6654 C   0  0  1  0  0  0  0  0  0  0  0  0
   20.1432  -17.6038    5.6910 C   0  0  0  0  0  0  0  0  0  0  0  0
   20.5686  -16.4713    5.1169 C   0  0  0  0  0  0  0  0  0  0  0  0
   20.6052  -16.5758    3.6273 C   0  0  2  0  0  0  0  0  0  0  0  0
   19.4553  -15.8730    3.0665 N   0  0  0  0  0  0  0  0  0  0  0  0
   18.2928  -18.8290    4.5759 C   0  0  0  0  0  0  0  0  0  0  0  0
   17.6355  -18.4202    3.6154 O   0  0  0  0  0  0  0  0  0  0  0  0
   17.7010  -19.5322    5.5976 N   0  0  0  0  0  0  0  0  0  0  0  0
   16.5728  -18.9120    6.1878 O   0  0  0  0  0  0  0  0  0  0  0  0
   19.6940  -14.8829    2.9725 H   0  0  0  0  0  0  0  0  0  0  0  0
   18.6980  -15.8921    3.7534 H   0  0  0  0  0  0  0  0  0  0  0  0
   17.7145  -20.5582    5.5910 H   0  0  0  0  0  0  0  0  0  0  0  0
   16.9897  -18.2379    6.7681 H   0  0  0  0  0  0  0  0  0  0  0  0
  1  2  1  0  0  0  0
  1  5  1  0  0  0  0
  2  3  1  0  0  0  0
  2  7  1  6  0  0  0
  3  4  2  0  0  0  0
  4  5  1  0  0  0  0
  5  6  1  6  0  0  0
  6 11  1  0  0  0  0
  6 12  1  0  0  0  0
  7  8  2  0  0  0  0
  7  9  1  0  0  0  0
  9 10  1  0  0  0  0
  9 13  1  0  0  0  0
 10 14  1  0  0  0  0
M  END
>  <CHROM.0>
-45.47265568,-61.02794637,-58.71445851,-51.83165064,-53.72915827,-63.90143822
-64.89549302,-176.06010165,-166.80460721,161.29322314

>  <CHROM.1>
-7.97348475,-162.76356127,130.17405800,-77.97995870,19.02649028,-17.90576601
4.56424588,0.67447919,-0.42081026,-1.07849699

>  <Name>
P134836611

>  <RI>
0

>  <Rbt.Current_Directory>
/home/fstefaniak/projects/zuza/docking/adenine/1Y26

>  <Rbt.Executable>
rbdock ($Id: //depot/dev/client3/rdock/2013.1/src/exe/rbdock.cxx#4 $)

>  <Rbt.Library>
libRbt.so (2013.1, Build901 2013/11/27)

>  <Rbt.Parameter_File>
/home/fstefaniak/progs/rDock//data/scripts/dock_solv.prm

>  <Rbt.Receptor>
1y26.prm

>  <SCORE>
-53.2942

>  <SCORE.INTER>
-32.2172

>  <SCORE.INTER.CONST>
1

>  <SCORE.INTER.POLAR>
-5.4207

>  <SCORE.INTER.ROT>
3

>  <SCORE.INTER.SOLV>
15.8138

>  <SCORE.INTER.VDW>
-14.2804

>  <SCORE.INTER.norm>
-3.22172

>  <SCORE.INTRA>
1.5444

>  <SCORE.INTRA.DIHEDRAL>
-0.372383

>  <SCORE.INTRA.DIHEDRAL.0>
2.89922

>  <SCORE.INTRA.POLAR>
1

>  <SCORE.INTRA.POLAR.0>
-1

>  <SCORE.INTRA.REPUL>
-0.0619539

>  <SCORE.INTRA.REPUL.0>
0.0619539

>  <SCORE.INTRA.SOLV>
-1.09787

>  <SCORE.INTRA.SOLV.lig_0>
-17.3961

>  <SCORE.INTRA.VDW>
-0.810705

>  <SCORE.INTRA.VDW.0>
0.00616269

>  <SCORE.INTRA.norm>
0.15444

>  <SCORE.RESTR>
0

>  <SCORE.RESTR.CAVITY>
0

>  <SCORE.RESTR.norm>
0

>  <SCORE.SYSTEM>
-22.6214

>  <SCORE.SYSTEM.CONST>
0

>  <SCORE.SYSTEM.DIHEDRAL>
6.05559

>  <SCORE.SYSTEM.POLAR>
-3.49307

>  <SCORE.SYSTEM.SOLV>
0.433416

>  <SCORE.SYSTEM.VDW>
-5.60038

>  <SCORE.SYSTEM.norm>
-2.26214

>  <SCORE.heavy>
10

>  <SCORE.norm>
-5.32942

$$$$
P134836611
 OpenBabel12072022103D
libRbt.so/2013.1/901 2013/11/27
 14 14  0  0  0  0  0  0  0  0999 V2000
   20.5699  -18.0336    3.1744 C   0  0  0  0  0  0  0  0  0  0  0  0
   19.9780  -18.6193    4.4647 C   0  0  1  0  0  0  0  0  0  0  0  0
   20.3950  -17.6098    5.4923 C   0  0  0  0  0  0  0  0  0  0  0  0
   20.7849  -16.4632    4.9212 C   0  0  0  0  0  0  0  0  0  0  0  0
   20.7098  -16.5239    3.4305 C   0  0  2  0  0  0  0  0  0  0  0  0
   19.5266  -15.7990    2.9777 N   0  0  0  0  0  0  0  0  0  0  0  0
   18.4579  -18.7922    4.4832 C   0  0  0  0  0  0  0  0  0  0  0  0
   17.7261  -18.2762    3.6348 O   0  0  0  0  0  0  0  0  0  0  0  0
   17.9477  -19.6084    5.4640 N   0  0  0  0  0  0  0  0  0  0  0  0
   16.8696  -19.0661    6.2053 O   0  0  0  0  0  0  0  0  0  0  0  0
   19.7457  -14.8002    2.9572 H   0  0  0  0  0  0  0  0  0  0  0  0
   18.7991  -15.8894    3.6906 H   0  0  0  0  0  0  0  0  0  0  0  0
   17.9600  -20.6273    5.3430 H   0  0  0  0  0  0  0  0  0  0  0  0
   16.7624  -19.7269    6.9242 H   0  0  0  0  0  0  0  0  0  0  0  0
  1  2  1  0  0  0  0
  1  5  1  0  0  0  0
  2  3  1  0  0  0  0
  2  7  1  6  0  0  0
  3  4  2  0  0  0  0
  4  5  1  0  0  0  0
  5  6  1  1  0  0  0
  6 11  1  0  0  0  0
  6 12  1  0  0  0  0
  7  8  2  0  0  0  0
  7  9  1  0  0  0  0
  9 10  1  0  0  0  0
  9 13  1  0  0  0  0
 10 14  1  0  0  0  0
M  END
>  <CHROM.0>
55.60547235,-60.68319434,-47.80970160,-50.57584528,-56.80016149,-47.33985107
-44.68024721,-49.20008234,-166.93530773,159.75552105

>  <CHROM.1>
-12.92373797,-166.64413433,130.79782290,-171.11695688,19.19212783,-17.90121124
4.44208741,-0.76959269,0.35135383,2.18295383

>  <Name>
P134836611

>  <RI>
0

>  <Rbt.Current_Directory>
/home/fstefaniak/projects/zuza/docking/adenine/1Y26

>  <Rbt.Executable>
rbdock ($Id: //depot/dev/client3/rdock/2013.1/src/exe/rbdock.cxx#4 $)

>  <Rbt.Library>
libRbt.so (2013.1, Build901 2013/11/27)

>  <Rbt.Parameter_File>
/home/fstefaniak/progs/rDock//data/scripts/dock_solv.prm

>  <Rbt.Receptor>
1y26.prm

>  <SCORE>
-51.0417

>  <SCORE.INTER>
-31.8418

>  <SCORE.INTER.CONST>
1

>  <SCORE.INTER.POLAR>
-5.27325

>  <SCORE.INTER.ROT>
3

>  <SCORE.INTER.SOLV>
15.5849

>  <SCORE.INTER.VDW>
-14.4454

>  <SCORE.INTER.norm>
-3.18418

>  <SCORE.INTRA>
1.3211

>  <SCORE.INTRA.DIHEDRAL>
-0.745371

>  <SCORE.INTRA.DIHEDRAL.0>
2.89922

>  <SCORE.INTRA.POLAR>
1

>  <SCORE.INTRA.POLAR.0>
-1

>  <SCORE.INTRA.REPUL>
-0.0619539

>  <SCORE.INTRA.REPUL.0>
0.0619539

>  <SCORE.INTRA.SOLV>
-1.10118

>  <SCORE.INTRA.SOLV.lig_0>
-17.3961

>  <SCORE.INTRA.VDW>
-0.845853

>  <SCORE.INTRA.VDW.0>
0.00616269

>  <SCORE.INTRA.norm>
0.13211

>  <SCORE.RESTR>
0

>  <SCORE.RESTR.CAVITY>
0

>  <SCORE.RESTR.norm>
0

>  <SCORE.SYSTEM>
-20.521

>  <SCORE.SYSTEM.CONST>
0

>  <SCORE.SYSTEM.DIHEDRAL>
8.04933

>  <SCORE.SYSTEM.POLAR>
-3.52547

>  <SCORE.SYSTEM.SOLV>
0.701939

>  <SCORE.SYSTEM.VDW>
-4.84619

>  <SCORE.SYSTEM.norm>
-2.0521

>  <SCORE.heavy>
10

>  <SCORE.norm>
-5.10417

$$$$
P134836611
 OpenBabel12072022103D
libRbt.so/2013.1/901 2013/11/27
 14 14  0  0  0  0  0  0  0  0999 V2000
   17.7673  -18.4905    4.7360 C   0  0  0  0  0  0  0  0  0  0  0  0
   18.5820  -17.8137    3.6240 C   0  0  1  0  0  0  0  0  0  0  0  0
   19.8640  -17.4806    4.3273 C   0  0  0  0  0  0  0  0  0  0  0  0
   19.9829  -18.1599    5.4750 C   0  0  0  0  0  0  0  0  0  0  0  0
   18.8019  -19.0374    5.7335 C   0  0  2  0  0  0  0  0  0  0  0  0
   19.1529  -20.4205    5.4262 N   0  0  0  0  0  0  0  0  0  0  0  0
   18.8665  -18.6708    2.3890 C   0  0  0  0  0  0  0  0  0  0  0  0
   18.4551  -19.8288    2.2821 O   0  0  0  0  0  0  0  0  0  0  0  0
   19.5565  -18.0619    1.3684 N   0  0  0  0  0  0  0  0  0  0  0  0
   20.9679  -18.1299    1.4644 O   0  0  0  0  0  0  0  0  0  0  0  0
   19.7048  -20.4319    4.5652 H   0  0  0  0  0  0  0  0  0  0  0  0
   18.2963  -20.9270    5.1908 H   0  0  0  0  0  0  0  0  0  0  0  0
   19.1578  -18.0335    0.4234 H   0  0  0  0  0  0  0  0  0  0  0  0
   21.2433  -17.9991    0.5306 H   0  0  0  0  0  0  0  0  0  0  0  0
  1  2  1  0  0  0  0
  1  5  1  0  0  0  0
  2  3  1  0  0  0  0
  2  7  1  6  0  0  0
  3  4  2  0  0  0  0
  4  5  1  0  0  0  0
  5  6  1  6  0  0  0
  6 11  1  0  0  0  0
  6 12  1  0  0  0  0
  7  8  2  0  0  0  0
  7  9  1  0  0  0  0
  9 10  1  0  0  0  0
  9 13  1  0  0  0  0
 10 14  1  0  0  0  0
M  END
>  <CHROM.0>
-50.34808145,-157.48055861,61.01669132,-49.07580699,-57.58965304,-57.59262628
74.98393923,-54.93701210,-166.67681712,160.87051117

>  <CHROM.1>
0.84153136,70.57014802,87.64815349,157.50980214,19.22690603,-18.65335939
3.59088020,1.94317044,0.83650582,1.49152323

>  <Name>
P134836611

>  <RI>
0

>  <Rbt.Current_Directory>
/home/fstefaniak/projects/zuza/docking/adenine/1Y26

>  <Rbt.Executable>
rbdock ($Id: //depot/dev/client3/rdock/2013.1/src/exe/rbdock.cxx#4 $)

>  <Rbt.Library>
libRbt.so (2013.1, Build901 2013/11/27)

>  <Rbt.Parameter_File>
/home/fstefaniak/progs/rDock//data/scripts/dock_solv.prm

>  <Rbt.Receptor>
1y26.prm

>  <SCORE>
-50.6973

>  <SCORE.INTER>
-32.2368

>  <SCORE.INTER.CONST>
1

>  <SCORE.INTER.POLAR>
-5.54639

>  <SCORE.INTER.ROT>
3

>  <SCORE.INTER.SOLV>
16.2982

>  <SCORE.INTER.VDW>
-14.036

>  <SCORE.INTER.norm>
-3.22368

>  <SCORE.INTRA>
1.71849

>  <SCORE.INTRA.DIHEDRAL>
-0.765335

>  <SCORE.INTRA.DIHEDRAL.0>
2.89922

>  <SCORE.INTRA.POLAR>
1

>  <SCORE.INTRA.POLAR.0>
-1

>  <SCORE.INTRA.REPUL>
-0.0619539

>  <SCORE.INTRA.REPUL.0>
0.0619539

>  <SCORE.INTRA.SOLV>
-0.656029

>  <SCORE.INTRA.SOLV.lig_0>
-17.3961

>  <SCORE.INTRA.VDW>
-0.661059

>  <SCORE.INTRA.VDW.0>
0.00616269

>  <SCORE.INTRA.norm>
0.171849

>  <SCORE.RESTR>
0

>  <SCORE.RESTR.CAVITY>
0

>  <SCORE.RESTR.norm>
0

>  <SCORE.SYSTEM>
-20.179

>  <SCORE.SYSTEM.CONST>
0

>  <SCORE.SYSTEM.DIHEDRAL>
8.74114

>  <SCORE.SYSTEM.POLAR>
-3.77032

>  <SCORE.SYSTEM.SOLV>
0.432298

>  <SCORE.SYSTEM.VDW>
-3.94276

>  <SCORE.SYSTEM.norm>
-2.0179

>  <SCORE.heavy>
10

>  <SCORE.norm>
-5.06973

$$$$
P135102317
 OpenBabel12072022103D
libRbt.so/2013.1/901 2013/11/27
 13 13  0  0  0  0  0  0  0  0999 V2000
   21.1997  -16.1120    3.5842 C   0  0  0  0  0  0  0  0  0  0  0  0
   21.8936  -15.5183    4.8041 C   0  0  2  0  0  0  0  0  0  0  0  0
   22.2775  -14.0574    4.6350 C   0  0  2  0  0  0  0  0  0  0  0  0
   23.6789  -14.0462    4.0204 C   0  0  0  0  0  0  0  0  0  0  0  0
   24.2102  -15.4677    4.1320 C   0  0  0  0  0  0  0  0  0  0  0  0
   23.2201  -16.1788    4.9735 N   0  3  0  0  0  0  0  0  0  0  0  0
   23.4797  -15.8758    5.9609 H   0  0  0  0  0  0  0  0  0  0  0  0
   23.2457  -17.1986    4.9870 H   0  0  0  0  0  0  0  0  0  0  0  0
   22.1874  -13.3129    5.9615 C   0  0  0  0  0  0  0  0  0  0  0  0
   22.2786  -13.9550    7.0127 O   0  0  0  0  0  0  0  0  0  0  0  0
   22.0346  -11.9499    6.0140 N   0  0  0  0  0  0  0  0  0  0  0  0
   21.7551  -11.1522    4.9276 O   0  5  0  0  0  0  0  0  0  0  0  0
   21.9174  -11.5231    6.9315 H   0  0  0  0  0  0  0  0  0  0  0  0
  2  1  1  6  0  0  0
  2  3  1  0  0  0  0
  2  6  1  0  0  0  0
  3  4  1  0  0  0  0
  3  9  1  1  0  0  0
  4  5  1  0  0  0  0
  5  6  1  0  0  0  0
  6  7  1  0  0  0  0
  6  8  1  0  0  0  0
  9 10  2  0  0  0  0
  9 11  1  0  0  0  0
 11 12  1  0  0  0  0
 11 13  1  0  0  0  0
M  CHG  2   6   1  12  -1
M  END
>  <CHROM.0>
-43.23943540,-29.29294348,-52.71677055,-48.63371064,-54.08059570,-55.48423901
-54.84978953,-50.83820015,-166.15357321,163.17840408

>  <CHROM.1>
23.79431278,22.47009748,-14.16220828,5.03343811,-0.49789206,1.35562429,-0.71048112

>  <Name>
P135102317

>  <RI>
0

>  <Rbt.Current_Directory>
/home/fstefaniak/projects/zuza/docking/adenine/1Y26

>  <Rbt.Executable>
rbdock ($Id: //depot/dev/client3/rdock/2013.1/src/exe/rbdock.cxx#4 $)

>  <Rbt.Library>
libRbt.so (2013.1, Build901 2013/11/27)

>  <Rbt.Parameter_File>
/home/fstefaniak/progs/rDock//data/scripts/dock_solv.prm

>  <Rbt.Receptor>
1y26.prm

>  <SCORE>
-41.4679

>  <SCORE.INTER>
-19.0809

>  <SCORE.INTER.CONST>
1

>  <SCORE.INTER.POLAR>
-3.12397

>  <SCORE.INTER.ROT>
1

>  <SCORE.INTER.SOLV>
18.3467

>  <SCORE.INTER.VDW>
-12.6896

>  <SCORE.INTER.norm>
-1.90809

>  <SCORE.INTRA>
-3.66587

>  <SCORE.INTRA.DIHEDRAL>
0.994528

>  <SCORE.INTRA.DIHEDRAL.0>
0.650065

>  <SCORE.INTRA.POLAR>
0

>  <SCORE.INTRA.POLAR.0>
0

>  <SCORE.INTRA.REPUL>
0

>  <SCORE.INTRA.REPUL.0>
0

>  <SCORE.INTRA.SOLV>
-8.97326

>  <SCORE.INTRA.SOLV.lig_0>
-47.7374

>  <SCORE.INTRA.VDW>
0.323497

>  <SCORE.INTRA.VDW.0>
-0.705052

>  <SCORE.INTRA.norm>
-0.366587

>  <SCORE.RESTR>
0.540136

>  <SCORE.RESTR.CAVITY>
0.540136

>  <SCORE.RESTR.norm>
0.0540136

>  <SCORE.SYSTEM>
-19.2613

>  <SCORE.SYSTEM.CONST>
0

>  <SCORE.SYSTEM.DIHEDRAL>
10.6247

>  <SCORE.SYSTEM.POLAR>
-3.62948

>  <SCORE.SYSTEM.SOLV>
0.77882

>  <SCORE.SYSTEM.VDW>
-4.54376

>  <SCORE.SYSTEM.norm>
-1.92613

>  <SCORE.heavy>
10

>  <SCORE.norm>
-4.14679

$$$$
P135102317
 OpenBabel12072022103D
libRbt.so/2013.1/901 2013/11/27
 13 13  0  0  0  0  0  0  0  0999 V2000
   23.3487  -12.8347    3.7433 C   0  0  0  0  0  0  0  0  0  0  0  0
   23.6450  -13.9869    4.6954 C   0  0  2  0  0  0  0  0  0  0  0  0
   23.7666  -15.3338    4.0017 C   0  0  2  0  0  0  0  0  0  0  0  0
   22.3572  -15.9288    3.9611 C   0  0  0  0  0  0  0  0  0  0  0  0
   21.5045  -15.0822    4.8948 C   0  0  0  0  0  0  0  0  0  0  0  0
   22.4661  -14.1922    5.5857 N   0  3  0  0  0  0  0  0  0  0  0  0
   22.8801  -14.8214    6.3387 H   0  0  0  0  0  0  0  0  0  0  0  0
   22.0978  -13.3808    6.0825 H   0  0  0  0  0  0  0  0  0  0  0  0
   24.7831  -16.2217    4.7089 C   0  0  0  0  0  0  0  0  0  0  0  0
   25.4706  -15.7369    5.6133 O   0  0  0  0  0  0  0  0  0  0  0  0
   24.9325  -17.5467    4.3834 N   0  0  0  0  0  0  0  0  0  0  0  0
   24.3517  -18.1542    3.2934 O   0  5  0  0  0  0  0  0  0  0  0  0
   25.6736  -18.0667    4.8504 H   0  0  0  0  0  0  0  0  0  0  0  0
  2  1  1  6  0  0  0
  2  3  1  0  0  0  0
  2  6  1  0  0  0  0
  3  4  1  0  0  0  0
  3  9  1  1  0  0  0
  4  5  1  0  0  0  0
  5  6  1  0  0  0  0
  6  7  1  0  0  0  0
  6  8  1  0  0  0  0
  9 10  2  0  0  0  0
  9 11  1  0  0  0  0
 11 12  1  0  0  0  0
 11 13  1  0  0  0  0
M  CHG  2   6   1  12  -1
M  END
>  <CHROM.0>
-47.69275824,-73.86448822,-56.76387263,-53.44720720,-56.32374284,-175.31972813
-60.28111027,-176.43692904,-167.04905360,160.38348303

>  <CHROM.1>
-7.89326130,23.67594590,-15.52263652,4.50728942,-2.11250529,0.24204519,-2.85603960

>  <Name>
P135102317

>  <RI>
0

>  <Rbt.Current_Directory>
/home/fstefaniak/projects/zuza/docking/adenine/1Y26

>  <Rbt.Executable>
rbdock ($Id: //depot/dev/client3/rdock/2013.1/src/exe/rbdock.cxx#4 $)

>  <Rbt.Library>
libRbt.so (2013.1, Build901 2013/11/27)

>  <Rbt.Parameter_File>
/home/fstefaniak/progs/rDock//data/scripts/dock_solv.prm

>  <Rbt.Receptor>
1y26.prm

>  <SCORE>
-41.1594

>  <SCORE.INTER>
-15.5677

>  <SCORE.INTER.CONST>
1

>  <SCORE.INTER.POLAR>
-2.93555

>  <SCORE.INTER.ROT>
1

>  <SCORE.INTER.SOLV>
26.6494

>  <SCORE.INTER.VDW>
-13.7431

>  <SCORE.INTER.norm>
-1.55677

>  <SCORE.INTRA>
-3.45866

>  <SCORE.INTRA.DIHEDRAL>
0.0502714

>  <SCORE.INTRA.DIHEDRAL.0>
0.650065

>  <SCORE.INTRA.POLAR>
0

>  <SCORE.INTRA.POLAR.0>
0

>  <SCORE.INTRA.REPUL>
0

>  <SCORE.INTRA.REPUL.0>
0

>  <SCORE.INTRA.SOLV>
-8.33412

>  <SCORE.INTRA.SOLV.lig_0>
-47.7374

>  <SCORE.INTRA.VDW>
0.683258

>  <SCORE.INTRA.VDW.0>
-0.705052

>  <SCORE.INTRA.norm>
-0.345866

>  <SCORE.RESTR>
0.0759376

>  <SCORE.RESTR.CAVITY>
0.0759376

>  <SCORE.RESTR.norm>
0.00759376

>  <SCORE.SYSTEM>
-22.209

>  <SCORE.SYSTEM.CONST>
0

>  <SCORE.SYSTEM.DIHEDRAL>
6.49046

>  <SCORE.SYSTEM.POLAR>
-3.45826

>  <SCORE.SYSTEM.SOLV>
0.297408

>  <SCORE.SYSTEM.VDW>
-5.54111

>  <SCORE.SYSTEM.norm>
-2.2209

>  <SCORE.heavy>
10

>  <SCORE.norm>
-4.11594

$$$$
P135102317
 OpenBabel12072022103D
libRbt.so/2013.1/901 2013/11/27
 13 13  0  0  0  0  0  0  0  0999 V2000
   23.3796  -12.8392    3.7375 C   0  0  0  0  0  0  0  0  0  0  0  0
   23.6582  -13.9886    4.6983 C   0  0  2  0  0  0  0  0  0  0  0  0
   23.7533  -15.3432    4.0155 C   0  0  2  0  0  0  0  0  0  0  0  0
   22.3334  -15.9131    3.9843 C   0  0  0  0  0  0  0  0  0  0  0  0
   21.4991  -15.0436    4.9135 C   0  0  0  0  0  0  0  0  0  0  0  0
   22.4788  -14.1653    5.5939 N   0  3  0  0  0  0  0  0  0  0  0  0
   22.8838  -14.7954    6.3508 H   0  0  0  0  0  0  0  0  0  0  0  0
   22.1266  -13.3432    6.0850 H   0  0  0  0  0  0  0  0  0  0  0  0
   24.7561  -16.2433    4.7270 C   0  0  0  0  0  0  0  0  0  0  0  0
   25.4222  -15.7757    5.6561 O   0  0  0  0  0  0  0  0  0  0  0  0
   24.9158  -17.5612    4.3781 N   0  0  0  0  0  0  0  0  0  0  0  0
   24.3608  -18.1475    3.2633 O   0  5  0  0  0  0  0  0  0  0  0  0
   25.6477  -18.0891    4.8508 H   0  0  0  0  0  0  0  0  0  0  0  0
  2  1  1  6  0  0  0
  2  3  1  0  0  0  0
  2  6  1  0  0  0  0
  3  4  1  0  0  0  0
  3  9  1  1  0  0  0
  4  5  1  0  0  0  0
  5  6  1  0  0  0  0
  6  7  1  0  0  0  0
  6  8  1  0  0  0  0
  9 10  2  0  0  0  0
  9 11  1  0  0  0  0
 11 12  1  0  0  0  0
 11 13  1  0  0  0  0
M  CHG  2   6   1  12  -1
M  END
>  <CHROM.0>
-49.24993028,-75.04489693,-57.02526510,-53.40849618,-56.85123140,-56.97671582
-60.72987232,-49.99658306,-166.48829774,161.28962500

>  <CHROM.1>
-5.41476674,23.66936647,-15.52267396,4.51555562,-2.10796904,0.25772923,-2.84397180

>  <Name>
P135102317

>  <RI>
0

>  <Rbt.Current_Directory>
/home/fstefaniak/projects/zuza/docking/adenine/1Y26

>  <Rbt.Executable>
rbdock ($Id: //depot/dev/client3/rdock/2013.1/src/exe/rbdock.cxx#4 $)

>  <Rbt.Library>
libRbt.so (2013.1, Build901 2013/11/27)

>  <Rbt.Parameter_File>
/home/fstefaniak/progs/rDock//data/scripts/dock_solv.prm

>  <Rbt.Receptor>
1y26.prm

>  <SCORE>
-41.0822

>  <SCORE.INTER>
-15.7094

>  <SCORE.INTER.CONST>
1

>  <SCORE.INTER.POLAR>
-2.96238

>  <SCORE.INTER.ROT>
1

>  <SCORE.INTER.SOLV>
26.6394

>  <SCORE.INTER.VDW>
-13.7448

>  <SCORE.INTER.norm>
-1.57094

>  <SCORE.INTRA>
-3.56925

>  <SCORE.INTRA.DIHEDRAL>
-0.0264679

>  <SCORE.INTRA.DIHEDRAL.0>
0.650065

>  <SCORE.INTRA.POLAR>
0

>  <SCORE.INTRA.POLAR.0>
0

>  <SCORE.INTRA.REPUL>
0

>  <SCORE.INTRA.REPUL.0>
0

>  <SCORE.INTRA.SOLV>
-8.42273

>  <SCORE.INTRA.SOLV.lig_0>
-47.7374

>  <SCORE.INTRA.VDW>
0.655353

>  <SCORE.INTRA.VDW.0>
-0.705052

>  <SCORE.INTRA.norm>
-0.356925

>  <SCORE.RESTR>
0.0931742

>  <SCORE.RESTR.CAVITY>
0.0931742

>  <SCORE.RESTR.norm>
0.00931742

>  <SCORE.SYSTEM>
-21.8967

>  <SCORE.SYSTEM.CONST>
0

>  <SCORE.SYSTEM.DIHEDRAL>
6.72103

>  <SCORE.SYSTEM.POLAR>
-3.46392

>  <SCORE.SYSTEM.SOLV>
0.650717

>  <SCORE.SYSTEM.VDW>
-5.50867

>  <SCORE.SYSTEM.norm>
-2.18967

>  <SCORE.heavy>
10

>  <SCORE.norm>
-4.10822

$$$$
P135265592
 OpenBabel12072022103D
libRbt.so/2013.1/901 2013/11/27
 17 17  0  0  0  0  0  0  0  0999 V2000
   23.3778  -11.8050    5.4924 C   0  0  0  0  0  0  0  0  0  0  0  0
   24.4906  -12.2620    4.5334 C   0  0  0  0  0  0  0  0  0  0  0  0
   24.0169  -13.5938    3.9210 C   0  0  2  0  0  0  0  0  0  0  0  0
   22.5015  -13.3617    3.8800 C   0  0  0  0  0  0  0  0  0  0  0  0
   22.2008  -12.7511    5.2468 C   0  0  1  0  0  0  0  0  0  0  0  0
   22.2318  -13.8184    6.2728 N   0  3  0  0  0  0  0  0  0  0  0  0
   23.1390  -13.8565    6.7790 H   0  0  0  0  0  0  0  0  0  0  0  0
   21.5992  -13.5470    7.0518 H   0  0  0  0  0  0  0  0  0  0  0  0
   21.9863  -14.7575    5.9523 H   0  0  0  0  0  0  0  0  0  0  0  0
   24.4168  -14.6955    4.8307 N   0  0  0  0  0  0  0  0  0  0  0  0
   23.8783  -16.0168    4.3924 C   0  0  0  0  0  0  0  0  0  0  0  0
   24.8700  -17.1625    4.6401 C   0  0  0  0  0  0  0  0  0  0  0  0
   24.9476  -18.1715    3.9370 O   0  0  0  0  0  0  0  0  0  0  0  0
   25.6975  -16.9927    5.7086 N   0  0  0  0  0  0  0  0  0  0  0  0
   25.4390  -14.7851    4.7501 H   0  0  0  0  0  0  0  0  0  0  0  0
   25.5909  -16.2446    6.3833 H   0  0  0  0  0  0  0  0  0  0  0  0
   26.3372  -17.7411    5.9508 H   0  0  0  0  0  0  0  0  0  0  0  0
  1  2  1  0  0  0  0
  1  5  1  0  0  0  0
  2  3  1  0  0  0  0
  3  4  1  0  0  0  0
  3 10  1  1  0  0  0
  4  5  1  0  0  0  0
  5  6  1  1  0  0  0
  6  7  1  0  0  0  0
  6  8  1  0  0  0  0
  6  9  1  0  0  0  0
 10 11  1  0  0  0  0
 10 15  1  0  0  0  0
 11 12  1  0  0  0  0
 12 13  2  0  0  0  0
 12 14  1  0  0  0  0
 14 16  1  0  0  0  0
 14 17  1  0  0  0  0
M  CHG  1   6   1
M  END
>  <CHROM.0>
-50.54105029,-70.68154468,-53.78731761,-52.78479608,-57.44539249,-43.04538487
-54.53546399,-178.02530562,-168.36737252,159.89251093

>  <CHROM.1>
174.10247854,-14.40972416,142.92817026,-148.97892933,23.89113483,-14.65382579
4.84999369,-2.06410411,-0.58464897,2.94169828

>  <Name>
P135265592

>  <RI>
0

>  <Rbt.Current_Directory>
/home/fstefaniak/projects/zuza/docking/adenine/1Y26

>  <Rbt.Executable>
rbdock ($Id: //depot/dev/client3/rdock/2013.1/src/exe/rbdock.cxx#4 $)

>  <Rbt.Library>
libRbt.so (2013.1, Build901 2013/11/27)

>  <Rbt.Parameter_File>
/home/fstefaniak/progs/rDock//data/scripts/dock_solv.prm

>  <Rbt.Receptor>
1y26.prm

>  <SCORE>
-55.5738

>  <SCORE.INTER>
-40.2138

>  <SCORE.INTER.CONST>
1

>  <SCORE.INTER.POLAR>
-6.49372

>  <SCORE.INTER.ROT>
3

>  <SCORE.INTER.SOLV>
20.3082

>  <SCORE.INTER.VDW>
-17.5329

>  <SCORE.INTER.norm>
-3.6558

>  <SCORE.INTRA>
5.69493

>  <SCORE.INTRA.DIHEDRAL>
2.79673

>  <SCORE.INTRA.DIHEDRAL.0>
2.89237

>  <SCORE.INTRA.POLAR>
1.45607

>  <SCORE.INTRA.POLAR.0>
-1.45607

>  <SCORE.INTRA.REPUL>
0

>  <SCORE.INTRA.REPUL.0>
0

>  <SCORE.INTRA.SOLV>
-3.29

>  <SCORE.INTRA.SOLV.lig_0>
-28.0551

>  <SCORE.INTRA.VDW>
0.99093

>  <SCORE.INTRA.VDW.0>
-0.741888

>  <SCORE.INTRA.norm>
0.517721

>  <SCORE.RESTR>
0.955992

>  <SCORE.RESTR.CAVITY>
0.955992

>  <SCORE.RESTR.norm>
0.0869083

>  <SCORE.SYSTEM>
-22.011

>  <SCORE.SYSTEM.CONST>
0

>  <SCORE.SYSTEM.DIHEDRAL>
7.15543

>  <SCORE.SYSTEM.POLAR>
-3.55296

>  <SCORE.SYSTEM.SOLV>
0.476462

>  <SCORE.SYSTEM.VDW>
-5.37473

>  <SCORE.SYSTEM.norm>
-2.001

>  <SCORE.heavy>
11

>  <SCORE.norm>
-5.05217

$$$$
P135265592
 OpenBabel12072022103D
libRbt.so/2013.1/901 2013/11/27
 17 17  0  0  0  0  0  0  0  0999 V2000
   24.4979  -13.0635    3.4475 C   0  0  0  0  0  0  0  0  0  0  0  0
   23.0772  -12.6930    2.9882 C   0  0  0  0  0  0  0  0  0  0  0  0
   22.1137  -13.2881    4.0325 C   0  0  2  0  0  0  0  0  0  0  0  0
   22.9673  -13.1729    5.3013 C   0  0  0  0  0  0  0  0  0  0  0  0
   24.3414  -13.6601    4.8477 C   0  0  1  0  0  0  0  0  0  0  0  0
   24.3192  -15.1362    4.7313 N   0  3  0  0  0  0  0  0  0  0  0  0
   25.1999  -15.5163    4.3307 H   0  0  0  0  0  0  0  0  0  0  0  0
   24.3621  -15.5441    5.6865 H   0  0  0  0  0  0  0  0  0  0  0  0
   23.5226  -15.5358    4.2307 H   0  0  0  0  0  0  0  0  0  0  0  0
   21.8179  -14.6908    3.6503 N   0  0  0  0  0  0  0  0  0  0  0  0
   20.9064  -15.3634    4.6222 C   0  0  0  0  0  0  0  0  0  0  0  0
   20.3872  -16.7106    4.0997 C   0  0  0  0  0  0  0  0  0  0  0  0
   19.8293  -16.8594    3.0112 O   0  0  0  0  0  0  0  0  0  0  0  0
   20.5950  -17.7726    4.9270 N   0  0  0  0  0  0  0  0  0  0  0  0
   21.2843  -14.6484    2.7711 H   0  0  0  0  0  0  0  0  0  0  0  0
   20.9361  -17.6817    5.8765 H   0  0  0  0  0  0  0  0  0  0  0  0
   20.2264  -18.6777    4.6566 H   0  0  0  0  0  0  0  0  0  0  0  0
  1  2  1  0  0  0  0
  1  5  1  0  0  0  0
  2  3  1  0  0  0  0
  3  4  1  0  0  0  0
  3 10  1  6  0  0  0
  4  5  1  0  0  0  0
  5  6  1  6  0  0  0
  6  7  1  0  0  0  0
  6  8  1  0  0  0  0
  6  9  1  0  0  0  0
 10 11  1  0  0  0  0
 10 15  1  0  0  0  0
 11 12  1  0  0  0  0
 12 13  2  0  0  0  0
 12 14  1  0  0  0  0
 14 16  1  0  0  0  0
 14 17  1  0  0  0  0
M  CHG  1   6   1
M  END
>  <CHROM.0>
62.73171472,-54.80018605,-57.90533428,-53.29791209,-56.56727194,-58.71426148
-59.05379108,-176.03786425,-165.07559900,161.34416647

>  <CHROM.1>
178.93842571,61.47354140,169.12128442,-53.38548303,22.25312736,-14.83938661
4.15031684,0.67963549,-0.47214279,-0.50165758

>  <Name>
P135265592

>  <RI>
0

>  <Rbt.Current_Directory>
/home/fstefaniak/projects/zuza/docking/adenine/1Y26

>  <Rbt.Executable>
rbdock ($Id: //depot/dev/client3/rdock/2013.1/src/exe/rbdock.cxx#4 $)

>  <Rbt.Library>
libRbt.so (2013.1, Build901 2013/11/27)

>  <Rbt.Parameter_File>
/home/fstefaniak/progs/rDock//data/scripts/dock_solv.prm

>  <Rbt.Receptor>
1y26.prm

>  <SCORE>
-51.449

>  <SCORE.INTER>
-30.846

>  <SCORE.INTER.CONST>
1

>  <SCORE.INTER.POLAR>
-4.73818

>  <SCORE.INTER.ROT>
3

>  <SCORE.INTER.SOLV>
14.8201

>  <SCORE.INTER.VDW>
-15.3101

>  <SCORE.INTER.norm>
-2.80418

>  <SCORE.INTRA>
0.366586

>  <SCORE.INTRA.DIHEDRAL>
-1.12771

>  <SCORE.INTRA.DIHEDRAL.0>
2.89237

>  <SCORE.INTRA.POLAR>
0.752804

>  <SCORE.INTRA.POLAR.0>
-1.45607

>  <SCORE.INTRA.REPUL>
0

>  <SCORE.INTRA.REPUL.0>
0

>  <SCORE.INTRA.SOLV>
-3.53889

>  <SCORE.INTRA.SOLV.lig_0>
-28.0551

>  <SCORE.INTRA.VDW>
0.140355

>  <SCORE.INTRA.VDW.0>
-0.741888

>  <SCORE.INTRA.norm>
0.033326

>  <SCORE.RESTR>
0.597159

>  <SCORE.RESTR.CAVITY>
0.597159

>  <SCORE.RESTR.norm>
0.0542872

>  <SCORE.SYSTEM>
-21.5668

>  <SCORE.SYSTEM.CONST>
0

>  <SCORE.SYSTEM.DIHEDRAL>
5.05202

>  <SCORE.SYSTEM.POLAR>
-3.17584

>  <SCORE.SYSTEM.SOLV>
0.427707

>  <SCORE.SYSTEM.VDW>
-5.6183

>  <SCORE.SYSTEM.norm>
-1.96062

>  <SCORE.heavy>
11

>  <SCORE.norm>
-4.67719

$$$$
P135265592
 OpenBabel12072022103D
libRbt.so/2013.1/901 2013/11/27
 17 17  0  0  0  0  0  0  0  0999 V2000
   23.5778  -11.5698    5.4714 C   0  0  0  0  0  0  0  0  0  0  0  0
   24.4903  -12.2192    4.4167 C   0  0  0  0  0  0  0  0  0  0  0  0
   23.8310  -13.5588    4.0371 C   0  0  2  0  0  0  0  0  0  0  0  0
   22.3489  -13.1980    4.1947 C   0  0  0  0  0  0  0  0  0  0  0  0
   22.3113  -12.4273    5.5123 C   0  0  1  0  0  0  0  0  0  0  0  0
   22.4254  -13.3833    6.6374 N   0  3  0  0  0  0  0  0  0  0  0  0
   22.6388  -12.9118    7.5390 H   0  0  0  0  0  0  0  0  0  0  0  0
   21.4800  -13.7608    6.8480 H   0  0  0  0  0  0  0  0  0  0  0  0
   23.0754  -14.1607    6.5028 H   0  0  0  0  0  0  0  0  0  0  0  0
   24.2877  -14.5936    4.9973 N   0  0  0  0  0  0  0  0  0  0  0  0
   23.7079  -15.9369    4.7020 C   0  0  0  0  0  0  0  0  0  0  0  0
   24.7695  -17.0461    4.7124 C   0  0  0  0  0  0  0  0  0  0  0  0
   24.8307  -17.9500    3.8772 O   0  0  0  0  0  0  0  0  0  0  0  0
   25.6801  -16.9680    5.7224 N   0  0  0  0  0  0  0  0  0  0  0  0
   25.3006  -14.7030    4.8499 H   0  0  0  0  0  0  0  0  0  0  0  0
   25.5996  -16.3204    6.4972 H   0  0  0  0  0  0  0  0  0  0  0  0
   26.3727  -17.7034    5.8093 H   0  0  0  0  0  0  0  0  0  0  0  0
  1  2  1  0  0  0  0
  1  5  1  0  0  0  0
  2  3  1  0  0  0  0
  3  4  1  0  0  0  0
  3 10  1  1  0  0  0
  4  5  1  0  0  0  0
  5  6  1  1  0  0  0
  6  7  1  0  0  0  0
  6  8  1  0  0  0  0
  6  9  1  0  0  0  0
 10 11  1  0  0  0  0
 10 15  1  0  0  0  0
 11 12  1  0  0  0  0
 12 13  2  0  0  0  0
 12 14  1  0  0  0  0
 14 16  1  0  0  0  0
 14 17  1  0  0  0  0
M  CHG  1   6   1
M  END
>  <CHROM.0>
-42.99511465,-59.91340724,-50.59978535,65.82842069,-50.63983125,-50.82505165
-46.31364827,-44.57773946,-164.91132243,166.24252590

>  <CHROM.1>
-179.50271127,53.38623111,132.37374715,-137.17529347,23.86112690,-14.48837606
4.97973857,-2.23448492,-0.92776557,2.69988961

>  <Name>
P135265592

>  <RI>
0

>  <Rbt.Current_Directory>
/home/fstefaniak/projects/zuza/docking/adenine/1Y26

>  <Rbt.Executable>
rbdock ($Id: //depot/dev/client3/rdock/2013.1/src/exe/rbdock.cxx#4 $)

>  <Rbt.Library>
libRbt.so (2013.1, Build901 2013/11/27)

>  <Rbt.Parameter_File>
/home/fstefaniak/progs/rDock//data/scripts/dock_solv.prm

>  <Rbt.Receptor>
1y26.prm

>  <SCORE>
-50.1898

>  <SCORE.INTER>
-34.8882

>  <SCORE.INTER.CONST>
1

>  <SCORE.INTER.POLAR>
-5.15148

>  <SCORE.INTER.ROT>
3

>  <SCORE.INTER.SOLV>
19.9783

>  <SCORE.INTER.VDW>
-18.3467

>  <SCORE.INTER.norm>
-3.17166

>  <SCORE.INTRA>
1.83945

>  <SCORE.INTRA.DIHEDRAL>
1.08616

>  <SCORE.INTRA.DIHEDRAL.0>
2.89237

>  <SCORE.INTRA.POLAR>
0.733838

>  <SCORE.INTRA.POLAR.0>
-1.45607

>  <SCORE.INTRA.REPUL>
0

>  <SCORE.INTRA.REPUL.0>
0

>  <SCORE.INTRA.SOLV>
-3.39301

>  <SCORE.INTRA.SOLV.lig_0>
-28.0551

>  <SCORE.INTRA.VDW>
0.497823

>  <SCORE.INTRA.VDW.0>
-0.741888

>  <SCORE.INTRA.norm>
0.167222

>  <SCORE.RESTR>
1.12921

>  <SCORE.RESTR.CAVITY>
1.12921

>  <SCORE.RESTR.norm>
0.102655

>  <SCORE.SYSTEM>
-18.2703

>  <SCORE.SYSTEM.CONST>
0

>  <SCORE.SYSTEM.DIHEDRAL>
8.46834

>  <SCORE.SYSTEM.POLAR>
-3.06579

>  <SCORE.SYSTEM.SOLV>
0.648971

>  <SCORE.SYSTEM.VDW>
-4.99997

>  <SCORE.SYSTEM.norm>
-1.66093

>  <SCORE.heavy>
11

>  <SCORE.norm>
-4.56271

$$$$
P135289872
 OpenBabel12072022103D
libRbt.so/2013.1/901 2013/11/27
 16 16  0  0  0  0  0  0  0  0999 V2000
   23.3332  -14.4560    5.0279 C   0  0  0  0  0  0  0  0  0  0  0  0
   21.8782  -14.4465    4.5608 C   0  0  0  0  0  0  0  0  0  0  0  0
   21.6526  -15.7918    3.8515 C   0  0  1  0  0  0  0  0  0  0  0  0
   22.9877  -16.5375    3.9331 C   0  0  0  0  0  0  0  0  0  0  0  0
   23.6645  -15.9372    5.1609 C   0  0  1  0  0  0  0  0  0  0  0  0
   25.0851  -16.1890    5.2287 N   0  0  0  0  0  0  0  0  0  0  0  0
   20.5764  -16.5362    4.5656 N   0  3  0  0  0  0  0  0  0  0  0  0
   20.7954  -16.6929    5.5726 H   0  0  0  0  0  0  0  0  0  0  0  0
   19.7094  -15.9850    4.5964 H   0  0  0  0  0  0  0  0  0  0  0  0
   20.2273  -17.9094    4.0532 C   0  0  0  0  0  0  0  0  0  0  0  0
   19.1168  -18.4431    4.9763 C   0  0  0  0  0  0  0  0  0  0  0  0
   18.6550  -19.7549    4.4743 N   0  0  0  0  0  0  0  0  0  0  0  0
   25.4834  -15.9302    6.1317 H   0  0  0  0  0  0  0  0  0  0  0  0
   25.6025  -15.6659    4.5227 H   0  0  0  0  0  0  0  0  0  0  0  0
   17.9962  -20.1556    5.1550 H   0  0  0  0  0  0  0  0  0  0  0  0
   19.4462  -20.4116    4.5266 H   0  0  0  0  0  0  0  0  0  0  0  0
  1  2  1  0  0  0  0
  1  5  1  0  0  0  0
  2  3  1  0  0  0  0
  3  4  1  0  0  0  0
  3  7  1  1  0  0  0
  4  5  1  0  0  0  0
  5  6  1  6  0  0  0
  6 13  1  0  0  0  0
  6 14  1  0  0  0  0
  7  8  1  0  0  0  0
  7  9  1  0  0  0  0
  7 10  1  0  0  0  0
 10 11  1  0  0  0  0
 11 12  1  0  0  0  0
 12 15  1  0  0  0  0
 12 16  1  0  0  0  0
M  CHG  1   7   1
M  END
>  <CHROM.0>
-51.15985343,-54.94426217,-55.29344114,-52.75504105,-58.70132711,-177.78690144
-62.10153245,-59.40922106,-167.89985556,160.92651082

>  <CHROM.1>
-57.49761166,74.18775663,179.24287901,176.04606047,173.31170189,21.69574381
-16.64668717,4.60523837,0.62535559,-0.13908524,-0.08946698

>  <Name>
P135289872

>  <RI>
0

>  <Rbt.Current_Directory>
/home/fstefaniak/projects/zuza/docking/adenine/1Y26

>  <Rbt.Executable>
rbdock ($Id: //depot/dev/client3/rdock/2013.1/src/exe/rbdock.cxx#4 $)

>  <Rbt.Library>
libRbt.so (2013.1, Build901 2013/11/27)

>  <Rbt.Parameter_File>
/home/fstefaniak/progs/rDock//data/scripts/dock_solv.prm

>  <Rbt.Receptor>
1y26.prm

>  <SCORE>
-63.3978

>  <SCORE.INTER>
-40.0816

>  <SCORE.INTER.CONST>
1

>  <SCORE.INTER.POLAR>
-5.79126

>  <SCORE.INTER.ROT>
5

>  <SCORE.INTER.SOLV>
19.2699

>  <SCORE.INTER.VDW>
-20.7735

>  <SCORE.INTER.norm>
-4.00816

>  <SCORE.INTRA>
-1.48391

>  <SCORE.INTRA.DIHEDRAL>
-3.30745

>  <SCORE.INTRA.DIHEDRAL.0>
3.82453

>  <SCORE.INTRA.POLAR>
0.500058

>  <SCORE.INTRA.POLAR.0>
-0.500058

>  <SCORE.INTRA.REPUL>
0

>  <SCORE.INTRA.REPUL.0>
0

>  <SCORE.INTRA.SOLV>
-2.88965

>  <SCORE.INTRA.SOLV.lig_0>
-23.9648

>  <SCORE.INTRA.VDW>
-0.0855576

>  <SCORE.INTRA.VDW.0>
0.63085

>  <SCORE.INTRA.norm>
-0.148391

>  <SCORE.RESTR>
0

>  <SCORE.RESTR.CAVITY>
0

>  <SCORE.RESTR.norm>
0

>  <SCORE.SYSTEM>
-21.8324

>  <SCORE.SYSTEM.CONST>
0

>  <SCORE.SYSTEM.DIHEDRAL>
5.15341

>  <SCORE.SYSTEM.POLAR>
-3.40856

>  <SCORE.SYSTEM.SOLV>
0.511002

>  <SCORE.SYSTEM.VDW>
-5.08117

>  <SCORE.SYSTEM.norm>
-2.18324

>  <SCORE.heavy>
10

>  <SCORE.norm>
-6.33978

$$$$
P135289872
 OpenBabel12072022103D
libRbt.so/2013.1/901 2013/11/27
 16 16  0  0  0  0  0  0  0  0999 V2000
   23.1768  -14.4369    4.8485 C   0  0  0  0  0  0  0  0  0  0  0  0
   21.7284  -14.5104    4.3670 C   0  0  0  0  0  0  0  0  0  0  0  0
   21.5439  -15.9255    3.7948 C   0  0  1  0  0  0  0  0  0  0  0  0
   22.8949  -16.6260    3.9659 C   0  0  0  0  0  0  0  0  0  0  0  0
   23.5410  -15.8885    5.1341 C   0  0  1  0  0  0  0  0  0  0  0  0
   24.9661  -16.0971    5.2425 N   0  0  0  0  0  0  0  0  0  0  0  0
   20.4761  -16.6206    4.5686 N   0  3  0  0  0  0  0  0  0  0  0  0
   20.6442  -16.5971    5.5971 H   0  0  0  0  0  0  0  0  0  0  0  0
   19.5758  -16.1352    4.4661 H   0  0  0  0  0  0  0  0  0  0  0  0
   20.2452  -18.0798    4.2729 C   0  0  0  0  0  0  0  0  0  0  0  0
   19.0215  -18.4991    5.1078 C   0  0  0  0  0  0  0  0  0  0  0  0
   19.2201  -19.8774    5.6044 N   0  0  0  0  0  0  0  0  0  0  0  0
   25.3455  -15.7425    6.1208 H   0  0  0  0  0  0  0  0  0  0  0  0
   25.4808  -15.6317    4.4953 H   0  0  0  0  0  0  0  0  0  0  0  0
   19.7239  -20.4171    4.8883 H   0  0  0  0  0  0  0  0  0  0  0  0
   18.3026  -20.3444    5.6215 H   0  0  0  0  0  0  0  0  0  0  0  0
  1  2  1  0  0  0  0
  1  5  1  0  0  0  0
  2  3  1  0  0  0  0
  3  4  1  0  0  0  0
  3  7  1  1  0  0  0
  4  5  1  0  0  0  0
  5  6  1  6  0  0  0
  6 13  1  0  0  0  0
  6 14  1  0  0  0  0
  7  8  1  0  0  0  0
  7  9  1  0  0  0  0
  7 10  1  0  0  0  0
 10 11  1  0  0  0  0
 11 12  1  0  0  0  0
 12 15  1  0  0  0  0
 12 16  1  0  0  0  0
M  CHG  1   7   1
M  END
>  <CHROM.0>
-47.30966983,-62.76767541,-57.99979633,62.65936658,-173.50544577,-61.04076388
-62.14989372,-179.39086225,-168.80516605,160.30418960

>  <CHROM.1>
-52.50204976,74.44131979,-174.95902192,-143.03477225,-35.31175425,21.66232848
-16.70070274,4.71490995,0.67586337,-0.16913103,-0.28730486

>  <Name>
P135289872

>  <RI>
0

>  <Rbt.Current_Directory>
/home/fstefaniak/projects/zuza/docking/adenine/1Y26

>  <Rbt.Executable>
rbdock ($Id: //depot/dev/client3/rdock/2013.1/src/exe/rbdock.cxx#4 $)

>  <Rbt.Library>
libRbt.so (2013.1, Build901 2013/11/27)

>  <Rbt.Parameter_File>
/home/fstefaniak/progs/rDock//data/scripts/dock_solv.prm

>  <Rbt.Receptor>
1y26.prm

>  <SCORE>
-59.1862

>  <SCORE.INTER>
-40.9342

>  <SCORE.INTER.CONST>
1

>  <SCORE.INTER.POLAR>
-6.08511

>  <SCORE.INTER.ROT>
5

>  <SCORE.INTER.SOLV>
19.3003

>  <SCORE.INTER.VDW>
-20.3725

>  <SCORE.INTER.norm>
-4.09342

>  <SCORE.INTRA>
1.59012

>  <SCORE.INTRA.DIHEDRAL>
1.66343

>  <SCORE.INTRA.DIHEDRAL.0>
3.82453

>  <SCORE.INTRA.POLAR>
0.500058

>  <SCORE.INTRA.POLAR.0>
-0.500058

>  <SCORE.INTRA.REPUL>
0

>  <SCORE.INTRA.REPUL.0>
0

>  <SCORE.INTRA.SOLV>
-2.7552

>  <SCORE.INTRA.SOLV.lig_0>
-23.9648

>  <SCORE.INTRA.VDW>
0.435805

>  <SCORE.INTRA.VDW.0>
0.63085

>  <SCORE.INTRA.norm>
0.159012

>  <SCORE.RESTR>
0

>  <SCORE.RESTR.CAVITY>
0

>  <SCORE.RESTR.norm>
0

>  <SCORE.SYSTEM>
-19.8421

>  <SCORE.SYSTEM.CONST>
0

>  <SCORE.SYSTEM.DIHEDRAL>
5.32694

>  <SCORE.SYSTEM.POLAR>
-2.89602

>  <SCORE.SYSTEM.SOLV>
0.210484

>  <SCORE.SYSTEM.VDW>
-5.42052

>  <SCORE.SYSTEM.norm>
-1.98421

>  <SCORE.heavy>
10

>  <SCORE.norm>
-5.91862

$$$$
P135289872
 OpenBabel12072022103D
libRbt.so/2013.1/901 2013/11/27
 16 16  0  0  0  0  0  0  0  0999 V2000
   23.2618  -14.4127    4.9721 C   0  0  0  0  0  0  0  0  0  0  0  0
   21.8147  -14.4182    4.4813 C   0  0  0  0  0  0  0  0  0  0  0  0
   21.6064  -15.7771    3.7929 C   0  0  1  0  0  0  0  0  0  0  0  0
   22.9431  -16.5152    3.9098 C   0  0  0  0  0  0  0  0  0  0  0  0
   23.5972  -15.8897    5.1374 C   0  0  1  0  0  0  0  0  0  0  0  0
   25.0175  -16.1339    5.2329 N   0  0  0  0  0  0  0  0  0  0  0  0
   20.5219  -16.5134    4.5027 N   0  3  0  0  0  0  0  0  0  0  0  0
   20.7469  -16.6942    5.5044 H   0  0  0  0  0  0  0  0  0  0  0  0
   19.6666  -15.9454    4.5526 H   0  0  0  0  0  0  0  0  0  0  0  0
   20.1400  -17.8689    3.9672 C   0  0  0  0  0  0  0  0  0  0  0  0
   19.1669  -18.4779    4.9932 C   0  0  0  0  0  0  0  0  0  0  0  0
   18.6497  -19.7610    4.4716 N   0  0  0  0  0  0  0  0  0  0  0  0
   25.2465  -17.1264    5.1737 H   0  0  0  0  0  0  0  0  0  0  0  0
   25.4071  -15.7983    6.1134 H   0  0  0  0  0  0  0  0  0  0  0  0
   17.9984  -20.1591    5.1609 H   0  0  0  0  0  0  0  0  0  0  0  0
   19.4210  -20.4429    4.4838 H   0  0  0  0  0  0  0  0  0  0  0  0
  1  2  1  0  0  0  0
  1  5  1  0  0  0  0
  2  3  1  0  0  0  0
  3  4  1  0  0  0  0
  3  7  1  1  0  0  0
  4  5  1  0  0  0  0
  5  6  1  6  0  0  0
  6 13  1  0  0  0  0
  6 14  1  0  0  0  0
  7  8  1  0  0  0  0
  7  9  1  0  0  0  0
  7 10  1  0  0  0  0
 10 11  1  0  0  0  0
 11 12  1  0  0  0  0
 12 15  1  0  0  0  0
 12 16  1  0  0  0  0
M  CHG  1   7   1
M  END
>  <CHROM.0>
60.39395448,-60.91994419,-59.42090889,-52.02590929,-171.11903467,-62.21112677
-55.57204296,-175.92744483,-165.65346627,160.83898478

>  <CHROM.1>
-60.47004160,-169.66166196,171.83980480,174.77575710,-179.79689179,21.64822722
-16.63366737,4.57311752,0.63246663,-0.16834570,-0.12473991

>  <Name>
P135289872

>  <RI>
0

>  <Rbt.Current_Directory>
/home/fstefaniak/projects/zuza/docking/adenine/1Y26

>  <Rbt.Executable>
rbdock ($Id: //depot/dev/client3/rdock/2013.1/src/exe/rbdock.cxx#4 $)

>  <Rbt.Library>
libRbt.so (2013.1, Build901 2013/11/27)

>  <Rbt.Parameter_File>
/home/fstefaniak/progs/rDock//data/scripts/dock_solv.prm

>  <Rbt.Receptor>
1y26.prm

>  <SCORE>
-59.1345

>  <SCORE.INTER>
-35.9749

>  <SCORE.INTER.CONST>
1

>  <SCORE.INTER.POLAR>
-5.01258

>  <SCORE.INTER.ROT>
5

>  <SCORE.INTER.SOLV>
19.0849

>  <SCORE.INTER.VDW>
-20.5696

>  <SCORE.INTER.norm>
-3.59749

>  <SCORE.INTRA>
-1.52353

>  <SCORE.INTRA.DIHEDRAL>
-3.20835

>  <SCORE.INTRA.DIHEDRAL.0>
3.82453

>  <SCORE.INTRA.POLAR>
0.500058

>  <SCORE.INTRA.POLAR.0>
-0.500058

>  <SCORE.INTRA.REPUL>
0

>  <SCORE.INTRA.REPUL.0>
0

>  <SCORE.INTRA.SOLV>
-2.86748

>  <SCORE.INTRA.SOLV.lig_0>
-23.9648

>  <SCORE.INTRA.VDW>
-0.185809

>  <SCORE.INTRA.VDW.0>
0.63085

>  <SCORE.INTRA.norm>
-0.152353

>  <SCORE.RESTR>
0

>  <SCORE.RESTR.CAVITY>
0

>  <SCORE.RESTR.norm>
0

>  <SCORE.SYSTEM>
-21.636

>  <SCORE.SYSTEM.CONST>
0

>  <SCORE.SYSTEM.DIHEDRAL>
5.36131

>  <SCORE.SYSTEM.POLAR>
-3.21671

>  <SCORE.SYSTEM.SOLV>
0.260714

>  <SCORE.SYSTEM.VDW>
-5.57566

>  <SCORE.SYSTEM.norm>
-2.1636

>  <SCORE.heavy>
10

>  <SCORE.norm>
-5.91345

$$$$
P135363290
 OpenBabel12072022103D
libRbt.so/2013.1/901 2013/11/27
 17 17  0  0  0  0  0  0  0  0999 V2000
   22.1570  -13.3173    6.2169 C   0  0  0  0  0  0  0  0  0  0  0  0
   22.6317  -13.2042    4.8411 N   0  0  0  0  0  0  0  0  0  0  0  0
   24.0840  -13.0720    4.7396 C   0  0  0  0  0  0  0  0  0  0  0  0
   24.8272  -14.3960    4.9242 C   0  0  0  0  0  0  0  0  0  0  0  0
   24.2804  -15.5313    4.0289 C   0  0  0  0  0  0  0  0  0  0  0  0
   22.7416  -15.5951    4.1354 C   0  0  0  0  0  0  0  0  0  0  0  0
   22.0859  -14.2260    3.9504 C   0  0  0  0  0  0  0  0  0  0  0  0
   24.8992  -16.8512    4.5096 C   0  0  0  0  0  0  0  0  0  0  0  0
   25.5182  -16.9514    5.6670 N   0  3  0  0  0  0  0  0  0  0  0  0
   25.9290  -17.8245    5.9748 H   0  0  0  0  0  0  0  0  0  0  0  0
   25.6214  -16.1560    6.2884 H   0  0  0  0  0  0  0  0  0  0  0  0
   24.7800  -17.8608    3.6730 N   0  0  0  0  0  0  0  0  0  0  0  0
   24.6710  -15.2754    2.6030 N   0  0  0  0  0  0  0  0  0  0  0  0
   24.2993  -17.6485    2.7936 H   0  0  0  0  0  0  0  0  0  0  0  0
   25.1407  -18.7897    3.8317 H   0  0  0  0  0  0  0  0  0  0  0  0
   24.9980  -16.1473    2.1727 H   0  0  0  0  0  0  0  0  0  0  0  0
   25.5011  -14.6737    2.5738 H   0  0  0  0  0  0  0  0  0  0  0  0
  1  2  1  0  0  0  0
  2  3  1  0  0  0  0
  2  7  1  0  0  0  0
  3  4  1  0  0  0  0
  4  5  1  0  0  0  0
  5  6  1  0  0  0  0
  5  8  1  0  0  0  0
  5 13  1  0  0  0  0
  6  7  1  0  0  0  0
  8  9  2  0  0  0  0
  8 12  1  0  0  0  0
  9 10  1  0  0  0  0
  9 11  1  0  0  0  0
 12 14  1  0  0  0  0
 12 15  1  0  0  0  0
 13 16  1  0  0  0  0
 13 17  1  0  0  0  0
M  CHG  1   9   1
M  END
>  <CHROM.0>
-50.42422001,-178.18677240,-52.55528920,-52.23732441,-58.75288812,-57.49581772
-56.28953381,-175.84354289,-167.78067440,160.78425341

>  <CHROM.1>
13.96614540,136.34123751,23.90277108,-15.14454641,4.47668611,-2.56408171
0.88719597,-2.03319614

>  <Name>
P135363290

>  <RI>
0

>  <Rbt.Current_Directory>
/home/fstefaniak/projects/zuza/docking/adenine/1Y26

>  <Rbt.Executable>
rbdock ($Id: //depot/dev/client3/rdock/2013.1/src/exe/rbdock.cxx#4 $)

>  <Rbt.Library>
libRbt.so (2013.1, Build901 2013/11/27)

>  <Rbt.Parameter_File>
/home/fstefaniak/progs/rDock//data/scripts/dock_solv.prm

>  <Rbt.Receptor>
1y26.prm

>  <SCORE>
-54.5979

>  <SCORE.INTER>
-36.3279

>  <SCORE.INTER.CONST>
1

>  <SCORE.INTER.POLAR>
-5.81468

>  <SCORE.INTER.ROT>
2

>  <SCORE.INTER.SOLV>
21.8084

>  <SCORE.INTER.VDW>
-17.0392

>  <SCORE.INTER.norm>
-3.30254

>  <SCORE.INTRA>
4.47198

>  <SCORE.INTRA.DIHEDRAL>
1.06565

>  <SCORE.INTRA.DIHEDRAL.0>
1.90138

>  <SCORE.INTRA.POLAR>
0.276813

>  <SCORE.INTRA.POLAR.0>
-0.276813

>  <SCORE.INTRA.REPUL>
0

>  <SCORE.INTRA.REPUL.0>
0

>  <SCORE.INTRA.SOLV>
0.091313

>  <SCORE.INTRA.SOLV.lig_0>
-29.7492

>  <SCORE.INTRA.VDW>
2.95233

>  <SCORE.INTRA.VDW.0>
-0.359228

>  <SCORE.INTRA.norm>
0.406544

>  <SCORE.RESTR>
0

>  <SCORE.RESTR.CAVITY>
0

>  <SCORE.RESTR.norm>
0

>  <SCORE.SYSTEM>
-22.742

>  <SCORE.SYSTEM.CONST>
0

>  <SCORE.SYSTEM.DIHEDRAL>
5.45985

>  <SCORE.SYSTEM.POLAR>
-3.46542

>  <SCORE.SYSTEM.SOLV>
0.411763

>  <SCORE.SYSTEM.VDW>
-5.56715

>  <SCORE.SYSTEM.norm>
-2.06745

>  <SCORE.heavy>
11

>  <SCORE.norm>
-4.96345

$$$$
P135363290
 OpenBabel12072022103D
libRbt.so/2013.1/901 2013/11/27
 17 17  0  0  0  0  0  0  0  0999 V2000
   22.1716  -13.2892    6.1971 C   0  0  0  0  0  0  0  0  0  0  0  0
   22.6570  -13.1840    4.8244 N   0  0  0  0  0  0  0  0  0  0  0  0
   24.1108  -13.0614    4.7330 C   0  0  0  0  0  0  0  0  0  0  0  0
   24.8441  -14.3894    4.9276 C   0  0  0  0  0  0  0  0  0  0  0  0
   24.2967  -15.5243    4.0322 C   0  0  0  0  0  0  0  0  0  0  0  0
   22.7568  -15.5780    4.1277 C   0  0  0  0  0  0  0  0  0  0  0  0
   22.1111  -14.2054    3.9332 C   0  0  0  0  0  0  0  0  0  0  0  0
   24.9036  -16.8464    4.5220 C   0  0  0  0  0  0  0  0  0  0  0  0
   25.5326  -16.9414    5.6744 N   0  3  0  0  0  0  0  0  0  0  0  0
   25.9354  -17.8161    5.9881 H   0  0  0  0  0  0  0  0  0  0  0  0
   25.6518  -16.1404    6.2857 H   0  0  0  0  0  0  0  0  0  0  0  0
   24.7635  -17.8638    3.6981 N   0  0  0  0  0  0  0  0  0  0  0  0
   24.6993  -15.2758    2.6084 N   0  0  0  0  0  0  0  0  0  0  0  0
   24.2769  -17.6554    2.8211 H   0  0  0  0  0  0  0  0  0  0  0  0
   25.1140  -18.7954    3.8639 H   0  0  0  0  0  0  0  0  0  0  0  0
   24.9591  -16.1628    2.1631 H   0  0  0  0  0  0  0  0  0  0  0  0
   25.5714  -14.7368    2.5839 H   0  0  0  0  0  0  0  0  0  0  0  0
  1  2  1  0  0  0  0
  2  3  1  0  0  0  0
  2  7  1  0  0  0  0
  3  4  1  0  0  0  0
  4  5  1  0  0  0  0
  5  6  1  0  0  0  0
  5  8  1  0  0  0  0
  5 13  1  0  0  0  0
  6  7  1  0  0  0  0
  8  9  2  0  0  0  0
  8 12  1  0  0  0  0
  9 10  1  0  0  0  0
  9 11  1  0  0  0  0
 12 14  1  0  0  0  0
 12 15  1  0  0  0  0
 13 16  1  0  0  0  0
 13 17  1  0  0  0  0
M  CHG  1   9   1
M  END
>  <CHROM.0>
-47.32050440,-176.55127958,-53.82683838,-53.08195109,-174.52166016,-59.63964266
-60.19415607,-174.52829596,-165.75286318,161.19682444

>  <CHROM.1>
12.83282656,140.42345488,23.91795492,-15.13409957,4.47582192,-2.54997369
0.88590487,-2.05846405

>  <Name>
P135363290

>  <RI>
0

>  <Rbt.Current_Directory>
/home/fstefaniak/projects/zuza/docking/adenine/1Y26

>  <Rbt.Executable>
rbdock ($Id: //depot/dev/client3/rdock/2013.1/src/exe/rbdock.cxx#4 $)

>  <Rbt.Library>
libRbt.so (2013.1, Build901 2013/11/27)

>  <Rbt.Parameter_File>
/home/fstefaniak/progs/rDock//data/scripts/dock_solv.prm

>  <Rbt.Receptor>
1y26.prm

>  <SCORE>
-54.4751

>  <SCORE.INTER>
-36.069

>  <SCORE.INTER.CONST>
1

>  <SCORE.INTER.POLAR>
-5.78561

>  <SCORE.INTER.ROT>
2

>  <SCORE.INTER.SOLV>
21.8053

>  <SCORE.INTER.VDW>
-16.9624

>  <SCORE.INTER.norm>
-3.279

>  <SCORE.INTRA>
4.31529

>  <SCORE.INTRA.DIHEDRAL>
0.83077

>  <SCORE.INTRA.DIHEDRAL.0>
1.90138

>  <SCORE.INTRA.POLAR>
0.276813

>  <SCORE.INTRA.POLAR.0>
-0.276813

>  <SCORE.INTRA.REPUL>
0

>  <SCORE.INTRA.REPUL.0>
0

>  <SCORE.INTRA.SOLV>
0.10011

>  <SCORE.INTRA.SOLV.lig_0>
-29.7492

>  <SCORE.INTRA.VDW>
2.90869

>  <SCORE.INTRA.VDW.0>
-0.359228

>  <SCORE.INTRA.norm>
0.3923

>  <SCORE.RESTR>
0

>  <SCORE.RESTR.CAVITY>
0

>  <SCORE.RESTR.norm>
0

>  <SCORE.SYSTEM>
-22.7213

>  <SCORE.SYSTEM.CONST>
0

>  <SCORE.SYSTEM.DIHEDRAL>
5.94425

>  <SCORE.SYSTEM.POLAR>
-3.47968

>  <SCORE.SYSTEM.SOLV>
0.232378

>  <SCORE.SYSTEM.VDW>
-5.60747

>  <SCORE.SYSTEM.norm>
-2.06557

>  <SCORE.heavy>
11

>  <SCORE.norm>
-4.95228

$$$$
P135363290
 OpenBabel12072022103D
libRbt.so/2013.1/901 2013/11/27
 17 17  0  0  0  0  0  0  0  0999 V2000
   22.1559  -13.3121    6.2159 C   0  0  0  0  0  0  0  0  0  0  0  0
   22.6313  -13.1962    4.8406 N   0  0  0  0  0  0  0  0  0  0  0  0
   24.0834  -13.0613    4.7403 C   0  0  0  0  0  0  0  0  0  0  0  0
   24.8289  -14.3841    4.9235 C   0  0  0  0  0  0  0  0  0  0  0  0
   24.2848  -15.5191    4.0261 C   0  0  0  0  0  0  0  0  0  0  0  0
   22.7460  -15.5859    4.1315 C   0  0  0  0  0  0  0  0  0  0  0  0
   22.0879  -14.2177    3.9480 C   0  0  0  0  0  0  0  0  0  0  0  0
   24.9057  -16.8386    4.5054 C   0  0  0  0  0  0  0  0  0  0  0  0
   25.5229  -16.9397    5.6636 N   0  3  0  0  0  0  0  0  0  0  0  0
   25.9351  -17.8125    5.9704 H   0  0  0  0  0  0  0  0  0  0  0  0
   25.6234  -16.1453    6.2868 H   0  0  0  0  0  0  0  0  0  0  0  0
   24.7900  -17.8469    3.6666 N   0  0  0  0  0  0  0  0  0  0  0  0
   24.6759  -15.2605    2.6010 N   0  0  0  0  0  0  0  0  0  0  0  0
   24.3104  -17.6339    2.7869 H   0  0  0  0  0  0  0  0  0  0  0  0
   25.1524  -18.7753    3.8242 H   0  0  0  0  0  0  0  0  0  0  0  0
   25.0376  -16.1233    2.1800 H   0  0  0  0  0  0  0  0  0  0  0  0
   25.4836  -14.6291    2.5724 H   0  0  0  0  0  0  0  0  0  0  0  0
  1  2  1  0  0  0  0
  2  3  1  0  0  0  0
  2  7  1  0  0  0  0
  3  4  1  0  0  0  0
  4  5  1  0  0  0  0
  5  6  1  0  0  0  0
  5  8  1  0  0  0  0
  5 13  1  0  0  0  0
  6  7  1  0  0  0  0
  8  9  2  0  0  0  0
  8 12  1  0  0  0  0
  9 10  1  0  0  0  0
  9 11  1  0  0  0  0
 12 14  1  0  0  0  0
 12 15  1  0  0  0  0
 13 16  1  0  0  0  0
 13 17  1  0  0  0  0
M  CHG  1   9   1
M  END
>  <CHROM.0>
-47.62720657,-176.97416559,-57.09938022,-52.24877065,-56.69358480,-57.64098635
-60.37062064,-51.18316968,-167.77642336,160.59179588

>  <CHROM.1>
14.03186300,134.24437369,23.90622531,-15.13350440,4.47432052,-2.56850919
0.88695994,-2.02732714

>  <Name>
P135363290

>  <RI>
0

>  <Rbt.Current_Directory>
/home/fstefaniak/projects/zuza/docking/adenine/1Y26

>  <Rbt.Executable>
rbdock ($Id: //depot/dev/client3/rdock/2013.1/src/exe/rbdock.cxx#4 $)

>  <Rbt.Library>
libRbt.so (2013.1, Build901 2013/11/27)

>  <Rbt.Parameter_File>
/home/fstefaniak/progs/rDock//data/scripts/dock_solv.prm

>  <Rbt.Receptor>
1y26.prm

>  <SCORE>
-54.2178

>  <SCORE.INTER>
-36.2178

>  <SCORE.INTER.CONST>
1

>  <SCORE.INTER.POLAR>
-5.78205

>  <SCORE.INTER.ROT>
2

>  <SCORE.INTER.SOLV>
21.8109

>  <SCORE.INTER.VDW>
-17.0753

>  <SCORE.INTER.norm>
-3.29253

>  <SCORE.INTRA>
4.43045

>  <SCORE.INTRA.DIHEDRAL>
1.17665

>  <SCORE.INTRA.DIHEDRAL.0>
1.90138

>  <SCORE.INTRA.POLAR>
0.276813

>  <SCORE.INTRA.POLAR.0>
-0.276813

>  <SCORE.INTRA.REPUL>
0

>  <SCORE.INTRA.REPUL.0>
0

>  <SCORE.INTRA.SOLV>
0.0836261

>  <SCORE.INTRA.SOLV.lig_0>
-29.7492

>  <SCORE.INTRA.VDW>
2.85915

>  <SCORE.INTRA.VDW.0>
-0.359228

>  <SCORE.INTRA.norm>
0.402769

>  <SCORE.RESTR>
0

>  <SCORE.RESTR.CAVITY>
0

>  <SCORE.RESTR.norm>
0

>  <SCORE.SYSTEM>
-22.4304

>  <SCORE.SYSTEM.CONST>
0

>  <SCORE.SYSTEM.DIHEDRAL>
5.82728

>  <SCORE.SYSTEM.POLAR>
-3.50492

>  <SCORE.SYSTEM.SOLV>
0.609492

>  <SCORE.SYSTEM.VDW>
-5.41616

>  <SCORE.SYSTEM.norm>
-2.03913

>  <SCORE.heavy>
11

>  <SCORE.norm>
-4.92889

$$$$
P135416025
 OpenBabel12072022103D
libRbt.so/2013.1/901 2013/11/27
 14 14  0  0  0  0  0  0  0  0999 V2000
   23.3830  -15.8109    4.6063 C   0  0  0  0  0  0  0  0  0  0  0  0
   21.8928  -15.8708    4.3906 C   0  0  0  0  0  0  0  0  0  0  0  0
   21.2261  -14.8412    4.2972 O   0  0  0  0  0  0  0  0  0  0  0  0
   21.2816  -17.2571    4.3418 C   0  0  0  0  0  0  0  0  0  0  0  0
   19.8492  -17.2918    4.8849 C   0  0  2  0  0  0  0  0  0  0  0  0
   19.7601  -17.8156    6.3271 C   0  0  0  0  0  0  0  0  0  0  0  0
   19.5365  -19.3121    6.1556 C   0  0  0  0  0  0  0  0  0  0  0  0
   18.6269  -19.3781    4.9414 C   0  0  0  0  0  0  0  0  0  0  0  0
   19.0232  -18.2408    4.1250 N   0  0  0  0  0  0  0  0  0  0  0  0
   18.5197  -17.9062    2.8989 C   0  0  0  0  0  0  0  0  0  0  0  0
   18.7788  -16.8647    2.3067 O   0  0  0  0  0  0  0  0  0  0  0  0
   17.6715  -18.8048    2.3435 N   0  0  0  0  0  0  0  0  0  0  0  0
   17.9567  -19.2520    1.4875 H   0  0  0  0  0  0  0  0  0  0  0  0
   16.7073  -18.4981    2.3602 H   0  0  0  0  0  0  0  0  0  0  0  0
  1  2  1  0  0  0  0
  2  3  2  0  0  0  0
  2  4  1  0  0  0  0
  5  6  1  0  0  0  0
  5  9  1  0  0  0  0
  5  4  1  6  0  0  0
  6  7  1  0  0  0  0
  7  8  1  0  0  0  0
  8  9  1  0  0  0  0
  9 10  1  0  0  0  0
 10 11  2  0  0  0  0
 10 12  1  0  0  0  0
 12 13  1  0  0  0  0
 12 14  1  0  0  0  0
M  END
>  <CHROM.0>
-47.21418460,-60.83517870,-52.77199947,-52.42551977,-56.48311503,-59.74375055
-56.29001424,-176.53548753,-167.40864461,160.35807022

>  <CHROM.1>
148.29089680,-100.36349683,-115.77404732,19.94775588,-17.43365460,4.26441749
-0.16827525,0.65493685,2.15922386

>  <Name>
P135416025

>  <RI>
0

>  <Rbt.Current_Directory>
/home/fstefaniak/projects/zuza/docking/adenine/1Y26

>  <Rbt.Executable>
rbdock ($Id: //depot/dev/client3/rdock/2013.1/src/exe/rbdock.cxx#4 $)

>  <Rbt.Library>
libRbt.so (2013.1, Build901 2013/11/27)

>  <Rbt.Parameter_File>
/home/fstefaniak/progs/rDock//data/scripts/dock_solv.prm

>  <Rbt.Receptor>
1y26.prm

>  <SCORE>
-44.8087

>  <SCORE.INTER>
-23.722

>  <SCORE.INTER.CONST>
1

>  <SCORE.INTER.POLAR>
-1.92529

>  <SCORE.INTER.ROT>
3

>  <SCORE.INTER.SOLV>
13.7851

>  <SCORE.INTER.VDW>
-19.5921

>  <SCORE.INTER.norm>
-1.97683

>  <SCORE.INTRA>
1.53953

>  <SCORE.INTRA.DIHEDRAL>
4.15952

>  <SCORE.INTRA.DIHEDRAL.0>
2.19418

>  <SCORE.INTRA.POLAR>
0

>  <SCORE.INTRA.POLAR.0>
0

>  <SCORE.INTRA.REPUL>
0

>  <SCORE.INTRA.REPUL.0>
0

>  <SCORE.INTRA.SOLV>
0.0957546

>  <SCORE.INTRA.SOLV.lig_0>
-13.9362

>  <SCORE.INTRA.VDW>
-0.588107

>  <SCORE.INTRA.VDW.0>
-0.392096

>  <SCORE.INTRA.norm>
0.128294

>  <SCORE.RESTR>
0

>  <SCORE.RESTR.CAVITY>
0

>  <SCORE.RESTR.norm>
0

>  <SCORE.SYSTEM>
-22.6262

>  <SCORE.SYSTEM.CONST>
0

>  <SCORE.SYSTEM.DIHEDRAL>
5.84855

>  <SCORE.SYSTEM.POLAR>
-3.51658

>  <SCORE.SYSTEM.SOLV>
0.468082

>  <SCORE.SYSTEM.VDW>
-5.46776

>  <SCORE.SYSTEM.norm>
-1.88552

>  <SCORE.heavy>
12

>  <SCORE.norm>
-3.73406

$$$$
P135416025
 OpenBabel12072022103D
libRbt.so/2013.1/901 2013/11/27
 14 14  0  0  0  0  0  0  0  0999 V2000
   23.5650  -16.1215    4.4311 C   0  0  0  0  0  0  0  0  0  0  0  0
   22.0656  -16.0237    4.5440 C   0  0  0  0  0  0  0  0  0  0  0  0
   21.5283  -14.9931    4.9473 O   0  0  0  0  0  0  0  0  0  0  0  0
   21.2866  -17.2708    4.1755 C   0  0  0  0  0  0  0  0  0  0  0  0
   19.8681  -17.2751    4.7549 C   0  0  2  0  0  0  0  0  0  0  0  0
   19.8120  -17.7435    6.2177 C   0  0  0  0  0  0  0  0  0  0  0  0
   19.5754  -19.2438    6.1086 C   0  0  0  0  0  0  0  0  0  0  0  0
   18.6353  -19.3494    4.9207 C   0  0  0  0  0  0  0  0  0  0  0  0
   19.0178  -18.2465    4.0522 N   0  0  0  0  0  0  0  0  0  0  0  0
   18.4857  -17.9550    2.8272 C   0  0  0  0  0  0  0  0  0  0  0  0
   18.7360  -16.9384    2.1897 O   0  0  0  0  0  0  0  0  0  0  0  0
   17.6186  -18.8681    2.3275 N   0  0  0  0  0  0  0  0  0  0  0  0
   17.8856  -19.3590    1.4896 H   0  0  0  0  0  0  0  0  0  0  0  0
   16.6585  -18.5489    2.3435 H   0  0  0  0  0  0  0  0  0  0  0  0
  1  2  1  0  0  0  0
  2  3  2  0  0  0  0
  2  4  1  0  0  0  0
  5  6  1  0  0  0  0
  5  9  1  0  0  0  0
  5  4  1  6  0  0  0
  6  7  1  0  0  0  0
  7  8  1  0  0  0  0
  8  9  1  0  0  0  0
  9 10  1  0  0  0  0
 10 11  2  0  0  0  0
 10 12  1  0  0  0  0
 12 13  1  0  0  0  0
 12 14  1  0  0  0  0
M  END
>  <CHROM.0>
-51.84006453,-60.83990973,-50.22156799,-51.38399994,-53.61012659,-51.33994161
-51.20470678,-49.99102558,-165.42315513,161.02270724

>  <CHROM.1>
160.21143600,-82.25526901,-114.90313837,20.00252340,-17.48905068,4.25917647
0.01873437,-0.63336941,-1.06265780

>  <Name>
P135416025

>  <RI>
0

>  <Rbt.Current_Directory>
/home/fstefaniak/projects/zuza/docking/adenine/1Y26

>  <Rbt.Executable>
rbdock ($Id: //depot/dev/client3/rdock/2013.1/src/exe/rbdock.cxx#4 $)

>  <Rbt.Library>
libRbt.so (2013.1, Build901 2013/11/27)

>  <Rbt.Parameter_File>
/home/fstefaniak/progs/rDock//data/scripts/dock_solv.prm

>  <Rbt.Receptor>
1y26.prm

>  <SCORE>
-44.7063

>  <SCORE.INTER>
-23.0998

>  <SCORE.INTER.CONST>
1

>  <SCORE.INTER.POLAR>
-1.94341

>  <SCORE.INTER.ROT>
3

>  <SCORE.INTER.SOLV>
13.7871

>  <SCORE.INTER.VDW>
-19.1175

>  <SCORE.INTER.norm>
-1.92498

>  <SCORE.INTRA>
0.253824

>  <SCORE.INTRA.DIHEDRAL>
1.37128

>  <SCORE.INTRA.DIHEDRAL.0>
2.19418

>  <SCORE.INTRA.POLAR>
0

>  <SCORE.INTRA.POLAR.0>
0

>  <SCORE.INTRA.REPUL>
0

>  <SCORE.INTRA.REPUL.0>
0

>  <SCORE.INTRA.SOLV>
-0.0471607

>  <SCORE.INTRA.SOLV.lig_0>
-13.9362

>  <SCORE.INTRA.VDW>
-0.408236

>  <SCORE.INTRA.VDW.0>
-0.392096

>  <SCORE.INTRA.norm>
0.021152

>  <SCORE.RESTR>
0

>  <SCORE.RESTR.CAVITY>
0

>  <SCORE.RESTR.norm>
0

>  <SCORE.SYSTEM>
-21.8603

>  <SCORE.SYSTEM.CONST>
0

>  <SCORE.SYSTEM.DIHEDRAL>
6.95932

>  <SCORE.SYSTEM.POLAR>
-3.5971

>  <SCORE.SYSTEM.SOLV>
0.704373

>  <SCORE.SYSTEM.VDW>
-5.13779

>  <SCORE.SYSTEM.norm>
-1.82169

>  <SCORE.heavy>
12

>  <SCORE.norm>
-3.72552

$$$$
P135416025
 OpenBabel12072022103D
libRbt.so/2013.1/901 2013/11/27
 14 14  0  0  0  0  0  0  0  0999 V2000
   23.1518  -15.3850    4.5098 C   0  0  0  0  0  0  0  0  0  0  0  0
   21.6805  -15.7012    4.4328 C   0  0  0  0  0  0  0  0  0  0  0  0
   20.8520  -14.8113    4.2457 O   0  0  0  0  0  0  0  0  0  0  0  0
   21.2990  -17.1534    4.6410 C   0  0  0  0  0  0  0  0  0  0  0  0
   19.8272  -17.3288    5.0295 C   0  0  2  0  0  0  0  0  0  0  0  0
   19.6374  -17.9131    6.4383 C   0  0  0  0  0  0  0  0  0  0  0  0
   19.5640  -19.4154    6.2003 C   0  0  0  0  0  0  0  0  0  0  0  0
   18.7923  -19.5109    4.8959 C   0  0  0  0  0  0  0  0  0  0  0  0
   19.1691  -18.3139    4.1594 N   0  0  0  0  0  0  0  0  0  0  0  0
   18.7661  -17.9759    2.8977 C   0  0  0  0  0  0  0  0  0  0  0  0
   18.9922  -16.8944    2.3669 O   0  0  0  0  0  0  0  0  0  0  0  0
   18.0607  -18.9204    2.2301 N   0  0  0  0  0  0  0  0  0  0  0  0
   18.5704  -19.5537    1.6357 H   0  0  0  0  0  0  0  0  0  0  0  0
   17.2033  -18.5617    1.8300 H   0  0  0  0  0  0  0  0  0  0  0  0
  1  2  1  0  0  0  0
  2  3  2  0  0  0  0
  2  4  1  0  0  0  0
  5  6  1  0  0  0  0
  5  9  1  0  0  0  0
  5  4  1  6  0  0  0
  6  7  1  0  0  0  0
  7  8  1  0  0  0  0
  8  9  1  0  0  0  0
  9 10  1  0  0  0  0
 10 11  2  0  0  0  0
 10 12  1  0  0  0  0
 12 13  1  0  0  0  0
 12 14  1  0  0  0  0
M  END
>  <CHROM.0>
-48.22727227,-60.81529627,-56.25384561,-53.21836848,-174.79878722,-59.58692644
-58.55679906,-53.45274376,-166.76964041,160.85857481

>  <CHROM.1>
160.12616191,-115.79524211,-92.66646065,19.97078447,-17.42843059,4.29565288
-0.25726771,0.76835966,2.13013353

>  <Name>
P135416025

>  <RI>
0

>  <Rbt.Current_Directory>
/home/fstefaniak/projects/zuza/docking/adenine/1Y26

>  <Rbt.Executable>
rbdock ($Id: //depot/dev/client3/rdock/2013.1/src/exe/rbdock.cxx#4 $)

>  <Rbt.Library>
libRbt.so (2013.1, Build901 2013/11/27)

>  <Rbt.Parameter_File>
/home/fstefaniak/progs/rDock//data/scripts/dock_solv.prm

>  <Rbt.Receptor>
1y26.prm

>  <SCORE>
-44.4445

>  <SCORE.INTER>
-24.1697

>  <SCORE.INTER.CONST>
1

>  <SCORE.INTER.POLAR>
-2.17437

>  <SCORE.INTER.ROT>
3

>  <SCORE.INTER.SOLV>
13.6868

>  <SCORE.INTER.VDW>
-19.0275

>  <SCORE.INTER.norm>
-2.01414

>  <SCORE.INTRA>
1.96266

>  <SCORE.INTRA.DIHEDRAL>
4.80381

>  <SCORE.INTRA.DIHEDRAL.0>
2.19418

>  <SCORE.INTRA.POLAR>
0

>  <SCORE.INTRA.POLAR.0>
0

>  <SCORE.INTRA.REPUL>
0

>  <SCORE.INTRA.REPUL.0>
0

>  <SCORE.INTRA.SOLV>
0.328053

>  <SCORE.INTRA.SOLV.lig_0>
-13.9362

>  <SCORE.INTRA.VDW>
-0.603274

>  <SCORE.INTRA.VDW.0>
-0.392096

>  <SCORE.INTRA.norm>
0.163555

>  <SCORE.RESTR>
0

>  <SCORE.RESTR.CAVITY>
0

>  <SCORE.RESTR.norm>
0

>  <SCORE.SYSTEM>
-22.2375

>  <SCORE.SYSTEM.CONST>
0

>  <SCORE.SYSTEM.DIHEDRAL>
5.65582

>  <SCORE.SYSTEM.POLAR>
-3.47315

>  <SCORE.SYSTEM.SOLV>
0.499394

>  <SCORE.SYSTEM.VDW>
-5.29956

>  <SCORE.SYSTEM.norm>
-1.85312

>  <SCORE.heavy>
12

>  <SCORE.norm>
-3.70371

$$$$
P135625956
 OpenBabel12072022103D
libRbt.so/2013.1/901 2013/11/27
 17 18  0  0  0  0  0  0  0  0999 V2000
   21.6058  -14.5561    5.1461 C   0  0  0  0  0  0  0  0  0  0  0  0
   23.0621  -14.4172    5.6061 C   0  0  0  0  0  0  0  0  0  0  0  0
   23.9016  -15.1721    4.5725 C   0  0  1  0  0  0  0  0  0  0  0  0
   22.9398  -16.2719    4.0996 C   0  0  0  0  0  0  0  0  0  0  0  0
   21.5941  -15.5413    3.9574 C   0  0  1  0  0  0  0  0  0  0  0  0
   20.4151  -16.4246    3.9484 N   0  0  0  0  0  0  0  0  0  0  0  0
   20.3265  -17.2393    5.1843 C   0  0  0  0  0  0  0  0  0  0  0  0
   19.1364  -18.2123    5.1432 C   0  0  0  0  0  0  0  0  0  0  0  0
   19.2151  -19.0852    4.0102 O   0  0  0  0  0  0  0  0  0  0  0  0
   19.2411  -18.3128    2.8045 C   0  0  0  0  0  0  0  0  0  0  0  0
   20.4381  -17.3488    2.7884 C   0  0  0  0  0  0  0  0  0  0  0  0
   24.3520  -14.2399    3.4185 C   0  0  0  0  0  0  0  0  0  0  0  0
   24.8997  -15.0211    2.3567 O   0  0  0  0  0  0  0  0  0  0  0  0
   25.1179  -15.7689    5.1549 N   0  0  0  0  0  0  0  0  0  0  0  0
   25.7282  -15.3878    2.7318 H   0  0  0  0  0  0  0  0  0  0  0  0
   25.1839  -15.5112    6.1412 H   0  0  0  0  0  0  0  0  0  0  0  0
   25.9425  -15.3592    4.7123 H   0  0  0  0  0  0  0  0  0  0  0  0
  1  2  1  0  0  0  0
  2  3  1  0  0  0  0
  3  4  1  0  0  0  0
  3 14  1  0  0  0  0
  3 12  1  6  0  0  0
  4  5  1  0  0  0  0
  5  1  1  1  0  0  0
  5  6  1  0  0  0  0
  6  7  1  0  0  0  0
  6 11  1  0  0  0  0
  7  8  1  0  0  0  0
  8  9  1  0  0  0  0
  9 10  1  0  0  0  0
 10 11  1  0  0  0  0
 12 13  1  0  0  0  0
 13 15  1  0  0  0  0
 14 16  1  0  0  0  0
 14 17  1  0  0  0  0
M  END
>  <CHROM.0>
-48.31208124,-58.78142675,-61.11616488,-52.11575200,-172.15567563,-52.17836974
-167.62777823,-51.78207092,-167.44667748,161.92804858

>  <CHROM.1>
-3.09607926,-168.73170664,-59.19568279,-67.72115994,21.91562017,-16.27553443
4.13967132,0.24098998,0.53806328,1.15460610

>  <Name>
P135625956

>  <RI>
0

>  <Rbt.Current_Directory>
/home/fstefaniak/projects/zuza/docking/adenine/1Y26

>  <Rbt.Executable>
rbdock ($Id: //depot/dev/client3/rdock/2013.1/src/exe/rbdock.cxx#4 $)

>  <Rbt.Library>
libRbt.so (2013.1, Build901 2013/11/27)

>  <Rbt.Parameter_File>
/home/fstefaniak/progs/rDock//data/scripts/dock_solv.prm

>  <Rbt.Receptor>
1y26.prm

>  <SCORE>
-47.5436

>  <SCORE.INTER>
-30.213

>  <SCORE.INTER.CONST>
1

>  <SCORE.INTER.POLAR>
-3.99118

>  <SCORE.INTER.ROT>
3

>  <SCORE.INTER.SOLV>
15.3465

>  <SCORE.INTER.VDW>
-17.5535

>  <SCORE.INTER.norm>
-2.15807

>  <SCORE.INTRA>
3.64754

>  <SCORE.INTRA.DIHEDRAL>
0.0696183

>  <SCORE.INTRA.DIHEDRAL.0>
2.84206

>  <SCORE.INTRA.POLAR>
0.376351

>  <SCORE.INTRA.POLAR.0>
-0.376643

>  <SCORE.INTRA.REPUL>
0

>  <SCORE.INTRA.REPUL.0>
0

>  <SCORE.INTRA.SOLV>
0.145434

>  <SCORE.INTRA.SOLV.lig_0>
-13.7969

>  <SCORE.INTRA.VDW>
2.26041

>  <SCORE.INTRA.VDW.0>
1.30305

>  <SCORE.INTRA.norm>
0.260538

>  <SCORE.RESTR>
0

>  <SCORE.RESTR.CAVITY>
0

>  <SCORE.RESTR.norm>
0

>  <SCORE.SYSTEM>
-20.9782

>  <SCORE.SYSTEM.CONST>
0

>  <SCORE.SYSTEM.DIHEDRAL>
6.67689

>  <SCORE.SYSTEM.POLAR>
-3.47097

>  <SCORE.SYSTEM.SOLV>
0.460188

>  <SCORE.SYSTEM.VDW>
-4.79459

>  <SCORE.SYSTEM.norm>
-1.49844

>  <SCORE.heavy>
14

>  <SCORE.norm>
-3.39597

$$$$
P135625956
 OpenBabel12072022103D
libRbt.so/2013.1/901 2013/11/27
 17 18  0  0  0  0  0  0  0  0999 V2000
   22.9740  -16.3290    4.3539 C   0  0  0  0  0  0  0  0  0  0  0  0
   23.4337  -14.9026    4.0286 C   0  0  0  0  0  0  0  0  0  0  0  0
   22.2720  -13.9877    4.4242 C   0  0  1  0  0  0  0  0  0  0  0  0
   21.0472  -14.8860    4.1983 C   0  0  0  0  0  0  0  0  0  0  0  0
   21.4868  -16.2481    4.7609 C   0  0  1  0  0  0  0  0  0  0  0  0
   20.6924  -17.3935    4.2839 N   0  0  0  0  0  0  0  0  0  0  0  0
   19.6321  -16.9733    3.3363 C   0  0  0  0  0  0  0  0  0  0  0  0
   18.7580  -18.1589    2.8944 C   0  0  0  0  0  0  0  0  0  0  0  0
   18.1524  -18.8079    4.0187 O   0  0  0  0  0  0  0  0  0  0  0  0
   19.1682  -19.2726    4.9148 C   0  0  0  0  0  0  0  0  0  0  0  0
   20.0458  -18.1117    5.4093 C   0  0  0  0  0  0  0  0  0  0  0  0
   22.3989  -13.5147    5.8952 C   0  0  0  0  0  0  0  0  0  0  0  0
   21.4718  -12.4576    6.1408 O   0  0  0  0  0  0  0  0  0  0  0  0
   22.1866  -12.7810    3.5808 N   0  0  0  0  0  0  0  0  0  0  0  0
   21.1295  -12.6433    7.0408 H   0  0  0  0  0  0  0  0  0  0  0  0
   21.5878  -12.0899    4.0363 H   0  0  0  0  0  0  0  0  0  0  0  0
   21.7152  -13.0121    2.7044 H   0  0  0  0  0  0  0  0  0  0  0  0
  1  2  1  0  0  0  0
  2  3  1  0  0  0  0
  3  4  1  0  0  0  0
  3 14  1  0  0  0  0
  3 12  1  1  0  0  0
  4  5  1  0  0  0  0
  5  1  1  6  0  0  0
  5  6  1  0  0  0  0
  6  7  1  0  0  0  0
  6 11  1  0  0  0  0
  7  8  1  0  0  0  0
  8  9  1  0  0  0  0
  9 10  1  0  0  0  0
 10 11  1  0  0  0  0
 12 13  1  0  0  0  0
 13 15  1  0  0  0  0
 14 16  1  0  0  0  0
 14 17  1  0  0  0  0
M  END
>  <CHROM.0>
-45.89401812,-65.71134848,-57.48976272,-53.57658646,-57.41471598,-173.69210508
-62.42923595,-51.67624331,-167.88272138,160.60699220

>  <CHROM.1>
-163.93615247,167.91742873,-117.10087270,140.26264555,20.94884770,-15.94805344
4.45917668,-0.99566260,-0.23145823,-2.84223340

>  <Name>
P135625956

>  <RI>
0

>  <Rbt.Current_Directory>
/home/fstefaniak/projects/zuza/docking/adenine/1Y26

>  <Rbt.Executable>
rbdock ($Id: //depot/dev/client3/rdock/2013.1/src/exe/rbdock.cxx#4 $)

>  <Rbt.Library>
libRbt.so (2013.1, Build901 2013/11/27)

>  <Rbt.Parameter_File>
/home/fstefaniak/progs/rDock//data/scripts/dock_solv.prm

>  <Rbt.Receptor>
1y26.prm

>  <SCORE>
-47.161

>  <SCORE.INTER>
-32.8922

>  <SCORE.INTER.CONST>
1

>  <SCORE.INTER.POLAR>
-3.39944

>  <SCORE.INTER.ROT>
3

>  <SCORE.INTER.SOLV>
11.8765

>  <SCORE.INTER.VDW>
-20.1555

>  <SCORE.INTER.norm>
-2.34944

>  <SCORE.INTRA>
7.73317

>  <SCORE.INTRA.DIHEDRAL>
6.36148

>  <SCORE.INTRA.DIHEDRAL.0>
2.84206

>  <SCORE.INTRA.POLAR>
0.161851

>  <SCORE.INTRA.POLAR.0>
-0.376643

>  <SCORE.INTRA.REPUL>
0

>  <SCORE.INTRA.REPUL.0>
0

>  <SCORE.INTRA.SOLV>
0.159729

>  <SCORE.INTRA.SOLV.lig_0>
-13.7969

>  <SCORE.INTRA.VDW>
3.92228

>  <SCORE.INTRA.VDW.0>
1.30305

>  <SCORE.INTRA.norm>
0.552369

>  <SCORE.RESTR>
0

>  <SCORE.RESTR.CAVITY>
0

>  <SCORE.RESTR.norm>
0

>  <SCORE.SYSTEM>
-22.0019

>  <SCORE.SYSTEM.CONST>
0

>  <SCORE.SYSTEM.DIHEDRAL>
6.16372

>  <SCORE.SYSTEM.POLAR>
-3.49304

>  <SCORE.SYSTEM.SOLV>
0.509899

>  <SCORE.SYSTEM.VDW>
-5.24903

>  <SCORE.SYSTEM.norm>
-1.57157

>  <SCORE.heavy>
14

>  <SCORE.norm>
-3.36864

$$$$
P135625956
 OpenBabel12072022103D
libRbt.so/2013.1/901 2013/11/27
 17 18  0  0  0  0  0  0  0  0999 V2000
   21.5911  -14.5450    5.2117 C   0  0  0  0  0  0  0  0  0  0  0  0
   23.0532  -14.3744    5.6416 C   0  0  0  0  0  0  0  0  0  0  0  0
   23.8889  -15.0906    4.5777 C   0  0  1  0  0  0  0  0  0  0  0  0
   22.9460  -16.2081    4.1086 C   0  0  0  0  0  0  0  0  0  0  0  0
   21.5787  -15.5116    4.0078 C   0  0  1  0  0  0  0  0  0  0  0  0
   20.4234  -16.4258    4.0107 N   0  0  0  0  0  0  0  0  0  0  0  0
   20.3783  -17.2543    5.2397 C   0  0  0  0  0  0  0  0  0  0  0  0
   19.2138  -18.2582    5.2098 C   0  0  0  0  0  0  0  0  0  0  0  0
   19.2955  -19.1179    4.0669 O   0  0  0  0  0  0  0  0  0  0  0  0
   19.2796  -18.3336    2.8687 C   0  0  0  0  0  0  0  0  0  0  0  0
   20.4503  -17.3380    2.8412 C   0  0  0  0  0  0  0  0  0  0  0  0
   24.2885  -14.1289    3.4292 C   0  0  0  0  0  0  0  0  0  0  0  0
   24.8252  -14.8794    2.3401 O   0  0  0  0  0  0  0  0  0  0  0  0
   25.1333  -15.6636    5.1235 N   0  0  0  0  0  0  0  0  0  0  0  0
   25.6248  -15.3062    2.7142 H   0  0  0  0  0  0  0  0  0  0  0  0
   25.1941  -15.4549    6.1217 H   0  0  0  0  0  0  0  0  0  0  0  0
   25.9367  -15.1960    4.6998 H   0  0  0  0  0  0  0  0  0  0  0  0
  1  2  1  0  0  0  0
  2  3  1  0  0  0  0
  3  4  1  0  0  0  0
  3 14  1  0  0  0  0
  3 12  1  6  0  0  0
  4  5  1  0  0  0  0
  5  1  1  1  0  0  0
  5  6  1  0  0  0  0
  6  7  1  0  0  0  0
  6 11  1  0  0  0  0
  7  8  1  0  0  0  0
  8  9  1  0  0  0  0
  9 10  1  0  0  0  0
 10 11  1  0  0  0  0
 12 13  1  0  0  0  0
 13 15  1  0  0  0  0
 14 16  1  0  0  0  0
 14 17  1  0  0  0  0
M  END
>  <CHROM.0>
-170.16731905,-66.68652596,-52.37070813,-52.13757732,-170.59153561,58.62366515
-61.81755645,66.23982572,-166.79077175,160.70013730

>  <CHROM.1>
-0.59404533,-168.38897800,-58.76100803,-62.29486687,21.92241861,-16.24017256
4.17356493,0.22953153,0.57129468,1.17421190

>  <Name>
P135625956

>  <RI>
0

>  <Rbt.Current_Directory>
/home/fstefaniak/projects/zuza/docking/adenine/1Y26

>  <Rbt.Executable>
rbdock ($Id: //depot/dev/client3/rdock/2013.1/src/exe/rbdock.cxx#4 $)

>  <Rbt.Library>
libRbt.so (2013.1, Build901 2013/11/27)

>  <Rbt.Parameter_File>
/home/fstefaniak/progs/rDock//data/scripts/dock_solv.prm

>  <Rbt.Receptor>
1y26.prm

>  <SCORE>
-46.2267

>  <SCORE.INTER>
-30.5175

>  <SCORE.INTER.CONST>
1

>  <SCORE.INTER.POLAR>
-4.09162

>  <SCORE.INTER.ROT>
3

>  <SCORE.INTER.SOLV>
15.1351

>  <SCORE.INTER.VDW>
-17.3513

>  <SCORE.INTER.norm>
-2.17982

>  <SCORE.INTRA>
3.49919

>  <SCORE.INTRA.DIHEDRAL>
-0.204511

>  <SCORE.INTRA.DIHEDRAL.0>
2.84206

>  <SCORE.INTRA.POLAR>
0.373097

>  <SCORE.INTRA.POLAR.0>
-0.376643

>  <SCORE.INTRA.REPUL>
0

>  <SCORE.INTRA.REPUL.0>
0

>  <SCORE.INTRA.SOLV>
0.139847

>  <SCORE.INTRA.SOLV.lig_0>
-13.7969

>  <SCORE.INTRA.VDW>
2.26299

>  <SCORE.INTRA.VDW.0>
1.30305

>  <SCORE.INTRA.norm>
0.249942

>  <SCORE.RESTR>
0

>  <SCORE.RESTR.CAVITY>
0

>  <SCORE.RESTR.norm>
0

>  <SCORE.SYSTEM>
-19.2084

>  <SCORE.SYSTEM.CONST>
0

>  <SCORE.SYSTEM.DIHEDRAL>
6.22963

>  <SCORE.SYSTEM.POLAR>
-3.25312

>  <SCORE.SYSTEM.SOLV>
0.0450324

>  <SCORE.SYSTEM.VDW>
-4.05345

>  <SCORE.SYSTEM.norm>
-1.37203

>  <SCORE.heavy>
14

>  <SCORE.norm>
-3.30191

$$$$
P135648622
 OpenBabel12072022103D
libRbt.so/2013.1/901 2013/11/27
 18 18  0  0  0  0  0  0  0  0999 V2000
   20.7555  -16.2953    3.0725 C   0  0  0  0  0  0  0  0  0  0  0  0
   21.6577  -16.9740    4.1234 C   0  0  0  0  0  0  0  0  0  0  0  0
   20.8962  -17.4457    5.2643 O   0  0  0  0  0  0  0  0  0  0  0  0
   19.8573  -18.3756    4.8380 C   0  0  2  0  0  0  0  0  0  0  0  0
   18.9026  -17.6425    3.8842 C   0  0  0  0  0  0  0  0  0  0  0  0
   19.6566  -17.2023    2.7163 N   0  0  0  0  0  0  0  0  0  0  0  0
   19.7776  -18.1231    1.6950 C   0  0  0  0  0  0  0  0  0  0  0  0
   18.8856  -18.9110    1.3987 O   0  0  0  0  0  0  0  0  0  0  0  0
   20.9685  -18.1370    1.0577 N   0  0  0  0  0  0  0  0  0  0  0  0
   19.1211  -18.8682    6.0500 C   0  0  0  0  0  0  0  0  0  0  0  0
   18.0704  -19.6517    5.9072 N   0  3  0  0  0  0  0  0  0  0  0  0
   17.5547  -20.0127    6.7010 H   0  0  0  0  0  0  0  0  0  0  0  0
   17.7488  -19.9424    4.9852 H   0  0  0  0  0  0  0  0  0  0  0  0
   19.5898  -18.5041    7.2263 N   0  0  0  0  0  0  0  0  0  0  0  0
   21.0489  -17.5447    0.2418 H   0  0  0  0  0  0  0  0  0  0  0  0
   21.3352  -19.0708    0.9083 H   0  0  0  0  0  0  0  0  0  0  0  0
   19.1911  -18.7870    8.1106 H   0  0  0  0  0  0  0  0  0  0  0  0
   20.4340  -17.9273    7.2303 H   0  0  0  0  0  0  0  0  0  0  0  0
  1  2  1  0  0  0  0
  1  6  1  0  0  0  0
  2  3  1  0  0  0  0
  3  4  1  0  0  0  0
  4  5  1  0  0  0  0
  4 10  1  1  0  0  0
  5  6  1  0  0  0  0
  6  7  1  0  0  0  0
  7  8  2  0  0  0  0
  7  9  1  0  0  0  0
  9 15  1  0  0  0  0
  9 16  1  0  0  0  0
 10 11  2  0  0  0  0
 10 14  1  0  0  0  0
 11 12  1  0  0  0  0
 11 13  1  0  0  0  0
 14 17  1  0  0  0  0
 14 18  1  0  0  0  0
M  CHG  1  11   1
M  END
>  <CHROM.0>
56.59691973,55.97562505,-53.16120052,-48.88780235,-57.49890689,-54.50526462
-50.39604649,-45.50408094,-164.92796812,161.85785317

>  <CHROM.1>
175.22551479,178.32195205,-91.45528719,19.84500376,-18.03148986,3.94498945
-1.31225304,0.69976383,1.58617818

>  <Name>
P135648622

>  <RI>
0

>  <Rbt.Current_Directory>
/home/fstefaniak/projects/zuza/docking/adenine/1Y26

>  <Rbt.Executable>
rbdock ($Id: //depot/dev/client3/rdock/2013.1/src/exe/rbdock.cxx#4 $)

>  <Rbt.Library>
libRbt.so (2013.1, Build901 2013/11/27)

>  <Rbt.Parameter_File>
/home/fstefaniak/progs/rDock//data/scripts/dock_solv.prm

>  <Rbt.Receptor>
1y26.prm

>  <SCORE>
-60.3507

>  <SCORE.INTER>
-40.2763

>  <SCORE.INTER.CONST>
1

>  <SCORE.INTER.POLAR>
-7.43243

>  <SCORE.INTER.ROT>
3

>  <SCORE.INTER.SOLV>
26.0474

>  <SCORE.INTER.VDW>
-16.3586

>  <SCORE.INTER.norm>
-3.35636

>  <SCORE.INTRA>
0.0267462

>  <SCORE.INTRA.DIHEDRAL>
-0.0607779

>  <SCORE.INTRA.DIHEDRAL.0>
2.17469

>  <SCORE.INTRA.POLAR>
0.00518833

>  <SCORE.INTRA.POLAR.0>
-0.183781

>  <SCORE.INTRA.REPUL>
0

>  <SCORE.INTRA.REPUL.0>
0

>  <SCORE.INTRA.SOLV>
0.0333171

>  <SCORE.INTRA.SOLV.lig_0>
-38.4222

>  <SCORE.INTRA.VDW>
0.0228363

>  <SCORE.INTRA.VDW.0>
0.370614

>  <SCORE.INTRA.norm>
0.00222885

>  <SCORE.RESTR>
0

>  <SCORE.RESTR.CAVITY>
0

>  <SCORE.RESTR.norm>
0

>  <SCORE.SYSTEM>
-20.1011

>  <SCORE.SYSTEM.CONST>
0

>  <SCORE.SYSTEM.DIHEDRAL>
6.89172

>  <SCORE.SYSTEM.POLAR>
-3.41083

>  <SCORE.SYSTEM.SOLV>
0.736762

>  <SCORE.SYSTEM.VDW>
-4.57413

>  <SCORE.SYSTEM.norm>
-1.67509

>  <SCORE.heavy>
12

>  <SCORE.norm>
-5.02922

$$$$
P135648622
 OpenBabel12072022103D
libRbt.so/2013.1/901 2013/11/27
 18 18  0  0  0  0  0  0  0  0999 V2000
   20.8531  -16.1662    3.1528 C   0  0  0  0  0  0  0  0  0  0  0  0
   21.7219  -16.7957    4.2609 C   0  0  0  0  0  0  0  0  0  0  0  0
   20.9158  -17.3105    5.3514 O   0  0  0  0  0  0  0  0  0  0  0  0
   19.9593  -18.2956    4.8611 C   0  0  2  0  0  0  0  0  0  0  0  0
   19.0289  -17.6148    3.8465 C   0  0  0  0  0  0  0  0  0  0  0  0
   19.8310  -17.1319    2.7286 N   0  0  0  0  0  0  0  0  0  0  0  0
   20.0679  -18.0430    1.7191 C   0  0  0  0  0  0  0  0  0  0  0  0
   21.1918  -18.2924    1.2963 O   0  0  0  0  0  0  0  0  0  0  0  0
   18.9710  -18.6229    1.1849 N   0  0  0  0  0  0  0  0  0  0  0  0
   19.1750  -18.8299    6.0243 C   0  0  0  0  0  0  0  0  0  0  0  0
   18.1467  -19.6274    5.8126 N   0  3  0  0  0  0  0  0  0  0  0  0
   17.6003  -20.0163    6.5720 H   0  0  0  0  0  0  0  0  0  0  0  0
   17.8749  -19.9010    4.8696 H   0  0  0  0  0  0  0  0  0  0  0  0
   19.5803  -18.4866    7.2301 N   0  0  0  0  0  0  0  0  0  0  0  0
   19.0834  -19.5678    0.8422 H   0  0  0  0  0  0  0  0  0  0  0  0
   18.4721  -18.0223    0.5374 H   0  0  0  0  0  0  0  0  0  0  0  0
   19.1449  -18.7977    8.0872 H   0  0  0  0  0  0  0  0  0  0  0  0
   20.4127  -17.8959    7.2883 H   0  0  0  0  0  0  0  0  0  0  0  0
  1  2  1  0  0  0  0
  1  6  1  0  0  0  0
  2  3  1  0  0  0  0
  3  4  1  0  0  0  0
  4  5  1  0  0  0  0
  4 10  1  1  0  0  0
  5  6  1  0  0  0  0
  6  7  1  0  0  0  0
  7  8  2  0  0  0  0
  7  9  1  0  0  0  0
  9 15  1  0  0  0  0
  9 16  1  0  0  0  0
 10 11  2  0  0  0  0
 10 14  1  0  0  0  0
 11 12  1  0  0  0  0
 11 13  1  0  0  0  0
 14 17  1  0  0  0  0
 14 18  1  0  0  0  0
M  CHG  1  11   1
M  END
>  <CHROM.0>
-29.77964706,50.82684945,-55.33263657,-52.30928284,-59.09596809,-60.35324582
-55.74087756,62.78233621,-166.93378663,160.88115535

>  <CHROM.1>
172.49800790,14.78980148,-148.85743981,19.94520451,-17.95604782,3.96384779
-1.30632486,0.71496204,1.57350815

>  <Name>
P135648622

>  <RI>
0

>  <Rbt.Current_Directory>
/home/fstefaniak/projects/zuza/docking/adenine/1Y26

>  <Rbt.Executable>
rbdock ($Id: //depot/dev/client3/rdock/2013.1/src/exe/rbdock.cxx#4 $)

>  <Rbt.Library>
libRbt.so (2013.1, Build901 2013/11/27)

>  <Rbt.Parameter_File>
/home/fstefaniak/progs/rDock//data/scripts/dock_solv.prm

>  <Rbt.Receptor>
1y26.prm

>  <SCORE>
-60.3212

>  <SCORE.INTER>
-40.0641

>  <SCORE.INTER.CONST>
1

>  <SCORE.INTER.POLAR>
-7.10567

>  <SCORE.INTER.ROT>
3

>  <SCORE.INTER.SOLV>
25.7069

>  <SCORE.INTER.VDW>
-17.1928

>  <SCORE.INTER.norm>
-3.33868

>  <SCORE.INTRA>
-0.475344

>  <SCORE.INTRA.DIHEDRAL>
-0.0135411

>  <SCORE.INTRA.DIHEDRAL.0>
2.17469

>  <SCORE.INTRA.POLAR>
0.0120984

>  <SCORE.INTRA.POLAR.0>
-0.183781

>  <SCORE.INTRA.REPUL>
0

>  <SCORE.INTRA.REPUL.0>
0

>  <SCORE.INTRA.SOLV>
-0.0860361

>  <SCORE.INTRA.SOLV.lig_0>
-38.4222

>  <SCORE.INTRA.VDW>
-0.46669

>  <SCORE.INTRA.VDW.0>
0.370614

>  <SCORE.INTRA.norm>
-0.039612

>  <SCORE.RESTR>
0

>  <SCORE.RESTR.CAVITY>
0

>  <SCORE.RESTR.norm>
0

>  <SCORE.SYSTEM>
-19.7817

>  <SCORE.SYSTEM.CONST>
0

>  <SCORE.SYSTEM.DIHEDRAL>
8.87104

>  <SCORE.SYSTEM.POLAR>
-3.75154

>  <SCORE.SYSTEM.SOLV>
0.523847

>  <SCORE.SYSTEM.VDW>
-3.81431

>  <SCORE.SYSTEM.norm>
-1.64847

>  <SCORE.heavy>
12

>  <SCORE.norm>
-5.02676

$$$$
P135648622
 OpenBabel12072022103D
libRbt.so/2013.1/901 2013/11/27
 18 18  0  0  0  0  0  0  0  0999 V2000
   20.7946  -16.1373    3.1436 C   0  0  0  0  0  0  0  0  0  0  0  0
   21.6728  -16.7443    4.2569 C   0  0  0  0  0  0  0  0  0  0  0  0
   20.8742  -17.2693    5.3481 O   0  0  0  0  0  0  0  0  0  0  0  0
   19.9383  -18.2752    4.8604 C   0  0  2  0  0  0  0  0  0  0  0  0
   18.9973  -17.6177    3.8402 C   0  0  0  0  0  0  0  0  0  0  0  0
   19.7926  -17.1248    2.7218 N   0  0  0  0  0  0  0  0  0  0  0  0
   20.0496  -18.0362    1.7174 C   0  0  0  0  0  0  0  0  0  0  0  0
   21.1806  -18.2763    1.3085 O   0  0  0  0  0  0  0  0  0  0  0  0
   18.9644  -18.6273    1.1719 N   0  0  0  0  0  0  0  0  0  0  0  0
   19.1617  -18.8190    6.0245 C   0  0  0  0  0  0  0  0  0  0  0  0
   18.1286  -19.6104    5.8130 N   0  3  0  0  0  0  0  0  0  0  0  0
   17.5870  -20.0052    6.5727 H   0  0  0  0  0  0  0  0  0  0  0  0
   17.8479  -19.8729    4.8694 H   0  0  0  0  0  0  0  0  0  0  0  0
   19.5783  -18.4900    7.2304 N   0  0  0  0  0  0  0  0  0  0  0  0
   19.0914  -19.5693    0.8262 H   0  0  0  0  0  0  0  0  0  0  0  0
   18.4633  -18.0302    0.5228 H   0  0  0  0  0  0  0  0  0  0  0  0
   19.1489  -18.8085    8.0878 H   0  0  0  0  0  0  0  0  0  0  0  0
   20.4134  -17.9030    7.2879 H   0  0  0  0  0  0  0  0  0  0  0  0
  1  2  1  0  0  0  0
  1  6  1  0  0  0  0
  2  3  1  0  0  0  0
  3  4  1  0  0  0  0
  4  5  1  0  0  0  0
  4 10  1  1  0  0  0
  5  6  1  0  0  0  0
  6  7  1  0  0  0  0
  7  8  2  0  0  0  0
  7  9  1  0  0  0  0
  9 15  1  0  0  0  0
  9 16  1  0  0  0  0
 10 11  2  0  0  0  0
 10 14  1  0  0  0  0
 11 12  1  0  0  0  0
 11 13  1  0  0  0  0
 14 17  1  0  0  0  0
 14 18  1  0  0  0  0
M  CHG  1  11   1
M  END
>  <CHROM.0>
-26.49936735,47.85375290,-58.22035812,-52.62502602,-62.02996997,55.61566644
-55.73886048,-54.48574241,-167.03118633,161.46317484

>  <CHROM.1>
170.78169359,15.60163865,-149.32865291,19.91979053,-17.94033550,3.96122188
-1.30678835,0.72776182,1.57064996

>  <Name>
P135648622

>  <RI>
0

>  <Rbt.Current_Directory>
/home/fstefaniak/projects/zuza/docking/adenine/1Y26

>  <Rbt.Executable>
rbdock ($Id: //depot/dev/client3/rdock/2013.1/src/exe/rbdock.cxx#4 $)

>  <Rbt.Library>
libRbt.so (2013.1, Build901 2013/11/27)

>  <Rbt.Parameter_File>
/home/fstefaniak/progs/rDock//data/scripts/dock_solv.prm

>  <Rbt.Receptor>
1y26.prm

>  <SCORE>
-60.2209

>  <SCORE.INTER>
-40.4572

>  <SCORE.INTER.CONST>
1

>  <SCORE.INTER.POLAR>
-7.19857

>  <SCORE.INTER.ROT>
3

>  <SCORE.INTER.SOLV>
25.6982

>  <SCORE.INTER.VDW>
-17.1423

>  <SCORE.INTER.norm>
-3.37143

>  <SCORE.INTRA>
-0.444967

>  <SCORE.INTRA.DIHEDRAL>
-0.0178439

>  <SCORE.INTRA.DIHEDRAL.0>
2.17469

>  <SCORE.INTRA.POLAR>
0.0175047

>  <SCORE.INTRA.POLAR.0>
-0.183781

>  <SCORE.INTRA.REPUL>
0

>  <SCORE.INTRA.REPUL.0>
0

>  <SCORE.INTRA.SOLV>
-0.0786786

>  <SCORE.INTRA.SOLV.lig_0>
-38.4222

>  <SCORE.INTRA.VDW>
-0.456222

>  <SCORE.INTRA.VDW.0>
0.370614

>  <SCORE.INTRA.norm>
-0.0370806

>  <SCORE.RESTR>
0

>  <SCORE.RESTR.CAVITY>
0

>  <SCORE.RESTR.norm>
0

>  <SCORE.SYSTEM>
-19.3187

>  <SCORE.SYSTEM.CONST>
0

>  <SCORE.SYSTEM.DIHEDRAL>
9.77072

>  <SCORE.SYSTEM.POLAR>
-3.76674

>  <SCORE.SYSTEM.SOLV>
0.59644

>  <SCORE.SYSTEM.VDW>
-3.77905

>  <SCORE.SYSTEM.norm>
-1.60989

>  <SCORE.heavy>
12

>  <SCORE.norm>
-5.0184

$$$$
P135688421
 OpenBabel12072022103D
libRbt.so/2013.1/901 2013/11/27
 14 14  0  0  0  0  0  0  0  0999 V2000
   22.0811  -13.5775    6.0203 C   0  0  0  0  0  0  0  0  0  0  0  0
   21.9704  -14.2305    4.6537 C   0  0  1  0  0  0  0  0  0  0  0  0
   23.3152  -14.5880    3.9977 C   0  0  0  0  0  0  0  0  0  0  0  0
   22.8769  -16.0519    4.0499 C   0  0  0  0  0  0  0  0  0  0  0  0
   21.6556  -15.6574    4.7277 N   0  3  2  0  0  0  0  0  0  0  0  0
   21.5315  -16.0577    5.6962 H   0  0  0  0  0  0  0  0  0  0  0  0
   20.4236  -16.0375    3.9683 C   0  0  0  0  0  0  0  0  0  0  0  0
   20.1600  -17.5481    4.0263 C   0  0  1  0  0  0  0  0  0  0  0  0
   19.9881  -17.9974    5.4751 C   0  0  0  0  0  0  0  0  0  0  0  0
   18.8949  -17.8860    3.1711 C   0  0  0  0  0  0  0  0  0  0  0  0
   18.7992  -17.2353    2.0837 O   0  0  0  0  0  0  0  0  0  0  0  0
   18.2036  -18.8448    3.6008 O   0  5  0  0  0  0  0  0  0  0  0  0
   21.2930  -18.2809    3.4915 O   0  0  0  0  0  0  0  0  0  0  0  0
   21.3211  -18.0024    2.5476 H   0  0  0  0  0  0  0  0  0  0  0  0
  2  1  1  1  0  0  0
  2  3  1  0  0  0  0
  2  5  1  0  0  0  0
  3  4  1  0  0  0  0
  4  5  1  0  0  0  0
  5  6  1  1  0  0  0
  5  7  1  0  0  0  0
  7  8  1  0  0  0  0
  8  9  1  1  0  0  0
  8 10  1  0  0  0  0
  8 13  1  0  0  0  0
 10 11  2  0  0  0  0
 10 12  1  0  0  0  0
 13 14  1  0  0  0  0
M  CHG  2   5   1  12  -1
M  END
>  <CHROM.0>
-49.11944855,-64.85107926,58.87942935,-51.94526914,-56.81532496,61.01163081
76.42439056,-51.47610416,-167.21928831,161.93275857

>  <CHROM.1>
177.77938376,59.46586625,39.45208233,-63.91177912,20.79097224,-16.53296574
4.09756795,0.68433738,0.56543271,0.96874649

>  <Name>
P135688421

>  <RI>
0

>  <Rbt.Current_Directory>
/home/fstefaniak/projects/zuza/docking/adenine/1Y26

>  <Rbt.Executable>
rbdock ($Id: //depot/dev/client3/rdock/2013.1/src/exe/rbdock.cxx#4 $)

>  <Rbt.Library>
libRbt.so (2013.1, Build901 2013/11/27)

>  <Rbt.Parameter_File>
/home/fstefaniak/progs/rDock//data/scripts/dock_solv.prm

>  <Rbt.Receptor>
1y26.prm

>  <SCORE>
-46.6137

>  <SCORE.INTER>
-26.2828

>  <SCORE.INTER.CONST>
1

>  <SCORE.INTER.POLAR>
-4.16191

>  <SCORE.INTER.ROT>
3

>  <SCORE.INTER.SOLV>
23.1867

>  <SCORE.INTER.VDW>
-16.9777

>  <SCORE.INTER.norm>
-2.19023

>  <SCORE.INTRA>
-0.329786

>  <SCORE.INTRA.DIHEDRAL>
-2.13525

>  <SCORE.INTRA.DIHEDRAL.0>
3.0936

>  <SCORE.INTRA.POLAR>
0.685166

>  <SCORE.INTRA.POLAR.0>
-0.685166

>  <SCORE.INTRA.REPUL>
0

>  <SCORE.INTRA.REPUL.0>
0

>  <SCORE.INTRA.SOLV>
-5.95745

>  <SCORE.INTRA.SOLV.lig_0>
-38.1044

>  <SCORE.INTRA.VDW>
1.387

>  <SCORE.INTRA.VDW.0>
1.06699

>  <SCORE.INTRA.norm>
-0.0274822

>  <SCORE.RESTR>
0

>  <SCORE.RESTR.CAVITY>
0

>  <SCORE.RESTR.norm>
0

>  <SCORE.SYSTEM>
-20.0011

>  <SCORE.SYSTEM.CONST>
0

>  <SCORE.SYSTEM.DIHEDRAL>
6.77021

>  <SCORE.SYSTEM.POLAR>
-3.74374

>  <SCORE.SYSTEM.SOLV>
0.326937

>  <SCORE.SYSTEM.VDW>
-3.22063

>  <SCORE.SYSTEM.norm>
-1.66676

>  <SCORE.heavy>
12

>  <SCORE.norm>
-3.88447

$$$$
P135688421
 OpenBabel12072022103D
libRbt.so/2013.1/901 2013/11/27
 14 14  0  0  0  0  0  0  0  0999 V2000
   22.1271  -13.5742    6.1039 C   0  0  0  0  0  0  0  0  0  0  0  0
   21.9623  -14.1555    4.7106 C   0  0  1  0  0  0  0  0  0  0  0  0
   23.2799  -14.4334    3.9666 C   0  0  0  0  0  0  0  0  0  0  0  0
   22.8881  -15.9113    3.9597 C   0  0  0  0  0  0  0  0  0  0  0  0
   21.6940  -15.5937    4.7211 N   0  3  2  0  0  0  0  0  0  0  0  0
   21.6339  -16.0497    5.6709 H   0  0  0  0  0  0  0  0  0  0  0  0
   20.4346  -15.9717    4.0069 C   0  0  0  0  0  0  0  0  0  0  0  0
   20.1922  -17.4866    4.0391 C   0  0  1  0  0  0  0  0  0  0  0  0
   19.9840  -17.9561    5.4766 C   0  0  0  0  0  0  0  0  0  0  0  0
   18.9583  -17.8325    3.1424 C   0  0  0  0  0  0  0  0  0  0  0  0
   18.2206  -18.7652    3.5905 O   0  0  0  0  0  0  0  0  0  0  0  0
   18.7803  -17.0631    2.1636 O   0  5  0  0  0  0  0  0  0  0  0  0
   21.3515  -18.1961    3.5298 O   0  0  0  0  0  0  0  0  0  0  0  0
   21.3840  -17.9314    2.5820 H   0  0  0  0  0  0  0  0  0  0  0  0
  2  1  1  1  0  0  0
  2  3  1  0  0  0  0
  2  5  1  0  0  0  0
  3  4  1  0  0  0  0
  4  5  1  0  0  0  0
  5  6  1  1  0  0  0
  5  7  1  0  0  0  0
  7  8  1  0  0  0  0
  8  9  1  1  0  0  0
  8 10  1  0  0  0  0
  8 13  1  0  0  0  0
 10 11  2  0  0  0  0
 10 12  1  0  0  0  0
 13 14  1  0  0  0  0
M  CHG  2   5   1  12  -1
M  END
>  <CHROM.0>
-51.76202108,-71.96538768,-57.20983242,-51.00048563,-59.00676270,-178.79511893
-59.53914865,-178.80121902,-167.19840964,-64.13001726

>  <CHROM.1>
179.89045343,63.73727347,-143.07890857,-65.90849303,20.80885772,-16.44957497
4.11093496,0.61371750,0.64131380,1.08788592

>  <Name>
P135688421

>  <RI>
0

>  <Rbt.Current_Directory>
/home/fstefaniak/projects/zuza/docking/adenine/1Y26

>  <Rbt.Executable>
rbdock ($Id: //depot/dev/client3/rdock/2013.1/src/exe/rbdock.cxx#4 $)

>  <Rbt.Library>
libRbt.so (2013.1, Build901 2013/11/27)

>  <Rbt.Parameter_File>
/home/fstefaniak/progs/rDock//data/scripts/dock_solv.prm

>  <Rbt.Receptor>
1y26.prm

>  <SCORE>
-44.6971

>  <SCORE.INTER>
-25.384

>  <SCORE.INTER.CONST>
1

>  <SCORE.INTER.POLAR>
-4.12829

>  <SCORE.INTER.ROT>
3

>  <SCORE.INTER.SOLV>
23.195

>  <SCORE.INTER.VDW>
-16.4933

>  <SCORE.INTER.norm>
-2.11533

>  <SCORE.INTRA>
0.0400757

>  <SCORE.INTRA.DIHEDRAL>
-1.79617

>  <SCORE.INTRA.DIHEDRAL.0>
3.0936

>  <SCORE.INTRA.POLAR>
0.685166

>  <SCORE.INTRA.POLAR.0>
-0.685166

>  <SCORE.INTRA.REPUL>
0

>  <SCORE.INTRA.REPUL.0>
0

>  <SCORE.INTRA.SOLV>
-5.89307

>  <SCORE.INTRA.SOLV.lig_0>
-38.1044

>  <SCORE.INTRA.VDW>
1.55513

>  <SCORE.INTRA.VDW.0>
1.06699

>  <SCORE.INTRA.norm>
0.00333964

>  <SCORE.RESTR>
0

>  <SCORE.RESTR.CAVITY>
0

>  <SCORE.RESTR.norm>
0

>  <SCORE.SYSTEM>
-19.3532

>  <SCORE.SYSTEM.CONST>
0

>  <SCORE.SYSTEM.DIHEDRAL>
4.32656

>  <SCORE.SYSTEM.POLAR>
-2.58009

>  <SCORE.SYSTEM.SOLV>
0.364915

>  <SCORE.SYSTEM.VDW>
-5.86562

>  <SCORE.SYSTEM.norm>
-1.61276

>  <SCORE.heavy>
12

>  <SCORE.norm>
-3.72476

$$$$
P135688421
 OpenBabel12072022103D
libRbt.so/2013.1/901 2013/11/27
 14 14  0  0  0  0  0  0  0  0999 V2000
   19.9518  -18.3002    5.6218 C   0  0  0  0  0  0  0  0  0  0  0  0
   20.4779  -17.6417    4.3585 C   0  0  1  0  0  0  0  0  0  0  0  0
   19.3937  -17.0735    3.4266 C   0  0  0  0  0  0  0  0  0  0  0  0
   20.0069  -15.6929    3.6628 C   0  0  0  0  0  0  0  0  0  0  0  0
   20.9620  -16.2798    4.5848 N   0  3  2  0  0  0  0  0  0  0  0  0
   20.9045  -15.9234    5.5764 H   0  0  0  0  0  0  0  0  0  0  0  0
   22.3810  -16.0716    4.1583 C   0  0  0  0  0  0  0  0  0  0  0  0
   22.9047  -14.6895    4.5708 C   0  0  1  0  0  0  0  0  0  0  0  0
   24.4287  -14.7079    4.6566 C   0  0  0  0  0  0  0  0  0  0  0  0
   22.4047  -13.6193    3.5457 C   0  0  0  0  0  0  0  0  0  0  0  0
   21.7192  -12.6771    4.0529 O   0  0  0  0  0  0  0  0  0  0  0  0
   22.8489  -13.7547    2.3769 O   0  5  0  0  0  0  0  0  0  0  0  0
   22.4145  -14.3352    5.8903 O   0  0  0  0  0  0  0  0  0  0  0  0
   22.7236  -15.0787    6.4568 H   0  0  0  0  0  0  0  0  0  0  0  0
  2  1  1  1  0  0  0
  2  3  1  0  0  0  0
  2  5  1  0  0  0  0
  3  4  1  0  0  0  0
  4  5  1  0  0  0  0
  5  6  1  1  0  0  0
  5  7  1  0  0  0  0
  7  8  1  0  0  0  0
  8  9  1  1  0  0  0
  8 10  1  0  0  0  0
  8 13  1  0  0  0  0
 10 11  2  0  0  0  0
 10 12  1  0  0  0  0
 13 14  1  0  0  0  0
M  CHG  2   5   1  12  -1
M  END
>  <CHROM.0>
-57.12930166,-79.06856641,-66.50598752,-53.86900449,-175.70860587,-61.98892444
-169.44543516,-52.08478440,-167.41749729,161.19069158

>  <CHROM.1>
-172.85825388,156.79674614,121.87455863,56.75638215,21.67247918,-15.37150992
4.27218293,-2.38675368,-0.56906985,-0.67068031

>  <Name>
P135688421

>  <RI>
0

>  <Rbt.Current_Directory>
/home/fstefaniak/projects/zuza/docking/adenine/1Y26

>  <Rbt.Executable>
rbdock ($Id: //depot/dev/client3/rdock/2013.1/src/exe/rbdock.cxx#4 $)

>  <Rbt.Library>
libRbt.so (2013.1, Build901 2013/11/27)

>  <Rbt.Parameter_File>
/home/fstefaniak/progs/rDock//data/scripts/dock_solv.prm

>  <Rbt.Receptor>
1y26.prm

>  <SCORE>
-43.9842

>  <SCORE.INTER>
-22.6116

>  <SCORE.INTER.CONST>
1

>  <SCORE.INTER.POLAR>
-3.42939

>  <SCORE.INTER.ROT>
3

>  <SCORE.INTER.SOLV>
20.2914

>  <SCORE.INTER.VDW>
-16.0069

>  <SCORE.INTER.norm>
-1.8843

>  <SCORE.INTRA>
-0.718992

>  <SCORE.INTRA.DIHEDRAL>
-0.256214

>  <SCORE.INTRA.DIHEDRAL.0>
3.0936

>  <SCORE.INTRA.POLAR>
0.685166

>  <SCORE.INTRA.POLAR.0>
-0.685166

>  <SCORE.INTRA.REPUL>
0

>  <SCORE.INTRA.REPUL.0>
0

>  <SCORE.INTRA.SOLV>
-3.56189

>  <SCORE.INTRA.SOLV.lig_0>
-38.1044

>  <SCORE.INTRA.VDW>
-1.1395

>  <SCORE.INTRA.VDW.0>
1.06699

>  <SCORE.INTRA.norm>
-0.059916

>  <SCORE.RESTR>
0

>  <SCORE.RESTR.CAVITY>
0

>  <SCORE.RESTR.norm>
0

>  <SCORE.SYSTEM>
-20.6535

>  <SCORE.SYSTEM.CONST>
0

>  <SCORE.SYSTEM.DIHEDRAL>
7.19322

>  <SCORE.SYSTEM.POLAR>
-3.29503

>  <SCORE.SYSTEM.SOLV>
0.404713

>  <SCORE.SYSTEM.VDW>
-5.31823

>  <SCORE.SYSTEM.norm>
-1.72113

>  <SCORE.heavy>
12

>  <SCORE.norm>
-3.66535

$$$$
P135822850
 OpenBabel12072022103D
libRbt.so/2013.1/901 2013/11/27
 16 17  0  0  0  0  0  0  0  0999 V2000
   19.0419  -19.4869    5.7679 C   0  0  0  0  0  0  0  0  0  0  0  0
   19.5942  -19.1214    4.3973 C   0  0  2  0  0  0  0  0  0  0  0  0
   19.8963  -17.6265    4.2705 C   0  0  2  0  0  0  0  0  0  0  0  0
   18.7532  -17.1141    3.4156 C   0  0  0  0  0  0  0  0  0  0  0  0
   18.4222  -18.3132    2.5592 C   0  0  0  0  0  0  0  0  0  0  0  0
   18.5898  -19.4472    3.4168 O   0  0  0  0  0  0  0  0  0  0  0  0
   21.2572  -17.4048    3.6233 C   0  0  0  0  0  0  0  0  0  0  0  0
   21.5509  -17.8283    2.5091 O   0  0  0  0  0  0  0  0  0  0  0  0
   22.1158  -16.6554    4.3994 N   0  0  0  0  0  0  0  0  0  0  0  0
   23.4669  -16.3741    4.0244 C   0  0  2  0  0  0  0  0  0  0  0  0
   24.5708  -16.4911    5.0374 C   0  0  0  0  0  0  0  0  0  0  0  0
   24.1348  -15.1339    4.5733 C   0  0  2  0  0  0  0  0  0  0  0  0
   23.3775  -14.2743    5.4961 N   0  0  0  0  0  0  0  0  0  0  0  0
   21.8442  -16.3320    5.3233 H   0  0  0  0  0  0  0  0  0  0  0  0
   23.9972  -13.5722    5.9032 H   0  0  0  0  0  0  0  0  0  0  0  0
   23.0404  -14.8277    6.2855 H   0  0  0  0  0  0  0  0  0  0  0  0
  2  3  1  0  0  0  0
  2  6  1  0  0  0  0
  2  1  1  1  0  0  0
  3  4  1  0  0  0  0
  3  7  1  6  0  0  0
  4  5  1  0  0  0  0
  5  6  1  0  0  0  0
  7  8  2  0  0  0  0
  7  9  1  0  0  0  0
  9 14  1  0  0  0  0
 10 11  1  0  0  0  0
 10 12  1  0  0  0  0
 10  9  1  1  0  0  0
 11 12  1  0  0  0  0
 12 13  1  1  0  0  0
 13 15  1  0  0  0  0
 13 16  1  0  0  0  0
M  END
>  <CHROM.0>
-51.11369093,-78.64826052,-55.48713315,-52.87948577,-56.61782351,-57.83224411
-57.62415514,-51.43483152,-166.02706107,160.65036336

>  <CHROM.1>
58.46107919,-135.90077020,170.53294320,21.11633150,-17.33407831,4.12808922
3.10642886,-0.61027036,-1.32520758

>  <Name>
P135822850

>  <RI>
0

>  <Rbt.Current_Directory>
/home/fstefaniak/projects/zuza/docking/adenine/1Y26

>  <Rbt.Executable>
rbdock ($Id: //depot/dev/client3/rdock/2013.1/src/exe/rbdock.cxx#4 $)

>  <Rbt.Library>
libRbt.so (2013.1, Build901 2013/11/27)

>  <Rbt.Parameter_File>
/home/fstefaniak/progs/rDock//data/scripts/dock_solv.prm

>  <Rbt.Receptor>
1y26.prm

>  <SCORE>
-60.1132

>  <SCORE.INTER>
-40.3066

>  <SCORE.INTER.CONST>
1

>  <SCORE.INTER.POLAR>
-4.65754

>  <SCORE.INTER.ROT>
3

>  <SCORE.INTER.SOLV>
13.9531

>  <SCORE.INTER.VDW>
-21.597

>  <SCORE.INTER.norm>
-3.10051

>  <SCORE.INTRA>
1.92577

>  <SCORE.INTRA.DIHEDRAL>
3.51891

>  <SCORE.INTRA.DIHEDRAL.0>
2.95752

>  <SCORE.INTRA.POLAR>
0.0397795

>  <SCORE.INTRA.POLAR.0>
-0.0397795

>  <SCORE.INTRA.REPUL>
0

>  <SCORE.INTRA.REPUL.0>
0

>  <SCORE.INTRA.SOLV>
-0.00984587

>  <SCORE.INTRA.SOLV.lig_0>
-14.4552

>  <SCORE.INTRA.VDW>
0.0359834

>  <SCORE.INTRA.VDW.0>
-1.22633

>  <SCORE.INTRA.norm>
0.148136

>  <SCORE.RESTR>
0

>  <SCORE.RESTR.CAVITY>
0

>  <SCORE.RESTR.norm>
0

>  <SCORE.SYSTEM>
-21.7323

>  <SCORE.SYSTEM.CONST>
0

>  <SCORE.SYSTEM.DIHEDRAL>
7.18184

>  <SCORE.SYSTEM.POLAR>
-3.47145

>  <SCORE.SYSTEM.SOLV>
0.653451

>  <SCORE.SYSTEM.VDW>
-5.52849

>  <SCORE.SYSTEM.norm>
-1.67172

>  <SCORE.heavy>
13

>  <SCORE.norm>
-4.62409

$$$$
P135822850
 OpenBabel12072022103D
libRbt.so/2013.1/901 2013/11/27
 16 17  0  0  0  0  0  0  0  0999 V2000
   19.0140  -19.4435    5.7745 C   0  0  0  0  0  0  0  0  0  0  0  0
   19.5790  -19.0917    4.4056 C   0  0  2  0  0  0  0  0  0  0  0  0
   19.8767  -17.5972    4.2646 C   0  0  2  0  0  0  0  0  0  0  0  0
   18.7405  -17.0991    3.3921 C   0  0  0  0  0  0  0  0  0  0  0  0
   18.4229  -18.3093    2.5463 C   0  0  0  0  0  0  0  0  0  0  0  0
   18.5859  -19.4327    3.4186 O   0  0  0  0  0  0  0  0  0  0  0  0
   21.2433  -17.3776    3.6289 C   0  0  0  0  0  0  0  0  0  0  0  0
   21.5394  -17.7848    2.5092 O   0  0  0  0  0  0  0  0  0  0  0  0
   22.1047  -16.6501    4.4225 N   0  0  0  0  0  0  0  0  0  0  0  0
   23.4606  -16.3756    4.0599 C   0  0  2  0  0  0  0  0  0  0  0  0
   24.5517  -16.4769    5.0883 C   0  0  0  0  0  0  0  0  0  0  0  0
   24.1225  -15.1272    4.5973 C   0  0  2  0  0  0  0  0  0  0  0  0
   23.3544  -14.2525    5.4967 N   0  0  0  0  0  0  0  0  0  0  0  0
   21.8309  -16.3400    5.3503 H   0  0  0  0  0  0  0  0  0  0  0  0
   23.9678  -13.5390    5.8935 H   0  0  0  0  0  0  0  0  0  0  0  0
   23.0145  -14.7911    6.2950 H   0  0  0  0  0  0  0  0  0  0  0  0
  2  3  1  0  0  0  0
  2  6  1  0  0  0  0
  2  1  1  1  0  0  0
  3  4  1  0  0  0  0
  3  7  1  6  0  0  0
  4  5  1  0  0  0  0
  5  6  1  0  0  0  0
  7  8  2  0  0  0  0
  7  9  1  0  0  0  0
  9 14  1  0  0  0  0
 10 11  1  0  0  0  0
 10 12  1  0  0  0  0
 10  9  1  1  0  0  0
 11 12  1  0  0  0  0
 12 13  1  1  0  0  0
 13 15  1  0  0  0  0
 13 16  1  0  0  0  0
M  END
>  <CHROM.0>
-45.10163129,-80.12982794,-59.40867852,-53.84593215,-174.31021534,-57.39220793
-61.98356429,-51.36641960,-166.74112502,160.10776271

>  <CHROM.1>
60.30232420,-137.91076836,171.05722721,21.10268116,-17.31427022,4.13656069
3.10384239,-0.61006413,-1.31987772

>  <Name>
P135822850

>  <RI>
0

>  <Rbt.Current_Directory>
/home/fstefaniak/projects/zuza/docking/adenine/1Y26

>  <Rbt.Executable>
rbdock ($Id: //depot/dev/client3/rdock/2013.1/src/exe/rbdock.cxx#4 $)

>  <Rbt.Library>
libRbt.so (2013.1, Build901 2013/11/27)

>  <Rbt.Parameter_File>
/home/fstefaniak/progs/rDock//data/scripts/dock_solv.prm

>  <Rbt.Receptor>
1y26.prm

>  <SCORE>
-60.0223

>  <SCORE.INTER>
-40.4473

>  <SCORE.INTER.CONST>
1

>  <SCORE.INTER.POLAR>
-4.66843

>  <SCORE.INTER.ROT>
3

>  <SCORE.INTER.SOLV>
13.9042

>  <SCORE.INTER.VDW>
-21.6382

>  <SCORE.INTER.norm>
-3.11133

>  <SCORE.INTRA>
1.92326

>  <SCORE.INTRA.DIHEDRAL>
3.5075

>  <SCORE.INTRA.DIHEDRAL.0>
2.95752

>  <SCORE.INTRA.POLAR>
0.0397795

>  <SCORE.INTRA.POLAR.0>
-0.0397795

>  <SCORE.INTRA.REPUL>
0

>  <SCORE.INTRA.REPUL.0>
0

>  <SCORE.INTRA.SOLV>
-0.0100416

>  <SCORE.INTRA.SOLV.lig_0>
-14.4552

>  <SCORE.INTRA.VDW>
0.039276

>  <SCORE.INTRA.VDW.0>
-1.22633

>  <SCORE.INTRA.norm>
0.147943

>  <SCORE.RESTR>
0

>  <SCORE.RESTR.CAVITY>
0

>  <SCORE.RESTR.norm>
0

>  <SCORE.SYSTEM>
-21.4982

>  <SCORE.SYSTEM.CONST>
0

>  <SCORE.SYSTEM.DIHEDRAL>
8.01025

>  <SCORE.SYSTEM.POLAR>
-3.52615

>  <SCORE.SYSTEM.SOLV>
0.475375

>  <SCORE.SYSTEM.VDW>
-5.40684

>  <SCORE.SYSTEM.norm>
-1.65371

>  <SCORE.heavy>
13

>  <SCORE.norm>
-4.6171

$$$$
P135822850
 OpenBabel12072022103D
libRbt.so/2013.1/901 2013/11/27
 16 17  0  0  0  0  0  0  0  0999 V2000
   19.0055  -19.4704    5.7274 C   0  0  0  0  0  0  0  0  0  0  0  0
   19.5636  -19.1119    4.3572 C   0  0  2  0  0  0  0  0  0  0  0  0
   19.8664  -17.6177    4.2241 C   0  0  2  0  0  0  0  0  0  0  0  0
   18.7269  -17.1095    3.3618 C   0  0  0  0  0  0  0  0  0  0  0  0
   18.3994  -18.3130    2.5102 C   0  0  0  0  0  0  0  0  0  0  0  0
   18.5632  -19.4426    3.3742 O   0  0  0  0  0  0  0  0  0  0  0  0
   21.2300  -17.3994    3.5815 C   0  0  0  0  0  0  0  0  0  0  0  0
   21.5218  -17.8115    2.4625 O   0  0  0  0  0  0  0  0  0  0  0  0
   22.0938  -16.6670    4.3680 N   0  0  0  0  0  0  0  0  0  0  0  0
   23.4477  -16.3924    3.9982 C   0  0  2  0  0  0  0  0  0  0  0  0
   24.5468  -16.5126    5.0161 C   0  0  0  0  0  0  0  0  0  0  0  0
   24.1189  -15.1543    4.5479 C   0  0  2  0  0  0  0  0  0  0  0  0
   23.3616  -14.2897    5.4659 N   0  0  0  0  0  0  0  0  0  0  0  0
   21.8236  -16.3528    5.2954 H   0  0  0  0  0  0  0  0  0  0  0  0
   23.9804  -13.5830    5.8662 H   0  0  0  0  0  0  0  0  0  0  0  0
   23.0278  -14.8380    6.2603 H   0  0  0  0  0  0  0  0  0  0  0  0
  2  3  1  0  0  0  0
  2  6  1  0  0  0  0
  2  1  1  1  0  0  0
  3  4  1  0  0  0  0
  3  7  1  6  0  0  0
  4  5  1  0  0  0  0
  5  6  1  0  0  0  0
  7  8  2  0  0  0  0
  7  9  1  0  0  0  0
  9 14  1  0  0  0  0
 10 11  1  0  0  0  0
 10 12  1  0  0  0  0
 10  9  1  1  0  0  0
 11 12  1  0  0  0  0
 12 13  1  1  0  0  0
 13 15  1  0  0  0  0
 13 16  1  0  0  0  0
M  END
>  <CHROM.0>
-53.39352362,-75.91106689,-57.95315968,-50.97225209,-58.02791695,-57.76385306
-57.34227245,-52.11049934,-167.05106824,160.64184606

>  <CHROM.1>
59.58326351,-136.75695593,171.18580748,21.09126649,-17.33550961,4.08991123
3.10215709,-0.60626336,-1.32466948

>  <Name>
P135822850

>  <RI>
0

>  <Rbt.Current_Directory>
/home/fstefaniak/projects/zuza/docking/adenine/1Y26

>  <Rbt.Executable>
rbdock ($Id: //depot/dev/client3/rdock/2013.1/src/exe/rbdock.cxx#4 $)

>  <Rbt.Library>
libRbt.so (2013.1, Build901 2013/11/27)

>  <Rbt.Parameter_File>
/home/fstefaniak/progs/rDock//data/scripts/dock_solv.prm

>  <Rbt.Receptor>
1y26.prm

>  <SCORE>
-59.9714

>  <SCORE.INTER>
-40.0734

>  <SCORE.INTER.CONST>
1

>  <SCORE.INTER.POLAR>
-4.64763

>  <SCORE.INTER.ROT>
3

>  <SCORE.INTER.SOLV>
13.8963

>  <SCORE.INTER.VDW>
-21.4556

>  <SCORE.INTER.norm>
-3.08257

>  <SCORE.INTRA>
1.92503

>  <SCORE.INTRA.DIHEDRAL>
3.51593

>  <SCORE.INTRA.DIHEDRAL.0>
2.95752

>  <SCORE.INTRA.POLAR>
0.0397795

>  <SCORE.INTRA.POLAR.0>
-0.0397795

>  <SCORE.INTRA.REPUL>
0

>  <SCORE.INTRA.REPUL.0>
0

>  <SCORE.INTRA.SOLV>
-0.010765

>  <SCORE.INTRA.SOLV.lig_0>
-14.4552

>  <SCORE.INTRA.VDW>
0.037192

>  <SCORE.INTRA.VDW.0>
-1.22633

>  <SCORE.INTRA.norm>
0.148079

>  <SCORE.RESTR>
0

>  <SCORE.RESTR.CAVITY>
0

>  <SCORE.RESTR.norm>
0

>  <SCORE.SYSTEM>
-21.823

>  <SCORE.SYSTEM.CONST>
0

>  <SCORE.SYSTEM.DIHEDRAL>
6.49068

>  <SCORE.SYSTEM.POLAR>
-3.44886

>  <SCORE.SYSTEM.SOLV>
0.652204

>  <SCORE.SYSTEM.VDW>
-5.43341

>  <SCORE.SYSTEM.norm>
-1.67869

>  <SCORE.heavy>
13

>  <SCORE.norm>
-4.61318

$$$$
P135988194
 OpenBabel12072022103D
libRbt.so/2013.1/901 2013/11/27
 18 18  0  0  0  0  0  0  0  0999 V2000
   22.6565  -12.7184    2.6851 C   0  0  0  0  0  0  0  0  0  0  0  0
   23.5719  -13.2059    3.8252 C   0  0  0  0  0  0  0  0  0  0  0  0
   23.5261  -12.2316    5.0131 C   0  0  0  0  0  0  0  0  0  0  0  0
   22.2612  -12.5924    5.7887 C   0  0  0  0  0  0  0  0  0  0  0  0
   21.8887  -14.0164    5.3743 C   0  0  0  0  0  0  0  0  0  0  0  0
   23.0151  -14.5040    4.4516 C   0  0  2  0  0  0  0  0  0  0  0  0
   24.0278  -15.2251    5.2565 N   0  0  0  0  0  0  0  0  0  0  0  0
   24.5577  -16.4255    4.9525 C   0  0  0  0  0  0  0  0  0  0  0  0
   24.2477  -17.0908    3.7921 N   0  3  0  0  0  0  0  0  0  0  0  0
   23.7695  -16.6446    3.0121 H   0  0  0  0  0  0  0  0  0  0  0  0
   24.7760  -18.3739    3.5741 N   0  0  0  0  0  0  0  0  0  0  0  0
   25.4267  -16.9897    5.8083 N   0  0  0  0  0  0  0  0  0  0  0  0
   24.9964  -13.3346    3.2757 C   0  0  0  0  0  0  0  0  0  0  0  0
   24.2909  -14.8272    6.1494 H   0  0  0  0  0  0  0  0  0  0  0  0
   24.3160  -19.0430    4.2041 H   0  0  0  0  0  0  0  0  0  0  0  0
   24.5525  -18.6796    2.6185 H   0  0  0  0  0  0  0  0  0  0  0  0
   25.7181  -16.5566    6.6718 H   0  0  0  0  0  0  0  0  0  0  0  0
   25.9046  -17.8275    5.4968 H   0  0  0  0  0  0  0  0  0  0  0  0
  1  2  1  0  0  0  0
  2  3  1  0  0  0  0
  2  6  1  0  0  0  0
  2 13  1  0  0  0  0
  3  4  1  0  0  0  0
  4  5  1  0  0  0  0
  5  6  1  0  0  0  0
  6  7  1  1  0  0  0
  7  8  1  0  0  0  0
  7 14  1  0  0  0  0
  8  9  2  0  0  0  0
  8 12  1  0  0  0  0
  9 10  1  0  0  0  0
  9 11  1  0  0  0  0
 11 15  1  0  0  0  0
 11 16  1  0  0  0  0
 12 17  1  0  0  0  0
 12 18  1  0  0  0  0
M  CHG  1   9   1
M  END
>  <CHROM.0>
-49.62236729,-63.08793955,-53.38292435,-51.49250121,-57.85203911,-59.87950449
-58.34950768,69.92372812,-167.24937550,160.55007688

>  <CHROM.1>
-112.94091257,71.33253454,23.77906298,-14.79344764,4.47514887,-2.61432155
-1.12261514,2.14122973

>  <Name>
P135988194

>  <RI>
0

>  <Rbt.Current_Directory>
/home/fstefaniak/projects/zuza/docking/adenine/1Y26

>  <Rbt.Executable>
rbdock ($Id: //depot/dev/client3/rdock/2013.1/src/exe/rbdock.cxx#4 $)

>  <Rbt.Library>
libRbt.so (2013.1, Build901 2013/11/27)

>  <Rbt.Parameter_File>
/home/fstefaniak/progs/rDock//data/scripts/dock_solv.prm

>  <Rbt.Receptor>
1y26.prm

>  <SCORE>
-44.3513

>  <SCORE.INTER>
-23.9043

>  <SCORE.INTER.CONST>
1

>  <SCORE.INTER.POLAR>
-4.49435

>  <SCORE.INTER.ROT>
2

>  <SCORE.INTER.SOLV>
21.1825

>  <SCORE.INTER.VDW>
-12.9492

>  <SCORE.INTER.norm>
-1.99202

>  <SCORE.INTRA>
-0.11539

>  <SCORE.INTRA.DIHEDRAL>
0.234895

>  <SCORE.INTRA.DIHEDRAL.0>
2.84556

>  <SCORE.INTRA.POLAR>
-0.00648267

>  <SCORE.INTRA.POLAR.0>
-0.0382042

>  <SCORE.INTRA.REPUL>
0

>  <SCORE.INTRA.REPUL.0>
0

>  <SCORE.INTRA.SOLV>
-0.270219

>  <SCORE.INTRA.SOLV.lig_0>
-25.848

>  <SCORE.INTRA.VDW>
-0.0756869

>  <SCORE.INTRA.VDW.0>
-1.38046

>  <SCORE.INTRA.norm>
-0.00961583

>  <SCORE.RESTR>
1.00306

>  <SCORE.RESTR.CAVITY>
1.00306

>  <SCORE.RESTR.norm>
0.0835884

>  <SCORE.SYSTEM>
-21.3347

>  <SCORE.SYSTEM.CONST>
0

>  <SCORE.SYSTEM.DIHEDRAL>
5.95116

>  <SCORE.SYSTEM.POLAR>
-3.48976

>  <SCORE.SYSTEM.SOLV>
0.437013

>  <SCORE.SYSTEM.VDW>
-4.71998

>  <SCORE.SYSTEM.norm>
-1.77789

>  <SCORE.heavy>
12

>  <SCORE.norm>
-3.69594

$$$$
P135988194
 OpenBabel12072022103D
libRbt.so/2013.1/901 2013/11/27
 18 18  0  0  0  0  0  0  0  0999 V2000
   22.6587  -12.7098    2.6672 C   0  0  0  0  0  0  0  0  0  0  0  0
   23.5734  -13.1988    3.8073 C   0  0  0  0  0  0  0  0  0  0  0  0
   23.5309  -12.2234    4.9943 C   0  0  0  0  0  0  0  0  0  0  0  0
   22.2655  -12.5800    5.7709 C   0  0  0  0  0  0  0  0  0  0  0  0
   21.8888  -14.0033    5.3580 C   0  0  0  0  0  0  0  0  0  0  0  0
   23.0134  -14.4949    4.4351 C   0  0  2  0  0  0  0  0  0  0  0  0
   24.0245  -15.2180    5.2401 N   0  0  0  0  0  0  0  0  0  0  0  0
   24.5515  -16.4198    4.9365 C   0  0  0  0  0  0  0  0  0  0  0  0
   24.2396  -17.0849    3.7765 N   0  3  0  0  0  0  0  0  0  0  0  0
   23.7623  -16.6379    2.9964 H   0  0  0  0  0  0  0  0  0  0  0  0
   24.7647  -18.3693    3.5589 N   0  0  0  0  0  0  0  0  0  0  0  0
   25.4194  -16.9857    5.7923 N   0  0  0  0  0  0  0  0  0  0  0  0
   24.9972  -13.3320    3.2570 C   0  0  0  0  0  0  0  0  0  0  0  0
   24.2889  -14.8203    6.1327 H   0  0  0  0  0  0  0  0  0  0  0  0
   24.2700  -19.0449    4.1548 H   0  0  0  0  0  0  0  0  0  0  0  0
   24.5821  -18.6554    2.5887 H   0  0  0  0  0  0  0  0  0  0  0  0
   25.7120  -16.5530    6.6556 H   0  0  0  0  0  0  0  0  0  0  0  0
   25.8951  -17.8248    5.4811 H   0  0  0  0  0  0  0  0  0  0  0  0
  1  2  1  0  0  0  0
  2  3  1  0  0  0  0
  2  6  1  0  0  0  0
  2 13  1  0  0  0  0
  3  4  1  0  0  0  0
  4  5  1  0  0  0  0
  5  6  1  0  0  0  0
  6  7  1  1  0  0  0
  7  8  1  0  0  0  0
  7 14  1  0  0  0  0
  8  9  2  0  0  0  0
  8 12  1  0  0  0  0
  9 10  1  0  0  0  0
  9 11  1  0  0  0  0
 11 15  1  0  0  0  0
 11 16  1  0  0  0  0
 12 17  1  0  0  0  0
 12 18  1  0  0  0  0
M  CHG  1   9   1
M  END
>  <CHROM.0>
-50.00931761,-64.52079322,-54.80017723,-52.41024562,-57.47730760,-174.82867239
-57.81268787,64.57929470,-165.26356626,161.32196783

>  <CHROM.1>
-112.90428233,74.20443991,23.77693121,-14.78610086,4.45796466,-2.61256592
-1.12495701,2.14244643

>  <Name>
P135988194

>  <RI>
0

>  <Rbt.Current_Directory>
/home/fstefaniak/projects/zuza/docking/adenine/1Y26

>  <Rbt.Executable>
rbdock ($Id: //depot/dev/client3/rdock/2013.1/src/exe/rbdock.cxx#4 $)

>  <Rbt.Library>
libRbt.so (2013.1, Build901 2013/11/27)

>  <Rbt.Parameter_File>
/home/fstefaniak/progs/rDock//data/scripts/dock_solv.prm

>  <Rbt.Receptor>
1y26.prm

>  <SCORE>
-44.2948

>  <SCORE.INTER>
-24.0566

>  <SCORE.INTER.CONST>
1

>  <SCORE.INTER.POLAR>
-4.48221

>  <SCORE.INTER.ROT>
2

>  <SCORE.INTER.SOLV>
21.0898

>  <SCORE.INTER.VDW>
-13.0603

>  <SCORE.INTER.norm>
-2.00471

>  <SCORE.INTRA>
-0.112051

>  <SCORE.INTRA.DIHEDRAL>
0.261624

>  <SCORE.INTRA.DIHEDRAL.0>
2.84556

>  <SCORE.INTRA.POLAR>
-0.00737719

>  <SCORE.INTRA.POLAR.0>
-0.0382042

>  <SCORE.INTRA.REPUL>
0

>  <SCORE.INTRA.REPUL.0>
0

>  <SCORE.INTRA.SOLV>
-0.279307

>  <SCORE.INTRA.SOLV.lig_0>
-25.848

>  <SCORE.INTRA.VDW>
-0.078127

>  <SCORE.INTRA.VDW.0>
-1.38046

>  <SCORE.INTRA.norm>
-0.00933758

>  <SCORE.RESTR>
1.0418

>  <SCORE.RESTR.CAVITY>
1.0418

>  <SCORE.RESTR.norm>
0.0868166

>  <SCORE.SYSTEM>
-21.168

>  <SCORE.SYSTEM.CONST>
0

>  <SCORE.SYSTEM.DIHEDRAL>
5.73475

>  <SCORE.SYSTEM.POLAR>
-3.4423

>  <SCORE.SYSTEM.SOLV>
0.290433

>  <SCORE.SYSTEM.VDW>
-4.64605

>  <SCORE.SYSTEM.norm>
-1.764

>  <SCORE.heavy>
12

>  <SCORE.norm>
-3.69124

$$$$
P135988194
 OpenBabel12072022103D
libRbt.so/2013.1/901 2013/11/27
 18 18  0  0  0  0  0  0  0  0999 V2000
   22.6780  -12.6856    2.7018 C   0  0  0  0  0  0  0  0  0  0  0  0
   23.5818  -13.1865    3.8455 C   0  0  0  0  0  0  0  0  0  0  0  0
   23.5086  -12.2367    5.0517 C   0  0  0  0  0  0  0  0  0  0  0  0
   22.2363  -12.6255    5.8012 C   0  0  0  0  0  0  0  0  0  0  0  0
   21.8845  -14.0446    5.3532 C   0  0  0  0  0  0  0  0  0  0  0  0
   23.0293  -14.5024    4.4378 C   0  0  2  0  0  0  0  0  0  0  0  0
   24.0375  -15.2292    5.2432 N   0  0  0  0  0  0  0  0  0  0  0  0
   24.5606  -16.4327    4.9395 C   0  0  0  0  0  0  0  0  0  0  0  0
   24.2471  -17.0963    3.7791 N   0  3  0  0  0  0  0  0  0  0  0  0
   23.7718  -16.6475    2.9988 H   0  0  0  0  0  0  0  0  0  0  0  0
   24.7681  -18.3825    3.5613 N   0  0  0  0  0  0  0  0  0  0  0  0
   25.4260  -17.0018    5.7956 N   0  0  0  0  0  0  0  0  0  0  0  0
   25.0153  -13.2900    3.3146 C   0  0  0  0  0  0  0  0  0  0  0  0
   24.3026  -14.8328    6.1360 H   0  0  0  0  0  0  0  0  0  0  0  0
   24.2585  -19.0592    4.1432 H   0  0  0  0  0  0  0  0  0  0  0  0
   24.6012  -18.6602    2.5859 H   0  0  0  0  0  0  0  0  0  0  0  0
   25.7195  -16.5703    6.6592 H   0  0  0  0  0  0  0  0  0  0  0  0
   25.8991  -17.8424    5.4844 H   0  0  0  0  0  0  0  0  0  0  0  0
  1  2  1  0  0  0  0
  2  3  1  0  0  0  0
  2  6  1  0  0  0  0
  2 13  1  0  0  0  0
  3  4  1  0  0  0  0
  4  5  1  0  0  0  0
  5  6  1  0  0  0  0
  6  7  1  1  0  0  0
  7  8  1  0  0  0  0
  7 14  1  0  0  0  0
  8  9  2  0  0  0  0
  8 12  1  0  0  0  0
  9 10  1  0  0  0  0
  9 11  1  0  0  0  0
 11 15  1  0  0  0  0
 11 16  1  0  0  0  0
 12 17  1  0  0  0  0
 12 18  1  0  0  0  0
M  CHG  1   9   1
M  END
>  <CHROM.0>
-47.72416533,-62.44952082,-63.77181157,-51.48011513,-56.97876478,-60.29402835
-169.68600759,-52.48547588,-166.35215826,160.75479833

>  <CHROM.1>
-114.61926920,75.29029434,23.78082481,-14.79380702,4.47684730,-2.57837138
-1.11565522,2.18537021

>  <Name>
P135988194

>  <RI>
0

>  <Rbt.Current_Directory>
/home/fstefaniak/projects/zuza/docking/adenine/1Y26

>  <Rbt.Executable>
rbdock ($Id: //depot/dev/client3/rdock/2013.1/src/exe/rbdock.cxx#4 $)

>  <Rbt.Library>
libRbt.so (2013.1, Build901 2013/11/27)

>  <Rbt.Parameter_File>
/home/fstefaniak/progs/rDock//data/scripts/dock_solv.prm

>  <Rbt.Receptor>
1y26.prm

>  <SCORE>
-44.2194

>  <SCORE.INTER>
-23.7821

>  <SCORE.INTER.CONST>
1

>  <SCORE.INTER.POLAR>
-4.4487

>  <SCORE.INTER.ROT>
2

>  <SCORE.INTER.SOLV>
21.1479

>  <SCORE.INTER.VDW>
-13.0084

>  <SCORE.INTER.norm>
-1.98184

>  <SCORE.INTRA>
-0.106849

>  <SCORE.INTRA.DIHEDRAL>
0.298543

>  <SCORE.INTRA.DIHEDRAL.0>
2.84556

>  <SCORE.INTRA.POLAR>
-0.00737719

>  <SCORE.INTRA.POLAR.0>
-0.0382042

>  <SCORE.INTRA.REPUL>
0

>  <SCORE.INTRA.REPUL.0>
0

>  <SCORE.INTRA.SOLV>
-0.303834

>  <SCORE.INTRA.SOLV.lig_0>
-25.848

>  <SCORE.INTRA.VDW>
-0.079121

>  <SCORE.INTRA.VDW.0>
-1.38046

>  <SCORE.INTRA.norm>
-0.00890406

>  <SCORE.RESTR>
1.0343

>  <SCORE.RESTR.CAVITY>
1.0343

>  <SCORE.RESTR.norm>
0.0861914

>  <SCORE.SYSTEM>
-21.3648

>  <SCORE.SYSTEM.CONST>
0

>  <SCORE.SYSTEM.DIHEDRAL>
6.38957

>  <SCORE.SYSTEM.POLAR>
-3.49547

>  <SCORE.SYSTEM.SOLV>
0.607395

>  <SCORE.SYSTEM.VDW>
-4.92392

>  <SCORE.SYSTEM.norm>
-1.7804

>  <SCORE.heavy>
12

>  <SCORE.norm>
-3.68495

$$$$
P136004391
 OpenBabel12072022103D
libRbt.so/2013.1/901 2013/11/27
 16 16  0  0  0  0  0  0  0  0999 V2000
   21.8862  -12.3927    3.5897 C   0  0  0  0  0  0  0  0  0  0  0  0
   22.7238  -13.6681    3.7072 C   0  0  2  0  0  0  0  0  0  0  0  0
   21.8638  -14.9117    3.4726 C   0  0  0  0  0  0  0  0  0  0  0  0
   22.4741  -16.2012    3.8212 N   0  0  0  0  0  0  0  0  0  0  0  0
   23.5980  -16.2677    4.7608 C   0  0  0  0  0  0  0  0  0  0  0  0
   24.3807  -14.9798    4.9755 C   0  0  0  0  0  0  0  0  0  0  0  0
   23.4684  -13.7665    5.0371 C   0  0  2  0  0  0  0  0  0  0  0  0
   22.5522  -13.8583    6.1937 N   0  3  0  0  0  0  0  0  0  0  0  0
   23.0794  -13.7345    7.1113 H   0  0  0  0  0  0  0  0  0  0  0  0
   21.8568  -13.1121    6.2592 H   0  0  0  0  0  0  0  0  0  0  0  0
   22.0947  -14.7605    6.3323 H   0  0  0  0  0  0  0  0  0  0  0  0
   21.3837  -17.1856    4.2002 C   0  0  1  0  0  0  0  0  0  0  0  0
   20.3214  -16.5318    5.0821 C   0  0  0  0  0  0  0  0  0  0  0  0
   20.7072  -17.8804    2.9356 C   0  0  0  0  0  0  0  0  0  0  0  0
   21.3967  -17.9220    1.8853 O   0  0  0  0  0  0  0  0  0  0  0  0
   19.5238  -18.3385    3.1125 O   0  5  0  0  0  0  0  0  0  0  0  0
  2  3  1  0  0  0  0
  2  1  1  1  0  0  0
  2  7  1  0  0  0  0
  3  4  1  0  0  0  0
  4  5  1  0  0  0  0
  4 12  1  0  0  0  0
  5  6  1  0  0  0  0
  6  7  1  0  0  0  0
  7  8  1  1  0  0  0
  8  9  1  0  0  0  0
  8 10  1  0  0  0  0
  8 11  1  0  0  0  0
 12 13  1  6  0  0  0
 12 14  1  0  0  0  0
 14 15  2  0  0  0  0
 14 16  1  0  0  0  0
M  CHG  2   8   1  16  -1
M  END
>  <CHROM.0>
-43.49186114,-79.28338864,-51.28824242,-51.54601234,-54.78994754,-57.66883860
-51.93228909,-49.52172373,-164.79191809,161.51869859

>  <CHROM.1>
-42.38012871,-168.91794652,23.79655461,21.98970156,-15.68359540,4.07797072
0.92523739,-0.65406051,-0.02664957

>  <Name>
P136004391

>  <RI>
0

>  <Rbt.Current_Directory>
/home/fstefaniak/projects/zuza/docking/adenine/1Y26

>  <Rbt.Executable>
rbdock ($Id: //depot/dev/client3/rdock/2013.1/src/exe/rbdock.cxx#4 $)

>  <Rbt.Library>
libRbt.so (2013.1, Build901 2013/11/27)

>  <Rbt.Parameter_File>
/home/fstefaniak/progs/rDock//data/scripts/dock_solv.prm

>  <Rbt.Receptor>
1y26.prm

>  <SCORE>
-32.1891

>  <SCORE.INTER>
-11.4141

>  <SCORE.INTER.CONST>
1

>  <SCORE.INTER.POLAR>
-2.74499

>  <SCORE.INTER.ROT>
2

>  <SCORE.INTER.SOLV>
23.9898

>  <SCORE.INTER.VDW>
-11.3894

>  <SCORE.INTER.norm>
-0.878004

>  <SCORE.INTRA>
0.511765

>  <SCORE.INTRA.DIHEDRAL>
0.911998

>  <SCORE.INTRA.DIHEDRAL.0>
1.37702

>  <SCORE.INTRA.POLAR>
0.254146

>  <SCORE.INTRA.POLAR.0>
-0.254146

>  <SCORE.INTRA.REPUL>
0

>  <SCORE.INTRA.REPUL.0>
0

>  <SCORE.INTRA.SOLV>
-6.83293

>  <SCORE.INTRA.SOLV.lig_0>
-40.6066

>  <SCORE.INTRA.VDW>
2.60814

>  <SCORE.INTRA.VDW.0>
2.25181

>  <SCORE.INTRA.norm>
0.0393665

>  <SCORE.RESTR>
0

>  <SCORE.RESTR.CAVITY>
0

>  <SCORE.RESTR.norm>
0

>  <SCORE.SYSTEM>
-21.2868

>  <SCORE.SYSTEM.CONST>
0

>  <SCORE.SYSTEM.DIHEDRAL>
9.04007

>  <SCORE.SYSTEM.POLAR>
-3.65416

>  <SCORE.SYSTEM.SOLV>
0.683958

>  <SCORE.SYSTEM.VDW>
-5.25202

>  <SCORE.SYSTEM.norm>
-1.63745

>  <SCORE.heavy>
13

>  <SCORE.norm>
-2.47608

$$$$
P136004391
 OpenBabel12072022103D
libRbt.so/2013.1/901 2013/11/27
 16 16  0  0  0  0  0  0  0  0999 V2000
   21.8945  -12.4461    3.6456 C   0  0  0  0  0  0  0  0  0  0  0  0
   22.7110  -13.7384    3.7188 C   0  0  2  0  0  0  0  0  0  0  0  0
   21.8249  -14.9609    3.4715 C   0  0  0  0  0  0  0  0  0  0  0  0
   22.4180  -16.2686    3.7795 N   0  0  0  0  0  0  0  0  0  0  0  0
   23.5570  -16.3765    4.6968 C   0  0  0  0  0  0  0  0  0  0  0  0
   24.3664  -15.1079    4.9266 C   0  0  0  0  0  0  0  0  0  0  0  0
   23.4772  -13.8805    5.0324 C   0  0  2  0  0  0  0  0  0  0  0  0
   22.5801  -13.9830    6.2030 N   0  3  0  0  0  0  0  0  0  0  0  0
   22.1462  -14.9538    6.2697 H   0  0  0  0  0  0  0  0  0  0  0  0
   23.0398  -13.9054    7.1126 H   0  0  0  0  0  0  0  0  0  0  0  0
   21.7545  -13.3824    6.1887 H   0  0  0  0  0  0  0  0  0  0  0  0
   21.3170  -17.2423    4.1556 C   0  0  1  0  0  0  0  0  0  0  0  0
   20.2863  -16.5926    5.0772 C   0  0  0  0  0  0  0  0  0  0  0  0
   20.6007  -17.8900    2.8880 C   0  0  0  0  0  0  0  0  0  0  0  0
   21.2797  -17.9485    1.8316 O   0  0  0  0  0  0  0  0  0  0  0  0
   19.3995  -18.2975    3.0687 O   0  5  0  0  0  0  0  0  0  0  0  0
  2  3  1  0  0  0  0
  2  1  1  1  0  0  0
  2  7  1  0  0  0  0
  3  4  1  0  0  0  0
  4  5  1  0  0  0  0
  4 12  1  0  0  0  0
  5  6  1  0  0  0  0
  6  7  1  0  0  0  0
  7  8  1  1  0  0  0
  8  9  1  0  0  0  0
  8 10  1  0  0  0  0
  8 11  1  0  0  0  0
 12 13  1  6  0  0  0
 12 14  1  0  0  0  0
 14 15  2  0  0  0  0
 14 16  1  0  0  0  0
M  CHG  2   8   1  16  -1
M  END
>  <CHROM.0>
-52.71255267,-77.05124824,-50.22495886,-53.14163359,-172.66805402,-60.99475030
-59.98735035,-49.33690764,-168.04917431,160.64451035

>  <CHROM.1>
-42.67840419,76.33900251,25.62364482,21.94529896,-15.74845300,4.05625678
0.91149325,-0.61730326,-0.00024388

>  <Name>
P136004391

>  <RI>
0

>  <Rbt.Current_Directory>
/home/fstefaniak/projects/zuza/docking/adenine/1Y26

>  <Rbt.Executable>
rbdock ($Id: //depot/dev/client3/rdock/2013.1/src/exe/rbdock.cxx#4 $)

>  <Rbt.Library>
libRbt.so (2013.1, Build901 2013/11/27)

>  <Rbt.Parameter_File>
/home/fstefaniak/progs/rDock//data/scripts/dock_solv.prm

>  <Rbt.Receptor>
1y26.prm

>  <SCORE>
-32.0968

>  <SCORE.INTER>
-11.7161

>  <SCORE.INTER.CONST>
1

>  <SCORE.INTER.POLAR>
-2.61054

>  <SCORE.INTER.ROT>
2

>  <SCORE.INTER.SOLV>
24.3255

>  <SCORE.INTER.VDW>
-12.1508

>  <SCORE.INTER.norm>
-0.901241

>  <SCORE.INTRA>
1.29597

>  <SCORE.INTRA.DIHEDRAL>
1.20475

>  <SCORE.INTRA.DIHEDRAL.0>
1.37702

>  <SCORE.INTRA.POLAR>
0.254146

>  <SCORE.INTRA.POLAR.0>
-0.254146

>  <SCORE.INTRA.REPUL>
0

>  <SCORE.INTRA.REPUL.0>
0

>  <SCORE.INTRA.SOLV>
-6.28041

>  <SCORE.INTRA.SOLV.lig_0>
-40.6066

>  <SCORE.INTRA.VDW>
2.96971

>  <SCORE.INTRA.VDW.0>
2.25181

>  <SCORE.INTRA.norm>
0.0996903

>  <SCORE.RESTR>
0

>  <SCORE.RESTR.CAVITY>
0

>  <SCORE.RESTR.norm>
0

>  <SCORE.SYSTEM>
-21.6767

>  <SCORE.SYSTEM.CONST>
0

>  <SCORE.SYSTEM.DIHEDRAL>
7.25027

>  <SCORE.SYSTEM.POLAR>
-3.47358

>  <SCORE.SYSTEM.SOLV>
0.486228

>  <SCORE.SYSTEM.VDW>
-5.45134

>  <SCORE.SYSTEM.norm>
-1.66743

>  <SCORE.heavy>
13

>  <SCORE.norm>
-2.46899

$$$$
P136004391
 OpenBabel12072022103D
libRbt.so/2013.1/901 2013/11/27
 16 16  0  0  0  0  0  0  0  0999 V2000
   24.6401  -13.1596    2.1973 C   0  0  0  0  0  0  0  0  0  0  0  0
   23.4991  -13.4195    3.1835 C   0  0  2  0  0  0  0  0  0  0  0  0
   23.1598  -12.1544    3.9742 C   0  0  0  0  0  0  0  0  0  0  0  0
   22.2781  -12.3287    5.1356 N   0  0  0  0  0  0  0  0  0  0  0  0
   22.1338  -13.6403    5.7756 C   0  0  0  0  0  0  0  0  0  0  0  0
   22.5316  -14.8501    4.9418 C   0  0  0  0  0  0  0  0  0  0  0  0
   23.7856  -14.5874    4.1252 C   0  0  2  0  0  0  0  0  0  0  0  0
   24.9423  -14.3313    5.0094 N   0  3  0  0  0  0  0  0  0  0  0  0
   25.8599  -14.4153    4.4744 H   0  0  0  0  0  0  0  0  0  0  0  0
   25.0092  -13.3791    5.3748 H   0  0  0  0  0  0  0  0  0  0  0  0
   25.0797  -14.9967    5.7715 H   0  0  0  0  0  0  0  0  0  0  0  0
   22.5777  -11.2495    6.1589 C   0  0  1  0  0  0  0  0  0  0  0  0
   22.4723   -9.8536    5.5472 C   0  0  0  0  0  0  0  0  0  0  0  0
   21.6651  -11.3573    7.4609 C   0  0  0  0  0  0  0  0  0  0  0  0
   22.2525  -11.2415    8.5662 O   0  0  0  0  0  0  0  0  0  0  0  0
   20.4143  -11.5452    7.2562 O   0  5  0  0  0  0  0  0  0  0  0  0
  2  3  1  0  0  0  0
  2  1  1  1  0  0  0
  2  7  1  0  0  0  0
  3  4  1  0  0  0  0
  4  5  1  0  0  0  0
  4 12  1  0  0  0  0
  5  6  1  0  0  0  0
  6  7  1  0  0  0  0
  7  8  1  1  0  0  0
  8  9  1  0  0  0  0
  8 10  1  0  0  0  0
  8 11  1  0  0  0  0
 12 13  1  6  0  0  0
 12 14  1  0  0  0  0
 14 15  2  0  0  0  0
 14 16  1  0  0  0  0
M  CHG  2   8   1  16  -1
M  END
>  <CHROM.0>
-45.00374090,-61.90933462,-55.52924395,60.60639512,57.72068244,-53.95059074
-54.01371146,69.18467564,-168.17420056,160.40442072

>  <CHROM.1>
54.91732380,-74.82553531,134.44492481,22.81858452,-12.58888365,5.36070306
-0.25787492,1.06869511,-0.33603480

>  <Name>
P136004391

>  <RI>
0

>  <Rbt.Current_Directory>
/home/fstefaniak/projects/zuza/docking/adenine/1Y26

>  <Rbt.Executable>
rbdock ($Id: //depot/dev/client3/rdock/2013.1/src/exe/rbdock.cxx#4 $)

>  <Rbt.Library>
libRbt.so (2013.1, Build901 2013/11/27)

>  <Rbt.Parameter_File>
/home/fstefaniak/progs/rDock//data/scripts/dock_solv.prm

>  <Rbt.Receptor>
1y26.prm

>  <SCORE>
-32.0962

>  <SCORE.INTER>
-15.4545

>  <SCORE.INTER.CONST>
1

>  <SCORE.INTER.POLAR>
-3.07439

>  <SCORE.INTER.ROT>
2

>  <SCORE.INTER.SOLV>
19.1355

>  <SCORE.INTER.VDW>
-11.3668

>  <SCORE.INTER.norm>
-1.1888

>  <SCORE.INTRA>
-2.54154

>  <SCORE.INTRA.DIHEDRAL>
0.369606

>  <SCORE.INTRA.DIHEDRAL.0>
1.37702

>  <SCORE.INTRA.POLAR>
0.254146

>  <SCORE.INTRA.POLAR.0>
-0.254146

>  <SCORE.INTRA.REPUL>
0

>  <SCORE.INTRA.REPUL.0>
0

>  <SCORE.INTRA.SOLV>
-7.05975

>  <SCORE.INTRA.SOLV.lig_0>
-40.6066

>  <SCORE.INTRA.VDW>
-0.0605638

>  <SCORE.INTRA.VDW.0>
2.25181

>  <SCORE.INTRA.norm>
-0.195503

>  <SCORE.RESTR>
2.7744

>  <SCORE.RESTR.CAVITY>
2.7744

>  <SCORE.RESTR.norm>
0.213415

>  <SCORE.SYSTEM>
-16.8746

>  <SCORE.SYSTEM.CONST>
0

>  <SCORE.SYSTEM.DIHEDRAL>
6.20934

>  <SCORE.SYSTEM.POLAR>
-2.99048

>  <SCORE.SYSTEM.SOLV>
0.194607

>  <SCORE.SYSTEM.VDW>
-3.41609

>  <SCORE.SYSTEM.norm>
-1.29804

>  <SCORE.heavy>
13

>  <SCORE.norm>
-2.46894

$$$$
P136023713
 OpenBabel12072022103D
libRbt.so/2013.1/901 2013/11/27
 14 14  0  0  0  0  0  0  0  0999 V2000
   21.0606  -15.0582    4.4549 C   0  0  0  0  0  0  0  0  0  0  0  0
   21.9900  -16.2679    4.3841 C   0  0  0  0  0  0  0  0  0  0  0  0
   23.2861  -15.7284    3.9436 N   0  0  0  0  0  0  0  0  0  0  0  0
   23.2533  -14.2557    3.9781 C   0  0  0  0  0  0  0  0  0  0  0  0
   21.9925  -13.9015    4.7794 C   0  0  2  0  0  0  0  0  0  0  0  0
   22.2775  -13.8653    6.2259 N   0  3  0  0  0  0  0  0  0  0  0  0
   22.7572  -14.7712    6.5096 H   0  0  0  0  0  0  0  0  0  0  0  0
   23.0434  -13.2355    6.4907 H   0  0  0  0  0  0  0  0  0  0  0  0
   21.4995  -13.7665    6.8755 H   0  0  0  0  0  0  0  0  0  0  0  0
   24.4394  -16.4375    4.2256 C   0  0  0  0  0  0  0  0  0  0  0  0
   24.8418  -17.6589    3.8590 C   0  0  0  0  0  0  0  0  0  0  0  0
   24.1531  -18.6396    2.9332 C   0  0  0  0  0  0  0  0  0  0  0  0
   24.6233  -19.8223    2.9306 O   0  0  0  0  0  0  0  0  0  0  0  0
   23.2330  -18.1713    2.2206 O   0  5  0  0  0  0  0  0  0  0  0  0
  1  2  1  0  0  0  0
  1  5  1  0  0  0  0
  2  3  1  0  0  0  0
  3  4  1  0  0  0  0
  3 10  1  0  0  0  0
  4  5  1  0  0  0  0
  5  6  1  1  0  0  0
  6  7  1  0  0  0  0
  6  8  1  0  0  0  0
  6  9  1  0  0  0  0
 10 11  2  0  0  0  0
 11 12  1  0  0  0  0
 12 13  2  0  0  0  0
 12 14  1  0  0  0  0
M  CHG  2   6   1  14  -1
M  END
>  <CHROM.0>
-44.78300697,-168.93963992,-50.13195342,-48.77348892,-51.36333554,-170.69475440
-53.01107376,-49.53161543,-163.25113702,163.77330384

>  <CHROM.1>
61.72461158,61.10994566,-168.13676025,23.17612831,-16.34364068,4.01691050
1.98655350,-0.25485821,0.55951634

>  <Name>
P136023713

>  <RI>
0

>  <Rbt.Current_Directory>
/home/fstefaniak/projects/zuza/docking/adenine/1Y26

>  <Rbt.Executable>
rbdock ($Id: //depot/dev/client3/rdock/2013.1/src/exe/rbdock.cxx#4 $)

>  <Rbt.Library>
libRbt.so (2013.1, Build901 2013/11/27)

>  <Rbt.Parameter_File>
/home/fstefaniak/progs/rDock//data/scripts/dock_solv.prm

>  <Rbt.Receptor>
1y26.prm

>  <SCORE>
-48.1616

>  <SCORE.INTER>
-21.045

>  <SCORE.INTER.CONST>
1

>  <SCORE.INTER.POLAR>
-4.33622

>  <SCORE.INTER.ROT>
2

>  <SCORE.INTER.SOLV>
26.4773

>  <SCORE.INTER.VDW>
-13.335

>  <SCORE.INTER.norm>
-1.91318

>  <SCORE.INTRA>
-5.85187

>  <SCORE.INTRA.DIHEDRAL>
-2.94621

>  <SCORE.INTRA.DIHEDRAL.0>
4.2411

>  <SCORE.INTRA.POLAR>
0.105

>  <SCORE.INTRA.POLAR.0>
-0.105

>  <SCORE.INTRA.REPUL>
0

>  <SCORE.INTRA.REPUL.0>
0

>  <SCORE.INTRA.SOLV>
-7.51035

>  <SCORE.INTRA.SOLV.lig_0>
-44.431

>  <SCORE.INTRA.VDW>
-0.980591

>  <SCORE.INTRA.VDW.0>
0.305974

>  <SCORE.INTRA.norm>
-0.531988

>  <SCORE.RESTR>
0

>  <SCORE.RESTR.CAVITY>
0

>  <SCORE.RESTR.norm>
0

>  <SCORE.SYSTEM>
-21.2647

>  <SCORE.SYSTEM.CONST>
0

>  <SCORE.SYSTEM.DIHEDRAL>
8.52179

>  <SCORE.SYSTEM.POLAR>
-3.61798

>  <SCORE.SYSTEM.SOLV>
0.494934

>  <SCORE.SYSTEM.VDW>
-5.12215

>  <SCORE.SYSTEM.norm>
-1.93316

>  <SCORE.heavy>
11

>  <SCORE.norm>
-4.37833

$$$$
P136023713
 OpenBabel12072022103D
libRbt.so/2013.1/901 2013/11/27
 14 14  0  0  0  0  0  0  0  0999 V2000
   21.0557  -15.0884    4.3272 C   0  0  0  0  0  0  0  0  0  0  0  0
   21.9799  -16.3027    4.2707 C   0  0  0  0  0  0  0  0  0  0  0  0
   23.2959  -15.7638    3.8930 N   0  0  0  0  0  0  0  0  0  0  0  0
   23.2705  -14.2918    3.9541 C   0  0  0  0  0  0  0  0  0  0  0  0
   21.9807  -13.9443    4.7108 C   0  0  2  0  0  0  0  0  0  0  0  0
   22.2075  -13.9372    6.1681 N   0  3  0  0  0  0  0  0  0  0  0  0
   22.7793  -13.0789    6.4278 H   0  0  0  0  0  0  0  0  0  0  0  0
   21.3777  -13.7019    6.7244 H   0  0  0  0  0  0  0  0  0  0  0  0
   22.7040  -14.7199    6.5898 H   0  0  0  0  0  0  0  0  0  0  0  0
   24.4327  -16.4858    4.2074 C   0  0  0  0  0  0  0  0  0  0  0  0
   24.8358  -17.7082    3.8448 C   0  0  0  0  0  0  0  0  0  0  0  0
   24.1692  -18.6754    2.8892 C   0  0  0  0  0  0  0  0  0  0  0  0
   23.2209  -18.1962    2.1884 O   0  0  0  0  0  0  0  0  0  0  0  0
   24.5774  -19.8608    2.9312 O   0  5  0  0  0  0  0  0  0  0  0  0
  1  2  1  0  0  0  0
  1  5  1  0  0  0  0
  2  3  1  0  0  0  0
  3  4  1  0  0  0  0
  3 10  1  0  0  0  0
  4  5  1  0  0  0  0
  5  6  1  1  0  0  0
  6  7  1  0  0  0  0
  6  8  1  0  0  0  0
  6  9  1  0  0  0  0
 10 11  2  0  0  0  0
 11 12  1  0  0  0  0
 12 13  2  0  0  0  0
 12 14  1  0  0  0  0
M  CHG  2   6   1  14  -1
M  END
>  <CHROM.0>
-51.19875515,-77.84583441,-50.36667570,-47.96195938,-174.33875119,-174.85705822
-64.07734388,-177.50277129,-166.16454088,159.74942751

>  <CHROM.1>
60.93963755,-174.67127959,11.74202716,23.16132665,-16.38153994,3.96748199
1.99295870,-0.27798861,0.56185921

>  <Name>
P136023713

>  <RI>
0

>  <Rbt.Current_Directory>
/home/fstefaniak/projects/zuza/docking/adenine/1Y26

>  <Rbt.Executable>
rbdock ($Id: //depot/dev/client3/rdock/2013.1/src/exe/rbdock.cxx#4 $)

>  <Rbt.Library>
libRbt.so (2013.1, Build901 2013/11/27)

>  <Rbt.Parameter_File>
/home/fstefaniak/progs/rDock//data/scripts/dock_solv.prm

>  <Rbt.Receptor>
1y26.prm

>  <SCORE>
-47.9686

>  <SCORE.INTER>
-19.9146

>  <SCORE.INTER.CONST>
1

>  <SCORE.INTER.POLAR>
-4.01793

>  <SCORE.INTER.ROT>
2

>  <SCORE.INTER.SOLV>
26.4904

>  <SCORE.INTER.VDW>
-13.6468

>  <SCORE.INTER.norm>
-1.81042

>  <SCORE.INTRA>
-6.34671

>  <SCORE.INTRA.DIHEDRAL>
-2.97638

>  <SCORE.INTRA.DIHEDRAL.0>
4.2411

>  <SCORE.INTRA.POLAR>
0.105

>  <SCORE.INTRA.POLAR.0>
-0.105

>  <SCORE.INTRA.REPUL>
0

>  <SCORE.INTRA.REPUL.0>
0

>  <SCORE.INTRA.SOLV>
-7.95233

>  <SCORE.INTRA.SOLV.lig_0>
-44.431

>  <SCORE.INTRA.VDW>
-1.23935

>  <SCORE.INTRA.VDW.0>
0.305974

>  <SCORE.INTRA.norm>
-0.576973

>  <SCORE.RESTR>
0

>  <SCORE.RESTR.CAVITY>
0

>  <SCORE.RESTR.norm>
0

>  <SCORE.SYSTEM>
-21.7073

>  <SCORE.SYSTEM.CONST>
0

>  <SCORE.SYSTEM.DIHEDRAL>
7.85039

>  <SCORE.SYSTEM.POLAR>
-3.57505

>  <SCORE.SYSTEM.SOLV>
0.132481

>  <SCORE.SYSTEM.VDW>
-5.21566

>  <SCORE.SYSTEM.norm>
-1.97339

>  <SCORE.heavy>
11

>  <SCORE.norm>
-4.36078

$$$$
P136023713
 OpenBabel12072022103D
libRbt.so/2013.1/901 2013/11/27
 14 14  0  0  0  0  0  0  0  0999 V2000
   24.4800  -16.0971    4.9796 C   0  0  0  0  0  0  0  0  0  0  0  0
   23.2069  -16.5783    4.2870 C   0  0  0  0  0  0  0  0  0  0  0  0
   22.1769  -15.5938    4.6544 N   0  0  0  0  0  0  0  0  0  0  0  0
   22.8037  -14.4376    5.3188 C   0  0  0  0  0  0  0  0  0  0  0  0
   24.3078  -14.5882    5.0507 C   0  0  2  0  0  0  0  0  0  0  0  0
   24.6808  -13.9702    3.7646 N   0  3  0  0  0  0  0  0  0  0  0  0
   24.8603  -12.9328    3.9154 H   0  0  0  0  0  0  0  0  0  0  0  0
   25.6239  -14.2093    3.4379 H   0  0  0  0  0  0  0  0  0  0  0  0
   24.0190  -14.0116    2.9917 H   0  0  0  0  0  0  0  0  0  0  0  0
   21.0635  -15.4534    3.8462 C   0  0  0  0  0  0  0  0  0  0  0  0
   20.0334  -16.2713    3.6052 C   0  0  0  0  0  0  0  0  0  0  0  0
   19.7372  -17.6211    4.2243 C   0  0  0  0  0  0  0  0  0  0  0  0
   18.7978  -18.2856    3.6802 O   0  0  0  0  0  0  0  0  0  0  0  0
   20.4040  -17.9176    5.2446 O   0  5  0  0  0  0  0  0  0  0  0  0
  1  2  1  0  0  0  0
  1  5  1  0  0  0  0
  2  3  1  0  0  0  0
  3  4  1  0  0  0  0
  3 10  1  0  0  0  0
  4  5  1  0  0  0  0
  5  6  1  6  0  0  0
  6  7  1  0  0  0  0
  6  8  1  0  0  0  0
  6  9  1  0  0  0  0
 10 11  2  0  0  0  0
 11 12  1  0  0  0  0
 12 13  2  0  0  0  0
 12 14  1  0  0  0  0
M  CHG  2   6   1  14  -1
M  END
>  <CHROM.0>
-50.97001929,178.47079277,-53.03794324,-51.12288546,-56.19041171,-176.35451133
-60.68120974,65.15255009,-167.10129728,160.63817425

>  <CHROM.1>
68.74235369,-161.81935590,-170.02922893,21.99929954,-16.07230767,4.41292809
-0.48729484,0.31849560,2.74627554

>  <Name>
P136023713

>  <RI>
0

>  <Rbt.Current_Directory>
/home/fstefaniak/projects/zuza/docking/adenine/1Y26

>  <Rbt.Executable>
rbdock ($Id: //depot/dev/client3/rdock/2013.1/src/exe/rbdock.cxx#4 $)

>  <Rbt.Library>
libRbt.so (2013.1, Build901 2013/11/27)

>  <Rbt.Parameter_File>
/home/fstefaniak/progs/rDock//data/scripts/dock_solv.prm

>  <Rbt.Receptor>
1y26.prm

>  <SCORE>
-47.9502

>  <SCORE.INTER>
-20.2452

>  <SCORE.INTER.CONST>
1

>  <SCORE.INTER.POLAR>
-2.36169

>  <SCORE.INTER.ROT>
2

>  <SCORE.INTER.SOLV>
18.5077

>  <SCORE.INTER.VDW>
-16.7271

>  <SCORE.INTER.norm>
-1.84048

>  <SCORE.INTRA>
-6.38133

>  <SCORE.INTRA.DIHEDRAL>
-2.71161

>  <SCORE.INTRA.DIHEDRAL.0>
4.2411

>  <SCORE.INTRA.POLAR>
0.105

>  <SCORE.INTRA.POLAR.0>
-0.105

>  <SCORE.INTRA.REPUL>
0

>  <SCORE.INTRA.REPUL.0>
0

>  <SCORE.INTRA.SOLV>
-8.17783

>  <SCORE.INTRA.SOLV.lig_0>
-44.431

>  <SCORE.INTRA.VDW>
-1.29361

>  <SCORE.INTRA.VDW.0>
0.305974

>  <SCORE.INTRA.norm>
-0.580121

>  <SCORE.RESTR>
0.0119704

>  <SCORE.RESTR.CAVITY>
0.0119704

>  <SCORE.RESTR.norm>
0.00108822

>  <SCORE.SYSTEM>
-21.3356

>  <SCORE.SYSTEM.CONST>
0

>  <SCORE.SYSTEM.DIHEDRAL>
5.61951

>  <SCORE.SYSTEM.POLAR>
-3.48061

>  <SCORE.SYSTEM.SOLV>
0.241088

>  <SCORE.SYSTEM.VDW>
-4.57524

>  <SCORE.SYSTEM.norm>
-1.9396

>  <SCORE.heavy>
11

>  <SCORE.norm>
-4.35911

$$$$
P136172721
 OpenBabel12072022103D
libRbt.so/2013.1/901 2013/11/27
 14 14  0  0  0  0  0  0  0  0999 V2000
   19.3742  -18.5667    2.0834 H   0  0  0  0  0  0  0  0  0  0  0  0
   18.6503  -18.8375    2.7577 N   0  0  0  0  0  0  0  0  0  0  0  0
   19.0325  -18.5901    3.9595 C   0  0  0  0  0  0  0  0  0  0  0  0
   20.3530  -17.9875    4.4196 C   0  0  2  0  0  0  0  0  0  0  0  0
   20.1317  -18.0589    5.8435 N   0  0  0  0  0  0  0  0  0  0  0  0
   18.9053  -18.5977    6.1663 C   0  0  0  0  0  0  0  0  0  0  0  0
   18.5096  -18.8025    7.2994 O   0  0  0  0  0  0  0  0  0  0  0  0
   18.2474  -18.8762    5.0165 N   0  0  0  0  0  0  0  0  0  0  0  0
   20.5235  -16.5578    3.9126 C   0  0  0  0  0  0  0  0  0  0  0  0
   21.6981  -15.7914    4.5519 C   0  0  0  0  0  0  0  0  0  0  0  0
   23.0555  -16.3762    4.1583 C   0  0  0  0  0  0  0  0  0  0  0  0
   21.6350  -14.3167    4.1446 C   0  0  0  0  0  0  0  0  0  0  0  0
   20.8064  -17.8473    6.5665 H   0  0  0  0  0  0  0  0  0  0  0  0
   17.3409  -19.3077    4.9662 H   0  0  0  0  0  0  0  0  0  0  0  0
  1  2  1  0  0  0  0
  2  3  2  0  0  0  0
  3  4  1  0  0  0  0
  3  8  1  0  0  0  0
  4  5  1  0  0  0  0
  4  9  1  6  0  0  0
  5  6  1  0  0  0  0
  5 13  1  0  0  0  0
  6  7  2  0  0  0  0
  6  8  1  0  0  0  0
  8 14  1  0  0  0  0
  9 10  1  0  0  0  0
 10 11  1  0  0  0  0
 10 12  1  0  0  0  0
M  END
>  <CHROM.0>
-173.46037544,-59.02702342,-50.72260747,-50.18462780,-53.10280848,-57.24265106
-53.89513476,-170.89401208,-165.20205247,160.63580460

>  <CHROM.1>
168.92330961,66.92203578,20.07632427,-17.51504788,4.76409350,2.85309680,0.76640879
1.58601037

>  <Name>
P136172721

>  <RI>
0

>  <Rbt.Current_Directory>
/home/fstefaniak/projects/zuza/docking/adenine/1Y26

>  <Rbt.Executable>
rbdock ($Id: //depot/dev/client3/rdock/2013.1/src/exe/rbdock.cxx#4 $)

>  <Rbt.Library>
libRbt.so (2013.1, Build901 2013/11/27)

>  <Rbt.Parameter_File>
/home/fstefaniak/progs/rDock//data/scripts/dock_solv.prm

>  <Rbt.Receptor>
1y26.prm

>  <SCORE>
-51.8365

>  <SCORE.INTER>
-30.7644

>  <SCORE.INTER.CONST>
1

>  <SCORE.INTER.POLAR>
-3.16219

>  <SCORE.INTER.ROT>
2

>  <SCORE.INTER.SOLV>
13.2574

>  <SCORE.INTER.VDW>
-19.3215

>  <SCORE.INTER.norm>
-2.79677

>  <SCORE.INTRA>
0.1602

>  <SCORE.INTRA.DIHEDRAL>
0.5931

>  <SCORE.INTRA.DIHEDRAL.0>
0.303033

>  <SCORE.INTRA.POLAR>
0

>  <SCORE.INTRA.POLAR.0>
0

>  <SCORE.INTRA.REPUL>
0

>  <SCORE.INTRA.REPUL.0>
0

>  <SCORE.INTRA.SOLV>
0.0473017

>  <SCORE.INTRA.SOLV.lig_0>
-16.8277

>  <SCORE.INTRA.VDW>
-0.16

>  <SCORE.INTRA.VDW.0>
-0.284868

>  <SCORE.INTRA.norm>
0.0145637

>  <SCORE.RESTR>
0

>  <SCORE.RESTR.CAVITY>
0

>  <SCORE.RESTR.norm>
0

>  <SCORE.SYSTEM>
-21.2322

>  <SCORE.SYSTEM.CONST>
0

>  <SCORE.SYSTEM.DIHEDRAL>
6.44757

>  <SCORE.SYSTEM.POLAR>
-3.33537

>  <SCORE.SYSTEM.SOLV>
0.42981

>  <SCORE.SYSTEM.VDW>
-5.32938

>  <SCORE.SYSTEM.norm>
-1.9302

>  <SCORE.heavy>
11

>  <SCORE.norm>
-4.71241

$$$$
P136172721
 OpenBabel12072022103D
libRbt.so/2013.1/901 2013/11/27
 14 14  0  0  0  0  0  0  0  0999 V2000
   19.3617  -18.5583    2.0962 H   0  0  0  0  0  0  0  0  0  0  0  0
   18.6270  -18.8164    2.7637 N   0  0  0  0  0  0  0  0  0  0  0  0
   19.0020  -18.5752    3.9690 C   0  0  0  0  0  0  0  0  0  0  0  0
   20.3283  -17.9951    4.4414 C   0  0  2  0  0  0  0  0  0  0  0  0
   20.0923  -18.0621    5.8631 N   0  0  0  0  0  0  0  0  0  0  0  0
   18.8539  -18.5797    6.1745 C   0  0  0  0  0  0  0  0  0  0  0  0
   18.4441  -18.7773    7.3039 O   0  0  0  0  0  0  0  0  0  0  0  0
   18.2022  -18.8474    5.0186 N   0  0  0  0  0  0  0  0  0  0  0  0
   20.5280  -16.5686    3.9357 C   0  0  0  0  0  0  0  0  0  0  0  0
   21.7506  -15.8461    4.5348 C   0  0  0  0  0  0  0  0  0  0  0  0
   23.0715  -16.4845    4.1022 C   0  0  0  0  0  0  0  0  0  0  0  0
   21.7318  -14.3715    4.1227 C   0  0  0  0  0  0  0  0  0  0  0  0
   20.7637  -17.8618    6.5925 H   0  0  0  0  0  0  0  0  0  0  0  0
   17.2890  -19.2633    4.9598 H   0  0  0  0  0  0  0  0  0  0  0  0
  1  2  1  0  0  0  0
  2  3  2  0  0  0  0
  3  4  1  0  0  0  0
  3  8  1  0  0  0  0
  4  5  1  0  0  0  0
  4  9  1  6  0  0  0
  5  6  1  0  0  0  0
  5 13  1  0  0  0  0
  6  7  2  0  0  0  0
  6  8  1  0  0  0  0
  8 14  1  0  0  0  0
  9 10  1  0  0  0  0
 10 11  1  0  0  0  0
 10 12  1  0  0  0  0
M  END
>  <CHROM.0>
-177.60714598,-58.15280194,-62.29170880,61.90000683,-175.34412710,-178.44818671
-172.68743963,-177.73084153,-166.95091698,160.39226828

>  <CHROM.1>
171.77341761,66.19742569,20.06644602,-17.52743562,4.76356243,2.85409691,0.74147708
1.56949730

>  <Name>
P136172721

>  <RI>
0

>  <Rbt.Current_Directory>
/home/fstefaniak/projects/zuza/docking/adenine/1Y26

>  <Rbt.Executable>
rbdock ($Id: //depot/dev/client3/rdock/2013.1/src/exe/rbdock.cxx#4 $)

>  <Rbt.Library>
libRbt.so (2013.1, Build901 2013/11/27)

>  <Rbt.Parameter_File>
/home/fstefaniak/progs/rDock//data/scripts/dock_solv.prm

>  <Rbt.Receptor>
1y26.prm

>  <SCORE>
-48.1887

>  <SCORE.INTER>
-30.6695

>  <SCORE.INTER.CONST>
1

>  <SCORE.INTER.POLAR>
-3.13671

>  <SCORE.INTER.ROT>
2

>  <SCORE.INTER.SOLV>
13.2421

>  <SCORE.INTER.VDW>
-19.338

>  <SCORE.INTER.norm>
-2.78814

>  <SCORE.INTRA>
0.056743

>  <SCORE.INTRA.DIHEDRAL>
0.37621

>  <SCORE.INTRA.DIHEDRAL.0>
0.303033

>  <SCORE.INTRA.POLAR>
0

>  <SCORE.INTRA.POLAR.0>
0

>  <SCORE.INTRA.REPUL>
0

>  <SCORE.INTRA.REPUL.0>
0

>  <SCORE.INTRA.SOLV>
0.0291879

>  <SCORE.INTRA.SOLV.lig_0>
-16.8277

>  <SCORE.INTRA.VDW>
-0.145956

>  <SCORE.INTRA.VDW.0>
-0.284868

>  <SCORE.INTRA.norm>
0.00515846

>  <SCORE.RESTR>
0

>  <SCORE.RESTR.CAVITY>
0

>  <SCORE.RESTR.norm>
0

>  <SCORE.SYSTEM>
-17.5759

>  <SCORE.SYSTEM.CONST>
0

>  <SCORE.SYSTEM.DIHEDRAL>
4.91635

>  <SCORE.SYSTEM.POLAR>
-2.64121

>  <SCORE.SYSTEM.SOLV>
-0.0163444

>  <SCORE.SYSTEM.VDW>
-4.54658

>  <SCORE.SYSTEM.norm>
-1.59781

>  <SCORE.heavy>
11

>  <SCORE.norm>
-4.38079

$$$$
P136172721
 OpenBabel12072022103D
libRbt.so/2013.1/901 2013/11/27
 14 14  0  0  0  0  0  0  0  0999 V2000
   19.3477  -18.5428    2.0711 H   0  0  0  0  0  0  0  0  0  0  0  0
   18.6226  -18.8064    2.7467 N   0  0  0  0  0  0  0  0  0  0  0  0
   19.0106  -18.5656    3.9481 C   0  0  0  0  0  0  0  0  0  0  0  0
   20.3390  -17.9790    4.4058 C   0  0  2  0  0  0  0  0  0  0  0  0
   20.1204  -18.0503    5.8301 N   0  0  0  0  0  0  0  0  0  0  0  0
   18.8888  -18.5756    6.1551 C   0  0  0  0  0  0  0  0  0  0  0  0
   18.4936  -18.7779    7.2889 O   0  0  0  0  0  0  0  0  0  0  0  0
   18.2249  -18.8445    5.0065 N   0  0  0  0  0  0  0  0  0  0  0  0
   20.5246  -16.5503    3.9009 C   0  0  0  0  0  0  0  0  0  0  0  0
   21.7149  -15.8016    4.5321 C   0  0  0  0  0  0  0  0  0  0  0  0
   23.0605  -16.4093    4.1328 C   0  0  0  0  0  0  0  0  0  0  0  0
   21.6734  -14.3270    4.1215 C   0  0  0  0  0  0  0  0  0  0  0  0
   20.7994  -17.8477    6.5519 H   0  0  0  0  0  0  0  0  0  0  0  0
   17.3134  -19.2655    4.9577 H   0  0  0  0  0  0  0  0  0  0  0  0
  1  2  1  0  0  0  0
  2  3  2  0  0  0  0
  3  4  1  0  0  0  0
  3  8  1  0  0  0  0
  4  5  1  0  0  0  0
  4  9  1  6  0  0  0
  5  6  1  0  0  0  0
  5 13  1  0  0  0  0
  6  7  2  0  0  0  0
  6  8  1  0  0  0  0
  8 14  1  0  0  0  0
  9 10  1  0  0  0  0
 10 11  1  0  0  0  0
 10 12  1  0  0  0  0
M  END
>  <CHROM.0>
-54.46533772,-59.23894735,-54.89861690,-54.50165705,-172.94439776,-58.84670313
-63.93340784,-174.17816448,-166.78167595,160.02088519

>  <CHROM.1>
169.28728341,66.55529539,20.07029454,-17.50568482,4.74933834,2.84716933,0.75322452
1.59066300

>  <Name>
P136172721

>  <RI>
0

>  <Rbt.Current_Directory>
/home/fstefaniak/projects/zuza/docking/adenine/1Y26

>  <Rbt.Executable>
rbdock ($Id: //depot/dev/client3/rdock/2013.1/src/exe/rbdock.cxx#4 $)

>  <Rbt.Library>
libRbt.so (2013.1, Build901 2013/11/27)

>  <Rbt.Parameter_File>
/home/fstefaniak/progs/rDock//data/scripts/dock_solv.prm

>  <Rbt.Receptor>
1y26.prm

>  <SCORE>
-47.2278

>  <SCORE.INTER>
-24.8123

>  <SCORE.INTER.CONST>
1

>  <SCORE.INTER.POLAR>
-1.96306

>  <SCORE.INTER.ROT>
2

>  <SCORE.INTER.SOLV>
13.1802

>  <SCORE.INTER.VDW>
-19.3247

>  <SCORE.INTER.norm>
-2.25566

>  <SCORE.INTRA>
0.144171

>  <SCORE.INTRA.DIHEDRAL>
0.546535

>  <SCORE.INTRA.DIHEDRAL.0>
0.303033

>  <SCORE.INTRA.POLAR>
0

>  <SCORE.INTRA.POLAR.0>
0

>  <SCORE.INTRA.REPUL>
0

>  <SCORE.INTRA.REPUL.0>
0

>  <SCORE.INTRA.SOLV>
0.0456196

>  <SCORE.INTRA.SOLV.lig_0>
-16.8277

>  <SCORE.INTRA.VDW>
-0.151906

>  <SCORE.INTRA.VDW.0>
-0.284868

>  <SCORE.INTRA.norm>
0.0131065

>  <SCORE.RESTR>
0

>  <SCORE.RESTR.CAVITY>
0

>  <SCORE.RESTR.norm>
0

>  <SCORE.SYSTEM>
-22.5596

>  <SCORE.SYSTEM.CONST>
0

>  <SCORE.SYSTEM.DIHEDRAL>
5.38346

>  <SCORE.SYSTEM.POLAR>
-3.37052

>  <SCORE.SYSTEM.SOLV>
0.269815

>  <SCORE.SYSTEM.VDW>
-5.68913

>  <SCORE.SYSTEM.norm>
-2.05088

>  <SCORE.heavy>
11

>  <SCORE.norm>
-4.29343

$$$$
P136172723
 OpenBabel12072022103D
libRbt.so/2013.1/901 2013/11/27
 14 14  0  0  0  0  0  0  0  0999 V2000
   18.8737  -18.0835    2.2885 H   0  0  0  0  0  0  0  0  0  0  0  0
   18.6361  -18.8325    2.9473 N   0  0  0  0  0  0  0  0  0  0  0  0
   19.0807  -18.5638    4.1228 C   0  0  0  0  0  0  0  0  0  0  0  0
   19.8543  -17.3329    4.5764 C   0  0  1  0  0  0  0  0  0  0  0  0
   19.9789  -17.6663    5.9746 N   0  0  0  0  0  0  0  0  0  0  0  0
   19.3765  -18.8639    6.2929 C   0  0  0  0  0  0  0  0  0  0  0  0
   19.2981  -19.3285    7.4156 O   0  0  0  0  0  0  0  0  0  0  0  0
   18.8751  -19.4028    5.1571 N   0  0  0  0  0  0  0  0  0  0  0  0
   21.1993  -17.2185    3.8638 C   0  0  0  0  0  0  0  0  0  0  0  0
   22.1759  -16.2092    4.4990 C   0  0  0  0  0  0  0  0  0  0  0  0
   23.5986  -16.4869    4.0055 C   0  0  0  0  0  0  0  0  0  0  0  0
   21.7978  -14.7596    4.1918 C   0  0  0  0  0  0  0  0  0  0  0  0
   20.3466  -17.0679    6.7022 H   0  0  0  0  0  0  0  0  0  0  0  0
   18.3612  -20.2655    5.1112 H   0  0  0  0  0  0  0  0  0  0  0  0
  1  2  1  0  0  0  0
  2  3  2  0  0  0  0
  3  4  1  0  0  0  0
  3  8  1  0  0  0  0
  4  5  1  0  0  0  0
  4  9  1  6  0  0  0
  5  6  1  0  0  0  0
  5 13  1  0  0  0  0
  6  7  2  0  0  0  0
  6  8  1  0  0  0  0
  8 14  1  0  0  0  0
  9 10  1  0  0  0  0
 10 11  1  0  0  0  0
 10 12  1  0  0  0  0
M  END
>  <CHROM.0>
-162.46499575,-56.14081741,-53.44632278,-51.94140173,-57.10239695,-58.79380381
-56.78350934,-173.10843024,-167.22205608,160.42049979

>  <CHROM.1>
-166.04903759,162.21679431,20.36747146,-17.69098708,4.83736061,2.68329567
0.68456643,1.78524609

>  <Name>
P136172723

>  <RI>
0

>  <Rbt.Current_Directory>
/home/fstefaniak/projects/zuza/docking/adenine/1Y26

>  <Rbt.Executable>
rbdock ($Id: //depot/dev/client3/rdock/2013.1/src/exe/rbdock.cxx#4 $)

>  <Rbt.Library>
libRbt.so (2013.1, Build901 2013/11/27)

>  <Rbt.Parameter_File>
/home/fstefaniak/progs/rDock//data/scripts/dock_solv.prm

>  <Rbt.Receptor>
1y26.prm

>  <SCORE>
-58.3866

>  <SCORE.INTER>
-38.149

>  <SCORE.INTER.CONST>
1

>  <SCORE.INTER.POLAR>
-4.14271

>  <SCORE.INTER.ROT>
2

>  <SCORE.INTER.SOLV>
13.7188

>  <SCORE.INTER.VDW>
-21.1299

>  <SCORE.INTER.norm>
-3.46809

>  <SCORE.INTRA>
0.578582

>  <SCORE.INTRA.DIHEDRAL>
1.81128

>  <SCORE.INTRA.DIHEDRAL.0>
0.3639

>  <SCORE.INTRA.POLAR>
0

>  <SCORE.INTRA.POLAR.0>
0

>  <SCORE.INTRA.REPUL>
0

>  <SCORE.INTRA.REPUL.0>
0

>  <SCORE.INTRA.SOLV>
0.0297537

>  <SCORE.INTRA.SOLV.lig_0>
-16.8173

>  <SCORE.INTRA.VDW>
-0.341933

>  <SCORE.INTRA.VDW.0>
-0.254075

>  <SCORE.INTRA.norm>
0.0525984

>  <SCORE.RESTR>
0

>  <SCORE.RESTR.CAVITY>
0

>  <SCORE.RESTR.norm>
0

>  <SCORE.SYSTEM>
-20.8161

>  <SCORE.SYSTEM.CONST>
0

>  <SCORE.SYSTEM.DIHEDRAL>
6.68197

>  <SCORE.SYSTEM.POLAR>
-3.25154

>  <SCORE.SYSTEM.SOLV>
0.409522

>  <SCORE.SYSTEM.VDW>
-5.40281

>  <SCORE.SYSTEM.norm>
-1.89238

>  <SCORE.heavy>
11

>  <SCORE.norm>
-5.30787

$$$$
P136172723
 OpenBabel12072022103D
libRbt.so/2013.1/901 2013/11/27
 14 14  0  0  0  0  0  0  0  0999 V2000
   18.8871  -18.1376    2.2973 H   0  0  0  0  0  0  0  0  0  0  0  0
   18.6368  -18.8727    2.9670 N   0  0  0  0  0  0  0  0  0  0  0  0
   19.0889  -18.5961    4.1378 C   0  0  0  0  0  0  0  0  0  0  0  0
   19.8867  -17.3739    4.5726 C   0  0  1  0  0  0  0  0  0  0  0  0
   20.0079  -17.6900    5.9750 N   0  0  0  0  0  0  0  0  0  0  0  0
   19.3836  -18.8714    6.3113 C   0  0  0  0  0  0  0  0  0  0  0  0
   19.2988  -19.3186    7.4405 O   0  0  0  0  0  0  0  0  0  0  0  0
   18.8696  -19.4165    5.1841 N   0  0  0  0  0  0  0  0  0  0  0  0
   21.2321  -17.2951    3.8559 C   0  0  0  0  0  0  0  0  0  0  0  0
   22.2299  -16.2973    4.4764 C   0  0  0  0  0  0  0  0  0  0  0  0
   23.6407  -16.5877    3.9569 C   0  0  0  0  0  0  0  0  0  0  0  0
   21.8608  -14.8432    4.1801 C   0  0  0  0  0  0  0  0  0  0  0  0
   20.3884  -17.0885    6.6936 H   0  0  0  0  0  0  0  0  0  0  0  0
   18.3394  -20.2698    5.1513 H   0  0  0  0  0  0  0  0  0  0  0  0
  1  2  1  0  0  0  0
  2  3  2  0  0  0  0
  3  4  1  0  0  0  0
  3  8  1  0  0  0  0
  4  5  1  0  0  0  0
  4  9  1  6  0  0  0
  5  6  1  0  0  0  0
  5 13  1  0  0  0  0
  6  7  2  0  0  0  0
  6  8  1  0  0  0  0
  8 14  1  0  0  0  0
  9 10  1  0  0  0  0
 10 11  1  0  0  0  0
 10 12  1  0  0  0  0
M  END
>  <CHROM.0>
-163.44461606,-54.06654467,-59.01026798,-52.89241693,-175.94709466,-61.71270155
-59.35990322,-50.72937410,-166.56945405,162.87412994

>  <CHROM.1>
-165.95499389,163.59967376,20.39151655,-17.73615116,4.83825858,2.69016661
0.66939219,1.76265401

>  <Name>
P136172723

>  <RI>
0

>  <Rbt.Current_Directory>
/home/fstefaniak/projects/zuza/docking/adenine/1Y26

>  <Rbt.Executable>
rbdock ($Id: //depot/dev/client3/rdock/2013.1/src/exe/rbdock.cxx#4 $)

>  <Rbt.Library>
libRbt.so (2013.1, Build901 2013/11/27)

>  <Rbt.Parameter_File>
/home/fstefaniak/progs/rDock//data/scripts/dock_solv.prm

>  <Rbt.Receptor>
1y26.prm

>  <SCORE>
-57.8855

>  <SCORE.INTER>
-38.0027

>  <SCORE.INTER.CONST>
1

>  <SCORE.INTER.POLAR>
-4.2062

>  <SCORE.INTER.ROT>
2

>  <SCORE.INTER.SOLV>
13.7588

>  <SCORE.INTER.VDW>
-20.8341

>  <SCORE.INTER.norm>
-3.4548

>  <SCORE.INTRA>
0.514817

>  <SCORE.INTRA.DIHEDRAL>
1.63803

>  <SCORE.INTRA.DIHEDRAL.0>
0.3639

>  <SCORE.INTRA.POLAR>
0

>  <SCORE.INTRA.POLAR.0>
0

>  <SCORE.INTRA.REPUL>
0

>  <SCORE.INTRA.REPUL.0>
0

>  <SCORE.INTRA.SOLV>
0.0329153

>  <SCORE.INTRA.SOLV.lig_0>
-16.8173

>  <SCORE.INTRA.VDW>
-0.320658

>  <SCORE.INTRA.VDW.0>
-0.254075

>  <SCORE.INTRA.norm>
0.0468015

>  <SCORE.RESTR>
0

>  <SCORE.RESTR.CAVITY>
0

>  <SCORE.RESTR.norm>
0

>  <SCORE.SYSTEM>
-20.3975

>  <SCORE.SYSTEM.CONST>
0

>  <SCORE.SYSTEM.DIHEDRAL>
6.27313

>  <SCORE.SYSTEM.POLAR>
-3.16447

>  <SCORE.SYSTEM.SOLV>
0.43809

>  <SCORE.SYSTEM.VDW>
-5.28718

>  <SCORE.SYSTEM.norm>
-1.85432

>  <SCORE.heavy>
11

>  <SCORE.norm>
-5.26231

$$$$
P136172723
 OpenBabel12072022103D
libRbt.so/2013.1/901 2013/11/27
 14 14  0  0  0  0  0  0  0  0999 V2000
   18.8953  -18.1248    2.2799 H   0  0  0  0  0  0  0  0  0  0  0  0
   18.6399  -18.8610    2.9464 N   0  0  0  0  0  0  0  0  0  0  0  0
   19.0840  -18.5868    4.1208 C   0  0  0  0  0  0  0  0  0  0  0  0
   19.8794  -17.3659    4.5635 C   0  0  1  0  0  0  0  0  0  0  0  0
   19.9906  -17.6847    5.9662 N   0  0  0  0  0  0  0  0  0  0  0  0
   19.3633  -18.8664    6.2959 C   0  0  0  0  0  0  0  0  0  0  0  0
   19.2704  -19.3157    7.4236 O   0  0  0  0  0  0  0  0  0  0  0  0
   18.8569  -19.4091    5.1640 N   0  0  0  0  0  0  0  0  0  0  0  0
   21.2297  -17.2864    3.8564 C   0  0  0  0  0  0  0  0  0  0  0  0
   22.2243  -16.2915    4.4866 C   0  0  0  0  0  0  0  0  0  0  0  0
   23.6362  -16.5731    3.9656 C   0  0  0  0  0  0  0  0  0  0  0  0
   21.8512  -14.8357    4.2032 C   0  0  0  0  0  0  0  0  0  0  0  0
   20.3664  -17.0848    6.6885 H   0  0  0  0  0  0  0  0  0  0  0  0
   18.3266  -20.2620    5.1259 H   0  0  0  0  0  0  0  0  0  0  0  0
  1  2  1  0  0  0  0
  2  3  2  0  0  0  0
  3  4  1  0  0  0  0
  3  8  1  0  0  0  0
  4  5  1  0  0  0  0
  4  9  1  6  0  0  0
  5  6  1  0  0  0  0
  5 13  1  0  0  0  0
  6  7  2  0  0  0  0
  6  8  1  0  0  0  0
  8 14  1  0  0  0  0
  9 10  1  0  0  0  0
 10 11  1  0  0  0  0
 10 12  1  0  0  0  0
M  END
>  <CHROM.0>
-164.16377146,-58.26808815,63.76190754,-50.74277833,-55.95396081,-62.10812004
75.50948664,65.56381806,-163.32161075,161.03293520

>  <CHROM.1>
-165.89300367,164.14761955,20.38139436,-17.72829999,4.83246625,2.70101342
0.67164943,1.75610671

>  <Name>
P136172723

>  <RI>
0

>  <Rbt.Current_Directory>
/home/fstefaniak/projects/zuza/docking/adenine/1Y26

>  <Rbt.Executable>
rbdock ($Id: //depot/dev/client3/rdock/2013.1/src/exe/rbdock.cxx#4 $)

>  <Rbt.Library>
libRbt.so (2013.1, Build901 2013/11/27)

>  <Rbt.Parameter_File>
/home/fstefaniak/progs/rDock//data/scripts/dock_solv.prm

>  <Rbt.Receptor>
1y26.prm

>  <SCORE>
-55.836

>  <SCORE.INTER>
-38.027

>  <SCORE.INTER.CONST>
1

>  <SCORE.INTER.POLAR>
-4.20223

>  <SCORE.INTER.ROT>
2

>  <SCORE.INTER.SOLV>
13.7098

>  <SCORE.INTER.VDW>
-20.8472

>  <SCORE.INTER.norm>
-3.457

>  <SCORE.INTRA>
0.49268

>  <SCORE.INTRA.DIHEDRAL>
1.57451

>  <SCORE.INTRA.DIHEDRAL.0>
0.3639

>  <SCORE.INTRA.POLAR>
0

>  <SCORE.INTRA.POLAR.0>
0

>  <SCORE.INTRA.REPUL>
0

>  <SCORE.INTRA.REPUL.0>
0

>  <SCORE.INTRA.SOLV>
0.0343757

>  <SCORE.INTRA.SOLV.lig_0>
-16.8173

>  <SCORE.INTRA.VDW>
-0.311762

>  <SCORE.INTRA.VDW.0>
-0.254075

>  <SCORE.INTRA.norm>
0.0447891

>  <SCORE.RESTR>
0

>  <SCORE.RESTR.CAVITY>
0

>  <SCORE.RESTR.norm>
0

>  <SCORE.SYSTEM>
-18.3017

>  <SCORE.SYSTEM.CONST>
0

>  <SCORE.SYSTEM.DIHEDRAL>
7.75227

>  <SCORE.SYSTEM.POLAR>
-3.51091

>  <SCORE.SYSTEM.SOLV>
0.193807

>  <SCORE.SYSTEM.VDW>
-3.1468

>  <SCORE.SYSTEM.norm>
-1.66379

>  <SCORE.heavy>
11

>  <SCORE.norm>
-5.076

$$$$
P136187106
 OpenBabel12072022103D
libRbt.so/2013.1/901 2013/11/27
 15 16  0  0  0  0  0  0  0  0999 V2000
   19.7182  -18.6279    1.5320 H   0  0  0  0  0  0  0  0  0  0  0  0
   20.2630  -17.8407    1.8923 N   0  0  0  0  0  0  0  0  0  0  0  0
   20.2464  -17.8345    3.1769 C   0  0  0  0  0  0  0  0  0  0  0  0
   20.9307  -16.8302    4.0974 C   0  0  2  0  0  0  0  0  0  0  0  0
   20.4774  -15.3919    3.9034 C   0  0  0  0  0  0  0  0  0  0  0  0
   21.7114  -14.5955    4.2974 C   0  0  0  0  0  0  0  0  0  0  0  0
   22.7994  -15.3866    3.7262 N   0  0  0  0  0  0  0  0  0  0  0  0
   22.4590  -16.8030    3.9537 C   0  0  0  0  0  0  0  0  0  0  0  0
   24.1067  -15.0216    4.2464 C   0  0  0  0  0  0  0  0  0  0  0  0
   20.4919  -17.3792    5.3690 N   0  0  0  0  0  0  0  0  0  0  0  0
   19.7274  -18.5103    5.2222 C   0  0  0  0  0  0  0  0  0  0  0  0
   19.2615  -19.1669    6.1354 O   0  0  0  0  0  0  0  0  0  0  0  0
   19.5853  -18.7665    3.8993 N   0  0  0  0  0  0  0  0  0  0  0  0
   20.7344  -17.0241    6.2840 H   0  0  0  0  0  0  0  0  0  0  0  0
   19.0509  -19.5467    3.5593 H   0  0  0  0  0  0  0  0  0  0  0  0
  1  2  1  0  0  0  0
  2  3  2  0  0  0  0
  3 13  1  0  0  0  0
  4  3  1  0  0  0  0
  4  5  1  6  0  0  0
  4  8  1  0  0  0  0
  4 10  1  0  0  0  0
  5  6  1  0  0  0  0
  6  7  1  0  0  0  0
  7  8  1  0  0  0  0
  7  9  1  0  0  0  0
 10 11  1  0  0  0  0
 10 14  1  0  0  0  0
 11 12  2  0  0  0  0
 11 13  1  0  0  0  0
 13 15  1  0  0  0  0
M  END
>  <CHROM.0>
-48.30635195,-58.79412922,-52.25401613,-52.49265353,-57.90219841,-62.28395410
-62.26436714,-175.12707297,-166.85621752,160.96480219

>  <CHROM.1>
21.00750008,-16.97302705,4.17704751,2.95945149,0.81367373,1.61714889

>  <Name>
P136187106

>  <RI>
0

>  <Rbt.Current_Directory>
/home/fstefaniak/projects/zuza/docking/adenine/1Y26

>  <Rbt.Executable>
rbdock ($Id: //depot/dev/client3/rdock/2013.1/src/exe/rbdock.cxx#4 $)

>  <Rbt.Library>
libRbt.so (2013.1, Build901 2013/11/27)

>  <Rbt.Parameter_File>
/home/fstefaniak/progs/rDock//data/scripts/dock_solv.prm

>  <Rbt.Receptor>
1y26.prm

>  <SCORE>
-47.9636

>  <SCORE.INTER>
-25.2875

>  <SCORE.INTER.CONST>
1

>  <SCORE.INTER.POLAR>
-2.46353

>  <SCORE.INTER.ROT>
0

>  <SCORE.INTER.SOLV>
13.4317

>  <SCORE.INTER.VDW>
-16.7238

>  <SCORE.INTER.norm>
-2.10729

>  <SCORE.INTRA>
0

>  <SCORE.INTRA.DIHEDRAL>
0

>  <SCORE.INTRA.DIHEDRAL.0>
0

>  <SCORE.INTRA.POLAR>
0

>  <SCORE.INTRA.POLAR.0>
0

>  <SCORE.INTRA.REPUL>
0

>  <SCORE.INTRA.REPUL.0>
0

>  <SCORE.INTRA.SOLV>
0

>  <SCORE.INTRA.SOLV.lig_0>
-20.0208

>  <SCORE.INTRA.VDW>
0

>  <SCORE.INTRA.VDW.0>
0

>  <SCORE.INTRA.norm>
0

>  <SCORE.RESTR>
0

>  <SCORE.RESTR.CAVITY>
0

>  <SCORE.RESTR.norm>
0

>  <SCORE.SYSTEM>
-22.6762

>  <SCORE.SYSTEM.CONST>
0

>  <SCORE.SYSTEM.DIHEDRAL>
5.73373

>  <SCORE.SYSTEM.POLAR>
-3.49116

>  <SCORE.SYSTEM.SOLV>
0.447934

>  <SCORE.SYSTEM.VDW>
-5.54079

>  <SCORE.SYSTEM.norm>
-1.88968

>  <SCORE.heavy>
12

>  <SCORE.norm>
-3.99697

$$$$
P136187106
 OpenBabel12072022103D
libRbt.so/2013.1/901 2013/11/27
 15 16  0  0  0  0  0  0  0  0999 V2000
   19.6954  -18.6287    1.5428 H   0  0  0  0  0  0  0  0  0  0  0  0
   20.2445  -17.8426    1.8989 N   0  0  0  0  0  0  0  0  0  0  0  0
   20.2335  -17.8333    3.1835 C   0  0  0  0  0  0  0  0  0  0  0  0
   20.9253  -16.8292    4.0987 C   0  0  2  0  0  0  0  0  0  0  0  0
   20.4761  -15.3898    3.9032 C   0  0  0  0  0  0  0  0  0  0  0  0
   21.7146  -14.5969    4.2900 C   0  0  0  0  0  0  0  0  0  0  0  0
   22.7973  -15.3930    3.7161 N   0  0  0  0  0  0  0  0  0  0  0  0
   22.4529  -16.8077    3.9484 C   0  0  0  0  0  0  0  0  0  0  0  0
   24.1082  -15.0315    4.2298 C   0  0  0  0  0  0  0  0  0  0  0  0
   20.4899  -17.3737    5.3735 N   0  0  0  0  0  0  0  0  0  0  0  0
   19.7209  -18.5025    5.2327 C   0  0  0  0  0  0  0  0  0  0  0  0
   19.2566  -19.1552    6.1494 O   0  0  0  0  0  0  0  0  0  0  0  0
   19.5722  -18.7613    3.9109 N   0  0  0  0  0  0  0  0  0  0  0  0
   20.7377  -17.0173    6.2866 H   0  0  0  0  0  0  0  0  0  0  0  0
   19.0336  -19.5404    3.5752 H   0  0  0  0  0  0  0  0  0  0  0  0
  1  2  1  0  0  0  0
  2  3  2  0  0  0  0
  3 13  1  0  0  0  0
  4  3  1  0  0  0  0
  4  5  1  6  0  0  0
  4  8  1  0  0  0  0
  4 10  1  0  0  0  0
  5  6  1  0  0  0  0
  6  7  1  0  0  0  0
  7  8  1  0  0  0  0
  7  9  1  0  0  0  0
 10 11  1  0  0  0  0
 10 14  1  0  0  0  0
 11 12  2  0  0  0  0
 11 13  1  0  0  0  0
 13 15  1  0  0  0  0
M  END
>  <CHROM.0>
-45.44590063,-58.59997455,-55.89428674,-53.09916267,-54.72028333,-58.98834228
-63.50224156,-176.88959438,-167.21181368,160.77417200

>  <CHROM.1>
21.00184651,-16.97215861,4.17834682,2.95344873,0.80997374,1.61912983

>  <Name>
P136187106

>  <RI>
0

>  <Rbt.Current_Directory>
/home/fstefaniak/projects/zuza/docking/adenine/1Y26

>  <Rbt.Executable>
rbdock ($Id: //depot/dev/client3/rdock/2013.1/src/exe/rbdock.cxx#4 $)

>  <Rbt.Library>
libRbt.so (2013.1, Build901 2013/11/27)

>  <Rbt.Parameter_File>
/home/fstefaniak/progs/rDock//data/scripts/dock_solv.prm

>  <Rbt.Receptor>
1y26.prm

>  <SCORE>
-47.9136

>  <SCORE.INTER>
-25.2778

>  <SCORE.INTER.CONST>
1

>  <SCORE.INTER.POLAR>
-2.45598

>  <SCORE.INTER.ROT>
0

>  <SCORE.INTER.SOLV>
13.4161

>  <SCORE.INTER.VDW>
-16.7373

>  <SCORE.INTER.norm>
-2.10648

>  <SCORE.INTRA>
0

>  <SCORE.INTRA.DIHEDRAL>
0

>  <SCORE.INTRA.DIHEDRAL.0>
0

>  <SCORE.INTRA.POLAR>
0

>  <SCORE.INTRA.POLAR.0>
0

>  <SCORE.INTRA.REPUL>
0

>  <SCORE.INTRA.REPUL.0>
0

>  <SCORE.INTRA.SOLV>
0

>  <SCORE.INTRA.SOLV.lig_0>
-20.0208

>  <SCORE.INTRA.VDW>
0

>  <SCORE.INTRA.VDW.0>
0

>  <SCORE.INTRA.norm>
0

>  <SCORE.RESTR>
0

>  <SCORE.RESTR.CAVITY>
0

>  <SCORE.RESTR.norm>
0

>  <SCORE.SYSTEM>
-22.6358

>  <SCORE.SYSTEM.CONST>
0

>  <SCORE.SYSTEM.DIHEDRAL>
5.88121

>  <SCORE.SYSTEM.POLAR>
-3.49523

>  <SCORE.SYSTEM.SOLV>
0.451098

>  <SCORE.SYSTEM.VDW>
-5.55052

>  <SCORE.SYSTEM.norm>
-1.88632

>  <SCORE.heavy>
12

>  <SCORE.norm>
-3.9928

$$$$
P136187106
 OpenBabel12072022103D
libRbt.so/2013.1/901 2013/11/27
 15 16  0  0  0  0  0  0  0  0999 V2000
   19.7858  -18.0990    1.3507 H   0  0  0  0  0  0  0  0  0  0  0  0
   20.3752  -17.3959    1.8029 N   0  0  0  0  0  0  0  0  0  0  0  0
   20.3474  -17.5409    3.0791 C   0  0  0  0  0  0  0  0  0  0  0  0
   21.0845  -16.6977    4.1135 C   0  0  2  0  0  0  0  0  0  0  0  0
   20.7233  -15.2209    4.0910 C   0  0  0  0  0  0  0  0  0  0  0  0
   22.0008  -14.5560    4.5789 C   0  0  0  0  0  0  0  0  0  0  0  0
   23.0426  -15.3406    3.9196 N   0  0  0  0  0  0  0  0  0  0  0  0
   22.6126  -16.7498    3.9766 C   0  0  0  0  0  0  0  0  0  0  0  0
   24.3653  -15.1228    4.4816 C   0  0  0  0  0  0  0  0  0  0  0  0
   20.6007  -17.3648    5.3102 N   0  0  0  0  0  0  0  0  0  0  0  0
   19.7688  -18.4203    5.0288 C   0  0  0  0  0  0  0  0  0  0  0  0
   19.2546  -19.1498    5.8567 O   0  0  0  0  0  0  0  0  0  0  0  0
   19.6230  -18.5085    3.6845 N   0  0  0  0  0  0  0  0  0  0  0  0
   20.8566  -17.1366    6.2613 H   0  0  0  0  0  0  0  0  0  0  0  0
   19.0442  -19.2077    3.2534 H   0  0  0  0  0  0  0  0  0  0  0  0
  1  2  1  0  0  0  0
  2  3  2  0  0  0  0
  3 13  1  0  0  0  0
  4  3  1  0  0  0  0
  4  5  1  6  0  0  0
  4  8  1  0  0  0  0
  4 10  1  0  0  0  0
  5  6  1  0  0  0  0
  6  7  1  0  0  0  0
  7  8  1  0  0  0  0
  7  9  1  0  0  0  0
 10 11  1  0  0  0  0
 10 14  1  0  0  0  0
 11 12  2  0  0  0  0
 11 13  1  0  0  0  0
 13 15  1  0  0  0  0
M  END
>  <CHROM.0>
-46.79101829,-59.14987033,-53.36479939,-52.25322325,-55.87476371,-59.78091539
-59.71858699,-175.16434942,-166.35939641,160.83656098

>  <CHROM.1>
21.15145424,-16.85353079,4.17577070,2.97583780,0.75183046,1.72463114

>  <Name>
P136187106

>  <RI>
0

>  <Rbt.Current_Directory>
/home/fstefaniak/projects/zuza/docking/adenine/1Y26

>  <Rbt.Executable>
rbdock ($Id: //depot/dev/client3/rdock/2013.1/src/exe/rbdock.cxx#4 $)

>  <Rbt.Library>
libRbt.so (2013.1, Build901 2013/11/27)

>  <Rbt.Parameter_File>
/home/fstefaniak/progs/rDock//data/scripts/dock_solv.prm

>  <Rbt.Receptor>
1y26.prm

>  <SCORE>
-47.7357

>  <SCORE.INTER>
-25.0889

>  <SCORE.INTER.CONST>
1

>  <SCORE.INTER.POLAR>
-2.24773

>  <SCORE.INTER.ROT>
0

>  <SCORE.INTER.SOLV>
13.1955

>  <SCORE.INTER.VDW>
-17.232

>  <SCORE.INTER.norm>
-2.09074

>  <SCORE.INTRA>
0

>  <SCORE.INTRA.DIHEDRAL>
0

>  <SCORE.INTRA.DIHEDRAL.0>
0

>  <SCORE.INTRA.POLAR>
0

>  <SCORE.INTRA.POLAR.0>
0

>  <SCORE.INTRA.REPUL>
0

>  <SCORE.INTRA.REPUL.0>
0

>  <SCORE.INTRA.SOLV>
0

>  <SCORE.INTRA.SOLV.lig_0>
-20.0208

>  <SCORE.INTRA.VDW>
0

>  <SCORE.INTRA.VDW.0>
0

>  <SCORE.INTRA.norm>
0

>  <SCORE.RESTR>
0

>  <SCORE.RESTR.CAVITY>
0

>  <SCORE.RESTR.norm>
0

>  <SCORE.SYSTEM>
-22.6468

>  <SCORE.SYSTEM.CONST>
0

>  <SCORE.SYSTEM.DIHEDRAL>
5.92665

>  <SCORE.SYSTEM.POLAR>
-3.51865

>  <SCORE.SYSTEM.SOLV>
0.461071

>  <SCORE.SYSTEM.VDW>
-5.49827

>  <SCORE.SYSTEM.norm>
-1.88723

>  <SCORE.heavy>
12

>  <SCORE.norm>
-3.97797

$$$$
P136187313
 OpenBabel12072022103D
libRbt.so/2013.1/901 2013/11/27
 15 16  0  0  0  0  0  0  0  0999 V2000
   19.7634  -18.0909    1.3330 H   0  0  0  0  0  0  0  0  0  0  0  0
   20.3605  -17.3930    1.7862 N   0  0  0  0  0  0  0  0  0  0  0  0
   20.3697  -17.5778    3.0578 C   0  0  0  0  0  0  0  0  0  0  0  0
   21.1408  -16.7505    4.0798 C   0  0  1  0  0  0  0  0  0  0  0  0
   22.6525  -16.8684    3.8867 C   0  0  0  0  0  0  0  0  0  0  0  0
   23.3991  -15.9175    4.8207 C   0  0  0  0  0  0  0  0  0  0  0  0
   22.8263  -14.5083    4.7336 C   0  0  0  0  0  0  0  0  0  0  0  0
   21.4275  -14.5139    5.0220 O   0  0  0  0  0  0  0  0  0  0  0  0
   20.6854  -15.2895    4.0679 C   0  0  0  0  0  0  0  0  0  0  0  0
   20.7059  -17.4520    5.2763 N   0  0  0  0  0  0  0  0  0  0  0  0
   19.8371  -18.4806    5.0074 C   0  0  0  0  0  0  0  0  0  0  0  0
   19.2964  -19.1865    5.8388 O   0  0  0  0  0  0  0  0  0  0  0  0
   19.6722  -18.5627    3.6637 N   0  0  0  0  0  0  0  0  0  0  0  0
   20.9053  -17.1572    6.2237 H   0  0  0  0  0  0  0  0  0  0  0  0
   19.0648  -19.2436    3.2423 H   0  0  0  0  0  0  0  0  0  0  0  0
  1  2  1  0  0  0  0
  2  3  2  0  0  0  0
  3 13  1  0  0  0  0
  4  3  1  0  0  0  0
  4  5  1  6  0  0  0
  4  9  1  0  0  0  0
  4 10  1  0  0  0  0
  5  6  1  0  0  0  0
  6  7  1  0  0  0  0
  7  8  1  0  0  0  0
  8  9  1  0  0  0  0
 10 11  1  0  0  0  0
 10 14  1  0  0  0  0
 11 12  2  0  0  0  0
 11 13  1  0  0  0  0
 13 15  1  0  0  0  0
M  END
>  <CHROM.0>
-50.69518296,-61.39215741,-54.98967857,-52.63860892,-56.60284784,-59.59905316
-61.03294355,-176.46992683,-166.23066576,160.89789332

>  <CHROM.1>
21.01656498,-16.87115170,4.29332292,3.13570105,0.90895988,1.65278350

>  <Name>
P136187313

>  <RI>
0

>  <Rbt.Current_Directory>
/home/fstefaniak/projects/zuza/docking/adenine/1Y26

>  <Rbt.Executable>
rbdock ($Id: //depot/dev/client3/rdock/2013.1/src/exe/rbdock.cxx#4 $)

>  <Rbt.Library>
libRbt.so (2013.1, Build901 2013/11/27)

>  <Rbt.Parameter_File>
/home/fstefaniak/progs/rDock//data/scripts/dock_solv.prm

>  <Rbt.Receptor>
1y26.prm

>  <SCORE>
-45.2689

>  <SCORE.INTER>
-22.5271

>  <SCORE.INTER.CONST>
1

>  <SCORE.INTER.POLAR>
-2.1105

>  <SCORE.INTER.ROT>
0

>  <SCORE.INTER.SOLV>
13.0929

>  <SCORE.INTER.VDW>
-15.9473

>  <SCORE.INTER.norm>
-1.87726

>  <SCORE.INTRA>
0

>  <SCORE.INTRA.DIHEDRAL>
0

>  <SCORE.INTRA.DIHEDRAL.0>
0

>  <SCORE.INTRA.POLAR>
0

>  <SCORE.INTRA.POLAR.0>
0

>  <SCORE.INTRA.REPUL>
0

>  <SCORE.INTRA.REPUL.0>
0

>  <SCORE.INTRA.SOLV>
0

>  <SCORE.INTRA.SOLV.lig_0>
-17.9212

>  <SCORE.INTRA.VDW>
0

>  <SCORE.INTRA.VDW.0>
0

>  <SCORE.INTRA.norm>
0

>  <SCORE.RESTR>
0

>  <SCORE.RESTR.CAVITY>
0

>  <SCORE.RESTR.norm>
0

>  <SCORE.SYSTEM>
-22.7419

>  <SCORE.SYSTEM.CONST>
0

>  <SCORE.SYSTEM.DIHEDRAL>
5.35198

>  <SCORE.SYSTEM.POLAR>
-3.43956

>  <SCORE.SYSTEM.SOLV>
0.448573

>  <SCORE.SYSTEM.VDW>
-5.62955

>  <SCORE.SYSTEM.norm>
-1.89515

>  <SCORE.heavy>
12

>  <SCORE.norm>
-3.77241

$$$$
P136187313
 OpenBabel12072022103D
libRbt.so/2013.1/901 2013/11/27
 15 16  0  0  0  0  0  0  0  0999 V2000
   19.7531  -18.1036    1.3407 H   0  0  0  0  0  0  0  0  0  0  0  0
   20.3556  -17.4065    1.7880 N   0  0  0  0  0  0  0  0  0  0  0  0
   20.3611  -17.5787    3.0614 C   0  0  0  0  0  0  0  0  0  0  0  0
   21.1378  -16.7480    4.0764 C   0  0  1  0  0  0  0  0  0  0  0  0
   22.6487  -16.8810    3.8871 C   0  0  0  0  0  0  0  0  0  0  0  0
   23.4021  -15.9275    4.8128 C   0  0  0  0  0  0  0  0  0  0  0  0
   22.8419  -14.5143    4.7108 C   0  0  0  0  0  0  0  0  0  0  0  0
   21.4427  -14.5048    4.9968 O   0  0  0  0  0  0  0  0  0  0  0  0
   20.6953  -15.2833    4.0492 C   0  0  0  0  0  0  0  0  0  0  0  0
   20.6949  -17.4337    5.2791 N   0  0  0  0  0  0  0  0  0  0  0  0
   19.8175  -18.4573    5.0189 C   0  0  0  0  0  0  0  0  0  0  0  0
   19.2693  -19.1502    5.8564 O   0  0  0  0  0  0  0  0  0  0  0  0
   19.6540  -18.5514    3.6758 N   0  0  0  0  0  0  0  0  0  0  0  0
   20.8953  -17.1313    6.2239 H   0  0  0  0  0  0  0  0  0  0  0  0
   19.0413  -19.2311    3.2602 H   0  0  0  0  0  0  0  0  0  0  0  0
  1  2  1  0  0  0  0
  2  3  2  0  0  0  0
  3 13  1  0  0  0  0
  4  3  1  0  0  0  0
  4  5  1  6  0  0  0
  4  9  1  0  0  0  0
  4 10  1  0  0  0  0
  5  6  1  0  0  0  0
  6  7  1  0  0  0  0
  7  8  1  0  0  0  0
  8  9  1  0  0  0  0
 10 11  1  0  0  0  0
 10 14  1  0  0  0  0
 11 12  2  0  0  0  0
 11 13  1  0  0  0  0
 13 15  1  0  0  0  0
M  END
>  <CHROM.0>
-50.19317610,-59.50809862,-55.20017658,-52.99756729,-175.95180585,-62.46595928
-61.35271691,-176.89872628,-166.67088910,160.76116325

>  <CHROM.1>
21.01218826,-16.86547054,4.29093014,3.13945463,0.90034709,1.63989161

>  <Name>
P136187313

>  <RI>
0

>  <Rbt.Current_Directory>
/home/fstefaniak/projects/zuza/docking/adenine/1Y26

>  <Rbt.Executable>
rbdock ($Id: //depot/dev/client3/rdock/2013.1/src/exe/rbdock.cxx#4 $)

>  <Rbt.Library>
libRbt.so (2013.1, Build901 2013/11/27)

>  <Rbt.Parameter_File>
/home/fstefaniak/progs/rDock//data/scripts/dock_solv.prm

>  <Rbt.Receptor>
1y26.prm

>  <SCORE>
-45.1963

>  <SCORE.INTER>
-22.4967

>  <SCORE.INTER.CONST>
1

>  <SCORE.INTER.POLAR>
-2.10978

>  <SCORE.INTER.ROT>
0

>  <SCORE.INTER.SOLV>
13.0013

>  <SCORE.INTER.VDW>
-15.899

>  <SCORE.INTER.norm>
-1.87473

>  <SCORE.INTRA>
0

>  <SCORE.INTRA.DIHEDRAL>
0

>  <SCORE.INTRA.DIHEDRAL.0>
0

>  <SCORE.INTRA.POLAR>
0

>  <SCORE.INTRA.POLAR.0>
0

>  <SCORE.INTRA.REPUL>
0

>  <SCORE.INTRA.REPUL.0>
0

>  <SCORE.INTRA.SOLV>
0

>  <SCORE.INTRA.SOLV.lig_0>
-17.9212

>  <SCORE.INTRA.VDW>
0

>  <SCORE.INTRA.VDW.0>
0

>  <SCORE.INTRA.norm>
0

>  <SCORE.RESTR>
0

>  <SCORE.RESTR.CAVITY>
0

>  <SCORE.RESTR.norm>
0

>  <SCORE.SYSTEM>
-22.6996

>  <SCORE.SYSTEM.CONST>
0

>  <SCORE.SYSTEM.DIHEDRAL>
5.36488

>  <SCORE.SYSTEM.POLAR>
-3.43925

>  <SCORE.SYSTEM.SOLV>
0.278765

>  <SCORE.SYSTEM.VDW>
-5.55012

>  <SCORE.SYSTEM.norm>
-1.89163

>  <SCORE.heavy>
12

>  <SCORE.norm>
-3.76636

$$$$
P136187313
 OpenBabel12072022103D
libRbt.so/2013.1/901 2013/11/27
 15 16  0  0  0  0  0  0  0  0999 V2000
   19.7603  -18.0608    1.3152 H   0  0  0  0  0  0  0  0  0  0  0  0
   20.3627  -17.3693    1.7711 N   0  0  0  0  0  0  0  0  0  0  0  0
   20.3748  -17.5626    3.0414 C   0  0  0  0  0  0  0  0  0  0  0  0
   21.1537  -16.7464    4.0665 C   0  0  1  0  0  0  0  0  0  0  0  0
   22.6642  -16.8714    3.8678 C   0  0  0  0  0  0  0  0  0  0  0  0
   23.4190  -15.9310    4.8057 C   0  0  0  0  0  0  0  0  0  0  0  0
   22.8538  -14.5180    4.7299 C   0  0  0  0  0  0  0  0  0  0  0  0
   21.4559  -14.5178    5.0226 O   0  0  0  0  0  0  0  0  0  0  0  0
   20.7065  -15.2829    4.0657 C   0  0  0  0  0  0  0  0  0  0  0  0
   20.7187  -17.4535    5.2597 N   0  0  0  0  0  0  0  0  0  0  0  0
   19.8433  -18.4754    4.9866 C   0  0  0  0  0  0  0  0  0  0  0  0
   19.3013  -19.1839    5.8150 O   0  0  0  0  0  0  0  0  0  0  0  0
   19.6737  -18.5477    3.6429 N   0  0  0  0  0  0  0  0  0  0  0  0
   20.9227  -17.1662    6.2084 H   0  0  0  0  0  0  0  0  0  0  0  0
   19.0612  -19.2224    3.2190 H   0  0  0  0  0  0  0  0  0  0  0  0
  1  2  1  0  0  0  0
  2  3  2  0  0  0  0
  3 13  1  0  0  0  0
  4  3  1  0  0  0  0
  4  5  1  6  0  0  0
  4  9  1  0  0  0  0
  4 10  1  0  0  0  0
  5  6  1  0  0  0  0
  6  7  1  0  0  0  0
  7  8  1  0  0  0  0
  8  9  1  0  0  0  0
 10 11  1  0  0  0  0
 10 14  1  0  0  0  0
 11 12  2  0  0  0  0
 11 13  1  0  0  0  0
 13 15  1  0  0  0  0
M  END
>  <CHROM.0>
-47.76895055,-60.27302560,-55.25489599,-51.04099951,-54.60034147,-58.91730628
-58.25468273,-175.43920005,-166.02088729,160.32718174

>  <CHROM.1>
21.02951863,-16.86784401,4.27957501,3.13141830,0.90313296,1.66281421

>  <Name>
P136187313

>  <RI>
0

>  <Rbt.Current_Directory>
/home/fstefaniak/projects/zuza/docking/adenine/1Y26

>  <Rbt.Executable>
rbdock ($Id: //depot/dev/client3/rdock/2013.1/src/exe/rbdock.cxx#4 $)

>  <Rbt.Library>
libRbt.so (2013.1, Build901 2013/11/27)

>  <Rbt.Parameter_File>
/home/fstefaniak/progs/rDock//data/scripts/dock_solv.prm

>  <Rbt.Receptor>
1y26.prm

>  <SCORE>
-45.1488

>  <SCORE.INTER>
-22.5152

>  <SCORE.INTER.CONST>
1

>  <SCORE.INTER.POLAR>
-2.12333

>  <SCORE.INTER.ROT>
0

>  <SCORE.INTER.SOLV>
13.0502

>  <SCORE.INTER.VDW>
-15.8824

>  <SCORE.INTER.norm>
-1.87626

>  <SCORE.INTRA>
0

>  <SCORE.INTRA.DIHEDRAL>
0

>  <SCORE.INTRA.DIHEDRAL.0>
0

>  <SCORE.INTRA.POLAR>
0

>  <SCORE.INTRA.POLAR.0>
0

>  <SCORE.INTRA.REPUL>
0

>  <SCORE.INTRA.REPUL.0>
0

>  <SCORE.INTRA.SOLV>
0

>  <SCORE.INTRA.SOLV.lig_0>
-17.9212

>  <SCORE.INTRA.VDW>
0

>  <SCORE.INTRA.VDW.0>
0

>  <SCORE.INTRA.norm>
0

>  <SCORE.RESTR>
0

>  <SCORE.RESTR.CAVITY>
0

>  <SCORE.RESTR.norm>
0

>  <SCORE.SYSTEM>
-22.6337

>  <SCORE.SYSTEM.CONST>
0

>  <SCORE.SYSTEM.DIHEDRAL>
5.9755

>  <SCORE.SYSTEM.POLAR>
-3.52537

>  <SCORE.SYSTEM.SOLV>
0.463813

>  <SCORE.SYSTEM.VDW>
-5.48431

>  <SCORE.SYSTEM.norm>
-1.88614

>  <SCORE.heavy>
12

>  <SCORE.norm>
-3.7624

$$$$
P136190992
 OpenBabel12072022103D
libRbt.so/2013.1/901 2013/11/27
 14 14  0  0  0  0  0  0  0  0999 V2000
   17.4372  -18.6122    4.9971 H   0  0  0  0  0  0  0  0  0  0  0  0
   17.7207  -18.9034    4.0555 N   0  0  0  0  0  0  0  0  0  0  0  0
   18.8474  -18.3742    3.7352 C   0  0  0  0  0  0  0  0  0  0  0  0
   19.7118  -17.4372    4.5592 C   0  0  2  0  0  0  0  0  0  0  0  0
   20.7501  -17.1588    3.5792 N   0  0  0  0  0  0  0  0  0  0  0  0
   20.5309  -17.8458    2.3875 C   0  0  0  0  0  0  0  0  0  0  0  0
   21.1829  -17.7624    1.3607 O   0  0  0  0  0  0  0  0  0  0  0  0
   19.4142  -18.6052    2.5364 N   0  0  0  0  0  0  0  0  0  0  0  0
   21.7191  -16.0783    3.7576 C   0  0  0  0  0  0  0  0  0  0  0  0
   21.1904  -14.9852    4.6842 C   0  0  0  0  0  0  0  0  0  0  0  0
   23.0686  -16.6060    4.2431 C   0  0  0  0  0  0  0  0  0  0  0  0
   20.2175  -18.0787    5.8520 C   0  0  0  0  0  0  0  0  0  0  0  0
   19.1388  -18.7403    6.7032 C   0  0  0  0  0  0  0  0  0  0  0  0
   19.0081  -19.1601    1.8035 H   0  0  0  0  0  0  0  0  0  0  0  0
  1  2  1  0  0  0  0
  2  3  2  0  0  0  0
  3  4  1  0  0  0  0
  3  8  1  0  0  0  0
  4  5  1  0  0  0  0
  4 12  1  1  0  0  0
  5  6  1  0  0  0  0
  5  9  1  0  0  0  0
  6  7  2  0  0  0  0
  6  8  1  0  0  0  0
  8 14  1  0  0  0  0
  9 10  1  0  0  0  0
  9 11  1  0  0  0  0
 12 13  1  0  0  0  0
M  END
>  <CHROM.0>
-54.32742422,-62.40154031,-56.34757795,-50.54080372,-57.42615143,-60.88362964
-61.40827240,-176.37597738,-167.30270889,160.22398316

>  <CHROM.1>
-50.62120657,-23.97648152,20.30146465,-17.54841407,3.95912514,-2.92903386
-0.65980778,-1.74646868

>  <Name>
P136190992

>  <RI>
0

>  <Rbt.Current_Directory>
/home/fstefaniak/projects/zuza/docking/adenine/1Y26

>  <Rbt.Executable>
rbdock ($Id: //depot/dev/client3/rdock/2013.1/src/exe/rbdock.cxx#4 $)

>  <Rbt.Library>
libRbt.so (2013.1, Build901 2013/11/27)

>  <Rbt.Parameter_File>
/home/fstefaniak/progs/rDock//data/scripts/dock_solv.prm

>  <Rbt.Receptor>
1y26.prm

>  <SCORE>
-39.7124

>  <SCORE.INTER>
-19.8369

>  <SCORE.INTER.CONST>
1

>  <SCORE.INTER.POLAR>
-1.54874

>  <SCORE.INTER.ROT>
2

>  <SCORE.INTER.SOLV>
12.4038

>  <SCORE.INTER.VDW>
-17.13

>  <SCORE.INTER.norm>
-1.65307

>  <SCORE.INTRA>
2.81896

>  <SCORE.INTRA.DIHEDRAL>
-0.656395

>  <SCORE.INTRA.DIHEDRAL.0>
2.6544

>  <SCORE.INTRA.POLAR>
0

>  <SCORE.INTRA.POLAR.0>
0

>  <SCORE.INTRA.REPUL>
0

>  <SCORE.INTRA.REPUL.0>
0

>  <SCORE.INTRA.SOLV>
-0.518555

>  <SCORE.INTRA.SOLV.lig_0>
-12.2381

>  <SCORE.INTRA.VDW>
3.40644

>  <SCORE.INTRA.VDW.0>
-0.401924

>  <SCORE.INTRA.norm>
0.234914

>  <SCORE.RESTR>
0

>  <SCORE.RESTR.CAVITY>
0

>  <SCORE.RESTR.norm>
0

>  <SCORE.SYSTEM>
-22.6944

>  <SCORE.SYSTEM.CONST>
0

>  <SCORE.SYSTEM.DIHEDRAL>
5.17773

>  <SCORE.SYSTEM.POLAR>
-3.42387

>  <SCORE.SYSTEM.SOLV>
0.44068

>  <SCORE.SYSTEM.VDW>
-5.58952

>  <SCORE.SYSTEM.norm>
-1.8912

>  <SCORE.heavy>
12

>  <SCORE.norm>
-3.30936

$$$$
P136190992
 OpenBabel12072022103D
libRbt.so/2013.1/901 2013/11/27
 14 14  0  0  0  0  0  0  0  0999 V2000
   17.3162  -18.5701    5.0820 H   0  0  0  0  0  0  0  0  0  0  0  0
   17.6798  -18.8129    4.1543 N   0  0  0  0  0  0  0  0  0  0  0  0
   18.8753  -18.3657    4.0025 C   0  0  0  0  0  0  0  0  0  0  0  0
   19.7147  -17.5776    4.9916 C   0  0  2  0  0  0  0  0  0  0  0  0
   20.8768  -17.3208    4.1553 N   0  0  0  0  0  0  0  0  0  0  0  0
   20.7385  -17.8914    2.8922 C   0  0  0  0  0  0  0  0  0  0  0  0
   21.5074  -17.7894    1.9516 O   0  0  0  0  0  0  0  0  0  0  0  0
   19.5535  -18.5549    2.8554 N   0  0  0  0  0  0  0  0  0  0  0  0
   21.9049  -16.3501    4.5283 C   0  0  0  0  0  0  0  0  0  0  0  0
   23.2776  -16.7335    3.9789 C   0  0  0  0  0  0  0  0  0  0  0  0
   21.5203  -14.9322    4.1076 C   0  0  0  0  0  0  0  0  0  0  0  0
   20.0160  -18.3598    6.2706 C   0  0  0  0  0  0  0  0  0  0  0  0
   18.7851  -18.8370    7.0343 C   0  0  0  0  0  0  0  0  0  0  0  0
   19.1889  -19.0126    2.0382 H   0  0  0  0  0  0  0  0  0  0  0  0
  1  2  1  0  0  0  0
  2  3  2  0  0  0  0
  3  4  1  0  0  0  0
  3  8  1  0  0  0  0
  4  5  1  0  0  0  0
  4 12  1  1  0  0  0
  5  6  1  0  0  0  0
  5  9  1  0  0  0  0
  6  7  2  0  0  0  0
  6  8  1  0  0  0  0
  8 14  1  0  0  0  0
  9 10  1  0  0  0  0
  9 11  1  0  0  0  0
 12 13  1  0  0  0  0
M  END
>  <CHROM.0>
-45.04292389,-62.05388116,-58.78076388,-53.51352387,-57.34326708,-52.82310889
-60.44657190,-177.08096031,-167.03689577,160.61042406

>  <CHROM.1>
-57.81736764,150.22968579,20.38212151,-17.62444534,4.23592110,2.80916538
0.61270872,1.41137059

>  <Name>
P136190992

>  <RI>
0

>  <Rbt.Current_Directory>
/home/fstefaniak/projects/zuza/docking/adenine/1Y26

>  <Rbt.Executable>
rbdock ($Id: //depot/dev/client3/rdock/2013.1/src/exe/rbdock.cxx#4 $)

>  <Rbt.Library>
libRbt.so (2013.1, Build901 2013/11/27)

>  <Rbt.Parameter_File>
/home/fstefaniak/progs/rDock//data/scripts/dock_solv.prm

>  <Rbt.Receptor>
1y26.prm

>  <SCORE>
-39.2867

>  <SCORE.INTER>
-18.8769

>  <SCORE.INTER.CONST>
1

>  <SCORE.INTER.POLAR>
-1.74062

>  <SCORE.INTER.ROT>
2

>  <SCORE.INTER.SOLV>
11.571

>  <SCORE.INTER.VDW>
-15.5728

>  <SCORE.INTER.norm>
-1.57307

>  <SCORE.INTRA>
2.20295

>  <SCORE.INTRA.DIHEDRAL>
0.659196

>  <SCORE.INTRA.DIHEDRAL.0>
2.6544

>  <SCORE.INTRA.POLAR>
0

>  <SCORE.INTRA.POLAR.0>
0

>  <SCORE.INTRA.REPUL>
0

>  <SCORE.INTRA.REPUL.0>
0

>  <SCORE.INTRA.SOLV>
-0.21646

>  <SCORE.INTRA.SOLV.lig_0>
-12.2381

>  <SCORE.INTRA.VDW>
1.98159

>  <SCORE.INTRA.VDW.0>
-0.401924

>  <SCORE.INTRA.norm>
0.183579

>  <SCORE.RESTR>
0

>  <SCORE.RESTR.CAVITY>
0

>  <SCORE.RESTR.norm>
0

>  <SCORE.SYSTEM>
-22.6128

>  <SCORE.SYSTEM.CONST>
0

>  <SCORE.SYSTEM.DIHEDRAL>
5.9616

>  <SCORE.SYSTEM.POLAR>
-3.51259

>  <SCORE.SYSTEM.SOLV>
0.4579

>  <SCORE.SYSTEM.VDW>
-5.50638

>  <SCORE.SYSTEM.norm>
-1.8844

>  <SCORE.heavy>
12

>  <SCORE.norm>
-3.27389

$$$$
P136190992
 OpenBabel12072022103D
libRbt.so/2013.1/901 2013/11/27
 14 14  0  0  0  0  0  0  0  0999 V2000
   17.4409  -18.6046    4.9928 H   0  0  0  0  0  0  0  0  0  0  0  0
   17.7263  -18.8987    4.0527 N   0  0  0  0  0  0  0  0  0  0  0  0
   18.8579  -18.3776    3.7364 C   0  0  0  0  0  0  0  0  0  0  0  0
   19.7253  -17.4457    4.5631 C   0  0  2  0  0  0  0  0  0  0  0  0
   20.7695  -17.1755    3.5870 N   0  0  0  0  0  0  0  0  0  0  0  0
   20.5505  -17.8621    2.3951 C   0  0  0  0  0  0  0  0  0  0  0  0
   21.2072  -17.7843    1.3709 O   0  0  0  0  0  0  0  0  0  0  0  0
   19.4280  -18.6137    2.5403 N   0  0  0  0  0  0  0  0  0  0  0  0
   21.7452  -16.1015    3.7683 C   0  0  0  0  0  0  0  0  0  0  0  0
   21.2094  -14.9901    4.6688 C   0  0  0  0  0  0  0  0  0  0  0  0
   23.0802  -16.6345    4.2871 C   0  0  0  0  0  0  0  0  0  0  0  0
   20.2214  -18.0894    5.8585 C   0  0  0  0  0  0  0  0  0  0  0  0
   19.1303  -18.7144    6.7217 C   0  0  0  0  0  0  0  0  0  0  0  0
   19.0210  -19.1666    1.8062 H   0  0  0  0  0  0  0  0  0  0  0  0
  1  2  1  0  0  0  0
  2  3  2  0  0  0  0
  3  4  1  0  0  0  0
  3  8  1  0  0  0  0
  4  5  1  0  0  0  0
  4 12  1  1  0  0  0
  5  6  1  0  0  0  0
  5  9  1  0  0  0  0
  6  7  2  0  0  0  0
  6  8  1  0  0  0  0
  8 14  1  0  0  0  0
  9 10  1  0  0  0  0
  9 11  1  0  0  0  0
 12 13  1  0  0  0  0
M  END
>  <CHROM.0>
-48.79035601,-62.80530022,-55.65784471,-53.63315618,-56.94655353,-58.17433430
-61.96290661,-52.73661030,-167.45009487,161.32899980

>  <CHROM.1>
-51.97568648,-25.14149357,20.31453872,-17.55755705,3.96729110,-2.93183311
-0.65294216,-1.75072974

>  <Name>
P136190992

>  <RI>
0

>  <Rbt.Current_Directory>
/home/fstefaniak/projects/zuza/docking/adenine/1Y26

>  <Rbt.Executable>
rbdock ($Id: //depot/dev/client3/rdock/2013.1/src/exe/rbdock.cxx#4 $)

>  <Rbt.Library>
libRbt.so (2013.1, Build901 2013/11/27)

>  <Rbt.Parameter_File>
/home/fstefaniak/progs/rDock//data/scripts/dock_solv.prm

>  <Rbt.Receptor>
1y26.prm

>  <SCORE>
-39.2592

>  <SCORE.INTER>
-19.567

>  <SCORE.INTER.CONST>
1

>  <SCORE.INTER.POLAR>
-1.57797

>  <SCORE.INTER.ROT>
2

>  <SCORE.INTER.SOLV>
12.3679

>  <SCORE.INTER.VDW>
-16.8407

>  <SCORE.INTER.norm>
-1.63058

>  <SCORE.INTRA>
2.60036

>  <SCORE.INTRA.DIHEDRAL>
-0.725736

>  <SCORE.INTRA.DIHEDRAL.0>
2.6544

>  <SCORE.INTRA.POLAR>
0

>  <SCORE.INTRA.POLAR.0>
0

>  <SCORE.INTRA.REPUL>
0

>  <SCORE.INTRA.REPUL.0>
0

>  <SCORE.INTRA.SOLV>
-0.526124

>  <SCORE.INTRA.SOLV.lig_0>
-12.2381

>  <SCORE.INTRA.VDW>
3.22629

>  <SCORE.INTRA.VDW.0>
-0.401924

>  <SCORE.INTRA.norm>
0.216696

>  <SCORE.RESTR>
0

>  <SCORE.RESTR.CAVITY>
0

>  <SCORE.RESTR.norm>
0

>  <SCORE.SYSTEM>
-22.2926

>  <SCORE.SYSTEM.CONST>
0

>  <SCORE.SYSTEM.DIHEDRAL>
5.47538

>  <SCORE.SYSTEM.POLAR>
-3.44433

>  <SCORE.SYSTEM.SOLV>
0.657355

>  <SCORE.SYSTEM.VDW>
-5.42487

>  <SCORE.SYSTEM.norm>
-1.85771

>  <SCORE.heavy>
12

>  <SCORE.norm>
-3.2716

$$$$
P136208231
 OpenBabel12072022103D
libRbt.so/2013.1/901 2013/11/27
 15 16  0  0  0  0  0  0  0  0999 V2000
   18.5781  -18.6516    2.8409 H   0  0  0  0  0  0  0  0  0  0  0  0
   18.3859  -19.3755    3.5405 N   0  0  0  0  0  0  0  0  0  0  0  0
   18.9458  -19.0960    4.6626 C   0  0  0  0  0  0  0  0  0  0  0  0
   19.8002  -17.8856    5.0160 C   0  0  1  0  0  0  0  0  0  0  0  0
   20.0660  -18.2081    6.3945 N   0  0  0  0  0  0  0  0  0  0  0  0
   19.4664  -19.3816    6.7954 C   0  0  0  0  0  0  0  0  0  0  0  0
   19.5309  -19.8554    7.9148 O   0  0  0  0  0  0  0  0  0  0  0  0
   18.8071  -19.9034    5.7334 N   0  0  0  0  0  0  0  0  0  0  0  0
   21.0315  -17.7359    4.1145 C   0  0  2  0  0  0  0  0  0  0  0  0
   21.9375  -16.5609    4.4424 C   0  0  0  0  0  0  0  0  0  0  0  0
   21.3658  -15.4130    3.6312 C   0  0  0  0  0  0  0  0  0  0  0  0
   20.5437  -15.9829    2.6019 O   0  0  0  0  0  0  0  0  0  0  0  0
   20.6380  -17.4089    2.6838 C   0  0  0  0  0  0  0  0  0  0  0  0
   20.5978  -17.6402    7.0442 H   0  0  0  0  0  0  0  0  0  0  0  0
   18.2767  -20.7572    5.7540 H   0  0  0  0  0  0  0  0  0  0  0  0
  1  2  1  0  0  0  0
  2  3  2  0  0  0  0
  3  8  1  0  0  0  0
  4  3  1  6  0  0  0
  4  5  1  0  0  0  0
  5  6  1  0  0  0  0
  5 14  1  0  0  0  0
  6  7  2  0  0  0  0
  6  8  1  0  0  0  0
  8 15  1  0  0  0  0
  9 10  1  1  0  0  0
  9 13  1  0  0  0  0
  9  4  1  0  0  0  0
 10 11  1  0  0  0  0
 11 12  1  0  0  0  0
 12 13  1  0  0  0  0
M  END
>  <CHROM.0>
-105.42403260,-45.11452860,-51.61380797,-54.01594884,-173.12692381,-57.51150843
-57.50199050,-172.86948668,-166.06121169,161.09497854

>  <CHROM.1>
-178.70193141,20.04299120,-18.05552431,4.79286475,1.02111636,-0.81367209
-1.21398817

>  <Name>
P136208231

>  <RI>
0

>  <Rbt.Current_Directory>
/home/fstefaniak/projects/zuza/docking/adenine/1Y26

>  <Rbt.Executable>
rbdock ($Id: //depot/dev/client3/rdock/2013.1/src/exe/rbdock.cxx#4 $)

>  <Rbt.Library>
libRbt.so (2013.1, Build901 2013/11/27)

>  <Rbt.Parameter_File>
/home/fstefaniak/progs/rDock//data/scripts/dock_solv.prm

>  <Rbt.Receptor>
1y26.prm

>  <SCORE>
-47.3993

>  <SCORE.INTER>
-30.0156

>  <SCORE.INTER.CONST>
1

>  <SCORE.INTER.POLAR>
-4.52428

>  <SCORE.INTER.ROT>
1

>  <SCORE.INTER.SOLV>
17.6084

>  <SCORE.INTER.VDW>
-15.0656

>  <SCORE.INTER.norm>
-2.5013

>  <SCORE.INTRA>
0.66642

>  <SCORE.INTRA.DIHEDRAL>
-0.0834437

>  <SCORE.INTRA.DIHEDRAL.0>
0.289369

>  <SCORE.INTRA.POLAR>
0

>  <SCORE.INTRA.POLAR.0>
0

>  <SCORE.INTRA.REPUL>
0

>  <SCORE.INTRA.REPUL.0>
0

>  <SCORE.INTRA.SOLV>
-0.983387

>  <SCORE.INTRA.SOLV.lig_0>
-18.365

>  <SCORE.INTRA.VDW>
1.19984

>  <SCORE.INTRA.VDW.0>
-1.13211

>  <SCORE.INTRA.norm>
0.055535

>  <SCORE.RESTR>
0

>  <SCORE.RESTR.CAVITY>
0

>  <SCORE.RESTR.norm>
0

>  <SCORE.SYSTEM>
-18.0501

>  <SCORE.SYSTEM.CONST>
0

>  <SCORE.SYSTEM.DIHEDRAL>
12.5799

>  <SCORE.SYSTEM.POLAR>
-3.22097

>  <SCORE.SYSTEM.SOLV>
0.215507

>  <SCORE.SYSTEM.VDW>
-5.56199

>  <SCORE.SYSTEM.norm>
-1.50418

>  <SCORE.heavy>
12

>  <SCORE.norm>
-3.94995

$$$$
P136208231
 OpenBabel12072022103D
libRbt.so/2013.1/901 2013/11/27
 15 16  0  0  0  0  0  0  0  0999 V2000
   18.5385  -18.6376    2.8750 H   0  0  0  0  0  0  0  0  0  0  0  0
   18.3401  -19.3488    3.5859 N   0  0  0  0  0  0  0  0  0  0  0  0
   18.9133  -19.0634    4.6998 C   0  0  0  0  0  0  0  0  0  0  0  0
   19.7900  -17.8625    5.0301 C   0  0  1  0  0  0  0  0  0  0  0  0
   20.0613  -18.1707    6.4108 N   0  0  0  0  0  0  0  0  0  0  0  0
   19.4460  -19.3288    6.8322 C   0  0  0  0  0  0  0  0  0  0  0  0
   19.5115  -19.7884    7.9574 O   0  0  0  0  0  0  0  0  0  0  0  0
   18.7700  -19.8540    5.7824 N   0  0  0  0  0  0  0  0  0  0  0  0
   21.0164  -17.7451    4.1173 C   0  0  2  0  0  0  0  0  0  0  0  0
   21.9546  -16.5927    4.4350 C   0  0  0  0  0  0  0  0  0  0  0  0
   21.4045  -15.4320    3.6271 C   0  0  0  0  0  0  0  0  0  0  0  0
   20.5591  -15.9826    2.6062 O   0  0  0  0  0  0  0  0  0  0  0  0
   20.6183  -17.4103    2.6896 C   0  0  0  0  0  0  0  0  0  0  0  0
   20.6074  -17.6030    7.0487 H   0  0  0  0  0  0  0  0  0  0  0  0
   18.2259  -20.6986    5.8187 H   0  0  0  0  0  0  0  0  0  0  0  0
  1  2  1  0  0  0  0
  2  3  2  0  0  0  0
  3  8  1  0  0  0  0
  4  3  1  6  0  0  0
  4  5  1  0  0  0  0
  5  6  1  0  0  0  0
  5 14  1  0  0  0  0
  6  7  2  0  0  0  0
  6  8  1  0  0  0  0
  8 15  1  0  0  0  0
  9 10  1  1  0  0  0
  9 13  1  0  0  0  0
  9  4  1  0  0  0  0
 10 11  1  0  0  0  0
 11 12  1  0  0  0  0
 12 13  1  0  0  0  0
M  END
>  <CHROM.0>
-52.87138545,-45.09452701,-50.42546085,-53.12226451,-174.77391428,-59.41187172
-59.99809465,-178.65215019,-166.43496285,161.11612703

>  <CHROM.1>
-177.84722583,20.03216983,-18.03630736,4.81315985,1.01935366,-0.79456851
-1.22414620

>  <Name>
P136208231

>  <RI>
0

>  <Rbt.Current_Directory>
/home/fstefaniak/projects/zuza/docking/adenine/1Y26

>  <Rbt.Executable>
rbdock ($Id: //depot/dev/client3/rdock/2013.1/src/exe/rbdock.cxx#4 $)

>  <Rbt.Library>
libRbt.so (2013.1, Build901 2013/11/27)

>  <Rbt.Parameter_File>
/home/fstefaniak/progs/rDock//data/scripts/dock_solv.prm

>  <Rbt.Receptor>
1y26.prm

>  <SCORE>
-47.3527

>  <SCORE.INTER>
-26.1049

>  <SCORE.INTER.CONST>
1

>  <SCORE.INTER.POLAR>
-3.74067

>  <SCORE.INTER.ROT>
1

>  <SCORE.INTER.SOLV>
17.4527

>  <SCORE.INTER.VDW>
-15.0186

>  <SCORE.INTER.norm>
-2.17541

>  <SCORE.INTRA>
0.595706

>  <SCORE.INTRA.DIHEDRAL>
-0.0751338

>  <SCORE.INTRA.DIHEDRAL.0>
0.289369

>  <SCORE.INTRA.POLAR>
0

>  <SCORE.INTRA.POLAR.0>
0

>  <SCORE.INTRA.REPUL>
0

>  <SCORE.INTRA.REPUL.0>
0

>  <SCORE.INTRA.SOLV>
-0.988995

>  <SCORE.INTRA.SOLV.lig_0>
-18.365

>  <SCORE.INTRA.VDW>
1.12777

>  <SCORE.INTRA.VDW.0>
-1.13211

>  <SCORE.INTRA.norm>
0.0496422

>  <SCORE.RESTR>
0

>  <SCORE.RESTR.CAVITY>
0

>  <SCORE.RESTR.norm>
0

>  <SCORE.SYSTEM>
-21.8435

>  <SCORE.SYSTEM.CONST>
0

>  <SCORE.SYSTEM.DIHEDRAL>
6.41903

>  <SCORE.SYSTEM.POLAR>
-3.43114

>  <SCORE.SYSTEM.SOLV>
0.30128

>  <SCORE.SYSTEM.VDW>
-5.36528

>  <SCORE.SYSTEM.norm>
-1.82029

>  <SCORE.heavy>
12

>  <SCORE.norm>
-3.94606

$$$$
P136208231
 OpenBabel12072022103D
libRbt.so/2013.1/901 2013/11/27
 15 16  0  0  0  0  0  0  0  0999 V2000
   17.9248  -18.1039    2.3796 H   0  0  0  0  0  0  0  0  0  0  0  0
   18.0097  -18.9185    2.9958 N   0  0  0  0  0  0  0  0  0  0  0  0
   18.6427  -18.6206    4.0734 C   0  0  0  0  0  0  0  0  0  0  0  0
   19.2308  -17.2763    4.4822 C   0  0  1  0  0  0  0  0  0  0  0  0
   19.7588  -17.6571    5.7671 N   0  0  0  0  0  0  0  0  0  0  0  0
   19.5149  -18.9770    6.0768 C   0  0  0  0  0  0  0  0  0  0  0  0
   19.8478  -19.5280    7.1098 O   0  0  0  0  0  0  0  0  0  0  0  0
   18.8517  -19.5390    5.0381 N   0  0  0  0  0  0  0  0  0  0  0  0
   20.2510  -16.7354    3.4733 C   0  0  2  0  0  0  0  0  0  0  0  0
   21.5949  -17.4445    3.4650 C   0  0  0  0  0  0  0  0  0  0  0  0
   22.4161  -16.6968    4.4991 C   0  0  0  0  0  0  0  0  0  0  0  0
   21.7847  -15.4253    4.7104 O   0  0  0  0  0  0  0  0  0  0  0  0
   20.6735  -15.3163    3.8147 C   0  0  0  0  0  0  0  0  0  0  0  0
   20.2298  -17.0417    6.4205 H   0  0  0  0  0  0  0  0  0  0  0  0
   18.5449  -20.4959    5.0072 H   0  0  0  0  0  0  0  0  0  0  0  0
  1  2  1  0  0  0  0
  2  3  2  0  0  0  0
  3  8  1  0  0  0  0
  4  3  1  6  0  0  0
  4  5  1  0  0  0  0
  5  6  1  0  0  0  0
  5 14  1  0  0  0  0
  6  7  2  0  0  0  0
  6  8  1  0  0  0  0
  8 15  1  0  0  0  0
  9 10  1  1  0  0  0
  9 13  1  0  0  0  0
  9  4  1  0  0  0  0
 10 11  1  0  0  0  0
 11 12  1  0  0  0  0
 12 13  1  0  0  0  0
M  END
>  <CHROM.0>
-49.94764872,-61.51970609,-56.94181868,-52.39845960,-57.50964199,-61.69830288
-59.89626521,-174.79774880,-166.86091235,160.42613559

>  <CHROM.1>
-73.28769700,20.07262127,-17.66966293,4.65204563,2.45734916,0.68710492,2.13491485

>  <Name>
P136208231

>  <RI>
0

>  <Rbt.Current_Directory>
/home/fstefaniak/projects/zuza/docking/adenine/1Y26

>  <Rbt.Executable>
rbdock ($Id: //depot/dev/client3/rdock/2013.1/src/exe/rbdock.cxx#4 $)

>  <Rbt.Library>
libRbt.so (2013.1, Build901 2013/11/27)

>  <Rbt.Parameter_File>
/home/fstefaniak/progs/rDock//data/scripts/dock_solv.prm

>  <Rbt.Receptor>
1y26.prm

>  <SCORE>
-47.3393

>  <SCORE.INTER>
-24.7675

>  <SCORE.INTER.CONST>
1

>  <SCORE.INTER.POLAR>
-3.20207

>  <SCORE.INTER.ROT>
1

>  <SCORE.INTER.SOLV>
15.1891

>  <SCORE.INTER.VDW>
-15.1678

>  <SCORE.INTER.norm>
-2.06396

>  <SCORE.INTRA>
0.173081

>  <SCORE.INTRA.DIHEDRAL>
0.388004

>  <SCORE.INTRA.DIHEDRAL.0>
0.289369

>  <SCORE.INTRA.POLAR>
0

>  <SCORE.INTRA.POLAR.0>
0

>  <SCORE.INTRA.REPUL>
0

>  <SCORE.INTRA.REPUL.0>
0

>  <SCORE.INTRA.SOLV>
-0.112267

>  <SCORE.INTRA.SOLV.lig_0>
-18.365

>  <SCORE.INTRA.VDW>
0.0352127

>  <SCORE.INTRA.VDW.0>
-1.13211

>  <SCORE.INTRA.norm>
0.0144234

>  <SCORE.RESTR>
0

>  <SCORE.RESTR.CAVITY>
0

>  <SCORE.RESTR.norm>
0

>  <SCORE.SYSTEM>
-22.7449

>  <SCORE.SYSTEM.CONST>
0

>  <SCORE.SYSTEM.DIHEDRAL>
5.41067

>  <SCORE.SYSTEM.POLAR>
-3.4457

>  <SCORE.SYSTEM.SOLV>
0.444064

>  <SCORE.SYSTEM.VDW>
-5.62916

>  <SCORE.SYSTEM.norm>
-1.89541

>  <SCORE.heavy>
12

>  <SCORE.norm>
-3.94494

$$$$
P136208459
 OpenBabel12072022103D
libRbt.so/2013.1/901 2013/11/27
 16 16  0  0  0  0  0  0  0  0999 V2000
   19.2173  -19.0835    2.0777 H   0  0  0  0  0  0  0  0  0  0  0  0
   18.5085  -19.2794    2.8096 N   0  0  0  0  0  0  0  0  0  0  0  0
   18.9433  -18.8812    3.9514 C   0  0  0  0  0  0  0  0  0  0  0  0
   20.2686  -18.2005    4.2664 C   0  0  2  0  0  0  0  0  0  0  0  0
   20.1331  -18.1498    5.7086 N   0  0  0  0  0  0  0  0  0  0  0  0
   18.9324  -18.6628    6.1499 C   0  0  0  0  0  0  0  0  0  0  0  0
   18.6096  -18.7690    7.3190 O   0  0  0  0  0  0  0  0  0  0  0  0
   18.2112  -19.0443    5.0707 N   0  0  0  0  0  0  0  0  0  0  0  0
   20.3411  -16.8062    3.6651 C   0  0  0  0  0  0  0  0  0  0  0  0
   21.5754  -16.0771    4.1442 C   0  0  0  0  0  0  0  0  0  0  0  0
   22.4435  -16.6171    4.8220 O   0  0  0  0  0  0  0  0  0  0  0  0
   21.6286  -14.7675    3.7268 N   0  0  0  0  0  0  0  0  0  0  0  0
   22.7383  -13.8993    4.0391 C   0  0  0  0  0  0  0  0  0  0  0  0
   20.8565  -17.9000    6.3702 H   0  0  0  0  0  0  0  0  0  0  0  0
   17.3195  -19.5070    5.1113 H   0  0  0  0  0  0  0  0  0  0  0  0
   20.8726  -14.3897    3.1695 H   0  0  0  0  0  0  0  0  0  0  0  0
  1  2  1  0  0  0  0
  2  3  2  0  0  0  0
  3  4  1  0  0  0  0
  3  8  1  0  0  0  0
  4  5  1  0  0  0  0
  4  9  1  6  0  0  0
  5  6  1  0  0  0  0
  5 14  1  0  0  0  0
  6  7  2  0  0  0  0
  6  8  1  0  0  0  0
  8 15  1  0  0  0  0
  9 10  1  0  0  0  0
 10 11  2  0  0  0  0
 10 12  1  0  0  0  0
 12 13  1  0  0  0  0
 12 16  1  0  0  0  0
M  END
>  <CHROM.0>
-171.60145133,-59.81803154,-48.40102020,-50.28422974,-56.75036045,-53.19728143
-54.16536141,-52.92629677,-166.71872390,159.78333103

>  <CHROM.1>
172.20993701,6.46240548,20.21561046,-17.40106475,4.65668185,2.86159815,0.83547094
1.64021466

>  <Name>
P136208459

>  <RI>
0

>  <Rbt.Current_Directory>
/home/fstefaniak/projects/zuza/docking/adenine/1Y26

>  <Rbt.Executable>
rbdock ($Id: //depot/dev/client3/rdock/2013.1/src/exe/rbdock.cxx#4 $)

>  <Rbt.Library>
libRbt.so (2013.1, Build901 2013/11/27)

>  <Rbt.Parameter_File>
/home/fstefaniak/progs/rDock//data/scripts/dock_solv.prm

>  <Rbt.Receptor>
1y26.prm

>  <SCORE>
-55.5185

>  <SCORE.INTER>
-35.2668

>  <SCORE.INTER.CONST>
1

>  <SCORE.INTER.POLAR>
-4.32988

>  <SCORE.INTER.ROT>
2

>  <SCORE.INTER.SOLV>
16.6614

>  <SCORE.INTER.VDW>
-19.5654

>  <SCORE.INTER.norm>
-2.9389

>  <SCORE.INTRA>
0.540951

>  <SCORE.INTRA.DIHEDRAL>
-0.537849

>  <SCORE.INTRA.DIHEDRAL.0>
2.18805

>  <SCORE.INTRA.POLAR>
0.204173

>  <SCORE.INTRA.POLAR.0>
-0.204173

>  <SCORE.INTRA.REPUL>
0

>  <SCORE.INTRA.REPUL.0>
0

>  <SCORE.INTRA.SOLV>
-0.101721

>  <SCORE.INTRA.SOLV.lig_0>
-26.9986

>  <SCORE.INTRA.VDW>
0.166547

>  <SCORE.INTRA.VDW.0>
-0.430334

>  <SCORE.INTRA.norm>
0.0450792

>  <SCORE.RESTR>
0

>  <SCORE.RESTR.CAVITY>
0

>  <SCORE.RESTR.norm>
0

>  <SCORE.SYSTEM>
-20.7927

>  <SCORE.SYSTEM.CONST>
0

>  <SCORE.SYSTEM.DIHEDRAL>
6.5767

>  <SCORE.SYSTEM.POLAR>
-3.39813

>  <SCORE.SYSTEM.SOLV>
0.64563

>  <SCORE.SYSTEM.VDW>
-4.94211

>  <SCORE.SYSTEM.norm>
-1.73272

>  <SCORE.heavy>
12

>  <SCORE.norm>
-4.62654

$$$$
P136208459
 OpenBabel12072022103D
libRbt.so/2013.1/901 2013/11/27
 16 16  0  0  0  0  0  0  0  0999 V2000
   19.1809  -18.9045    2.2282 H   0  0  0  0  0  0  0  0  0  0  0  0
   18.6086  -19.3025    2.9966 N   0  0  0  0  0  0  0  0  0  0  0  0
   19.0791  -18.9205    4.1298 C   0  0  0  0  0  0  0  0  0  0  0  0
   20.2715  -18.0107    4.3932 C   0  0  2  0  0  0  0  0  0  0  0  0
   20.2872  -18.1099    5.8391 N   0  0  0  0  0  0  0  0  0  0  0  0
   19.2660  -18.8939    6.3311 C   0  0  0  0  0  0  0  0  0  0  0  0
   19.1001  -19.1618    7.5071 O   0  0  0  0  0  0  0  0  0  0  0  0
   18.5200  -19.3238    5.2875 N   0  0  0  0  0  0  0  0  0  0  0  0
   20.0030  -16.5859    3.9362 C   0  0  0  0  0  0  0  0  0  0  0  0
   21.1977  -15.7001    4.2059 C   0  0  0  0  0  0  0  0  0  0  0  0
   21.0914  -14.5547    4.6319 O   0  0  0  0  0  0  0  0  0  0  0  0
   22.3998  -16.3156    3.9450 N   0  0  0  0  0  0  0  0  0  0  0  0
   23.6682  -15.6647    4.1690 C   0  0  0  0  0  0  0  0  0  0  0  0
   21.0155  -17.7731    6.4552 H   0  0  0  0  0  0  0  0  0  0  0  0
   17.7463  -19.9617    5.3599 H   0  0  0  0  0  0  0  0  0  0  0  0
   22.4091  -17.2647    3.5931 H   0  0  0  0  0  0  0  0  0  0  0  0
  1  2  1  0  0  0  0
  2  3  2  0  0  0  0
  3  4  1  0  0  0  0
  3  8  1  0  0  0  0
  4  5  1  0  0  0  0
  4  9  1  1  0  0  0
  5  6  1  0  0  0  0
  5 14  1  0  0  0  0
  6  7  2  0  0  0  0
  6  8  1  0  0  0  0
  8 15  1  0  0  0  0
  9 10  1  0  0  0  0
 10 11  2  0  0  0  0
 10 12  1  0  0  0  0
 12 13  1  0  0  0  0
 12 16  1  0  0  0  0
M  END
>  <CHROM.0>
-165.48528185,45.92975708,-56.42209249,-50.12569206,-56.67604365,-174.85830937
-53.34984873,-52.28188677,-166.37733105,162.33182209

>  <CHROM.1>
-179.98380936,-139.03456339,20.31775600,-17.52682208,4.79706976,2.77533207
0.79930230,1.71137913

>  <Name>
P136208459

>  <RI>
0

>  <Rbt.Current_Directory>
/home/fstefaniak/projects/zuza/docking/adenine/1Y26

>  <Rbt.Executable>
rbdock ($Id: //depot/dev/client3/rdock/2013.1/src/exe/rbdock.cxx#4 $)

>  <Rbt.Library>
libRbt.so (2013.1, Build901 2013/11/27)

>  <Rbt.Parameter_File>
/home/fstefaniak/progs/rDock//data/scripts/dock_solv.prm

>  <Rbt.Receptor>
1y26.prm

>  <SCORE>
-55.4012

>  <SCORE.INTER>
-36.8365

>  <SCORE.INTER.CONST>
1

>  <SCORE.INTER.POLAR>
-4.33184

>  <SCORE.INTER.ROT>
2

>  <SCORE.INTER.SOLV>
17.3477

>  <SCORE.INTER.VDW>
-20.8341

>  <SCORE.INTER.norm>
-3.06971

>  <SCORE.INTRA>
1.04682

>  <SCORE.INTRA.DIHEDRAL>
-0.374619

>  <SCORE.INTRA.DIHEDRAL.0>
2.18805

>  <SCORE.INTRA.POLAR>
0.204173

>  <SCORE.INTRA.POLAR.0>
-0.204173

>  <SCORE.INTRA.REPUL>
0

>  <SCORE.INTRA.REPUL.0>
0

>  <SCORE.INTRA.SOLV>
0.287075

>  <SCORE.INTRA.SOLV.lig_0>
-26.9986

>  <SCORE.INTRA.VDW>
0.396401

>  <SCORE.INTRA.VDW.0>
-0.430334

>  <SCORE.INTRA.norm>
0.0872347

>  <SCORE.RESTR>
0

>  <SCORE.RESTR.CAVITY>
0

>  <SCORE.RESTR.norm>
0

>  <SCORE.SYSTEM>
-19.6115

>  <SCORE.SYSTEM.CONST>
0

>  <SCORE.SYSTEM.DIHEDRAL>
7.26523

>  <SCORE.SYSTEM.POLAR>
-3.33704

>  <SCORE.SYSTEM.SOLV>
0.57064

>  <SCORE.SYSTEM.VDW>
-4.56284

>  <SCORE.SYSTEM.norm>
-1.63429

>  <SCORE.heavy>
12

>  <SCORE.norm>
-4.61677

$$$$
P136208459
 OpenBabel12072022103D
libRbt.so/2013.1/901 2013/11/27
 16 16  0  0  0  0  0  0  0  0999 V2000
   19.2484  -18.9047    2.2678 H   0  0  0  0  0  0  0  0  0  0  0  0
   18.6722  -19.3030    3.0332 N   0  0  0  0  0  0  0  0  0  0  0  0
   19.1287  -18.9104    4.1685 C   0  0  0  0  0  0  0  0  0  0  0  0
   20.3108  -17.9890    4.4377 C   0  0  2  0  0  0  0  0  0  0  0  0
   20.3136  -18.0795    5.8842 N   0  0  0  0  0  0  0  0  0  0  0  0
   19.2945  -18.8693    6.3713 C   0  0  0  0  0  0  0  0  0  0  0  0
   19.1197  -19.1316    7.5472 O   0  0  0  0  0  0  0  0  0  0  0  0
   18.5621  -19.3115    5.3233 N   0  0  0  0  0  0  0  0  0  0  0  0
   20.0347  -16.5693    3.9696 C   0  0  0  0  0  0  0  0  0  0  0  0
   21.2068  -15.6647    4.2743 C   0  0  0  0  0  0  0  0  0  0  0  0
   21.0820  -14.4598    4.4675 O   0  0  0  0  0  0  0  0  0  0  0  0
   22.4079  -16.3327    4.3304 N   0  0  0  0  0  0  0  0  0  0  0  0
   23.6500  -15.6683    4.6444 C   0  0  0  0  0  0  0  0  0  0  0  0
   21.0332  -17.7330    6.5051 H   0  0  0  0  0  0  0  0  0  0  0  0
   17.7931  -19.9556    5.3922 H   0  0  0  0  0  0  0  0  0  0  0  0
   22.4334  -17.3299    4.1581 H   0  0  0  0  0  0  0  0  0  0  0  0
  1  2  1  0  0  0  0
  2  3  2  0  0  0  0
  3  4  1  0  0  0  0
  3  8  1  0  0  0  0
  4  5  1  0  0  0  0
  4  9  1  1  0  0  0
  5  6  1  0  0  0  0
  5 14  1  0  0  0  0
  6  7  2  0  0  0  0
  6  8  1  0  0  0  0
  8 15  1  0  0  0  0
  9 10  1  0  0  0  0
 10 11  2  0  0  0  0
 10 12  1  0  0  0  0
 12 13  1  0  0  0  0
 12 16  1  0  0  0  0
M  END
>  <CHROM.0>
-165.25357486,-61.42389760,58.62206910,-51.57537679,-174.52345678,-175.74862849
74.74105897,63.79752934,-167.36476921,160.81632128

>  <CHROM.1>
178.70575326,-152.11922448,20.34133041,-17.50543207,4.88938710,2.72234808
0.78482604,1.84213939

>  <Name>
P136208459

>  <RI>
0

>  <Rbt.Current_Directory>
/home/fstefaniak/projects/zuza/docking/adenine/1Y26

>  <Rbt.Executable>
rbdock ($Id: //depot/dev/client3/rdock/2013.1/src/exe/rbdock.cxx#4 $)

>  <Rbt.Library>
libRbt.so (2013.1, Build901 2013/11/27)

>  <Rbt.Parameter_File>
/home/fstefaniak/progs/rDock//data/scripts/dock_solv.prm

>  <Rbt.Receptor>
1y26.prm

>  <SCORE>
-54.8843

>  <SCORE.INTER>
-39.2132

>  <SCORE.INTER.CONST>
1

>  <SCORE.INTER.POLAR>
-4.82884

>  <SCORE.INTER.ROT>
2

>  <SCORE.INTER.SOLV>
17.466

>  <SCORE.INTER.VDW>
-20.8013

>  <SCORE.INTER.norm>
-3.26776

>  <SCORE.INTRA>
2.66237

>  <SCORE.INTRA.DIHEDRAL>
0.179528

>  <SCORE.INTRA.DIHEDRAL.0>
2.18805

>  <SCORE.INTRA.POLAR>
0.204173

>  <SCORE.INTRA.POLAR.0>
-0.204173

>  <SCORE.INTRA.REPUL>
0

>  <SCORE.INTRA.REPUL.0>
0

>  <SCORE.INTRA.SOLV>
0.513931

>  <SCORE.INTRA.SOLV.lig_0>
-26.9986

>  <SCORE.INTRA.VDW>
1.62146

>  <SCORE.INTRA.VDW.0>
-0.430334

>  <SCORE.INTRA.norm>
0.221864

>  <SCORE.RESTR>
0

>  <SCORE.RESTR.CAVITY>
0

>  <SCORE.RESTR.norm>
0

>  <SCORE.SYSTEM>
-18.3335

>  <SCORE.SYSTEM.CONST>
0

>  <SCORE.SYSTEM.DIHEDRAL>
6.96458

>  <SCORE.SYSTEM.POLAR>
-3.46489

>  <SCORE.SYSTEM.SOLV>
-0.106943

>  <SCORE.SYSTEM.VDW>
-2.95858

>  <SCORE.SYSTEM.norm>
-1.52779

>  <SCORE.heavy>
12

>  <SCORE.norm>
-4.57369

$$$$
P136208555
 OpenBabel12072022103D
libRbt.so/2013.1/901 2013/11/27
 15 16  0  0  0  0  0  0  0  0999 V2000
   19.7883  -18.0325    1.3069 H   0  0  0  0  0  0  0  0  0  0  0  0
   20.3882  -17.3442    1.7709 N   0  0  0  0  0  0  0  0  0  0  0  0
   20.3908  -17.5440    3.0402 C   0  0  0  0  0  0  0  0  0  0  0  0
   21.1634  -16.7342    4.0752 C   0  0  1  0  0  0  0  0  0  0  0  0
   22.6750  -16.8580    3.8854 C   0  0  0  0  0  0  0  0  0  0  0  0
   23.4238  -15.9229    4.8335 C   0  0  0  0  0  0  0  0  0  0  0  0
   22.8589  -14.5097    4.7625 C   0  0  0  0  0  0  0  0  0  0  0  0
   21.4591  -14.5115    5.0465 O   0  0  0  0  0  0  0  0  0  0  0  0
   20.7159  -15.2709    4.0803 C   0  0  0  0  0  0  0  0  0  0  0  0
   20.7203  -17.4478    5.2613 N   0  0  0  0  0  0  0  0  0  0  0  0
   19.8454  -18.4669    4.9766 C   0  0  0  0  0  0  0  0  0  0  0  0
   19.2960  -19.1784    5.7973 O   0  0  0  0  0  0  0  0  0  0  0  0
   19.6842  -18.5312    3.6316 N   0  0  0  0  0  0  0  0  0  0  0  0
   20.9179  -17.1661    6.2131 H   0  0  0  0  0  0  0  0  0  0  0  0
   19.0730  -19.2021    3.1999 H   0  0  0  0  0  0  0  0  0  0  0  0
  1  2  1  0  0  0  0
  2  3  2  0  0  0  0
  3 13  1  0  0  0  0
  4  3  1  0  0  0  0
  4  5  1  6  0  0  0
  4  9  1  0  0  0  0
  4 10  1  0  0  0  0
  5  6  1  0  0  0  0
  6  7  1  0  0  0  0
  7  8  1  0  0  0  0
  8  9  1  0  0  0  0
 10 11  1  0  0  0  0
 10 14  1  0  0  0  0
 11 12  2  0  0  0  0
 11 13  1  0  0  0  0
 13 15  1  0  0  0  0
M  END
>  <CHROM.0>
-53.60293355,-59.85048764,-55.67450417,-53.15269002,-57.90428707,-62.07296968
-63.16544434,-175.01383713,-166.74629467,160.57314941

>  <CHROM.1>
21.03710924,-16.85626964,4.28670848,-3.13904330,0.90297852,1.65764928

>  <Name>
P136208555

>  <RI>
0

>  <Rbt.Current_Directory>
/home/fstefaniak/projects/zuza/docking/adenine/1Y26

>  <Rbt.Executable>
rbdock ($Id: //depot/dev/client3/rdock/2013.1/src/exe/rbdock.cxx#4 $)

>  <Rbt.Library>
libRbt.so (2013.1, Build901 2013/11/27)

>  <Rbt.Parameter_File>
/home/fstefaniak/progs/rDock//data/scripts/dock_solv.prm

>  <Rbt.Receptor>
1y26.prm

>  <SCORE>
-45.29

>  <SCORE.INTER>
-22.5511

>  <SCORE.INTER.CONST>
1

>  <SCORE.INTER.POLAR>
-2.11824

>  <SCORE.INTER.ROT>
0

>  <SCORE.INTER.SOLV>
13.0686

>  <SCORE.INTER.VDW>
-15.9294

>  <SCORE.INTER.norm>
-1.87926

>  <SCORE.INTRA>
0

>  <SCORE.INTRA.DIHEDRAL>
0

>  <SCORE.INTRA.DIHEDRAL.0>
0

>  <SCORE.INTRA.POLAR>
0

>  <SCORE.INTRA.POLAR.0>
0

>  <SCORE.INTRA.REPUL>
0

>  <SCORE.INTRA.REPUL.0>
0

>  <SCORE.INTRA.SOLV>
0

>  <SCORE.INTRA.SOLV.lig_0>
-17.9194

>  <SCORE.INTRA.VDW>
0

>  <SCORE.INTRA.VDW.0>
0

>  <SCORE.INTRA.norm>
0

>  <SCORE.RESTR>
0

>  <SCORE.RESTR.CAVITY>
0

>  <SCORE.RESTR.norm>
0

>  <SCORE.SYSTEM>
-22.7389

>  <SCORE.SYSTEM.CONST>
0

>  <SCORE.SYSTEM.DIHEDRAL>
5.13847

>  <SCORE.SYSTEM.POLAR>
-3.39276

>  <SCORE.SYSTEM.SOLV>
0.432217

>  <SCORE.SYSTEM.VDW>
-5.70698

>  <SCORE.SYSTEM.norm>
-1.89491

>  <SCORE.heavy>
12

>  <SCORE.norm>
-3.77417

$$$$
P136208555
 OpenBabel12072022103D
libRbt.so/2013.1/901 2013/11/27
 15 16  0  0  0  0  0  0  0  0999 V2000
   19.7774  -18.0657    1.3198 H   0  0  0  0  0  0  0  0  0  0  0  0
   20.3788  -17.3733    1.7756 N   0  0  0  0  0  0  0  0  0  0  0  0
   20.3811  -17.5582    3.0472 C   0  0  0  0  0  0  0  0  0  0  0  0
   21.1555  -16.7379    4.0726 C   0  0  1  0  0  0  0  0  0  0  0  0
   22.6668  -16.8671    3.8842 C   0  0  0  0  0  0  0  0  0  0  0  0
   23.4177  -15.9225    4.8211 C   0  0  0  0  0  0  0  0  0  0  0  0
   22.8557  -14.5090    4.7335 C   0  0  0  0  0  0  0  0  0  0  0  0
   21.4560  -14.5045    5.0176 O   0  0  0  0  0  0  0  0  0  0  0  0
   20.7111  -15.2737    4.0605 C   0  0  0  0  0  0  0  0  0  0  0  0
   20.7110  -17.4366    5.2670 N   0  0  0  0  0  0  0  0  0  0  0  0
   19.8339  -18.4571    4.9943 C   0  0  0  0  0  0  0  0  0  0  0  0
   19.2831  -19.1577    5.8234 O   0  0  0  0  0  0  0  0  0  0  0  0
   19.6724  -18.5369    3.6501 N   0  0  0  0  0  0  0  0  0  0  0  0
   20.9093  -17.1441    6.2153 H   0  0  0  0  0  0  0  0  0  0  0  0
   19.0598  -19.2115    3.2264 H   0  0  0  0  0  0  0  0  0  0  0  0
  1  2  1  0  0  0  0
  2  3  2  0  0  0  0
  3 13  1  0  0  0  0
  4  3  1  0  0  0  0
  4  5  1  6  0  0  0
  4  9  1  0  0  0  0
  4 10  1  0  0  0  0
  5  6  1  0  0  0  0
  6  7  1  0  0  0  0
  7  8  1  0  0  0  0
  8  9  1  0  0  0  0
 10 11  1  0  0  0  0
 10 14  1  0  0  0  0
 11 12  2  0  0  0  0
 11 13  1  0  0  0  0
 13 15  1  0  0  0  0
M  END
>  <CHROM.0>
-48.61230504,-58.02182010,-58.47731983,-52.22022064,-57.42225387,-60.22773632
-61.04356947,-179.29888715,-166.13081229,159.58844820

>  <CHROM.1>
21.02895785,-16.85718486,4.28546647,-3.13888789,0.90086896,1.64576981

>  <Name>
P136208555

>  <RI>
0

>  <Rbt.Current_Directory>
/home/fstefaniak/projects/zuza/docking/adenine/1Y26

>  <Rbt.Executable>
rbdock ($Id: //depot/dev/client3/rdock/2013.1/src/exe/rbdock.cxx#4 $)

>  <Rbt.Library>
libRbt.so (2013.1, Build901 2013/11/27)

>  <Rbt.Parameter_File>
/home/fstefaniak/progs/rDock//data/scripts/dock_solv.prm

>  <Rbt.Receptor>
1y26.prm

>  <SCORE>
-45.2778

>  <SCORE.INTER>
-22.624

>  <SCORE.INTER.CONST>
1

>  <SCORE.INTER.POLAR>
-2.1218

>  <SCORE.INTER.ROT>
0

>  <SCORE.INTER.SOLV>
13.021

>  <SCORE.INTER.VDW>
-15.9503

>  <SCORE.INTER.norm>
-1.88533

>  <SCORE.INTRA>
0

>  <SCORE.INTRA.DIHEDRAL>
0

>  <SCORE.INTRA.DIHEDRAL.0>
0

>  <SCORE.INTRA.POLAR>
0

>  <SCORE.INTRA.POLAR.0>
0

>  <SCORE.INTRA.REPUL>
0

>  <SCORE.INTRA.REPUL.0>
0

>  <SCORE.INTRA.SOLV>
0

>  <SCORE.INTRA.SOLV.lig_0>
-17.9194

>  <SCORE.INTRA.VDW>
0

>  <SCORE.INTRA.VDW.0>
0

>  <SCORE.INTRA.norm>
0

>  <SCORE.RESTR>
0

>  <SCORE.RESTR.CAVITY>
0

>  <SCORE.RESTR.norm>
0

>  <SCORE.SYSTEM>
-22.6538

>  <SCORE.SYSTEM.CONST>
0

>  <SCORE.SYSTEM.DIHEDRAL>
5.61023

>  <SCORE.SYSTEM.POLAR>
-3.47717

>  <SCORE.SYSTEM.SOLV>
0.446357

>  <SCORE.SYSTEM.VDW>
-5.53081

>  <SCORE.SYSTEM.norm>
-1.88781

>  <SCORE.heavy>
12

>  <SCORE.norm>
-3.77315

$$$$
P136208555
 OpenBabel12072022103D
libRbt.so/2013.1/901 2013/11/27
 15 16  0  0  0  0  0  0  0  0999 V2000
   19.7684  -18.0592    1.3209 H   0  0  0  0  0  0  0  0  0  0  0  0
   20.3693  -17.3677    1.7787 N   0  0  0  0  0  0  0  0  0  0  0  0
   20.3736  -17.5577    3.0495 C   0  0  0  0  0  0  0  0  0  0  0  0
   21.1481  -16.7404    4.0772 C   0  0  1  0  0  0  0  0  0  0  0  0
   22.6594  -16.8666    3.8863 C   0  0  0  0  0  0  0  0  0  0  0  0
   23.4101  -15.9246    4.8261 C   0  0  0  0  0  0  0  0  0  0  0  0
   22.8458  -14.5117    4.7450 C   0  0  0  0  0  0  0  0  0  0  0  0
   21.4465  -14.5105    5.0309 O   0  0  0  0  0  0  0  0  0  0  0  0
   20.7015  -15.2769    4.0717 C   0  0  0  0  0  0  0  0  0  0  0  0
   20.7063  -17.4446    5.2694 N   0  0  0  0  0  0  0  0  0  0  0  0
   19.8304  -18.4654    4.9937 C   0  0  0  0  0  0  0  0  0  0  0  0
   19.2817  -19.1702    5.8206 O   0  0  0  0  0  0  0  0  0  0  0  0
   19.6673  -18.5399    3.6494 N   0  0  0  0  0  0  0  0  0  0  0  0
   20.9054  -17.1557    6.2186 H   0  0  0  0  0  0  0  0  0  0  0  0
   19.0551  -19.2138    3.2237 H   0  0  0  0  0  0  0  0  0  0  0  0
  1  2  1  0  0  0  0
  2  3  2  0  0  0  0
  3 13  1  0  0  0  0
  4  3  1  0  0  0  0
  4  5  1  6  0  0  0
  4  9  1  0  0  0  0
  4 10  1  0  0  0  0
  5  6  1  0  0  0  0
  6  7  1  0  0  0  0
  7  8  1  0  0  0  0
  8  9  1  0  0  0  0
 10 11  1  0  0  0  0
 10 14  1  0  0  0  0
 11 12  2  0  0  0  0
 11 13  1  0  0  0  0
 13 15  1  0  0  0  0
M  END
>  <CHROM.0>
-49.57007914,-57.87084287,-53.54449086,-52.64796790,-57.41518986,-59.38557682
-62.72429363,-177.04556233,-167.38554246,159.83022332

>  <CHROM.1>
21.02207609,-16.86079171,4.28978279,-3.14120955,0.90227574,1.65166304

>  <Name>
P136208555

>  <RI>
0

>  <Rbt.Current_Directory>
/home/fstefaniak/projects/zuza/docking/adenine/1Y26

>  <Rbt.Executable>
rbdock ($Id: //depot/dev/client3/rdock/2013.1/src/exe/rbdock.cxx#4 $)

>  <Rbt.Library>
libRbt.so (2013.1, Build901 2013/11/27)

>  <Rbt.Parameter_File>
/home/fstefaniak/progs/rDock//data/scripts/dock_solv.prm

>  <Rbt.Receptor>
1y26.prm

>  <SCORE>
-45.2118

>  <SCORE.INTER>
-22.5768

>  <SCORE.INTER.CONST>
1

>  <SCORE.INTER.POLAR>
-2.1119

>  <SCORE.INTER.ROT>
0

>  <SCORE.INTER.SOLV>
13.045

>  <SCORE.INTER.VDW>
-15.9598

>  <SCORE.INTER.norm>
-1.8814

>  <SCORE.INTRA>
0

>  <SCORE.INTRA.DIHEDRAL>
0

>  <SCORE.INTRA.DIHEDRAL.0>
0

>  <SCORE.INTRA.POLAR>
0

>  <SCORE.INTRA.POLAR.0>
0

>  <SCORE.INTRA.REPUL>
0

>  <SCORE.INTRA.REPUL.0>
0

>  <SCORE.INTRA.SOLV>
0

>  <SCORE.INTRA.SOLV.lig_0>
-17.9194

>  <SCORE.INTRA.VDW>
0

>  <SCORE.INTRA.VDW.0>
0

>  <SCORE.INTRA.norm>
0

>  <SCORE.RESTR>
0

>  <SCORE.RESTR.CAVITY>
0

>  <SCORE.RESTR.norm>
0

>  <SCORE.SYSTEM>
-22.635

>  <SCORE.SYSTEM.CONST>
0

>  <SCORE.SYSTEM.DIHEDRAL>
5.56346

>  <SCORE.SYSTEM.POLAR>
-3.47402

>  <SCORE.SYSTEM.SOLV>
0.450447

>  <SCORE.SYSTEM.VDW>
-5.51457

>  <SCORE.SYSTEM.norm>
-1.88625

>  <SCORE.heavy>
12

>  <SCORE.norm>
-3.76765

$$$$
P136260037
 OpenBabel12072022103D
libRbt.so/2013.1/901 2013/11/27
 15 15  0  0  0  0  0  0  0  0999 V2000
   22.2055  -13.4692    5.9851 C   0  0  0  0  0  0  0  0  0  0  0  0
   23.0450  -13.6219    4.7129 C   0  0  1  0  0  0  0  0  0  0  0  0
   24.3876  -14.3279    5.0022 C   0  0  0  0  0  0  0  0  0  0  0  0
   24.2328  -15.8459    5.2249 C   0  0  1  0  0  0  0  0  0  0  0  0
   23.4379  -16.4672    4.0598 C   0  0  0  0  0  0  0  0  0  0  0  0
   22.1537  -15.7810    3.9242 N   0  0  0  0  0  0  0  0  0  0  0  0
   22.2617  -14.3597    3.6119 C   0  0  0  0  0  0  0  0  0  0  0  0
   20.9275  -16.2992    4.2595 C   0  0  0  0  0  0  0  0  0  0  0  0
   19.8632  -15.7008    4.1443 O   0  0  0  0  0  0  0  0  0  0  0  0
   20.9211  -17.5592    4.7576 N   0  0  0  0  0  0  0  0  0  0  0  0
   25.5454  -16.4794    5.3790 N   0  0  0  0  0  0  0  0  0  0  0  0
   21.1646  -17.6707    5.7299 H   0  0  0  0  0  0  0  0  0  0  0  0
   20.0918  -18.0721    4.4866 H   0  0  0  0  0  0  0  0  0  0  0  0
   25.9434  -16.2192    6.2817 H   0  0  0  0  0  0  0  0  0  0  0  0
   26.1919  -16.1178    4.6774 H   0  0  0  0  0  0  0  0  0  0  0  0
  2  1  1  1  0  0  0
  2  3  1  0  0  0  0
  2  7  1  0  0  0  0
  3  4  1  0  0  0  0
  4  5  1  0  0  0  0
  4 11  1  6  0  0  0
  5  6  1  0  0  0  0
  6  7  1  0  0  0  0
  6  8  1  0  0  0  0
  8  9  2  0  0  0  0
  8 10  1  0  0  0  0
 10 12  1  0  0  0  0
 10 13  1  0  0  0  0
 11 14  1  0  0  0  0
 11 15  1  0  0  0  0
M  END
>  <CHROM.0>
-51.22223236,-60.80699431,-52.83340587,-49.26864118,-58.41416237,-52.81364562
-60.17684961,-176.46217241,-167.73812851,160.44013948

>  <CHROM.1>
71.58981847,79.77928825,22.62434900,-15.47512569,4.66172879,0.24068236,-0.18684150
0.10517317

>  <Name>
P136260037

>  <RI>
0

>  <Rbt.Current_Directory>
/home/fstefaniak/projects/zuza/docking/adenine/1Y26

>  <Rbt.Executable>
rbdock ($Id: //depot/dev/client3/rdock/2013.1/src/exe/rbdock.cxx#4 $)

>  <Rbt.Library>
libRbt.so (2013.1, Build901 2013/11/27)

>  <Rbt.Parameter_File>
/home/fstefaniak/progs/rDock//data/scripts/dock_solv.prm

>  <Rbt.Receptor>
1y26.prm

>  <SCORE>
-45.176

>  <SCORE.INTER>
-22.6026

>  <SCORE.INTER.CONST>
1

>  <SCORE.INTER.POLAR>
-2.73304

>  <SCORE.INTER.ROT>
2

>  <SCORE.INTER.SOLV>
13.8081

>  <SCORE.INTER.VDW>
-15.4943

>  <SCORE.INTER.norm>
-2.05478

>  <SCORE.INTRA>
-0.0708664

>  <SCORE.INTRA.DIHEDRAL>
0.300187

>  <SCORE.INTRA.DIHEDRAL.0>
0.492214

>  <SCORE.INTRA.POLAR>
0

>  <SCORE.INTRA.POLAR.0>
0

>  <SCORE.INTRA.REPUL>
0

>  <SCORE.INTRA.REPUL.0>
0

>  <SCORE.INTRA.SOLV>
-0.0192809

>  <SCORE.INTRA.SOLV.lig_0>
-13.7403

>  <SCORE.INTRA.VDW>
-0.211319

>  <SCORE.INTRA.VDW.0>
-0.0272159

>  <SCORE.INTRA.norm>
-0.0064424

>  <SCORE.RESTR>
0

>  <SCORE.RESTR.CAVITY>
0

>  <SCORE.RESTR.norm>
0

>  <SCORE.SYSTEM>
-22.5025

>  <SCORE.SYSTEM.CONST>
0

>  <SCORE.SYSTEM.DIHEDRAL>
5.77369

>  <SCORE.SYSTEM.POLAR>
-3.53551

>  <SCORE.SYSTEM.SOLV>
0.469097

>  <SCORE.SYSTEM.VDW>
-5.29758

>  <SCORE.SYSTEM.norm>
-2.04568

>  <SCORE.heavy>
11

>  <SCORE.norm>
-4.10691

$$$$
P136260037
 OpenBabel12072022103D
libRbt.so/2013.1/901 2013/11/27
 15 15  0  0  0  0  0  0  0  0999 V2000
   22.1751  -13.6086    6.0494 C   0  0  0  0  0  0  0  0  0  0  0  0
   23.0028  -13.7320    4.7663 C   0  0  1  0  0  0  0  0  0  0  0  0
   24.3441  -14.4521    5.0252 C   0  0  0  0  0  0  0  0  0  0  0  0
   24.1832  -15.9747    5.2092 C   0  0  1  0  0  0  0  0  0  0  0  0
   23.3750  -16.5611    4.0353 C   0  0  0  0  0  0  0  0  0  0  0  0
   22.0933  -15.8650    3.9290 N   0  0  0  0  0  0  0  0  0  0  0  0
   22.2062  -14.4366    3.6532 C   0  0  0  0  0  0  0  0  0  0  0  0
   20.8673  -16.3857    4.2612 C   0  0  0  0  0  0  0  0  0  0  0  0
   19.8053  -15.7791    4.1711 O   0  0  0  0  0  0  0  0  0  0  0  0
   20.8586  -17.6583    4.7261 N   0  0  0  0  0  0  0  0  0  0  0  0
   25.4938  -16.6186    5.3352 N   0  0  0  0  0  0  0  0  0  0  0  0
   20.0047  -17.9875    5.1498 H   0  0  0  0  0  0  0  0  0  0  0  0
   21.2584  -18.3094    4.0623 H   0  0  0  0  0  0  0  0  0  0  0  0
   25.9126  -16.3625    6.2296 H   0  0  0  0  0  0  0  0  0  0  0  0
   26.1282  -16.2613    4.6205 H   0  0  0  0  0  0  0  0  0  0  0  0
  2  1  1  1  0  0  0
  2  3  1  0  0  0  0
  2  7  1  0  0  0  0
  3  4  1  0  0  0  0
  4  5  1  0  0  0  0
  4 11  1  6  0  0  0
  5  6  1  0  0  0  0
  6  7  1  0  0  0  0
  6  8  1  0  0  0  0
  8  9  2  0  0  0  0
  8 10  1  0  0  0  0
 10 12  1  0  0  0  0
 10 13  1  0  0  0  0
 11 14  1  0  0  0  0
 11 15  1  0  0  0  0
M  END
>  <CHROM.0>
62.32490006,163.86622108,-54.91451539,60.33855945,-56.48402251,-59.34945435
-57.63009665,-53.60752018,-167.88526304,160.76694556

>  <CHROM.1>
69.97557680,167.71723128,22.57279599,-15.58321542,4.66398243,0.23993691,-0.17824176
0.13993074

>  <Name>
P136260037

>  <RI>
0

>  <Rbt.Current_Directory>
/home/fstefaniak/projects/zuza/docking/adenine/1Y26

>  <Rbt.Executable>
rbdock ($Id: //depot/dev/client3/rdock/2013.1/src/exe/rbdock.cxx#4 $)

>  <Rbt.Library>
libRbt.so (2013.1, Build901 2013/11/27)

>  <Rbt.Parameter_File>
/home/fstefaniak/progs/rDock//data/scripts/dock_solv.prm

>  <Rbt.Receptor>
1y26.prm

>  <SCORE>
-42.0885

>  <SCORE.INTER>
-24.309

>  <SCORE.INTER.CONST>
1

>  <SCORE.INTER.POLAR>
-2.89167

>  <SCORE.INTER.ROT>
2

>  <SCORE.INTER.SOLV>
13.8252

>  <SCORE.INTER.VDW>
-16.1089

>  <SCORE.INTER.norm>
-2.20991

>  <SCORE.INTRA>
0.0131986

>  <SCORE.INTRA.DIHEDRAL>
0.231895

>  <SCORE.INTRA.DIHEDRAL.0>
0.492214

>  <SCORE.INTRA.POLAR>
0

>  <SCORE.INTRA.POLAR.0>
0

>  <SCORE.INTRA.REPUL>
0

>  <SCORE.INTRA.REPUL.0>
0

>  <SCORE.INTRA.SOLV>
-0.0221248

>  <SCORE.INTRA.SOLV.lig_0>
-13.7403

>  <SCORE.INTRA.VDW>
-0.0916866

>  <SCORE.INTRA.VDW.0>
-0.0272159

>  <SCORE.INTRA.norm>
0.00119987

>  <SCORE.RESTR>
0

>  <SCORE.RESTR.CAVITY>
0

>  <SCORE.RESTR.norm>
0

>  <SCORE.SYSTEM>
-17.7927

>  <SCORE.SYSTEM.CONST>
0

>  <SCORE.SYSTEM.DIHEDRAL>
5.88083

>  <SCORE.SYSTEM.POLAR>
-2.6762

>  <SCORE.SYSTEM.SOLV>
0.550654

>  <SCORE.SYSTEM.VDW>
-5.08495

>  <SCORE.SYSTEM.norm>
-1.61752

>  <SCORE.heavy>
11

>  <SCORE.norm>
-3.82623

$$$$
P136260037
 OpenBabel12072022103D
libRbt.so/2013.1/901 2013/11/27
 15 15  0  0  0  0  0  0  0  0999 V2000
   22.3132  -13.6716    6.0527 C   0  0  0  0  0  0  0  0  0  0  0  0
   23.1149  -13.8033    4.7540 C   0  0  1  0  0  0  0  0  0  0  0  0
   24.4607  -14.5230    4.9903 C   0  0  0  0  0  0  0  0  0  0  0  0
   24.3025  -16.0443    5.1866 C   0  0  1  0  0  0  0  0  0  0  0  0
   23.4705  -16.6370    4.0326 C   0  0  0  0  0  0  0  0  0  0  0  0
   22.1875  -15.9406    3.9479 N   0  0  0  0  0  0  0  0  0  0  0  0
   22.2957  -14.5140    3.6613 C   0  0  0  0  0  0  0  0  0  0  0  0
   20.9680  -16.4583    4.3078 C   0  0  0  0  0  0  0  0  0  0  0  0
   19.9048  -15.8515    4.2353 O   0  0  0  0  0  0  0  0  0  0  0  0
   20.9678  -17.7281    4.7804 N   0  0  0  0  0  0  0  0  0  0  0  0
   25.6149  -16.6884    5.2901 N   0  0  0  0  0  0  0  0  0  0  0  0
   20.1632  -18.0205    5.3134 H   0  0  0  0  0  0  0  0  0  0  0  0
   21.2516  -18.3971    4.0760 H   0  0  0  0  0  0  0  0  0  0  0  0
   25.4902  -17.6827    5.4822 H   0  0  0  0  0  0  0  0  0  0  0  0
   26.1251  -16.3142    6.0904 H   0  0  0  0  0  0  0  0  0  0  0  0
  2  1  1  1  0  0  0
  2  3  1  0  0  0  0
  2  7  1  0  0  0  0
  3  4  1  0  0  0  0
  4  5  1  0  0  0  0
  4 11  1  6  0  0  0
  5  6  1  0  0  0  0
  6  7  1  0  0  0  0
  6  8  1  0  0  0  0
  8  9  2  0  0  0  0
  8 10  1  0  0  0  0
 10 12  1  0  0  0  0
 10 13  1  0  0  0  0
 11 14  1  0  0  0  0
 11 15  1  0  0  0  0
M  END
>  <CHROM.0>
-50.14021297,167.01873697,-57.96079586,-51.55004148,-54.61957000,-63.89103497
-60.54167155,-177.82320340,-167.00294525,-63.52332155

>  <CHROM.1>
176.21813233,161.03118498,22.67704363,-15.66259934,4.67715138,0.22979435
-0.16830093,0.12360105

>  <Name>
P136260037

>  <RI>
0

>  <Rbt.Current_Directory>
/home/fstefaniak/projects/zuza/docking/adenine/1Y26

>  <Rbt.Executable>
rbdock ($Id: //depot/dev/client3/rdock/2013.1/src/exe/rbdock.cxx#4 $)

>  <Rbt.Library>
libRbt.so (2013.1, Build901 2013/11/27)

>  <Rbt.Parameter_File>
/home/fstefaniak/progs/rDock//data/scripts/dock_solv.prm

>  <Rbt.Receptor>
1y26.prm

>  <SCORE>
-41.0516

>  <SCORE.INTER>
-21.4786

>  <SCORE.INTER.CONST>
1

>  <SCORE.INTER.POLAR>
-2.342

>  <SCORE.INTER.ROT>
2

>  <SCORE.INTER.SOLV>
13.8737

>  <SCORE.INTER.VDW>
-16.0703

>  <SCORE.INTER.norm>
-1.9526

>  <SCORE.INTRA>
-0.259897

>  <SCORE.INTRA.DIHEDRAL>
0.00402859

>  <SCORE.INTRA.DIHEDRAL.0>
0.492214

>  <SCORE.INTRA.POLAR>
0

>  <SCORE.INTRA.POLAR.0>
0

>  <SCORE.INTRA.REPUL>
0

>  <SCORE.INTRA.REPUL.0>
0

>  <SCORE.INTRA.SOLV>
-0.034165

>  <SCORE.INTRA.SOLV.lig_0>
-13.7403

>  <SCORE.INTRA.VDW>
-0.244829

>  <SCORE.INTRA.VDW.0>
-0.0272159

>  <SCORE.INTRA.norm>
-0.023627

>  <SCORE.RESTR>
0

>  <SCORE.RESTR.CAVITY>
0

>  <SCORE.RESTR.norm>
0

>  <SCORE.SYSTEM>
-19.3131

>  <SCORE.SYSTEM.CONST>
0

>  <SCORE.SYSTEM.DIHEDRAL>
4.72182

>  <SCORE.SYSTEM.POLAR>
-2.59457

>  <SCORE.SYSTEM.SOLV>
0.472568

>  <SCORE.SYSTEM.VDW>
-5.95832

>  <SCORE.SYSTEM.norm>
-1.75574

>  <SCORE.heavy>
11

>  <SCORE.norm>
-3.73197

$$$$
P136260061
 OpenBabel12072022103D
libRbt.so/2013.1/901 2013/11/27
 14 14  0  0  0  0  0  0  0  0999 V2000
   22.2582  -13.4281    5.9152 C   0  0  0  0  0  0  0  0  0  0  0  0
   23.0568  -13.6741    4.6320 C   0  0  1  0  0  0  0  0  0  0  0  0
   24.3887  -14.3950    4.9199 C   0  0  0  0  0  0  0  0  0  0  0  0
   24.2000  -15.8850    5.2645 C   0  0  1  0  0  0  0  0  0  0  0  0
   23.3424  -16.5794    4.1860 C   0  0  0  0  0  0  0  0  0  0  0  0
   22.0908  -15.8517    3.9846 N   0  0  0  0  0  0  0  0  0  0  0  0
   22.2303  -14.4552    3.5979 C   0  0  0  0  0  0  0  0  0  0  0  0
   20.8454  -16.3573    4.3075 C   0  0  0  0  0  0  0  0  0  0  0  0
   19.8041  -15.7156    4.2262 O   0  0  0  0  0  0  0  0  0  0  0  0
   20.8987  -17.6477    4.7345 O   0  0  0  0  0  0  0  0  0  0  0  0
   19.6714  -18.3636    4.5994 C   0  0  0  0  0  0  0  0  0  0  0  0
   25.5065  -16.5352    5.4146 N   0  0  0  0  0  0  0  0  0  0  0  0
   25.9079  -16.2850    6.3184 H   0  0  0  0  0  0  0  0  0  0  0  0
   26.1560  -16.1823    4.7123 H   0  0  0  0  0  0  0  0  0  0  0  0
  2  1  1  1  0  0  0
  2  3  1  0  0  0  0
  2  7  1  0  0  0  0
  3  4  1  0  0  0  0
  4  5  1  0  0  0  0
  4 12  1  6  0  0  0
  5  6  1  0  0  0  0
  6  7  1  0  0  0  0
  6  8  1  0  0  0  0
  8  9  2  0  0  0  0
  8 10  1  0  0  0  0
 10 11  1  0  0  0  0
 12 13  1  0  0  0  0
 12 14  1  0  0  0  0
M  END
>  <CHROM.0>
-45.00611874,161.80921167,-52.17844610,-51.98181357,-53.00443993,-53.07902318
-60.82937825,-48.61500855,-166.52479297,160.95260806

>  <CHROM.1>
76.88786637,-157.58615092,22.34099241,-15.77373106,4.66241880,0.50092632
-0.15818000,0.00661158

>  <Name>
P136260061

>  <RI>
0

>  <Rbt.Current_Directory>
/home/fstefaniak/projects/zuza/docking/adenine/1Y26

>  <Rbt.Executable>
rbdock ($Id: //depot/dev/client3/rdock/2013.1/src/exe/rbdock.cxx#4 $)

>  <Rbt.Library>
libRbt.so (2013.1, Build901 2013/11/27)

>  <Rbt.Parameter_File>
/home/fstefaniak/progs/rDock//data/scripts/dock_solv.prm

>  <Rbt.Receptor>
1y26.prm

>  <SCORE>
-45.2399

>  <SCORE.INTER>
-25.7994

>  <SCORE.INTER.CONST>
1

>  <SCORE.INTER.POLAR>
-2.91555

>  <SCORE.INTER.ROT>
2

>  <SCORE.INTER.SOLV>
12.7009

>  <SCORE.INTER.VDW>
-16.6481

>  <SCORE.INTER.norm>
-2.14995

>  <SCORE.INTRA>
1.59869

>  <SCORE.INTRA.DIHEDRAL>
3.95274

>  <SCORE.INTRA.DIHEDRAL.0>
0.0152541

>  <SCORE.INTRA.POLAR>
0

>  <SCORE.INTRA.POLAR.0>
0

>  <SCORE.INTRA.REPUL>
0

>  <SCORE.INTRA.REPUL.0>
0

>  <SCORE.INTRA.SOLV>
-0.00465229

>  <SCORE.INTRA.SOLV.lig_0>
-8.74874

>  <SCORE.INTRA.VDW>
-0.375352

>  <SCORE.INTRA.VDW.0>
2.02935

>  <SCORE.INTRA.norm>
0.133224

>  <SCORE.RESTR>
0

>  <SCORE.RESTR.CAVITY>
0

>  <SCORE.RESTR.norm>
0

>  <SCORE.SYSTEM>
-21.0392

>  <SCORE.SYSTEM.CONST>
0

>  <SCORE.SYSTEM.DIHEDRAL>
8.50783

>  <SCORE.SYSTEM.POLAR>
-3.63505

>  <SCORE.SYSTEM.SOLV>
0.656896

>  <SCORE.SYSTEM.VDW>
-4.9642

>  <SCORE.SYSTEM.norm>
-1.75327

>  <SCORE.heavy>
12

>  <SCORE.norm>
-3.76999

$$$$
P136260061
 OpenBabel12072022103D
libRbt.so/2013.1/901 2013/11/27
 14 14  0  0  0  0  0  0  0  0999 V2000
   22.2937  -13.4552    5.9695 C   0  0  0  0  0  0  0  0  0  0  0  0
   23.0926  -13.6846    4.6834 C   0  0  1  0  0  0  0  0  0  0  0  0
   24.4169  -14.4237    4.9602 C   0  0  0  0  0  0  0  0  0  0  0  0
   24.2130  -15.9181    5.2762 C   0  0  1  0  0  0  0  0  0  0  0  0
   23.3511  -16.5836    4.1830 C   0  0  0  0  0  0  0  0  0  0  0  0
   22.1070  -15.8401    3.9929 N   0  0  0  0  0  0  0  0  0  0  0  0
   22.2608  -14.4380    3.6330 C   0  0  0  0  0  0  0  0  0  0  0  0
   20.8561  -16.3396    4.3038 C   0  0  0  0  0  0  0  0  0  0  0  0
   19.8212  -15.6864    4.2326 O   0  0  0  0  0  0  0  0  0  0  0  0
   20.8960  -17.6383    4.7064 O   0  0  0  0  0  0  0  0  0  0  0  0
   19.6479  -18.3237    4.6082 C   0  0  0  0  0  0  0  0  0  0  0  0
   25.5128  -16.5836    5.4165 N   0  0  0  0  0  0  0  0  0  0  0  0
   25.9430  -16.3050    6.2984 H   0  0  0  0  0  0  0  0  0  0  0  0
   26.1481  -16.2694    4.6835 H   0  0  0  0  0  0  0  0  0  0  0  0
  2  1  1  1  0  0  0
  2  3  1  0  0  0  0
  2  7  1  0  0  0  0
  3  4  1  0  0  0  0
  4  5  1  0  0  0  0
  4 12  1  6  0  0  0
  5  6  1  0  0  0  0
  6  7  1  0  0  0  0
  6  8  1  0  0  0  0
  8  9  2  0  0  0  0
  8 10  1  0  0  0  0
 10 11  1  0  0  0  0
 12 13  1  0  0  0  0
 12 14  1  0  0  0  0
M  END
>  <CHROM.0>
62.75861533,158.85563480,59.90097125,-54.22265396,-56.20405813,-57.62992864
77.37040039,-50.59598704,-167.18553250,162.45423051

>  <CHROM.1>
73.12710291,-160.10057876,22.35531695,-15.77599268,4.67685067,0.48786411
-0.15707410,0.01960509

>  <Name>
P136260061

>  <RI>
0

>  <Rbt.Current_Directory>
/home/fstefaniak/projects/zuza/docking/adenine/1Y26

>  <Rbt.Executable>
rbdock ($Id: //depot/dev/client3/rdock/2013.1/src/exe/rbdock.cxx#4 $)

>  <Rbt.Library>
libRbt.so (2013.1, Build901 2013/11/27)

>  <Rbt.Parameter_File>
/home/fstefaniak/progs/rDock//data/scripts/dock_solv.prm

>  <Rbt.Receptor>
1y26.prm

>  <SCORE>
-43.3154

>  <SCORE.INTER>
-25.8915

>  <SCORE.INTER.CONST>
1

>  <SCORE.INTER.POLAR>
-2.84202

>  <SCORE.INTER.ROT>
2

>  <SCORE.INTER.SOLV>
12.7633

>  <SCORE.INTER.VDW>
-16.9753

>  <SCORE.INTER.norm>
-2.15762

>  <SCORE.INTRA>
1.20615

>  <SCORE.INTRA.DIHEDRAL>
3.08222

>  <SCORE.INTRA.DIHEDRAL.0>
0.0152541

>  <SCORE.INTRA.POLAR>
0

>  <SCORE.INTRA.POLAR.0>
0

>  <SCORE.INTRA.REPUL>
0

>  <SCORE.INTRA.REPUL.0>
0

>  <SCORE.INTRA.SOLV>
-0.0037384

>  <SCORE.INTRA.SOLV.lig_0>
-8.74874

>  <SCORE.INTRA.VDW>
-0.333089

>  <SCORE.INTRA.VDW.0>
2.02935

>  <SCORE.INTRA.norm>
0.100513

>  <SCORE.RESTR>
0

>  <SCORE.RESTR.CAVITY>
0

>  <SCORE.RESTR.norm>
0

>  <SCORE.SYSTEM>
-18.6301

>  <SCORE.SYSTEM.CONST>
0

>  <SCORE.SYSTEM.DIHEDRAL>
8.09305

>  <SCORE.SYSTEM.POLAR>
-3.47823

>  <SCORE.SYSTEM.SOLV>
0.437149

>  <SCORE.SYSTEM.VDW>
-3.66936

>  <SCORE.SYSTEM.norm>
-1.55251

>  <SCORE.heavy>
12

>  <SCORE.norm>
-3.60962

$$$$
P136260061
 OpenBabel12072022103D
libRbt.so/2013.1/901 2013/11/27
 14 14  0  0  0  0  0  0  0  0999 V2000
   22.1834  -13.5834    6.0454 C   0  0  0  0  0  0  0  0  0  0  0  0
   23.0293  -13.6877    4.7732 C   0  0  1  0  0  0  0  0  0  0  0  0
   24.3558  -14.4296    5.0310 C   0  0  0  0  0  0  0  0  0  0  0  0
   24.1669  -15.9487    5.2079 C   0  0  1  0  0  0  0  0  0  0  0  0
   23.3540  -16.5276    4.0311 C   0  0  0  0  0  0  0  0  0  0  0  0
   22.1046  -15.7879    3.8628 N   0  0  0  0  0  0  0  0  0  0  0  0
   22.2466  -14.3575    3.6324 C   0  0  0  0  0  0  0  0  0  0  0  0
   20.8526  -16.3303    4.0845 C   0  0  0  0  0  0  0  0  0  0  0  0
   19.8097  -15.6879    4.0341 O   0  0  0  0  0  0  0  0  0  0  0  0
   20.9010  -17.6586    4.3733 O   0  0  0  0  0  0  0  0  0  0  0  0
   19.6280  -18.2532    4.6243 C   0  0  0  0  0  0  0  0  0  0  0  0
   25.4723  -16.6057    5.3354 N   0  0  0  0  0  0  0  0  0  0  0  0
   25.8927  -16.3538    6.2301 H   0  0  0  0  0  0  0  0  0  0  0  0
   26.1100  -16.2595    4.6191 H   0  0  0  0  0  0  0  0  0  0  0  0
  2  1  1  1  0  0  0
  2  3  1  0  0  0  0
  2  7  1  0  0  0  0
  3  4  1  0  0  0  0
  4  5  1  0  0  0  0
  4 12  1  6  0  0  0
  5  6  1  0  0  0  0
  6  7  1  0  0  0  0
  6  8  1  0  0  0  0
  8  9  2  0  0  0  0
  8 10  1  0  0  0  0
 10 11  1  0  0  0  0
 12 13  1  0  0  0  0
 12 14  1  0  0  0  0
M  END
>  <CHROM.0>
-48.51214831,-64.17701063,-65.01336932,-52.93720031,-175.08235961,-56.99905040
-169.98769945,-52.99435410,-167.85226827,159.33357020

>  <CHROM.1>
69.72952993,179.31154953,22.32491364,-15.77207837,4.59725008,0.48046108,-0.16927878
0.06944882

>  <Name>
P136260061

>  <RI>
0

>  <Rbt.Current_Directory>
/home/fstefaniak/projects/zuza/docking/adenine/1Y26

>  <Rbt.Executable>
rbdock ($Id: //depot/dev/client3/rdock/2013.1/src/exe/rbdock.cxx#4 $)

>  <Rbt.Library>
libRbt.so (2013.1, Build901 2013/11/27)

>  <Rbt.Parameter_File>
/home/fstefaniak/progs/rDock//data/scripts/dock_solv.prm

>  <Rbt.Receptor>
1y26.prm

>  <SCORE>
-42.7635

>  <SCORE.INTER>
-21.6842

>  <SCORE.INTER.CONST>
1

>  <SCORE.INTER.POLAR>
-1.89777

>  <SCORE.INTER.ROT>
2

>  <SCORE.INTER.SOLV>
12.6928

>  <SCORE.INTER.VDW>
-17.2945

>  <SCORE.INTER.norm>
-1.80702

>  <SCORE.INTRA>
0.106523

>  <SCORE.INTRA.DIHEDRAL>
0.217405

>  <SCORE.INTRA.DIHEDRAL.0>
0.0152541

>  <SCORE.INTRA.POLAR>
0

>  <SCORE.INTRA.POLAR.0>
0

>  <SCORE.INTRA.REPUL>
0

>  <SCORE.INTRA.REPUL.0>
0

>  <SCORE.INTRA.SOLV>
-0.00137119

>  <SCORE.INTRA.SOLV.lig_0>
-8.74874

>  <SCORE.INTRA.VDW>
-0.00149388

>  <SCORE.INTRA.VDW.0>
2.02935

>  <SCORE.INTRA.norm>
0.00887692

>  <SCORE.RESTR>
0

>  <SCORE.RESTR.CAVITY>
0

>  <SCORE.RESTR.norm>
0

>  <SCORE.SYSTEM>
-21.1858

>  <SCORE.SYSTEM.CONST>
0

>  <SCORE.SYSTEM.DIHEDRAL>
6.39991

>  <SCORE.SYSTEM.POLAR>
-3.45616

>  <SCORE.SYSTEM.SOLV>
0.441728

>  <SCORE.SYSTEM.VDW>
-4.88391

>  <SCORE.SYSTEM.norm>
-1.76549

>  <SCORE.heavy>
12

>  <SCORE.norm>
-3.56363

$$$$
P136266612
 OpenBabel12072022103D
libRbt.so/2013.1/901 2013/11/27
 16 16  0  0  0  0  0  0  0  0999 V2000
   24.7405  -15.8414    5.2153 C   0  0  0  0  0  0  0  0  0  0  0  0
   23.8932  -15.5636    3.9701 C   0  0  2  0  0  0  0  0  0  0  0  0
   23.2835  -14.1449    3.9677 C   0  0  0  0  0  0  0  0  0  0  0  0
   21.9684  -14.0094    4.7528 C   0  0  1  0  0  0  0  0  0  0  0  0
   20.9862  -15.1028    4.2814 C   0  0  0  0  0  0  0  0  0  0  0  0
   21.6327  -16.4278    4.6369 N   0  3  2  0  0  0  0  0  0  0  0  0
   21.9441  -16.3374    5.6128 H   0  0  0  0  0  0  0  0  0  0  0  0
   22.8351  -16.6569    3.7477 C   0  0  0  0  0  0  0  0  0  0  0  0
   20.6444  -17.6272    4.5178 C   0  0  1  0  0  0  0  0  0  0  0  0
   19.8557  -17.7679    5.8168 C   0  0  0  0  0  0  0  0  0  0  0  0
   19.7201  -17.5709    3.2557 C   0  0  0  0  0  0  0  0  0  0  0  0
   20.1467  -16.8499    2.3135 O   0  0  0  0  0  0  0  0  0  0  0  0
   18.7568  -18.3873    3.2975 O   0  5  0  0  0  0  0  0  0  0  0  0
   22.2302  -14.1583    6.2008 N   0  0  0  0  0  0  0  0  0  0  0  0
   21.4295  -13.8006    6.7288 H   0  0  0  0  0  0  0  0  0  0  0  0
   23.0088  -13.5475    6.4630 H   0  0  0  0  0  0  0  0  0  0  0  0
  2  1  1  1  0  0  0
  2  3  1  0  0  0  0
  2  8  1  0  0  0  0
  3  4  1  0  0  0  0
  4  5  1  0  0  0  0
  4 14  1  1  0  0  0
  5  6  1  0  0  0  0
  6  7  1  1  0  0  0
  6  8  1  0  0  0  0
  6  9  1  0  0  0  0
  9 10  1  1  0  0  0
  9 11  1  0  0  0  0
 11 12  2  0  0  0  0
 11 13  1  0  0  0  0
 14 15  1  0  0  0  0
 14 16  1  0  0  0  0
M  CHG  2   6   1  13  -1
M  END
>  <CHROM.0>
-48.32231105,-63.28070077,-46.82664373,-55.09778611,-174.34527472,-60.48520948
-62.47960022,-50.22722602,-166.68774146,162.13287776

>  <CHROM.1>
163.44549361,-85.49391684,21.33274610,21.57363481,-16.16589399,4.32824637
-0.55846367,-0.44020564,-2.15421668

>  <Name>
P136266612

>  <RI>
0

>  <Rbt.Current_Directory>
/home/fstefaniak/projects/zuza/docking/adenine/1Y26

>  <Rbt.Executable>
rbdock ($Id: //depot/dev/client3/rdock/2013.1/src/exe/rbdock.cxx#4 $)

>  <Rbt.Library>
libRbt.so (2013.1, Build901 2013/11/27)

>  <Rbt.Parameter_File>
/home/fstefaniak/progs/rDock//data/scripts/dock_solv.prm

>  <Rbt.Receptor>
1y26.prm

>  <SCORE>
-44.4731

>  <SCORE.INTER>
-24.4307

>  <SCORE.INTER.CONST>
1

>  <SCORE.INTER.POLAR>
-4.03762

>  <SCORE.INTER.ROT>
3

>  <SCORE.INTER.SOLV>
22.1514

>  <SCORE.INTER.VDW>
-15.8122

>  <SCORE.INTER.norm>
-1.87929

>  <SCORE.INTRA>
1.95814

>  <SCORE.INTRA.DIHEDRAL>
1.47857

>  <SCORE.INTRA.DIHEDRAL.0>
1.32829

>  <SCORE.INTRA.POLAR>
-3.10988e-11

>  <SCORE.INTRA.POLAR.0>
-0.272373

>  <SCORE.INTRA.REPUL>
0

>  <SCORE.INTRA.REPUL.0>
0

>  <SCORE.INTRA.SOLV>
0.716577

>  <SCORE.INTRA.SOLV.lig_0>
-40.0629

>  <SCORE.INTRA.VDW>
0.860566

>  <SCORE.INTRA.VDW.0>
0.546885

>  <SCORE.INTRA.norm>
0.150626

>  <SCORE.RESTR>
0

>  <SCORE.RESTR.CAVITY>
0

>  <SCORE.RESTR.norm>
0

>  <SCORE.SYSTEM>
-22.0005

>  <SCORE.SYSTEM.CONST>
0

>  <SCORE.SYSTEM.DIHEDRAL>
6.41787

>  <SCORE.SYSTEM.POLAR>
-3.48658

>  <SCORE.SYSTEM.SOLV>
0.498206

>  <SCORE.SYSTEM.VDW>
-5.35039

>  <SCORE.SYSTEM.norm>
-1.69234

>  <SCORE.heavy>
13

>  <SCORE.norm>
-3.42101

$$$$
P136266612
 OpenBabel12072022103D
libRbt.so/2013.1/901 2013/11/27
 16 16  0  0  0  0  0  0  0  0999 V2000
   24.7486  -15.8743    5.2317 C   0  0  0  0  0  0  0  0  0  0  0  0
   23.9122  -15.5735    3.9845 C   0  0  2  0  0  0  0  0  0  0  0  0
   23.3249  -14.1453    3.9902 C   0  0  0  0  0  0  0  0  0  0  0  0
   22.0081  -13.9951    4.7698 C   0  0  1  0  0  0  0  0  0  0  0  0
   21.0112  -15.0692    4.2849 C   0  0  0  0  0  0  0  0  0  0  0  0
   21.6349  -16.4070    4.6331 N   0  3  2  0  0  0  0  0  0  0  0  0
   21.9427  -16.3291    5.6113 H   0  0  0  0  0  0  0  0  0  0  0  0
   22.8381  -16.6481    3.7482 C   0  0  0  0  0  0  0  0  0  0  0  0
   20.6284  -17.5897    4.4997 C   0  0  1  0  0  0  0  0  0  0  0  0
   19.8714  -17.7645    5.8133 C   0  0  0  0  0  0  0  0  0  0  0  0
   19.6731  -17.4796    3.2645 C   0  0  0  0  0  0  0  0  0  0  0  0
   18.4990  -17.8956    3.4591 O   0  0  0  0  0  0  0  0  0  0  0  0
   20.1701  -16.8374    2.2966 O   0  5  0  0  0  0  0  0  0  0  0  0
   22.2601  -14.1594    6.2178 N   0  0  0  0  0  0  0  0  0  0  0  0
   21.4416  -13.8399    6.7430 H   0  0  0  0  0  0  0  0  0  0  0  0
   23.0134  -13.5256    6.4988 H   0  0  0  0  0  0  0  0  0  0  0  0
  2  1  1  1  0  0  0
  2  3  1  0  0  0  0
  2  8  1  0  0  0  0
  3  4  1  0  0  0  0
  4  5  1  0  0  0  0
  4 14  1  1  0  0  0
  5  6  1  0  0  0  0
  6  7  1  1  0  0  0
  6  8  1  0  0  0  0
  6  9  1  0  0  0  0
  9 10  1  1  0  0  0
  9 11  1  0  0  0  0
 11 12  2  0  0  0  0
 11 13  1  0  0  0  0
 14 15  1  0  0  0  0
 14 16  1  0  0  0  0
M  CHG  2   6   1  13  -1
M  END
>  <CHROM.0>
-47.97890991,-64.28735570,-52.80242778,-51.45928914,-55.45625172,-57.61412723
-69.32739538,-174.51139838,-166.69965458,161.99112520

>  <CHROM.1>
166.48114976,-87.79929409,-143.60374067,21.56309902,-16.11156454,4.34647500
-0.51491177,-0.39836918,-2.13829390

>  <Name>
P136266612

>  <RI>
0

>  <Rbt.Current_Directory>
/home/fstefaniak/projects/zuza/docking/adenine/1Y26

>  <Rbt.Executable>
rbdock ($Id: //depot/dev/client3/rdock/2013.1/src/exe/rbdock.cxx#4 $)

>  <Rbt.Library>
libRbt.so (2013.1, Build901 2013/11/27)

>  <Rbt.Parameter_File>
/home/fstefaniak/progs/rDock//data/scripts/dock_solv.prm

>  <Rbt.Receptor>
1y26.prm

>  <SCORE>
-44.2471

>  <SCORE.INTER>
-24.4256

>  <SCORE.INTER.CONST>
1

>  <SCORE.INTER.POLAR>
-4.03649

>  <SCORE.INTER.ROT>
3

>  <SCORE.INTER.SOLV>
22.3965

>  <SCORE.INTER.VDW>
-15.8943

>  <SCORE.INTER.norm>
-1.87889

>  <SCORE.INTRA>
2.63008

>  <SCORE.INTRA.DIHEDRAL>
1.76406

>  <SCORE.INTRA.DIHEDRAL.0>
1.32829

>  <SCORE.INTRA.POLAR>
-4.27881e-10

>  <SCORE.INTRA.POLAR.0>
-0.272373

>  <SCORE.INTRA.REPUL>
0

>  <SCORE.INTRA.REPUL.0>
0

>  <SCORE.INTRA.SOLV>
0.836024

>  <SCORE.INTRA.SOLV.lig_0>
-40.0629

>  <SCORE.INTRA.VDW>
1.33004

>  <SCORE.INTRA.VDW.0>
0.546885

>  <SCORE.INTRA.norm>
0.202314

>  <SCORE.RESTR>
0

>  <SCORE.RESTR.CAVITY>
0

>  <SCORE.RESTR.norm>
0

>  <SCORE.SYSTEM>
-22.4516

>  <SCORE.SYSTEM.CONST>
0

>  <SCORE.SYSTEM.DIHEDRAL>
6.24954

>  <SCORE.SYSTEM.POLAR>
-3.48569

>  <SCORE.SYSTEM.SOLV>
0.435891

>  <SCORE.SYSTEM.VDW>
-5.57726

>  <SCORE.SYSTEM.norm>
-1.72705

>  <SCORE.heavy>
13

>  <SCORE.norm>
-3.40363

$$$$
P136266612
 OpenBabel12072022103D
libRbt.so/2013.1/901 2013/11/27
 16 16  0  0  0  0  0  0  0  0999 V2000
   24.8081  -15.7879    5.1974 C   0  0  0  0  0  0  0  0  0  0  0  0
   23.9507  -15.4999    3.9615 C   0  0  2  0  0  0  0  0  0  0  0  0
   23.3402  -14.0816    3.9762 C   0  0  0  0  0  0  0  0  0  0  0  0
   22.0314  -13.9537    4.7730 C   0  0  1  0  0  0  0  0  0  0  0  0
   21.0460  -15.0435    4.3001 C   0  0  0  0  0  0  0  0  0  0  0  0
   21.6960  -16.3712    4.6388 N   0  3  2  0  0  0  0  0  0  0  0  0
   22.0152  -16.2890    5.6130 H   0  0  0  0  0  0  0  0  0  0  0  0
   22.8914  -16.5918    3.7381 C   0  0  0  0  0  0  0  0  0  0  0  0
   20.7074  -17.5701    4.5174 C   0  0  1  0  0  0  0  0  0  0  0  0
   19.9445  -17.7358    5.8287 C   0  0  0  0  0  0  0  0  0  0  0  0
   19.7586  -17.4926    3.2747 C   0  0  0  0  0  0  0  0  0  0  0  0
   20.2038  -16.8223    2.3042 O   0  0  0  0  0  0  0  0  0  0  0  0
   18.7511  -18.2502    3.3597 O   0  5  0  0  0  0  0  0  0  0  0  0
   22.3048  -14.1149    6.2175 N   0  0  0  0  0  0  0  0  0  0  0  0
   21.4900  -13.8047    6.7538 H   0  0  0  0  0  0  0  0  0  0  0  0
   23.0546  -13.4726    6.4882 H   0  0  0  0  0  0  0  0  0  0  0  0
  2  1  1  1  0  0  0
  2  3  1  0  0  0  0
  2  8  1  0  0  0  0
  3  4  1  0  0  0  0
  4  5  1  0  0  0  0
  4 14  1  1  0  0  0
  5  6  1  0  0  0  0
  6  7  1  1  0  0  0
  6  8  1  0  0  0  0
  6  9  1  0  0  0  0
  9 10  1  1  0  0  0
  9 11  1  0  0  0  0
 11 12  2  0  0  0  0
 11 13  1  0  0  0  0
 14 15  1  0  0  0  0
 14 16  1  0  0  0  0
M  CHG  2   6   1  13  -1
M  END
>  <CHROM.0>
-42.80372755,-60.60593680,-47.81671567,-50.16402953,60.39014216,-50.07179136
-48.91408837,-54.66556542,-165.38221780,161.01404912

>  <CHROM.1>
166.18542942,-86.34992646,25.60725768,21.63031827,-16.10515857,4.33730373
-0.54009000,-0.44698392,-2.13178627

>  <Name>
P136266612

>  <RI>
0

>  <Rbt.Current_Directory>
/home/fstefaniak/projects/zuza/docking/adenine/1Y26

>  <Rbt.Executable>
rbdock ($Id: //depot/dev/client3/rdock/2013.1/src/exe/rbdock.cxx#4 $)

>  <Rbt.Library>
libRbt.so (2013.1, Build901 2013/11/27)

>  <Rbt.Parameter_File>
/home/fstefaniak/progs/rDock//data/scripts/dock_solv.prm

>  <Rbt.Receptor>
1y26.prm

>  <SCORE>
-42.1596

>  <SCORE.INTER>
-23.9517

>  <SCORE.INTER.CONST>
1

>  <SCORE.INTER.POLAR>
-4.03956

>  <SCORE.INTER.ROT>
3

>  <SCORE.INTER.SOLV>
21.9888

>  <SCORE.INTER.VDW>
-15.4322

>  <SCORE.INTER.norm>
-1.84244

>  <SCORE.INTRA>
1.88108

>  <SCORE.INTRA.DIHEDRAL>
1.43695

>  <SCORE.INTRA.DIHEDRAL.0>
1.32829

>  <SCORE.INTRA.POLAR>
-5.12906e-10

>  <SCORE.INTRA.POLAR.0>
-0.272373

>  <SCORE.INTRA.REPUL>
0

>  <SCORE.INTRA.REPUL.0>
0

>  <SCORE.INTRA.SOLV>
0.67624

>  <SCORE.INTRA.SOLV.lig_0>
-40.0629

>  <SCORE.INTRA.VDW>
0.824483

>  <SCORE.INTRA.VDW.0>
0.546885

>  <SCORE.INTRA.norm>
0.144698

>  <SCORE.RESTR>
0

>  <SCORE.RESTR.CAVITY>
0

>  <SCORE.RESTR.norm>
0

>  <SCORE.SYSTEM>
-20.089

>  <SCORE.SYSTEM.CONST>
0

>  <SCORE.SYSTEM.DIHEDRAL>
8.13731

>  <SCORE.SYSTEM.POLAR>
-3.76626

>  <SCORE.SYSTEM.SOLV>
0.515942

>  <SCORE.SYSTEM.VDW>
-3.72288

>  <SCORE.SYSTEM.norm>
-1.54531

>  <SCORE.heavy>
13

>  <SCORE.norm>
-3.24304

$$$$
P136450499
 OpenBabel12072022103D
libRbt.so/2013.1/901 2013/11/27
 11 11  0  0  0  0  0  0  0  0999 V2000
   22.2104  -16.4974    3.9937 C   0  0  0  0  0  0  0  0  0  0  0  0
   21.0683  -17.3399    3.4410 C   0  0  0  0  0  0  0  0  0  0  0  0
   19.7060  -17.0559    4.1110 C   0  0  1  0  0  0  0  0  0  0  0  0
   18.6083  -17.9737    3.5252 C   0  0  0  0  0  0  0  0  0  0  0  0
   18.8022  -19.3481    3.8924 O   0  0  0  0  0  0  0  0  0  0  0  0
   18.8111  -19.5215    5.3259 C   0  0  1  0  0  0  0  0  0  0  0  0
   19.8269  -18.5797    6.0086 C   0  0  0  0  0  0  0  0  0  0  0  0
   19.7347  -17.1725    5.5821 N   0  0  0  0  0  0  0  0  0  0  0  0
   17.4245  -19.3828    5.9328 C   0  0  0  0  0  0  0  0  0  0  0  0
   16.2742  -19.2677    6.4363 N   0  0  0  0  0  0  0  0  0  0  0  0
   20.5088  -16.6361    5.9714 H   0  0  0  0  0  0  0  0  0  0  0  0
  1  2  1  0  0  0  0
  3  2  1  6  0  0  0
  3  4  1  0  0  0  0
  3  8  1  0  0  0  0
  4  5  1  0  0  0  0
  5  6  1  0  0  0  0
  6  7  1  0  0  0  0
  6  9  1  1  0  0  0
  7  8  1  0  0  0  0
  8 11  1  0  0  0  0
  9 10  3  0  0  0  0
M  END
>  <CHROM.0>
-49.36206937,-62.74034789,-56.44327115,-53.00182486,-56.60484953,-60.80577689
-59.18602018,-177.90168491,-167.86508048,160.58696787

>  <CHROM.1>
-178.46101682,19.29718287,-18.18830643,4.79932179,-0.33542782,0.57705256
1.47337381

>  <Name>
P136450499

>  <RI>
0

>  <Rbt.Current_Directory>
/home/fstefaniak/projects/zuza/docking/adenine/1Y26

>  <Rbt.Executable>
rbdock ($Id: //depot/dev/client3/rdock/2013.1/src/exe/rbdock.cxx#4 $)

>  <Rbt.Library>
libRbt.so (2013.1, Build901 2013/11/27)

>  <Rbt.Parameter_File>
/home/fstefaniak/progs/rDock//data/scripts/dock_solv.prm

>  <Rbt.Receptor>
1y26.prm

>  <SCORE>
-50.9585

>  <SCORE.INTER>
-28.4163

>  <SCORE.INTER.CONST>
1

>  <SCORE.INTER.POLAR>
-2.90098

>  <SCORE.INTER.ROT>
1

>  <SCORE.INTER.SOLV>
10.9038

>  <SCORE.INTER.VDW>
-17.1755

>  <SCORE.INTER.norm>
-2.84163

>  <SCORE.INTRA>
0.18754

>  <SCORE.INTRA.DIHEDRAL>
-0.0788238

>  <SCORE.INTRA.DIHEDRAL.0>
0.136091

>  <SCORE.INTRA.POLAR>
0

>  <SCORE.INTRA.POLAR.0>
0

>  <SCORE.INTRA.REPUL>
0

>  <SCORE.INTRA.REPUL.0>
0

>  <SCORE.INTRA.SOLV>
0.0134883

>  <SCORE.INTRA.SOLV.lig_0>
-9.38448

>  <SCORE.INTRA.VDW>
0.220208

>  <SCORE.INTRA.VDW.0>
-0.0395108

>  <SCORE.INTRA.norm>
0.018754

>  <SCORE.RESTR>
0

>  <SCORE.RESTR.CAVITY>
0

>  <SCORE.RESTR.norm>
0

>  <SCORE.SYSTEM>
-22.7298

>  <SCORE.SYSTEM.CONST>
0

>  <SCORE.SYSTEM.DIHEDRAL>
5.24968

>  <SCORE.SYSTEM.POLAR>
-3.43035

>  <SCORE.SYSTEM.SOLV>
0.449372

>  <SCORE.SYSTEM.VDW>
-5.61836

>  <SCORE.SYSTEM.norm>
-2.27298

>  <SCORE.heavy>
10

>  <SCORE.norm>
-5.09585

$$$$
P136450499
 OpenBabel12072022103D
libRbt.so/2013.1/901 2013/11/27
 11 11  0  0  0  0  0  0  0  0999 V2000
   22.2191  -16.5082    3.9954 C   0  0  0  0  0  0  0  0  0  0  0  0
   21.0725  -17.3425    3.4395 C   0  0  0  0  0  0  0  0  0  0  0  0
   19.7114  -17.0522    4.1091 C   0  0  1  0  0  0  0  0  0  0  0  0
   18.6108  -17.9689    3.5270 C   0  0  0  0  0  0  0  0  0  0  0  0
   18.8009  -19.3425    3.8988 O   0  0  0  0  0  0  0  0  0  0  0  0
   18.8100  -19.5111    5.3328 C   0  0  1  0  0  0  0  0  0  0  0  0
   19.8289  -18.5699    6.0118 C   0  0  0  0  0  0  0  0  0  0  0  0
   19.7404  -17.1639    5.5806 N   0  0  0  0  0  0  0  0  0  0  0  0
   17.4241  -19.3663    5.9400 C   0  0  0  0  0  0  0  0  0  0  0  0
   16.2743  -19.2462    6.4436 N   0  0  0  0  0  0  0  0  0  0  0  0
   20.5163  -16.6284    5.9677 H   0  0  0  0  0  0  0  0  0  0  0  0
  1  2  1  0  0  0  0
  3  2  1  6  0  0  0
  3  4  1  0  0  0  0
  3  8  1  0  0  0  0
  4  5  1  0  0  0  0
  5  6  1  0  0  0  0
  6  7  1  0  0  0  0
  6  9  1  1  0  0  0
  7  8  1  0  0  0  0
  8 11  1  0  0  0  0
  9 10  3  0  0  0  0
M  END
>  <CHROM.0>
-48.15530064,-59.53742672,-50.56175472,-50.50205603,-56.77615291,-62.18742511
-58.53271393,-175.34057569,-167.43822114,160.32609242

>  <CHROM.1>
-178.06278867,19.29983407,-18.18182699,4.80218617,-0.33645266,0.57315209
1.47153096

>  <Name>
P136450499

>  <RI>
0

>  <Rbt.Current_Directory>
/home/fstefaniak/projects/zuza/docking/adenine/1Y26

>  <Rbt.Executable>
rbdock ($Id: //depot/dev/client3/rdock/2013.1/src/exe/rbdock.cxx#4 $)

>  <Rbt.Library>
libRbt.so (2013.1, Build901 2013/11/27)

>  <Rbt.Parameter_File>
/home/fstefaniak/progs/rDock//data/scripts/dock_solv.prm

>  <Rbt.Receptor>
1y26.prm

>  <SCORE>
-50.8107

>  <SCORE.INTER>
-28.3987

>  <SCORE.INTER.CONST>
1

>  <SCORE.INTER.POLAR>
-2.88306

>  <SCORE.INTER.ROT>
1

>  <SCORE.INTER.SOLV>
10.8891

>  <SCORE.INTER.VDW>
-17.2187

>  <SCORE.INTER.norm>
-2.83987

>  <SCORE.INTRA>
0.20734

>  <SCORE.INTRA.DIHEDRAL>
-0.0739318

>  <SCORE.INTRA.DIHEDRAL.0>
0.136091

>  <SCORE.INTRA.POLAR>
0

>  <SCORE.INTRA.POLAR.0>
0

>  <SCORE.INTRA.REPUL>
0

>  <SCORE.INTRA.REPUL.0>
0

>  <SCORE.INTRA.SOLV>
0.014381

>  <SCORE.INTRA.SOLV.lig_0>
-9.38448

>  <SCORE.INTRA.VDW>
0.237115

>  <SCORE.INTRA.VDW.0>
-0.0395108

>  <SCORE.INTRA.norm>
0.020734

>  <SCORE.RESTR>
0

>  <SCORE.RESTR.CAVITY>
0

>  <SCORE.RESTR.norm>
0

>  <SCORE.SYSTEM>
-22.6193

>  <SCORE.SYSTEM.CONST>
0

>  <SCORE.SYSTEM.DIHEDRAL>
6.05443

>  <SCORE.SYSTEM.POLAR>
-3.55225

>  <SCORE.SYSTEM.SOLV>
0.463973

>  <SCORE.SYSTEM.VDW>
-5.41152

>  <SCORE.SYSTEM.norm>
-2.26193

>  <SCORE.heavy>
10

>  <SCORE.norm>
-5.08107

$$$$
P136450499
 OpenBabel12072022103D
libRbt.so/2013.1/901 2013/11/27
 11 11  0  0  0  0  0  0  0  0999 V2000
   22.2053  -16.5142    4.0121 C   0  0  0  0  0  0  0  0  0  0  0  0
   21.0639  -17.3485    3.4456 C   0  0  0  0  0  0  0  0  0  0  0  0
   19.6977  -17.0625    4.1066 C   0  0  1  0  0  0  0  0  0  0  0  0
   18.6055  -17.9890    3.5241 C   0  0  0  0  0  0  0  0  0  0  0  0
   18.8018  -19.3593    3.9047 O   0  0  0  0  0  0  0  0  0  0  0  0
   18.8046  -19.5197    5.3397 C   0  0  1  0  0  0  0  0  0  0  0  0
   19.8143  -18.5686    6.0185 C   0  0  0  0  0  0  0  0  0  0  0  0
   19.7198  -17.1656    5.5788 N   0  0  0  0  0  0  0  0  0  0  0  0
   17.4147  -19.3797    5.9389 C   0  0  0  0  0  0  0  0  0  0  0  0
   16.2617  -19.2636    6.4360 N   0  0  0  0  0  0  0  0  0  0  0  0
   20.4905  -16.6234    5.9668 H   0  0  0  0  0  0  0  0  0  0  0  0
  1  2  1  0  0  0  0
  3  2  1  6  0  0  0
  3  4  1  0  0  0  0
  3  8  1  0  0  0  0
  4  5  1  0  0  0  0
  5  6  1  0  0  0  0
  6  7  1  0  0  0  0
  6  9  1  1  0  0  0
  7  8  1  0  0  0  0
  8 11  1  0  0  0  0
  9 10  3  0  0  0  0
M  END
>  <CHROM.0>
-49.02452631,-58.81186838,-51.41484670,-51.30229644,-55.46336806,-58.84726287
-62.27754863,-175.10864653,-166.64975980,160.71934523

>  <CHROM.1>
-177.48931954,19.28953136,-18.19166723,4.80502087,-0.32984616,0.57693710
1.46370471

>  <Name>
P136450499

>  <RI>
0

>  <Rbt.Current_Directory>
/home/fstefaniak/projects/zuza/docking/adenine/1Y26

>  <Rbt.Executable>
rbdock ($Id: //depot/dev/client3/rdock/2013.1/src/exe/rbdock.cxx#4 $)

>  <Rbt.Library>
libRbt.so (2013.1, Build901 2013/11/27)

>  <Rbt.Parameter_File>
/home/fstefaniak/progs/rDock//data/scripts/dock_solv.prm

>  <Rbt.Receptor>
1y26.prm

>  <SCORE>
-50.8019

>  <SCORE.INTER>
-28.4073

>  <SCORE.INTER.CONST>
1

>  <SCORE.INTER.POLAR>
-2.88843

>  <SCORE.INTER.ROT>
1

>  <SCORE.INTER.SOLV>
10.9148

>  <SCORE.INTER.VDW>
-17.215

>  <SCORE.INTER.norm>
-2.84073

>  <SCORE.INTRA>
0.23747

>  <SCORE.INTRA.DIHEDRAL>
-0.0646896

>  <SCORE.INTRA.DIHEDRAL.0>
0.136091

>  <SCORE.INTRA.POLAR>
0

>  <SCORE.INTRA.POLAR.0>
0

>  <SCORE.INTRA.REPUL>
0

>  <SCORE.INTRA.REPUL.0>
0

>  <SCORE.INTRA.SOLV>
0.0156662

>  <SCORE.INTRA.SOLV.lig_0>
-9.38448

>  <SCORE.INTRA.VDW>
0.261981

>  <SCORE.INTRA.VDW.0>
-0.0395108

>  <SCORE.INTRA.norm>
0.023747

>  <SCORE.RESTR>
0

>  <SCORE.RESTR.CAVITY>
0

>  <SCORE.RESTR.norm>
0

>  <SCORE.SYSTEM>
-22.6321

>  <SCORE.SYSTEM.CONST>
0

>  <SCORE.SYSTEM.DIHEDRAL>
5.92011

>  <SCORE.SYSTEM.POLAR>
-3.52273

>  <SCORE.SYSTEM.SOLV>
0.459179

>  <SCORE.SYSTEM.VDW>
-5.47206

>  <SCORE.SYSTEM.norm>
-2.26321

>  <SCORE.heavy>
10

>  <SCORE.norm>
-5.08019

$$$$
P136450765
 OpenBabel12072022103D
libRbt.so/2013.1/901 2013/11/27
 11 11  0  0  0  0  0  0  0  0999 V2000
   22.2627  -13.5022    5.5777 C   0  0  0  0  0  0  0  0  0  0  0  0
   23.0597  -13.8547    4.3132 C   0  0  0  0  0  0  0  0  0  0  0  0
   24.3737  -14.6089    4.6483 C   0  0  0  0  0  0  0  0  0  0  0  0
   24.1535  -15.9832    5.1284 N   0  0  0  0  0  0  0  0  0  0  0  0
   23.3587  -16.7024    4.1146 C   0  0  0  0  0  0  0  0  0  0  0  0
   22.0556  -15.9967    3.6782 C   0  0  2  0  0  0  0  0  0  0  0  0
   22.2479  -14.5975    3.3804 O   0  0  0  0  0  0  0  0  0  0  0  0
   20.9536  -16.2376    4.6306 C   0  0  0  0  0  0  0  0  0  0  0  0
   20.0959  -16.4465    5.3860 N   0  0  0  0  0  0  0  0  0  0  0  0
   23.4104  -12.5441    3.5924 C   0  0  0  0  0  0  0  0  0  0  0  0
   23.6378  -15.9565    6.0095 H   0  0  0  0  0  0  0  0  0  0  0  0
  1  2  1  0  0  0  0
  2  3  1  0  0  0  0
  2  7  1  0  0  0  0
  2 10  1  0  0  0  0
  3  4  1  0  0  0  0
  4  5  1  0  0  0  0
  4 11  1  0  0  0  0
  5  6  1  0  0  0  0
  6  7  1  0  0  0  0
  6  8  1  1  0  0  0
  8  9  3  0  0  0  0
M  END
>  <CHROM.0>
-53.66280498,-77.26556647,-56.67082930,-52.25895059,-175.27418863,-61.10587376
-60.17262283,-175.98226335,-166.09740761,160.42348602

>  <CHROM.1>
22.62418632,-15.01135347,4.44775496,0.89466155,0.10024205,-0.10996081

>  <Name>
P136450765

>  <RI>
0

>  <Rbt.Current_Directory>
/home/fstefaniak/projects/zuza/docking/adenine/1Y26

>  <Rbt.Executable>
rbdock ($Id: //depot/dev/client3/rdock/2013.1/src/exe/rbdock.cxx#4 $)

>  <Rbt.Library>
libRbt.so (2013.1, Build901 2013/11/27)

>  <Rbt.Parameter_File>
/home/fstefaniak/progs/rDock//data/scripts/dock_solv.prm

>  <Rbt.Receptor>
1y26.prm

>  <SCORE>
-39.4464

>  <SCORE.INTER>
-17.2657

>  <SCORE.INTER.CONST>
1

>  <SCORE.INTER.POLAR>
-1.76999

>  <SCORE.INTER.ROT>
0

>  <SCORE.INTER.SOLV>
8.89621

>  <SCORE.INTER.VDW>
-12.1759

>  <SCORE.INTER.norm>
-1.72657

>  <SCORE.INTRA>
0

>  <SCORE.INTRA.DIHEDRAL>
0

>  <SCORE.INTRA.DIHEDRAL.0>
0

>  <SCORE.INTRA.POLAR>
0

>  <SCORE.INTRA.POLAR.0>
0

>  <SCORE.INTRA.REPUL>
0

>  <SCORE.INTRA.REPUL.0>
0

>  <SCORE.INTRA.SOLV>
0

>  <SCORE.INTRA.SOLV.lig_0>
-8.48235

>  <SCORE.INTRA.VDW>
0

>  <SCORE.INTRA.VDW.0>
0

>  <SCORE.INTRA.norm>
0

>  <SCORE.RESTR>
0

>  <SCORE.RESTR.CAVITY>
0

>  <SCORE.RESTR.norm>
0

>  <SCORE.SYSTEM>
-22.1807

>  <SCORE.SYSTEM.CONST>
0

>  <SCORE.SYSTEM.DIHEDRAL>
6.56339

>  <SCORE.SYSTEM.POLAR>
-3.40684

>  <SCORE.SYSTEM.SOLV>
0.262714

>  <SCORE.SYSTEM.VDW>
-5.70633

>  <SCORE.SYSTEM.norm>
-2.21807

>  <SCORE.heavy>
10

>  <SCORE.norm>
-3.94464

$$$$
P136450765
 OpenBabel12072022103D
libRbt.so/2013.1/901 2013/11/27
 11 11  0  0  0  0  0  0  0  0999 V2000
   22.2746  -13.4570    5.5462 C   0  0  0  0  0  0  0  0  0  0  0  0
   23.1159  -13.8191    4.3136 C   0  0  0  0  0  0  0  0  0  0  0  0
   24.4244  -14.5572    4.7020 C   0  0  0  0  0  0  0  0  0  0  0  0
   24.1999  -15.9269    5.1929 N   0  0  0  0  0  0  0  0  0  0  0  0
   23.4451  -16.6664    4.1632 C   0  0  0  0  0  0  0  0  0  0  0  0
   22.1513  -15.9780    3.6747 C   0  0  2  0  0  0  0  0  0  0  0  0
   22.3416  -14.5812    3.3646 O   0  0  0  0  0  0  0  0  0  0  0  0
   21.0204  -16.2160    4.5934 C   0  0  0  0  0  0  0  0  0  0  0  0
   20.1400  -16.4225    5.3228 N   0  0  0  0  0  0  0  0  0  0  0  0
   23.4793  -12.5150    3.5872 C   0  0  0  0  0  0  0  0  0  0  0  0
   23.6552  -15.8932    6.0561 H   0  0  0  0  0  0  0  0  0  0  0  0
  1  2  1  0  0  0  0
  2  3  1  0  0  0  0
  2  7  1  0  0  0  0
  2 10  1  0  0  0  0
  3  4  1  0  0  0  0
  4  5  1  0  0  0  0
  4 11  1  0  0  0  0
  5  6  1  0  0  0  0
  6  7  1  0  0  0  0
  6  8  1  1  0  0  0
  8  9  3  0  0  0  0
M  END
>  <CHROM.0>
-176.84435550,-77.83402326,-55.16873303,-52.78812693,-174.11119716,-60.22512123
-61.00885567,-51.70123368,-166.08460534,159.47989324

>  <CHROM.1>
22.68587771,-14.97763312,4.44926165,0.89934607,0.06644215,-0.12366165

>  <Name>
P136450765

>  <RI>
0

>  <Rbt.Current_Directory>
/home/fstefaniak/projects/zuza/docking/adenine/1Y26

>  <Rbt.Executable>
rbdock ($Id: //depot/dev/client3/rdock/2013.1/src/exe/rbdock.cxx#4 $)

>  <Rbt.Library>
libRbt.so (2013.1, Build901 2013/11/27)

>  <Rbt.Parameter_File>
/home/fstefaniak/progs/rDock//data/scripts/dock_solv.prm

>  <Rbt.Receptor>
1y26.prm

>  <SCORE>
-37.9133

>  <SCORE.INTER>
-17.3107

>  <SCORE.INTER.CONST>
1

>  <SCORE.INTER.POLAR>
-1.81635

>  <SCORE.INTER.ROT>
0

>  <SCORE.INTER.SOLV>
8.86299

>  <SCORE.INTER.VDW>
-12.0403

>  <SCORE.INTER.norm>
-1.73107

>  <SCORE.INTRA>
0

>  <SCORE.INTRA.DIHEDRAL>
0

>  <SCORE.INTRA.DIHEDRAL.0>
0

>  <SCORE.INTRA.POLAR>
0

>  <SCORE.INTRA.POLAR.0>
0

>  <SCORE.INTRA.REPUL>
0

>  <SCORE.INTRA.REPUL.0>
0

>  <SCORE.INTRA.SOLV>
0

>  <SCORE.INTRA.SOLV.lig_0>
-8.48235

>  <SCORE.INTRA.VDW>
0

>  <SCORE.INTRA.VDW.0>
0

>  <SCORE.INTRA.norm>
0

>  <SCORE.RESTR>
0

>  <SCORE.RESTR.CAVITY>
0

>  <SCORE.RESTR.norm>
0

>  <SCORE.SYSTEM>
-20.6026

>  <SCORE.SYSTEM.CONST>
0

>  <SCORE.SYSTEM.DIHEDRAL>
6.95532

>  <SCORE.SYSTEM.POLAR>
-3.27098

>  <SCORE.SYSTEM.SOLV>
0.42787

>  <SCORE.SYSTEM.VDW>
-5.29285

>  <SCORE.SYSTEM.norm>
-2.06026

>  <SCORE.heavy>
10

>  <SCORE.norm>
-3.79133

$$$$
P136450765
 OpenBabel12072022103D
libRbt.so/2013.1/901 2013/11/27
 11 11  0  0  0  0  0  0  0  0999 V2000
   22.2481  -13.4190    5.5311 C   0  0  0  0  0  0  0  0  0  0  0  0
   23.1158  -13.7829    4.3174 C   0  0  0  0  0  0  0  0  0  0  0  0
   24.4296  -14.4941    4.7371 C   0  0  0  0  0  0  0  0  0  0  0  0
   24.2195  -15.8608    5.2424 N   0  0  0  0  0  0  0  0  0  0  0  0
   23.4942  -16.6260    4.2102 C   0  0  0  0  0  0  0  0  0  0  0  0
   22.1977  -15.9657    3.6913 C   0  0  2  0  0  0  0  0  0  0  0  0
   22.3701  -14.5700    3.3660 O   0  0  0  0  0  0  0  0  0  0  0  0
   21.0557  -16.2106    4.5943 C   0  0  0  0  0  0  0  0  0  0  0  0
   20.1667  -16.4223    5.3118 N   0  0  0  0  0  0  0  0  0  0  0  0
   23.4698  -12.4825    3.5800 C   0  0  0  0  0  0  0  0  0  0  0  0
   23.6599  -15.8250    6.0959 H   0  0  0  0  0  0  0  0  0  0  0  0
  1  2  1  0  0  0  0
  2  3  1  0  0  0  0
  2  7  1  0  0  0  0
  2 10  1  0  0  0  0
  3  4  1  0  0  0  0
  4  5  1  0  0  0  0
  4 11  1  0  0  0  0
  5  6  1  0  0  0  0
  6  7  1  0  0  0  0
  6  8  1  1  0  0  0
  8  9  3  0  0  0  0
M  END
>  <CHROM.0>
-45.74323801,-164.09006189,-55.12982056,-52.73335576,-174.67197284,-61.51336877
-58.71468811,61.60677732,-55.03855597,160.45571057

>  <CHROM.1>
22.70268004,-14.94662583,4.46130530,0.91362645,0.04780530,-0.13756027

>  <Name>
P136450765

>  <RI>
0

>  <Rbt.Current_Directory>
/home/fstefaniak/projects/zuza/docking/adenine/1Y26

>  <Rbt.Executable>
rbdock ($Id: //depot/dev/client3/rdock/2013.1/src/exe/rbdock.cxx#4 $)

>  <Rbt.Library>
libRbt.so (2013.1, Build901 2013/11/27)

>  <Rbt.Parameter_File>
/home/fstefaniak/progs/rDock//data/scripts/dock_solv.prm

>  <Rbt.Receptor>
1y26.prm

>  <SCORE>
-33.7079

>  <SCORE.INTER>
-18.123

>  <SCORE.INTER.CONST>
1

>  <SCORE.INTER.POLAR>
-2.02679

>  <SCORE.INTER.ROT>
0

>  <SCORE.INTER.SOLV>
8.87636

>  <SCORE.INTER.VDW>
-11.8848

>  <SCORE.INTER.norm>
-1.8123

>  <SCORE.INTRA>
0

>  <SCORE.INTRA.DIHEDRAL>
0

>  <SCORE.INTRA.DIHEDRAL.0>
0

>  <SCORE.INTRA.POLAR>
0

>  <SCORE.INTRA.POLAR.0>
0

>  <SCORE.INTRA.REPUL>
0

>  <SCORE.INTRA.REPUL.0>
0

>  <SCORE.INTRA.SOLV>
0

>  <SCORE.INTRA.SOLV.lig_0>
-8.48235

>  <SCORE.INTRA.VDW>
0

>  <SCORE.INTRA.VDW.0>
0

>  <SCORE.INTRA.norm>
0

>  <SCORE.RESTR>
0

>  <SCORE.RESTR.CAVITY>
0

>  <SCORE.RESTR.norm>
0

>  <SCORE.SYSTEM>
-15.5849

>  <SCORE.SYSTEM.CONST>
0

>  <SCORE.SYSTEM.DIHEDRAL>
6.38974

>  <SCORE.SYSTEM.POLAR>
-2.49687

>  <SCORE.SYSTEM.SOLV>
0.387631

>  <SCORE.SYSTEM.VDW>
-4.32619

>  <SCORE.SYSTEM.norm>
-1.55849

>  <SCORE.heavy>
10

>  <SCORE.norm>
-3.37079

$$$$
P136516744
 OpenBabel12072022103D
libRbt.so/2013.1/901 2013/11/27
 14 14  0  0  0  0  0  0  0  0999 V2000
   20.8882  -14.9816    4.1723 C   0  0  0  0  0  0  0  0  0  0  0  0
   20.8335  -16.4969    3.9755 C   0  0  1  0  0  0  0  0  0  0  0  0
   20.1191  -17.1858    5.1431 C   0  0  0  0  0  0  0  0  0  0  0  0
   19.3497  -18.2918    4.4627 C   0  0  0  0  0  0  0  0  0  0  0  0
   18.9538  -17.6361    3.1607 C   0  0  0  0  0  0  0  0  0  0  0  0
   20.0400  -16.7752    2.7938 O   0  0  0  0  0  0  0  0  0  0  0  0
   22.2456  -17.0848    3.7619 C   0  0  0  0  0  0  0  0  0  0  0  0
   23.1987  -16.5945    4.7430 N   0  0  0  0  0  0  0  0  0  0  0  0
   24.3043  -15.9056    4.3492 C   0  0  0  0  0  0  0  0  0  0  0  0
   24.3841  -15.1806    3.3699 O   0  0  0  0  0  0  0  0  0  0  0  0
   25.3609  -16.1209    5.1720 N   0  0  0  0  0  0  0  0  0  0  0  0
   22.7930  -16.2963    5.6207 H   0  0  0  0  0  0  0  0  0  0  0  0
   26.2754  -15.9997    4.7613 H   0  0  0  0  0  0  0  0  0  0  0  0
   25.2444  -15.6997    6.0851 H   0  0  0  0  0  0  0  0  0  0  0  0
  2  1  1  1  0  0  0
  2  3  1  0  0  0  0
  2  6  1  0  0  0  0
  2  7  1  0  0  0  0
  3  4  1  0  0  0  0
  4  5  1  0  0  0  0
  5  6  1  0  0  0  0
  7  8  1  0  0  0  0
  8  9  1  0  0  0  0
  8 12  1  0  0  0  0
  9 10  2  0  0  0  0
  9 11  1  0  0  0  0
 11 13  1  0  0  0  0
 11 14  1  0  0  0  0
M  END
>  <CHROM.0>
-44.58500633,-59.67985405,-52.88903247,-53.58583435,-57.27448720,-58.80473978
-59.34044379,-176.39648463,-166.91489124,161.99321673

>  <CHROM.1>
47.62023113,-119.94853338,31.35672543,154.12461923,21.83020931,-16.54219685
4.10017119,3.01983836,0.29508666,2.36440283

>  <Name>
P136516744

>  <RI>
0

>  <Rbt.Current_Directory>
/home/fstefaniak/projects/zuza/docking/adenine/1Y26

>  <Rbt.Executable>
rbdock ($Id: //depot/dev/client3/rdock/2013.1/src/exe/rbdock.cxx#4 $)

>  <Rbt.Library>
libRbt.so (2013.1, Build901 2013/11/27)

>  <Rbt.Parameter_File>
/home/fstefaniak/progs/rDock//data/scripts/dock_solv.prm

>  <Rbt.Receptor>
1y26.prm

>  <SCORE>
-51.7736

>  <SCORE.INTER>
-30.7521

>  <SCORE.INTER.CONST>
1

>  <SCORE.INTER.POLAR>
-4.96934

>  <SCORE.INTER.ROT>
4

>  <SCORE.INTER.SOLV>
13.1228

>  <SCORE.INTER.VDW>
-14.5779

>  <SCORE.INTER.norm>
-2.79564

>  <SCORE.INTRA>
1.53938

>  <SCORE.INTRA.DIHEDRAL>
2.29219

>  <SCORE.INTRA.DIHEDRAL.0>
1.28093

>  <SCORE.INTRA.POLAR>
0

>  <SCORE.INTRA.POLAR.0>
0

>  <SCORE.INTRA.REPUL>
0

>  <SCORE.INTRA.REPUL.0>
0

>  <SCORE.INTRA.SOLV>
0.0733327

>  <SCORE.INTRA.SOLV.lig_0>
-13.629

>  <SCORE.INTRA.VDW>
0.356615

>  <SCORE.INTRA.VDW.0>
-0.425397

>  <SCORE.INTRA.norm>
0.139943

>  <SCORE.RESTR>
0

>  <SCORE.RESTR.CAVITY>
0

>  <SCORE.RESTR.norm>
0

>  <SCORE.SYSTEM>
-22.5609

>  <SCORE.SYSTEM.CONST>
0

>  <SCORE.SYSTEM.DIHEDRAL>
5.84197

>  <SCORE.SYSTEM.POLAR>
-3.48726

>  <SCORE.SYSTEM.SOLV>
0.464023

>  <SCORE.SYSTEM.VDW>
-5.51838

>  <SCORE.SYSTEM.norm>
-2.05099

>  <SCORE.heavy>
11

>  <SCORE.norm>
-4.70669

$$$$
P136516744
 OpenBabel12072022103D
libRbt.so/2013.1/901 2013/11/27
 14 14  0  0  0  0  0  0  0  0999 V2000
   20.8743  -14.9976    4.2362 C   0  0  0  0  0  0  0  0  0  0  0  0
   20.8273  -16.5079    4.0029 C   0  0  1  0  0  0  0  0  0  0  0  0
   20.1106  -17.2279    5.1503 C   0  0  0  0  0  0  0  0  0  0  0  0
   19.3493  -18.3204    4.4400 C   0  0  0  0  0  0  0  0  0  0  0  0
   18.9563  -17.6355    3.1523 C   0  0  0  0  0  0  0  0  0  0  0  0
   20.0403  -16.7612    2.8112 O   0  0  0  0  0  0  0  0  0  0  0  0
   22.2429  -17.0844    3.7818 C   0  0  0  0  0  0  0  0  0  0  0  0
   23.1960  -16.5908    4.7613 N   0  0  0  0  0  0  0  0  0  0  0  0
   24.2828  -15.8725    4.3679 C   0  0  0  0  0  0  0  0  0  0  0  0
   24.3218  -15.0888    3.4323 O   0  0  0  0  0  0  0  0  0  0  0  0
   25.3714  -16.1309    5.1348 N   0  0  0  0  0  0  0  0  0  0  0  0
   22.7935  -16.3160    5.6480 H   0  0  0  0  0  0  0  0  0  0  0  0
   26.2649  -16.0870    4.6665 H   0  0  0  0  0  0  0  0  0  0  0  0
   25.3394  -15.6710    6.0361 H   0  0  0  0  0  0  0  0  0  0  0  0
  2  1  1  1  0  0  0
  2  3  1  0  0  0  0
  2  6  1  0  0  0  0
  2  7  1  0  0  0  0
  3  4  1  0  0  0  0
  4  5  1  0  0  0  0
  5  6  1  0  0  0  0
  7  8  1  0  0  0  0
  8  9  1  0  0  0  0
  8 12  1  0  0  0  0
  9 10  2  0  0  0  0
  9 11  1  0  0  0  0
 11 13  1  0  0  0  0
 11 14  1  0  0  0  0
M  END
>  <CHROM.0>
63.30920524,-60.01061159,-55.03851053,-51.55919558,-56.86646636,-174.51007303
-55.52087869,-50.09105080,-166.84428881,162.83304867

>  <CHROM.1>
46.36204096,-118.81487474,34.48973350,147.03344993,21.82093611,-16.53857130
4.11504088,2.99833664,0.29504294,2.42017851

>  <Name>
P136516744

>  <RI>
0

>  <Rbt.Current_Directory>
/home/fstefaniak/projects/zuza/docking/adenine/1Y26

>  <Rbt.Executable>
rbdock ($Id: //depot/dev/client3/rdock/2013.1/src/exe/rbdock.cxx#4 $)

>  <Rbt.Library>
libRbt.so (2013.1, Build901 2013/11/27)

>  <Rbt.Parameter_File>
/home/fstefaniak/progs/rDock//data/scripts/dock_solv.prm

>  <Rbt.Receptor>
1y26.prm

>  <SCORE>
-50.3411

>  <SCORE.INTER>
-30.9767

>  <SCORE.INTER.CONST>
1

>  <SCORE.INTER.POLAR>
-5.01451

>  <SCORE.INTER.ROT>
4

>  <SCORE.INTER.SOLV>
12.987

>  <SCORE.INTER.VDW>
-14.5318

>  <SCORE.INTER.norm>
-2.81607

>  <SCORE.INTRA>
1.60168

>  <SCORE.INTRA.DIHEDRAL>
2.3704

>  <SCORE.INTRA.DIHEDRAL.0>
1.28093

>  <SCORE.INTRA.POLAR>
0

>  <SCORE.INTRA.POLAR.0>
0

>  <SCORE.INTRA.REPUL>
0

>  <SCORE.INTRA.REPUL.0>
0

>  <SCORE.INTRA.SOLV>
0.0756004

>  <SCORE.INTRA.SOLV.lig_0>
-13.629

>  <SCORE.INTRA.VDW>
0.378681

>  <SCORE.INTRA.VDW.0>
-0.425397

>  <SCORE.INTRA.norm>
0.145607

>  <SCORE.RESTR>
0

>  <SCORE.RESTR.CAVITY>
0

>  <SCORE.RESTR.norm>
0

>  <SCORE.SYSTEM>
-20.966

>  <SCORE.SYSTEM.CONST>
0

>  <SCORE.SYSTEM.DIHEDRAL>
5.3194

>  <SCORE.SYSTEM.POLAR>
-3.2198

>  <SCORE.SYSTEM.SOLV>
0.50961

>  <SCORE.SYSTEM.VDW>
-5.18767

>  <SCORE.SYSTEM.norm>
-1.906

>  <SCORE.heavy>
11

>  <SCORE.norm>
-4.57646

$$$$
P136516744
 OpenBabel12072022103D
libRbt.so/2013.1/901 2013/11/27
 14 14  0  0  0  0  0  0  0  0999 V2000
   21.2294  -14.8888    4.5066 C   0  0  0  0  0  0  0  0  0  0  0  0
   21.0457  -16.3645    4.1513 C   0  0  1  0  0  0  0  0  0  0  0  0
   20.3389  -17.1260    5.2778 C   0  0  0  0  0  0  0  0  0  0  0  0
   19.4515  -18.0899    4.5286 C   0  0  0  0  0  0  0  0  0  0  0  0
   19.0435  -17.2658    3.3303 C   0  0  0  0  0  0  0  0  0  0  0  0
   20.1743  -16.4504    2.9951 O   0  0  0  0  0  0  0  0  0  0  0  0
   22.3946  -17.0260    3.7931 C   0  0  0  0  0  0  0  0  0  0  0  0
   23.4097  -16.7859    4.8048 N   0  0  0  0  0  0  0  0  0  0  0  0
   24.6794  -16.4536    4.4453 C   0  0  0  0  0  0  0  0  0  0  0  0
   25.0164  -15.9677    3.3769 O   0  0  0  0  0  0  0  0  0  0  0  0
   25.5782  -16.7394    5.4202 N   0  0  0  0  0  0  0  0  0  0  0  0
   23.0722  -16.3504    5.6535 H   0  0  0  0  0  0  0  0  0  0  0  0
   25.5309  -16.1657    6.2498 H   0  0  0  0  0  0  0  0  0  0  0  0
   25.6726  -17.7323    5.5933 H   0  0  0  0  0  0  0  0  0  0  0  0
  2  1  1  1  0  0  0
  2  3  1  0  0  0  0
  2  6  1  0  0  0  0
  2  7  1  0  0  0  0
  3  4  1  0  0  0  0
  4  5  1  0  0  0  0
  5  6  1  0  0  0  0
  7  8  1  0  0  0  0
  8  9  1  0  0  0  0
  8 12  1  0  0  0  0
  9 10  2  0  0  0  0
  9 11  1  0  0  0  0
 11 13  1  0  0  0  0
 11 14  1  0  0  0  0
M  END
>  <CHROM.0>
-49.72816316,-57.25899856,60.08768415,-51.89015937,-54.76414450,59.20577000
74.32084105,-50.67312702,-166.67361976,158.69885869

>  <CHROM.1>
51.08463937,-136.61724014,21.73548573,-69.76627393,22.07210857,-16.63650341
4.24325037,-3.13605631,0.16456515,2.30954935

>  <Name>
P136516744

>  <RI>
0

>  <Rbt.Current_Directory>
/home/fstefaniak/projects/zuza/docking/adenine/1Y26

>  <Rbt.Executable>
rbdock ($Id: //depot/dev/client3/rdock/2013.1/src/exe/rbdock.cxx#4 $)

>  <Rbt.Library>
libRbt.so (2013.1, Build901 2013/11/27)

>  <Rbt.Parameter_File>
/home/fstefaniak/progs/rDock//data/scripts/dock_solv.prm

>  <Rbt.Receptor>
1y26.prm

>  <SCORE>
-49.738

>  <SCORE.INTER>
-31.5846

>  <SCORE.INTER.CONST>
1

>  <SCORE.INTER.POLAR>
-4.95654

>  <SCORE.INTER.ROT>
4

>  <SCORE.INTER.SOLV>
14.1482

>  <SCORE.INTER.VDW>
-15.5173

>  <SCORE.INTER.norm>
-2.87132

>  <SCORE.INTRA>
1.73111

>  <SCORE.INTRA.DIHEDRAL>
2.20577

>  <SCORE.INTRA.DIHEDRAL.0>
1.28093

>  <SCORE.INTRA.POLAR>
0

>  <SCORE.INTRA.POLAR.0>
0

>  <SCORE.INTRA.REPUL>
0

>  <SCORE.INTRA.REPUL.0>
0

>  <SCORE.INTRA.SOLV>
-0.00959743

>  <SCORE.INTRA.SOLV.lig_0>
-13.629

>  <SCORE.INTRA.VDW>
0.633023

>  <SCORE.INTRA.VDW.0>
-0.425397

>  <SCORE.INTRA.norm>
0.157373

>  <SCORE.RESTR>
0

>  <SCORE.RESTR.CAVITY>
0

>  <SCORE.RESTR.norm>
0

>  <SCORE.SYSTEM>
-19.8845

>  <SCORE.SYSTEM.CONST>
0

>  <SCORE.SYSTEM.DIHEDRAL>
7.0251

>  <SCORE.SYSTEM.POLAR>
-3.75907

>  <SCORE.SYSTEM.SOLV>
0.331586

>  <SCORE.SYSTEM.VDW>
-3.17834

>  <SCORE.SYSTEM.norm>
-1.80769

>  <SCORE.heavy>
11

>  <SCORE.norm>
-4.52164

$$$$
P136543364
 OpenBabel12072022103D
libRbt.so/2013.1/901 2013/11/27
 15 16  0  0  0  0  0  0  0  0999 V2000
   22.6243  -14.3802    4.2196 C   0  0  0  0  0  0  0  0  0  0  0  0
   21.1902  -14.6908    4.6201 C   0  0  0  0  0  0  0  0  0  0  0  0
   20.7433  -16.0242    4.1325 C   0  0  0  0  0  0  0  0  0  0  0  0
   20.2548  -17.1147    4.8807 C   0  0  0  0  0  0  0  0  0  0  0  0
   19.9659  -18.1007    3.9686 C   0  0  0  0  0  0  0  0  0  0  0  0
   20.2977  -17.5808    2.7483 N   0  0  0  0  0  0  0  0  0  0  0  0
   20.7663  -16.3096    2.8177 N   0  0  0  0  0  0  0  0  0  0  0  0
   20.2048  -18.2240    1.4627 C   0  0  0  0  0  0  0  0  0  0  0  0
   19.4608  -19.3390    4.2315 N   0  0  0  0  0  0  0  0  0  0  0  0
   18.9695  -19.5088    5.6217 C   0  0  1  0  0  0  0  0  0  0  0  0
   19.8249  -18.6794    6.6460 C   0  0  0  0  0  0  0  0  0  0  0  0
   20.0447  -17.2846    6.2111 N   0  0  0  0  0  0  0  0  0  0  0  0
   17.4886  -19.1327    5.6933 C   0  0  0  0  0  0  0  0  0  0  0  0
   18.9395  -19.8446    3.5219 H   0  0  0  0  0  0  0  0  0  0  0  0
   20.5440  -16.6994    6.8727 H   0  0  0  0  0  0  0  0  0  0  0  0
  1  2  1  0  0  0  0
  2  3  1  0  0  0  0
  3  4  1  0  0  0  0
  3  7  2  0  0  0  0
  4  5  2  0  0  0  0
  4 12  1  0  0  0  0
  5  6  1  0  0  0  0
  5  9  1  0  0  0  0
  6  7  1  0  0  0  0
  6  8  1  0  0  0  0
  9 10  1  0  0  0  0
  9 14  1  0  0  0  0
 10 11  1  0  0  0  0
 10 13  1  6  0  0  0
 11 12  1  0  0  0  0
 12 15  1  0  0  0  0
M  END
>  <CHROM.0>
-52.80486206,58.56675871,-52.84910344,-53.64793635,-56.83190255,-60.81240465
-60.96300799,-51.10082385,-165.15346106,160.41698369

>  <CHROM.1>
122.40525589,20.13666075,-17.41918176,4.39868891,-0.14843718,0.97978861,1.34164859

>  <Name>
P136543364

>  <RI>
0

>  <Rbt.Current_Directory>
/home/fstefaniak/projects/zuza/docking/adenine/1Y26

>  <Rbt.Executable>
rbdock ($Id: //depot/dev/client3/rdock/2013.1/src/exe/rbdock.cxx#4 $)

>  <Rbt.Library>
libRbt.so (2013.1, Build901 2013/11/27)

>  <Rbt.Parameter_File>
/home/fstefaniak/progs/rDock//data/scripts/dock_solv.prm

>  <Rbt.Receptor>
1y26.prm

>  <SCORE>
-32.5293

>  <SCORE.INTER>
-10.471

>  <SCORE.INTER.CONST>
1

>  <SCORE.INTER.POLAR>
-1.21291

>  <SCORE.INTER.ROT>
1

>  <SCORE.INTER.SOLV>
14.291

>  <SCORE.INTER.VDW>
-11.968

>  <SCORE.INTER.norm>
-0.805459

>  <SCORE.INTRA>
-0.437683

>  <SCORE.INTRA.DIHEDRAL>
-1.339

>  <SCORE.INTRA.DIHEDRAL.0>
1.34761

>  <SCORE.INTRA.POLAR>
0

>  <SCORE.INTRA.POLAR.0>
0

>  <SCORE.INTRA.REPUL>
0

>  <SCORE.INTRA.REPUL.0>
0

>  <SCORE.INTRA.SOLV>
-0.0641193

>  <SCORE.INTRA.SOLV.lig_0>
-11.4937

>  <SCORE.INTRA.VDW>
0.263876

>  <SCORE.INTRA.VDW.0>
-0.450218

>  <SCORE.INTRA.norm>
-0.0336679

>  <SCORE.RESTR>
0

>  <SCORE.RESTR.CAVITY>
0

>  <SCORE.RESTR.norm>
0

>  <SCORE.SYSTEM>
-21.6207

>  <SCORE.SYSTEM.CONST>
0

>  <SCORE.SYSTEM.DIHEDRAL>
5.74019

>  <SCORE.SYSTEM.POLAR>
-3.46141

>  <SCORE.SYSTEM.SOLV>
0.700187

>  <SCORE.SYSTEM.VDW>
-5.02254

>  <SCORE.SYSTEM.norm>
-1.66313

>  <SCORE.heavy>
13

>  <SCORE.norm>
-2.50226

$$$$
P136543364
 OpenBabel12072022103D
libRbt.so/2013.1/901 2013/11/27
 15 16  0  0  0  0  0  0  0  0999 V2000
   22.6009  -14.3680    4.1666 C   0  0  0  0  0  0  0  0  0  0  0  0
   21.1901  -14.7029    4.6258 C   0  0  0  0  0  0  0  0  0  0  0  0
   20.7357  -16.0319    4.1331 C   0  0  0  0  0  0  0  0  0  0  0  0
   20.2493  -17.1257    4.8779 C   0  0  0  0  0  0  0  0  0  0  0  0
   19.9509  -18.1049    3.9616 C   0  0  0  0  0  0  0  0  0  0  0  0
   20.2755  -17.5783    2.7423 N   0  0  0  0  0  0  0  0  0  0  0  0
   20.7484  -16.3090    2.8164 N   0  0  0  0  0  0  0  0  0  0  0  0
   20.1714  -18.2131    1.4534 C   0  0  0  0  0  0  0  0  0  0  0  0
   19.4440  -19.3434    4.2204 N   0  0  0  0  0  0  0  0  0  0  0  0
   18.9622  -19.5205    5.6130 C   0  0  1  0  0  0  0  0  0  0  0  0
   19.8275  -18.7002    6.6363 C   0  0  0  0  0  0  0  0  0  0  0  0
   20.0482  -17.3033    6.2087 N   0  0  0  0  0  0  0  0  0  0  0  0
   17.4830  -19.1405    5.6976 C   0  0  0  0  0  0  0  0  0  0  0  0
   18.9161  -19.8430    3.5114 H   0  0  0  0  0  0  0  0  0  0  0  0
   20.5540  -16.7238    6.8704 H   0  0  0  0  0  0  0  0  0  0  0  0
  1  2  1  0  0  0  0
  2  3  1  0  0  0  0
  3  4  1  0  0  0  0
  3  7  2  0  0  0  0
  4  5  2  0  0  0  0
  4 12  1  0  0  0  0
  5  6  1  0  0  0  0
  5  9  1  0  0  0  0
  6  7  1  0  0  0  0
  6  8  1  0  0  0  0
  9 10  1  0  0  0  0
  9 14  1  0  0  0  0
 10 11  1  0  0  0  0
 10 13  1  6  0  0  0
 11 12  1  0  0  0  0
 12 15  1  0  0  0  0
M  END
>  <CHROM.0>
-43.46718088,60.68169532,-50.58666823,-50.66186294,-53.17717833,-62.44554203
-56.34302163,-173.30589302,-166.48545188,162.71020689

>  <CHROM.1>
124.87344098,20.12503638,-17.42454403,4.39060070,-0.16352385,0.98174049,1.35526530

>  <Name>
P136543364

>  <RI>
0

>  <Rbt.Current_Directory>
/home/fstefaniak/projects/zuza/docking/adenine/1Y26

>  <Rbt.Executable>
rbdock ($Id: //depot/dev/client3/rdock/2013.1/src/exe/rbdock.cxx#4 $)

>  <Rbt.Library>
libRbt.so (2013.1, Build901 2013/11/27)

>  <Rbt.Parameter_File>
/home/fstefaniak/progs/rDock//data/scripts/dock_solv.prm

>  <Rbt.Receptor>
1y26.prm

>  <SCORE>
-32.485

>  <SCORE.INTER>
-10.37

>  <SCORE.INTER.CONST>
1

>  <SCORE.INTER.POLAR>
-1.22266

>  <SCORE.INTER.ROT>
1

>  <SCORE.INTER.SOLV>
14.2684

>  <SCORE.INTER.VDW>
-11.8606

>  <SCORE.INTER.norm>
-0.797696

>  <SCORE.INTRA>
-0.386723

>  <SCORE.INTRA.DIHEDRAL>
-1.30839

>  <SCORE.INTRA.DIHEDRAL.0>
1.34761

>  <SCORE.INTRA.POLAR>
0

>  <SCORE.INTRA.POLAR.0>
0

>  <SCORE.INTRA.REPUL>
0

>  <SCORE.INTRA.REPUL.0>
0

>  <SCORE.INTRA.SOLV>
-0.0680204

>  <SCORE.INTRA.SOLV.lig_0>
-11.4937

>  <SCORE.INTRA.VDW>
0.301481

>  <SCORE.INTRA.VDW.0>
-0.450218

>  <SCORE.INTRA.norm>
-0.029748

>  <SCORE.RESTR>
0

>  <SCORE.RESTR.CAVITY>
0

>  <SCORE.RESTR.norm>
0

>  <SCORE.SYSTEM>
-21.7283

>  <SCORE.SYSTEM.CONST>
0

>  <SCORE.SYSTEM.DIHEDRAL>
6.72629

>  <SCORE.SYSTEM.POLAR>
-3.56498

>  <SCORE.SYSTEM.SOLV>
0.511385

>  <SCORE.SYSTEM.VDW>
-5.0148

>  <SCORE.SYSTEM.norm>
-1.6714

>  <SCORE.heavy>
13

>  <SCORE.norm>
-2.49885

$$$$
P136543364
 OpenBabel12072022103D
libRbt.so/2013.1/901 2013/11/27
 15 16  0  0  0  0  0  0  0  0999 V2000
   22.6305  -14.3773    4.2157 C   0  0  0  0  0  0  0  0  0  0  0  0
   21.1917  -14.6817    4.6039 C   0  0  0  0  0  0  0  0  0  0  0  0
   20.7473  -16.0186    4.1235 C   0  0  0  0  0  0  0  0  0  0  0  0
   20.2588  -17.1052    4.8773 C   0  0  0  0  0  0  0  0  0  0  0  0
   19.9728  -18.0969    3.9705 C   0  0  0  0  0  0  0  0  0  0  0  0
   20.3061  -17.5838    2.7477 N   0  0  0  0  0  0  0  0  0  0  0  0
   20.7730  -16.3116    2.8105 N   0  0  0  0  0  0  0  0  0  0  0  0
   20.2163  -18.2347    1.4658 C   0  0  0  0  0  0  0  0  0  0  0  0
   19.4688  -19.3342    4.2399 N   0  0  0  0  0  0  0  0  0  0  0  0
   18.9753  -19.4964    5.6302 C   0  0  1  0  0  0  0  0  0  0  0  0
   19.8279  -18.6599    6.6510 C   0  0  0  0  0  0  0  0  0  0  0  0
   20.0466  -17.2674    6.2083 N   0  0  0  0  0  0  0  0  0  0  0  0
   17.4938  -19.1218    5.6969 C   0  0  0  0  0  0  0  0  0  0  0  0
   18.9494  -19.8448    3.5324 H   0  0  0  0  0  0  0  0  0  0  0  0
   20.5440  -16.6777    6.8673 H   0  0  0  0  0  0  0  0  0  0  0  0
  1  2  1  0  0  0  0
  2  3  1  0  0  0  0
  3  4  1  0  0  0  0
  3  7  2  0  0  0  0
  4  5  2  0  0  0  0
  4 12  1  0  0  0  0
  5  6  1  0  0  0  0
  5  9  1  0  0  0  0
  6  7  1  0  0  0  0
  6  8  1  0  0  0  0
  9 10  1  0  0  0  0
  9 14  1  0  0  0  0
 10 11  1  0  0  0  0
 10 13  1  6  0  0  0
 11 12  1  0  0  0  0
 12 15  1  0  0  0  0
M  END
>  <CHROM.0>
-49.22393118,53.06612930,-56.20741771,-53.41142060,-175.37599163,-59.70007228
-62.60217431,65.23503085,-166.79178889,161.03178920

>  <CHROM.1>
121.85193000,20.14234237,-17.41312144,4.39781570,-0.14456366,0.97990696,1.33371369

>  <Name>
P136543364

>  <RI>
0

>  <Rbt.Current_Directory>
/home/fstefaniak/projects/zuza/docking/adenine/1Y26

>  <Rbt.Executable>
rbdock ($Id: //depot/dev/client3/rdock/2013.1/src/exe/rbdock.cxx#4 $)

>  <Rbt.Library>
libRbt.so (2013.1, Build901 2013/11/27)

>  <Rbt.Parameter_File>
/home/fstefaniak/progs/rDock//data/scripts/dock_solv.prm

>  <Rbt.Receptor>
1y26.prm

>  <SCORE>
-31.7991

>  <SCORE.INTER>
-10.5474

>  <SCORE.INTER.CONST>
1

>  <SCORE.INTER.POLAR>
-1.19733

>  <SCORE.INTER.ROT>
1

>  <SCORE.INTER.SOLV>
14.2884

>  <SCORE.INTER.VDW>
-12.0699

>  <SCORE.INTER.norm>
-0.811335

>  <SCORE.INTRA>
-0.447171

>  <SCORE.INTRA.DIHEDRAL>
-1.34281

>  <SCORE.INTRA.DIHEDRAL.0>
1.34761

>  <SCORE.INTRA.POLAR>
0

>  <SCORE.INTRA.POLAR.0>
0

>  <SCORE.INTRA.REPUL>
0

>  <SCORE.INTRA.REPUL.0>
0

>  <SCORE.INTRA.SOLV>
-0.0632227

>  <SCORE.INTRA.SOLV.lig_0>
-11.4937

>  <SCORE.INTRA.VDW>
0.255845

>  <SCORE.INTRA.VDW.0>
-0.450218

>  <SCORE.INTRA.norm>
-0.0343978

>  <SCORE.RESTR>
0

>  <SCORE.RESTR.CAVITY>
0

>  <SCORE.RESTR.norm>
0

>  <SCORE.SYSTEM>
-20.8046

>  <SCORE.SYSTEM.CONST>
0

>  <SCORE.SYSTEM.DIHEDRAL>
5.66643

>  <SCORE.SYSTEM.POLAR>
-3.45452

>  <SCORE.SYSTEM.SOLV>
0.321964

>  <SCORE.SYSTEM.VDW>
-4.35081

>  <SCORE.SYSTEM.norm>
-1.60035

>  <SCORE.heavy>
13

>  <SCORE.norm>
-2.44609

$$$$
P136543504
 OpenBabel12072022103D
libRbt.so/2013.1/901 2013/11/27
 15 16  0  0  0  0  0  0  0  0999 V2000
   20.4783  -16.3951    3.6781 C   0  0  0  0  0  0  0  0  0  0  0  0
   21.8702  -15.9947    3.9878 C   0  0  0  0  0  0  0  0  0  0  0  0
   22.4220  -14.6915    4.0224 C   0  0  0  0  0  0  0  0  0  0  0  0
   23.7557  -14.8545    4.3324 C   0  0  0  0  0  0  0  0  0  0  0  0
   23.9041  -16.2054    4.5448 N   0  0  0  0  0  0  0  0  0  0  0  0
   22.7823  -16.9226    4.3126 N   0  0  0  0  0  0  0  0  0  0  0  0
   25.1065  -16.8962    4.9409 C   0  0  0  0  0  0  0  0  0  0  0  0
   24.7783  -13.9486    4.4252 N   0  0  0  0  0  0  0  0  0  0  0  0
   24.7334  -12.7487    3.5761 C   0  0  2  0  0  0  0  0  0  0  0  0
   23.5884  -11.7750    3.8968 C   0  0  0  0  0  0  0  0  0  0  0  0
   22.3174  -12.3417    4.5190 C   0  0  0  0  0  0  0  0  0  0  0  0
   21.7975  -13.5024    3.8060 N   0  0  0  0  0  0  0  0  0  0  0  0
   24.7948  -13.1200    2.0900 C   0  0  0  0  0  0  0  0  0  0  0  0
   25.7248  -14.3114    4.5094 H   0  0  0  0  0  0  0  0  0  0  0  0
   20.7819  -13.5166    3.7685 H   0  0  0  0  0  0  0  0  0  0  0  0
  1  2  1  0  0  0  0
  2  3  1  0  0  0  0
  2  6  2  0  0  0  0
  3  4  2  0  0  0  0
  3 12  1  0  0  0  0
  4  5  1  0  0  0  0
  4  8  1  0  0  0  0
  5  6  1  0  0  0  0
  5  7  1  0  0  0  0
  8  9  1  0  0  0  0
  8 14  1  0  0  0  0
  9 10  1  0  0  0  0
  9 13  1  6  0  0  0
 10 11  1  0  0  0  0
 11 12  1  0  0  0  0
 12 15  1  0  0  0  0
M  END
>  <CHROM.0>
-49.55077821,52.61510015,-56.43126070,-52.39708262,-56.65609127,-60.59044605
-60.75957744,-178.32084645,-167.02063408,160.40920483

>  <CHROM.1>
23.27041043,-14.56616705,4.00303567,1.89560259,0.04770009,2.95494090

>  <Name>
P136543504

>  <RI>
0

>  <Rbt.Current_Directory>
/home/fstefaniak/projects/zuza/docking/adenine/1Y26

>  <Rbt.Executable>
rbdock ($Id: //depot/dev/client3/rdock/2013.1/src/exe/rbdock.cxx#4 $)

>  <Rbt.Library>
libRbt.so (2013.1, Build901 2013/11/27)

>  <Rbt.Parameter_File>
/home/fstefaniak/progs/rDock//data/scripts/dock_solv.prm

>  <Rbt.Receptor>
1y26.prm

>  <SCORE>
-38.2476

>  <SCORE.INTER>
-18.0896

>  <SCORE.INTER.CONST>
1

>  <SCORE.INTER.POLAR>
-0.837021

>  <SCORE.INTER.ROT>
0

>  <SCORE.INTER.SOLV>
8.80659

>  <SCORE.INTER.VDW>
-15.8052

>  <SCORE.INTER.norm>
-1.3915

>  <SCORE.INTRA>
0

>  <SCORE.INTRA.DIHEDRAL>
0

>  <SCORE.INTRA.DIHEDRAL.0>
0

>  <SCORE.INTRA.POLAR>
0

>  <SCORE.INTRA.POLAR.0>
0

>  <SCORE.INTRA.REPUL>
0

>  <SCORE.INTRA.REPUL.0>
0

>  <SCORE.INTRA.SOLV>
0

>  <SCORE.INTRA.SOLV.lig_0>
-11.0941

>  <SCORE.INTRA.VDW>
0

>  <SCORE.INTRA.VDW.0>
0

>  <SCORE.INTRA.norm>
0

>  <SCORE.RESTR>
1.95681

>  <SCORE.RESTR.CAVITY>
1.95681

>  <SCORE.RESTR.norm>
0.150524

>  <SCORE.SYSTEM>
-22.1149

>  <SCORE.SYSTEM.CONST>
0

>  <SCORE.SYSTEM.DIHEDRAL>
5.59855

>  <SCORE.SYSTEM.POLAR>
-3.48511

>  <SCORE.SYSTEM.SOLV>
0.514767

>  <SCORE.SYSTEM.VDW>
-5.16401

>  <SCORE.SYSTEM.norm>
-1.70115

>  <SCORE.heavy>
13

>  <SCORE.norm>
-2.94213

$$$$
P136543504
 OpenBabel12072022103D
libRbt.so/2013.1/901 2013/11/27
 15 16  0  0  0  0  0  0  0  0999 V2000
   20.4671  -16.4014    3.6380 C   0  0  0  0  0  0  0  0  0  0  0  0
   21.8640  -16.0160    3.9446 C   0  0  0  0  0  0  0  0  0  0  0  0
   22.4234  -14.7170    4.0046 C   0  0  0  0  0  0  0  0  0  0  0  0
   23.7588  -14.8945    4.2989 C   0  0  0  0  0  0  0  0  0  0  0  0
   23.9014  -16.2508    4.4784 N   0  0  0  0  0  0  0  0  0  0  0  0
   22.7735  -16.9562    4.2396 N   0  0  0  0  0  0  0  0  0  0  0  0
   25.1032  -16.9573    4.8476 C   0  0  0  0  0  0  0  0  0  0  0  0
   24.7874  -13.9966    4.4037 N   0  0  0  0  0  0  0  0  0  0  0  0
   24.7418  -12.7770    3.5832 C   0  0  2  0  0  0  0  0  0  0  0  0
   23.6053  -11.8048    3.9367 C   0  0  0  0  0  0  0  0  0  0  0  0
   22.3366  -12.3788    4.5567 C   0  0  0  0  0  0  0  0  0  0  0  0
   21.8038  -13.5197    3.8215 N   0  0  0  0  0  0  0  0  0  0  0  0
   24.7882  -13.1138    2.0883 C   0  0  0  0  0  0  0  0  0  0  0  0
   25.7324  -14.3665    4.4710 H   0  0  0  0  0  0  0  0  0  0  0  0
   20.7879  -13.5275    3.7928 H   0  0  0  0  0  0  0  0  0  0  0  0
  1  2  1  0  0  0  0
  2  3  1  0  0  0  0
  2  6  2  0  0  0  0
  3  4  2  0  0  0  0
  3 12  1  0  0  0  0
  4  5  1  0  0  0  0
  4  8  1  0  0  0  0
  5  6  1  0  0  0  0
  5  7  1  0  0  0  0
  8  9  1  0  0  0  0
  8 14  1  0  0  0  0
  9 10  1  0  0  0  0
  9 13  1  6  0  0  0
 10 11  1  0  0  0  0
 11 12  1  0  0  0  0
 12 15  1  0  0  0  0
M  END
>  <CHROM.0>
-47.92213786,55.69388568,-56.11903324,-53.12659028,-56.62603930,-176.54070386
-62.02584359,-177.72375764,-166.90231980,160.68939200

>  <CHROM.1>
23.27232887,-14.59589236,3.98065807,1.89957758,0.03803320,2.97808898

>  <Name>
P136543504

>  <RI>
0

>  <Rbt.Current_Directory>
/home/fstefaniak/projects/zuza/docking/adenine/1Y26

>  <Rbt.Executable>
rbdock ($Id: //depot/dev/client3/rdock/2013.1/src/exe/rbdock.cxx#4 $)

>  <Rbt.Library>
libRbt.so (2013.1, Build901 2013/11/27)

>  <Rbt.Parameter_File>
/home/fstefaniak/progs/rDock//data/scripts/dock_solv.prm

>  <Rbt.Receptor>
1y26.prm

>  <SCORE>
-37.9049

>  <SCORE.INTER>
-17.9525

>  <SCORE.INTER.CONST>
1

>  <SCORE.INTER.POLAR>
-0.872019

>  <SCORE.INTER.ROT>
0

>  <SCORE.INTER.SOLV>
8.70252

>  <SCORE.INTER.VDW>
-15.5625

>  <SCORE.INTER.norm>
-1.38096

>  <SCORE.INTRA>
0

>  <SCORE.INTRA.DIHEDRAL>
0

>  <SCORE.INTRA.DIHEDRAL.0>
0

>  <SCORE.INTRA.POLAR>
0

>  <SCORE.INTRA.POLAR.0>
0

>  <SCORE.INTRA.REPUL>
0

>  <SCORE.INTRA.REPUL.0>
0

>  <SCORE.INTRA.SOLV>
0

>  <SCORE.INTRA.SOLV.lig_0>
-11.0941

>  <SCORE.INTRA.VDW>
0

>  <SCORE.INTRA.VDW.0>
0

>  <SCORE.INTRA.norm>
0

>  <SCORE.RESTR>
1.94389

>  <SCORE.RESTR.CAVITY>
1.94389

>  <SCORE.RESTR.norm>
0.14953

>  <SCORE.SYSTEM>
-21.8963

>  <SCORE.SYSTEM.CONST>
0

>  <SCORE.SYSTEM.DIHEDRAL>
5.61613

>  <SCORE.SYSTEM.POLAR>
-3.47445

>  <SCORE.SYSTEM.SOLV>
0.361954

>  <SCORE.SYSTEM.VDW>
-5.00872

>  <SCORE.SYSTEM.norm>
-1.68433

>  <SCORE.heavy>
13

>  <SCORE.norm>
-2.91576

$$$$
P136543504
 OpenBabel12072022103D
libRbt.so/2013.1/901 2013/11/27
 15 16  0  0  0  0  0  0  0  0999 V2000
   20.4694  -16.4175    3.6452 C   0  0  0  0  0  0  0  0  0  0  0  0
   21.8589  -16.0152    3.9635 C   0  0  0  0  0  0  0  0  0  0  0  0
   22.4069  -14.7107    4.0082 C   0  0  0  0  0  0  0  0  0  0  0  0
   23.7396  -14.8720    4.3233 C   0  0  0  0  0  0  0  0  0  0  0  0
   23.8908  -16.2237    4.5284 N   0  0  0  0  0  0  0  0  0  0  0  0
   22.7719  -16.9425    4.2870 N   0  0  0  0  0  0  0  0  0  0  0  0
   25.0932  -16.9136    4.9259 C   0  0  0  0  0  0  0  0  0  0  0  0
   24.7594  -13.9639    4.4259 N   0  0  0  0  0  0  0  0  0  0  0  0
   24.7150  -12.7591    3.5837 C   0  0  2  0  0  0  0  0  0  0  0  0
   23.5660  -11.7904    3.9049 C   0  0  0  0  0  0  0  0  0  0  0  0
   22.2938  -12.3641    4.5180 C   0  0  0  0  0  0  0  0  0  0  0  0
   21.7801  -13.5221    3.7959 N   0  0  0  0  0  0  0  0  0  0  0  0
   24.7841  -13.1215    2.0956 C   0  0  0  0  0  0  0  0  0  0  0  0
   25.7064  -14.3246    4.5123 H   0  0  0  0  0  0  0  0  0  0  0  0
   20.7648  -13.5388    3.7537 H   0  0  0  0  0  0  0  0  0  0  0  0
  1  2  1  0  0  0  0
  2  3  1  0  0  0  0
  2  6  2  0  0  0  0
  3  4  2  0  0  0  0
  3 12  1  0  0  0  0
  4  5  1  0  0  0  0
  4  8  1  0  0  0  0
  5  6  1  0  0  0  0
  5  7  1  0  0  0  0
  8  9  1  0  0  0  0
  8 14  1  0  0  0  0
  9 10  1  0  0  0  0
  9 13  1  6  0  0  0
 10 11  1  0  0  0  0
 11 12  1  0  0  0  0
 12 15  1  0  0  0  0
M  END
>  <CHROM.0>
-51.85678313,51.81691223,-55.91740798,-53.13138454,-57.10430299,-174.41726840
-60.23230081,-176.57769813,-166.44412536,160.73310518

>  <CHROM.1>
23.25506661,-14.58300102,3.99335984,1.89376510,0.05261544,2.96087672

>  <Name>
P136543504

>  <RI>
0

>  <Rbt.Current_Directory>
/home/fstefaniak/projects/zuza/docking/adenine/1Y26

>  <Rbt.Executable>
rbdock ($Id: //depot/dev/client3/rdock/2013.1/src/exe/rbdock.cxx#4 $)

>  <Rbt.Library>
libRbt.so (2013.1, Build901 2013/11/27)

>  <Rbt.Parameter_File>
/home/fstefaniak/progs/rDock//data/scripts/dock_solv.prm

>  <Rbt.Receptor>
1y26.prm

>  <SCORE>
-37.8588

>  <SCORE.INTER>
-17.8975

>  <SCORE.INTER.CONST>
1

>  <SCORE.INTER.POLAR>
-0.838532

>  <SCORE.INTER.ROT>
0

>  <SCORE.INTER.SOLV>
8.79589

>  <SCORE.INTER.VDW>
-15.6685

>  <SCORE.INTER.norm>
-1.37673

>  <SCORE.INTRA>
0

>  <SCORE.INTRA.DIHEDRAL>
0

>  <SCORE.INTRA.DIHEDRAL.0>
0

>  <SCORE.INTRA.POLAR>
0

>  <SCORE.INTRA.POLAR.0>
0

>  <SCORE.INTRA.REPUL>
0

>  <SCORE.INTRA.REPUL.0>
0

>  <SCORE.INTRA.SOLV>
0

>  <SCORE.INTRA.SOLV.lig_0>
-11.0941

>  <SCORE.INTRA.VDW>
0

>  <SCORE.INTRA.VDW.0>
0

>  <SCORE.INTRA.norm>
0

>  <SCORE.RESTR>
1.90727

>  <SCORE.RESTR.CAVITY>
1.90727

>  <SCORE.RESTR.norm>
0.146713

>  <SCORE.SYSTEM>
-21.8686

>  <SCORE.SYSTEM.CONST>
0

>  <SCORE.SYSTEM.DIHEDRAL>
5.60903

>  <SCORE.SYSTEM.POLAR>
-3.44834

>  <SCORE.SYSTEM.SOLV>
0.375032

>  <SCORE.SYSTEM.VDW>
-5.07928

>  <SCORE.SYSTEM.norm>
-1.6822

>  <SCORE.heavy>
13

>  <SCORE.norm>
-2.91222

$$$$
P136606442
 OpenBabel12072022103D
libRbt.so/2013.1/901 2013/11/27
 19 19  0  0  0  0  0  0  0  0999 V2000
   18.7937  -18.0886    2.5889 C   0  0  0  0  0  0  0  0  0  0  0  0
   18.4643  -18.2531    4.0727 C   0  0  0  0  0  0  0  0  0  0  0  0
   19.7846  -18.0995    4.8270 C   0  0  0  0  0  0  0  0  0  0  0  0
   20.6988  -17.3375    3.8703 C   0  0  0  0  0  0  0  0  0  0  0  0
   20.3056  -17.9028    2.5101 C   0  0  0  0  0  0  0  0  0  0  0  0
   20.4683  -15.8981    3.9366 N   0  0  0  0  0  0  0  0  0  0  0  0
   21.4630  -15.0339    4.2791 C   0  0  0  0  0  0  0  0  0  0  0  0
   21.4395  -13.8184    4.1186 O   0  0  0  0  0  0  0  0  0  0  0  0
   22.5356  -15.6744    4.8474 N   0  0  0  0  0  0  0  0  0  0  0  0
   23.8632  -15.4816    4.2834 C   0  0  0  0  0  0  0  0  0  0  0  0
   24.6692  -16.7372    4.4959 C   0  0  0  0  0  0  0  0  0  0  0  0
   24.5657  -17.7202    3.6225 N   0  3  0  0  0  0  0  0  0  0  0  0
   25.0890  -18.5805    3.7279 H   0  0  0  0  0  0  0  0  0  0  0  0
   23.9711  -17.6404    2.8043 H   0  0  0  0  0  0  0  0  0  0  0  0
   25.4470  -16.8291    5.5535 N   0  0  0  0  0  0  0  0  0  0  0  0
   19.5162  -15.5982    4.0948 H   0  0  0  0  0  0  0  0  0  0  0  0
   22.4845  -15.6897    5.8588 H   0  0  0  0  0  0  0  0  0  0  0  0
   25.5512  -15.9995    6.1564 H   0  0  0  0  0  0  0  0  0  0  0  0
   26.0268  -17.6252    5.7721 H   0  0  0  0  0  0  0  0  0  0  0  0
  1  2  1  0  0  0  0
  1  5  1  0  0  0  0
  2  3  1  0  0  0  0
  3  4  1  0  0  0  0
  4  5  1  0  0  0  0
  4  6  1  0  0  0  0
  6  7  1  0  0  0  0
  6 16  1  0  0  0  0
  7  8  2  0  0  0  0
  7  9  1  0  0  0  0
  9 10  1  0  0  0  0
  9 17  1  0  0  0  0
 10 11  1  0  0  0  0
 11 12  2  0  0  0  0
 11 15  1  0  0  0  0
 12 13  1  0  0  0  0
 12 14  1  0  0  0  0
 15 18  1  0  0  0  0
 15 19  1  0  0  0  0
M  CHG  1  12   1
M  END
>  <CHROM.0>
-51.87460994,-64.77588402,-58.35462829,-50.31626228,-176.61692891,-60.23936296
-59.48687770,-177.57659561,-166.40059055,-65.07011531

>  <CHROM.1>
120.62719865,165.33645800,125.40369272,-148.97825113,85.11177388,21.77011848
-16.67163599,4.09351850,-2.86558539,-0.17881467,0.15478215

>  <Name>
P136606442

>  <RI>
0

>  <Rbt.Current_Directory>
/home/fstefaniak/projects/zuza/docking/adenine/1Y26

>  <Rbt.Executable>
rbdock ($Id: //depot/dev/client3/rdock/2013.1/src/exe/rbdock.cxx#4 $)

>  <Rbt.Library>
libRbt.so (2013.1, Build901 2013/11/27)

>  <Rbt.Parameter_File>
/home/fstefaniak/progs/rDock//data/scripts/dock_solv.prm

>  <Rbt.Receptor>
1y26.prm

>  <SCORE>
-61.403

>  <SCORE.INTER>
-42.7607

>  <SCORE.INTER.CONST>
1

>  <SCORE.INTER.POLAR>
-5.62325

>  <SCORE.INTER.ROT>
5

>  <SCORE.INTER.SOLV>
25.2908

>  <SCORE.INTER.VDW>
-25.1265

>  <SCORE.INTER.norm>
-3.28928

>  <SCORE.INTRA>
1.11303

>  <SCORE.INTRA.DIHEDRAL>
0.822789

>  <SCORE.INTRA.DIHEDRAL.0>
3.68913

>  <SCORE.INTRA.POLAR>
0.746047

>  <SCORE.INTRA.POLAR.0>
-0.749906

>  <SCORE.INTRA.REPUL>
0

>  <SCORE.INTRA.REPUL.0>
0

>  <SCORE.INTRA.SOLV>
-1.68599

>  <SCORE.INTRA.SOLV.lig_0>
-34.6748

>  <SCORE.INTRA.VDW>
-0.991929

>  <SCORE.INTRA.VDW.0>
-0.162773

>  <SCORE.INTRA.norm>
0.0856179

>  <SCORE.RESTR>
0

>  <SCORE.RESTR.CAVITY>
0

>  <SCORE.RESTR.norm>
0

>  <SCORE.SYSTEM>
-19.7554

>  <SCORE.SYSTEM.CONST>
0

>  <SCORE.SYSTEM.DIHEDRAL>
3.98432

>  <SCORE.SYSTEM.POLAR>
-2.59757

>  <SCORE.SYSTEM.SOLV>
0.345587

>  <SCORE.SYSTEM.VDW>
-5.955

>  <SCORE.SYSTEM.norm>
-1.51965

>  <SCORE.heavy>
13

>  <SCORE.norm>
-4.72331

$$$$
P136606442
 OpenBabel12072022103D
libRbt.so/2013.1/901 2013/11/27
 19 19  0  0  0  0  0  0  0  0999 V2000
   19.1471  -17.9676    2.8886 C   0  0  0  0  0  0  0  0  0  0  0  0
   18.7380  -18.1034    4.3554 C   0  0  0  0  0  0  0  0  0  0  0  0
   20.0135  -17.9213    5.1773 C   0  0  0  0  0  0  0  0  0  0  0  0
   20.9726  -17.1713    4.2557 C   0  0  0  0  0  0  0  0  0  0  0  0
   20.6594  -17.7693    2.8886 C   0  0  0  0  0  0  0  0  0  0  0  0
   20.7269  -15.7332    4.2777 N   0  0  0  0  0  0  0  0  0  0  0  0
   21.6527  -14.8612    4.7639 C   0  0  0  0  0  0  0  0  0  0  0  0
   21.5107  -13.6466    4.8555 O   0  0  0  0  0  0  0  0  0  0  0  0
   22.8040  -15.4934    5.1618 N   0  0  0  0  0  0  0  0  0  0  0  0
   23.9624  -15.4884    4.2810 C   0  0  0  0  0  0  0  0  0  0  0  0
   24.7380  -16.7637    4.4898 C   0  0  0  0  0  0  0  0  0  0  0  0
   25.4945  -16.8847    5.5634 N   0  3  0  0  0  0  0  0  0  0  0  0
   26.0320  -17.7240    5.7416 H   0  0  0  0  0  0  0  0  0  0  0  0
   25.5495  -16.1468    6.2576 H   0  0  0  0  0  0  0  0  0  0  0  0
   24.6529  -17.7209    3.5906 N   0  0  0  0  0  0  0  0  0  0  0  0
   19.7602  -15.4384    4.2865 H   0  0  0  0  0  0  0  0  0  0  0  0
   22.9985  -15.3573    6.1464 H   0  0  0  0  0  0  0  0  0  0  0  0
   23.9836  -17.6044    2.8154 H   0  0  0  0  0  0  0  0  0  0  0  0
   25.1284  -18.6086    3.6507 H   0  0  0  0  0  0  0  0  0  0  0  0
  1  2  1  0  0  0  0
  1  5  1  0  0  0  0
  2  3  1  0  0  0  0
  3  4  1  0  0  0  0
  4  5  1  0  0  0  0
  4  6  1  0  0  0  0
  6  7  1  0  0  0  0
  6 16  1  0  0  0  0
  7  8  2  0  0  0  0
  7  9  1  0  0  0  0
  9 10  1  0  0  0  0
  9 17  1  0  0  0  0
 10 11  1  0  0  0  0
 11 12  2  0  0  0  0
 11 15  1  0  0  0  0
 12 13  1  0  0  0  0
 12 14  1  0  0  0  0
 15 18  1  0  0  0  0
 15 19  1  0  0  0  0
M  CHG  1  12   1
M  END
>  <CHROM.0>
62.13251278,-68.08855783,-55.12134975,-53.17861658,-172.95597417,57.76206163
-58.50214915,-53.82389848,-168.32997349,161.23581820

>  <CHROM.1>
114.87212524,-177.68354879,100.09827327,-148.51082815,-76.49256871,21.96585661
-16.56878330,4.36491940,-2.87399284,-0.09648862,0.29041825

>  <Name>
P136606442

>  <RI>
0

>  <Rbt.Current_Directory>
/home/fstefaniak/projects/zuza/docking/adenine/1Y26

>  <Rbt.Executable>
rbdock ($Id: //depot/dev/client3/rdock/2013.1/src/exe/rbdock.cxx#4 $)

>  <Rbt.Library>
libRbt.so (2013.1, Build901 2013/11/27)

>  <Rbt.Parameter_File>
/home/fstefaniak/progs/rDock//data/scripts/dock_solv.prm

>  <Rbt.Receptor>
1y26.prm

>  <SCORE>
-61.0251

>  <SCORE.INTER>
-41.7242

>  <SCORE.INTER.CONST>
1

>  <SCORE.INTER.POLAR>
-5.62222

>  <SCORE.INTER.ROT>
5

>  <SCORE.INTER.SOLV>
25.5326

>  <SCORE.INTER.VDW>
-24.5196

>  <SCORE.INTER.norm>
-3.20956

>  <SCORE.INTRA>
1.0149

>  <SCORE.INTRA.DIHEDRAL>
0.697655

>  <SCORE.INTRA.DIHEDRAL.0>
3.68913

>  <SCORE.INTRA.POLAR>
0.746181

>  <SCORE.INTRA.POLAR.0>
-0.749906

>  <SCORE.INTRA.REPUL>
0

>  <SCORE.INTRA.REPUL.0>
0

>  <SCORE.INTRA.SOLV>
-1.36419

>  <SCORE.INTRA.SOLV.lig_0>
-34.6748

>  <SCORE.INTRA.VDW>
-1.18884

>  <SCORE.INTRA.VDW.0>
-0.162773

>  <SCORE.INTRA.norm>
0.0780696

>  <SCORE.RESTR>
0

>  <SCORE.RESTR.CAVITY>
0

>  <SCORE.RESTR.norm>
0

>  <SCORE.SYSTEM>
-20.3158

>  <SCORE.SYSTEM.CONST>
0

>  <SCORE.SYSTEM.DIHEDRAL>
5.2556

>  <SCORE.SYSTEM.POLAR>
-3.19294

>  <SCORE.SYSTEM.SOLV>
0.307468

>  <SCORE.SYSTEM.VDW>
-4.75506

>  <SCORE.SYSTEM.norm>
-1.56275

>  <SCORE.heavy>
13

>  <SCORE.norm>
-4.69424

$$$$
P136606442
 OpenBabel12072022103D
libRbt.so/2013.1/901 2013/11/27
 19 19  0  0  0  0  0  0  0  0999 V2000
   19.1570  -17.8501    2.8057 C   0  0  0  0  0  0  0  0  0  0  0  0
   18.9673  -17.7913    4.3214 C   0  0  0  0  0  0  0  0  0  0  0  0
   20.3673  -17.7053    4.9281 C   0  0  0  0  0  0  0  0  0  0  0  0
   21.2539  -17.1806    3.8010 C   0  0  0  0  0  0  0  0  0  0  0  0
   20.6637  -17.8571    2.5687 C   0  0  0  0  0  0  0  0  0  0  0  0
   21.1866  -15.7269    3.6950 N   0  0  0  0  0  0  0  0  0  0  0  0
   21.8264  -14.9189    4.5848 C   0  0  0  0  0  0  0  0  0  0  0  0
   21.4712  -13.7905    4.9081 O   0  0  0  0  0  0  0  0  0  0  0  0
   22.9481  -15.5097    5.1105 N   0  0  0  0  0  0  0  0  0  0  0  0
   24.1766  -15.5301    4.3306 C   0  0  0  0  0  0  0  0  0  0  0  0
   24.8819  -16.8406    4.5679 C   0  0  0  0  0  0  0  0  0  0  0  0
   24.8089  -17.7829    3.6479 N   0  3  0  0  0  0  0  0  0  0  0  0
   25.2674  -18.6777    3.7677 H   0  0  0  0  0  0  0  0  0  0  0  0
   24.3051  -17.6364    2.7795 H   0  0  0  0  0  0  0  0  0  0  0  0
   25.5428  -17.0193    5.6918 N   0  0  0  0  0  0  0  0  0  0  0  0
   20.3865  -15.3441    3.2105 H   0  0  0  0  0  0  0  0  0  0  0  0
   23.0570  -15.3194    6.0993 H   0  0  0  0  0  0  0  0  0  0  0  0
   25.6347  -16.2202    6.3365 H   0  0  0  0  0  0  0  0  0  0  0  0
   26.0499  -17.8576    5.9323 H   0  0  0  0  0  0  0  0  0  0  0  0
  1  2  1  0  0  0  0
  1  5  1  0  0  0  0
  2  3  1  0  0  0  0
  3  4  1  0  0  0  0
  4  5  1  0  0  0  0
  4  6  1  0  0  0  0
  6  7  1  0  0  0  0
  6 16  1  0  0  0  0
  7  8  2  0  0  0  0
  7  9  1  0  0  0  0
  9 10  1  0  0  0  0
  9 17  1  0  0  0  0
 10 11  1  0  0  0  0
 11 12  2  0  0  0  0
 11 15  1  0  0  0  0
 12 13  1  0  0  0  0
 12 14  1  0  0  0  0
 15 18  1  0  0  0  0
 15 19  1  0  0  0  0
M  CHG  1  12   1
M  END
>  <CHROM.0>
-176.33650186,-65.00560948,-56.16651904,-51.63622972,-56.23175628,-174.02920679
-54.06786978,-173.87258291,-167.56899049,160.77478014

>  <CHROM.1>
75.50094051,-151.07521774,79.43429425,-143.00797987,102.58855075,22.13213602
-16.56808360,4.24467826,-2.90921077,-0.16935348,0.33098322

>  <Name>
P136606442

>  <RI>
0

>  <Rbt.Current_Directory>
/home/fstefaniak/projects/zuza/docking/adenine/1Y26

>  <Rbt.Executable>
rbdock ($Id: //depot/dev/client3/rdock/2013.1/src/exe/rbdock.cxx#4 $)

>  <Rbt.Library>
libRbt.so (2013.1, Build901 2013/11/27)

>  <Rbt.Parameter_File>
/home/fstefaniak/progs/rDock//data/scripts/dock_solv.prm

>  <Rbt.Receptor>
1y26.prm

>  <SCORE>
-59.894

>  <SCORE.INTER>
-39.1556

>  <SCORE.INTER.CONST>
1

>  <SCORE.INTER.POLAR>
-5.8051

>  <SCORE.INTER.ROT>
5

>  <SCORE.INTER.SOLV>
26.1822

>  <SCORE.INTER.VDW>
-22.4141

>  <SCORE.INTER.norm>
-3.01197

>  <SCORE.INTRA>
0.512354

>  <SCORE.INTRA.DIHEDRAL>
0.0211972

>  <SCORE.INTRA.DIHEDRAL.0>
3.68913

>  <SCORE.INTRA.POLAR>
0.746015

>  <SCORE.INTRA.POLAR.0>
-0.749906

>  <SCORE.INTRA.REPUL>
0

>  <SCORE.INTRA.REPUL.0>
0

>  <SCORE.INTRA.SOLV>
-1.17686

>  <SCORE.INTRA.SOLV.lig_0>
-34.6748

>  <SCORE.INTRA.VDW>
-1.44626

>  <SCORE.INTRA.VDW.0>
-0.162773

>  <SCORE.INTRA.norm>
0.0394119

>  <SCORE.RESTR>
0

>  <SCORE.RESTR.CAVITY>
0

>  <SCORE.RESTR.norm>
0

>  <SCORE.SYSTEM>
-21.2508

>  <SCORE.SYSTEM.CONST>
0

>  <SCORE.SYSTEM.DIHEDRAL>
5.45188

>  <SCORE.SYSTEM.POLAR>
-3.23197

>  <SCORE.SYSTEM.SOLV>
0.27093

>  <SCORE.SYSTEM.VDW>
-5.30156

>  <SCORE.SYSTEM.norm>
-1.63468

>  <SCORE.heavy>
13

>  <SCORE.norm>
-4.60723

$$$$
P136618838
 OpenBabel12072022103D
libRbt.so/2013.1/901 2013/11/27
 17 18  0  0  0  0  0  0  0  0999 V2000
   23.6478  -15.4887    5.2276 C   0  0  0  0  0  0  0  0  0  0  0  0
   22.7582  -14.2513    5.3487 C   0  0  0  0  0  0  0  0  0  0  0  0
   21.8701  -14.2393    4.1058 C   0  0  0  0  0  0  0  0  0  0  0  0
   21.8512  -15.6889    3.6249 C   0  0  0  0  0  0  0  0  0  0  0  0
   23.2797  -16.1463    3.9002 C   0  0  0  0  0  0  0  0  0  0  0  0
   20.8897  -16.4901    4.3633 N   0  0  0  0  0  0  0  0  0  0  0  0
   19.6991  -16.8673    3.8107 C   0  0  0  0  0  0  0  0  0  0  0  0
   19.2566  -16.4229    2.7573 O   0  0  0  0  0  0  0  0  0  0  0  0
   19.0033  -17.8118    4.5115 N   0  0  0  0  0  0  0  0  0  0  0  0
   19.4049  -18.4691    5.7149 C   0  0  2  0  0  0  0  0  0  0  0  0
   19.2449  -19.9571    5.8614 C   0  0  0  0  0  0  0  0  0  0  0  0
   18.3834  -19.0374    6.6739 C   0  0  2  0  0  0  0  0  0  0  0  0
   16.9536  -18.9485    6.3656 N   0  0  0  0  0  0  0  0  0  0  0  0
   20.9096  -16.4436    5.3700 H   0  0  0  0  0  0  0  0  0  0  0  0
   18.1491  -18.1056    4.0528 H   0  0  0  0  0  0  0  0  0  0  0  0
   16.4434  -19.7387    6.7586 H   0  0  0  0  0  0  0  0  0  0  0  0
   16.5463  -18.1263    6.8158 H   0  0  0  0  0  0  0  0  0  0  0  0
  1  2  1  0  0  0  0
  1  5  1  0  0  0  0
  2  3  1  0  0  0  0
  3  4  1  0  0  0  0
  4  5  1  0  0  0  0
  4  6  1  0  0  0  0
  6  7  1  0  0  0  0
  6 14  1  0  0  0  0
  7  8  2  0  0  0  0
  7  9  1  0  0  0  0
  9 15  1  0  0  0  0
 10 11  1  0  0  0  0
 10  9  1  6  0  0  0
 10 12  1  0  0  0  0
 11 12  1  0  0  0  0
 12 13  1  6  0  0  0
 13 16  1  0  0  0  0
 13 17  1  0  0  0  0
M  END
>  <CHROM.0>
-49.05194157,-59.60290747,-56.24608602,-52.40188485,-55.68339021,-60.97677380
-57.58252545,-51.10751466,-166.65755284,162.09695093

>  <CHROM.1>
105.08195613,-10.86529086,-134.51660160,149.23703881,20.43170571,-16.91678537
4.79052931,-0.61650543,0.45210880,2.22006823

>  <Name>
P136618838

>  <RI>
0

>  <Rbt.Current_Directory>
/home/fstefaniak/projects/zuza/docking/adenine/1Y26

>  <Rbt.Executable>
rbdock ($Id: //depot/dev/client3/rdock/2013.1/src/exe/rbdock.cxx#4 $)

>  <Rbt.Library>
libRbt.so (2013.1, Build901 2013/11/27)

>  <Rbt.Parameter_File>
/home/fstefaniak/progs/rDock//data/scripts/dock_solv.prm

>  <Rbt.Receptor>
1y26.prm

>  <SCORE>
-53.429

>  <SCORE.INTER>
-31.091

>  <SCORE.INTER.CONST>
1

>  <SCORE.INTER.POLAR>
-4.19942

>  <SCORE.INTER.ROT>
4

>  <SCORE.INTER.SOLV>
14.7142

>  <SCORE.INTER.VDW>
-17.9007

>  <SCORE.INTER.norm>
-2.39161

>  <SCORE.INTRA>
-0.134623

>  <SCORE.INTRA.DIHEDRAL>
0.443733

>  <SCORE.INTRA.DIHEDRAL.0>
3.47871

>  <SCORE.INTRA.POLAR>
0

>  <SCORE.INTRA.POLAR.0>
0

>  <SCORE.INTRA.REPUL>
0

>  <SCORE.INTRA.REPUL.0>
0

>  <SCORE.INTRA.SOLV>
-1.14375

>  <SCORE.INTRA.SOLV.lig_0>
-15.5703

>  <SCORE.INTRA.VDW>
0.215386

>  <SCORE.INTRA.VDW.0>
-1.71192

>  <SCORE.INTRA.norm>
-0.0103556

>  <SCORE.RESTR>
0

>  <SCORE.RESTR.CAVITY>
0

>  <SCORE.RESTR.norm>
0

>  <SCORE.SYSTEM>
-22.2034

>  <SCORE.SYSTEM.CONST>
0

>  <SCORE.SYSTEM.DIHEDRAL>
5.60402

>  <SCORE.SYSTEM.POLAR>
-3.45098

>  <SCORE.SYSTEM.SOLV>
0.668865

>  <SCORE.SYSTEM.VDW>
-5.38997

>  <SCORE.SYSTEM.norm>
-1.70796

>  <SCORE.heavy>
13

>  <SCORE.norm>
-4.10993

$$$$
P136618838
 OpenBabel12072022103D
libRbt.so/2013.1/901 2013/11/27
 17 18  0  0  0  0  0  0  0  0999 V2000
   17.7985  -18.9912    5.1067 C   0  0  0  0  0  0  0  0  0  0  0  0
   18.2495  -18.9353    6.5665 C   0  0  0  0  0  0  0  0  0  0  0  0
   19.7769  -18.9342    6.5429 C   0  0  0  0  0  0  0  0  0  0  0  0
   20.1460  -18.4222    5.1519 C   0  0  0  0  0  0  0  0  0  0  0  0
   19.0747  -19.0571    4.2718 C   0  0  0  0  0  0  0  0  0  0  0  0
   20.0959  -16.9717    5.0798 N   0  0  0  0  0  0  0  0  0  0  0  0
   20.0167  -16.3177    3.8835 C   0  0  0  0  0  0  0  0  0  0  0  0
   19.1119  -16.4736    3.0712 O   0  0  0  0  0  0  0  0  0  0  0  0
   21.0300  -15.4360    3.6320 N   0  0  0  0  0  0  0  0  0  0  0  0
   22.1183  -15.0973    4.4936 C   0  0  2  0  0  0  0  0  0  0  0  0
   22.1897  -13.7388    5.1344 C   0  0  0  0  0  0  0  0  0  0  0  0
   23.1751  -14.1043    4.0651 C   0  0  2  0  0  0  0  0  0  0  0  0
   23.0814  -13.4457    2.7595 N   0  0  0  0  0  0  0  0  0  0  0  0
   20.4989  -16.4464    5.8398 H   0  0  0  0  0  0  0  0  0  0  0  0
   20.9182  -14.9320    2.7602 H   0  0  0  0  0  0  0  0  0  0  0  0
   22.1205  -13.1753    2.5528 H   0  0  0  0  0  0  0  0  0  0  0  0
   23.6023  -12.5664    2.7700 H   0  0  0  0  0  0  0  0  0  0  0  0
  1  2  1  0  0  0  0
  1  5  1  0  0  0  0
  2  3  1  0  0  0  0
  3  4  1  0  0  0  0
  4  5  1  0  0  0  0
  4  6  1  0  0  0  0
  6  7  1  0  0  0  0
  6 14  1  0  0  0  0
  7  8  2  0  0  0  0
  7  9  1  0  0  0  0
  9 15  1  0  0  0  0
 10 11  1  0  0  0  0
 10  9  1  6  0  0  0
 10 12  1  0  0  0  0
 11 12  1  0  0  0  0
 12 13  1  6  0  0  0
 13 16  1  0  0  0  0
 13 17  1  0  0  0  0
M  END
>  <CHROM.0>
59.95995997,-59.65617829,-58.95989991,-49.02895898,56.31349535,-177.22238966
-62.94059909,62.90432601,-166.26308417,160.45307035

>  <CHROM.1>
-161.39586139,58.99390242,-109.77949716,41.01855479,20.44805158,-16.57268032
4.56439632,2.48765530,0.72572691,2.08298894

>  <Name>
P136618838

>  <RI>
0

>  <Rbt.Current_Directory>
/home/fstefaniak/projects/zuza/docking/adenine/1Y26

>  <Rbt.Executable>
rbdock ($Id: //depot/dev/client3/rdock/2013.1/src/exe/rbdock.cxx#4 $)

>  <Rbt.Library>
libRbt.so (2013.1, Build901 2013/11/27)

>  <Rbt.Parameter_File>
/home/fstefaniak/progs/rDock//data/scripts/dock_solv.prm

>  <Rbt.Receptor>
1y26.prm

>  <SCORE>
-53.3011

>  <SCORE.INTER>
-35.2967

>  <SCORE.INTER.CONST>
1

>  <SCORE.INTER.POLAR>
-4.25327

>  <SCORE.INTER.ROT>
4

>  <SCORE.INTER.SOLV>
14.2277

>  <SCORE.INTER.VDW>
-20.3628

>  <SCORE.INTER.norm>
-2.71513

>  <SCORE.INTRA>
0.755446

>  <SCORE.INTRA.DIHEDRAL>
0.0274803

>  <SCORE.INTRA.DIHEDRAL.0>
3.47871

>  <SCORE.INTRA.POLAR>
0

>  <SCORE.INTRA.POLAR.0>
0

>  <SCORE.INTRA.REPUL>
0

>  <SCORE.INTRA.REPUL.0>
0

>  <SCORE.INTRA.SOLV>
-0.551205

>  <SCORE.INTRA.SOLV.lig_0>
-15.5703

>  <SCORE.INTRA.VDW>
1.01731

>  <SCORE.INTRA.VDW.0>
-1.71192

>  <SCORE.INTRA.norm>
0.0581112

>  <SCORE.RESTR>
0

>  <SCORE.RESTR.CAVITY>
0

>  <SCORE.RESTR.norm>
0

>  <SCORE.SYSTEM>
-18.7599

>  <SCORE.SYSTEM.CONST>
0

>  <SCORE.SYSTEM.DIHEDRAL>
5.22732

>  <SCORE.SYSTEM.POLAR>
-3.27541

>  <SCORE.SYSTEM.SOLV>
0.0554064

>  <SCORE.SYSTEM.VDW>
-3.34947

>  <SCORE.SYSTEM.norm>
-1.44307

>  <SCORE.heavy>
13

>  <SCORE.norm>
-4.10009

$$$$
P136618838
 OpenBabel12072022103D
libRbt.so/2013.1/901 2013/11/27
 17 18  0  0  0  0  0  0  0  0999 V2000
   25.2097  -16.5493    5.3024 C   0  0  0  0  0  0  0  0  0  0  0  0
   24.8845  -15.0650    5.1344 C   0  0  0  0  0  0  0  0  0  0  0  0
   23.9843  -14.9606    3.9046 C   0  0  0  0  0  0  0  0  0  0  0  0
   23.3668  -16.3494    3.7532 C   0  0  0  0  0  0  0  0  0  0  0  0
   24.5196  -17.2674    4.1457 C   0  0  0  0  0  0  0  0  0  0  0  0
   22.2249  -16.5315    4.6333 N   0  0  0  0  0  0  0  0  0  0  0  0
   21.0529  -15.8599    4.4320 C   0  0  0  0  0  0  0  0  0  0  0  0
   20.9605  -14.6392    4.3661 O   0  0  0  0  0  0  0  0  0  0  0  0
   19.9456  -16.6478    4.2892 N   0  0  0  0  0  0  0  0  0  0  0  0
   19.8928  -18.0757    4.2810 C   0  0  2  0  0  0  0  0  0  0  0  0
   18.6230  -18.7942    4.6449 C   0  0  0  0  0  0  0  0  0  0  0  0
   19.8016  -18.8622    5.5692 C   0  0  2  0  0  0  0  0  0  0  0  0
   19.7348  -18.1642    6.8558 N   0  0  0  0  0  0  0  0  0  0  0  0
   22.4005  -16.8313    5.5795 H   0  0  0  0  0  0  0  0  0  0  0  0
   19.1009  -16.1238    4.0936 H   0  0  0  0  0  0  0  0  0  0  0  0
   20.2994  -17.3155    6.8429 H   0  0  0  0  0  0  0  0  0  0  0  0
   18.7818  -17.8396    7.0318 H   0  0  0  0  0  0  0  0  0  0  0  0
  1  2  1  0  0  0  0
  1  5  1  0  0  0  0
  2  3  1  0  0  0  0
  3  4  1  0  0  0  0
  4  5  1  0  0  0  0
  4  6  1  0  0  0  0
  6  7  1  0  0  0  0
  6 14  1  0  0  0  0
  7  8  2  0  0  0  0
  7  9  1  0  0  0  0
  9 15  1  0  0  0  0
 10 11  1  0  0  0  0
 10  9  1  1  0  0  0
 10 12  1  0  0  0  0
 11 12  1  0  0  0  0
 12 13  1  1  0  0  0
 13 16  1  0  0  0  0
 13 17  1  0  0  0  0
M  END
>  <CHROM.0>
-49.85315415,-55.25123568,-49.36106505,-50.45987720,-54.71892910,-174.78982143
-56.72062724,-176.23734064,-167.99698349,160.65688310

>  <CHROM.1>
69.26563976,-56.16210747,156.19066829,-35.25207320,21.83734697,-16.72760243
4.74422229,-0.44248200,0.06113335,2.73521923

>  <Name>
P136618838

>  <RI>
0

>  <Rbt.Current_Directory>
/home/fstefaniak/projects/zuza/docking/adenine/1Y26

>  <Rbt.Executable>
rbdock ($Id: //depot/dev/client3/rdock/2013.1/src/exe/rbdock.cxx#4 $)

>  <Rbt.Library>
libRbt.so (2013.1, Build901 2013/11/27)

>  <Rbt.Parameter_File>
/home/fstefaniak/progs/rDock//data/scripts/dock_solv.prm

>  <Rbt.Receptor>
1y26.prm

>  <SCORE>
-53.037

>  <SCORE.INTER>
-30.8058

>  <SCORE.INTER.CONST>
1

>  <SCORE.INTER.POLAR>
-3.27545

>  <SCORE.INTER.ROT>
4

>  <SCORE.INTER.SOLV>
15.6958

>  <SCORE.INTER.VDW>
-21.1176

>  <SCORE.INTER.norm>
-2.36967

>  <SCORE.INTRA>
-0.0468847

>  <SCORE.INTRA.DIHEDRAL>
0.0928827

>  <SCORE.INTRA.DIHEDRAL.0>
3.47871

>  <SCORE.INTRA.POLAR>
0

>  <SCORE.INTRA.POLAR.0>
0

>  <SCORE.INTRA.REPUL>
0

>  <SCORE.INTRA.REPUL.0>
0

>  <SCORE.INTRA.SOLV>
-0.0218151

>  <SCORE.INTRA.SOLV.lig_0>
-15.5703

>  <SCORE.INTRA.VDW>
-0.0824185

>  <SCORE.INTRA.VDW.0>
-1.71192

>  <SCORE.INTRA.norm>
-0.00360651

>  <SCORE.RESTR>
0

>  <SCORE.RESTR.CAVITY>
0

>  <SCORE.RESTR.norm>
0

>  <SCORE.SYSTEM>
-22.1844

>  <SCORE.SYSTEM.CONST>
0

>  <SCORE.SYSTEM.DIHEDRAL>
6.17835

>  <SCORE.SYSTEM.POLAR>
-3.52716

>  <SCORE.SYSTEM.SOLV>
0.337802

>  <SCORE.SYSTEM.VDW>
-5.20444

>  <SCORE.SYSTEM.norm>
-1.70649

>  <SCORE.heavy>
13

>  <SCORE.norm>
-4.07977

$$$$
P136897612
 OpenBabel12072022103D
libRbt.so/2013.1/901 2013/11/27
 17 17  0  0  0  0  0  0  0  0999 V2000
   19.3114  -18.6385    5.9663 C   0  0  0  0  0  0  0  0  0  0  0  0
   18.7897  -19.5451    4.8458 C   0  0  0  0  0  0  0  0  0  0  0  0
   18.4222  -18.7745    3.6960 O   0  0  0  0  0  0  0  0  0  0  0  0
   19.5535  -18.0311    3.2145 C   0  0  0  0  0  0  0  0  0  0  0  0
   20.1106  -17.0781    4.3015 C   0  0  1  0  0  0  0  0  0  0  0  0
   20.4672  -17.8409    5.5276 N   0  0  0  0  0  0  0  0  0  0  0  0
   21.3607  -16.3309    3.8146 C   0  0  0  0  0  0  0  0  0  0  0  0
   21.9701  -15.4413    4.8803 C   0  0  0  0  0  0  0  0  0  0  0  0
   21.3061  -14.6687    5.5722 O   0  0  0  0  0  0  0  0  0  0  0  0
   23.3233  -15.5317    5.1144 N   0  0  0  0  0  0  0  0  0  0  0  0
   24.2038  -16.4994    4.7050 C   0  0  0  0  0  0  0  0  0  0  0  0
   23.9893  -17.3931    3.9005 O   0  0  0  0  0  0  0  0  0  0  0  0
   25.4451  -16.3473    5.2462 N   0  0  0  0  0  0  0  0  0  0  0  0
   20.7249  -17.1893    6.2688 H   0  0  0  0  0  0  0  0  0  0  0  0
   23.6426  -14.8944    5.8251 H   0  0  0  0  0  0  0  0  0  0  0  0
   26.2096  -16.0288    4.6692 H   0  0  0  0  0  0  0  0  0  0  0  0
   25.4331  -15.9647    6.1852 H   0  0  0  0  0  0  0  0  0  0  0  0
  1  2  1  0  0  0  0
  1  6  1  0  0  0  0
  2  3  1  0  0  0  0
  3  4  1  0  0  0  0
  4  5  1  0  0  0  0
  5  6  1  0  0  0  0
  5  7  1  6  0  0  0
  6 14  1  0  0  0  0
  7  8  1  0  0  0  0
  8  9  2  0  0  0  0
  8 10  1  0  0  0  0
 10 11  1  0  0  0  0
 10 15  1  0  0  0  0
 11 12  2  0  0  0  0
 11 13  1  0  0  0  0
 13 16  1  0  0  0  0
 13 17  1  0  0  0  0
M  END
>  <CHROM.0>
-56.06154828,-63.26672270,-55.54086503,-53.10546873,-55.64634349,-60.18212289
-61.10995486,64.11580991,-166.70565594,161.04267198

>  <CHROM.1>
-177.15021680,-47.12104941,-107.56971205,21.42500288,-17.08301739,4.68886004
2.67255844,-0.07109181,-2.83112893

>  <Name>
P136897612

>  <RI>
0

>  <Rbt.Current_Directory>
/home/fstefaniak/projects/zuza/docking/adenine/1Y26

>  <Rbt.Executable>
rbdock ($Id: //depot/dev/client3/rdock/2013.1/src/exe/rbdock.cxx#4 $)

>  <Rbt.Library>
libRbt.so (2013.1, Build901 2013/11/27)

>  <Rbt.Parameter_File>
/home/fstefaniak/progs/rDock//data/scripts/dock_solv.prm

>  <Rbt.Receptor>
1y26.prm

>  <SCORE>
-62.7625

>  <SCORE.INTER>
-41.9273

>  <SCORE.INTER.CONST>
1

>  <SCORE.INTER.POLAR>
-5.0662

>  <SCORE.INTER.ROT>
3

>  <SCORE.INTER.SOLV>
18.7834

>  <SCORE.INTER.VDW>
-22.9253

>  <SCORE.INTER.norm>
-3.22518

>  <SCORE.INTRA>
0.625839

>  <SCORE.INTRA.DIHEDRAL>
1.25673

>  <SCORE.INTRA.DIHEDRAL.0>
1.89798

>  <SCORE.INTRA.POLAR>
0

>  <SCORE.INTRA.POLAR.0>
0

>  <SCORE.INTRA.REPUL>
0

>  <SCORE.INTRA.REPUL.0>
0

>  <SCORE.INTRA.SOLV>
1.13529

>  <SCORE.INTRA.SOLV.lig_0>
-24.6586

>  <SCORE.INTRA.VDW>
-0.57017

>  <SCORE.INTRA.VDW.0>
-0.379583

>  <SCORE.INTRA.norm>
0.0481415

>  <SCORE.RESTR>
0

>  <SCORE.RESTR.CAVITY>
0

>  <SCORE.RESTR.norm>
0

>  <SCORE.SYSTEM>
-21.461

>  <SCORE.SYSTEM.CONST>
0

>  <SCORE.SYSTEM.DIHEDRAL>
4.97928

>  <SCORE.SYSTEM.POLAR>
-3.35405

>  <SCORE.SYSTEM.SOLV>
0.415894

>  <SCORE.SYSTEM.VDW>
-4.92557

>  <SCORE.SYSTEM.norm>
-1.65085

>  <SCORE.heavy>
13

>  <SCORE.norm>
-4.82788

$$$$
P136897612
 OpenBabel12072022103D
libRbt.so/2013.1/901 2013/11/27
 17 17  0  0  0  0  0  0  0  0999 V2000
   19.3666  -18.6318    5.9465 C   0  0  0  0  0  0  0  0  0  0  0  0
   18.8592  -19.5424    4.8226 C   0  0  0  0  0  0  0  0  0  0  0  0
   18.4656  -18.7725    3.6810 O   0  0  0  0  0  0  0  0  0  0  0  0
   19.5755  -17.9986    3.1978 C   0  0  0  0  0  0  0  0  0  0  0  0
   20.1169  -17.0406    4.2882 C   0  0  1  0  0  0  0  0  0  0  0  0
   20.5000  -17.8035    5.5062 N   0  0  0  0  0  0  0  0  0  0  0  0
   21.3455  -16.2600    3.7987 C   0  0  0  0  0  0  0  0  0  0  0  0
   21.9660  -15.3962    4.8791 C   0  0  0  0  0  0  0  0  0  0  0  0
   21.3109  -14.6311    5.5877 O   0  0  0  0  0  0  0  0  0  0  0  0
   23.3191  -15.5029    5.1071 N   0  0  0  0  0  0  0  0  0  0  0  0
   24.1898  -16.4704    4.6766 C   0  0  0  0  0  0  0  0  0  0  0  0
   23.9649  -17.3466    3.8559 O   0  0  0  0  0  0  0  0  0  0  0  0
   25.4339  -16.3395    5.2165 N   0  0  0  0  0  0  0  0  0  0  0  0
   20.7470  -17.1513    6.2505 H   0  0  0  0  0  0  0  0  0  0  0  0
   23.6461  -14.8821    5.8288 H   0  0  0  0  0  0  0  0  0  0  0  0
   26.2158  -16.0985    4.6255 H   0  0  0  0  0  0  0  0  0  0  0  0
   25.4352  -15.8919    6.1265 H   0  0  0  0  0  0  0  0  0  0  0  0
  1  2  1  0  0  0  0
  1  6  1  0  0  0  0
  2  3  1  0  0  0  0
  3  4  1  0  0  0  0
  4  5  1  0  0  0  0
  5  6  1  0  0  0  0
  5  7  1  6  0  0  0
  6 14  1  0  0  0  0
  7  8  1  0  0  0  0
  8  9  2  0  0  0  0
  8 10  1  0  0  0  0
 10 11  1  0  0  0  0
 10 15  1  0  0  0  0
 11 12  2  0  0  0  0
 11 13  1  0  0  0  0
 13 16  1  0  0  0  0
 13 17  1  0  0  0  0
M  END
>  <CHROM.0>
-48.31831553,-57.73129890,-53.18729191,-52.41256431,-54.74088110,-175.26684171
-62.49868741,65.92119745,-166.57633998,161.06523258

>  <CHROM.1>
-175.39141606,-48.98335861,-113.15700050,21.43766609,-17.05400679,4.67161582
2.66397795,-0.07307100,-2.83042938

>  <Name>
P136897612

>  <RI>
0

>  <Rbt.Current_Directory>
/home/fstefaniak/projects/zuza/docking/adenine/1Y26

>  <Rbt.Executable>
rbdock ($Id: //depot/dev/client3/rdock/2013.1/src/exe/rbdock.cxx#4 $)

>  <Rbt.Library>
libRbt.so (2013.1, Build901 2013/11/27)

>  <Rbt.Parameter_File>
/home/fstefaniak/progs/rDock//data/scripts/dock_solv.prm

>  <Rbt.Receptor>
1y26.prm

>  <SCORE>
-62.6814

>  <SCORE.INTER>
-42.2745

>  <SCORE.INTER.CONST>
1

>  <SCORE.INTER.POLAR>
-5.04918

>  <SCORE.INTER.ROT>
3

>  <SCORE.INTER.SOLV>
18.6743

>  <SCORE.INTER.VDW>
-23.1772

>  <SCORE.INTER.norm>
-3.25189

>  <SCORE.INTRA>
0.748348

>  <SCORE.INTRA.DIHEDRAL>
1.33715

>  <SCORE.INTRA.DIHEDRAL.0>
1.89798

>  <SCORE.INTRA.POLAR>
0

>  <SCORE.INTRA.POLAR.0>
0

>  <SCORE.INTRA.REPUL>
0

>  <SCORE.INTRA.REPUL.0>
0

>  <SCORE.INTRA.SOLV>
1.19414

>  <SCORE.INTRA.SOLV.lig_0>
-24.6586

>  <SCORE.INTRA.VDW>
-0.517297

>  <SCORE.INTRA.VDW.0>
-0.379583

>  <SCORE.INTRA.norm>
0.0575653

>  <SCORE.RESTR>
0

>  <SCORE.RESTR.CAVITY>
0

>  <SCORE.RESTR.norm>
0

>  <SCORE.SYSTEM>
-21.1552

>  <SCORE.SYSTEM.CONST>
0

>  <SCORE.SYSTEM.DIHEDRAL>
5.94868

>  <SCORE.SYSTEM.POLAR>
-3.48713

>  <SCORE.SYSTEM.SOLV>
0.292097

>  <SCORE.SYSTEM.VDW>
-4.55999

>  <SCORE.SYSTEM.norm>
-1.62733

>  <SCORE.heavy>
13

>  <SCORE.norm>
-4.82165

$$$$
P136897612
 OpenBabel12072022103D
libRbt.so/2013.1/901 2013/11/27
 17 17  0  0  0  0  0  0  0  0999 V2000
   19.4098  -18.6626    5.9412 C   0  0  0  0  0  0  0  0  0  0  0  0
   18.8715  -19.5438    4.8083 C   0  0  0  0  0  0  0  0  0  0  0  0
   18.4297  -18.7435    3.7058 O   0  0  0  0  0  0  0  0  0  0  0  0
   19.5139  -17.9430    3.2077 C   0  0  0  0  0  0  0  0  0  0  0  0
   20.0846  -17.0131    4.3075 C   0  0  1  0  0  0  0  0  0  0  0  0
   20.5185  -17.8087    5.4869 N   0  0  0  0  0  0  0  0  0  0  0  0
   21.2871  -16.2044    3.7992 C   0  0  0  0  0  0  0  0  0  0  0  0
   21.9122  -15.3362    4.8734 C   0  0  0  0  0  0  0  0  0  0  0  0
   21.2620  -14.5592    5.5733 O   0  0  0  0  0  0  0  0  0  0  0  0
   23.2637  -15.4526    5.1060 N   0  0  0  0  0  0  0  0  0  0  0  0
   24.1271  -16.4314    4.6865 C   0  0  0  0  0  0  0  0  0  0  0  0
   23.8968  -17.3131    3.8733 O   0  0  0  0  0  0  0  0  0  0  0  0
   25.3709  -16.3064    5.2287 N   0  0  0  0  0  0  0  0  0  0  0  0
   20.7855  -17.1771    6.2419 H   0  0  0  0  0  0  0  0  0  0  0  0
   23.5943  -14.8281    5.8229 H   0  0  0  0  0  0  0  0  0  0  0  0
   26.1520  -16.0525    4.6419 H   0  0  0  0  0  0  0  0  0  0  0  0
   25.3710  -15.8751    6.1465 H   0  0  0  0  0  0  0  0  0  0  0  0
  1  2  1  0  0  0  0
  1  6  1  0  0  0  0
  2  3  1  0  0  0  0
  3  4  1  0  0  0  0
  4  5  1  0  0  0  0
  5  6  1  0  0  0  0
  5  7  1  6  0  0  0
  6 14  1  0  0  0  0
  7  8  1  0  0  0  0
  8  9  2  0  0  0  0
  8 10  1  0  0  0  0
 10 11  1  0  0  0  0
 10 15  1  0  0  0  0
 11 12  2  0  0  0  0
 11 13  1  0  0  0  0
 13 16  1  0  0  0  0
 13 17  1  0  0  0  0
M  END
>  <CHROM.0>
-48.58942211,-61.46687266,-58.16523093,-55.16344558,-55.43271814,-59.77678815
-59.76565618,62.93642520,-167.64034225,160.37600410

>  <CHROM.1>
-177.08194891,-51.29314321,-111.46949994,21.40180183,-17.02200184,4.67440849
-2.64787944,0.03923828,0.24730584

>  <Name>
P136897612

>  <RI>
0

>  <Rbt.Current_Directory>
/home/fstefaniak/projects/zuza/docking/adenine/1Y26

>  <Rbt.Executable>
rbdock ($Id: //depot/dev/client3/rdock/2013.1/src/exe/rbdock.cxx#4 $)

>  <Rbt.Library>
libRbt.so (2013.1, Build901 2013/11/27)

>  <Rbt.Parameter_File>
/home/fstefaniak/progs/rDock//data/scripts/dock_solv.prm

>  <Rbt.Receptor>
1y26.prm

>  <SCORE>
-62.6625

>  <SCORE.INTER>
-41.8582

>  <SCORE.INTER.CONST>
1

>  <SCORE.INTER.POLAR>
-4.89678

>  <SCORE.INTER.ROT>
3

>  <SCORE.INTER.SOLV>
18.5742

>  <SCORE.INTER.VDW>
-23.3743

>  <SCORE.INTER.norm>
-3.21986

>  <SCORE.INTRA>
0.658666

>  <SCORE.INTRA.DIHEDRAL>
1.33696

>  <SCORE.INTRA.DIHEDRAL.0>
1.89798

>  <SCORE.INTRA.POLAR>
0

>  <SCORE.INTRA.POLAR.0>
0

>  <SCORE.INTRA.REPUL>
0

>  <SCORE.INTRA.REPUL.0>
0

>  <SCORE.INTRA.SOLV>
1.22908

>  <SCORE.INTRA.SOLV.lig_0>
-24.6586

>  <SCORE.INTRA.VDW>
-0.624354

>  <SCORE.INTRA.VDW.0>
-0.379583

>  <SCORE.INTRA.norm>
0.0506666

>  <SCORE.RESTR>
0

>  <SCORE.RESTR.CAVITY>
0

>  <SCORE.RESTR.norm>
0

>  <SCORE.SYSTEM>
-21.4629

>  <SCORE.SYSTEM.CONST>
0

>  <SCORE.SYSTEM.DIHEDRAL>
5.25491

>  <SCORE.SYSTEM.POLAR>
-3.39867

>  <SCORE.SYSTEM.SOLV>
0.422715

>  <SCORE.SYSTEM.VDW>
-4.87228

>  <SCORE.SYSTEM.norm>
-1.651

>  <SCORE.heavy>
13

>  <SCORE.norm>
-4.82019

$$$$
P137017646
 OpenBabel12072022103D
libRbt.so/2013.1/901 2013/11/27
 15 16  0  0  0  0  0  0  0  0999 V2000
   24.6518  -17.2487    4.3362 C   0  0  0  0  0  0  0  0  0  0  0  0
   23.4916  -16.5081    4.6680 C   0  0  0  0  0  0  0  0  0  0  0  0
   22.5182  -16.8736    3.7574 C   0  0  0  0  0  0  0  0  0  0  0  0
   23.0358  -17.7815    2.8726 O   0  0  0  0  0  0  0  0  0  0  0  0
   24.3238  -18.0079    3.2389 C   0  0  0  0  0  0  0  0  0  0  0  0
   21.1033  -16.4744    3.5096 C   0  0  1  0  0  0  0  0  0  0  0  0
   20.1203  -17.5789    3.5025 C   0  0  0  0  0  0  0  0  0  0  0  0
   19.8246  -18.5712    4.3962 C   0  0  0  0  0  0  0  0  0  0  0  0
   18.8628  -19.3401    3.8735 N   0  0  0  0  0  0  0  0  0  0  0  0
   18.6060  -18.8118    2.6505 N   0  5  0  0  0  0  0  0  0  0  0  0
   19.3718  -17.7371    2.3848 N   0  0  0  0  0  0  0  0  0  0  0  0
   20.6650  -15.4958    4.5586 N   0  3  0  0  0  0  0  0  0  0  0  0
   19.6789  -15.2802    4.3889 H   0  0  0  0  0  0  0  0  0  0  0  0
   20.8508  -15.7860    5.5132 H   0  0  0  0  0  0  0  0  0  0  0  0
   21.1395  -14.6125    4.2899 H   0  0  0  0  0  0  0  0  0  0  0  0
  1  2  1  0  0  0  0
  1  5  2  0  0  0  0
  2  3  2  0  0  0  0
  3  4  1  0  0  0  0
  3  6  1  0  0  0  0
  4  5  1  0  0  0  0
  6  7  1  0  0  0  0
  6 12  1  1  0  0  0
  7  8  1  0  0  0  0
  7 11  2  0  0  0  0
  8  9  2  0  0  0  0
  9 10  1  0  0  0  0
 10 11  1  0  0  0  0
 12 13  1  0  0  0  0
 12 14  1  0  0  0  0
 12 15  1  0  0  0  0
M  CHG  2  10  -1  12   1
M  END
>  <CHROM.0>
-46.20776863,-61.99635432,-60.61423284,-52.08766335,-56.05100978,-173.47527439
-58.03217661,-173.53103396,-167.55403318,162.18790470

>  <CHROM.1>
-124.76549051,53.48346629,-177.11853833,21.34858984,-17.50895196,3.64517322
-0.28913652,0.00659621,-2.72244795

>  <Name>
P137017646

>  <RI>
0

>  <Rbt.Current_Directory>
/home/fstefaniak/projects/zuza/docking/adenine/1Y26

>  <Rbt.Executable>
rbdock ($Id: //depot/dev/client3/rdock/2013.1/src/exe/rbdock.cxx#4 $)

>  <Rbt.Library>
libRbt.so (2013.1, Build901 2013/11/27)

>  <Rbt.Parameter_File>
/home/fstefaniak/progs/rDock//data/scripts/dock_solv.prm

>  <Rbt.Receptor>
1y26.prm

>  <SCORE>
-58.2988

>  <SCORE.INTER>
-34.9837

>  <SCORE.INTER.CONST>
1

>  <SCORE.INTER.POLAR>
-6.13985

>  <SCORE.INTER.ROT>
2

>  <SCORE.INTER.SOLV>
18.8127

>  <SCORE.INTER.VDW>
-14.0605

>  <SCORE.INTER.norm>
-2.9153

>  <SCORE.INTRA>
-1.02229

>  <SCORE.INTRA.DIHEDRAL>
-0.335939

>  <SCORE.INTRA.DIHEDRAL.0>
2.72891

>  <SCORE.INTRA.POLAR>
0.203492

>  <SCORE.INTRA.POLAR.0>
-0.203492

>  <SCORE.INTRA.REPUL>
0

>  <SCORE.INTRA.REPUL.0>
0

>  <SCORE.INTRA.SOLV>
-1.20168

>  <SCORE.INTRA.SOLV.lig_0>
-31.824

>  <SCORE.INTRA.VDW>
-0.945355

>  <SCORE.INTRA.VDW.0>
-0.725981

>  <SCORE.INTRA.norm>
-0.0851908

>  <SCORE.RESTR>
0

>  <SCORE.RESTR.CAVITY>
0

>  <SCORE.RESTR.norm>
0

>  <SCORE.SYSTEM>
-22.2928

>  <SCORE.SYSTEM.CONST>
0

>  <SCORE.SYSTEM.DIHEDRAL>
5.78665

>  <SCORE.SYSTEM.POLAR>
-3.43102

>  <SCORE.SYSTEM.SOLV>
0.311294

>  <SCORE.SYSTEM.VDW>
-5.45781

>  <SCORE.SYSTEM.norm>
-1.85774

>  <SCORE.heavy>
12

>  <SCORE.norm>
-4.85823

$$$$
P137017646
 OpenBabel12072022103D
libRbt.so/2013.1/901 2013/11/27
 15 16  0  0  0  0  0  0  0  0999 V2000
   24.6531  -17.2377    4.3388 C   0  0  0  0  0  0  0  0  0  0  0  0
   23.4920  -16.4947    4.6616 C   0  0  0  0  0  0  0  0  0  0  0  0
   22.5178  -16.8754    3.7579 C   0  0  0  0  0  0  0  0  0  0  0  0
   23.0360  -17.7950    2.8855 O   0  0  0  0  0  0  0  0  0  0  0  0
   24.3250  -18.0134    3.2531 C   0  0  0  0  0  0  0  0  0  0  0  0
   21.1017  -16.4827    3.5065 C   0  0  1  0  0  0  0  0  0  0  0  0
   20.1245  -17.5922    3.4926 C   0  0  0  0  0  0  0  0  0  0  0  0
   19.8459  -18.6017    4.3723 C   0  0  0  0  0  0  0  0  0  0  0  0
   18.8812  -19.3665    3.8486 N   0  0  0  0  0  0  0  0  0  0  0  0
   18.6055  -18.8179    2.6387 N   0  5  0  0  0  0  0  0  0  0  0  0
   19.3621  -17.7345    2.3822 N   0  0  0  0  0  0  0  0  0  0  0  0
   20.6549  -15.5096    4.5570 N   0  3  0  0  0  0  0  0  0  0  0  0
   19.6653  -15.3071    4.3914 H   0  0  0  0  0  0  0  0  0  0  0  0
   20.8485  -15.7970    5.5109 H   0  0  0  0  0  0  0  0  0  0  0  0
   21.1165  -14.6202    4.2861 H   0  0  0  0  0  0  0  0  0  0  0  0
  1  2  1  0  0  0  0
  1  5  2  0  0  0  0
  2  3  2  0  0  0  0
  3  4  1  0  0  0  0
  3  6  1  0  0  0  0
  4  5  1  0  0  0  0
  6  7  1  0  0  0  0
  6 12  1  1  0  0  0
  7  8  1  0  0  0  0
  7 11  2  0  0  0  0
  8  9  2  0  0  0  0
  9 10  1  0  0  0  0
 10 11  1  0  0  0  0
 12 13  1  0  0  0  0
 12 14  1  0  0  0  0
 12 15  1  0  0  0  0
M  CHG  2  10  -1  12   1
M  END
>  <CHROM.0>
-48.09248581,-61.83674019,-56.73066873,-52.41935409,-54.75124038,-63.01992756
-64.84822817,-55.16113256,-167.90466777,160.40356264

>  <CHROM.1>
-125.83031872,52.21305740,-176.45268655,21.35028664,-17.51694716,3.64090218
-0.29420717,0.01250413,-2.73072749

>  <Name>
P137017646

>  <RI>
0

>  <Rbt.Current_Directory>
/home/fstefaniak/projects/zuza/docking/adenine/1Y26

>  <Rbt.Executable>
rbdock ($Id: //depot/dev/client3/rdock/2013.1/src/exe/rbdock.cxx#4 $)

>  <Rbt.Library>
libRbt.so (2013.1, Build901 2013/11/27)

>  <Rbt.Parameter_File>
/home/fstefaniak/progs/rDock//data/scripts/dock_solv.prm

>  <Rbt.Receptor>
1y26.prm

>  <SCORE>
-58.2652

>  <SCORE.INTER>
-35.0081

>  <SCORE.INTER.CONST>
1

>  <SCORE.INTER.POLAR>
-6.16009

>  <SCORE.INTER.ROT>
2

>  <SCORE.INTER.SOLV>
18.8485

>  <SCORE.INTER.VDW>
-14.0213

>  <SCORE.INTER.norm>
-2.91734

>  <SCORE.INTRA>
-1.00044

>  <SCORE.INTRA.DIHEDRAL>
-0.307286

>  <SCORE.INTRA.DIHEDRAL.0>
2.72891

>  <SCORE.INTRA.POLAR>
0.203492

>  <SCORE.INTRA.POLAR.0>
-0.203492

>  <SCORE.INTRA.REPUL>
0

>  <SCORE.INTRA.REPUL.0>
0

>  <SCORE.INTRA.SOLV>
-1.20227

>  <SCORE.INTRA.SOLV.lig_0>
-31.824

>  <SCORE.INTRA.VDW>
-0.937534

>  <SCORE.INTRA.VDW.0>
-0.725981

>  <SCORE.INTRA.norm>
-0.08337

>  <SCORE.RESTR>
0

>  <SCORE.RESTR.CAVITY>
0

>  <SCORE.RESTR.norm>
0

>  <SCORE.SYSTEM>
-22.2566

>  <SCORE.SYSTEM.CONST>
0

>  <SCORE.SYSTEM.DIHEDRAL>
5.71934

>  <SCORE.SYSTEM.POLAR>
-3.47688

>  <SCORE.SYSTEM.SOLV>
0.641634

>  <SCORE.SYSTEM.VDW>
-5.36847

>  <SCORE.SYSTEM.norm>
-1.85472

>  <SCORE.heavy>
12

>  <SCORE.norm>
-4.85543

$$$$
P137017646
 OpenBabel12072022103D
libRbt.so/2013.1/901 2013/11/27
 15 16  0  0  0  0  0  0  0  0999 V2000
   24.6458  -17.2505    4.3414 C   0  0  0  0  0  0  0  0  0  0  0  0
   23.4847  -16.5111    4.6722 C   0  0  0  0  0  0  0  0  0  0  0  0
   22.5133  -16.8753    3.7589 C   0  0  0  0  0  0  0  0  0  0  0  0
   23.0332  -17.7812    2.8734 O   0  0  0  0  0  0  0  0  0  0  0  0
   24.3205  -18.0078    3.2419 C   0  0  0  0  0  0  0  0  0  0  0  0
   21.0987  -16.4763    3.5089 C   0  0  1  0  0  0  0  0  0  0  0  0
   20.1165  -17.5815    3.4958 C   0  0  0  0  0  0  0  0  0  0  0  0
   19.8437  -18.5982    4.3690 C   0  0  0  0  0  0  0  0  0  0  0  0
   18.8697  -19.3538    3.8494 N   0  0  0  0  0  0  0  0  0  0  0  0
   18.5824  -18.7925    2.6480 N   0  5  0  0  0  0  0  0  0  0  0  0
   19.3407  -17.7099    2.3931 N   0  0  0  0  0  0  0  0  0  0  0  0
   20.6572  -15.5013    4.5599 N   0  3  0  0  0  0  0  0  0  0  0  0
   19.6646  -15.3057    4.4040 H   0  0  0  0  0  0  0  0  0  0  0  0
   20.8628  -15.7833    5.5129 H   0  0  0  0  0  0  0  0  0  0  0  0
   21.1104  -14.6104    4.2802 H   0  0  0  0  0  0  0  0  0  0  0  0
  1  2  1  0  0  0  0
  1  5  2  0  0  0  0
  2  3  2  0  0  0  0
  3  4  1  0  0  0  0
  3  6  1  0  0  0  0
  4  5  1  0  0  0  0
  6  7  1  0  0  0  0
  6 12  1  1  0  0  0
  7  8  1  0  0  0  0
  7 11  2  0  0  0  0
  8  9  2  0  0  0  0
  9 10  1  0  0  0  0
 10 11  1  0  0  0  0
 12 13  1  0  0  0  0
 12 14  1  0  0  0  0
 12 15  1  0  0  0  0
M  CHG  2  10  -1  12   1
M  END
>  <CHROM.0>
-52.07472166,-58.88324102,-60.48655647,-52.18768835,-55.90291045,-49.64307818
-171.81070680,-45.63880632,-167.04001084,160.72479262

>  <CHROM.1>
-124.84214379,51.39855405,-175.58720918,21.34262945,-17.50969213,3.64221215
-0.28868836,0.01311751,-2.73057254

>  <Name>
P137017646

>  <RI>
0

>  <Rbt.Current_Directory>
/home/fstefaniak/projects/zuza/docking/adenine/1Y26

>  <Rbt.Executable>
rbdock ($Id: //depot/dev/client3/rdock/2013.1/src/exe/rbdock.cxx#4 $)

>  <Rbt.Library>
libRbt.so (2013.1, Build901 2013/11/27)

>  <Rbt.Parameter_File>
/home/fstefaniak/progs/rDock//data/scripts/dock_solv.prm

>  <Rbt.Receptor>
1y26.prm

>  <SCORE>
-56.8907

>  <SCORE.INTER>
-34.9701

>  <SCORE.INTER.CONST>
1

>  <SCORE.INTER.POLAR>
-6.16

>  <SCORE.INTER.ROT>
2

>  <SCORE.INTER.SOLV>
18.8485

>  <SCORE.INTER.VDW>
-13.9962

>  <SCORE.INTER.norm>
-2.91418

>  <SCORE.INTRA>
-0.984556

>  <SCORE.INTRA.DIHEDRAL>
-0.288892

>  <SCORE.INTRA.DIHEDRAL.0>
2.72891

>  <SCORE.INTRA.POLAR>
0.203492

>  <SCORE.INTRA.POLAR.0>
-0.203492

>  <SCORE.INTRA.REPUL>
0

>  <SCORE.INTRA.REPUL.0>
0

>  <SCORE.INTRA.SOLV>
-1.20681

>  <SCORE.INTRA.SOLV.lig_0>
-31.824

>  <SCORE.INTRA.VDW>
-0.92858

>  <SCORE.INTRA.VDW.0>
-0.725981

>  <SCORE.INTRA.norm>
-0.0820463

>  <SCORE.RESTR>
0

>  <SCORE.RESTR.CAVITY>
0

>  <SCORE.RESTR.norm>
0

>  <SCORE.SYSTEM>
-20.936

>  <SCORE.SYSTEM.CONST>
0

>  <SCORE.SYSTEM.DIHEDRAL>
6.74449

>  <SCORE.SYSTEM.POLAR>
-3.51921

>  <SCORE.SYSTEM.SOLV>
0.631864

>  <SCORE.SYSTEM.VDW>
-4.68544

>  <SCORE.SYSTEM.norm>
-1.74467

>  <SCORE.heavy>
12

>  <SCORE.norm>
-4.74089

$$$$
P137017648
 OpenBabel12072022103D
libRbt.so/2013.1/901 2013/11/27
 15 16  0  0  0  0  0  0  0  0999 V2000
   18.7215  -19.4323    5.4100 C   0  0  0  0  0  0  0  0  0  0  0  0
   19.0572  -18.8414    4.1677 C   0  0  0  0  0  0  0  0  0  0  0  0
   20.0128  -17.8810    4.4374 C   0  0  0  0  0  0  0  0  0  0  0  0
   20.2580  -17.8395    5.7846 O   0  0  0  0  0  0  0  0  0  0  0  0
   19.4806  -18.7923    6.3604 C   0  0  0  0  0  0  0  0  0  0  0  0
   20.7690  -16.9147    3.5902 C   0  0  2  0  0  0  0  0  0  0  0  0
   22.2315  -16.8933    3.8136 C   0  0  0  0  0  0  0  0  0  0  0  0
   23.0470  -16.2722    4.7179 C   0  0  0  0  0  0  0  0  0  0  0  0
   24.3131  -16.6182    4.4565 N   0  0  0  0  0  0  0  0  0  0  0  0
   24.2452  -17.4485    3.3858 N   0  5  0  0  0  0  0  0  0  0  0  0
   22.9805  -17.6472    2.9709 N   0  0  0  0  0  0  0  0  0  0  0  0
   20.2793  -15.5115    3.8061 N   0  3  0  0  0  0  0  0  0  0  0  0
   20.6434  -15.2840    4.7585 H   0  0  0  0  0  0  0  0  0  0  0  0
   20.5865  -14.8379    3.1135 H   0  0  0  0  0  0  0  0  0  0  0  0
   19.2622  -15.5451    3.9124 H   0  0  0  0  0  0  0  0  0  0  0  0
  1  2  1  0  0  0  0
  1  5  2  0  0  0  0
  2  3  2  0  0  0  0
  3  4  1  0  0  0  0
  4  5  1  0  0  0  0
  6  7  1  0  0  0  0
  6 12  1  1  0  0  0
  6  3  1  0  0  0  0
  7  8  1  0  0  0  0
  7 11  2  0  0  0  0
  8  9  2  0  0  0  0
  9 10  1  0  0  0  0
 10 11  1  0  0  0  0
 12 13  1  0  0  0  0
 12 14  1  0  0  0  0
 12 15  1  0  0  0  0
M  CHG  2  10  -1  12   1
M  END
>  <CHROM.0>
-49.62895237,-177.66239604,-53.68073834,-50.70785863,-56.23307340,57.52234506
-61.49756790,63.88584859,-166.92331805,160.86516530

>  <CHROM.1>
-83.40343257,72.13290598,-131.03551967,21.28596327,-17.45620371,4.40990079
-2.66496667,0.08664371,-0.52905302

>  <Name>
P137017648

>  <RI>
0

>  <Rbt.Current_Directory>
/home/fstefaniak/projects/zuza/docking/adenine/1Y26

>  <Rbt.Executable>
rbdock ($Id: //depot/dev/client3/rdock/2013.1/src/exe/rbdock.cxx#4 $)

>  <Rbt.Library>
libRbt.so (2013.1, Build901 2013/11/27)

>  <Rbt.Parameter_File>
/home/fstefaniak/progs/rDock//data/scripts/dock_solv.prm

>  <Rbt.Receptor>
1y26.prm

>  <SCORE>
-54.9328

>  <SCORE.INTER>
-33.5458

>  <SCORE.INTER.CONST>
1

>  <SCORE.INTER.POLAR>
-3.68277

>  <SCORE.INTER.ROT>
2

>  <SCORE.INTER.SOLV>
20.1705

>  <SCORE.INTER.VDW>
-21.7448

>  <SCORE.INTER.norm>
-2.79549

>  <SCORE.INTRA>
-0.637646

>  <SCORE.INTRA.DIHEDRAL>
-1.93692

>  <SCORE.INTRA.DIHEDRAL.0>
4.14095

>  <SCORE.INTRA.POLAR>
0.571428

>  <SCORE.INTRA.POLAR.0>
-0.571428

>  <SCORE.INTRA.REPUL>
0

>  <SCORE.INTRA.REPUL.0>
0

>  <SCORE.INTRA.SOLV>
-1.02227

>  <SCORE.INTRA.SOLV.lig_0>
-31.3548

>  <SCORE.INTRA.VDW>
-1.10091

>  <SCORE.INTRA.VDW.0>
-0.286063

>  <SCORE.INTRA.norm>
-0.0531372

>  <SCORE.RESTR>
0

>  <SCORE.RESTR.CAVITY>
0

>  <SCORE.RESTR.norm>
0

>  <SCORE.SYSTEM>
-20.7493

>  <SCORE.SYSTEM.CONST>
0

>  <SCORE.SYSTEM.DIHEDRAL>
5.65944

>  <SCORE.SYSTEM.POLAR>
-3.49625

>  <SCORE.SYSTEM.SOLV>
0.216247

>  <SCORE.SYSTEM.VDW>
-4.13729

>  <SCORE.SYSTEM.norm>
-1.72911

>  <SCORE.heavy>
12

>  <SCORE.norm>
-4.57773

$$$$
P137017648
 OpenBabel12072022103D
libRbt.so/2013.1/901 2013/11/27
 15 16  0  0  0  0  0  0  0  0999 V2000
   24.6450  -16.8245    4.2624 C   0  0  0  0  0  0  0  0  0  0  0  0
   23.5115  -16.2480    4.8853 C   0  0  0  0  0  0  0  0  0  0  0  0
   22.4073  -16.7266    4.2068 C   0  0  0  0  0  0  0  0  0  0  0  0
   22.8121  -17.5457    3.1861 O   0  0  0  0  0  0  0  0  0  0  0  0
   24.1675  -17.6077    3.2389 C   0  0  0  0  0  0  0  0  0  0  0  0
   20.9386  -16.5125    4.3500 C   0  0  2  0  0  0  0  0  0  0  0  0
   20.0899  -17.4200    3.5467 C   0  0  0  0  0  0  0  0  0  0  0  0
   19.2541  -18.4584    3.8501 C   0  0  0  0  0  0  0  0  0  0  0  0
   18.7270  -18.9263    2.7125 N   0  0  0  0  0  0  0  0  0  0  0  0
   19.2589  -18.1597    1.7277 N   0  5  0  0  0  0  0  0  0  0  0  0
   20.0931  -17.2179    2.2055 N   0  0  0  0  0  0  0  0  0  0  0  0
   20.5586  -15.1119    3.9633 N   0  3  0  0  0  0  0  0  0  0  0  0
   19.5162  -15.1290    4.0297 H   0  0  0  0  0  0  0  0  0  0  0  0
   20.9620  -14.3825    4.5403 H   0  0  0  0  0  0  0  0  0  0  0  0
   20.7587  -14.9945    2.9667 H   0  0  0  0  0  0  0  0  0  0  0  0
  1  2  1  0  0  0  0
  1  5  2  0  0  0  0
  2  3  2  0  0  0  0
  3  4  1  0  0  0  0
  4  5  1  0  0  0  0
  6  7  1  0  0  0  0
  6 12  1  6  0  0  0
  6  3  1  0  0  0  0
  7  8  1  0  0  0  0
  7 11  2  0  0  0  0
  8  9  2  0  0  0  0
  9 10  1  0  0  0  0
 10 11  1  0  0  0  0
 12 13  1  0  0  0  0
 12 14  1  0  0  0  0
 12 15  1  0  0  0  0
M  CHG  2  10  -1  12   1
M  END
>  <CHROM.0>
-41.66173714,-171.74647469,-48.45033773,-48.10378913,-172.47237874,-60.58528333
-47.78753641,67.33274798,-164.02316254,161.39139960

>  <CHROM.1>
109.66493818,175.29750771,-169.65666255,21.34074541,-17.19646471,3.48636037
-0.37930086,0.10799143,-2.59356738

>  <Name>
P137017648

>  <RI>
0

>  <Rbt.Current_Directory>
/home/fstefaniak/projects/zuza/docking/adenine/1Y26

>  <Rbt.Executable>
rbdock ($Id: //depot/dev/client3/rdock/2013.1/src/exe/rbdock.cxx#4 $)

>  <Rbt.Library>
libRbt.so (2013.1, Build901 2013/11/27)

>  <Rbt.Parameter_File>
/home/fstefaniak/progs/rDock//data/scripts/dock_solv.prm

>  <Rbt.Receptor>
1y26.prm

>  <SCORE>
-54.2147

>  <SCORE.INTER>
-32.9999

>  <SCORE.INTER.CONST>
1

>  <SCORE.INTER.POLAR>
-4.75894

>  <SCORE.INTER.ROT>
2

>  <SCORE.INTER.SOLV>
19.3774

>  <SCORE.INTER.VDW>
-17.5293

>  <SCORE.INTER.norm>
-2.74999

>  <SCORE.INTRA>
-0.472838

>  <SCORE.INTRA.DIHEDRAL>
-1.91297

>  <SCORE.INTRA.DIHEDRAL.0>
4.14095

>  <SCORE.INTRA.POLAR>
0.571428

>  <SCORE.INTRA.POLAR.0>
-0.571428

>  <SCORE.INTRA.REPUL>
0

>  <SCORE.INTRA.REPUL.0>
0

>  <SCORE.INTRA.SOLV>
-0.788447

>  <SCORE.INTRA.SOLV.lig_0>
-31.3548

>  <SCORE.INTRA.VDW>
-1.06498

>  <SCORE.INTRA.VDW.0>
-0.286063

>  <SCORE.INTRA.norm>
-0.0394031

>  <SCORE.RESTR>
0

>  <SCORE.RESTR.CAVITY>
0

>  <SCORE.RESTR.norm>
0

>  <SCORE.SYSTEM>
-20.742

>  <SCORE.SYSTEM.CONST>
0

>  <SCORE.SYSTEM.DIHEDRAL>
8.91907

>  <SCORE.SYSTEM.POLAR>
-3.74877

>  <SCORE.SYSTEM.SOLV>
0.248458

>  <SCORE.SYSTEM.VDW>
-4.38791

>  <SCORE.SYSTEM.norm>
-1.7285

>  <SCORE.heavy>
12

>  <SCORE.norm>
-4.5179

$$$$
P137017648
 OpenBabel12072022103D
libRbt.so/2013.1/901 2013/11/27
 15 16  0  0  0  0  0  0  0  0999 V2000
   22.5405  -12.2554    4.6672 C   0  0  0  0  0  0  0  0  0  0  0  0
   22.3919  -13.5892    5.1186 C   0  0  0  0  0  0  0  0  0  0  0  0
   22.7168  -14.4019    4.0498 C   0  0  0  0  0  0  0  0  0  0  0  0
   23.0316  -13.6304    2.9624 O   0  0  0  0  0  0  0  0  0  0  0  0
   22.9345  -12.3335    3.3527 C   0  0  0  0  0  0  0  0  0  0  0  0
   22.7627  -15.8798    3.8569 C   0  0  2  0  0  0  0  0  0  0  0  0
   21.4440  -16.5495    3.8154 C   0  0  0  0  0  0  0  0  0  0  0  0
   20.6389  -17.1251    4.7584 C   0  0  0  0  0  0  0  0  0  0  0  0
   19.5346  -17.5798    4.1544 N   0  0  0  0  0  0  0  0  0  0  0  0
   19.6903  -17.2732    2.8421 N   0  5  0  0  0  0  0  0  0  0  0  0
   20.8479  -16.6311    2.5998 N   0  0  0  0  0  0  0  0  0  0  0  0
   23.5480  -16.5415    4.9528 N   0  3  0  0  0  0  0  0  0  0  0  0
   24.5244  -16.2231    4.7616 H   0  0  0  0  0  0  0  0  0  0  0  0
   23.2522  -16.3086    5.8941 H   0  0  0  0  0  0  0  0  0  0  0  0
   23.5572  -17.5484    4.7706 H   0  0  0  0  0  0  0  0  0  0  0  0
  1  2  1  0  0  0  0
  1  5  2  0  0  0  0
  2  3  2  0  0  0  0
  3  4  1  0  0  0  0
  4  5  1  0  0  0  0
  6  7  1  0  0  0  0
  6 12  1  1  0  0  0
  6  3  1  0  0  0  0
  7  8  1  0  0  0  0
  7 11  2  0  0  0  0
  8  9  2  0  0  0  0
  9 10  1  0  0  0  0
 10 11  1  0  0  0  0
 12 13  1  0  0  0  0
 12 14  1  0  0  0  0
 12 15  1  0  0  0  0
M  CHG  2  10  -1  12   1
M  END
>  <CHROM.0>
-169.04132027,-61.15501092,-45.95309653,-48.38449296,-53.59661139,-54.24773984
-46.08667002,-49.60146117,-167.20366137,165.50055523

>  <CHROM.1>
-91.25095708,-68.82813387,70.84580956,21.87199814,-15.34937537,3.92533138
0.90877748,-0.56452408,-0.31785154

>  <Name>
P137017648

>  <RI>
0

>  <Rbt.Current_Directory>
/home/fstefaniak/projects/zuza/docking/adenine/1Y26

>  <Rbt.Executable>
rbdock ($Id: //depot/dev/client3/rdock/2013.1/src/exe/rbdock.cxx#4 $)

>  <Rbt.Library>
libRbt.so (2013.1, Build901 2013/11/27)

>  <Rbt.Parameter_File>
/home/fstefaniak/progs/rDock//data/scripts/dock_solv.prm

>  <Rbt.Receptor>
1y26.prm

>  <SCORE>
-54.1114

>  <SCORE.INTER>
-33.1589

>  <SCORE.INTER.CONST>
1

>  <SCORE.INTER.POLAR>
-5.80774

>  <SCORE.INTER.ROT>
2

>  <SCORE.INTER.SOLV>
15.5861

>  <SCORE.INTER.VDW>
-12.8755

>  <SCORE.INTER.norm>
-2.76324

>  <SCORE.INTRA>
-1.0028

>  <SCORE.INTRA.DIHEDRAL>
-1.40863

>  <SCORE.INTRA.DIHEDRAL.0>
4.14095

>  <SCORE.INTRA.POLAR>
0.571428

>  <SCORE.INTRA.POLAR.0>
-0.571428

>  <SCORE.INTRA.REPUL>
0

>  <SCORE.INTRA.REPUL.0>
0

>  <SCORE.INTRA.SOLV>
-1.71584

>  <SCORE.INTRA.SOLV.lig_0>
-31.3548

>  <SCORE.INTRA.VDW>
-1.38342

>  <SCORE.INTRA.VDW.0>
-0.286063

>  <SCORE.INTRA.norm>
-0.0835666

>  <SCORE.RESTR>
0.0694811

>  <SCORE.RESTR.CAVITY>
0.0694811

>  <SCORE.RESTR.norm>
0.00579009

>  <SCORE.SYSTEM>
-20.0191

>  <SCORE.SYSTEM.CONST>
0

>  <SCORE.SYSTEM.DIHEDRAL>
7.50611

>  <SCORE.SYSTEM.POLAR>
-3.35072

>  <SCORE.SYSTEM.SOLV>
0.669384

>  <SCORE.SYSTEM.VDW>
-4.90218

>  <SCORE.SYSTEM.norm>
-1.66826

>  <SCORE.heavy>
12

>  <SCORE.norm>
-4.50928

$$$$
P137104234
 OpenBabel12072022103D
libRbt.so/2013.1/901 2013/11/27
 17 17  0  0  0  0  0  0  0  0999 V2000
   19.3835  -17.8041    3.3822 C   0  0  0  0  0  0  0  0  0  0  0  0
   20.4394  -17.9102    4.4831 C   0  0  2  0  0  0  0  0  0  0  0  0
   19.9051  -18.6236    5.7390 C   0  0  0  0  0  0  0  0  0  0  0  0
   19.8463  -18.0679    6.8344 O   0  0  0  0  0  0  0  0  0  0  0  0
   19.3662  -19.8665    5.5779 N   0  0  0  0  0  0  0  0  0  0  0  0
   20.9529  -16.5458    4.8181 N   0  0  0  0  0  0  0  0  0  0  0  0
   21.9676  -16.1445    3.8278 C   0  0  1  0  0  0  0  0  0  0  0  0
   22.4549  -14.7178    4.1949 C   0  0  0  0  0  0  0  0  0  0  0  0
   23.4990  -15.3708    5.1262 C   0  0  1  0  0  0  0  0  0  0  0  0
   23.3633  -16.6495    4.2777 C   0  0  0  0  0  0  0  0  0  0  0  0
   24.8322  -14.7596    5.0494 N   0  3  0  0  0  0  0  0  0  0  0  0
   25.3304  -15.0031    4.1833 H   0  0  0  0  0  0  0  0  0  0  0  0
   24.7839  -13.7337    5.0956 H   0  0  0  0  0  0  0  0  0  0  0  0
   25.4272  -15.0671    5.8307 H   0  0  0  0  0  0  0  0  0  0  0  0
   19.4508  -20.4017    4.7255 H   0  0  0  0  0  0  0  0  0  0  0  0
   19.0583  -20.3494    6.4128 H   0  0  0  0  0  0  0  0  0  0  0  0
   20.1291  -15.9364    4.8068 H   0  0  0  0  0  0  0  0  0  0  0  0
  2  3  1  0  0  0  0
  2  6  1  0  0  0  0
  2  1  1  6  0  0  0
  3  4  2  0  0  0  0
  3  5  1  0  0  0  0
  5 15  1  0  0  0  0
  5 16  1  0  0  0  0
  6 17  1  0  0  0  0
  7  6  1  1  0  0  0
  7  8  1  0  0  0  0
  7 10  1  0  0  0  0
  8  9  1  0  0  0  0
  9 10  1  0  0  0  0
  9 11  1  6  0  0  0
 11 12  1  0  0  0  0
 11 13  1  0  0  0  0
 11 14  1  0  0  0  0
M  CHG  1  11   1
M  END
>  <CHROM.0>
-48.54654283,-158.34859843,-61.75914637,-55.60482122,-177.67356647,-177.39200505
-55.88430891,-178.29510703,-165.76284786,161.37421555

>  <CHROM.1>
-118.58306871,-80.98057299,178.99238238,-73.68574510,21.46675321,-16.95030936
4.86999828,2.73237994,0.61135041,2.02801814

>  <Name>
P137104234

>  <RI>
0

>  <Rbt.Current_Directory>
/home/fstefaniak/projects/zuza/docking/adenine/1Y26

>  <Rbt.Executable>
rbdock ($Id: //depot/dev/client3/rdock/2013.1/src/exe/rbdock.cxx#4 $)

>  <Rbt.Library>
libRbt.so (2013.1, Build901 2013/11/27)

>  <Rbt.Parameter_File>
/home/fstefaniak/progs/rDock//data/scripts/dock_solv.prm

>  <Rbt.Receptor>
1y26.prm

>  <SCORE>
-53.0886

>  <SCORE.INTER>
-31.6172

>  <SCORE.INTER.CONST>
1

>  <SCORE.INTER.POLAR>
-3.7411

>  <SCORE.INTER.ROT>
3

>  <SCORE.INTER.SOLV>
21.0626

>  <SCORE.INTER.VDW>
-21.2286

>  <SCORE.INTER.norm>
-2.87429

>  <SCORE.INTRA>
0.197999

>  <SCORE.INTRA.DIHEDRAL>
-0.0944754

>  <SCORE.INTRA.DIHEDRAL.0>
3.16425

>  <SCORE.INTRA.POLAR>
0

>  <SCORE.INTRA.POLAR.0>
0

>  <SCORE.INTRA.REPUL>
0

>  <SCORE.INTRA.REPUL.0>
0

>  <SCORE.INTRA.SOLV>
-0.74961

>  <SCORE.INTRA.SOLV.lig_0>
-34.9228

>  <SCORE.INTRA.VDW>
0.620042

>  <SCORE.INTRA.VDW.0>
-0.0859856

>  <SCORE.INTRA.norm>
0.0179999

>  <SCORE.RESTR>
0

>  <SCORE.RESTR.CAVITY>
0

>  <SCORE.RESTR.norm>
0

>  <SCORE.SYSTEM>
-21.6694

>  <SCORE.SYSTEM.CONST>
0

>  <SCORE.SYSTEM.DIHEDRAL>
7.32716

>  <SCORE.SYSTEM.POLAR>
-3.37202

>  <SCORE.SYSTEM.SOLV>
0.0803667

>  <SCORE.SYSTEM.VDW>
-5.67539

>  <SCORE.SYSTEM.norm>
-1.96995

>  <SCORE.heavy>
11

>  <SCORE.norm>
-4.82624

$$$$
P137104234
 OpenBabel12072022103D
libRbt.so/2013.1/901 2013/11/27
 17 17  0  0  0  0  0  0  0  0999 V2000
   19.2998  -17.8004    3.3503 C   0  0  0  0  0  0  0  0  0  0  0  0
   20.4000  -17.8304    4.4117 C   0  0  2  0  0  0  0  0  0  0  0  0
   19.9524  -18.5500    5.6976 C   0  0  0  0  0  0  0  0  0  0  0  0
   19.9305  -17.9874    6.7908 O   0  0  0  0  0  0  0  0  0  0  0  0
   19.4467  -19.8108    5.5720 N   0  0  0  0  0  0  0  0  0  0  0  0
   20.8502  -16.4346    4.7064 N   0  0  0  0  0  0  0  0  0  0  0  0
   21.9285  -16.0579    3.7753 C   0  0  1  0  0  0  0  0  0  0  0  0
   22.4295  -14.6440    4.1721 C   0  0  0  0  0  0  0  0  0  0  0  0
   23.4033  -15.3233    5.1592 C   0  0  1  0  0  0  0  0  0  0  0  0
   23.2838  -16.5977    4.3017 C   0  0  0  0  0  0  0  0  0  0  0  0
   24.7534  -14.7453    5.1584 N   0  3  0  0  0  0  0  0  0  0  0  0
   25.3536  -15.1394    5.8947 H   0  0  0  0  0  0  0  0  0  0  0  0
   25.2318  -14.8967    4.2611 H   0  0  0  0  0  0  0  0  0  0  0  0
   24.7220  -13.7285    5.3135 H   0  0  0  0  0  0  0  0  0  0  0  0
   19.5058  -20.3500    4.7200 H   0  0  0  0  0  0  0  0  0  0  0  0
   19.1965  -20.2963    6.4246 H   0  0  0  0  0  0  0  0  0  0  0  0
   20.0143  -15.8520    4.5973 H   0  0  0  0  0  0  0  0  0  0  0  0
  2  3  1  0  0  0  0
  2  6  1  0  0  0  0
  2  1  1  6  0  0  0
  3  4  2  0  0  0  0
  3  5  1  0  0  0  0
  5 15  1  0  0  0  0
  5 16  1  0  0  0  0
  6 17  1  0  0  0  0
  7  6  1  1  0  0  0
  7  8  1  0  0  0  0
  7 10  1  0  0  0  0
  8  9  1  0  0  0  0
  9 10  1  0  0  0  0
  9 11  1  6  0  0  0
 11 12  1  0  0  0  0
 11 13  1  0  0  0  0
 11 14  1  0  0  0  0
M  CHG  1  11   1
M  END
>  <CHROM.0>
-60.72049417,-165.82651380,-55.86115053,-49.57617397,-50.62342906,-55.28804990
-60.85456761,-176.83065298,-165.92351437,160.35413619

>  <CHROM.1>
-120.12997009,-88.11890296,-176.35968977,173.51436785,21.43735853,-16.89000074
4.85230287,2.71537100,0.61027877,2.08259469

>  <Name>
P137104234

>  <RI>
0

>  <Rbt.Current_Directory>
/home/fstefaniak/projects/zuza/docking/adenine/1Y26

>  <Rbt.Executable>
rbdock ($Id: //depot/dev/client3/rdock/2013.1/src/exe/rbdock.cxx#4 $)

>  <Rbt.Library>
libRbt.so (2013.1, Build901 2013/11/27)

>  <Rbt.Parameter_File>
/home/fstefaniak/progs/rDock//data/scripts/dock_solv.prm

>  <Rbt.Receptor>
1y26.prm

>  <SCORE>
-52.6406

>  <SCORE.INTER>
-30.8195

>  <SCORE.INTER.CONST>
1

>  <SCORE.INTER.POLAR>
-3.81582

>  <SCORE.INTER.ROT>
3

>  <SCORE.INTER.SOLV>
21.2596

>  <SCORE.INTER.VDW>
-20.5135

>  <SCORE.INTER.norm>
-2.80177

>  <SCORE.INTRA>
0.415487

>  <SCORE.INTRA.DIHEDRAL>
0.143473

>  <SCORE.INTRA.DIHEDRAL.0>
3.16425

>  <SCORE.INTRA.POLAR>
0

>  <SCORE.INTRA.POLAR.0>
0

>  <SCORE.INTRA.REPUL>
0

>  <SCORE.INTRA.REPUL.0>
0

>  <SCORE.INTRA.SOLV>
-0.708417

>  <SCORE.INTRA.SOLV.lig_0>
-34.9228

>  <SCORE.INTRA.VDW>
0.697959

>  <SCORE.INTRA.VDW.0>
-0.0859856

>  <SCORE.INTRA.norm>
0.0377716

>  <SCORE.RESTR>
0

>  <SCORE.RESTR.CAVITY>
0

>  <SCORE.RESTR.norm>
0

>  <SCORE.SYSTEM>
-22.2366

>  <SCORE.SYSTEM.CONST>
0

>  <SCORE.SYSTEM.DIHEDRAL>
6.58701

>  <SCORE.SYSTEM.POLAR>
-3.42735

>  <SCORE.SYSTEM.SOLV>
0.38243

>  <SCORE.SYSTEM.VDW>
-5.72305

>  <SCORE.SYSTEM.norm>
-2.02151

>  <SCORE.heavy>
11

>  <SCORE.norm>
-4.78551

$$$$
P137104234
 OpenBabel12072022103D
libRbt.so/2013.1/901 2013/11/27
 17 17  0  0  0  0  0  0  0  0999 V2000
   19.2181  -17.4807    3.2228 C   0  0  0  0  0  0  0  0  0  0  0  0
   20.2641  -17.8054    4.2898 C   0  0  2  0  0  0  0  0  0  0  0  0
   19.6884  -18.6649    5.4306 C   0  0  0  0  0  0  0  0  0  0  0  0
   19.0861  -19.7162    5.2205 O   0  0  0  0  0  0  0  0  0  0  0  0
   19.9811  -18.2936    6.7103 N   0  0  0  0  0  0  0  0  0  0  0  0
   20.8519  -16.5354    4.8183 N   0  0  0  0  0  0  0  0  0  0  0  0
   21.8269  -16.0034    3.8499 C   0  0  1  0  0  0  0  0  0  0  0  0
   22.3528  -14.6499    4.3965 C   0  0  0  0  0  0  0  0  0  0  0  0
   23.4276  -15.4410    5.1731 C   0  0  1  0  0  0  0  0  0  0  0  0
   23.2333  -16.5812    4.1554 C   0  0  0  0  0  0  0  0  0  0  0  0
   24.7655  -14.8372    5.1229 N   0  3  0  0  0  0  0  0  0  0  0  0
   24.7389  -13.8104    5.1725 H   0  0  0  0  0  0  0  0  0  0  0  0
   25.3602  -15.1648    5.8949 H   0  0  0  0  0  0  0  0  0  0  0  0
   25.2497  -15.0798    4.2478 H   0  0  0  0  0  0  0  0  0  0  0  0
   20.4049  -17.4081    6.9479 H   0  0  0  0  0  0  0  0  0  0  0  0
   19.5628  -18.8351    7.4566 H   0  0  0  0  0  0  0  0  0  0  0  0
   20.0549  -15.9071    4.9603 H   0  0  0  0  0  0  0  0  0  0  0  0
  2  3  1  0  0  0  0
  2  6  1  0  0  0  0
  2  1  1  6  0  0  0
  3  4  2  0  0  0  0
  3  5  1  0  0  0  0
  5 15  1  0  0  0  0
  5 16  1  0  0  0  0
  6 17  1  0  0  0  0
  7  6  1  1  0  0  0
  7  8  1  0  0  0  0
  7 10  1  0  0  0  0
  8  9  1  0  0  0  0
  9 10  1  0  0  0  0
  9 11  1  6  0  0  0
 11 12  1  0  0  0  0
 11 13  1  0  0  0  0
 11 14  1  0  0  0  0
M  CHG  1  11   1
M  END
>  <CHROM.0>
-52.81241981,-49.75880183,-53.48274185,-52.70391556,-58.80668775,-58.72796660
-55.52802988,-53.51638600,-167.35169104,160.48595859

>  <CHROM.1>
52.58500210,-77.33862796,176.87705955,38.28899115,21.35246740,-16.90227294
4.79492430,2.73895051,0.57868529,2.12735456

>  <Name>
P137104234

>  <RI>
0

>  <Rbt.Current_Directory>
/home/fstefaniak/projects/zuza/docking/adenine/1Y26

>  <Rbt.Executable>
rbdock ($Id: //depot/dev/client3/rdock/2013.1/src/exe/rbdock.cxx#4 $)

>  <Rbt.Library>
libRbt.so (2013.1, Build901 2013/11/27)

>  <Rbt.Parameter_File>
/home/fstefaniak/progs/rDock//data/scripts/dock_solv.prm

>  <Rbt.Receptor>
1y26.prm

>  <SCORE>
-50.1502

>  <SCORE.INTER>
-29.5477

>  <SCORE.INTER.CONST>
1

>  <SCORE.INTER.POLAR>
-3.32371

>  <SCORE.INTER.ROT>
3

>  <SCORE.INTER.SOLV>
20.6319

>  <SCORE.INTER.VDW>
-21.0967

>  <SCORE.INTER.norm>
-2.68615

>  <SCORE.INTRA>
1.19465

>  <SCORE.INTRA.DIHEDRAL>
1.57647

>  <SCORE.INTRA.DIHEDRAL.0>
3.16425

>  <SCORE.INTRA.POLAR>
-0.0129749

>  <SCORE.INTRA.POLAR.0>
0

>  <SCORE.INTRA.REPUL>
0

>  <SCORE.INTRA.REPUL.0>
0

>  <SCORE.INTRA.SOLV>
-0.394708

>  <SCORE.INTRA.SOLV.lig_0>
-34.9228

>  <SCORE.INTRA.VDW>
0.647877

>  <SCORE.INTRA.VDW.0>
-0.0859856

>  <SCORE.INTRA.norm>
0.108604

>  <SCORE.RESTR>
0

>  <SCORE.RESTR.CAVITY>
0

>  <SCORE.RESTR.norm>
0

>  <SCORE.SYSTEM>
-21.7972

>  <SCORE.SYSTEM.CONST>
0

>  <SCORE.SYSTEM.DIHEDRAL>
5.86377

>  <SCORE.SYSTEM.POLAR>
-3.45396

>  <SCORE.SYSTEM.SOLV>
0.678529

>  <SCORE.SYSTEM.VDW>
-5.19902

>  <SCORE.SYSTEM.norm>
-1.98156

>  <SCORE.heavy>
11

>  <SCORE.norm>
-4.55911

$$$$
P137159987
 OpenBabel12072022103D
libRbt.so/2013.1/901 2013/11/27
 14 15  0  0  0  0  0  0  0  0999 V2000
   21.5652  -16.2619    3.5817 C   0  0  0  0  0  0  0  0  0  0  0  0
   20.4100  -15.7048    4.4140 C   0  0  0  0  0  0  0  0  0  0  0  0
   19.6409  -16.9721    4.7823 C   0  0  1  0  0  0  0  0  0  0  0  0
   18.9067  -17.5399    3.5562 C   0  0  1  0  0  0  0  0  0  0  0  0
   20.0738  -18.0934    2.7224 C   0  0  0  0  0  0  0  0  0  0  0  0
   21.2785  -17.7619    3.6030 C   0  0  2  0  0  0  0  0  0  0  0  0
   20.7255  -17.9260    4.9310 O   0  0  0  0  0  0  0  0  0  0  0  0
   17.9786  -18.5964    3.9376 N   0  0  0  0  0  0  0  0  0  0  0  0
   18.2110  -19.3470    5.0505 C   0  0  0  0  0  0  0  0  0  0  0  0
   19.1896  -20.0503    5.2457 O   0  0  0  0  0  0  0  0  0  0  0  0
   17.2118  -19.2350    5.9602 N   0  0  0  0  0  0  0  0  0  0  0  0
   17.0017  -18.4128    3.7489 H   0  0  0  0  0  0  0  0  0  0  0  0
   17.0597  -20.0339    6.5577 H   0  0  0  0  0  0  0  0  0  0  0  0
   17.2077  -18.3422    6.4375 H   0  0  0  0  0  0  0  0  0  0  0  0
  1  2  1  0  0  0  0
  3  2  1  6  0  0  0
  3  4  1  0  0  0  0
  3  7  1  0  0  0  0
  4  5  1  0  0  0  0
  4  8  1  1  0  0  0
  5  6  1  0  0  0  0
  6  1  1  1  0  0  0
  6  7  1  0  0  0  0
  8  9  1  0  0  0  0
  8 12  1  0  0  0  0
  9 10  2  0  0  0  0
  9 11  1  0  0  0  0
 11 13  1  0  0  0  0
 11 14  1  0  0  0  0
M  END
>  <CHROM.0>
-46.45717769,168.67192954,-51.88588479,-51.81178550,-172.90358694,-52.78005722
-52.42457448,-50.11078446,-165.97893398,161.62030159

>  <CHROM.1>
-27.64174048,-60.37566177,151.12868770,19.53557897,-17.99056670,4.38458236
-0.66596829,-0.47154103,-3.12012678

>  <Name>
P137159987

>  <RI>
0

>  <Rbt.Current_Directory>
/home/fstefaniak/projects/zuza/docking/adenine/1Y26

>  <Rbt.Executable>
rbdock ($Id: //depot/dev/client3/rdock/2013.1/src/exe/rbdock.cxx#4 $)

>  <Rbt.Library>
libRbt.so (2013.1, Build901 2013/11/27)

>  <Rbt.Parameter_File>
/home/fstefaniak/progs/rDock//data/scripts/dock_solv.prm

>  <Rbt.Receptor>
1y26.prm

>  <SCORE>
-50.6555

>  <SCORE.INTER>
-30.6187

>  <SCORE.INTER.CONST>
1

>  <SCORE.INTER.POLAR>
-5.23213

>  <SCORE.INTER.ROT>
3

>  <SCORE.INTER.SOLV>
13.0563

>  <SCORE.INTER.VDW>
-12.9241

>  <SCORE.INTER.norm>
-2.78352

>  <SCORE.INTRA>
1.44945

>  <SCORE.INTRA.DIHEDRAL>
1.5357

>  <SCORE.INTRA.DIHEDRAL.0>
1.26077

>  <SCORE.INTRA.POLAR>
0

>  <SCORE.INTRA.POLAR.0>
0

>  <SCORE.INTRA.REPUL>
0

>  <SCORE.INTRA.REPUL.0>
0

>  <SCORE.INTRA.SOLV>
1.13468

>  <SCORE.INTRA.SOLV.lig_0>
-14.2998

>  <SCORE.INTRA.VDW>
0.114257

>  <SCORE.INTRA.VDW.0>
-0.518619

>  <SCORE.INTRA.norm>
0.131768

>  <SCORE.RESTR>
0

>  <SCORE.RESTR.CAVITY>
0

>  <SCORE.RESTR.norm>
0

>  <SCORE.SYSTEM>
-21.4863

>  <SCORE.SYSTEM.CONST>
0

>  <SCORE.SYSTEM.DIHEDRAL>
7.61104

>  <SCORE.SYSTEM.POLAR>
-3.61083

>  <SCORE.SYSTEM.SOLV>
0.498085

>  <SCORE.SYSTEM.VDW>
-4.99112

>  <SCORE.SYSTEM.norm>
-1.9533

>  <SCORE.heavy>
11

>  <SCORE.norm>
-4.60504

$$$$
P137159987
 OpenBabel12072022103D
libRbt.so/2013.1/901 2013/11/27
 14 15  0  0  0  0  0  0  0  0999 V2000
   18.9761  -17.3736    3.2860 C   0  0  0  0  0  0  0  0  0  0  0  0
   20.1323  -17.9221    2.4494 C   0  0  0  0  0  0  0  0  0  0  0  0
   21.3010  -17.8457    3.4300 C   0  0  1  0  0  0  0  0  0  0  0  0
   21.7316  -16.3863    3.6523 C   0  0  1  0  0  0  0  0  0  0  0  0
   20.5631  -15.8403    4.4892 C   0  0  0  0  0  0  0  0  0  0  0  0
   19.6621  -17.0687    4.6160 C   0  0  2  0  0  0  0  0  0  0  0  0
   20.6339  -18.1397    4.6858 O   0  0  0  0  0  0  0  0  0  0  0  0
   22.9894  -16.3114    4.3840 N   0  0  0  0  0  0  0  0  0  0  0  0
   23.9238  -15.3777    4.0512 C   0  0  0  0  0  0  0  0  0  0  0  0
   23.9645  -14.7497    3.0051 O   0  0  0  0  0  0  0  0  0  0  0  0
   24.8435  -15.2029    5.0321 N   0  0  0  0  0  0  0  0  0  0  0  0
   22.9365  -16.5220    5.3722 H   0  0  0  0  0  0  0  0  0  0  0  0
   24.5935  -15.5499    5.9462 H   0  0  0  0  0  0  0  0  0  0  0  0
   25.7858  -15.4267    4.7373 H   0  0  0  0  0  0  0  0  0  0  0  0
  1  2  1  0  0  0  0
  3  2  1  6  0  0  0
  3  4  1  0  0  0  0
  3  7  1  0  0  0  0
  4  5  1  0  0  0  0
  4  8  1  1  0  0  0
  5  6  1  0  0  0  0
  6  1  1  6  0  0  0
  6  7  1  0  0  0  0
  8  9  1  0  0  0  0
  8 12  1  0  0  0  0
  9 10  2  0  0  0  0
  9 11  1  0  0  0  0
 11 13  1  0  0  0  0
 11 14  1  0  0  0  0
M  END
>  <CHROM.0>
-46.81761834,-61.32063188,-52.78864979,-51.34470003,-173.95817447,-53.94498390
-60.36776675,-175.80269143,-167.27171581,160.82244006

>  <CHROM.1>
140.87360507,-16.85315582,-17.09093519,21.75633220,-16.55325283,3.94085359
-3.10880142,0.49939158,1.71703708

>  <Name>
P137159987

>  <RI>
0

>  <Rbt.Current_Directory>
/home/fstefaniak/projects/zuza/docking/adenine/1Y26

>  <Rbt.Executable>
rbdock ($Id: //depot/dev/client3/rdock/2013.1/src/exe/rbdock.cxx#4 $)

>  <Rbt.Library>
libRbt.so (2013.1, Build901 2013/11/27)

>  <Rbt.Parameter_File>
/home/fstefaniak/progs/rDock//data/scripts/dock_solv.prm

>  <Rbt.Receptor>
1y26.prm

>  <SCORE>
-47.4241

>  <SCORE.INTER>
-25.3182

>  <SCORE.INTER.CONST>
1

>  <SCORE.INTER.POLAR>
-3.77243

>  <SCORE.INTER.ROT>
3

>  <SCORE.INTER.SOLV>
11.8152

>  <SCORE.INTER.VDW>
-13.8424

>  <SCORE.INTER.norm>
-2.30166

>  <SCORE.INTRA>
0.402869

>  <SCORE.INTRA.DIHEDRAL>
0.740709

>  <SCORE.INTRA.DIHEDRAL.0>
1.26077

>  <SCORE.INTRA.POLAR>
0

>  <SCORE.INTRA.POLAR.0>
0

>  <SCORE.INTRA.REPUL>
0

>  <SCORE.INTRA.REPUL.0>
0

>  <SCORE.INTRA.SOLV>
-0.0833331

>  <SCORE.INTRA.SOLV.lig_0>
-14.2998

>  <SCORE.INTRA.VDW>
0.0741809

>  <SCORE.INTRA.VDW.0>
-0.518619

>  <SCORE.INTRA.norm>
0.0366244

>  <SCORE.RESTR>
0

>  <SCORE.RESTR.CAVITY>
0

>  <SCORE.RESTR.norm>
0

>  <SCORE.SYSTEM>
-22.5088

>  <SCORE.SYSTEM.CONST>
0

>  <SCORE.SYSTEM.DIHEDRAL>
6.15612

>  <SCORE.SYSTEM.POLAR>
-3.55066

>  <SCORE.SYSTEM.SOLV>
0.304869

>  <SCORE.SYSTEM.VDW>
-5.32397

>  <SCORE.SYSTEM.norm>
-2.04625

>  <SCORE.heavy>
11

>  <SCORE.norm>
-4.31128

$$$$
P137159987
 OpenBabel12072022103D
libRbt.so/2013.1/901 2013/11/27
 14 15  0  0  0  0  0  0  0  0999 V2000
   19.4001  -18.4885    6.5076 C   0  0  0  0  0  0  0  0  0  0  0  0
   18.3522  -19.2676    5.7123 C   0  0  0  0  0  0  0  0  0  0  0  0
   18.8946  -19.1706    4.2876 C   0  0  1  0  0  0  0  0  0  0  0  0
   18.7218  -17.7462    3.7344 C   0  0  1  0  0  0  0  0  0  0  0  0
   19.7741  -16.9683    4.5412 C   0  0  0  0  0  0  0  0  0  0  0  0
   20.3801  -18.0666    5.4149 C   0  0  2  0  0  0  0  0  0  0  0  0
   20.3259  -19.2102    4.5285 O   0  0  0  0  0  0  0  0  0  0  0  0
   19.0039  -17.6958    2.3058 N   0  0  0  0  0  0  0  0  0  0  0  0
   20.2580  -17.9580    1.8429 C   0  0  0  0  0  0  0  0  0  0  0  0
   21.2949  -17.8188    2.4723 O   0  0  0  0  0  0  0  0  0  0  0  0
   20.2471  -18.4075    0.5638 N   0  0  0  0  0  0  0  0  0  0  0  0
   18.2565  -18.0066    1.6986 H   0  0  0  0  0  0  0  0  0  0  0  0
   20.8916  -17.9619   -0.0722 H   0  0  0  0  0  0  0  0  0  0  0  0
   20.2174  -19.4174    0.4981 H   0  0  0  0  0  0  0  0  0  0  0  0
  1  2  1  0  0  0  0
  3  2  1  1  0  0  0
  3  4  1  0  0  0  0
  3  7  1  0  0  0  0
  4  5  1  0  0  0  0
  4  8  1  6  0  0  0
  5  6  1  0  0  0  0
  6  1  1  1  0  0  0
  6  7  1  0  0  0  0
  8  9  1  0  0  0  0
  8 12  1  0  0  0  0
  9 10  2  0  0  0  0
  9 11  1  0  0  0  0
 11 13  1  0  0  0  0
 11 14  1  0  0  0  0
M  END
>  <CHROM.0>
63.32487898,-62.33033895,-62.43926298,-54.77975936,-174.63192646,-61.69545203
-62.18259136,-173.91525944,-168.16990218,160.90989007

>  <CHROM.1>
-64.78180983,-25.47938908,131.48560600,19.72543849,-18.26743014,3.75528976
-1.80990534,-0.32091559,-1.51150727

>  <Name>
P137159987

>  <RI>
0

>  <Rbt.Current_Directory>
/home/fstefaniak/projects/zuza/docking/adenine/1Y26

>  <Rbt.Executable>
rbdock ($Id: //depot/dev/client3/rdock/2013.1/src/exe/rbdock.cxx#4 $)

>  <Rbt.Library>
libRbt.so (2013.1, Build901 2013/11/27)

>  <Rbt.Parameter_File>
/home/fstefaniak/progs/rDock//data/scripts/dock_solv.prm

>  <Rbt.Receptor>
1y26.prm

>  <SCORE>
-47.3387

>  <SCORE.INTER>
-27.5191

>  <SCORE.INTER.CONST>
1

>  <SCORE.INTER.POLAR>
-3.44467

>  <SCORE.INTER.ROT>
3

>  <SCORE.INTER.SOLV>
13.7775

>  <SCORE.INTER.VDW>
-17.0563

>  <SCORE.INTER.norm>
-2.50173

>  <SCORE.INTRA>
1.84073

>  <SCORE.INTRA.DIHEDRAL>
0.0641178

>  <SCORE.INTRA.DIHEDRAL.0>
1.26077

>  <SCORE.INTRA.POLAR>
0

>  <SCORE.INTRA.POLAR.0>
0

>  <SCORE.INTRA.REPUL>
0

>  <SCORE.INTRA.REPUL.0>
0

>  <SCORE.INTRA.SOLV>
1.09428

>  <SCORE.INTRA.SOLV.lig_0>
-14.2998

>  <SCORE.INTRA.VDW>
1.26154

>  <SCORE.INTRA.VDW.0>
-0.518619

>  <SCORE.INTRA.norm>
0.16734

>  <SCORE.RESTR>
0

>  <SCORE.RESTR.CAVITY>
0

>  <SCORE.RESTR.norm>
0

>  <SCORE.SYSTEM>
-21.6604

>  <SCORE.SYSTEM.CONST>
0

>  <SCORE.SYSTEM.DIHEDRAL>
4.80399

>  <SCORE.SYSTEM.POLAR>
-3.12104

>  <SCORE.SYSTEM.SOLV>
0.232915

>  <SCORE.SYSTEM.VDW>
-5.71575

>  <SCORE.SYSTEM.norm>
-1.96912

>  <SCORE.heavy>
11

>  <SCORE.norm>
-4.30352

$$$$
P137315312
 OpenBabel12072022103D
libRbt.so/2013.1/901 2013/11/27
 17 18  0  0  0  0  0  0  0  0999 V2000
   22.9590  -12.8200    2.9749 C   0  0  0  0  0  0  0  0  0  0  0  0
   23.9197  -13.8778    3.5241 C   0  0  0  0  0  0  0  0  0  0  0  0
   24.9996  -13.2355    4.3981 C   0  0  0  0  0  0  0  0  0  0  0  0
   23.1353  -14.9579    4.3303 C   0  0  0  0  0  0  0  0  0  0  0  0
   23.4738  -15.3061    5.4623 O   0  0  0  0  0  0  0  0  0  0  0  0
   22.0401  -15.5026    3.6926 N   0  0  0  0  0  0  0  0  0  0  0  0
   21.4954  -16.7850    4.1200 C   0  0  2  0  0  0  0  0  0  0  0  0
   20.9668  -17.5921    2.9259 C   0  0  0  0  0  0  0  0  0  0  0  0
   19.4945  -17.7756    3.2933 C   0  0  1  0  0  0  0  0  0  0  0  0
   19.3430  -18.7558    4.4552 C   0  0  0  0  0  0  0  0  0  0  0  0
   19.8410  -17.9285    5.6404 C   0  0  0  0  0  0  0  0  0  0  0  0
   20.2223  -16.6099    4.9710 C   0  0  2  0  0  0  0  0  0  0  0  0
   19.2026  -16.5148    3.9391 O   0  0  0  0  0  0  0  0  0  0  0  0
   24.5885  -14.5338    2.3745 N   0  0  0  0  0  0  0  0  0  0  0  0
   21.4021  -14.8709    3.2240 H   0  0  0  0  0  0  0  0  0  0  0  0
   25.3542  -15.1031    2.7448 H   0  0  0  0  0  0  0  0  0  0  0  0
   25.0777  -13.8063    1.8458 H   0  0  0  0  0  0  0  0  0  0  0  0
  1  2  1  0  0  0  0
  2  3  1  0  0  0  0
  2  4  1  0  0  0  0
  2 14  1  0  0  0  0
  4  5  2  0  0  0  0
  4  6  1  0  0  0  0
  6 15  1  0  0  0  0
  7  6  1  6  0  0  0
  7  8  1  0  0  0  0
  7 12  1  0  0  0  0
  9  8  1  1  0  0  0
  9 10  1  0  0  0  0
  9 13  1  0  0  0  0
 10 11  1  0  0  0  0
 12 11  1  1  0  0  0
 12 13  1  0  0  0  0
 14 16  1  0  0  0  0
 14 17  1  0  0  0  0
M  END
>  <CHROM.0>
-50.15774590,57.21460971,-54.94388042,61.62341586,-173.59982929,-54.88280112
-55.88025414,-51.36610442,-167.09769729,160.99867072

>  <CHROM.1>
-130.19079787,169.11000496,159.87824949,-144.84271682,21.86561031,-15.83511939
3.99639718,0.29821120,-0.67578145,-1.28212965

>  <Name>
P137315312

>  <RI>
0

>  <Rbt.Current_Directory>
/home/fstefaniak/projects/zuza/docking/adenine/1Y26

>  <Rbt.Executable>
rbdock ($Id: //depot/dev/client3/rdock/2013.1/src/exe/rbdock.cxx#4 $)

>  <Rbt.Library>
libRbt.so (2013.1, Build901 2013/11/27)

>  <Rbt.Parameter_File>
/home/fstefaniak/progs/rDock//data/scripts/dock_solv.prm

>  <Rbt.Receptor>
1y26.prm

>  <SCORE>
-47.6817

>  <SCORE.INTER>
-31.2708

>  <SCORE.INTER.CONST>
1

>  <SCORE.INTER.POLAR>
-3.71415

>  <SCORE.INTER.ROT>
4

>  <SCORE.INTER.SOLV>
11.9494

>  <SCORE.INTER.VDW>
-18.7165

>  <SCORE.INTER.norm>
-2.23363

>  <SCORE.INTRA>
2.08767

>  <SCORE.INTRA.DIHEDRAL>
0.480169

>  <SCORE.INTRA.DIHEDRAL.0>
1.28683

>  <SCORE.INTRA.POLAR>
0

>  <SCORE.INTRA.POLAR.0>
0

>  <SCORE.INTRA.REPUL>
0

>  <SCORE.INTRA.REPUL.0>
0

>  <SCORE.INTRA.SOLV>
-0.0925127

>  <SCORE.INTRA.SOLV.lig_0>
-11.654

>  <SCORE.INTRA.VDW>
1.89384

>  <SCORE.INTRA.VDW.0>
-0.365778

>  <SCORE.INTRA.norm>
0.149119

>  <SCORE.RESTR>
0.234848

>  <SCORE.RESTR.CAVITY>
0.234848

>  <SCORE.RESTR.norm>
0.0167749

>  <SCORE.SYSTEM>
-18.7334

>  <SCORE.SYSTEM.CONST>
0

>  <SCORE.SYSTEM.DIHEDRAL>
5.69146

>  <SCORE.SYSTEM.POLAR>
-2.94478

>  <SCORE.SYSTEM.SOLV>
0.502601

>  <SCORE.SYSTEM.VDW>
-4.7377

>  <SCORE.SYSTEM.norm>
-1.3381

>  <SCORE.heavy>
14

>  <SCORE.norm>
-3.40584

$$$$
P137315312
 OpenBabel12072022103D
libRbt.so/2013.1/901 2013/11/27
 17 18  0  0  0  0  0  0  0  0999 V2000
   23.2809  -12.5012    4.8545 C   0  0  0  0  0  0  0  0  0  0  0  0
   23.1729  -13.8278    4.0981 C   0  0  0  0  0  0  0  0  0  0  0  0
   24.4334  -14.6736    4.2935 C   0  0  0  0  0  0  0  0  0  0  0  0
   21.9091  -14.6156    4.5608 C   0  0  0  0  0  0  0  0  0  0  0  0
   21.3744  -14.4157    5.6523 O   0  0  0  0  0  0  0  0  0  0  0  0
   21.4305  -15.5550    3.6712 N   0  0  0  0  0  0  0  0  0  0  0  0
   21.1087  -16.9039    4.1192 C   0  0  2  0  0  0  0  0  0  0  0  0
   20.7143  -17.8040    2.9398 C   0  0  0  0  0  0  0  0  0  0  0  0
   19.2951  -18.2240    3.3215 C   0  0  1  0  0  0  0  0  0  0  0  0
   19.3151  -19.1995    4.4969 C   0  0  0  0  0  0  0  0  0  0  0  0
   19.6759  -18.2847    5.6674 C   0  0  0  0  0  0  0  0  0  0  0  0
   19.8293  -16.9305    4.9782 C   0  0  2  0  0  0  0  0  0  0  0  0
   18.8018  -17.0203    3.9535 O   0  0  0  0  0  0  0  0  0  0  0  0
   23.0423  -13.5243    2.6523 N   0  0  0  0  0  0  0  0  0  0  0  0
   20.9473  -15.2225    2.8455 H   0  0  0  0  0  0  0  0  0  0  0  0
   23.6968  -12.7684    2.4338 H   0  0  0  0  0  0  0  0  0  0  0  0
   22.1283  -13.0855    2.5104 H   0  0  0  0  0  0  0  0  0  0  0  0
  1  2  1  0  0  0  0
  2  3  1  0  0  0  0
  2  4  1  0  0  0  0
  2 14  1  0  0  0  0
  4  5  2  0  0  0  0
  4  6  1  0  0  0  0
  6 15  1  0  0  0  0
  7  6  1  6  0  0  0
  7  8  1  0  0  0  0
  7 12  1  0  0  0  0
  9  8  1  1  0  0  0
  9 10  1  0  0  0  0
  9 13  1  0  0  0  0
 10 11  1  0  0  0  0
 12 11  1  1  0  0  0
 12 13  1  0  0  0  0
 14 16  1  0  0  0  0
 14 17  1  0  0  0  0
M  END
>  <CHROM.0>
-49.08127515,-62.31353602,-57.27585107,-54.25185735,-56.68013402,-60.33645228
-59.79829217,63.04071041,-166.39927881,161.56827960

>  <CHROM.1>
-22.40724138,41.94846660,131.80316460,-174.99073214,21.25195140,-15.91370136
4.22233032,0.39348529,0.81043750,1.02747179

>  <Name>
P137315312

>  <RI>
0

>  <Rbt.Current_Directory>
/home/fstefaniak/projects/zuza/docking/adenine/1Y26

>  <Rbt.Executable>
rbdock ($Id: //depot/dev/client3/rdock/2013.1/src/exe/rbdock.cxx#4 $)

>  <Rbt.Library>
libRbt.so (2013.1, Build901 2013/11/27)

>  <Rbt.Parameter_File>
/home/fstefaniak/progs/rDock//data/scripts/dock_solv.prm

>  <Rbt.Receptor>
1y26.prm

>  <SCORE>
-44.9902

>  <SCORE.INTER>
-25.0379

>  <SCORE.INTER.CONST>
1

>  <SCORE.INTER.POLAR>
-2.22633

>  <SCORE.INTER.ROT>
4

>  <SCORE.INTER.SOLV>
11.8451

>  <SCORE.INTER.VDW>
-19.4859

>  <SCORE.INTER.norm>
-1.78842

>  <SCORE.INTRA>
1.51184

>  <SCORE.INTRA.DIHEDRAL>
1.27233

>  <SCORE.INTRA.DIHEDRAL.0>
1.28683

>  <SCORE.INTRA.POLAR>
0

>  <SCORE.INTRA.POLAR.0>
0

>  <SCORE.INTRA.REPUL>
0

>  <SCORE.INTRA.REPUL.0>
0

>  <SCORE.INTRA.SOLV>
0.232931

>  <SCORE.INTRA.SOLV.lig_0>
-11.654

>  <SCORE.INTRA.VDW>
0.759206

>  <SCORE.INTRA.VDW.0>
-0.365778

>  <SCORE.INTRA.norm>
0.107988

>  <SCORE.RESTR>
0

>  <SCORE.RESTR.CAVITY>
0

>  <SCORE.RESTR.norm>
0

>  <SCORE.SYSTEM>
-21.4642

>  <SCORE.SYSTEM.CONST>
0

>  <SCORE.SYSTEM.DIHEDRAL>
5.20718

>  <SCORE.SYSTEM.POLAR>
-3.3906

>  <SCORE.SYSTEM.SOLV>
0.422533

>  <SCORE.SYSTEM.VDW>
-4.88401

>  <SCORE.SYSTEM.norm>
-1.53315

>  <SCORE.heavy>
14

>  <SCORE.norm>
-3.21359

$$$$
P137315312
 OpenBabel12072022103D
libRbt.so/2013.1/901 2013/11/27
 17 18  0  0  0  0  0  0  0  0999 V2000
   23.2818  -13.2706    3.1605 C   0  0  0  0  0  0  0  0  0  0  0  0
   23.3407  -14.1357    4.4221 C   0  0  0  0  0  0  0  0  0  0  0  0
   22.3217  -13.6599    5.4604 C   0  0  0  0  0  0  0  0  0  0  0  0
   23.0979  -15.6342    4.0652 C   0  0  0  0  0  0  0  0  0  0  0  0
   23.9528  -16.5005    4.2545 O   0  0  0  0  0  0  0  0  0  0  0  0
   21.8657  -15.9272    3.5188 N   0  0  0  0  0  0  0  0  0  0  0  0
   21.1997  -17.1869    3.8248 C   0  0  2  0  0  0  0  0  0  0  0  0
   20.5006  -17.7634    2.5857 C   0  0  0  0  0  0  0  0  0  0  0  0
   19.0443  -17.8300    3.0448 C   0  0  1  0  0  0  0  0  0  0  0  0
   18.8522  -18.9339    4.0832 C   0  0  0  0  0  0  0  0  0  0  0  0
   19.5228  -18.3328    5.3186 C   0  0  0  0  0  0  0  0  0  0  0  0
   20.0155  -16.9870    4.7909 C   0  0  2  0  0  0  0  0  0  0  0  0
   18.9492  -16.6424    3.8647 O   0  0  0  0  0  0  0  0  0  0  0  0
   24.6950  -13.9996    5.0111 N   0  0  0  0  0  0  0  0  0  0  0  0
   21.2719  -15.1531    3.2468 H   0  0  0  0  0  0  0  0  0  0  0  0
   25.3687  -14.3463    4.3230 H   0  0  0  0  0  0  0  0  0  0  0  0
   24.7710  -14.6814    5.7711 H   0  0  0  0  0  0  0  0  0  0  0  0
  1  2  1  0  0  0  0
  2  3  1  0  0  0  0
  2  4  1  0  0  0  0
  2 14  1  0  0  0  0
  4  5  2  0  0  0  0
  4  6  1  0  0  0  0
  6 15  1  0  0  0  0
  7  6  1  6  0  0  0
  7  8  1  0  0  0  0
  7 12  1  0  0  0  0
  9  8  1  1  0  0  0
  9 10  1  0  0  0  0
  9 13  1  0  0  0  0
 10 11  1  0  0  0  0
 12 11  1  6  0  0  0
 12 13  1  0  0  0  0
 14 16  1  0  0  0  0
 14 17  1  0  0  0  0
M  END
>  <CHROM.0>
-49.02595956,68.69370997,-49.53675336,-50.03752175,-57.30680454,-56.33592505
-55.87749575,-46.30287747,-167.19453616,161.85687802

>  <CHROM.1>
117.41733478,-61.55940098,-144.68475183,-140.78731483,21.50817172,-16.16709415
4.10730540,0.71666666,0.03752715,0.16972969

>  <Name>
P137315312

>  <RI>
0

>  <Rbt.Current_Directory>
/home/fstefaniak/projects/zuza/docking/adenine/1Y26

>  <Rbt.Executable>
rbdock ($Id: //depot/dev/client3/rdock/2013.1/src/exe/rbdock.cxx#4 $)

>  <Rbt.Library>
libRbt.so (2013.1, Build901 2013/11/27)

>  <Rbt.Parameter_File>
/home/fstefaniak/progs/rDock//data/scripts/dock_solv.prm

>  <Rbt.Receptor>
1y26.prm

>  <SCORE>
-44.9644

>  <SCORE.INTER>
-23.8135

>  <SCORE.INTER.CONST>
1

>  <SCORE.INTER.POLAR>
-2.36691

>  <SCORE.INTER.ROT>
4

>  <SCORE.INTER.SOLV>
11.9345

>  <SCORE.INTER.VDW>
-18.2308

>  <SCORE.INTER.norm>
-1.70096

>  <SCORE.INTRA>
-0.115261

>  <SCORE.INTRA.DIHEDRAL>
0.40294

>  <SCORE.INTRA.DIHEDRAL.0>
1.28683

>  <SCORE.INTRA.POLAR>
0

>  <SCORE.INTRA.POLAR.0>
0

>  <SCORE.INTRA.REPUL>
0

>  <SCORE.INTRA.REPUL.0>
0

>  <SCORE.INTRA.SOLV>
-0.11218

>  <SCORE.INTRA.SOLV.lig_0>
-11.654

>  <SCORE.INTRA.VDW>
-0.260641

>  <SCORE.INTRA.VDW.0>
-0.365778

>  <SCORE.INTRA.norm>
-0.00823295

>  <SCORE.RESTR>
0.0292933

>  <SCORE.RESTR.CAVITY>
0.0292933

>  <SCORE.RESTR.norm>
0.00209238

>  <SCORE.SYSTEM>
-21.065

>  <SCORE.SYSTEM.CONST>
0

>  <SCORE.SYSTEM.DIHEDRAL>
7.07995

>  <SCORE.SYSTEM.POLAR>
-3.59288

>  <SCORE.SYSTEM.SOLV>
0.698457

>  <SCORE.SYSTEM.VDW>
-4.65985

>  <SCORE.SYSTEM.norm>
-1.50464

>  <SCORE.heavy>
14

>  <SCORE.norm>
-3.21174

$$$$
P137317917
 OpenBabel12072022103D
libRbt.so/2013.1/901 2013/11/27
 18 19  0  0  0  0  0  0  0  0999 V2000
   18.9344  -18.7198    4.0112 C   0  0  0  0  0  0  0  0  0  0  0  0
   19.4370  -18.2821    5.3863 C   0  0  0  0  0  0  0  0  0  0  0  0
   20.1291  -16.9592    5.0705 C   0  0  1  0  0  0  0  0  0  0  0  0
   21.4402  -17.1964    4.2984 C   0  0  1  0  0  0  0  0  0  0  0  0
   20.9231  -17.6231    2.9169 C   0  0  0  0  0  0  0  0  0  0  0  0
   19.4069  -17.5782    3.1154 C   0  0  2  0  0  0  0  0  0  0  0  0
   19.2838  -16.4375    4.0076 O   0  0  0  0  0  0  0  0  0  0  0  0
   22.3194  -15.9981    4.2191 N   0  0  0  0  0  0  0  0  0  0  0  0
   23.6309  -15.9049    4.5259 C   0  0  0  0  0  0  0  0  0  0  0  0
   24.3691  -16.9525    4.9982 N   0  3  0  0  0  0  0  0  0  0  0  0
   24.0166  -17.9206    4.9811 H   0  0  0  0  0  0  0  0  0  0  0  0
   25.7137  -16.7543    5.3525 N   0  0  0  0  0  0  0  0  0  0  0  0
   24.2456  -14.7191    4.3608 N   0  0  0  0  0  0  0  0  0  0  0  0
   21.8858  -15.1467    3.8873 H   0  0  0  0  0  0  0  0  0  0  0  0
   25.7481  -16.2281    6.2344 H   0  0  0  0  0  0  0  0  0  0  0  0
   26.1330  -17.6698    5.5621 H   0  0  0  0  0  0  0  0  0  0  0  0
   23.7903  -13.8910    4.0100 H   0  0  0  0  0  0  0  0  0  0  0  0
   25.2512  -14.7093    4.4926 H   0  0  0  0  0  0  0  0  0  0  0  0
  1  2  1  0  0  0  0
  3  2  1  6  0  0  0
  3  4  1  0  0  0  0
  3  7  1  0  0  0  0
  4  5  1  0  0  0  0
  4  8  1  6  0  0  0
  5  6  1  0  0  0  0
  6  1  1  1  0  0  0
  6  7  1  0  0  0  0
  8  9  1  0  0  0  0
  8 14  1  0  0  0  0
  9 10  2  0  0  0  0
  9 13  1  0  0  0  0
 10 11  1  0  0  0  0
 10 12  1  0  0  0  0
 12 15  1  0  0  0  0
 12 16  1  0  0  0  0
 13 17  1  0  0  0  0
 13 18  1  0  0  0  0
M  CHG  1  10   1
M  END
>  <CHROM.0>
-50.56822430,-60.38917929,-50.61974835,-50.49828433,-54.38347643,-58.61839810
-53.80522475,-50.91941966,-166.63261809,160.24533715

>  <CHROM.1>
128.95113287,73.23671909,21.72399312,-16.89296384,4.37034204,-2.93097591
-0.26314251,-0.44788575

>  <Name>
P137317917

>  <RI>
0

>  <Rbt.Current_Directory>
/home/fstefaniak/projects/zuza/docking/adenine/1Y26

>  <Rbt.Executable>
rbdock ($Id: //depot/dev/client3/rdock/2013.1/src/exe/rbdock.cxx#4 $)

>  <Rbt.Library>
libRbt.so (2013.1, Build901 2013/11/27)

>  <Rbt.Parameter_File>
/home/fstefaniak/progs/rDock//data/scripts/dock_solv.prm

>  <Rbt.Receptor>
1y26.prm

>  <SCORE>
-60.6154

>  <SCORE.INTER>
-40.7261

>  <SCORE.INTER.CONST>
1

>  <SCORE.INTER.POLAR>
-5.0716

>  <SCORE.INTER.ROT>
2

>  <SCORE.INTER.SOLV>
17.6352

>  <SCORE.INTER.VDW>
-21.0571

>  <SCORE.INTER.norm>
-3.39384

>  <SCORE.INTRA>
2.23568

>  <SCORE.INTRA.DIHEDRAL>
0.0718035

>  <SCORE.INTRA.DIHEDRAL.0>
3.19751

>  <SCORE.INTRA.POLAR>
0.996235

>  <SCORE.INTRA.POLAR.0>
-1.06683

>  <SCORE.INTRA.REPUL>
0

>  <SCORE.INTRA.REPUL.0>
0

>  <SCORE.INTRA.SOLV>
-2.01392

>  <SCORE.INTRA.SOLV.lig_0>
-28.1807

>  <SCORE.INTRA.VDW>
-0.180462

>  <SCORE.INTRA.VDW.0>
-0.821501

>  <SCORE.INTRA.norm>
0.186306

>  <SCORE.RESTR>
0

>  <SCORE.RESTR.CAVITY>
0

>  <SCORE.RESTR.norm>
0

>  <SCORE.SYSTEM>
-22.1251

>  <SCORE.SYSTEM.CONST>
0

>  <SCORE.SYSTEM.DIHEDRAL>
6.4396

>  <SCORE.SYSTEM.POLAR>
-3.58459

>  <SCORE.SYSTEM.SOLV>
0.6909

>  <SCORE.SYSTEM.VDW>
-5.17824

>  <SCORE.SYSTEM.norm>
-1.84375

>  <SCORE.heavy>
12

>  <SCORE.norm>
-5.05129

$$$$
P137317917
 OpenBabel12072022103D
libRbt.so/2013.1/901 2013/11/27
 18 19  0  0  0  0  0  0  0  0999 V2000
   19.0166  -18.7410    3.6326 C   0  0  0  0  0  0  0  0  0  0  0  0
   19.1004  -17.9537    4.9397 C   0  0  0  0  0  0  0  0  0  0  0  0
   19.9043  -16.7248    4.5248 C   0  0  1  0  0  0  0  0  0  0  0  0
   21.3766  -17.0940    4.2652 C   0  0  1  0  0  0  0  0  0  0  0  0
   21.2813  -17.8727    2.9452 C   0  0  0  0  0  0  0  0  0  0  0  0
   19.7780  -17.8411    2.6634 C   0  0  2  0  0  0  0  0  0  0  0  0
   19.4362  -16.5196    3.1628 O   0  0  0  0  0  0  0  0  0  0  0  0
   22.2834  -15.9189    4.1553 N   0  0  0  0  0  0  0  0  0  0  0  0
   23.5942  -15.8453    4.4704 C   0  0  0  0  0  0  0  0  0  0  0  0
   24.3045  -16.8935    4.9823 N   0  3  0  0  0  0  0  0  0  0  0  0
   23.9303  -17.8535    4.9931 H   0  0  0  0  0  0  0  0  0  0  0  0
   25.6505  -16.7142    5.3418 N   0  0  0  0  0  0  0  0  0  0  0  0
   24.2369  -14.6795    4.2728 N   0  0  0  0  0  0  0  0  0  0  0  0
   21.8719  -15.0691    3.7927 H   0  0  0  0  0  0  0  0  0  0  0  0
   25.6887  -16.1955    6.2280 H   0  0  0  0  0  0  0  0  0  0  0  0
   26.0583  -17.6363    5.5452 H   0  0  0  0  0  0  0  0  0  0  0  0
   23.8034  -13.8531    3.8917 H   0  0  0  0  0  0  0  0  0  0  0  0
   25.2414  -14.6881    4.4129 H   0  0  0  0  0  0  0  0  0  0  0  0
  1  2  1  0  0  0  0
  3  2  1  6  0  0  0
  3  4  1  0  0  0  0
  3  7  1  0  0  0  0
  4  5  1  0  0  0  0
  4  8  1  6  0  0  0
  5  6  1  0  0  0  0
  6  1  1  1  0  0  0
  6  7  1  0  0  0  0
  8  9  1  0  0  0  0
  8 14  1  0  0  0  0
  9 10  2  0  0  0  0
  9 13  1  0  0  0  0
 10 11  1  0  0  0  0
 10 12  1  0  0  0  0
 12 15  1  0  0  0  0
 12 16  1  0  0  0  0
 13 17  1  0  0  0  0
 13 18  1  0  0  0  0
M  CHG  1  10   1
M  END
>  <CHROM.0>
-46.00061989,-62.65653521,-52.33544899,-49.51912862,-56.01066536,-62.76153138
-58.84832954,64.44284979,-166.98159624,160.14522295

>  <CHROM.1>
150.42550423,75.63541077,21.73497987,-16.86671701,4.12744998,-2.90606763
-0.29976490,-0.28820464

>  <Name>
P137317917

>  <RI>
0

>  <Rbt.Current_Directory>
/home/fstefaniak/projects/zuza/docking/adenine/1Y26

>  <Rbt.Executable>
rbdock ($Id: //depot/dev/client3/rdock/2013.1/src/exe/rbdock.cxx#4 $)

>  <Rbt.Library>
libRbt.so (2013.1, Build901 2013/11/27)

>  <Rbt.Parameter_File>
/home/fstefaniak/progs/rDock//data/scripts/dock_solv.prm

>  <Rbt.Receptor>
1y26.prm

>  <SCORE>
-59.7878

>  <SCORE.INTER>
-40.7271

>  <SCORE.INTER.CONST>
1

>  <SCORE.INTER.POLAR>
-6.07875

>  <SCORE.INTER.ROT>
2

>  <SCORE.INTER.SOLV>
17.2642

>  <SCORE.INTER.VDW>
-17.577

>  <SCORE.INTER.norm>
-3.39393

>  <SCORE.INTRA>
2.2993

>  <SCORE.INTRA.DIHEDRAL>
0.110702

>  <SCORE.INTRA.DIHEDRAL.0>
3.19751

>  <SCORE.INTRA.POLAR>
0.99435

>  <SCORE.INTRA.POLAR.0>
-1.06683

>  <SCORE.INTRA.REPUL>
0

>  <SCORE.INTRA.REPUL.0>
0

>  <SCORE.INTRA.SOLV>
-1.95946

>  <SCORE.INTRA.SOLV.lig_0>
-28.1807

>  <SCORE.INTRA.VDW>
-0.157118

>  <SCORE.INTRA.VDW.0>
-0.821501

>  <SCORE.INTRA.norm>
0.191608

>  <SCORE.RESTR>
0

>  <SCORE.RESTR.CAVITY>
0

>  <SCORE.RESTR.norm>
0

>  <SCORE.SYSTEM>
-21.36

>  <SCORE.SYSTEM.CONST>
0

>  <SCORE.SYSTEM.DIHEDRAL>
6.3876

>  <SCORE.SYSTEM.POLAR>
-3.59608

>  <SCORE.SYSTEM.SOLV>
0.439262

>  <SCORE.SYSTEM.VDW>
-4.52868

>  <SCORE.SYSTEM.norm>
-1.78

>  <SCORE.heavy>
12

>  <SCORE.norm>
-4.98232

$$$$
P137317917
 OpenBabel12072022103D
libRbt.so/2013.1/901 2013/11/27
 18 19  0  0  0  0  0  0  0  0999 V2000
   18.8768  -18.6957    4.0327 C   0  0  0  0  0  0  0  0  0  0  0  0
   19.5046  -18.2531    5.3538 C   0  0  0  0  0  0  0  0  0  0  0  0
   20.1838  -16.9431    4.9650 C   0  0  1  0  0  0  0  0  0  0  0  0
   21.4184  -17.2059    4.0828 C   0  0  1  0  0  0  0  0  0  0  0  0
   20.7758  -17.6373    2.7566 C   0  0  0  0  0  0  0  0  0  0  0  0
   19.2837  -17.5690    3.0874 C   0  0  2  0  0  0  0  0  0  0  0  0
   19.2553  -16.4188    3.9755 O   0  0  0  0  0  0  0  0  0  0  0  0
   22.3033  -16.0211    3.9143 N   0  0  0  0  0  0  0  0  0  0  0  0
   23.5983  -15.8903    4.2730 C   0  0  0  0  0  0  0  0  0  0  0  0
   24.3098  -16.8767    4.8945 N   0  3  0  0  0  0  0  0  0  0  0  0
   23.9563  -17.8418    4.9676 H   0  0  0  0  0  0  0  0  0  0  0  0
   25.6359  -16.6361    5.2903 N   0  0  0  0  0  0  0  0  0  0  0  0
   24.2232  -14.7282    4.0077 N   0  0  0  0  0  0  0  0  0  0  0  0
   21.8886  -15.2131    3.4690 H   0  0  0  0  0  0  0  0  0  0  0  0
   25.6262  -16.0815    6.1553 H   0  0  0  0  0  0  0  0  0  0  0  0
   26.0673  -17.5345    5.5445 H   0  0  0  0  0  0  0  0  0  0  0  0
   23.7877  -13.9456    3.5451 H   0  0  0  0  0  0  0  0  0  0  0  0
   25.2211  -14.7007    4.1869 H   0  0  0  0  0  0  0  0  0  0  0  0
  1  2  1  0  0  0  0
  3  2  1  6  0  0  0
  3  4  1  0  0  0  0
  3  7  1  0  0  0  0
  4  5  1  0  0  0  0
  4  8  1  6  0  0  0
  5  6  1  0  0  0  0
  6  1  1  1  0  0  0
  6  7  1  0  0  0  0
  8  9  1  0  0  0  0
  8 14  1  0  0  0  0
  9 10  2  0  0  0  0
  9 13  1  0  0  0  0
 10 11  1  0  0  0  0
 10 12  1  0  0  0  0
 12 15  1  0  0  0  0
 12 16  1  0  0  0  0
 13 17  1  0  0  0  0
 13 18  1  0  0  0  0
M  CHG  1  10   1
M  END
>  <CHROM.0>
-54.85734646,52.93689098,-52.10656712,-54.82330555,-57.28079777,-52.08407916
-59.95223720,-50.37733530,-168.74443220,160.70931658

>  <CHROM.1>
119.10833588,78.00683472,21.68492339,-16.87109771,4.23396864,-2.95752923
-0.28200818,-0.62060377

>  <Name>
P137317917

>  <RI>
0

>  <Rbt.Current_Directory>
/home/fstefaniak/projects/zuza/docking/adenine/1Y26

>  <Rbt.Executable>
rbdock ($Id: //depot/dev/client3/rdock/2013.1/src/exe/rbdock.cxx#4 $)

>  <Rbt.Library>
libRbt.so (2013.1, Build901 2013/11/27)

>  <Rbt.Parameter_File>
/home/fstefaniak/progs/rDock//data/scripts/dock_solv.prm

>  <Rbt.Receptor>
1y26.prm

>  <SCORE>
-59.7259

>  <SCORE.INTER>
-40.5349

>  <SCORE.INTER.CONST>
1

>  <SCORE.INTER.POLAR>
-4.7911

>  <SCORE.INTER.ROT>
2

>  <SCORE.INTER.SOLV>
17.2663

>  <SCORE.INTER.VDW>
-21.7417

>  <SCORE.INTER.norm>
-3.37791

>  <SCORE.INTRA>
2.23724

>  <SCORE.INTRA.DIHEDRAL>
0.0944581

>  <SCORE.INTRA.DIHEDRAL.0>
3.19751

>  <SCORE.INTRA.POLAR>
0.99435

>  <SCORE.INTRA.POLAR.0>
-1.06683

>  <SCORE.INTRA.REPUL>
0

>  <SCORE.INTRA.REPUL.0>
0

>  <SCORE.INTRA.SOLV>
-2.04141

>  <SCORE.INTRA.SOLV.lig_0>
-28.1807

>  <SCORE.INTRA.VDW>
-0.170075

>  <SCORE.INTRA.VDW.0>
-0.821501

>  <SCORE.INTRA.norm>
0.186437

>  <SCORE.RESTR>
0

>  <SCORE.RESTR.CAVITY>
0

>  <SCORE.RESTR.norm>
0

>  <SCORE.SYSTEM>
-21.4282

>  <SCORE.SYSTEM.CONST>
0

>  <SCORE.SYSTEM.DIHEDRAL>
5.71564

>  <SCORE.SYSTEM.POLAR>
-3.44477

>  <SCORE.SYSTEM.SOLV>
0.7363

>  <SCORE.SYSTEM.VDW>
-4.95357

>  <SCORE.SYSTEM.norm>
-1.78569

>  <SCORE.heavy>
12

>  <SCORE.norm>
-4.97716

$$$$
P137721766
 OpenBabel12072022103D
libRbt.so/2013.1/901 2013/11/27
 17 18  0  0  0  0  0  0  0  0999 V2000
   19.6976  -18.8757    4.6022 C   0  0  0  0  0  0  0  0  0  0  0  0
   19.7522  -17.6779    5.5497 C   0  0  0  0  0  0  0  0  0  0  0  0
   20.3079  -16.4316    4.8480 C   0  0  2  0  0  0  0  0  0  0  0  0
   19.5623  -16.2087    3.5249 C   0  0  0  0  0  0  0  0  0  0  0  0
   19.6557  -17.3732    2.6913 O   0  0  0  0  0  0  0  0  0  0  0  0
   19.0192  -18.5040    3.2900 C   0  0  0  0  0  0  0  0  0  0  0  0
   21.7379  -16.5764    4.5894 N   0  0  0  0  0  0  0  0  0  0  0  0
   22.5017  -15.5806    4.0094 C   0  0  0  0  0  0  0  0  0  0  0  0
   21.9807  -14.5439    3.5928 O   0  0  0  0  0  0  0  0  0  0  0  0
   24.0524  -15.9058    3.9574 C   0  0  0  0  0  0  0  0  0  0  0  0
   24.8762  -15.7023    5.2578 C   0  0  0  0  0  0  0  0  0  0  0  0
   25.6227  -17.0170    4.9579 C   0  0  0  0  0  0  0  0  0  0  0  0
   24.4751  -17.3982    4.0024 C   0  0  0  0  0  0  0  0  0  0  0  0
   24.8090  -15.2620    2.8537 N   0  0  0  0  0  0  0  0  0  0  0  0
   22.2166  -17.3486    5.0346 H   0  0  0  0  0  0  0  0  0  0  0  0
   25.0258  -15.8919    2.0824 H   0  0  0  0  0  0  0  0  0  0  0  0
   25.6718  -14.8026    3.1356 H   0  0  0  0  0  0  0  0  0  0  0  0
  1  2  1  0  0  0  0
  1  6  1  0  0  0  0
  2  3  1  0  0  0  0
  3  4  1  0  0  0  0
  3  7  1  6  0  0  0
  4  5  1  0  0  0  0
  5  6  1  0  0  0  0
  7  8  1  0  0  0  0
  7 15  1  0  0  0  0
  8  9  2  0  0  0  0
  8 10  1  0  0  0  0
 10 11  1  0  0  0  0
 10 13  1  0  0  0  0
 10 14  1  0  0  0  0
 11 12  1  0  0  0  0
 12 13  1  0  0  0  0
 14 16  1  0  0  0  0
 14 17  1  0  0  0  0
M  END
>  <CHROM.0>
-46.92259486,-58.57966848,-52.87664217,-50.30537778,-55.82351549,-175.69396527
-55.18076359,60.28111906,-167.77555258,160.76269265

>  <CHROM.1>
-177.65739649,-79.12407202,-102.96233179,21.99758017,-16.64322080,4.09229690
-2.89394453,-0.18559924,-0.50546755

>  <Name>
P137721766

>  <RI>
0

>  <Rbt.Current_Directory>
/home/fstefaniak/projects/zuza/docking/adenine/1Y26

>  <Rbt.Executable>
rbdock ($Id: //depot/dev/client3/rdock/2013.1/src/exe/rbdock.cxx#4 $)

>  <Rbt.Library>
libRbt.so (2013.1, Build901 2013/11/27)

>  <Rbt.Parameter_File>
/home/fstefaniak/progs/rDock//data/scripts/dock_solv.prm

>  <Rbt.Receptor>
1y26.prm

>  <SCORE>
-47.0801

>  <SCORE.INTER>
-28.3399

>  <SCORE.INTER.CONST>
1

>  <SCORE.INTER.POLAR>
-3.39732

>  <SCORE.INTER.ROT>
3

>  <SCORE.INTER.SOLV>
13.9789

>  <SCORE.INTER.VDW>
-17.8285

>  <SCORE.INTER.norm>
-2.02428

>  <SCORE.INTRA>
2.31275

>  <SCORE.INTRA.DIHEDRAL>
0.514749

>  <SCORE.INTRA.DIHEDRAL.0>
4.27198

>  <SCORE.INTRA.POLAR>
0

>  <SCORE.INTRA.POLAR.0>
0

>  <SCORE.INTRA.REPUL>
0

>  <SCORE.INTRA.REPUL.0>
0

>  <SCORE.INTRA.SOLV>
-0.328313

>  <SCORE.INTRA.SOLV.lig_0>
-12.4287

>  <SCORE.INTRA.VDW>
2.21953

>  <SCORE.INTRA.VDW.0>
-1.93606

>  <SCORE.INTRA.norm>
0.165196

>  <SCORE.RESTR>
0

>  <SCORE.RESTR.CAVITY>
0

>  <SCORE.RESTR.norm>
0

>  <SCORE.SYSTEM>
-21.053

>  <SCORE.SYSTEM.CONST>
0

>  <SCORE.SYSTEM.DIHEDRAL>
6.0418

>  <SCORE.SYSTEM.POLAR>
-3.54957

>  <SCORE.SYSTEM.SOLV>
0.313655

>  <SCORE.SYSTEM.VDW>
-4.32194

>  <SCORE.SYSTEM.norm>
-1.50379

>  <SCORE.heavy>
14

>  <SCORE.norm>
-3.36287

$$$$
P137721766
 OpenBabel12072022103D
libRbt.so/2013.1/901 2013/11/27
 17 18  0  0  0  0  0  0  0  0999 V2000
   19.6986  -18.8718    4.5798 C   0  0  0  0  0  0  0  0  0  0  0  0
   19.7428  -17.6788    5.5338 C   0  0  0  0  0  0  0  0  0  0  0  0
   20.3021  -16.4279    4.8432 C   0  0  2  0  0  0  0  0  0  0  0  0
   19.5674  -16.1997    3.5149 C   0  0  0  0  0  0  0  0  0  0  0  0
   19.6701  -17.3598    2.6762 O   0  0  0  0  0  0  0  0  0  0  0  0
   19.0307  -18.4947    3.2637 C   0  0  0  0  0  0  0  0  0  0  0  0
   21.7346  -16.5687    4.5961 N   0  0  0  0  0  0  0  0  0  0  0  0
   22.4847  -15.6034    3.9503 C   0  0  0  0  0  0  0  0  0  0  0  0
   21.9492  -14.6052    3.4638 O   0  0  0  0  0  0  0  0  0  0  0  0
   24.0400  -15.9084    3.9216 C   0  0  0  0  0  0  0  0  0  0  0  0
   24.8416  -15.6936    5.2340 C   0  0  0  0  0  0  0  0  0  0  0  0
   25.6096  -16.9986    4.9462 C   0  0  0  0  0  0  0  0  0  0  0  0
   24.4814  -17.3951    3.9739 C   0  0  0  0  0  0  0  0  0  0  0  0
   24.8045  -15.2553    2.8289 N   0  0  0  0  0  0  0  0  0  0  0  0
   22.2238  -17.3018    5.0930 H   0  0  0  0  0  0  0  0  0  0  0  0
   25.0569  -15.8870    2.0698 H   0  0  0  0  0  0  0  0  0  0  0  0
   25.6474  -14.7692    3.1258 H   0  0  0  0  0  0  0  0  0  0  0  0
  1  2  1  0  0  0  0
  1  6  1  0  0  0  0
  2  3  1  0  0  0  0
  3  4  1  0  0  0  0
  3  7  1  6  0  0  0
  4  5  1  0  0  0  0
  5  6  1  0  0  0  0
  7  8  1  0  0  0  0
  7 15  1  0  0  0  0
  8  9  2  0  0  0  0
  8 10  1  0  0  0  0
 10 11  1  0  0  0  0
 10 13  1  0  0  0  0
 10 14  1  0  0  0  0
 11 12  1  0  0  0  0
 12 13  1  0  0  0  0
 14 16  1  0  0  0  0
 14 17  1  0  0  0  0
M  END
>  <CHROM.0>
-51.38001870,-63.15925564,-53.23107812,-52.55470278,58.77179057,-58.43076510
-59.22283487,-54.96119826,-166.46567038,161.06859308

>  <CHROM.1>
178.07024331,-75.18198968,-104.09861892,21.99121127,-16.64330322,4.06370834
-2.90097686,-0.19187486,-0.54552086

>  <Name>
P137721766

>  <RI>
0

>  <Rbt.Current_Directory>
/home/fstefaniak/projects/zuza/docking/adenine/1Y26

>  <Rbt.Executable>
rbdock ($Id: //depot/dev/client3/rdock/2013.1/src/exe/rbdock.cxx#4 $)

>  <Rbt.Library>
libRbt.so (2013.1, Build901 2013/11/27)

>  <Rbt.Parameter_File>
/home/fstefaniak/progs/rDock//data/scripts/dock_solv.prm

>  <Rbt.Receptor>
1y26.prm

>  <SCORE>
-46.6939

>  <SCORE.INTER>
-28.1836

>  <SCORE.INTER.CONST>
1

>  <SCORE.INTER.POLAR>
-3.31059

>  <SCORE.INTER.ROT>
3

>  <SCORE.INTER.SOLV>
14.0159

>  <SCORE.INTER.VDW>
-18.0257

>  <SCORE.INTER.norm>
-2.01311

>  <SCORE.INTRA>
2.20707

>  <SCORE.INTRA.DIHEDRAL>
0.165987

>  <SCORE.INTRA.DIHEDRAL.0>
4.27198

>  <SCORE.INTRA.POLAR>
0

>  <SCORE.INTRA.POLAR.0>
0

>  <SCORE.INTRA.REPUL>
0

>  <SCORE.INTRA.REPUL.0>
0

>  <SCORE.INTRA.SOLV>
-0.285534

>  <SCORE.INTRA.SOLV.lig_0>
-12.4287

>  <SCORE.INTRA.VDW>
2.26684

>  <SCORE.INTRA.VDW.0>
-1.93606

>  <SCORE.INTRA.norm>
0.157648

>  <SCORE.RESTR>
0

>  <SCORE.RESTR.CAVITY>
0

>  <SCORE.RESTR.norm>
0

>  <SCORE.SYSTEM>
-20.7174

>  <SCORE.SYSTEM.CONST>
0

>  <SCORE.SYSTEM.DIHEDRAL>
5.40424

>  <SCORE.SYSTEM.POLAR>
-3.45896

>  <SCORE.SYSTEM.SOLV>
0.461494

>  <SCORE.SYSTEM.VDW>
-4.237

>  <SCORE.SYSTEM.norm>
-1.47982

>  <SCORE.heavy>
14

>  <SCORE.norm>
-3.33528

$$$$
P137721766
 OpenBabel12072022103D
libRbt.so/2013.1/901 2013/11/27
 17 18  0  0  0  0  0  0  0  0999 V2000
   22.9335  -12.5264    2.2747 C   0  0  0  0  0  0  0  0  0  0  0  0
   22.4853  -12.6170    3.7328 C   0  0  0  0  0  0  0  0  0  0  0  0
   22.7394  -14.0147    4.3127 C   0  0  2  0  0  0  0  0  0  0  0  0
   24.1874  -14.4365    4.0269 C   0  0  0  0  0  0  0  0  0  0  0  0
   24.4577  -14.3891    2.6182 O   0  0  0  0  0  0  0  0  0  0  0  0
   24.3499  -13.0601    2.1041 C   0  0  0  0  0  0  0  0  0  0  0  0
   21.8189  -14.9907    3.7358 N   0  0  0  0  0  0  0  0  0  0  0  0
   21.8202  -16.3269    4.0907 C   0  0  0  0  0  0  0  0  0  0  0  0
   22.6756  -16.7787    4.8549 O   0  0  0  0  0  0  0  0  0  0  0  0
   20.6424  -17.1669    3.4425 C   0  0  0  0  0  0  0  0  0  0  0  0
   20.1316  -18.4109    4.2187 C   0  0  0  0  0  0  0  0  0  0  0  0
   18.6882  -18.0115    3.8542 C   0  0  0  0  0  0  0  0  0  0  0  0
   19.2054  -16.5915    3.5517 C   0  0  0  0  0  0  0  0  0  0  0  0
   20.8489  -17.5840    2.0324 N   0  0  0  0  0  0  0  0  0  0  0  0
   21.0279  -14.6348    3.2149 H   0  0  0  0  0  0  0  0  0  0  0  0
   19.9943  -17.8803    1.5625 H   0  0  0  0  0  0  0  0  0  0  0  0
   21.5488  -18.3099    1.8976 H   0  0  0  0  0  0  0  0  0  0  0  0
  1  2  1  0  0  0  0
  1  6  1  0  0  0  0
  2  3  1  0  0  0  0
  3  4  1  0  0  0  0
  3  7  1  6  0  0  0
  4  5  1  0  0  0  0
  5  6  1  0  0  0  0
  7  8  1  0  0  0  0
  7 15  1  0  0  0  0
  8  9  2  0  0  0  0
  8 10  1  0  0  0  0
 10 11  1  0  0  0  0
 10 13  1  0  0  0  0
 10 14  1  0  0  0  0
 11 12  1  0  0  0  0
 12 13  1  0  0  0  0
 14 16  1  0  0  0  0
 14 17  1  0  0  0  0
M  END
>  <CHROM.0>
-50.93732577,-171.00559094,-54.18337506,-53.34414158,-174.35954926,-57.80337573
-58.73079691,-49.73983648,-167.08750065,160.57105185

>  <CHROM.1>
-179.39762390,-151.87401119,-163.50478271,21.95390541,-15.49896291,3.46523839
0.82801491,-0.24431956,-0.36761204

>  <Name>
P137721766

>  <RI>
0

>  <Rbt.Current_Directory>
/home/fstefaniak/projects/zuza/docking/adenine/1Y26

>  <Rbt.Executable>
rbdock ($Id: //depot/dev/client3/rdock/2013.1/src/exe/rbdock.cxx#4 $)

>  <Rbt.Library>
libRbt.so (2013.1, Build901 2013/11/27)

>  <Rbt.Parameter_File>
/home/fstefaniak/progs/rDock//data/scripts/dock_solv.prm

>  <Rbt.Receptor>
1y26.prm

>  <SCORE>
-46.2665

>  <SCORE.INTER>
-25.1297

>  <SCORE.INTER.CONST>
1

>  <SCORE.INTER.POLAR>
-2.94008

>  <SCORE.INTER.ROT>
3

>  <SCORE.INTER.SOLV>
11.2725

>  <SCORE.INTER.VDW>
-16.3104

>  <SCORE.INTER.norm>
-1.79498

>  <SCORE.INTRA>
0.613864

>  <SCORE.INTRA.DIHEDRAL>
-1.66903

>  <SCORE.INTRA.DIHEDRAL.0>
4.27198

>  <SCORE.INTRA.POLAR>
0

>  <SCORE.INTRA.POLAR.0>
0

>  <SCORE.INTRA.REPUL>
0

>  <SCORE.INTRA.REPUL.0>
0

>  <SCORE.INTRA.SOLV>
-0.274062

>  <SCORE.INTRA.SOLV.lig_0>
-12.4287

>  <SCORE.INTRA.VDW>
1.58541

>  <SCORE.INTRA.VDW.0>
-1.93606

>  <SCORE.INTRA.norm>
0.0438475

>  <SCORE.RESTR>
0.530004

>  <SCORE.RESTR.CAVITY>
0.530004

>  <SCORE.RESTR.norm>
0.0378574

>  <SCORE.SYSTEM>
-22.2807

>  <SCORE.SYSTEM.CONST>
0

>  <SCORE.SYSTEM.DIHEDRAL>
6.17833

>  <SCORE.SYSTEM.POLAR>
-3.47889

>  <SCORE.SYSTEM.SOLV>
0.440981

>  <SCORE.SYSTEM.VDW>
-5.46393

>  <SCORE.SYSTEM.norm>
-1.59148

>  <SCORE.heavy>
14

>  <SCORE.norm>
-3.30475

$$$$
P137722453
 OpenBabel12072022103D
libRbt.so/2013.1/901 2013/11/27
 15 16  0  0  0  0  0  0  0  0999 V2000
   22.8310  -13.2967    4.8408 C   0  0  0  0  0  0  0  0  0  0  0  0
   21.9040  -14.2047    5.6725 C   0  0  0  0  0  0  0  0  0  0  0  0
   22.0315  -15.2955    4.5782 C   0  0  0  0  0  0  0  0  0  0  0  0
   22.5420  -14.1892    3.6185 C   0  0  0  0  0  0  0  0  0  0  0  0
   20.7191  -16.0866    4.1739 C   0  0  0  0  0  0  0  0  0  0  0  0
   20.0615  -15.9202    3.1461 O   0  0  0  0  0  0  0  0  0  0  0  0
   20.3476  -17.0215    5.1228 N   0  0  0  0  0  0  0  0  0  0  0  0
   19.1252  -17.8361    5.0000 C   0  0  0  0  0  0  0  0  0  0  0  0
   18.7175  -18.1907    3.5668 C   0  0  0  0  0  0  0  0  0  0  0  0
   18.9773  -19.5962    3.7813 O   0  0  0  0  0  0  0  0  0  0  0  0
   19.3281  -19.3468    5.1642 C   0  0  0  0  0  0  0  0  0  0  0  0
   23.1851  -16.1736    4.9250 N   0  0  0  0  0  0  0  0  0  0  0  0
   20.9113  -17.0049    5.9700 H   0  0  0  0  0  0  0  0  0  0  0  0
   23.0120  -17.1686    4.7734 H   0  0  0  0  0  0  0  0  0  0  0  0
   23.4487  -16.0997    5.9097 H   0  0  0  0  0  0  0  0  0  0  0  0
  1  2  1  0  0  0  0
  1  4  1  0  0  0  0
  2  3  1  0  0  0  0
  3  4  1  0  0  0  0
  3  5  1  0  0  0  0
  3 12  1  0  0  0  0
  5  6  2  0  0  0  0
  5  7  1  0  0  0  0
  7  8  1  0  0  0  0
  7 13  1  0  0  0  0
  8  9  1  0  0  0  0
  8 11  1  0  0  0  0
  9 10  1  0  0  0  0
 10 11  1  0  0  0  0
 12 14  1  0  0  0  0
 12 15  1  0  0  0  0
M  END
>  <CHROM.0>
-45.73237656,-68.32799569,-53.77411300,-53.86242177,-58.41747281,-55.40475216
-57.43329924,-51.90909590,-166.41083983,160.95192016

>  <CHROM.1>
104.36562215,138.40618599,32.26890646,20.80981983,-16.47557248,4.46073079
0.64941820,-0.70078212,-0.61515746

>  <Name>
P137722453

>  <RI>
0

>  <Rbt.Current_Directory>
/home/fstefaniak/projects/zuza/docking/adenine/1Y26

>  <Rbt.Executable>
rbdock ($Id: //depot/dev/client3/rdock/2013.1/src/exe/rbdock.cxx#4 $)

>  <Rbt.Library>
libRbt.so (2013.1, Build901 2013/11/27)

>  <Rbt.Parameter_File>
/home/fstefaniak/progs/rDock//data/scripts/dock_solv.prm

>  <Rbt.Receptor>
1y26.prm

>  <SCORE>
-51.4635

>  <SCORE.INTER>
-31.3806

>  <SCORE.INTER.CONST>
1

>  <SCORE.INTER.POLAR>
-4.52751

>  <SCORE.INTER.ROT>
3

>  <SCORE.INTER.SOLV>
12.8813

>  <SCORE.INTER.VDW>
-15.7225

>  <SCORE.INTER.norm>
-2.61505

>  <SCORE.INTRA>
1.94455

>  <SCORE.INTRA.DIHEDRAL>
-1.06309

>  <SCORE.INTRA.DIHEDRAL.0>
4.78512

>  <SCORE.INTRA.POLAR>
0.261758

>  <SCORE.INTRA.POLAR.0>
-0.261758

>  <SCORE.INTRA.REPUL>
0

>  <SCORE.INTRA.REPUL.0>
0

>  <SCORE.INTRA.SOLV>
0.312597

>  <SCORE.INTRA.SOLV.lig_0>
-14.0225

>  <SCORE.INTRA.VDW>
1.42982

>  <SCORE.INTRA.VDW.0>
-1.15575

>  <SCORE.INTRA.norm>
0.162046

>  <SCORE.RESTR>
0

>  <SCORE.RESTR.CAVITY>
0

>  <SCORE.RESTR.norm>
0

>  <SCORE.SYSTEM>
-22.0274

>  <SCORE.SYSTEM.CONST>
0

>  <SCORE.SYSTEM.DIHEDRAL>
6.48562

>  <SCORE.SYSTEM.POLAR>
-3.54103

>  <SCORE.SYSTEM.SOLV>
0.672063

>  <SCORE.SYSTEM.VDW>
-5.26738

>  <SCORE.SYSTEM.norm>
-1.83562

>  <SCORE.heavy>
12

>  <SCORE.norm>
-4.28862

$$$$
P137722453
 OpenBabel12072022103D
libRbt.so/2013.1/901 2013/11/27
 15 16  0  0  0  0  0  0  0  0999 V2000
   22.8444  -13.2991    4.8711 C   0  0  0  0  0  0  0  0  0  0  0  0
   21.9071  -14.2084    5.6898 C   0  0  0  0  0  0  0  0  0  0  0  0
   22.0311  -15.2891    4.5851 C   0  0  0  0  0  0  0  0  0  0  0  0
   22.5539  -14.1771    3.6387 C   0  0  0  0  0  0  0  0  0  0  0  0
   20.7146  -16.0662    4.1674 C   0  0  0  0  0  0  0  0  0  0  0  0
   20.0565  -15.8772    3.1438 O   0  0  0  0  0  0  0  0  0  0  0  0
   20.3399  -17.0174    5.0987 N   0  0  0  0  0  0  0  0  0  0  0  0
   19.1135  -17.8238    4.9619 C   0  0  0  0  0  0  0  0  0  0  0  0
   18.7513  -18.2244    3.5285 C   0  0  0  0  0  0  0  0  0  0  0  0
   18.9882  -19.6240    3.8005 O   0  0  0  0  0  0  0  0  0  0  0  0
   19.2941  -19.3298    5.1852 C   0  0  0  0  0  0  0  0  0  0  0  0
   23.1767  -16.1793    4.9278 N   0  0  0  0  0  0  0  0  0  0  0  0
   20.9047  -17.0197    5.9453 H   0  0  0  0  0  0  0  0  0  0  0  0
   22.9985  -17.1710    4.7610 H   0  0  0  0  0  0  0  0  0  0  0  0
   23.4336  -16.1208    5.9153 H   0  0  0  0  0  0  0  0  0  0  0  0
  1  2  1  0  0  0  0
  1  4  1  0  0  0  0
  2  3  1  0  0  0  0
  3  4  1  0  0  0  0
  3  5  1  0  0  0  0
  3 12  1  0  0  0  0
  5  6  2  0  0  0  0
  5  7  1  0  0  0  0
  7  8  1  0  0  0  0
  7 13  1  0  0  0  0
  8  9  1  0  0  0  0
  8 11  1  0  0  0  0
  9 10  1  0  0  0  0
 10 11  1  0  0  0  0
 12 14  1  0  0  0  0
 12 15  1  0  0  0  0
M  END
>  <CHROM.0>
-46.97037915,-67.78445971,-63.42735478,-53.36704676,-53.61654470,-60.74097477
-170.71054266,-55.32702955,-168.17225150,162.44245502

>  <CHROM.1>
103.73750233,138.69718057,35.99003782,20.80993271,-16.47255100,4.46166531
0.64816412,-0.70422798,-0.61476363

>  <Name>
P137722453

>  <RI>
0

>  <Rbt.Current_Directory>
/home/fstefaniak/projects/zuza/docking/adenine/1Y26

>  <Rbt.Executable>
rbdock ($Id: //depot/dev/client3/rdock/2013.1/src/exe/rbdock.cxx#4 $)

>  <Rbt.Library>
libRbt.so (2013.1, Build901 2013/11/27)

>  <Rbt.Parameter_File>
/home/fstefaniak/progs/rDock//data/scripts/dock_solv.prm

>  <Rbt.Receptor>
1y26.prm

>  <SCORE>
-50.4858

>  <SCORE.INTER>
-30.9855

>  <SCORE.INTER.CONST>
1

>  <SCORE.INTER.POLAR>
-4.47987

>  <SCORE.INTER.ROT>
3

>  <SCORE.INTER.SOLV>
12.9204

>  <SCORE.INTER.VDW>
-15.6309

>  <SCORE.INTER.norm>
-2.58213

>  <SCORE.INTRA>
1.61532

>  <SCORE.INTRA.DIHEDRAL>
-1.04938

>  <SCORE.INTRA.DIHEDRAL.0>
4.78512

>  <SCORE.INTRA.POLAR>
0.261758

>  <SCORE.INTRA.POLAR.0>
-0.261758

>  <SCORE.INTRA.REPUL>
0

>  <SCORE.INTRA.REPUL.0>
0

>  <SCORE.INTRA.SOLV>
0.288314

>  <SCORE.INTRA.SOLV.lig_0>
-14.0225

>  <SCORE.INTRA.VDW>
1.10588

>  <SCORE.INTRA.VDW.0>
-1.15575

>  <SCORE.INTRA.norm>
0.13461

>  <SCORE.RESTR>
0

>  <SCORE.RESTR.CAVITY>
0

>  <SCORE.RESTR.norm>
0

>  <SCORE.SYSTEM>
-21.1156

>  <SCORE.SYSTEM.CONST>
0

>  <SCORE.SYSTEM.DIHEDRAL>
6.05454

>  <SCORE.SYSTEM.POLAR>
-3.38495

>  <SCORE.SYSTEM.SOLV>
0.603313

>  <SCORE.SYSTEM.VDW>
-5.0132

>  <SCORE.SYSTEM.norm>
-1.75964

>  <SCORE.heavy>
12

>  <SCORE.norm>
-4.20715

$$$$
P137722453
 OpenBabel12072022103D
libRbt.so/2013.1/901 2013/11/27
 15 16  0  0  0  0  0  0  0  0999 V2000
   22.8145  -13.3052    4.8576 C   0  0  0  0  0  0  0  0  0  0  0  0
   21.8957  -14.2230    5.6876 C   0  0  0  0  0  0  0  0  0  0  0  0
   22.0125  -15.3009    4.5794 C   0  0  0  0  0  0  0  0  0  0  0  0
   22.5136  -14.1834    3.6278 C   0  0  0  0  0  0  0  0  0  0  0  0
   20.6963  -16.0874    4.1787 C   0  0  0  0  0  0  0  0  0  0  0  0
   20.0271  -15.9073    3.1607 O   0  0  0  0  0  0  0  0  0  0  0  0
   20.3360  -17.0358    5.1185 N   0  0  0  0  0  0  0  0  0  0  0  0
   19.1128  -17.8497    4.9980 C   0  0  0  0  0  0  0  0  0  0  0  0
   18.7461  -18.2708    3.5717 C   0  0  0  0  0  0  0  0  0  0  0  0
   18.9908  -19.6655    3.8610 O   0  0  0  0  0  0  0  0  0  0  0  0
   19.3015  -19.3517    5.2403 C   0  0  0  0  0  0  0  0  0  0  0  0
   23.1695  -16.1828    4.9046 N   0  0  0  0  0  0  0  0  0  0  0  0
   20.9091  -17.0305    5.9595 H   0  0  0  0  0  0  0  0  0  0  0  0
   23.0059  -17.1727    4.7134 H   0  0  0  0  0  0  0  0  0  0  0  0
   23.4225  -16.1446    5.8941 H   0  0  0  0  0  0  0  0  0  0  0  0
  1  2  1  0  0  0  0
  1  4  1  0  0  0  0
  2  3  1  0  0  0  0
  3  4  1  0  0  0  0
  3  5  1  0  0  0  0
  3 12  1  0  0  0  0
  5  6  2  0  0  0  0
  5  7  1  0  0  0  0
  7  8  1  0  0  0  0
  7 13  1  0  0  0  0
  8  9  1  0  0  0  0
  8 11  1  0  0  0  0
  9 10  1  0  0  0  0
 10 11  1  0  0  0  0
 12 14  1  0  0  0  0
 12 15  1  0  0  0  0
M  END
>  <CHROM.0>
-173.09747105,-66.94065961,-49.31089939,-50.38116497,-174.71758793,-173.58616151
-58.08791577,67.51815023,-167.09649128,161.46616438

>  <CHROM.1>
104.21037257,140.35804758,36.54419071,20.79731163,-16.49346604,4.47738334
0.66189021,-0.70071513,-0.61288925

>  <Name>
P137722453

>  <RI>
0

>  <Rbt.Current_Directory>
/home/fstefaniak/projects/zuza/docking/adenine/1Y26

>  <Rbt.Executable>
rbdock ($Id: //depot/dev/client3/rdock/2013.1/src/exe/rbdock.cxx#4 $)

>  <Rbt.Library>
libRbt.so (2013.1, Build901 2013/11/27)

>  <Rbt.Parameter_File>
/home/fstefaniak/progs/rDock//data/scripts/dock_solv.prm

>  <Rbt.Receptor>
1y26.prm

>  <SCORE>
-49.0432

>  <SCORE.INTER>
-30.7742

>  <SCORE.INTER.CONST>
1

>  <SCORE.INTER.POLAR>
-4.42268

>  <SCORE.INTER.ROT>
3

>  <SCORE.INTER.SOLV>
12.9219

>  <SCORE.INTER.VDW>
-15.6812

>  <SCORE.INTER.norm>
-2.56452

>  <SCORE.INTRA>
1.52198

>  <SCORE.INTRA.DIHEDRAL>
-1.09449

>  <SCORE.INTRA.DIHEDRAL.0>
4.78512

>  <SCORE.INTRA.POLAR>
0.261758

>  <SCORE.INTRA.POLAR.0>
-0.261758

>  <SCORE.INTRA.REPUL>
0

>  <SCORE.INTRA.REPUL.0>
0

>  <SCORE.INTRA.SOLV>
0.283421

>  <SCORE.INTRA.SOLV.lig_0>
-14.0225

>  <SCORE.INTRA.VDW>
1.03754

>  <SCORE.INTRA.VDW.0>
-1.15575

>  <SCORE.INTRA.norm>
0.126832

>  <SCORE.RESTR>
0

>  <SCORE.RESTR.CAVITY>
0

>  <SCORE.RESTR.norm>
0

>  <SCORE.SYSTEM>
-19.7909

>  <SCORE.SYSTEM.CONST>
0

>  <SCORE.SYSTEM.DIHEDRAL>
6.24993

>  <SCORE.SYSTEM.POLAR>
-3.28008

>  <SCORE.SYSTEM.SOLV>
0.0839924

>  <SCORE.SYSTEM.VDW>
-4.37167

>  <SCORE.SYSTEM.norm>
-1.64925

>  <SCORE.heavy>
12

>  <SCORE.norm>
-4.08693

$$$$
P137755480
 OpenBabel12072022103D
libRbt.so/2013.1/901 2013/11/27
 18 19  0  0  0  0  0  0  0  0999 V2000
   24.8811  -17.8000    3.9638 C   0  0  0  0  0  0  0  0  0  0  0  0
   25.5825  -17.0802    4.9249 C   0  0  0  0  0  0  0  0  0  0  0  0
   25.0584  -15.8852    5.4202 C   0  0  0  0  0  0  0  0  0  0  0  0
   23.8407  -15.3828    4.9456 C   0  0  0  0  0  0  0  0  0  0  0  0
   23.0954  -16.1505    4.0353 C   0  0  0  0  0  0  0  0  0  0  0  0
   23.6422  -17.3405    3.5215 C   0  0  0  0  0  0  0  0  0  0  0  0
   21.7203  -15.6878    3.5781 C   0  0  2  0  0  0  0  0  0  0  0  0
   21.2275  -14.4268    4.3034 C   0  0  0  0  0  0  0  0  0  0  0  0
   22.3857  -13.5012    4.6187 C   0  0  0  0  0  0  0  0  0  0  0  0
   23.3289  -14.1917    5.4888 N   0  0  0  0  0  0  0  0  0  0  0  0
   20.6611  -16.7776    3.7319 C   0  0  0  0  0  0  0  0  0  0  0  0
   19.8938  -17.0838    2.8182 O   0  0  0  0  0  0  0  0  0  0  0  0
   20.5996  -17.3620    4.9923 N   0  0  0  0  0  0  0  0  0  0  0  0
   19.6275  -18.3463    5.2643 N   0  0  0  0  0  0  0  0  0  0  0  0
   24.0752  -13.5840    5.8211 H   0  0  0  0  0  0  0  0  0  0  0  0
   21.2635  -17.0928    5.7200 H   0  0  0  0  0  0  0  0  0  0  0  0
   19.3018  -18.1976    6.2240 H   0  0  0  0  0  0  0  0  0  0  0  0
   20.1230  -19.2459    5.3194 H   0  0  0  0  0  0  0  0  0  0  0  0
  1  2  2  0  0  0  0
  1  6  1  0  0  0  0
  2  3  1  0  0  0  0
  3  4  2  0  0  0  0
  4  5  1  0  0  0  0
  4 10  1  0  0  0  0
  5  6  2  0  0  0  0
  5  7  1  0  0  0  0
  7  8  1  0  0  0  0
  7 11  1  1  0  0  0
  8  9  1  0  0  0  0
  9 10  1  0  0  0  0
 10 15  1  0  0  0  0
 11 12  2  0  0  0  0
 11 13  1  0  0  0  0
 13 14  1  0  0  0  0
 13 16  1  0  0  0  0
 14 17  1  0  0  0  0
 14 18  1  0  0  0  0
M  END
>  <CHROM.0>
-44.11738796,33.89078379,-51.10774381,-50.36126873,-55.83664009,-55.06975858
-59.69034777,-48.86383439,-167.94454440,-59.96368362

>  <CHROM.1>
-130.47828524,-142.16321078,22.44065973,-16.23066754,4.42108306,-0.28807872
0.11691911,-3.02355923

>  <Name>
P137755480

>  <RI>
0

>  <Rbt.Current_Directory>
/home/fstefaniak/projects/zuza/docking/adenine/1Y26

>  <Rbt.Executable>
rbdock ($Id: //depot/dev/client3/rdock/2013.1/src/exe/rbdock.cxx#4 $)

>  <Rbt.Library>
libRbt.so (2013.1, Build901 2013/11/27)

>  <Rbt.Parameter_File>
/home/fstefaniak/progs/rDock//data/scripts/dock_solv.prm

>  <Rbt.Receptor>
1y26.prm

>  <SCORE>
-42.1784

>  <SCORE.INTER>
-24.1918

>  <SCORE.INTER.CONST>
1

>  <SCORE.INTER.POLAR>
-3.60512

>  <SCORE.INTER.ROT>
2

>  <SCORE.INTER.SOLV>
14.9603

>  <SCORE.INTER.VDW>
-14.0309

>  <SCORE.INTER.norm>
-1.72799

>  <SCORE.INTRA>
-0.223215

>  <SCORE.INTRA.DIHEDRAL>
0.102919

>  <SCORE.INTRA.DIHEDRAL.0>
1.45772

>  <SCORE.INTRA.POLAR>
0

>  <SCORE.INTRA.POLAR.0>
0

>  <SCORE.INTRA.REPUL>
0

>  <SCORE.INTRA.REPUL.0>
0

>  <SCORE.INTRA.SOLV>
-0.168215

>  <SCORE.INTRA.SOLV.lig_0>
-18.135

>  <SCORE.INTRA.VDW>
-0.190567

>  <SCORE.INTRA.VDW.0>
-1.14155

>  <SCORE.INTRA.norm>
-0.0159439

>  <SCORE.RESTR>
0

>  <SCORE.RESTR.CAVITY>
0

>  <SCORE.RESTR.norm>
0

>  <SCORE.SYSTEM>
-17.7633

>  <SCORE.SYSTEM.CONST>
0

>  <SCORE.SYSTEM.DIHEDRAL>
8.2331

>  <SCORE.SYSTEM.POLAR>
-2.98894

>  <SCORE.SYSTEM.SOLV>
0.884458

>  <SCORE.SYSTEM.VDW>
-4.91825

>  <SCORE.SYSTEM.norm>
-1.26881

>  <SCORE.heavy>
14

>  <SCORE.norm>
-3.01274

$$$$
P137755480
 OpenBabel12072022103D
libRbt.so/2013.1/901 2013/11/27
 18 19  0  0  0  0  0  0  0  0999 V2000
   24.8317  -17.7551    4.0191 C   0  0  0  0  0  0  0  0  0  0  0  0
   25.5752  -17.0342    4.9473 C   0  0  0  0  0  0  0  0  0  0  0  0
   25.1104  -15.8003    5.4050 C   0  0  0  0  0  0  0  0  0  0  0  0
   23.9109  -15.2609    4.9249 C   0  0  0  0  0  0  0  0  0  0  0  0
   23.1219  -16.0257    4.0497 C   0  0  0  0  0  0  0  0  0  0  0  0
   23.6095  -17.2562    3.5730 C   0  0  0  0  0  0  0  0  0  0  0  0
   21.7636  -15.5181    3.5899 C   0  0  2  0  0  0  0  0  0  0  0  0
   21.3355  -14.2118    4.2749 C   0  0  0  0  0  0  0  0  0  0  0  0
   22.5372  -13.3285    4.5458 C   0  0  0  0  0  0  0  0  0  0  0  0
   23.4586  -14.0298    5.4305 N   0  0  0  0  0  0  0  0  0  0  0  0
   20.6589  -16.5535    3.7925 C   0  0  0  0  0  0  0  0  0  0  0  0
   19.9014  -16.8947    2.8831 O   0  0  0  0  0  0  0  0  0  0  0  0
   20.5451  -17.0437    5.0889 N   0  0  0  0  0  0  0  0  0  0  0  0
   19.5289  -17.9687    5.4043 N   0  0  0  0  0  0  0  0  0  0  0  0
   24.2349  -13.4448    5.7338 H   0  0  0  0  0  0  0  0  0  0  0  0
   21.2022  -16.7486    5.8127 H   0  0  0  0  0  0  0  0  0  0  0  0
   18.7624  -17.8186    4.7417 H   0  0  0  0  0  0  0  0  0  0  0  0
   19.1262  -17.6725    6.3031 H   0  0  0  0  0  0  0  0  0  0  0  0
  1  2  2  0  0  0  0
  1  6  1  0  0  0  0
  2  3  1  0  0  0  0
  3  4  2  0  0  0  0
  4  5  1  0  0  0  0
  4 10  1  0  0  0  0
  5  6  2  0  0  0  0
  5  7  1  0  0  0  0
  7  8  1  0  0  0  0
  7 11  1  1  0  0  0
  8  9  1  0  0  0  0
  9 10  1  0  0  0  0
 10 15  1  0  0  0  0
 11 12  2  0  0  0  0
 11 13  1  0  0  0  0
 13 14  1  0  0  0  0
 13 16  1  0  0  0  0
 14 17  1  0  0  0  0
 14 18  1  0  0  0  0
M  END
>  <CHROM.0>
-49.76502241,-61.79684777,-52.80000163,-53.72381333,-172.32094597,179.13137888
-59.81776199,-47.96525677,-165.40579628,160.38403966

>  <CHROM.1>
-127.58954315,-26.16872053,22.45736891,-16.05191412,4.44150889,-0.23091699
0.10404351,-3.04230719

>  <Name>
P137755480

>  <RI>
0

>  <Rbt.Current_Directory>
/home/fstefaniak/projects/zuza/docking/adenine/1Y26

>  <Rbt.Executable>
rbdock ($Id: //depot/dev/client3/rdock/2013.1/src/exe/rbdock.cxx#4 $)

>  <Rbt.Library>
libRbt.so (2013.1, Build901 2013/11/27)

>  <Rbt.Parameter_File>
/home/fstefaniak/progs/rDock//data/scripts/dock_solv.prm

>  <Rbt.Receptor>
1y26.prm

>  <SCORE>
-41.5736

>  <SCORE.INTER>
-19.7013

>  <SCORE.INTER.CONST>
1

>  <SCORE.INTER.POLAR>
-2.66866

>  <SCORE.INTER.ROT>
2

>  <SCORE.INTER.SOLV>
15.0387

>  <SCORE.INTER.VDW>
-14.1849

>  <SCORE.INTER.norm>
-1.40723

>  <SCORE.INTRA>
-0.00918879

>  <SCORE.INTRA.DIHEDRAL>
0.0194891

>  <SCORE.INTRA.DIHEDRAL.0>
1.45772

>  <SCORE.INTRA.POLAR>
0

>  <SCORE.INTRA.POLAR.0>
0

>  <SCORE.INTRA.REPUL>
0

>  <SCORE.INTRA.REPUL.0>
0

>  <SCORE.INTRA.SOLV>
-0.0683104

>  <SCORE.INTRA.SOLV.lig_0>
-18.135

>  <SCORE.INTRA.VDW>
0.0152219

>  <SCORE.INTRA.VDW.0>
-1.14155

>  <SCORE.INTRA.norm>
-0.000656342

>  <SCORE.RESTR>
0

>  <SCORE.RESTR.CAVITY>
0

>  <SCORE.RESTR.norm>
0

>  <SCORE.SYSTEM>
-21.8631

>  <SCORE.SYSTEM.CONST>
0

>  <SCORE.SYSTEM.DIHEDRAL>
6.46797

>  <SCORE.SYSTEM.POLAR>
-3.51842

>  <SCORE.SYSTEM.SOLV>
0.358371

>  <SCORE.SYSTEM.VDW>
-5.12282

>  <SCORE.SYSTEM.norm>
-1.56165

>  <SCORE.heavy>
14

>  <SCORE.norm>
-2.96954

$$$$
P137755480
 OpenBabel12072022103D
libRbt.so/2013.1/901 2013/11/27
 18 19  0  0  0  0  0  0  0  0999 V2000
   24.8769  -17.7490    4.0000 C   0  0  0  0  0  0  0  0  0  0  0  0
   25.5901  -17.0056    4.9343 C   0  0  0  0  0  0  0  0  0  0  0  0
   25.0769  -15.7936    5.3985 C   0  0  0  0  0  0  0  0  0  0  0  0
   23.8584  -15.2980    4.9191 C   0  0  0  0  0  0  0  0  0  0  0  0
   23.1014  -16.0873    4.0374 C   0  0  0  0  0  0  0  0  0  0  0  0
   23.6372  -17.2950    3.5543 C   0  0  0  0  0  0  0  0  0  0  0  0
   21.7254  -15.6298    3.5776 C   0  0  2  0  0  0  0  0  0  0  0  0
   21.2457  -14.3453    4.2696 C   0  0  0  0  0  0  0  0  0  0  0  0
   22.4117  -13.4179    4.5487 C   0  0  0  0  0  0  0  0  0  0  0  0
   23.3579  -14.0884    5.4312 N   0  0  0  0  0  0  0  0  0  0  0  0
   20.6612  -16.7083    3.7714 C   0  0  0  0  0  0  0  0  0  0  0  0
   19.8582  -17.0075    2.8866 O   0  0  0  0  0  0  0  0  0  0  0  0
   20.6392  -17.2904    5.0341 N   0  0  0  0  0  0  0  0  0  0  0  0
   19.6675  -18.2642    5.3428 N   0  0  0  0  0  0  0  0  0  0  0  0
   24.1103  -13.4758    5.7398 H   0  0  0  0  0  0  0  0  0  0  0  0
   21.3318  -17.0273    5.7369 H   0  0  0  0  0  0  0  0  0  0  0  0
   18.8073  -18.0045    4.8511 H   0  0  0  0  0  0  0  0  0  0  0  0
   19.4220  -18.1354    6.3332 H   0  0  0  0  0  0  0  0  0  0  0  0
  1  2  2  0  0  0  0
  1  6  1  0  0  0  0
  2  3  1  0  0  0  0
  3  4  2  0  0  0  0
  4  5  1  0  0  0  0
  4 10  1  0  0  0  0
  5  6  2  0  0  0  0
  5  7  1  0  0  0  0
  7  8  1  0  0  0  0
  7 11  1  1  0  0  0
  8  9  1  0  0  0  0
  9 10  1  0  0  0  0
 10 15  1  0  0  0  0
 11 12  2  0  0  0  0
 11 13  1  0  0  0  0
 13 14  1  0  0  0  0
 13 16  1  0  0  0  0
 14 17  1  0  0  0  0
 14 18  1  0  0  0  0
M  END
>  <CHROM.0>
-48.03421674,-61.92486775,-55.41487902,-53.64860406,-57.41212193,-177.64486389
-60.81503372,-49.67406639,-166.41170400,-62.22600300

>  <CHROM.1>
-132.76360967,-34.98505896,22.44611641,-16.15012206,4.42634135,-0.27675891
0.11266316,-3.05135884

>  <Name>
P137755480

>  <RI>
0

>  <Rbt.Current_Directory>
/home/fstefaniak/projects/zuza/docking/adenine/1Y26

>  <Rbt.Executable>
rbdock ($Id: //depot/dev/client3/rdock/2013.1/src/exe/rbdock.cxx#4 $)

>  <Rbt.Library>
libRbt.so (2013.1, Build901 2013/11/27)

>  <Rbt.Parameter_File>
/home/fstefaniak/progs/rDock//data/scripts/dock_solv.prm

>  <Rbt.Receptor>
1y26.prm

>  <SCORE>
-38.5978

>  <SCORE.INTER>
-19.3953

>  <SCORE.INTER.CONST>
1

>  <SCORE.INTER.POLAR>
-2.55384

>  <SCORE.INTER.ROT>
2

>  <SCORE.INTER.SOLV>
14.8604

>  <SCORE.INTER.VDW>
-14.3042

>  <SCORE.INTER.norm>
-1.38538

>  <SCORE.INTRA>
0.0273589

>  <SCORE.INTRA.DIHEDRAL>
0.18128

>  <SCORE.INTRA.DIHEDRAL.0>
1.45772

>  <SCORE.INTRA.POLAR>
0

>  <SCORE.INTRA.POLAR.0>
0

>  <SCORE.INTRA.REPUL>
0

>  <SCORE.INTRA.REPUL.0>
0

>  <SCORE.INTRA.SOLV>
-0.0496193

>  <SCORE.INTRA.SOLV.lig_0>
-18.135

>  <SCORE.INTRA.VDW>
-0.0384713

>  <SCORE.INTRA.VDW.0>
-1.14155

>  <SCORE.INTRA.norm>
0.0019542

>  <SCORE.RESTR>
0

>  <SCORE.RESTR.CAVITY>
0

>  <SCORE.RESTR.norm>
0

>  <SCORE.SYSTEM>
-19.2299

>  <SCORE.SYSTEM.CONST>
0

>  <SCORE.SYSTEM.DIHEDRAL>
4.46697

>  <SCORE.SYSTEM.POLAR>
-2.65071

>  <SCORE.SYSTEM.SOLV>
0.587806

>  <SCORE.SYSTEM.VDW>
-5.66916

>  <SCORE.SYSTEM.norm>
-1.37356

>  <SCORE.heavy>
14

>  <SCORE.norm>
-2.75698

$$$$
P137848586
 OpenBabel12072022103D
libRbt.so/2013.1/901 2013/11/27
 15 15  0  0  0  0  0  0  0  0999 V2000
   23.7771  -16.5340    4.9864 C   0  0  0  0  0  0  0  0  0  0  0  0
   23.0416  -15.9548    3.7853 C   0  0  2  0  0  0  0  0  0  0  0  0
   22.1421  -14.7845    4.1454 C   0  0  0  0  0  0  0  0  0  0  0  0
   20.8356  -15.4583    4.4823 C   0  0  0  0  0  0  0  0  0  0  0  0
   20.8145  -16.6236    3.5100 C   0  0  1  0  0  0  0  0  0  0  0  0
   22.1845  -16.9742    3.2395 O   0  0  0  0  0  0  0  0  0  0  0  0
   20.0269  -17.8256    4.0399 C   0  0  0  0  0  0  0  0  0  0  0  0
   19.2956  -18.5164    3.3334 O   0  0  0  0  0  0  0  0  0  0  0  0
   20.3188  -18.0889    5.3695 N   0  0  0  0  0  0  0  0  0  0  0  0
   19.7311  -19.0057    6.1899 C   0  0  0  0  0  0  0  0  0  0  0  0
   19.8154  -18.9268    7.4102 O   0  0  0  0  0  0  0  0  0  0  0  0
   19.0550  -20.0106    5.5916 N   0  0  0  0  0  0  0  0  0  0  0  0
   20.8036  -17.3481    5.8642 H   0  0  0  0  0  0  0  0  0  0  0  0
   18.1804  -20.3199    6.0072 H   0  0  0  0  0  0  0  0  0  0  0  0
   19.5986  -20.6876    5.0756 H   0  0  0  0  0  0  0  0  0  0  0  0
  2  3  1  0  0  0  0
  2  6  1  0  0  0  0
  2  1  1  1  0  0  0
  3  4  1  0  0  0  0
  4  5  1  0  0  0  0
  5  6  1  0  0  0  0
  5  7  1  1  0  0  0
  7  8  2  0  0  0  0
  7  9  1  0  0  0  0
  9 10  1  0  0  0  0
  9 13  1  0  0  0  0
 10 11  2  0  0  0  0
 10 12  1  0  0  0  0
 12 14  1  0  0  0  0
 12 15  1  0  0  0  0
M  END
>  <CHROM.0>
-49.34139176,-58.99293273,-50.65652925,-50.66611848,-172.71697849,-57.98454214
-54.02875591,-49.92617200,-167.39388488,160.76702214

>  <CHROM.1>
140.54174532,-140.65053024,20.90819973,-17.43734794,4.69364139,-0.66205950
0.65954628,1.97882099

>  <Name>
P137848586

>  <RI>
0

>  <Rbt.Current_Directory>
/home/fstefaniak/projects/zuza/docking/adenine/1Y26

>  <Rbt.Executable>
rbdock ($Id: //depot/dev/client3/rdock/2013.1/src/exe/rbdock.cxx#4 $)

>  <Rbt.Library>
libRbt.so (2013.1, Build901 2013/11/27)

>  <Rbt.Parameter_File>
/home/fstefaniak/progs/rDock//data/scripts/dock_solv.prm

>  <Rbt.Receptor>
1y26.prm

>  <SCORE>
-47.3079

>  <SCORE.INTER>
-26.589

>  <SCORE.INTER.CONST>
1

>  <SCORE.INTER.POLAR>
-3.21734

>  <SCORE.INTER.ROT>
2

>  <SCORE.INTER.SOLV>
15.3391

>  <SCORE.INTER.VDW>
-17.0479

>  <SCORE.INTER.norm>
-2.21575

>  <SCORE.INTRA>
1.32222

>  <SCORE.INTRA.DIHEDRAL>
-0.453776

>  <SCORE.INTRA.DIHEDRAL.0>
2.10533

>  <SCORE.INTRA.POLAR>
0.177843

>  <SCORE.INTRA.POLAR.0>
-0.177843

>  <SCORE.INTRA.REPUL>
0

>  <SCORE.INTRA.REPUL.0>
0

>  <SCORE.INTRA.SOLV>
0.199408

>  <SCORE.INTRA.SOLV.lig_0>
-18.9997

>  <SCORE.INTRA.VDW>
0.844739

>  <SCORE.INTRA.VDW.0>
-0.42601

>  <SCORE.INTRA.norm>
0.110185

>  <SCORE.RESTR>
0

>  <SCORE.RESTR.CAVITY>
0

>  <SCORE.RESTR.norm>
0

>  <SCORE.SYSTEM>
-22.0412

>  <SCORE.SYSTEM.CONST>
0

>  <SCORE.SYSTEM.DIHEDRAL>
6.55736

>  <SCORE.SYSTEM.POLAR>
-3.58133

>  <SCORE.SYSTEM.SOLV>
0.528187

>  <SCORE.SYSTEM.VDW>
-5.11822

>  <SCORE.SYSTEM.norm>
-1.83676

>  <SCORE.heavy>
12

>  <SCORE.norm>
-3.94233

$$$$
P137848586
 OpenBabel12072022103D
libRbt.so/2013.1/901 2013/11/27
 15 15  0  0  0  0  0  0  0  0999 V2000
   20.7444  -15.8375    4.1588 C   0  0  0  0  0  0  0  0  0  0  0  0
   20.8999  -17.3150    3.8238 C   0  0  2  0  0  0  0  0  0  0  0  0
   19.8325  -17.8250    2.8705 C   0  0  0  0  0  0  0  0  0  0  0  0
   18.7328  -18.2647    3.8041 C   0  0  0  0  0  0  0  0  0  0  0  0
   19.5131  -18.7962    4.9926 C   0  0  1  0  0  0  0  0  0  0  0  0
   20.7588  -18.0757    5.0376 O   0  0  0  0  0  0  0  0  0  0  0  0
   18.7472  -18.6660    6.3126 C   0  0  0  0  0  0  0  0  0  0  0  0
   19.2677  -18.2836    7.3586 O   0  0  0  0  0  0  0  0  0  0  0  0
   17.3960  -18.9330    6.1543 N   0  0  0  0  0  0  0  0  0  0  0  0
   16.4404  -19.0181    7.1231 C   0  0  0  0  0  0  0  0  0  0  0  0
   15.3720  -19.5862    6.9271 O   0  0  0  0  0  0  0  0  0  0  0  0
   16.7260  -18.4396    8.3100 N   0  0  0  0  0  0  0  0  0  0  0  0
   17.1411  -19.3919    5.2865 H   0  0  0  0  0  0  0  0  0  0  0  0
   16.6802  -17.4264    8.3778 H   0  0  0  0  0  0  0  0  0  0  0  0
   17.3732  -18.9250    8.9145 H   0  0  0  0  0  0  0  0  0  0  0  0
  2  3  1  0  0  0  0
  2  6  1  0  0  0  0
  2  1  1  1  0  0  0
  3  4  1  0  0  0  0
  4  5  1  0  0  0  0
  5  6  1  0  0  0  0
  5  7  1  1  0  0  0
  7  8  2  0  0  0  0
  7  9  1  0  0  0  0
  9 10  1  0  0  0  0
  9 13  1  0  0  0  0
 10 11  2  0  0  0  0
 10 12  1  0  0  0  0
 12 14  1  0  0  0  0
 12 15  1  0  0  0  0
M  END
>  <CHROM.0>
-51.53298038,172.36650457,-58.18821854,-52.18905206,-175.25105137,-60.05465259
-53.75096599,-176.97415844,-167.20909053,160.37716972

>  <CHROM.1>
-136.83912214,75.46969427,18.68636369,-18.24701114,5.61506510,-0.64524372
0.45206792,1.50686124

>  <Name>
P137848586

>  <RI>
0

>  <Rbt.Current_Directory>
/home/fstefaniak/projects/zuza/docking/adenine/1Y26

>  <Rbt.Executable>
rbdock ($Id: //depot/dev/client3/rdock/2013.1/src/exe/rbdock.cxx#4 $)

>  <Rbt.Library>
libRbt.so (2013.1, Build901 2013/11/27)

>  <Rbt.Parameter_File>
/home/fstefaniak/progs/rDock//data/scripts/dock_solv.prm

>  <Rbt.Receptor>
1y26.prm

>  <SCORE>
-47.2337

>  <SCORE.INTER>
-25.8022

>  <SCORE.INTER.CONST>
1

>  <SCORE.INTER.POLAR>
-2.83902

>  <SCORE.INTER.ROT>
2

>  <SCORE.INTER.SOLV>
17.875

>  <SCORE.INTER.VDW>
-18.6297

>  <SCORE.INTER.norm>
-2.15018

>  <SCORE.INTRA>
1.0273

>  <SCORE.INTRA.DIHEDRAL>
-0.48049

>  <SCORE.INTRA.DIHEDRAL.0>
2.10533

>  <SCORE.INTRA.POLAR>
0.177843

>  <SCORE.INTRA.POLAR.0>
-0.177843

>  <SCORE.INTRA.REPUL>
0

>  <SCORE.INTRA.REPUL.0>
0

>  <SCORE.INTRA.SOLV>
-0.0843494

>  <SCORE.INTRA.SOLV.lig_0>
-18.9997

>  <SCORE.INTRA.VDW>
0.705056

>  <SCORE.INTRA.VDW.0>
-0.42601

>  <SCORE.INTRA.norm>
0.0856086

>  <SCORE.RESTR>
0

>  <SCORE.RESTR.CAVITY>
0

>  <SCORE.RESTR.norm>
0

>  <SCORE.SYSTEM>
-22.4588

>  <SCORE.SYSTEM.CONST>
0

>  <SCORE.SYSTEM.DIHEDRAL>
5.65651

>  <SCORE.SYSTEM.POLAR>
-3.43411

>  <SCORE.SYSTEM.SOLV>
0.250895

>  <SCORE.SYSTEM.VDW>
-5.49463

>  <SCORE.SYSTEM.norm>
-1.87157

>  <SCORE.heavy>
12

>  <SCORE.norm>
-3.93614

$$$$
P137848586
 OpenBabel12072022103D
libRbt.so/2013.1/901 2013/11/27
 15 15  0  0  0  0  0  0  0  0999 V2000
   22.4820  -12.9709    3.8541 C   0  0  0  0  0  0  0  0  0  0  0  0
   22.4015  -13.9261    5.0374 C   0  0  2  0  0  0  0  0  0  0  0  0
   23.5570  -14.9113    5.0870 C   0  0  0  0  0  0  0  0  0  0  0  0
   23.0480  -16.0657    4.2608 C   0  0  0  0  0  0  0  0  0  0  0  0
   21.5660  -16.0671    4.5886 C   0  0  1  0  0  0  0  0  0  0  0  0
   21.2021  -14.7115    4.9096 O   0  0  0  0  0  0  0  0  0  0  0  0
   20.7055  -16.6187    3.4480 C   0  0  0  0  0  0  0  0  0  0  0  0
   20.7877  -16.2195    2.2882 O   0  0  0  0  0  0  0  0  0  0  0  0
   19.9102  -17.6750    3.8652 N   0  0  0  0  0  0  0  0  0  0  0  0
   18.9496  -18.3313    3.1542 C   0  0  0  0  0  0  0  0  0  0  0  0
   18.0840  -19.0014    3.7057 O   0  0  0  0  0  0  0  0  0  0  0  0
   19.0014  -18.2120    1.8096 N   0  0  0  0  0  0  0  0  0  0  0  0
   19.8227  -17.7845    4.8696 H   0  0  0  0  0  0  0  0  0  0  0  0
   18.2469  -17.7203    1.3382 H   0  0  0  0  0  0  0  0  0  0  0  0
   19.4807  -18.9411    1.3011 H   0  0  0  0  0  0  0  0  0  0  0  0
  2  3  1  0  0  0  0
  2  6  1  0  0  0  0
  2  1  1  6  0  0  0
  3  4  1  0  0  0  0
  4  5  1  0  0  0  0
  5  6  1  0  0  0  0
  5  7  1  6  0  0  0
  7  8  2  0  0  0  0
  7  9  1  0  0  0  0
  9 10  1  0  0  0  0
  9 13  1  0  0  0  0
 10 11  2  0  0  0  0
 10 12  1  0  0  0  0
 12 14  1  0  0  0  0
 12 15  1  0  0  0  0
M  END
>  <CHROM.0>
-46.19665387,-61.94409881,-54.79104820,-50.36773894,-56.04843769,-60.84916695
-62.25076498,-176.21402295,-166.35686209,159.55714223

>  <CHROM.1>
-51.29819747,-113.88419783,20.93469241,-16.23971264,3.80516871,0.15308466
-0.85278996,-0.98462778

>  <Name>
P137848586

>  <RI>
0

>  <Rbt.Current_Directory>
/home/fstefaniak/projects/zuza/docking/adenine/1Y26

>  <Rbt.Executable>
rbdock ($Id: //depot/dev/client3/rdock/2013.1/src/exe/rbdock.cxx#4 $)

>  <Rbt.Library>
libRbt.so (2013.1, Build901 2013/11/27)

>  <Rbt.Parameter_File>
/home/fstefaniak/progs/rDock//data/scripts/dock_solv.prm

>  <Rbt.Receptor>
1y26.prm

>  <SCORE>
-47.2066

>  <SCORE.INTER>
-24.9871

>  <SCORE.INTER.CONST>
1

>  <SCORE.INTER.POLAR>
-2.88408

>  <SCORE.INTER.ROT>
2

>  <SCORE.INTER.SOLV>
12.8684

>  <SCORE.INTER.VDW>
-16.2673

>  <SCORE.INTER.norm>
-2.08226

>  <SCORE.INTRA>
0.400318

>  <SCORE.INTRA.DIHEDRAL>
0.751283

>  <SCORE.INTRA.DIHEDRAL.0>
2.10533

>  <SCORE.INTRA.POLAR>
0.177843

>  <SCORE.INTRA.POLAR.0>
-0.177843

>  <SCORE.INTRA.REPUL>
0

>  <SCORE.INTRA.REPUL.0>
0

>  <SCORE.INTRA.SOLV>
-0.404086

>  <SCORE.INTRA.SOLV.lig_0>
-18.9997

>  <SCORE.INTRA.VDW>
-0.377947

>  <SCORE.INTRA.VDW.0>
-0.42601

>  <SCORE.INTRA.norm>
0.0333598

>  <SCORE.RESTR>
0

>  <SCORE.RESTR.CAVITY>
0

>  <SCORE.RESTR.norm>
0

>  <SCORE.SYSTEM>
-22.6198

>  <SCORE.SYSTEM.CONST>
0

>  <SCORE.SYSTEM.DIHEDRAL>
6.24695

>  <SCORE.SYSTEM.POLAR>
-3.57035

>  <SCORE.SYSTEM.SOLV>
0.451187

>  <SCORE.SYSTEM.VDW>
-5.41142

>  <SCORE.SYSTEM.norm>
-1.88498

>  <SCORE.heavy>
12

>  <SCORE.norm>
-3.93388

$$$$
P137853014
 OpenBabel12072022103D
libRbt.so/2013.1/901 2013/11/27
 12 12  0  0  0  0  0  0  0  0999 V2000
   18.4108  -18.2887    1.9077 C   0  0  0  0  0  0  0  0  0  0  0  0
   18.7010  -17.6603    3.2563 C   0  0  1  0  0  0  0  0  0  0  0  0
   19.2446  -18.6405    4.2785 C   0  0  0  0  0  0  0  0  0  0  0  0
   19.9642  -17.7165    5.2322 C   0  0  0  0  0  0  0  0  0  0  0  0
   20.5348  -16.6612    4.2982 C   0  0  2  0  0  0  0  0  0  0  0  0
   19.7087  -16.6427    3.1140 O   0  0  0  0  0  0  0  0  0  0  0  0
   21.9939  -16.9309    3.9030 C   0  0  0  0  0  0  0  0  0  0  0  0
   22.3215  -17.4553    2.8441 O   0  0  0  0  0  0  0  0  0  0  0  0
   22.8747  -16.5803    4.8978 N   0  0  0  0  0  0  0  0  0  0  0  0
   24.2098  -16.6611    4.9302 C   0  0  0  0  0  0  0  0  0  0  0  0
   25.3639  -16.7029    5.0161 N   0  0  0  0  0  0  0  0  0  0  0  0
   22.4719  -16.0594    5.6696 H   0  0  0  0  0  0  0  0  0  0  0  0
  2  1  1  6  0  0  0
  2  3  1  0  0  0  0
  2  6  1  0  0  0  0
  3  4  1  0  0  0  0
  4  5  1  0  0  0  0
  5  6  1  0  0  0  0
  5  7  1  6  0  0  0
  7  8  2  0  0  0  0
  7  9  1  0  0  0  0
  9 10  1  0  0  0  0
  9 12  1  0  0  0  0
 10 11  3  0  0  0  0
M  END
>  <CHROM.0>
-49.69139582,-62.82211508,-57.67142218,-51.70651194,-58.98844911,-177.38460002
-61.11332043,-176.54457890,-167.06208116,160.61955662

>  <CHROM.1>
98.80411713,21.16718542,-17.27437905,3.93357913,-2.84228895,0.21221769,1.54979689

>  <Name>
P137853014

>  <RI>
0

>  <Rbt.Current_Directory>
/home/fstefaniak/projects/zuza/docking/adenine/1Y26

>  <Rbt.Executable>
rbdock ($Id: //depot/dev/client3/rdock/2013.1/src/exe/rbdock.cxx#4 $)

>  <Rbt.Library>
libRbt.so (2013.1, Build901 2013/11/27)

>  <Rbt.Parameter_File>
/home/fstefaniak/progs/rDock//data/scripts/dock_solv.prm

>  <Rbt.Receptor>
1y26.prm

>  <SCORE>
-48.1647

>  <SCORE.INTER>
-25.5973

>  <SCORE.INTER.CONST>
1

>  <SCORE.INTER.POLAR>
-2.0532

>  <SCORE.INTER.ROT>
1

>  <SCORE.INTER.SOLV>
12.3957

>  <SCORE.INTER.VDW>
-18.6194

>  <SCORE.INTER.norm>
-2.32703

>  <SCORE.INTRA>
-0.0598805

>  <SCORE.INTRA.DIHEDRAL>
-0.625016

>  <SCORE.INTRA.DIHEDRAL.0>
1.83225

>  <SCORE.INTRA.POLAR>
0.204101

>  <SCORE.INTRA.POLAR.0>
-0.204101

>  <SCORE.INTRA.REPUL>
0

>  <SCORE.INTRA.REPUL.0>
0

>  <SCORE.INTRA.SOLV>
-0.355251

>  <SCORE.INTRA.SOLV.lig_0>
-14.5823

>  <SCORE.INTRA.VDW>
-0.263691

>  <SCORE.INTRA.VDW.0>
-0.489206

>  <SCORE.INTRA.norm>
-0.00544369

>  <SCORE.RESTR>
0

>  <SCORE.RESTR.CAVITY>
0

>  <SCORE.RESTR.norm>
0

>  <SCORE.SYSTEM>
-22.5075

>  <SCORE.SYSTEM.CONST>
0

>  <SCORE.SYSTEM.DIHEDRAL>
5.37337

>  <SCORE.SYSTEM.POLAR>
-3.45121

>  <SCORE.SYSTEM.SOLV>
0.302472

>  <SCORE.SYSTEM.VDW>
-5.39291

>  <SCORE.SYSTEM.norm>
-2.04614

>  <SCORE.heavy>
11

>  <SCORE.norm>
-4.37861

$$$$
P137853014
 OpenBabel12072022103D
libRbt.so/2013.1/901 2013/11/27
 12 12  0  0  0  0  0  0  0  0999 V2000
   18.4166  -18.3343    1.8693 C   0  0  0  0  0  0  0  0  0  0  0  0
   18.7038  -17.7207    3.2254 C   0  0  1  0  0  0  0  0  0  0  0  0
   19.2570  -18.7094    4.2343 C   0  0  0  0  0  0  0  0  0  0  0  0
   19.9705  -17.7918    5.1986 C   0  0  0  0  0  0  0  0  0  0  0  0
   20.5309  -16.7201    4.2773 C   0  0  2  0  0  0  0  0  0  0  0  0
   19.7029  -16.6932    3.0946 O   0  0  0  0  0  0  0  0  0  0  0  0
   21.9916  -16.9727    3.8765 C   0  0  0  0  0  0  0  0  0  0  0  0
   22.3216  -17.4868    2.8134 O   0  0  0  0  0  0  0  0  0  0  0  0
   22.8715  -16.6201    4.8715 N   0  0  0  0  0  0  0  0  0  0  0  0
   24.2074  -16.6879    4.8999 C   0  0  0  0  0  0  0  0  0  0  0  0
   25.3621  -16.7189    4.9825 N   0  0  0  0  0  0  0  0  0  0  0  0
   22.4657  -16.1083    5.6477 H   0  0  0  0  0  0  0  0  0  0  0  0
  2  1  1  6  0  0  0
  2  3  1  0  0  0  0
  2  6  1  0  0  0  0
  3  4  1  0  0  0  0
  4  5  1  0  0  0  0
  5  6  1  0  0  0  0
  5  7  1  6  0  0  0
  7  8  2  0  0  0  0
  7  9  1  0  0  0  0
  9 10  1  0  0  0  0
  9 12  1  0  0  0  0
 10 11  3  0  0  0  0
M  END
>  <CHROM.0>
-47.26007361,-61.27268865,-52.69997222,-51.95401003,-56.90927376,-61.14234725
-60.38410156,-49.56614380,-166.88195877,161.04471197

>  <CHROM.1>
98.43678621,21.16790714,-17.32126214,3.90318271,-2.84393644,0.22131005,1.56018332

>  <Name>
P137853014

>  <RI>
0

>  <Rbt.Current_Directory>
/home/fstefaniak/projects/zuza/docking/adenine/1Y26

>  <Rbt.Executable>
rbdock ($Id: //depot/dev/client3/rdock/2013.1/src/exe/rbdock.cxx#4 $)

>  <Rbt.Library>
libRbt.so (2013.1, Build901 2013/11/27)

>  <Rbt.Parameter_File>
/home/fstefaniak/progs/rDock//data/scripts/dock_solv.prm

>  <Rbt.Receptor>
1y26.prm

>  <SCORE>
-47.903

>  <SCORE.INTER>
-25.5939

>  <SCORE.INTER.CONST>
1

>  <SCORE.INTER.POLAR>
-2.09189

>  <SCORE.INTER.ROT>
1

>  <SCORE.INTER.SOLV>
12.3376

>  <SCORE.INTER.VDW>
-18.4688

>  <SCORE.INTER.norm>
-2.32671

>  <SCORE.INTRA>
-0.0559092

>  <SCORE.INTRA.DIHEDRAL>
-0.611147

>  <SCORE.INTRA.DIHEDRAL.0>
1.83225

>  <SCORE.INTRA.POLAR>
0.204101

>  <SCORE.INTRA.POLAR.0>
-0.204101

>  <SCORE.INTRA.REPUL>
0

>  <SCORE.INTRA.REPUL.0>
0

>  <SCORE.INTRA.SOLV>
-0.356012

>  <SCORE.INTRA.SOLV.lig_0>
-14.5823

>  <SCORE.INTRA.VDW>
-0.266273

>  <SCORE.INTRA.VDW.0>
-0.489206

>  <SCORE.INTRA.norm>
-0.00508266

>  <SCORE.RESTR>
0

>  <SCORE.RESTR.CAVITY>
0

>  <SCORE.RESTR.norm>
0

>  <SCORE.SYSTEM>
-22.2533

>  <SCORE.SYSTEM.CONST>
0

>  <SCORE.SYSTEM.DIHEDRAL>
6.20441

>  <SCORE.SYSTEM.POLAR>
-3.55402

>  <SCORE.SYSTEM.SOLV>
0.668

>  <SCORE.SYSTEM.VDW>
-5.27957

>  <SCORE.SYSTEM.norm>
-2.02302

>  <SCORE.heavy>
11

>  <SCORE.norm>
-4.35482

$$$$
P137853014
 OpenBabel12072022103D
libRbt.so/2013.1/901 2013/11/27
 12 12  0  0  0  0  0  0  0  0999 V2000
   18.3571  -18.2952    1.8898 C   0  0  0  0  0  0  0  0  0  0  0  0
   18.6468  -17.6843    3.2465 C   0  0  1  0  0  0  0  0  0  0  0  0
   19.2025  -18.6747    4.2522 C   0  0  0  0  0  0  0  0  0  0  0  0
   19.9176  -17.7587    5.2169 C   0  0  0  0  0  0  0  0  0  0  0  0
   20.4757  -16.6850    4.2965 C   0  0  2  0  0  0  0  0  0  0  0  0
   19.6452  -16.6561    3.1156 O   0  0  0  0  0  0  0  0  0  0  0  0
   21.9357  -16.9362    3.8922 C   0  0  0  0  0  0  0  0  0  0  0  0
   22.2639  -17.4416    2.8243 O   0  0  0  0  0  0  0  0  0  0  0  0
   22.8170  -16.5934    4.8893 N   0  0  0  0  0  0  0  0  0  0  0  0
   24.1528  -16.6634    4.9158 C   0  0  0  0  0  0  0  0  0  0  0  0
   25.3076  -16.6968    4.9971 N   0  0  0  0  0  0  0  0  0  0  0  0
   22.4126  -16.0878    5.6703 H   0  0  0  0  0  0  0  0  0  0  0  0
  2  1  1  6  0  0  0
  2  3  1  0  0  0  0
  2  6  1  0  0  0  0
  3  4  1  0  0  0  0
  4  5  1  0  0  0  0
  5  6  1  0  0  0  0
  5  7  1  6  0  0  0
  7  8  2  0  0  0  0
  7  9  1  0  0  0  0
  9 10  1  0  0  0  0
  9 12  1  0  0  0  0
 10 11  3  0  0  0  0
M  END
>  <CHROM.0>
-47.41307720,-62.79573724,-56.22259117,-52.61331817,-175.70713394,-60.83156971
-63.64264888,-53.99423549,-165.54973552,160.42011164

>  <CHROM.1>
98.83773439,21.11201284,-17.28739291,3.92075541,-2.84583022,0.22075738,1.56554997

>  <Name>
P137853014

>  <RI>
0

>  <Rbt.Current_Directory>
/home/fstefaniak/projects/zuza/docking/adenine/1Y26

>  <Rbt.Executable>
rbdock ($Id: //depot/dev/client3/rdock/2013.1/src/exe/rbdock.cxx#4 $)

>  <Rbt.Library>
libRbt.so (2013.1, Build901 2013/11/27)

>  <Rbt.Parameter_File>
/home/fstefaniak/progs/rDock//data/scripts/dock_solv.prm

>  <Rbt.Receptor>
1y26.prm

>  <SCORE>
-47.8449

>  <SCORE.INTER>
-25.5484

>  <SCORE.INTER.CONST>
1

>  <SCORE.INTER.POLAR>
-2.10695

>  <SCORE.INTER.ROT>
1

>  <SCORE.INTER.SOLV>
12.362

>  <SCORE.INTER.VDW>
-18.3964

>  <SCORE.INTER.norm>
-2.32258

>  <SCORE.INTRA>
-0.0602367

>  <SCORE.INTRA.DIHEDRAL>
-0.626278

>  <SCORE.INTRA.DIHEDRAL.0>
1.83225

>  <SCORE.INTRA.POLAR>
0.204101

>  <SCORE.INTRA.POLAR.0>
-0.204101

>  <SCORE.INTRA.REPUL>
0

>  <SCORE.INTRA.REPUL.0>
0

>  <SCORE.INTRA.SOLV>
-0.355181

>  <SCORE.INTRA.SOLV.lig_0>
-14.5823

>  <SCORE.INTRA.VDW>
-0.263451

>  <SCORE.INTRA.VDW.0>
-0.489206

>  <SCORE.INTRA.norm>
-0.00547607

>  <SCORE.RESTR>
0

>  <SCORE.RESTR.CAVITY>
0

>  <SCORE.RESTR.norm>
0

>  <SCORE.SYSTEM>
-22.2362

>  <SCORE.SYSTEM.CONST>
0

>  <SCORE.SYSTEM.DIHEDRAL>
6.01236

>  <SCORE.SYSTEM.POLAR>
-3.51121

>  <SCORE.SYSTEM.SOLV>
0.483021

>  <SCORE.SYSTEM.VDW>
-5.28525

>  <SCORE.SYSTEM.norm>
-2.02147

>  <SCORE.heavy>
11

>  <SCORE.norm>
-4.34953

$$$$
P142916272
 OpenBabel12072022103D
libRbt.so/2013.1/901 2013/11/27
 10  9  0  0  0  0  0  0  0  0999 V2000
   22.6841  -12.9070    5.6023 C   0  0  0  0  0  0  0  0  0  0  0  0
   22.1248  -14.2014    5.3853 O   0  0  0  0  0  0  0  0  0  0  0  0
   22.2574  -14.6466    4.1096 C   0  0  0  0  0  0  0  0  0  0  0  0
   22.9705  -14.1698    3.2407 O   0  0  0  0  0  0  0  0  0  0  0  0
   21.4376  -15.8060    3.8584 C   0  0  0  0  0  0  0  0  0  0  0  0
   20.6894  -16.8546    3.6569 C   0  0  0  0  0  0  0  0  0  0  0  0
   19.8172  -18.0771    3.4219 C   0  0  0  0  0  0  0  0  0  0  0  0
   19.1275  -18.5122    4.7111 C   0  0  0  0  0  0  0  0  0  0  0  0
   18.5179  -19.7917    4.5620 O   0  0  0  0  0  0  0  0  0  0  0  0
   19.2308  -20.4550    4.5657 H   0  0  0  0  0  0  0  0  0  0  0  0
  1  2  1  0  0  0  0
  2  3  1  0  0  0  0
  3  4  2  0  0  0  0
  3  5  1  0  0  0  0
  5  6  3  0  0  0  0
  6  7  1  0  0  0  0
  7  8  1  0  0  0  0
  8  9  1  0  0  0  0
  9 10  1  0  0  0  0
M  END
>  <CHROM.0>
-47.23680578,40.92973890,-62.82855698,-51.85612359,-174.06105503,-54.26790292
-168.37727602,-49.70549713,-166.19711337,61.09372358

>  <CHROM.1>
12.95660847,-4.84786500,-96.48126105,-168.89679160,74.28030745,21.05554826
-16.12992410,4.32021903,0.46338705,0.89510783,1.07161782

>  <Name>
P142916272

>  <RI>
0

>  <Rbt.Current_Directory>
/home/fstefaniak/projects/zuza/docking/adenine/1Y26

>  <Rbt.Executable>
rbdock ($Id: //depot/dev/client3/rdock/2013.1/src/exe/rbdock.cxx#4 $)

>  <Rbt.Library>
libRbt.so (2013.1, Build901 2013/11/27)

>  <Rbt.Parameter_File>
/home/fstefaniak/progs/rDock//data/scripts/dock_solv.prm

>  <Rbt.Receptor>
1y26.prm

>  <SCORE>
nan

>  <SCORE.INTER>
-21.2495

>  <SCORE.INTER.CONST>
1

>  <SCORE.INTER.POLAR>
-2.9036

>  <SCORE.INTER.ROT>
4

>  <SCORE.INTER.SOLV>
8.29048

>  <SCORE.INTER.VDW>
-13.5179

>  <SCORE.INTER.norm>
-2.36106

>  <SCORE.INTRA>
nan

>  <SCORE.INTRA.DIHEDRAL>
nan

>  <SCORE.INTRA.DIHEDRAL.0>
nan

>  <SCORE.INTRA.POLAR>
0

>  <SCORE.INTRA.POLAR.0>
0

>  <SCORE.INTRA.REPUL>
0

>  <SCORE.INTRA.REPUL.0>
0

>  <SCORE.INTRA.SOLV>
-0.279277

>  <SCORE.INTRA.SOLV.lig_0>
-9.51006

>  <SCORE.INTRA.VDW>
-0.0967823

>  <SCORE.INTRA.VDW.0>
1.1994

>  <SCORE.INTRA.norm>
nan

>  <SCORE.RESTR>
0

>  <SCORE.RESTR.CAVITY>
0

>  <SCORE.RESTR.norm>
0

>  <SCORE.SYSTEM>
-15.8626

>  <SCORE.SYSTEM.CONST>
0

>  <SCORE.SYSTEM.DIHEDRAL>
7.07856

>  <SCORE.SYSTEM.POLAR>
-2.80973

>  <SCORE.SYSTEM.SOLV>
0.500843

>  <SCORE.SYSTEM.VDW>
-3.7358

>  <SCORE.SYSTEM.norm>
-1.76251

>  <SCORE.heavy>
9

>  <SCORE.norm>
nan

$$$$
P142916272
 OpenBabel12072022103D
libRbt.so/2013.1/901 2013/11/27
 10  9  0  0  0  0  0  0  0  0999 V2000
   24.0008  -13.3974    3.6642 C   0  0  0  0  0  0  0  0  0  0  0  0
   23.1826  -14.5620    3.5656 O   0  0  0  0  0  0  0  0  0  0  0  0
   22.0540  -14.5015    4.3177 C   0  0  0  0  0  0  0  0  0  0  0  0
   21.6974  -13.5726    5.0255 O   0  0  0  0  0  0  0  0  0  0  0  0
   21.2624  -15.7005    4.1939 C   0  0  0  0  0  0  0  0  0  0  0  0
   20.5477  -16.7877    4.1082 C   0  0  0  0  0  0  0  0  0  0  0  0
   19.7145  -18.0551    4.0084 C   0  0  0  0  0  0  0  0  0  0  0  0
   18.7446  -17.9802    2.8334 C   0  0  0  0  0  0  0  0  0  0  0  0
   19.4430  -17.9328    1.5920 O   0  0  0  0  0  0  0  0  0  0  0  0
   19.8456  -18.8082    1.4519 H   0  0  0  0  0  0  0  0  0  0  0  0
  1  2  1  0  0  0  0
  2  3  1  0  0  0  0
  3  4  2  0  0  0  0
  3  5  1  0  0  0  0
  5  6  3  0  0  0  0
  6  7  1  0  0  0  0
  7  8  1  0  0  0  0
  8  9  1  0  0  0  0
  9 10  1  0  0  0  0
M  END
>  <CHROM.0>
-51.22413567,-61.27379378,-54.09383556,61.54744274,-173.05652566,-57.56610251
-59.68491110,-49.41878625,-165.34180242,162.39501506

>  <CHROM.1>
0.64621026,123.68915432,9.20913021,64.96607866,70.04530575,21.20159943,-15.82242421
3.64497763,-0.60854037,-0.66964133,-2.09484165

>  <Name>
P142916272

>  <RI>
0

>  <Rbt.Current_Directory>
/home/fstefaniak/projects/zuza/docking/adenine/1Y26

>  <Rbt.Executable>
rbdock ($Id: //depot/dev/client3/rdock/2013.1/src/exe/rbdock.cxx#4 $)

>  <Rbt.Library>
libRbt.so (2013.1, Build901 2013/11/27)

>  <Rbt.Parameter_File>
/home/fstefaniak/progs/rDock//data/scripts/dock_solv.prm

>  <Rbt.Receptor>
1y26.prm

>  <SCORE>
nan

>  <SCORE.INTER>
-20.3659

>  <SCORE.INTER.CONST>
1

>  <SCORE.INTER.POLAR>
-2.81446

>  <SCORE.INTER.ROT>
4

>  <SCORE.INTER.SOLV>
7.45799

>  <SCORE.INTER.VDW>
-12.9484

>  <SCORE.INTER.norm>
-2.26288

>  <SCORE.INTRA>
nan

>  <SCORE.INTRA.DIHEDRAL>
nan

>  <SCORE.INTRA.DIHEDRAL.0>
nan

>  <SCORE.INTRA.POLAR>
0

>  <SCORE.INTRA.POLAR.0>
0

>  <SCORE.INTRA.REPUL>
0

>  <SCORE.INTRA.REPUL.0>
0

>  <SCORE.INTRA.SOLV>
0.0899625

>  <SCORE.INTRA.SOLV.lig_0>
-9.51006

>  <SCORE.INTRA.VDW>
-0.02343

>  <SCORE.INTRA.VDW.0>
1.1994

>  <SCORE.INTRA.norm>
nan

>  <SCORE.RESTR>
0.00329706

>  <SCORE.RESTR.CAVITY>
0.00329706

>  <SCORE.RESTR.norm>
0.000366341

>  <SCORE.SYSTEM>
-19.3016

>  <SCORE.SYSTEM.CONST>
0

>  <SCORE.SYSTEM.DIHEDRAL>
5.64397

>  <SCORE.SYSTEM.POLAR>
-2.89034

>  <SCORE.SYSTEM.SOLV>
0.440034

>  <SCORE.SYSTEM.VDW>
-5.26124

>  <SCORE.SYSTEM.norm>
-2.14462

>  <SCORE.heavy>
9

>  <SCORE.norm>
nan

$$$$
P142916272
 OpenBabel12072022103D
libRbt.so/2013.1/901 2013/11/27
 10  9  0  0  0  0  0  0  0  0999 V2000
   17.5849  -19.2856    5.9153 C   0  0  0  0  0  0  0  0  0  0  0  0
   18.7629  -18.4997    5.7422 O   0  0  0  0  0  0  0  0  0  0  0  0
   19.1956  -18.4401    4.4568 C   0  0  0  0  0  0  0  0  0  0  0  0
   18.7156  -19.0233    3.4974 O   0  0  0  0  0  0  0  0  0  0  0  0
   20.3363  -17.5694    4.3149 C   0  0  0  0  0  0  0  0  0  0  0  0
   21.3548  -16.7687    4.1678 C   0  0  0  0  0  0  0  0  0  0  0  0
   22.5421  -15.8352    3.9963 C   0  0  0  0  0  0  0  0  0  0  0  0
   23.8518  -16.5552    4.3018 C   0  0  0  0  0  0  0  0  0  0  0  0
   24.8149  -15.6601    4.8515 O   0  0  0  0  0  0  0  0  0  0  0  0
   24.4676  -15.3495    5.7065 H   0  0  0  0  0  0  0  0  0  0  0  0
  1  2  1  0  0  0  0
  2  3  1  0  0  0  0
  3  4  2  0  0  0  0
  3  5  1  0  0  0  0
  5  6  3  0  0  0  0
  6  7  1  0  0  0  0
  7  8  1  0  0  0  0
  8  9  1  0  0  0  0
  9 10  1  0  0  0  0
M  END
>  <CHROM.0>
-49.73170149,-56.26631629,-55.07354617,-51.60010781,-53.62825653,-54.30251313
-57.79057606,-54.25020952,-166.82866416,161.99233112

>  <CHROM.1>
-3.32881204,-125.69254996,-76.87150373,-148.29643889,64.11813477,20.82120791
-17.51829929,4.61999012,-3.05644582,-0.48685509,-1.57322739

>  <Name>
P142916272

>  <RI>
0

>  <Rbt.Current_Directory>
/home/fstefaniak/projects/zuza/docking/adenine/1Y26

>  <Rbt.Executable>
rbdock ($Id: //depot/dev/client3/rdock/2013.1/src/exe/rbdock.cxx#4 $)

>  <Rbt.Library>
libRbt.so (2013.1, Build901 2013/11/27)

>  <Rbt.Parameter_File>
/home/fstefaniak/progs/rDock//data/scripts/dock_solv.prm

>  <Rbt.Receptor>
1y26.prm

>  <SCORE>
nan

>  <SCORE.INTER>
-13.4016

>  <SCORE.INTER.CONST>
1

>  <SCORE.INTER.POLAR>
-1.85464

>  <SCORE.INTER.ROT>
4

>  <SCORE.INTER.SOLV>
8.54877

>  <SCORE.INTER.VDW>
-11.8685

>  <SCORE.INTER.norm>
-1.48907

>  <SCORE.INTRA>
nan

>  <SCORE.INTRA.DIHEDRAL>
nan

>  <SCORE.INTRA.DIHEDRAL.0>
nan

>  <SCORE.INTRA.POLAR>
0

>  <SCORE.INTRA.POLAR.0>
0

>  <SCORE.INTRA.REPUL>
0

>  <SCORE.INTRA.REPUL.0>
0

>  <SCORE.INTRA.SOLV>
-0.266855

>  <SCORE.INTRA.SOLV.lig_0>
-9.51006

>  <SCORE.INTRA.VDW>
0.100082

>  <SCORE.INTRA.VDW.0>
1.1994

>  <SCORE.INTRA.norm>
nan

>  <SCORE.RESTR>
0

>  <SCORE.RESTR.CAVITY>
0

>  <SCORE.RESTR.norm>
0

>  <SCORE.SYSTEM>
-22.0035

>  <SCORE.SYSTEM.CONST>
0

>  <SCORE.SYSTEM.DIHEDRAL>
5.73049

>  <SCORE.SYSTEM.POLAR>
-3.47356

>  <SCORE.SYSTEM.SOLV>
0.684207

>  <SCORE.SYSTEM.VDW>
-5.22869

>  <SCORE.SYSTEM.norm>
-2.44483

>  <SCORE.heavy>
9

>  <SCORE.norm>
nan

$$$$
P150368952
 OpenBabel12072022103D
libRbt.so/2013.1/901 2013/11/27
 11 11  0  0  0  0  0  0  0  0999 V2000
   18.9731  -16.9462    3.4764 C   0  0  0  0  0  0  0  0  0  0  0  0
   19.3401  -18.3697    3.9657 C   0  0  0  0  0  0  0  0  0  0  0  0
   20.7294  -17.9961    3.3906 C   0  0  0  0  0  0  0  0  0  0  0  0
   20.1326  -16.9320    2.5963 O   0  0  0  0  0  0  0  0  0  0  0  0
   19.2976  -18.5693    5.5366 C   0  0  0  0  0  0  0  0  0  0  0  0
   19.8514  -17.8757    6.3882 O   0  0  0  0  0  0  0  0  0  0  0  0
   18.5481  -19.6467    5.9346 N   0  0  0  0  0  0  0  0  0  0  0  0
   18.6555  -19.4567    3.2500 O   0  0  0  0  0  0  0  0  0  0  0  0
   18.0885  -20.2229    5.2371 H   0  0  0  0  0  0  0  0  0  0  0  0
   18.4588  -19.8586    6.9181 H   0  0  0  0  0  0  0  0  0  0  0  0
   18.7294  -19.1991    2.3113 H   0  0  0  0  0  0  0  0  0  0  0  0
  1  2  1  0  0  0  0
  1  4  1  0  0  0  0
  2  3  1  0  0  0  0
  2  5  1  0  0  0  0
  2  8  1  0  0  0  0
  3  4  1  0  0  0  0
  5  6  2  0  0  0  0
  5  7  1  0  0  0  0
  7  9  1  0  0  0  0
  7 10  1  0  0  0  0
  8 11  1  0  0  0  0
M  END
>  <CHROM.0>
-48.87552486,-175.88511838,-56.21816252,-53.95828647,-54.72061890,-62.50053778
-62.65687485,-51.84290353,-167.32214404,160.61837845

>  <CHROM.1>
-51.71700915,44.81455070,19.42445192,-18.24816565,4.30304396,-1.13687342
0.98807925,1.67253128

>  <Name>
P150368952

>  <RI>
0

>  <Rbt.Current_Directory>
/home/fstefaniak/projects/zuza/docking/adenine/1Y26

>  <Rbt.Executable>
rbdock ($Id: //depot/dev/client3/rdock/2013.1/src/exe/rbdock.cxx#4 $)

>  <Rbt.Library>
libRbt.so (2013.1, Build901 2013/11/27)

>  <Rbt.Parameter_File>
/home/fstefaniak/progs/rDock//data/scripts/dock_solv.prm

>  <Rbt.Receptor>
1y26.prm

>  <SCORE>
-50.961

>  <SCORE.INTER>
-28.5067

>  <SCORE.INTER.CONST>
1

>  <SCORE.INTER.POLAR>
-4.25405

>  <SCORE.INTER.ROT>
1

>  <SCORE.INTER.SOLV>
11.366

>  <SCORE.INTER.VDW>
-12.8797

>  <SCORE.INTER.norm>
-3.56334

>  <SCORE.INTRA>
8.48655e-05

>  <SCORE.INTRA.DIHEDRAL>
-0.0285703

>  <SCORE.INTRA.DIHEDRAL.0>
3.73381

>  <SCORE.INTRA.POLAR>
0.00464483

>  <SCORE.INTRA.POLAR.0>
-0.136714

>  <SCORE.INTRA.REPUL>
0

>  <SCORE.INTRA.REPUL.0>
0

>  <SCORE.INTRA.SOLV>
-0.00144259

>  <SCORE.INTRA.SOLV.lig_0>
-15.3538

>  <SCORE.INTRA.VDW>
-0.00070109

>  <SCORE.INTRA.VDW.0>
-0.0638601

>  <SCORE.INTRA.norm>
1.06082e-05

>  <SCORE.RESTR>
0

>  <SCORE.RESTR.CAVITY>
0

>  <SCORE.RESTR.norm>
0

>  <SCORE.SYSTEM>
-22.4544

>  <SCORE.SYSTEM.CONST>
0

>  <SCORE.SYSTEM.DIHEDRAL>
5.75924

>  <SCORE.SYSTEM.POLAR>
-3.46047

>  <SCORE.SYSTEM.SOLV>
0.590824

>  <SCORE.SYSTEM.VDW>
-5.55136

>  <SCORE.SYSTEM.norm>
-2.8068

>  <SCORE.heavy>
8

>  <SCORE.norm>
-6.37013

$$$$
P150368952
 OpenBabel12072022103D
libRbt.so/2013.1/901 2013/11/27
 11 11  0  0  0  0  0  0  0  0999 V2000
   18.8826  -17.0404    3.5000 C   0  0  0  0  0  0  0  0  0  0  0  0
   19.2924  -18.4018    4.1159 C   0  0  0  0  0  0  0  0  0  0  0  0
   20.6788  -18.0236    3.5366 C   0  0  0  0  0  0  0  0  0  0  0  0
   20.0596  -17.0551    2.6433 O   0  0  0  0  0  0  0  0  0  0  0  0
   19.2235  -18.4690    5.6971 C   0  0  0  0  0  0  0  0  0  0  0  0
   19.8420  -17.7692    6.4974 O   0  0  0  0  0  0  0  0  0  0  0  0
   18.3660  -19.4291    6.1704 N   0  0  0  0  0  0  0  0  0  0  0  0
   18.6650  -19.5716    3.4832 O   0  0  0  0  0  0  0  0  0  0  0  0
   17.8525  -20.0097    5.5154 H   0  0  0  0  0  0  0  0  0  0  0  0
   18.2516  -19.5510    7.1664 H   0  0  0  0  0  0  0  0  0  0  0  0
   19.0491  -20.3293    3.9641 H   0  0  0  0  0  0  0  0  0  0  0  0
  1  2  1  0  0  0  0
  1  4  1  0  0  0  0
  2  3  1  0  0  0  0
  2  5  1  0  0  0  0
  2  8  1  0  0  0  0
  3  4  1  0  0  0  0
  5  6  2  0  0  0  0
  5  7  1  0  0  0  0
  7  9  1  0  0  0  0
  7 10  1  0  0  0  0
  8 11  1  0  0  0  0
M  END
>  <CHROM.0>
-53.01586569,-179.06833376,-57.59212747,-54.56267256,-61.10210372,-57.59705114
-61.76084764,-173.24336279,-166.39412019,160.54624944

>  <CHROM.1>
-59.83120574,178.17327356,19.36224640,-18.25292599,4.45539883,-1.10413534
0.97680346,1.58030048

>  <Name>
P150368952

>  <RI>
0

>  <Rbt.Current_Directory>
/home/fstefaniak/projects/zuza/docking/adenine/1Y26

>  <Rbt.Executable>
rbdock ($Id: //depot/dev/client3/rdock/2013.1/src/exe/rbdock.cxx#4 $)

>  <Rbt.Library>
libRbt.so (2013.1, Build901 2013/11/27)

>  <Rbt.Parameter_File>
/home/fstefaniak/progs/rDock//data/scripts/dock_solv.prm

>  <Rbt.Receptor>
1y26.prm

>  <SCORE>
-50.0461

>  <SCORE.INTER>
-27.5248

>  <SCORE.INTER.CONST>
1

>  <SCORE.INTER.POLAR>
-4.31365

>  <SCORE.INTER.ROT>
1

>  <SCORE.INTER.SOLV>
11.2122

>  <SCORE.INTER.VDW>
-11.9751

>  <SCORE.INTER.norm>
-3.4406

>  <SCORE.INTRA>
0.265453

>  <SCORE.INTRA.DIHEDRAL>
0.256622

>  <SCORE.INTRA.DIHEDRAL.0>
3.73381

>  <SCORE.INTRA.POLAR>
0.136714

>  <SCORE.INTRA.POLAR.0>
-0.136714

>  <SCORE.INTRA.REPUL>
0

>  <SCORE.INTRA.REPUL.0>
0

>  <SCORE.INTRA.SOLV>
0.0928231

>  <SCORE.INTRA.SOLV.lig_0>
-15.3538

>  <SCORE.INTRA.VDW>
-0.374098

>  <SCORE.INTRA.VDW.0>
-0.0638601

>  <SCORE.INTRA.norm>
0.0331816

>  <SCORE.RESTR>
0

>  <SCORE.RESTR.CAVITY>
0

>  <SCORE.RESTR.norm>
0

>  <SCORE.SYSTEM>
-22.7867

>  <SCORE.SYSTEM.CONST>
0

>  <SCORE.SYSTEM.DIHEDRAL>
5.13987

>  <SCORE.SYSTEM.POLAR>
-3.3682

>  <SCORE.SYSTEM.SOLV>
0.379155

>  <SCORE.SYSTEM.VDW>
-5.80349

>  <SCORE.SYSTEM.norm>
-2.84834

>  <SCORE.heavy>
8

>  <SCORE.norm>
-6.25576

$$$$
P150368952
 OpenBabel12072022103D
libRbt.so/2013.1/901 2013/11/27
 11 11  0  0  0  0  0  0  0  0999 V2000
   18.8472  -17.1011    3.5191 C   0  0  0  0  0  0  0  0  0  0  0  0
   19.2778  -18.4470    4.1544 C   0  0  0  0  0  0  0  0  0  0  0  0
   20.6566  -18.0592    3.5637 C   0  0  0  0  0  0  0  0  0  0  0  0
   20.0209  -17.1131    2.6580 O   0  0  0  0  0  0  0  0  0  0  0  0
   19.2157  -18.4906    5.7367 C   0  0  0  0  0  0  0  0  0  0  0  0
   19.8234  -17.7663    6.5235 O   0  0  0  0  0  0  0  0  0  0  0  0
   18.3788  -19.4595    6.2284 N   0  0  0  0  0  0  0  0  0  0  0  0
   18.6639  -19.6349    3.5425 O   0  0  0  0  0  0  0  0  0  0  0  0
   17.8744  -20.0603    5.5846 H   0  0  0  0  0  0  0  0  0  0  0  0
   18.2704  -19.5678    7.2266 H   0  0  0  0  0  0  0  0  0  0  0  0
   19.0382  -20.3783    4.0525 H   0  0  0  0  0  0  0  0  0  0  0  0
  1  2  1  0  0  0  0
  1  4  1  0  0  0  0
  2  3  1  0  0  0  0
  2  5  1  0  0  0  0
  2  8  1  0  0  0  0
  3  4  1  0  0  0  0
  5  6  2  0  0  0  0
  5  7  1  0  0  0  0
  7  9  1  0  0  0  0
  7 10  1  0  0  0  0
  8 11  1  0  0  0  0
M  END
>  <CHROM.0>
-49.86117126,-173.42669319,-53.74722795,-50.87187245,-52.90365116,-59.29184383
-59.84485151,-176.13723244,-167.21578715,160.91979700

>  <CHROM.1>
-59.49234729,179.92471485,19.34686426,-18.29212442,4.49141851,-1.11008543
0.99281573,1.56982275

>  <Name>
P150368952

>  <RI>
0

>  <Rbt.Current_Directory>
/home/fstefaniak/projects/zuza/docking/adenine/1Y26

>  <Rbt.Executable>
rbdock ($Id: //depot/dev/client3/rdock/2013.1/src/exe/rbdock.cxx#4 $)

>  <Rbt.Library>
libRbt.so (2013.1, Build901 2013/11/27)

>  <Rbt.Parameter_File>
/home/fstefaniak/progs/rDock//data/scripts/dock_solv.prm

>  <Rbt.Receptor>
1y26.prm

>  <SCORE>
-49.9381

>  <SCORE.INTER>
-27.6355

>  <SCORE.INTER.CONST>
1

>  <SCORE.INTER.POLAR>
-4.32322

>  <SCORE.INTER.ROT>
1

>  <SCORE.INTER.SOLV>
11.3089

>  <SCORE.INTER.VDW>
-12.0492

>  <SCORE.INTER.norm>
-3.45444

>  <SCORE.INTRA>
0.447165

>  <SCORE.INTRA.DIHEDRAL>
0.439468

>  <SCORE.INTRA.DIHEDRAL.0>
3.73381

>  <SCORE.INTRA.POLAR>
0.136714

>  <SCORE.INTRA.POLAR.0>
-0.136714

>  <SCORE.INTRA.REPUL>
0

>  <SCORE.INTRA.REPUL.0>
0

>  <SCORE.INTRA.SOLV>
0.0951225

>  <SCORE.INTRA.SOLV.lig_0>
-15.3538

>  <SCORE.INTRA.VDW>
-0.284959

>  <SCORE.INTRA.VDW.0>
-0.0638601

>  <SCORE.INTRA.norm>
0.0558956

>  <SCORE.RESTR>
0

>  <SCORE.RESTR.CAVITY>
0

>  <SCORE.RESTR.norm>
0

>  <SCORE.SYSTEM>
-22.7498

>  <SCORE.SYSTEM.CONST>
0

>  <SCORE.SYSTEM.DIHEDRAL>
5.88189

>  <SCORE.SYSTEM.POLAR>
-3.48711

>  <SCORE.SYSTEM.SOLV>
0.400671

>  <SCORE.SYSTEM.VDW>
-5.63702

>  <SCORE.SYSTEM.norm>
-2.84372

>  <SCORE.heavy>
8

>  <SCORE.norm>
-6.24227

$$$$
P150397825
 OpenBabel12072022103D
libRbt.so/2013.1/901 2013/11/27
 15 15  0  0  0  0  0  0  0  0999 V2000
   19.4048  -19.2402    5.4211 C   0  0  0  0  0  0  0  0  0  0  0  0
   19.7119  -17.9536    5.1956 C   0  0  0  0  0  0  0  0  0  0  0  0
   20.2311  -17.3368    3.9178 C   0  0  2  0  0  0  0  0  0  0  0  0
   21.3249  -16.3079    4.1795 C   0  0  0  0  0  0  0  0  0  0  0  0
   21.0184  -14.9480    4.3752 C   0  0  0  0  0  0  0  0  0  0  0  0
   22.0299  -14.0103    4.5993 C   0  0  0  0  0  0  0  0  0  0  0  0
   23.3650  -14.4299    4.6248 C   0  0  0  0  0  0  0  0  0  0  0  0
   23.6914  -15.7766    4.4253 C   0  0  0  0  0  0  0  0  0  0  0  0
   22.6727  -16.7072    4.2008 C   0  0  0  0  0  0  0  0  0  0  0  0
   24.4318  -13.4495    4.8612 N   0  3  0  0  0  0  0  0  0  0  0  0
   24.1035  -12.2634    5.0076 O   0  0  0  0  0  0  0  0  0  0  0  0
   25.5988  -13.8651    4.8994 O   0  5  0  0  0  0  0  0  0  0  0  0
   19.1799  -16.7525    3.0886 N   0  0  0  0  0  0  0  0  0  0  0  0
   18.6804  -16.0585    3.6409 H   0  0  0  0  0  0  0  0  0  0  0  0
   18.4985  -17.4761    2.8711 H   0  0  0  0  0  0  0  0  0  0  0  0
  1  2  2  0  0  0  0
  3  4  1  0  0  0  0
  3 13  1  0  0  0  0
  3  2  1  1  0  0  0
  4  5  2  0  0  0  0
  4  9  1  0  0  0  0
  5  6  1  0  0  0  0
  6  7  2  0  0  0  0
  7  8  1  0  0  0  0
  7 10  1  0  0  0  0
  8  9  2  0  0  0  0
 10 11  2  0  0  0  0
 10 12  1  0  0  0  0
 13 14  1  0  0  0  0
 13 15  1  0  0  0  0
M  CHG  2  10   1  12  -1
M  END
>  <CHROM.0>
-46.46067629,-61.07894983,-55.72456817,-53.21805257,-56.91889998,-62.33408946
-58.79201135,-178.54997816,-167.47444514,160.60206990

>  <CHROM.1>
-90.44128704,56.92428054,-138.89580120,22.09191061,-15.56366593,4.52324298
-2.43076680,-0.24921245,-0.18862773

>  <Name>
P150397825

>  <RI>
0

>  <Rbt.Current_Directory>
/home/fstefaniak/projects/zuza/docking/adenine/1Y26

>  <Rbt.Executable>
rbdock ($Id: //depot/dev/client3/rdock/2013.1/src/exe/rbdock.cxx#4 $)

>  <Rbt.Library>
libRbt.so (2013.1, Build901 2013/11/27)

>  <Rbt.Parameter_File>
/home/fstefaniak/progs/rDock//data/scripts/dock_solv.prm

>  <Rbt.Receptor>
1y26.prm

>  <SCORE>
-48.5047

>  <SCORE.INTER>
-26.0191

>  <SCORE.INTER.CONST>
1

>  <SCORE.INTER.POLAR>
-2.09545

>  <SCORE.INTER.ROT>
3

>  <SCORE.INTER.SOLV>
9.29195

>  <SCORE.INTER.VDW>
-19.0586

>  <SCORE.INTER.norm>
-2.00147

>  <SCORE.INTRA>
0.0923709

>  <SCORE.INTRA.DIHEDRAL>
0.397573

>  <SCORE.INTRA.DIHEDRAL.0>
0.94999

>  <SCORE.INTRA.POLAR>
0

>  <SCORE.INTRA.POLAR.0>
0

>  <SCORE.INTRA.REPUL>
0

>  <SCORE.INTRA.REPUL.0>
0

>  <SCORE.INTRA.SOLV>
-0.0627761

>  <SCORE.INTRA.SOLV.lig_0>
-7.7991

>  <SCORE.INTRA.VDW>
-0.0750273

>  <SCORE.INTRA.VDW.0>
-0.814318

>  <SCORE.INTRA.norm>
0.00710545

>  <SCORE.RESTR>
0.13378

>  <SCORE.RESTR.CAVITY>
0.13378

>  <SCORE.RESTR.norm>
0.0102907

>  <SCORE.SYSTEM>
-22.7117

>  <SCORE.SYSTEM.CONST>
0

>  <SCORE.SYSTEM.DIHEDRAL>
5.59755

>  <SCORE.SYSTEM.POLAR>
-3.47924

>  <SCORE.SYSTEM.SOLV>
0.452086

>  <SCORE.SYSTEM.VDW>
-5.56022

>  <SCORE.SYSTEM.norm>
-1.74706

>  <SCORE.heavy>
13

>  <SCORE.norm>
-3.73113

$$$$
P150397825
 OpenBabel12072022103D
libRbt.so/2013.1/901 2013/11/27
 15 15  0  0  0  0  0  0  0  0999 V2000
   19.3149  -19.3791    5.2402 C   0  0  0  0  0  0  0  0  0  0  0  0
   19.7047  -18.1053    5.0796 C   0  0  0  0  0  0  0  0  0  0  0  0
   20.1582  -17.4303    3.8061 C   0  0  2  0  0  0  0  0  0  0  0  0
   21.2617  -16.4095    4.0585 C   0  0  0  0  0  0  0  0  0  0  0  0
   22.6193  -16.7814    4.0452 C   0  0  0  0  0  0  0  0  0  0  0  0
   23.6227  -15.8408    4.2928 C   0  0  0  0  0  0  0  0  0  0  0  0
   23.2710  -14.5129    4.5616 C   0  0  0  0  0  0  0  0  0  0  0  0
   21.9263  -14.1242    4.5865 C   0  0  0  0  0  0  0  0  0  0  0  0
   20.9295  -15.0724    4.3386 C   0  0  0  0  0  0  0  0  0  0  0  0
   24.3207  -13.5201    4.8211 N   0  3  0  0  0  0  0  0  0  0  0  0
   25.4975  -13.9093    4.8154 O   0  0  0  0  0  0  0  0  0  0  0  0
   23.9689  -12.3505    5.0319 O   0  5  0  0  0  0  0  0  0  0  0  0
   19.0658  -16.8143    3.0571 N   0  0  0  0  0  0  0  0  0  0  0  0
   18.6509  -16.0838    3.6320 H   0  0  0  0  0  0  0  0  0  0  0  0
   18.3342  -17.5082    2.9206 H   0  0  0  0  0  0  0  0  0  0  0  0
  1  2  2  0  0  0  0
  3  4  1  0  0  0  0
  3 13  1  0  0  0  0
  3  2  1  1  0  0  0
  4  5  2  0  0  0  0
  4  9  1  0  0  0  0
  5  6  1  0  0  0  0
  6  7  2  0  0  0  0
  7  8  1  0  0  0  0
  7 10  1  0  0  0  0
  8  9  2  0  0  0  0
 10 11  2  0  0  0  0
 10 12  1  0  0  0  0
 13 14  1  0  0  0  0
 13 15  1  0  0  0  0
M  CHG  2  10   1  12  -1
M  END
>  <CHROM.0>
-46.84712091,-175.76778981,-55.60250444,-53.08506923,-57.10099061,-60.06247550
-62.67870025,-53.65242367,-167.08477517,160.35344182

>  <CHROM.1>
88.80525198,62.37718480,-144.40615559,22.00540883,-15.65497808,4.44451674
-2.41284052,-0.21740206,-0.13159072

>  <Name>
P150397825

>  <RI>
0

>  <Rbt.Current_Directory>
/home/fstefaniak/projects/zuza/docking/adenine/1Y26

>  <Rbt.Executable>
rbdock ($Id: //depot/dev/client3/rdock/2013.1/src/exe/rbdock.cxx#4 $)

>  <Rbt.Library>
libRbt.so (2013.1, Build901 2013/11/27)

>  <Rbt.Parameter_File>
/home/fstefaniak/progs/rDock//data/scripts/dock_solv.prm

>  <Rbt.Receptor>
1y26.prm

>  <SCORE>
-48.2955

>  <SCORE.INTER>
-26.3277

>  <SCORE.INTER.CONST>
1

>  <SCORE.INTER.POLAR>
-2.09545

>  <SCORE.INTER.ROT>
3

>  <SCORE.INTER.SOLV>
9.18577

>  <SCORE.INTER.VDW>
-19.2289

>  <SCORE.INTER.norm>
-2.02521

>  <SCORE.INTRA>
0.452145

>  <SCORE.INTRA.DIHEDRAL>
0.82191

>  <SCORE.INTRA.DIHEDRAL.0>
0.94999

>  <SCORE.INTRA.POLAR>
0

>  <SCORE.INTRA.POLAR.0>
0

>  <SCORE.INTRA.REPUL>
0

>  <SCORE.INTRA.REPUL.0>
0

>  <SCORE.INTRA.SOLV>
-0.0453443

>  <SCORE.INTRA.SOLV.lig_0>
-7.7991

>  <SCORE.INTRA.VDW>
0.0638623

>  <SCORE.INTRA.VDW.0>
-0.814318

>  <SCORE.INTRA.norm>
0.0347804

>  <SCORE.RESTR>
0.0405913

>  <SCORE.RESTR.CAVITY>
0.0405913

>  <SCORE.RESTR.norm>
0.00312241

>  <SCORE.SYSTEM>
-22.4606

>  <SCORE.SYSTEM.CONST>
0

>  <SCORE.SYSTEM.DIHEDRAL>
5.89443

>  <SCORE.SYSTEM.POLAR>
-3.50893

>  <SCORE.SYSTEM.SOLV>
0.596667

>  <SCORE.SYSTEM.VDW>
-5.44098

>  <SCORE.SYSTEM.norm>
-1.72774

>  <SCORE.heavy>
13

>  <SCORE.norm>
-3.71504

$$$$
P150397825
 OpenBabel12072022103D
libRbt.so/2013.1/901 2013/11/27
 15 15  0  0  0  0  0  0  0  0999 V2000
   19.3268  -19.2642    5.4098 C   0  0  0  0  0  0  0  0  0  0  0  0
   19.6917  -17.9895    5.2032 C   0  0  0  0  0  0  0  0  0  0  0  0
   20.2051  -17.3701    3.9243 C   0  0  2  0  0  0  0  0  0  0  0  0
   21.3032  -16.3449    4.1829 C   0  0  0  0  0  0  0  0  0  0  0  0
   21.0009  -14.9859    4.3906 C   0  0  0  0  0  0  0  0  0  0  0  0
   22.0162  -14.0514    4.6118 C   0  0  0  0  0  0  0  0  0  0  0  0
   23.3506  -14.4736    4.6222 C   0  0  0  0  0  0  0  0  0  0  0  0
   23.6728  -15.8195    4.4106 C   0  0  0  0  0  0  0  0  0  0  0  0
   22.6504  -16.7467    4.1892 C   0  0  0  0  0  0  0  0  0  0  0  0
   24.4213  -13.4967    4.8554 N   0  3  0  0  0  0  0  0  0  0  0  0
   24.0966  -12.3109    5.0129 O   0  0  0  0  0  0  0  0  0  0  0  0
   25.5880  -13.9146    4.8801 O   0  5  0  0  0  0  0  0  0  0  0  0
   19.1508  -16.7804    3.1031 N   0  0  0  0  0  0  0  0  0  0  0  0
   18.7209  -16.0198    3.6255 H   0  0  0  0  0  0  0  0  0  0  0  0
   18.4179  -17.4735    2.9693 H   0  0  0  0  0  0  0  0  0  0  0  0
  1  2  2  0  0  0  0
  3  4  1  0  0  0  0
  3 13  1  0  0  0  0
  3  2  1  1  0  0  0
  4  5  2  0  0  0  0
  4  9  1  0  0  0  0
  5  6  1  0  0  0  0
  6  7  2  0  0  0  0
  7  8  1  0  0  0  0
  7 10  1  0  0  0  0
  8  9  2  0  0  0  0
 10 11  2  0  0  0  0
 10 12  1  0  0  0  0
 13 14  1  0  0  0  0
 13 15  1  0  0  0  0
M  CHG  2  10   1  12  -1
M  END
>  <CHROM.0>
-46.46053578,-65.93493574,-62.02366601,-53.59566250,-57.28858664,-60.64398635
-61.34429465,-53.77865032,-166.58332156,160.47640772

>  <CHROM.1>
-90.14947981,62.82719001,-142.09548682,22.06975143,-15.60219998,4.52342850
-2.43265503,-0.23613597,-0.17846163

>  <Name>
P150397825

>  <RI>
0

>  <Rbt.Current_Directory>
/home/fstefaniak/projects/zuza/docking/adenine/1Y26

>  <Rbt.Executable>
rbdock ($Id: //depot/dev/client3/rdock/2013.1/src/exe/rbdock.cxx#4 $)

>  <Rbt.Library>
libRbt.so (2013.1, Build901 2013/11/27)

>  <Rbt.Parameter_File>
/home/fstefaniak/progs/rDock//data/scripts/dock_solv.prm

>  <Rbt.Receptor>
1y26.prm

>  <SCORE>
-47.8391

>  <SCORE.INTER>
-25.9301

>  <SCORE.INTER.CONST>
1

>  <SCORE.INTER.POLAR>
-2.08701

>  <SCORE.INTER.ROT>
3

>  <SCORE.INTER.SOLV>
9.31385

>  <SCORE.INTER.VDW>
-19.0346

>  <SCORE.INTER.norm>
-1.99462

>  <SCORE.INTRA>
0.281575

>  <SCORE.INTRA.DIHEDRAL>
0.634396

>  <SCORE.INTRA.DIHEDRAL.0>
0.94999

>  <SCORE.INTRA.POLAR>
0

>  <SCORE.INTRA.POLAR.0>
0

>  <SCORE.INTRA.REPUL>
0

>  <SCORE.INTRA.REPUL.0>
0

>  <SCORE.INTRA.SOLV>
-0.0541804

>  <SCORE.INTRA.SOLV.lig_0>
-7.7991

>  <SCORE.INTRA.VDW>
-0.00853318

>  <SCORE.INTRA.VDW.0>
-0.814318

>  <SCORE.INTRA.norm>
0.0216596

>  <SCORE.RESTR>
0.0851307

>  <SCORE.RESTR.CAVITY>
0.0851307

>  <SCORE.RESTR.norm>
0.00654852

>  <SCORE.SYSTEM>
-22.2757

>  <SCORE.SYSTEM.CONST>
0

>  <SCORE.SYSTEM.DIHEDRAL>
5.92363

>  <SCORE.SYSTEM.POLAR>
-3.48272

>  <SCORE.SYSTEM.SOLV>
0.64101

>  <SCORE.SYSTEM.VDW>
-5.42961

>  <SCORE.SYSTEM.norm>
-1.71351

>  <SCORE.heavy>
13

>  <SCORE.norm>
-3.67993

$$$$
P150510098
 OpenBabel12072022103D
libRbt.so/2013.1/901 2013/11/27
 11 11  0  0  0  0  0  0  0  0999 V2000
   19.6636  -18.0000    6.4404 C   0  0  0  0  0  0  0  0  0  0  0  0
   19.5452  -17.5097    4.9949 C   0  0  0  0  0  0  0  0  0  0  0  0
   19.7772  -18.6485    3.9924 C   0  0  1  0  0  0  0  0  0  0  0  0
   18.8388  -19.7544    4.2534 N   0  0  0  0  0  0  0  0  0  0  0  0
   18.9729  -20.2857    5.6132 C   0  0  0  0  0  0  0  0  0  0  0  0
   18.7848  -19.2278    6.7123 C   0  0  2  0  0  0  0  0  0  0  0  0
   17.3653  -18.8514    6.8543 C   0  0  0  0  0  0  0  0  0  0  0  0
   16.2544  -18.5500    7.0020 N   0  0  0  0  0  0  0  0  0  0  0  0
   19.6319  -18.1172    2.5757 C   0  0  0  0  0  0  0  0  0  0  0  0
   19.5114  -17.6764    1.4005 N   0  0  0  0  0  0  0  0  0  0  0  0
   18.9885  -20.4999    3.5708 H   0  0  0  0  0  0  0  0  0  0  0  0
  1  2  1  0  0  0  0
  1  6  1  0  0  0  0
  2  3  1  0  0  0  0
  3  4  1  0  0  0  0
  3  9  1  6  0  0  0
  4  5  1  0  0  0  0
  4 11  1  0  0  0  0
  5  6  1  0  0  0  0
  6  7  1  6  0  0  0
  7  8  3  0  0  0  0
  9 10  3  0  0  0  0
M  END
>  <CHROM.0>
-51.33413648,-59.62673798,-52.27944543,-50.19428355,-59.20239043,-60.04786546
-55.94274364,-174.53468455,-166.60872800,160.76429850

>  <CHROM.1>
18.83935714,-18.67701094,4.97624009,-2.25624795,-0.88175440,-1.94858510

>  <Name>
P150510098

>  <RI>
0

>  <Rbt.Current_Directory>
/home/fstefaniak/projects/zuza/docking/adenine/1Y26

>  <Rbt.Executable>
rbdock ($Id: //depot/dev/client3/rdock/2013.1/src/exe/rbdock.cxx#4 $)

>  <Rbt.Library>
libRbt.so (2013.1, Build901 2013/11/27)

>  <Rbt.Parameter_File>
/home/fstefaniak/progs/rDock//data/scripts/dock_solv.prm

>  <Rbt.Receptor>
1y26.prm

>  <SCORE>
-34.5867

>  <SCORE.INTER>
-12.0209

>  <SCORE.INTER.CONST>
1

>  <SCORE.INTER.POLAR>
-2.50907

>  <SCORE.INTER.ROT>
0

>  <SCORE.INTER.SOLV>
12.294

>  <SCORE.INTER.VDW>
-7.34836

>  <SCORE.INTER.norm>
-1.20209

>  <SCORE.INTRA>
0

>  <SCORE.INTRA.DIHEDRAL>
0

>  <SCORE.INTRA.DIHEDRAL.0>
0

>  <SCORE.INTRA.POLAR>
0

>  <SCORE.INTRA.POLAR.0>
0

>  <SCORE.INTRA.REPUL>
0

>  <SCORE.INTRA.REPUL.0>
0

>  <SCORE.INTRA.SOLV>
0

>  <SCORE.INTRA.SOLV.lig_0>
-10.9823

>  <SCORE.INTRA.VDW>
0

>  <SCORE.INTRA.VDW.0>
0

>  <SCORE.INTRA.norm>
0

>  <SCORE.RESTR>
0

>  <SCORE.RESTR.CAVITY>
0

>  <SCORE.RESTR.norm>
0

>  <SCORE.SYSTEM>
-22.5659

>  <SCORE.SYSTEM.CONST>
0

>  <SCORE.SYSTEM.DIHEDRAL>
5.71155

>  <SCORE.SYSTEM.POLAR>
-3.50537

>  <SCORE.SYSTEM.SOLV>
0.465774

>  <SCORE.SYSTEM.VDW>
-5.41843

>  <SCORE.SYSTEM.norm>
-2.25659

>  <SCORE.heavy>
10

>  <SCORE.norm>
-3.45867

$$$$
P150510098
 OpenBabel12072022103D
libRbt.so/2013.1/901 2013/11/27
 11 11  0  0  0  0  0  0  0  0999 V2000
   19.6723  -18.0206    6.4594 C   0  0  0  0  0  0  0  0  0  0  0  0
   19.5645  -17.5173    5.0175 C   0  0  0  0  0  0  0  0  0  0  0  0
   19.7878  -18.6503    4.0065 C   0  0  1  0  0  0  0  0  0  0  0  0
   18.8367  -19.7481    4.2550 N   0  0  0  0  0  0  0  0  0  0  0  0
   18.9601  -20.2919    5.6109 C   0  0  0  0  0  0  0  0  0  0  0  0
   18.7793  -19.2410    6.7180 C   0  0  2  0  0  0  0  0  0  0  0  0
   17.3634  -18.8505    6.8581 C   0  0  0  0  0  0  0  0  0  0  0  0
   16.2554  -18.5384    7.0042 N   0  0  0  0  0  0  0  0  0  0  0  0
   19.6535  -18.1058    2.5937 C   0  0  0  0  0  0  0  0  0  0  0  0
   19.5421  -17.6542    1.4217 N   0  0  0  0  0  0  0  0  0  0  0  0
   18.9809  -20.4896    3.5669 H   0  0  0  0  0  0  0  0  0  0  0  0
  1  2  1  0  0  0  0
  1  6  1  0  0  0  0
  2  3  1  0  0  0  0
  3  4  1  0  0  0  0
  3  9  1  6  0  0  0
  4  5  1  0  0  0  0
  4 11  1  0  0  0  0
  5  6  1  0  0  0  0
  6  7  1  6  0  0  0
  7  8  3  0  0  0  0
  9 10  3  0  0  0  0
M  END
>  <CHROM.0>
-48.81970506,-60.90744194,-55.39046956,-52.73418784,-55.24204936,-59.90358614
-62.62304324,-173.38350281,-166.29745327,161.42244930

>  <CHROM.1>
18.84616662,-18.67668462,4.98672589,-2.25537256,-0.87039891,-1.93971983

>  <Name>
P150510098

>  <RI>
0

>  <Rbt.Current_Directory>
/home/fstefaniak/projects/zuza/docking/adenine/1Y26

>  <Rbt.Executable>
rbdock ($Id: //depot/dev/client3/rdock/2013.1/src/exe/rbdock.cxx#4 $)

>  <Rbt.Library>
libRbt.so (2013.1, Build901 2013/11/27)

>  <Rbt.Parameter_File>
/home/fstefaniak/progs/rDock//data/scripts/dock_solv.prm

>  <Rbt.Receptor>
1y26.prm

>  <SCORE>
-34.5656

>  <SCORE.INTER>
-11.9021

>  <SCORE.INTER.CONST>
1

>  <SCORE.INTER.POLAR>
-2.52071

>  <SCORE.INTER.ROT>
0

>  <SCORE.INTER.SOLV>
12.3084

>  <SCORE.INTER.VDW>
-7.23516

>  <SCORE.INTER.norm>
-1.19021

>  <SCORE.INTRA>
0

>  <SCORE.INTRA.DIHEDRAL>
0

>  <SCORE.INTRA.DIHEDRAL.0>
0

>  <SCORE.INTRA.POLAR>
0

>  <SCORE.INTRA.POLAR.0>
0

>  <SCORE.INTRA.REPUL>
0

>  <SCORE.INTRA.REPUL.0>
0

>  <SCORE.INTRA.SOLV>
0

>  <SCORE.INTRA.SOLV.lig_0>
-10.9823

>  <SCORE.INTRA.VDW>
0

>  <SCORE.INTRA.VDW.0>
0

>  <SCORE.INTRA.norm>
0

>  <SCORE.RESTR>
0

>  <SCORE.RESTR.CAVITY>
0

>  <SCORE.RESTR.norm>
0

>  <SCORE.SYSTEM>
-22.6635

>  <SCORE.SYSTEM.CONST>
0

>  <SCORE.SYSTEM.DIHEDRAL>
5.63811

>  <SCORE.SYSTEM.POLAR>
-3.4445

>  <SCORE.SYSTEM.SOLV>
0.445967

>  <SCORE.SYSTEM.VDW>
-5.65536

>  <SCORE.SYSTEM.norm>
-2.26635

>  <SCORE.heavy>
10

>  <SCORE.norm>
-3.45656

$$$$
P150510098
 OpenBabel12072022103D
libRbt.so/2013.1/901 2013/11/27
 11 11  0  0  0  0  0  0  0  0999 V2000
   23.9184  -15.9013    4.8546 C   0  0  0  0  0  0  0  0  0  0  0  0
   22.6502  -16.4212    4.1725 C   0  0  0  0  0  0  0  0  0  0  0  0
   21.4625  -15.4745    4.3936 C   0  0  1  0  0  0  0  0  0  0  0  0
   21.7981  -14.1194    3.9218 N   0  0  0  0  0  0  0  0  0  0  0  0
   22.9744  -13.5707    4.6034 C   0  0  0  0  0  0  0  0  0  0  0  0
   24.2299  -14.4482    4.4740 C   0  0  2  0  0  0  0  0  0  0  0  0
   24.8062  -14.3595    3.1187 C   0  0  0  0  0  0  0  0  0  0  0  0
   25.2931  -14.2945    2.0673 N   0  0  0  0  0  0  0  0  0  0  0  0
   20.2351  -16.0233    3.6845 C   0  0  0  0  0  0  0  0  0  0  0  0
   19.2169  -16.4786    3.0963 N   0  0  0  0  0  0  0  0  0  0  0  0
   20.9961  -13.5006    4.0565 H   0  0  0  0  0  0  0  0  0  0  0  0
  1  2  1  0  0  0  0
  1  6  1  0  0  0  0
  2  3  1  0  0  0  0
  3  4  1  0  0  0  0
  3  9  1  6  0  0  0
  4  5  1  0  0  0  0
  4 11  1  0  0  0  0
  5  6  1  0  0  0  0
  6  7  1  6  0  0  0
  7  8  3  0  0  0  0
  9 10  3  0  0  0  0
M  END
>  <CHROM.0>
-49.62755989,-178.11963992,-58.97872709,-53.09378012,58.59023678,-61.79389979
-63.88713982,-51.00509040,-166.57806493,160.44537757

>  <CHROM.1>
22.64764375,-15.09694371,3.84481624,-0.34310435,0.07534156,2.79557337

>  <Name>
P150510098

>  <RI>
0

>  <Rbt.Current_Directory>
/home/fstefaniak/projects/zuza/docking/adenine/1Y26

>  <Rbt.Executable>
rbdock ($Id: //depot/dev/client3/rdock/2013.1/src/exe/rbdock.cxx#4 $)

>  <Rbt.Library>
libRbt.so (2013.1, Build901 2013/11/27)

>  <Rbt.Parameter_File>
/home/fstefaniak/progs/rDock//data/scripts/dock_solv.prm

>  <Rbt.Receptor>
1y26.prm

>  <SCORE>
-34.5294

>  <SCORE.INTER>
-13.7556

>  <SCORE.INTER.CONST>
1

>  <SCORE.INTER.POLAR>
-0.638347

>  <SCORE.INTER.ROT>
0

>  <SCORE.INTER.SOLV>
9.55823

>  <SCORE.INTER.VDW>
-13.8286

>  <SCORE.INTER.norm>
-1.37556

>  <SCORE.INTRA>
0

>  <SCORE.INTRA.DIHEDRAL>
0

>  <SCORE.INTRA.DIHEDRAL.0>
0

>  <SCORE.INTRA.POLAR>
0

>  <SCORE.INTRA.POLAR.0>
0

>  <SCORE.INTRA.REPUL>
0

>  <SCORE.INTRA.REPUL.0>
0

>  <SCORE.INTRA.SOLV>
0

>  <SCORE.INTRA.SOLV.lig_0>
-10.9823

>  <SCORE.INTRA.VDW>
0

>  <SCORE.INTRA.VDW.0>
0

>  <SCORE.INTRA.norm>
0

>  <SCORE.RESTR>
0.184179

>  <SCORE.RESTR.CAVITY>
0.184179

>  <SCORE.RESTR.norm>
0.0184179

>  <SCORE.SYSTEM>
-20.958

>  <SCORE.SYSTEM.CONST>
0

>  <SCORE.SYSTEM.DIHEDRAL>
5.68943

>  <SCORE.SYSTEM.POLAR>
-3.46995

>  <SCORE.SYSTEM.SOLV>
0.383635

>  <SCORE.SYSTEM.VDW>
-4.42989

>  <SCORE.SYSTEM.norm>
-2.0958

>  <SCORE.heavy>
10

>  <SCORE.norm>
-3.45294

$$$$
P150927401
 OpenBabel12072022103D
libRbt.so/2013.1/901 2013/11/27
  8  7  0  0  0  0  0  0  0  0999 V2000
   19.1576  -18.1845    3.0916 C   0  0  0  0  0  0  0  0  0  0  0  0
   19.5655  -18.1702    4.5334 C   0  0  0  0  0  0  0  0  0  0  0  0
   20.6628  -17.8095    4.9380 O   0  0  0  0  0  0  0  0  0  0  0  0
   18.5397  -18.6899    5.5032 C   0  0  0  0  0  0  0  0  0  0  0  0
   17.3560  -18.9996    5.0657 N   0  0  0  0  0  0  0  0  0  0  0  0
   16.5314  -19.4894    6.0894 O   0  0  0  0  0  0  0  0  0  0  0  0
   19.0972  -18.8559    7.1093 Cl  0  0  0  0  0  0  0  0  0  0  0  0
   17.0356  -20.2531    6.4295 H   0  0  0  0  0  0  0  0  0  0  0  0
  1  2  1  0  0  0  0
  2  3  2  0  0  0  0
  2  4  1  0  0  0  0
  4  5  2  0  0  0  0
  4  7  1  0  0  0  0
  5  6  1  0  0  0  0
  6  8  1  0  0  0  0
M  END
>  <CHROM.0>
-52.53045072,169.56063899,-50.04767017,-52.42690208,-55.96557720,-58.11761024
-59.42708471,-177.31010780,-166.53446145,160.46557423

>  <CHROM.1>
-5.88009986,-57.58116033,18.74638449,-18.66243272,5.53755124,0.84209460,-0.33276796
-1.39334111

>  <Name>
P150927401

>  <RI>
0

>  <Rbt.Current_Directory>
/home/fstefaniak/projects/zuza/docking/adenine/1Y26

>  <Rbt.Executable>
rbdock ($Id: //depot/dev/client3/rdock/2013.1/src/exe/rbdock.cxx#4 $)

>  <Rbt.Library>
libRbt.so (2013.1, Build901 2013/11/27)

>  <Rbt.Parameter_File>
/home/fstefaniak/progs/rDock//data/scripts/dock_solv.prm

>  <Rbt.Receptor>
1y26.prm

>  <SCORE>
-53.4938

>  <SCORE.INTER>
-26.8541

>  <SCORE.INTER.CONST>
1

>  <SCORE.INTER.POLAR>
-3.41973

>  <SCORE.INTER.ROT>
1

>  <SCORE.INTER.SOLV>
8.05513

>  <SCORE.INTER.VDW>
-13.4554

>  <SCORE.INTER.norm>
-3.8363

>  <SCORE.INTRA>
-4.28339

>  <SCORE.INTRA.DIHEDRAL>
-12.0963

>  <SCORE.INTRA.DIHEDRAL.0>
12.7892

>  <SCORE.INTRA.POLAR>
0

>  <SCORE.INTRA.POLAR.0>
0

>  <SCORE.INTRA.REPUL>
0

>  <SCORE.INTRA.REPUL.0>
0

>  <SCORE.INTRA.SOLV>
0.045651

>  <SCORE.INTRA.SOLV.lig_0>
-9.36654

>  <SCORE.INTRA.VDW>
1.74193

>  <SCORE.INTRA.VDW.0>
-0.675258

>  <SCORE.INTRA.norm>
-0.611912

>  <SCORE.RESTR>
0

>  <SCORE.RESTR.CAVITY>
0

>  <SCORE.RESTR.norm>
0

>  <SCORE.SYSTEM>
-22.3563

>  <SCORE.SYSTEM.CONST>
0

>  <SCORE.SYSTEM.DIHEDRAL>
6.09307

>  <SCORE.SYSTEM.POLAR>
-3.47499

>  <SCORE.SYSTEM.SOLV>
0.42212

>  <SCORE.SYSTEM.VDW>
-5.49265

>  <SCORE.SYSTEM.norm>
-3.19376

>  <SCORE.heavy>
7

>  <SCORE.norm>
-7.64198

$$$$
P150927401
 OpenBabel12072022103D
libRbt.so/2013.1/901 2013/11/27
  8  7  0  0  0  0  0  0  0  0999 V2000
   19.1444  -18.1054    3.0789 C   0  0  0  0  0  0  0  0  0  0  0  0
   19.5608  -18.1454    4.5178 C   0  0  0  0  0  0  0  0  0  0  0  0
   20.6646  -17.8114    4.9276 O   0  0  0  0  0  0  0  0  0  0  0  0
   18.5347  -18.6864    5.4755 C   0  0  0  0  0  0  0  0  0  0  0  0
   17.3614  -19.0160    5.0250 N   0  0  0  0  0  0  0  0  0  0  0  0
   16.5353  -19.5237    6.0389 O   0  0  0  0  0  0  0  0  0  0  0  0
   19.0787  -18.8471    7.0868 Cl  0  0  0  0  0  0  0  0  0  0  0  0
   17.0555  -20.2709    6.3910 H   0  0  0  0  0  0  0  0  0  0  0  0
  1  2  1  0  0  0  0
  2  3  2  0  0  0  0
  2  4  1  0  0  0  0
  4  5  2  0  0  0  0
  4  7  1  0  0  0  0
  5  6  1  0  0  0  0
  6  8  1  0  0  0  0
M  END
>  <CHROM.0>
-48.00474056,169.19077291,-54.88253659,-50.69801964,-57.80585050,-63.65986188
-62.98512118,-47.18011266,-167.79200730,160.63299429

>  <CHROM.1>
-3.23644354,-56.76907796,18.73993718,-18.65412111,5.51212803,0.83990326,-0.34372791
-1.38208904

>  <Name>
P150927401

>  <RI>
0

>  <Rbt.Current_Directory>
/home/fstefaniak/projects/zuza/docking/adenine/1Y26

>  <Rbt.Executable>
rbdock ($Id: //depot/dev/client3/rdock/2013.1/src/exe/rbdock.cxx#4 $)

>  <Rbt.Library>
libRbt.so (2013.1, Build901 2013/11/27)

>  <Rbt.Parameter_File>
/home/fstefaniak/progs/rDock//data/scripts/dock_solv.prm

>  <Rbt.Receptor>
1y26.prm

>  <SCORE>
-53.0109

>  <SCORE.INTER>
-26.8631

>  <SCORE.INTER.CONST>
1

>  <SCORE.INTER.POLAR>
-3.44505

>  <SCORE.INTER.ROT>
1

>  <SCORE.INTER.SOLV>
8.07519

>  <SCORE.INTER.VDW>
-13.3836

>  <SCORE.INTER.norm>
-3.83759

>  <SCORE.INTRA>
-4.25924

>  <SCORE.INTRA.DIHEDRAL>
-12.1499

>  <SCORE.INTRA.DIHEDRAL.0>
12.7892

>  <SCORE.INTRA.POLAR>
0

>  <SCORE.INTRA.POLAR.0>
0

>  <SCORE.INTRA.REPUL>
0

>  <SCORE.INTRA.REPUL.0>
0

>  <SCORE.INTRA.SOLV>
0.0458687

>  <SCORE.INTRA.SOLV.lig_0>
-9.36654

>  <SCORE.INTRA.VDW>
1.79279

>  <SCORE.INTRA.VDW.0>
-0.675258

>  <SCORE.INTRA.norm>
-0.608463

>  <SCORE.RESTR>
0

>  <SCORE.RESTR.CAVITY>
0

>  <SCORE.RESTR.norm>
0

>  <SCORE.SYSTEM>
-21.8885

>  <SCORE.SYSTEM.CONST>
0

>  <SCORE.SYSTEM.DIHEDRAL>
6.90421

>  <SCORE.SYSTEM.POLAR>
-3.56278

>  <SCORE.SYSTEM.SOLV>
0.615687

>  <SCORE.SYSTEM.VDW>
-5.22305

>  <SCORE.SYSTEM.norm>
-3.12693

>  <SCORE.heavy>
7

>  <SCORE.norm>
-7.57298

$$$$
P150927401
 OpenBabel12072022103D
libRbt.so/2013.1/901 2013/11/27
  8  7  0  0  0  0  0  0  0  0999 V2000
   21.0742  -16.3359    4.1113 C   0  0  0  0  0  0  0  0  0  0  0  0
   19.8696  -17.1920    3.8635 C   0  0  0  0  0  0  0  0  0  0  0  0
   19.2712  -17.2516    2.7975 O   0  0  0  0  0  0  0  0  0  0  0  0
   19.3732  -17.9727    5.0496 C   0  0  0  0  0  0  0  0  0  0  0  0
   20.0259  -17.9021    6.1709 N   0  0  0  0  0  0  0  0  0  0  0  0
   19.4192  -18.6667    7.1785 O   0  0  0  0  0  0  0  0  0  0  0  0
   17.9340  -18.8504    4.7733 Cl  0  0  0  0  0  0  0  0  0  0  0  0
   18.6374  -18.1331    7.4170 H   0  0  0  0  0  0  0  0  0  0  0  0
  1  2  1  0  0  0  0
  2  3  2  0  0  0  0
  2  4  1  0  0  0  0
  4  5  2  0  0  0  0
  4  7  1  0  0  0  0
  5  6  1  0  0  0  0
  6  8  1  0  0  0  0
M  END
>  <CHROM.0>
-47.50757497,-175.52003508,-55.16001225,-51.33754609,-56.24192845,-60.90446765
-61.54614223,-50.59069215,-167.72864990,160.50831495

>  <CHROM.1>
-2.51581488,-74.26408825,19.27460235,-17.93873736,4.86834035,-1.08417734
0.59438278,1.89959770

>  <Name>
P150927401

>  <RI>
0

>  <Rbt.Current_Directory>
/home/fstefaniak/projects/zuza/docking/adenine/1Y26

>  <Rbt.Executable>
rbdock ($Id: //depot/dev/client3/rdock/2013.1/src/exe/rbdock.cxx#4 $)

>  <Rbt.Library>
libRbt.so (2013.1, Build901 2013/11/27)

>  <Rbt.Parameter_File>
/home/fstefaniak/progs/rDock//data/scripts/dock_solv.prm

>  <Rbt.Receptor>
1y26.prm

>  <SCORE>
-52.8349

>  <SCORE.INTER>
-25.4638

>  <SCORE.INTER.CONST>
1

>  <SCORE.INTER.POLAR>
-3.13057

>  <SCORE.INTER.ROT>
1

>  <SCORE.INTER.SOLV>
7.94448

>  <SCORE.INTER.VDW>
-13.4555

>  <SCORE.INTER.norm>
-3.63769

>  <SCORE.INTRA>
-4.93025

>  <SCORE.INTRA.DIHEDRAL>
-12.6168

>  <SCORE.INTRA.DIHEDRAL.0>
12.7892

>  <SCORE.INTRA.POLAR>
0

>  <SCORE.INTRA.POLAR.0>
0

>  <SCORE.INTRA.REPUL>
0

>  <SCORE.INTRA.REPUL.0>
0

>  <SCORE.INTRA.SOLV>
0.0475577

>  <SCORE.INTRA.SOLV.lig_0>
-9.36654

>  <SCORE.INTRA.VDW>
1.35437

>  <SCORE.INTRA.VDW.0>
-0.675258

>  <SCORE.INTRA.norm>
-0.704322

>  <SCORE.RESTR>
0

>  <SCORE.RESTR.CAVITY>
0

>  <SCORE.RESTR.norm>
0

>  <SCORE.SYSTEM>
-22.4409

>  <SCORE.SYSTEM.CONST>
0

>  <SCORE.SYSTEM.DIHEDRAL>
6.09692

>  <SCORE.SYSTEM.POLAR>
-3.54085

>  <SCORE.SYSTEM.SOLV>
0.604499

>  <SCORE.SYSTEM.VDW>
-5.39154

>  <SCORE.SYSTEM.norm>
-3.20584

>  <SCORE.heavy>
7

>  <SCORE.norm>
-7.54785

$$$$
P151016908
 OpenBabel12072022103D
libRbt.so/2013.1/901 2013/11/27
 14 14  0  0  0  0  0  0  0  0999 V2000
   17.8640  -18.2046    1.5105 C   0  0  0  0  0  0  0  0  0  0  0  0
   18.9565  -18.9118    2.3127 C   0  0  1  0  0  0  0  0  0  0  0  0
   20.2506  -18.1015    2.5262 C   0  0  2  0  0  0  0  0  0  0  0  0
   20.0997  -17.0230    3.6071 C   0  0  2  0  0  0  0  0  0  0  0  0
   19.4612  -17.5943    4.8621 C   0  0  1  0  0  0  0  0  0  0  0  0
   18.2060  -18.4101    4.5330 C   0  0  1  0  0  0  0  0  0  0  0  0
   18.4512  -19.4154    3.5518 O   0  0  0  0  0  0  0  0  0  0  0  0
   17.7297  -19.0616    5.7056 O   0  0  0  0  0  0  0  0  0  0  0  0
   20.3686  -18.4262    5.4656 F   0  0  0  0  0  0  0  0  0  0  0  0
   19.3397  -15.9181    3.1037 O   0  0  0  0  0  0  0  0  0  0  0  0
   20.6953  -17.4750    1.3176 O   0  0  0  0  0  0  0  0  0  0  0  0
   17.5582  -18.3410    6.3380 H   0  0  0  0  0  0  0  0  0  0  0  0
   19.0881  -15.4035    3.8993 H   0  0  0  0  0  0  0  0  0  0  0  0
   20.7884  -18.1752    0.6460 H   0  0  0  0  0  0  0  0  0  0  0  0
  2  1  1  1  0  0  0
  2  3  1  0  0  0  0
  2  7  1  0  0  0  0
  3 11  1  6  0  0  0
  3  4  1  0  0  0  0
  4 10  1  6  0  0  0
  4  5  1  0  0  0  0
  5  9  1  6  0  0  0
  5  6  1  0  0  0  0
  6  7  1  0  0  0  0
  6  8  1  1  0  0  0
  8 12  1  0  0  0  0
 10 13  1  0  0  0  0
 11 14  1  0  0  0  0
M  END
>  <CHROM.0>
-49.10249747,-173.60008780,-56.20915076,-52.02695316,-56.88529115,-58.37350390
-54.90370698,-52.89185511,-167.78726010,160.52348155

>  <CHROM.1>
-55.33889132,165.32730468,58.42748254,19.23181072,-18.04529981,3.54283946
1.18519732,-0.70788598,-1.50303161

>  <Name>
P151016908

>  <RI>
0

>  <Rbt.Current_Directory>
/home/fstefaniak/projects/zuza/docking/adenine/1Y26

>  <Rbt.Executable>
rbdock ($Id: //depot/dev/client3/rdock/2013.1/src/exe/rbdock.cxx#4 $)

>  <Rbt.Library>
libRbt.so (2013.1, Build901 2013/11/27)

>  <Rbt.Parameter_File>
/home/fstefaniak/progs/rDock//data/scripts/dock_solv.prm

>  <Rbt.Receptor>
1y26.prm

>  <SCORE>
-48.5049

>  <SCORE.INTER>
-26.4794

>  <SCORE.INTER.CONST>
1

>  <SCORE.INTER.POLAR>
-4.66798

>  <SCORE.INTER.ROT>
0

>  <SCORE.INTER.SOLV>
14.763

>  <SCORE.INTER.VDW>
-10.614

>  <SCORE.INTER.norm>
-2.40722

>  <SCORE.INTRA>
0.357124

>  <SCORE.INTRA.DIHEDRAL>
-0.340107

>  <SCORE.INTRA.DIHEDRAL.0>
1.59894

>  <SCORE.INTRA.POLAR>
0.229841

>  <SCORE.INTRA.POLAR.0>
-0.229841

>  <SCORE.INTRA.REPUL>
0

>  <SCORE.INTRA.REPUL.0>
0

>  <SCORE.INTRA.SOLV>
-0.146396

>  <SCORE.INTRA.SOLV.lig_0>
-15.5471

>  <SCORE.INTRA.VDW>
-0.181085

>  <SCORE.INTRA.VDW.0>
0.383992

>  <SCORE.INTRA.norm>
0.0324658

>  <SCORE.RESTR>
0

>  <SCORE.RESTR.CAVITY>
0

>  <SCORE.RESTR.norm>
0

>  <SCORE.SYSTEM>
-22.3827

>  <SCORE.SYSTEM.CONST>
0

>  <SCORE.SYSTEM.DIHEDRAL>
5.85576

>  <SCORE.SYSTEM.POLAR>
-3.49498

>  <SCORE.SYSTEM.SOLV>
0.615724

>  <SCORE.SYSTEM.VDW>
-5.42901

>  <SCORE.SYSTEM.norm>
-2.03479

>  <SCORE.heavy>
11

>  <SCORE.norm>
-4.40954

$$$$
P151016908
 OpenBabel12072022103D
libRbt.so/2013.1/901 2013/11/27
 14 14  0  0  0  0  0  0  0  0999 V2000
   17.8253  -18.1993    1.5208 C   0  0  0  0  0  0  0  0  0  0  0  0
   18.9370  -18.9043    2.2985 C   0  0  1  0  0  0  0  0  0  0  0  0
   20.2340  -18.0914    2.4826 C   0  0  2  0  0  0  0  0  0  0  0  0
   20.1054  -17.0129    3.5663 C   0  0  2  0  0  0  0  0  0  0  0  0
   19.4964  -17.5849    4.8355 C   0  0  1  0  0  0  0  0  0  0  0  0
   18.2357  -18.4032    4.5349 C   0  0  1  0  0  0  0  0  0  0  0  0
   18.4606  -19.4083    3.5488 O   0  0  0  0  0  0  0  0  0  0  0  0
   17.7870  -19.0551    5.7182 O   0  0  0  0  0  0  0  0  0  0  0  0
   20.4187  -18.4149    5.4187 F   0  0  0  0  0  0  0  0  0  0  0  0
   19.3323  -15.9095    3.0797 O   0  0  0  0  0  0  0  0  0  0  0  0
   20.6502  -17.4646    1.2641 O   0  0  0  0  0  0  0  0  0  0  0  0
   17.6542  -18.3369    6.3625 H   0  0  0  0  0  0  0  0  0  0  0  0
   19.0878  -15.4015    3.8817 H   0  0  0  0  0  0  0  0  0  0  0  0
   20.6640  -18.1532    0.5744 H   0  0  0  0  0  0  0  0  0  0  0  0
  2  1  1  1  0  0  0
  2  3  1  0  0  0  0
  2  7  1  0  0  0  0
  3 11  1  6  0  0  0
  3  4  1  0  0  0  0
  4 10  1  6  0  0  0
  4  5  1  0  0  0  0
  5  9  1  6  0  0  0
  5  6  1  0  0  0  0
  6  7  1  0  0  0  0
  6  8  1  1  0  0  0
  8 12  1  0  0  0  0
 10 13  1  0  0  0  0
 11 14  1  0  0  0  0
M  END
>  <CHROM.0>
-49.28897005,-172.86971363,-56.57271477,-52.94884349,-56.95060047,-57.55992582
-57.03740058,-48.71631984,-166.85890471,159.74229438

>  <CHROM.1>
-51.11914029,164.62062756,56.77042353,19.23791562,-18.03678652,3.52181047
1.21635791,-0.70865466,-1.48348288

>  <Name>
P151016908

>  <RI>
0

>  <Rbt.Current_Directory>
/home/fstefaniak/projects/zuza/docking/adenine/1Y26

>  <Rbt.Executable>
rbdock ($Id: //depot/dev/client3/rdock/2013.1/src/exe/rbdock.cxx#4 $)

>  <Rbt.Library>
libRbt.so (2013.1, Build901 2013/11/27)

>  <Rbt.Parameter_File>
/home/fstefaniak/progs/rDock//data/scripts/dock_solv.prm

>  <Rbt.Receptor>
1y26.prm

>  <SCORE>
-48.3307

>  <SCORE.INTER>
-26.6461

>  <SCORE.INTER.CONST>
1

>  <SCORE.INTER.POLAR>
-4.64185

>  <SCORE.INTER.ROT>
0

>  <SCORE.INTER.SOLV>
14.7699

>  <SCORE.INTER.VDW>
-10.8145

>  <SCORE.INTER.norm>
-2.42237

>  <SCORE.INTRA>
0.637137

>  <SCORE.INTRA.DIHEDRAL>
0.0616359

>  <SCORE.INTRA.DIHEDRAL.0>
1.59894

>  <SCORE.INTRA.POLAR>
0.229841

>  <SCORE.INTRA.POLAR.0>
-0.229841

>  <SCORE.INTRA.REPUL>
0

>  <SCORE.INTRA.REPUL.0>
0

>  <SCORE.INTRA.SOLV>
-0.14937

>  <SCORE.INTRA.SOLV.lig_0>
-15.5471

>  <SCORE.INTRA.VDW>
-0.100455

>  <SCORE.INTRA.VDW.0>
0.383992

>  <SCORE.INTRA.norm>
0.0579216

>  <SCORE.RESTR>
0

>  <SCORE.RESTR.CAVITY>
0

>  <SCORE.RESTR.norm>
0

>  <SCORE.SYSTEM>
-22.3218

>  <SCORE.SYSTEM.CONST>
0

>  <SCORE.SYSTEM.DIHEDRAL>
6.29545

>  <SCORE.SYSTEM.POLAR>
-3.51018

>  <SCORE.SYSTEM.SOLV>
0.610408

>  <SCORE.SYSTEM.VDW>
-5.48252

>  <SCORE.SYSTEM.norm>
-2.02925

>  <SCORE.heavy>
11

>  <SCORE.norm>
-4.3937

$$$$
P151016908
 OpenBabel12072022103D
libRbt.so/2013.1/901 2013/11/27
 14 14  0  0  0  0  0  0  0  0999 V2000
   17.8471  -18.2121    1.5828 C   0  0  0  0  0  0  0  0  0  0  0  0
   18.9744  -18.8978    2.3553 C   0  0  1  0  0  0  0  0  0  0  0  0
   20.2570  -18.0617    2.5360 C   0  0  2  0  0  0  0  0  0  0  0  0
   20.1127  -16.9873    3.6218 C   0  0  2  0  0  0  0  0  0  0  0  0
   19.5189  -17.5724    4.8924 C   0  0  1  0  0  0  0  0  0  0  0  0
   18.2722  -18.4131    4.5950 C   0  0  1  0  0  0  0  0  0  0  0  0
   18.5119  -19.4124    3.6065 O   0  0  0  0  0  0  0  0  0  0  0  0
   17.8399  -19.0750    5.7788 O   0  0  0  0  0  0  0  0  0  0  0  0
   20.4583  -18.3862    5.4708 F   0  0  0  0  0  0  0  0  0  0  0  0
   19.3177  -15.8975    3.1399 O   0  0  0  0  0  0  0  0  0  0  0  0
   20.6572  -17.4254    1.3170 O   0  0  0  0  0  0  0  0  0  0  0  0
   17.6521  -18.3575    6.4103 H   0  0  0  0  0  0  0  0  0  0  0  0
   19.0963  -15.3756    3.9397 H   0  0  0  0  0  0  0  0  0  0  0  0
   20.7421  -18.1225    0.6410 H   0  0  0  0  0  0  0  0  0  0  0  0
  2  1  1  1  0  0  0
  2  3  1  0  0  0  0
  2  7  1  0  0  0  0
  3 11  1  6  0  0  0
  3  4  1  0  0  0  0
  4 10  1  6  0  0  0
  4  5  1  0  0  0  0
  5  9  1  6  0  0  0
  5  6  1  0  0  0  0
  6  7  1  0  0  0  0
  6  8  1  1  0  0  0
  8 12  1  0  0  0  0
 10 13  1  0  0  0  0
 11 14  1  0  0  0  0
M  END
>  <CHROM.0>
-45.57123570,-58.02612932,-54.30094813,-50.48902383,-58.75818061,-59.55084594
-59.02730880,-48.16460022,-167.65685899,160.03988404

>  <CHROM.1>
-55.03595818,166.77127726,59.60996673,19.26415641,-18.02676928,3.57885590
1.22152224,-0.72609965,-1.47796486

>  <Name>
P151016908

>  <RI>
0

>  <Rbt.Current_Directory>
/home/fstefaniak/projects/zuza/docking/adenine/1Y26

>  <Rbt.Executable>
rbdock ($Id: //depot/dev/client3/rdock/2013.1/src/exe/rbdock.cxx#4 $)

>  <Rbt.Library>
libRbt.so (2013.1, Build901 2013/11/27)

>  <Rbt.Parameter_File>
/home/fstefaniak/progs/rDock//data/scripts/dock_solv.prm

>  <Rbt.Receptor>
1y26.prm

>  <SCORE>
-48.1056

>  <SCORE.INTER>
-26.2655

>  <SCORE.INTER.CONST>
1

>  <SCORE.INTER.POLAR>
-4.5391

>  <SCORE.INTER.ROT>
0

>  <SCORE.INTER.SOLV>
14.7443

>  <SCORE.INTER.VDW>
-10.8948

>  <SCORE.INTER.norm>
-2.38777

>  <SCORE.INTRA>
0.232573

>  <SCORE.INTRA.DIHEDRAL>
-0.517142

>  <SCORE.INTRA.DIHEDRAL.0>
1.59894

>  <SCORE.INTRA.POLAR>
0.229841

>  <SCORE.INTRA.POLAR.0>
-0.229841

>  <SCORE.INTRA.REPUL>
0

>  <SCORE.INTRA.REPUL.0>
0

>  <SCORE.INTRA.SOLV>
-0.143418

>  <SCORE.INTRA.SOLV.lig_0>
-15.5471

>  <SCORE.INTRA.VDW>
-0.218607

>  <SCORE.INTRA.VDW.0>
0.383992

>  <SCORE.INTRA.norm>
0.021143

>  <SCORE.RESTR>
0

>  <SCORE.RESTR.CAVITY>
0

>  <SCORE.RESTR.norm>
0

>  <SCORE.SYSTEM>
-22.0726

>  <SCORE.SYSTEM.CONST>
0

>  <SCORE.SYSTEM.DIHEDRAL>
6.59844

>  <SCORE.SYSTEM.POLAR>
-3.61154

>  <SCORE.SYSTEM.SOLV>
0.677583

>  <SCORE.SYSTEM.VDW>
-5.10196

>  <SCORE.SYSTEM.norm>
-2.0066

>  <SCORE.heavy>
11

>  <SCORE.norm>
-4.37323

$$$$
P151020785
 OpenBabel12072022103D
libRbt.so/2013.1/901 2013/11/27
 16 16  0  0  0  0  0  0  0  0999 V2000
   19.3794  -17.8053    5.7457 C   0  0  0  0  0  0  0  0  0  0  0  0
   20.2073  -16.8730    5.2454 C   0  0  0  0  0  0  0  0  0  0  0  0
   20.6089  -16.8029    3.8041 C   0  0  1  0  0  0  0  0  0  0  0  0
   20.2881  -18.1018    3.0369 C   0  0  1  0  0  0  0  0  0  0  0  0
   18.9123  -18.6996    3.3882 C   0  0  1  0  0  0  0  0  0  0  0  0
   18.7074  -18.8648    4.9180 C   0  0  1  0  0  0  0  0  0  0  0  0
   19.1732  -20.2107    5.3524 N   0  3  0  0  0  0  0  0  0  0  0  0
   19.5262  -20.2107    6.3165 H   0  0  0  0  0  0  0  0  0  0  0  0
   18.4039  -20.8900    5.3024 H   0  0  0  0  0  0  0  0  0  0  0  0
   19.9183  -20.5576    4.7336 H   0  0  0  0  0  0  0  0  0  0  0  0
   17.8386  -17.9148    2.8604 O   0  0  0  0  0  0  0  0  0  0  0  0
   20.3300  -17.8726    1.6238 O   0  0  0  0  0  0  0  0  0  0  0  0
   19.9028  -15.7343    3.1835 O   0  0  0  0  0  0  0  0  0  0  0  0
   17.0069  -18.3134    3.1897 H   0  0  0  0  0  0  0  0  0  0  0  0
   20.1957  -18.7487    1.1997 H   0  0  0  0  0  0  0  0  0  0  0  0
   19.0303  -15.6555    3.6111 H   0  0  0  0  0  0  0  0  0  0  0  0
  1  2  2  0  0  0  0
  1  6  1  0  0  0  0
  2  3  1  0  0  0  0
  3  4  1  0  0  0  0
  3 13  1  6  0  0  0
  4  5  1  0  0  0  0
  4 12  1  6  0  0  0
  5 11  1  1  0  0  0
  5  6  1  0  0  0  0
  6  7  1  1  0  0  0
  7  8  1  0  0  0  0
  7  9  1  0  0  0  0
  7 10  1  0  0  0  0
 11 14  1  0  0  0  0
 12 15  1  0  0  0  0
 13 16  1  0  0  0  0
M  CHG  1   7   1
M  END
>  <CHROM.0>
-48.72814726,-61.59148960,-53.51547534,-51.07195046,-175.24551495,-57.74612673
-54.07702772,-52.53213004,-167.24431114,160.50989932

>  <CHROM.1>
-32.40464965,175.20177038,-175.20020184,23.33279585,19.49992562,-17.90860758
3.84825965,-2.26402265,-1.12036788,-1.43720556

>  <Name>
P151020785

>  <RI>
0

>  <Rbt.Current_Directory>
/home/fstefaniak/projects/zuza/docking/adenine/1Y26

>  <Rbt.Executable>
rbdock ($Id: //depot/dev/client3/rdock/2013.1/src/exe/rbdock.cxx#4 $)

>  <Rbt.Library>
libRbt.so (2013.1, Build901 2013/11/27)

>  <Rbt.Parameter_File>
/home/fstefaniak/progs/rDock//data/scripts/dock_solv.prm

>  <Rbt.Receptor>
1y26.prm

>  <SCORE>
-55.3883

>  <SCORE.INTER>
-33.7447

>  <SCORE.INTER.CONST>
1

>  <SCORE.INTER.POLAR>
-6.06417

>  <SCORE.INTER.ROT>
0

>  <SCORE.INTER.SOLV>
25.874

>  <SCORE.INTER.VDW>
-14.5072

>  <SCORE.INTER.norm>
-3.37447

>  <SCORE.INTRA>
0.498977

>  <SCORE.INTRA.DIHEDRAL>
-1.23896

>  <SCORE.INTRA.DIHEDRAL.0>
7.20105

>  <SCORE.INTRA.POLAR>
0.321805

>  <SCORE.INTRA.POLAR.0>
-0.321805

>  <SCORE.INTRA.REPUL>
0

>  <SCORE.INTRA.REPUL.0>
0

>  <SCORE.INTRA.SOLV>
-0.324944

>  <SCORE.INTRA.SOLV.lig_0>
-36.0555

>  <SCORE.INTRA.VDW>
0.186789

>  <SCORE.INTRA.VDW.0>
0.304019

>  <SCORE.INTRA.norm>
0.0498977

>  <SCORE.RESTR>
0

>  <SCORE.RESTR.CAVITY>
0

>  <SCORE.RESTR.norm>
0

>  <SCORE.SYSTEM>
-22.1426

>  <SCORE.SYSTEM.CONST>
0

>  <SCORE.SYSTEM.DIHEDRAL>
6.10657

>  <SCORE.SYSTEM.POLAR>
-3.55597

>  <SCORE.SYSTEM.SOLV>
0.520529

>  <SCORE.SYSTEM.VDW>
-5.11755

>  <SCORE.SYSTEM.norm>
-2.21426

>  <SCORE.heavy>
10

>  <SCORE.norm>
-5.53883

$$$$
P151020785
 OpenBabel12072022103D
libRbt.so/2013.1/901 2013/11/27
 16 16  0  0  0  0  0  0  0  0999 V2000
   19.4157  -17.8202    5.7799 C   0  0  0  0  0  0  0  0  0  0  0  0
   20.2283  -16.8822    5.2654 C   0  0  0  0  0  0  0  0  0  0  0  0
   20.6053  -16.8102    3.8176 C   0  0  1  0  0  0  0  0  0  0  0  0
   20.2814  -18.1119    3.0566 C   0  0  1  0  0  0  0  0  0  0  0  0
   18.9160  -18.7195    3.4310 C   0  0  1  0  0  0  0  0  0  0  0  0
   18.7378  -18.8852    4.9641 C   0  0  1  0  0  0  0  0  0  0  0  0
   19.2206  -20.2274    5.3914 N   0  3  0  0  0  0  0  0  0  0  0  0
   18.4710  -20.9289    5.3996 H   0  0  0  0  0  0  0  0  0  0  0  0
   19.9548  -20.5636    4.7560 H   0  0  0  0  0  0  0  0  0  0  0  0
   19.6361  -20.1847    6.3316 H   0  0  0  0  0  0  0  0  0  0  0  0
   17.8280  -17.9430    2.9207 O   0  0  0  0  0  0  0  0  0  0  0  0
   20.2980  -17.8834    1.6428 O   0  0  0  0  0  0  0  0  0  0  0  0
   19.8812  -15.7472    3.2082 O   0  0  0  0  0  0  0  0  0  0  0  0
   17.8312  -18.0545    1.9478 H   0  0  0  0  0  0  0  0  0  0  0  0
   20.1540  -18.7593    1.2216 H   0  0  0  0  0  0  0  0  0  0  0  0
   19.0110  -15.6817    3.6428 H   0  0  0  0  0  0  0  0  0  0  0  0
  1  2  2  0  0  0  0
  1  6  1  0  0  0  0
  2  3  1  0  0  0  0
  3  4  1  0  0  0  0
  3 13  1  6  0  0  0
  4  5  1  0  0  0  0
  4 12  1  6  0  0  0
  5 11  1  1  0  0  0
  5  6  1  0  0  0  0
  6  7  1  1  0  0  0
  7  8  1  0  0  0  0
  7  9  1  0  0  0  0
  7 10  1  0  0  0  0
 11 14  1  0  0  0  0
 12 15  1  0  0  0  0
 13 16  1  0  0  0  0
M  CHG  1   7   1
M  END
>  <CHROM.0>
-45.60052021,-60.90645853,-51.72319678,-49.23257463,-53.71766522,-64.37793715
-53.39463256,-48.22469688,-166.27752262,161.34200456

>  <CHROM.1>
-33.10597574,175.76141812,69.72631825,141.44106592,19.51138216,-17.92174753
3.87183503,-2.19540373,-1.13396231,-1.39031510

>  <Name>
P151020785

>  <RI>
0

>  <Rbt.Current_Directory>
/home/fstefaniak/projects/zuza/docking/adenine/1Y26

>  <Rbt.Executable>
rbdock ($Id: //depot/dev/client3/rdock/2013.1/src/exe/rbdock.cxx#4 $)

>  <Rbt.Library>
libRbt.so (2013.1, Build901 2013/11/27)

>  <Rbt.Parameter_File>
/home/fstefaniak/progs/rDock//data/scripts/dock_solv.prm

>  <Rbt.Receptor>
1y26.prm

>  <SCORE>
-54.8791

>  <SCORE.INTER>
-33.5752

>  <SCORE.INTER.CONST>
1

>  <SCORE.INTER.POLAR>
-6.11365

>  <SCORE.INTER.ROT>
0

>  <SCORE.INTER.SOLV>
25.8908

>  <SCORE.INTER.VDW>
-14.2349

>  <SCORE.INTER.norm>
-3.35752

>  <SCORE.INTRA>
0.6261

>  <SCORE.INTRA.DIHEDRAL>
-0.900761

>  <SCORE.INTRA.DIHEDRAL.0>
7.20105

>  <SCORE.INTRA.POLAR>
0.321805

>  <SCORE.INTRA.POLAR.0>
-0.321805

>  <SCORE.INTRA.REPUL>
0

>  <SCORE.INTRA.REPUL.0>
0

>  <SCORE.INTRA.SOLV>
-0.110789

>  <SCORE.INTRA.SOLV.lig_0>
-36.0555

>  <SCORE.INTRA.VDW>
0.0377375

>  <SCORE.INTRA.VDW.0>
0.304019

>  <SCORE.INTRA.norm>
0.06261

>  <SCORE.RESTR>
0

>  <SCORE.RESTR.CAVITY>
0

>  <SCORE.RESTR.norm>
0

>  <SCORE.SYSTEM>
-21.9301

>  <SCORE.SYSTEM.CONST>
0

>  <SCORE.SYSTEM.DIHEDRAL>
7.27254

>  <SCORE.SYSTEM.POLAR>
-3.65979

>  <SCORE.SYSTEM.SOLV>
0.68741

>  <SCORE.SYSTEM.VDW>
-5.07406

>  <SCORE.SYSTEM.norm>
-2.19301

>  <SCORE.heavy>
10

>  <SCORE.norm>
-5.48791

$$$$
P151020785
 OpenBabel12072022103D
libRbt.so/2013.1/901 2013/11/27
 16 16  0  0  0  0  0  0  0  0999 V2000
   19.3929  -17.8209    5.7553 C   0  0  0  0  0  0  0  0  0  0  0  0
   20.2108  -16.8827    5.2497 C   0  0  0  0  0  0  0  0  0  0  0  0
   20.5986  -16.8069    3.8049 C   0  0  1  0  0  0  0  0  0  0  0  0
   20.2781  -18.1058    3.0375 C   0  0  1  0  0  0  0  0  0  0  0  0
   18.9090  -18.7122    3.4000 C   0  0  1  0  0  0  0  0  0  0  0  0
   18.7193  -18.8823    4.9313 C   0  0  1  0  0  0  0  0  0  0  0  0
   19.1967  -20.2265    5.3580 N   0  3  0  0  0  0  0  0  0  0  0  0
   18.4488  -20.9299    5.3458 H   0  0  0  0  0  0  0  0  0  0  0  0
   19.9443  -20.5563    4.7350 H   0  0  0  0  0  0  0  0  0  0  0  0
   19.5931  -20.1901    6.3067 H   0  0  0  0  0  0  0  0  0  0  0  0
   17.8261  -17.9323    2.8841 O   0  0  0  0  0  0  0  0  0  0  0  0
   20.3056  -17.8730    1.6246 O   0  0  0  0  0  0  0  0  0  0  0  0
   19.8808  -15.7409    3.1934 O   0  0  0  0  0  0  0  0  0  0  0  0
   17.8660  -18.0015    1.9081 H   0  0  0  0  0  0  0  0  0  0  0  0
   20.1864  -18.7508    1.1996 H   0  0  0  0  0  0  0  0  0  0  0  0
   19.0121  -15.6675    3.6299 H   0  0  0  0  0  0  0  0  0  0  0  0
  1  2  2  0  0  0  0
  1  6  1  0  0  0  0
  2  3  1  0  0  0  0
  3  4  1  0  0  0  0
  3 13  1  6  0  0  0
  4  5  1  0  0  0  0
  4 12  1  6  0  0  0
  5 11  1  1  0  0  0
  5  6  1  0  0  0  0
  6  7  1  1  0  0  0
  7  8  1  0  0  0  0
  7  9  1  0  0  0  0
  7 10  1  0  0  0  0
 11 14  1  0  0  0  0
 12 15  1  0  0  0  0
 13 16  1  0  0  0  0
M  CHG  1   7   1
M  END
>  <CHROM.0>
-47.51372349,-58.21764748,-52.18035714,-51.60696342,-177.58733292,-60.25086811
-60.75878944,58.72237335,-168.53802535,160.73446120

>  <CHROM.1>
-32.35195710,174.34046773,66.70385583,142.24921913,19.50287854,-17.91651062
3.84771311,-2.21456998,-1.13454865,-1.40509887

>  <Name>
P151020785

>  <RI>
0

>  <Rbt.Current_Directory>
/home/fstefaniak/projects/zuza/docking/adenine/1Y26

>  <Rbt.Executable>
rbdock ($Id: //depot/dev/client3/rdock/2013.1/src/exe/rbdock.cxx#4 $)

>  <Rbt.Library>
libRbt.so (2013.1, Build901 2013/11/27)

>  <Rbt.Parameter_File>
/home/fstefaniak/progs/rDock//data/scripts/dock_solv.prm

>  <Rbt.Receptor>
1y26.prm

>  <SCORE>
-54.517

>  <SCORE.INTER>
-33.8425

>  <SCORE.INTER.CONST>
1

>  <SCORE.INTER.POLAR>
-6.15558

>  <SCORE.INTER.ROT>
0

>  <SCORE.INTER.SOLV>
25.9002

>  <SCORE.INTER.VDW>
-14.2765

>  <SCORE.INTER.norm>
-3.38425

>  <SCORE.INTRA>
0.579879

>  <SCORE.INTRA.DIHEDRAL>
-0.991677

>  <SCORE.INTRA.DIHEDRAL.0>
7.20105

>  <SCORE.INTRA.POLAR>
0.321805

>  <SCORE.INTRA.POLAR.0>
-0.321805

>  <SCORE.INTRA.REPUL>
0

>  <SCORE.INTRA.REPUL.0>
0

>  <SCORE.INTRA.SOLV>
-0.108495

>  <SCORE.INTRA.SOLV.lig_0>
-36.0555

>  <SCORE.INTRA.VDW>
0.0358278

>  <SCORE.INTRA.VDW.0>
0.304019

>  <SCORE.INTRA.norm>
0.0579879

>  <SCORE.RESTR>
0

>  <SCORE.RESTR.CAVITY>
0

>  <SCORE.RESTR.norm>
0

>  <SCORE.SYSTEM>
-21.2544

>  <SCORE.SYSTEM.CONST>
0

>  <SCORE.SYSTEM.DIHEDRAL>
5.61236

>  <SCORE.SYSTEM.POLAR>
-3.50347

>  <SCORE.SYSTEM.SOLV>
0.274388

>  <SCORE.SYSTEM.VDW>
-4.45359

>  <SCORE.SYSTEM.norm>
-2.12544

>  <SCORE.heavy>
10

>  <SCORE.norm>
-5.4517

$$$$
P151024286
 OpenBabel12072022103D
libRbt.so/2013.1/901 2013/11/27
 13 13  0  0  0  0  0  0  0  0999 V2000
   23.8468  -16.1857    4.9353 H   0  0  0  0  0  0  0  0  0  0  0  0
   22.8757  -16.5376    4.8811 N   0  0  0  0  0  0  0  0  0  0  0  0
   22.2199  -15.7439    4.0889 C   0  0  0  0  0  0  0  0  0  0  0  0
   20.9161  -15.8975    3.7824 N   0  0  0  0  0  0  0  0  0  0  0  0
   20.1038  -16.9231    4.2719 C   0  0  0  0  0  0  0  0  0  0  0  0
   19.0105  -17.3740    3.5144 C   0  0  0  0  0  0  0  0  0  0  0  0
   18.2675  -18.4091    4.1097 C   0  0  0  0  0  0  0  0  0  0  0  0
   18.5927  -18.9447    5.3558 C   0  0  0  0  0  0  0  0  0  0  0  0
   19.6884  -18.4319    6.0218 C   0  0  0  0  0  0  0  0  0  0  0  0
   20.3939  -17.4531    5.4625 N   0  3  0  0  0  0  0  0  0  0  0  0
   21.2181  -17.0310    5.9085 H   0  0  0  0  0  0  0  0  0  0  0  0
   18.7171  -16.8806    2.3747 O   0  5  0  0  0  0  0  0  0  0  0  0
   20.3719  -15.2923    3.1635 H   0  0  0  0  0  0  0  0  0  0  0  0
  1  2  1  0  0  0  0
  2  3  2  0  0  0  0
  3  4  1  0  0  0  0
  4  5  1  0  0  0  0
  4 13  1  0  0  0  0
  5  6  2  0  0  0  0
  5 10  1  0  0  0  0
  6  7  1  0  0  0  0
  6 12  1  0  0  0  0
  7  8  2  0  0  0  0
  8  9  1  0  0  0  0
  9 10  2  0  0  0  0
 10 11  1  0  0  0  0
M  CHG  2  10   1  12  -1
M  END
>  <CHROM.0>
-51.50811734,-61.83395766,-54.79512152,-50.01269070,-56.95509070,-57.19162833
-58.90842560,-53.09613766,-167.66407431,159.89495078

>  <CHROM.1>
-151.79080311,20.12331322,-17.21527995,4.36304349,-0.26598775,0.45675716
2.16810483

>  <Name>
P151024286

>  <RI>
0

>  <Rbt.Current_Directory>
/home/fstefaniak/projects/zuza/docking/adenine/1Y26

>  <Rbt.Executable>
rbdock ($Id: //depot/dev/client3/rdock/2013.1/src/exe/rbdock.cxx#4 $)

>  <Rbt.Library>
libRbt.so (2013.1, Build901 2013/11/27)

>  <Rbt.Parameter_File>
/home/fstefaniak/progs/rDock//data/scripts/dock_solv.prm

>  <Rbt.Receptor>
1y26.prm

>  <SCORE>
-52.3432

>  <SCORE.INTER>
-31.8765

>  <SCORE.INTER.CONST>
1

>  <SCORE.INTER.POLAR>
-3.42551

>  <SCORE.INTER.ROT>
1

>  <SCORE.INTER.SOLV>
12.0884

>  <SCORE.INTER.VDW>
-18.1288

>  <SCORE.INTER.norm>
-3.18765

>  <SCORE.INTRA>
1.75785

>  <SCORE.INTRA.DIHEDRAL>
2.85404

>  <SCORE.INTRA.DIHEDRAL.0>
3.34733e-06

>  <SCORE.INTRA.POLAR>
0.38721

>  <SCORE.INTRA.POLAR.0>
-0.916372

>  <SCORE.INTRA.REPUL>
0

>  <SCORE.INTRA.REPUL.0>
0

>  <SCORE.INTRA.SOLV>
-0.31587

>  <SCORE.INTRA.SOLV.lig_0>
-15.2423

>  <SCORE.INTRA.VDW>
-0.827755

>  <SCORE.INTRA.VDW.0>
0.939686

>  <SCORE.INTRA.norm>
0.175785

>  <SCORE.RESTR>
0

>  <SCORE.RESTR.CAVITY>
0

>  <SCORE.RESTR.norm>
0

>  <SCORE.SYSTEM>
-22.2245

>  <SCORE.SYSTEM.CONST>
0

>  <SCORE.SYSTEM.DIHEDRAL>
5.67212

>  <SCORE.SYSTEM.POLAR>
-3.51235

>  <SCORE.SYSTEM.SOLV>
0.67123

>  <SCORE.SYSTEM.VDW>
-5.22296

>  <SCORE.SYSTEM.norm>
-2.22245

>  <SCORE.heavy>
10

>  <SCORE.norm>
-5.23432

$$$$
P151024286
 OpenBabel12072022103D
libRbt.so/2013.1/901 2013/11/27
 13 13  0  0  0  0  0  0  0  0999 V2000
   23.8333  -16.1552    4.9101 H   0  0  0  0  0  0  0  0  0  0  0  0
   22.8643  -16.5119    4.8495 N   0  0  0  0  0  0  0  0  0  0  0  0
   22.2078  -15.7173    4.0588 C   0  0  0  0  0  0  0  0  0  0  0  0
   20.9062  -15.8761    3.7455 N   0  0  0  0  0  0  0  0  0  0  0  0
   20.0973  -16.9087    4.2256 C   0  0  0  0  0  0  0  0  0  0  0  0
   19.0162  -17.3683    3.4560 C   0  0  0  0  0  0  0  0  0  0  0  0
   18.2753  -18.4099    4.0426 C   0  0  0  0  0  0  0  0  0  0  0  0
   18.5914  -18.9436    5.2918 C   0  0  0  0  0  0  0  0  0  0  0  0
   19.6754  -18.4221    5.9700 C   0  0  0  0  0  0  0  0  0  0  0  0
   20.3788  -17.4371    5.4190 N   0  3  0  0  0  0  0  0  0  0  0  0
   21.1945  -17.0083    5.8742 H   0  0  0  0  0  0  0  0  0  0  0  0
   18.7311  -16.8766    2.3135 O   0  5  0  0  0  0  0  0  0  0  0  0
   20.3617  -15.2703    3.1276 H   0  0  0  0  0  0  0  0  0  0  0  0
  1  2  1  0  0  0  0
  2  3  2  0  0  0  0
  3  4  1  0  0  0  0
  4  5  1  0  0  0  0
  4 13  1  0  0  0  0
  5  6  2  0  0  0  0
  5 10  1  0  0  0  0
  6  7  1  0  0  0  0
  6 12  1  0  0  0  0
  7  8  2  0  0  0  0
  8  9  1  0  0  0  0
  9 10  2  0  0  0  0
 10 11  1  0  0  0  0
M  CHG  2  10   1  12  -1
M  END
>  <CHROM.0>
-55.25632067,-60.51237010,-50.90560443,-53.28002535,-55.59450055,-57.59775285
-61.36490694,-51.48033874,-166.85324776,161.62594027

>  <CHROM.1>
-151.29355808,20.11905662,-17.20257725,4.31438672,-0.26339320,0.46694576
2.16654738

>  <Name>
P151024286

>  <RI>
0

>  <Rbt.Current_Directory>
/home/fstefaniak/projects/zuza/docking/adenine/1Y26

>  <Rbt.Executable>
rbdock ($Id: //depot/dev/client3/rdock/2013.1/src/exe/rbdock.cxx#4 $)

>  <Rbt.Library>
libRbt.so (2013.1, Build901 2013/11/27)

>  <Rbt.Parameter_File>
/home/fstefaniak/progs/rDock//data/scripts/dock_solv.prm

>  <Rbt.Receptor>
1y26.prm

>  <SCORE>
-52.3356

>  <SCORE.INTER>
-31.9592

>  <SCORE.INTER.CONST>
1

>  <SCORE.INTER.POLAR>
-3.43545

>  <SCORE.INTER.ROT>
1

>  <SCORE.INTER.SOLV>
12.0815

>  <SCORE.INTER.VDW>
-18.1485

>  <SCORE.INTER.norm>
-3.19592

>  <SCORE.INTRA>
1.81282

>  <SCORE.INTRA.DIHEDRAL>
2.94705

>  <SCORE.INTRA.DIHEDRAL.0>
3.34733e-06

>  <SCORE.INTRA.POLAR>
0.39712

>  <SCORE.INTRA.POLAR.0>
-0.916372

>  <SCORE.INTRA.REPUL>
0

>  <SCORE.INTRA.REPUL.0>
0

>  <SCORE.INTRA.SOLV>
-0.326173

>  <SCORE.INTRA.SOLV.lig_0>
-15.2423

>  <SCORE.INTRA.VDW>
-0.847824

>  <SCORE.INTRA.VDW.0>
0.939686

>  <SCORE.INTRA.norm>
0.181282

>  <SCORE.RESTR>
0

>  <SCORE.RESTR.CAVITY>
0

>  <SCORE.RESTR.norm>
0

>  <SCORE.SYSTEM>
-22.1892

>  <SCORE.SYSTEM.CONST>
0

>  <SCORE.SYSTEM.DIHEDRAL>
5.42333

>  <SCORE.SYSTEM.POLAR>
-3.41413

>  <SCORE.SYSTEM.SOLV>
0.663545

>  <SCORE.SYSTEM.VDW>
-5.44131

>  <SCORE.SYSTEM.norm>
-2.21892

>  <SCORE.heavy>
10

>  <SCORE.norm>
-5.23356

$$$$
P151024286
 OpenBabel12072022103D
libRbt.so/2013.1/901 2013/11/27
 13 13  0  0  0  0  0  0  0  0999 V2000
   23.8633  -16.2005    4.9559 H   0  0  0  0  0  0  0  0  0  0  0  0
   22.8936  -16.5532    4.8842 N   0  0  0  0  0  0  0  0  0  0  0  0
   22.2387  -15.7329    4.1188 C   0  0  0  0  0  0  0  0  0  0  0  0
   20.9368  -15.8792    3.8009 N   0  0  0  0  0  0  0  0  0  0  0  0
   20.1258  -16.9247    4.2486 C   0  0  0  0  0  0  0  0  0  0  0  0
   19.0393  -17.3529    3.4685 C   0  0  0  0  0  0  0  0  0  0  0  0
   18.2968  -18.4113    4.0220 C   0  0  0  0  0  0  0  0  0  0  0  0
   18.6164  -18.9894    5.2504 C   0  0  0  0  0  0  0  0  0  0  0  0
   19.7056  -18.4961    5.9413 C   0  0  0  0  0  0  0  0  0  0  0  0
   20.4105  -17.4953    5.4215 N   0  3  0  0  0  0  0  0  0  0  0  0
   21.2301  -17.0860    5.8875 H   0  0  0  0  0  0  0  0  0  0  0  0
   18.7511  -16.8206    2.3451 O   0  5  0  0  0  0  0  0  0  0  0  0
   20.3935  -15.2533    3.2022 H   0  0  0  0  0  0  0  0  0  0  0  0
  1  2  1  0  0  0  0
  2  3  2  0  0  0  0
  3  4  1  0  0  0  0
  4  5  1  0  0  0  0
  4 13  1  0  0  0  0
  5  6  2  0  0  0  0
  5 10  1  0  0  0  0
  6  7  1  0  0  0  0
  6 12  1  0  0  0  0
  7  8  2  0  0  0  0
  8  9  1  0  0  0  0
  9 10  2  0  0  0  0
 10 11  1  0  0  0  0
M  CHG  2  10   1  12  -1
M  END
>  <CHROM.0>
-50.93891967,-61.22439589,-55.24904790,-52.48626987,-173.71973794,-58.09271479
-58.19488072,-49.81337814,-166.39450047,159.84919038

>  <CHROM.1>
-151.64550908,20.14618806,-17.22034469,4.32870032,-0.26340920,0.46296581
2.20205163

>  <Name>
P151024286

>  <RI>
0

>  <Rbt.Current_Directory>
/home/fstefaniak/projects/zuza/docking/adenine/1Y26

>  <Rbt.Executable>
rbdock ($Id: //depot/dev/client3/rdock/2013.1/src/exe/rbdock.cxx#4 $)

>  <Rbt.Library>
libRbt.so (2013.1, Build901 2013/11/27)

>  <Rbt.Parameter_File>
/home/fstefaniak/progs/rDock//data/scripts/dock_solv.prm

>  <Rbt.Receptor>
1y26.prm

>  <SCORE>
-52.2759

>  <SCORE.INTER>
-31.8674

>  <SCORE.INTER.CONST>
1

>  <SCORE.INTER.POLAR>
-3.43896

>  <SCORE.INTER.ROT>
1

>  <SCORE.INTER.SOLV>
12.049

>  <SCORE.INTER.VDW>
-18.0647

>  <SCORE.INTER.norm>
-3.18674

>  <SCORE.INTRA>
1.77385

>  <SCORE.INTRA.DIHEDRAL>
2.88111

>  <SCORE.INTRA.DIHEDRAL.0>
3.34733e-06

>  <SCORE.INTRA.POLAR>
0.390106

>  <SCORE.INTRA.POLAR.0>
-0.916372

>  <SCORE.INTRA.REPUL>
0

>  <SCORE.INTRA.REPUL.0>
0

>  <SCORE.INTRA.SOLV>
-0.318867

>  <SCORE.INTRA.SOLV.lig_0>
-15.2423

>  <SCORE.INTRA.VDW>
-0.833632

>  <SCORE.INTRA.VDW.0>
0.939686

>  <SCORE.INTRA.norm>
0.177385

>  <SCORE.RESTR>
0

>  <SCORE.RESTR.CAVITY>
0

>  <SCORE.RESTR.norm>
0

>  <SCORE.SYSTEM>
-22.1823

>  <SCORE.SYSTEM.CONST>
0

>  <SCORE.SYSTEM.DIHEDRAL>
6.02087

>  <SCORE.SYSTEM.POLAR>
-3.50121

>  <SCORE.SYSTEM.SOLV>
0.504284

>  <SCORE.SYSTEM.VDW>
-5.29255

>  <SCORE.SYSTEM.norm>
-2.21823

>  <SCORE.heavy>
10

>  <SCORE.norm>
-5.22759

$$$$
P151024354
 OpenBabel12072022103D
libRbt.so/2013.1/901 2013/11/27
 14 15  0  0  0  0  0  0  0  0999 V2000
   20.9949  -16.8025    4.7304 C   0  0  0  0  0  0  0  0  0  0  0  0
   21.0268  -16.8888    3.3281 C   0  0  0  0  0  0  0  0  0  0  0  0
   20.2347  -17.8295    2.6227 C   0  0  0  0  0  0  0  0  0  0  0  0
   19.3585  -18.7465    3.2644 C   0  0  0  0  0  0  0  0  0  0  0  0
   19.3715  -18.6117    4.6510 C   0  0  0  0  0  0  0  0  0  0  0  0
   20.1399  -17.6972    5.3595 C   0  0  0  0  0  0  0  0  0  0  0  0
   19.8406  -17.9134    6.6977 N   0  3  0  0  0  0  0  0  0  0  0  0
   20.2428  -17.3997    7.4706 H   0  0  0  0  0  0  0  0  0  0  0  0
   18.9421  -18.9009    6.8131 C   0  0  0  0  0  0  0  0  0  0  0  0
   18.6597  -19.3201    5.5953 N   0  0  0  0  0  0  0  0  0  0  0  0
   18.0330  -20.0456    5.2520 H   0  0  0  0  0  0  0  0  0  0  0  0
   18.5819  -19.6479    2.8132 O   0  5  0  0  0  0  0  0  0  0  0  0
   20.3147  -17.8597    1.2515 O   0  0  0  0  0  0  0  0  0  0  0  0
   20.2108  -18.7647    0.9323 H   0  0  0  0  0  0  0  0  0  0  0  0
  1  2  2  0  0  0  0
  1  6  1  0  0  0  0
  2  3  1  0  0  0  0
  3  4  2  0  0  0  0
  3 13  1  0  0  0  0
  4  5  1  0  0  0  0
  4 12  1  0  0  0  0
  5  6  2  0  0  0  0
  5 10  1  0  0  0  0
  6  7  1  0  0  0  0
  7  8  1  0  0  0  0
  7  9  2  0  0  0  0
  9 10  1  0  0  0  0
 10 11  1  0  0  0  0
 13 14  1  0  0  0  0
M  CHG  2   7   1  12  -1
M  END
>  <CHROM.0>
-51.04693899,47.56674542,-55.35590392,-55.12591076,-176.23674519,-64.50409107
-63.83720383,-50.89165744,-166.41601789,160.45264200

>  <CHROM.1>
145.81954734,19.74427173,-18.23928584,4.23306069,-1.83592565,-0.83648633
-1.66304688

>  <Name>
P151024354

>  <RI>
0

>  <Rbt.Current_Directory>
/home/fstefaniak/projects/zuza/docking/adenine/1Y26

>  <Rbt.Executable>
rbdock ($Id: //depot/dev/client3/rdock/2013.1/src/exe/rbdock.cxx#4 $)

>  <Rbt.Library>
libRbt.so (2013.1, Build901 2013/11/27)

>  <Rbt.Parameter_File>
/home/fstefaniak/progs/rDock//data/scripts/dock_solv.prm

>  <Rbt.Receptor>
1y26.prm

>  <SCORE>
-52.8637

>  <SCORE.INTER>
-32.0399

>  <SCORE.INTER.CONST>
1

>  <SCORE.INTER.POLAR>
-5.00663

>  <SCORE.INTER.ROT>
0

>  <SCORE.INTER.SOLV>
29.682

>  <SCORE.INTER.VDW>
-18.1652

>  <SCORE.INTER.norm>
-2.91272

>  <SCORE.INTRA>
0.705274

>  <SCORE.INTRA.DIHEDRAL>
1.51513

>  <SCORE.INTRA.DIHEDRAL.0>
7.02657e-07

>  <SCORE.INTRA.POLAR>
0

>  <SCORE.INTRA.POLAR.0>
0

>  <SCORE.INTRA.REPUL>
0

>  <SCORE.INTRA.REPUL.0>
0

>  <SCORE.INTRA.SOLV>
0.591316

>  <SCORE.INTRA.SOLV.lig_0>
-48.4593

>  <SCORE.INTRA.VDW>
-0.347948

>  <SCORE.INTRA.VDW.0>
0.339633

>  <SCORE.INTRA.norm>
0.0641158

>  <SCORE.RESTR>
0

>  <SCORE.RESTR.CAVITY>
0

>  <SCORE.RESTR.norm>
0

>  <SCORE.SYSTEM>
-21.5291

>  <SCORE.SYSTEM.CONST>
0

>  <SCORE.SYSTEM.DIHEDRAL>
6.40322

>  <SCORE.SYSTEM.POLAR>
-3.50168

>  <SCORE.SYSTEM.SOLV>
0.555394

>  <SCORE.SYSTEM.VDW>
-4.99996

>  <SCORE.SYSTEM.norm>
-1.95719

>  <SCORE.heavy>
11

>  <SCORE.norm>
-4.80579

$$$$
P151024354
 OpenBabel12072022103D
libRbt.so/2013.1/901 2013/11/27
 14 15  0  0  0  0  0  0  0  0999 V2000
   20.9610  -16.7782    4.7572 C   0  0  0  0  0  0  0  0  0  0  0  0
   21.0049  -16.8662    3.3553 C   0  0  0  0  0  0  0  0  0  0  0  0
   20.2271  -17.8150    2.6450 C   0  0  0  0  0  0  0  0  0  0  0  0
   19.3541  -18.7391    3.2810 C   0  0  0  0  0  0  0  0  0  0  0  0
   19.3548  -18.6022    4.6674 C   0  0  0  0  0  0  0  0  0  0  0  0
   20.1092  -17.6797    5.3808 C   0  0  0  0  0  0  0  0  0  0  0  0
   19.8011  -17.8968    6.7168 N   0  3  0  0  0  0  0  0  0  0  0  0
   20.1924  -17.3784    7.4922 H   0  0  0  0  0  0  0  0  0  0  0  0
   18.9107  -18.8923    6.8264 C   0  0  0  0  0  0  0  0  0  0  0  0
   18.6419  -19.3158    5.6070 N   0  0  0  0  0  0  0  0  0  0  0  0
   18.0247  -20.0474    5.2598 H   0  0  0  0  0  0  0  0  0  0  0  0
   18.5894  -19.6481    2.8249 O   0  5  0  0  0  0  0  0  0  0  0  0
   20.3183  -17.8464    1.2745 O   0  0  0  0  0  0  0  0  0  0  0  0
   20.2612  -18.7566    0.9583 H   0  0  0  0  0  0  0  0  0  0  0  0
  1  2  2  0  0  0  0
  1  6  1  0  0  0  0
  2  3  1  0  0  0  0
  3  4  2  0  0  0  0
  3 13  1  0  0  0  0
  4  5  1  0  0  0  0
  4 12  1  0  0  0  0
  5  6  2  0  0  0  0
  5 10  1  0  0  0  0
  6  7  1  0  0  0  0
  7  8  1  0  0  0  0
  7  9  2  0  0  0  0
  9 10  1  0  0  0  0
 10 11  1  0  0  0  0
 13 14  1  0  0  0  0
M  CHG  2   7   1  12  -1
M  END
>  <CHROM.0>
-47.62047107,-51.76182203,-53.52062475,-50.99197810,-55.74783667,-58.18152423
-57.87464381,-176.30631220,-167.55752846,161.03103625

>  <CHROM.1>
143.52737213,19.72774422,-18.22703947,4.25197734,-1.84969874,-0.84474856
-1.67470414

>  <Name>
P151024354

>  <RI>
0

>  <Rbt.Current_Directory>
/home/fstefaniak/projects/zuza/docking/adenine/1Y26

>  <Rbt.Executable>
rbdock ($Id: //depot/dev/client3/rdock/2013.1/src/exe/rbdock.cxx#4 $)

>  <Rbt.Library>
libRbt.so (2013.1, Build901 2013/11/27)

>  <Rbt.Parameter_File>
/home/fstefaniak/progs/rDock//data/scripts/dock_solv.prm

>  <Rbt.Receptor>
1y26.prm

>  <SCORE>
-52.7837

>  <SCORE.INTER>
-31.2402

>  <SCORE.INTER.CONST>
1

>  <SCORE.INTER.POLAR>
-4.79384

>  <SCORE.INTER.ROT>
0

>  <SCORE.INTER.SOLV>
29.7973

>  <SCORE.INTER.VDW>
-18.3797

>  <SCORE.INTER.norm>
-2.84001

>  <SCORE.INTRA>
0.779091

>  <SCORE.INTRA.DIHEDRAL>
1.69627

>  <SCORE.INTRA.DIHEDRAL.0>
7.02657e-07

>  <SCORE.INTRA.POLAR>
0

>  <SCORE.INTRA.POLAR.0>
0

>  <SCORE.INTRA.REPUL>
0

>  <SCORE.INTRA.REPUL.0>
0

>  <SCORE.INTRA.SOLV>
0.584181

>  <SCORE.INTRA.SOLV.lig_0>
-48.4593

>  <SCORE.INTRA.VDW>
-0.361134

>  <SCORE.INTRA.VDW.0>
0.339633

>  <SCORE.INTRA.norm>
0.0708264

>  <SCORE.RESTR>
0

>  <SCORE.RESTR.CAVITY>
0

>  <SCORE.RESTR.norm>
0

>  <SCORE.SYSTEM>
-22.3226

>  <SCORE.SYSTEM.CONST>
0

>  <SCORE.SYSTEM.DIHEDRAL>
6.06603

>  <SCORE.SYSTEM.POLAR>
-3.51054

>  <SCORE.SYSTEM.SOLV>
0.475991

>  <SCORE.SYSTEM.VDW>
-5.36062

>  <SCORE.SYSTEM.norm>
-2.02933

>  <SCORE.heavy>
11

>  <SCORE.norm>
-4.79852

$$$$
P151024354
 OpenBabel12072022103D
libRbt.so/2013.1/901 2013/11/27
 14 15  0  0  0  0  0  0  0  0999 V2000
   20.9569  -16.7705    4.6947 C   0  0  0  0  0  0  0  0  0  0  0  0
   20.9836  -16.8623    3.2926 C   0  0  0  0  0  0  0  0  0  0  0  0
   20.1998  -17.8154    2.5947 C   0  0  0  0  0  0  0  0  0  0  0  0
   19.3377  -18.7404    3.2442 C   0  0  0  0  0  0  0  0  0  0  0  0
   19.3553  -18.5996    4.6301 C   0  0  0  0  0  0  0  0  0  0  0  0
   20.1157  -17.6729    5.3313 C   0  0  0  0  0  0  0  0  0  0  0  0
   19.8250  -17.8871    6.6717 N   0  3  0  0  0  0  0  0  0  0  0  0
   20.2245  -17.3654    7.4407 H   0  0  0  0  0  0  0  0  0  0  0  0
   18.9391  -18.8850    6.7952 C   0  0  0  0  0  0  0  0  0  0  0  0
   18.6564  -19.3127    5.5805 N   0  0  0  0  0  0  0  0  0  0  0  0
   18.0371  -20.0471    5.2430 H   0  0  0  0  0  0  0  0  0  0  0  0
   18.5701  -19.6529    2.8002 O   0  5  0  0  0  0  0  0  0  0  0  0
   20.2740  -17.8504    1.2232 O   0  0  0  0  0  0  0  0  0  0  0  0
   20.2378  -18.7633    0.9115 H   0  0  0  0  0  0  0  0  0  0  0  0
  1  2  2  0  0  0  0
  1  6  1  0  0  0  0
  2  3  1  0  0  0  0
  3  4  2  0  0  0  0
  3 13  1  0  0  0  0
  4  5  1  0  0  0  0
  4 12  1  0  0  0  0
  5  6  2  0  0  0  0
  5 10  1  0  0  0  0
  6  7  1  0  0  0  0
  7  8  1  0  0  0  0
  7  9  2  0  0  0  0
  9 10  1  0  0  0  0
 10 11  1  0  0  0  0
 13 14  1  0  0  0  0
M  CHG  2   7   1  12  -1
M  END
>  <CHROM.0>
-50.53875916,50.53193599,-56.06652585,-53.60710134,-56.22488759,-175.97197102
-60.87558287,-52.46078021,-168.43840668,161.58194702

>  <CHROM.1>
142.12379426,19.72202560,-18.22448554,4.20893585,-1.83164918,-0.84897867
-1.66392973

>  <Name>
P151024354

>  <RI>
0

>  <Rbt.Current_Directory>
/home/fstefaniak/projects/zuza/docking/adenine/1Y26

>  <Rbt.Executable>
rbdock ($Id: //depot/dev/client3/rdock/2013.1/src/exe/rbdock.cxx#4 $)

>  <Rbt.Library>
libRbt.so (2013.1, Build901 2013/11/27)

>  <Rbt.Parameter_File>
/home/fstefaniak/progs/rDock//data/scripts/dock_solv.prm

>  <Rbt.Receptor>
1y26.prm

>  <SCORE>
-52.7007

>  <SCORE.INTER>
-32.1574

>  <SCORE.INTER.CONST>
1

>  <SCORE.INTER.POLAR>
-4.96333

>  <SCORE.INTER.ROT>
0

>  <SCORE.INTER.SOLV>
29.7312

>  <SCORE.INTER.VDW>
-18.4042

>  <SCORE.INTER.norm>
-2.9234

>  <SCORE.INTRA>
0.825477

>  <SCORE.INTRA.DIHEDRAL>
1.80948

>  <SCORE.INTRA.DIHEDRAL.0>
7.02657e-07

>  <SCORE.INTRA.POLAR>
0

>  <SCORE.INTRA.POLAR.0>
0

>  <SCORE.INTRA.REPUL>
0

>  <SCORE.INTRA.REPUL.0>
0

>  <SCORE.INTRA.SOLV>
0.579602

>  <SCORE.INTRA.SOLV.lig_0>
-48.4593

>  <SCORE.INTRA.VDW>
-0.369066

>  <SCORE.INTRA.VDW.0>
0.339633

>  <SCORE.INTRA.norm>
0.0750434

>  <SCORE.RESTR>
0

>  <SCORE.RESTR.CAVITY>
0

>  <SCORE.RESTR.norm>
0

>  <SCORE.SYSTEM>
-21.3688

>  <SCORE.SYSTEM.CONST>
0

>  <SCORE.SYSTEM.DIHEDRAL>
5.62137

>  <SCORE.SYSTEM.POLAR>
-3.43891

>  <SCORE.SYSTEM.SOLV>
0.591202

>  <SCORE.SYSTEM.VDW>
-4.85368

>  <SCORE.SYSTEM.norm>
-1.94261

>  <SCORE.heavy>
11

>  <SCORE.norm>
-4.79097

$$$$
P151025485
 OpenBabel12072022103D
libRbt.so/2013.1/901 2013/11/27
 16 16  0  0  0  0  0  0  0  0999 V2000
   21.6786  -14.0250    3.8685 C   0  0  0  0  0  0  0  0  0  0  0  0
   21.1298  -15.4325    4.1093 C   0  0  1  0  0  0  0  0  0  0  0  0
   22.1814  -16.4986    3.8141 C   0  0  0  0  0  0  0  0  0  0  0  0
   23.4462  -16.2803    4.6480 C   0  0  2  0  0  0  0  0  0  0  0  0
   23.9943  -14.8486    4.5093 C   0  0  2  0  0  0  0  0  0  0  0  0
   22.9266  -13.7577    4.7193 C   0  0  2  0  0  0  0  0  0  0  0  0
   22.5119  -13.6700    6.1528 N   0  3  0  0  0  0  0  0  0  0  0  0
   23.3589  -13.7063    6.7576 H   0  0  0  0  0  0  0  0  0  0  0  0
   21.9739  -12.8253    6.3777 H   0  0  0  0  0  0  0  0  0  0  0  0
   21.9469  -14.4854    6.4210 H   0  0  0  0  0  0  0  0  0  0  0  0
   24.5370  -14.6912    3.1932 O   0  0  0  0  0  0  0  0  0  0  0  0
   24.4712  -17.1744    4.2148 O   0  0  0  0  0  0  0  0  0  0  0  0
   20.7658  -15.5177    5.4972 O   0  0  0  0  0  0  0  0  0  0  0  0
   25.3931  -15.1746    3.1999 H   0  0  0  0  0  0  0  0  0  0  0  0
   24.1687  -18.0917    4.3561 H   0  0  0  0  0  0  0  0  0  0  0  0
   20.4261  -16.4303    5.6314 H   0  0  0  0  0  0  0  0  0  0  0  0
  1  2  1  0  0  0  0
  1  6  1  0  0  0  0
  2  3  1  0  0  0  0
  2 13  1  1  0  0  0
  3  4  1  0  0  0  0
  4 12  1  6  0  0  0
  4  5  1  0  0  0  0
  5 11  1  6  0  0  0
  5  6  1  0  0  0  0
  6  7  1  1  0  0  0
  7  8  1  0  0  0  0
  7  9  1  0  0  0  0
  7 10  1  0  0  0  0
 11 14  1  0  0  0  0
 12 15  1  0  0  0  0
 13 16  1  0  0  0  0
M  CHG  1   7   1
M  END
>  <CHROM.0>
-51.29295161,-76.53288826,-50.82473793,-49.36421012,-56.05920858,-172.01913272
-52.08489182,-49.08320758,-166.20207221,160.66771499

>  <CHROM.1>
-179.39429318,-61.84209995,-75.12562755,167.24533196,22.78569158,-15.21406114
4.50513780,-2.58180958,-0.29572590,-2.90740971

>  <Name>
P151025485

>  <RI>
0

>  <Rbt.Current_Directory>
/home/fstefaniak/projects/zuza/docking/adenine/1Y26

>  <Rbt.Executable>
rbdock ($Id: //depot/dev/client3/rdock/2013.1/src/exe/rbdock.cxx#4 $)

>  <Rbt.Library>
libRbt.so (2013.1, Build901 2013/11/27)

>  <Rbt.Parameter_File>
/home/fstefaniak/progs/rDock//data/scripts/dock_solv.prm

>  <Rbt.Receptor>
1y26.prm

>  <SCORE>
-47.7477

>  <SCORE.INTER>
-26.1999

>  <SCORE.INTER.CONST>
1

>  <SCORE.INTER.POLAR>
-4.75804

>  <SCORE.INTER.ROT>
0

>  <SCORE.INTER.SOLV>
18.0786

>  <SCORE.INTER.VDW>
-11.2327

>  <SCORE.INTER.norm>
-2.61999

>  <SCORE.INTRA>
-0.219839

>  <SCORE.INTRA.DIHEDRAL>
-2.49995

>  <SCORE.INTRA.DIHEDRAL.0>
3.92792

>  <SCORE.INTRA.POLAR>
0.395158

>  <SCORE.INTRA.POLAR.0>
-1.15089

>  <SCORE.INTRA.REPUL>
0

>  <SCORE.INTRA.REPUL.0>
0

>  <SCORE.INTRA.SOLV>
-0.030221

>  <SCORE.INTRA.SOLV.lig_0>
-33.1626

>  <SCORE.INTRA.VDW>
-0.298289

>  <SCORE.INTRA.VDW.0>
0.0824476

>  <SCORE.INTRA.norm>
-0.0219839

>  <SCORE.RESTR>
0

>  <SCORE.RESTR.CAVITY>
0

>  <SCORE.RESTR.norm>
0

>  <SCORE.SYSTEM>
-21.328

>  <SCORE.SYSTEM.CONST>
0

>  <SCORE.SYSTEM.DIHEDRAL>
8.15627

>  <SCORE.SYSTEM.POLAR>
-3.60573

>  <SCORE.SYSTEM.SOLV>
0.536648

>  <SCORE.SYSTEM.VDW>
-5.0972

>  <SCORE.SYSTEM.norm>
-2.1328

>  <SCORE.heavy>
10

>  <SCORE.norm>
-4.77477

$$$$
P151025485
 OpenBabel12072022103D
libRbt.so/2013.1/901 2013/11/27
 16 16  0  0  0  0  0  0  0  0999 V2000
   19.3217  -16.5187    3.6945 C   0  0  0  0  0  0  0  0  0  0  0  0
   20.2414  -16.6678    4.9078 C   0  0  1  0  0  0  0  0  0  0  0  0
   19.7987  -17.8212    5.8041 C   0  0  0  0  0  0  0  0  0  0  0  0
   19.7384  -19.1391    5.0279 C   0  0  2  0  0  0  0  0  0  0  0  0
   18.8926  -19.0215    3.7473 C   0  0  2  0  0  0  0  0  0  0  0  0
   19.2680  -17.8114    2.8706 C   0  0  2  0  0  0  0  0  0  0  0  0
   20.5950  -18.0073    2.2110 N   0  3  0  0  0  0  0  0  0  0  0  0
   21.3282  -18.1191    2.9421 H   0  0  0  0  0  0  0  0  0  0  0  0
   20.6274  -18.8132    1.5761 H   0  0  0  0  0  0  0  0  0  0  0  0
   20.8648  -17.1724    1.6759 H   0  0  0  0  0  0  0  0  0  0  0  0
   17.5153  -18.8910    4.1181 O   0  0  0  0  0  0  0  0  0  0  0  0
   19.1455  -20.1519    5.8406 O   0  0  0  0  0  0  0  0  0  0  0  0
   21.5605  -16.9510    4.4120 O   0  0  0  0  0  0  0  0  0  0  0  0
   17.3582  -17.9257    4.2193 H   0  0  0  0  0  0  0  0  0  0  0  0
   18.8058  -20.8608    5.2619 H   0  0  0  0  0  0  0  0  0  0  0  0
   22.1428  -16.9925    5.2030 H   0  0  0  0  0  0  0  0  0  0  0  0
  1  2  1  0  0  0  0
  1  6  1  0  0  0  0
  2  3  1  0  0  0  0
  2 13  1  6  0  0  0
  3  4  1  0  0  0  0
  4 12  1  1  0  0  0
  4  5  1  0  0  0  0
  5 11  1  1  0  0  0
  5  6  1  0  0  0  0
  6  7  1  1  0  0  0
  7  8  1  0  0  0  0
  7  9  1  0  0  0  0
  7 10  1  0  0  0  0
 11 14  1  0  0  0  0
 12 15  1  0  0  0  0
 13 16  1  0  0  0  0
M  CHG  1   7   1
M  END
>  <CHROM.0>
-43.29535857,-56.12416474,-47.58849466,-51.24211012,-168.60651744,-49.43471998
-47.96174131,-171.60556466,-165.71969977,161.52819046

>  <CHROM.1>
176.89684217,158.81330088,89.42972741,62.36901767,19.62521576,-18.12786064
4.25612457,0.70468736,-0.72186036,-1.19740505

>  <Name>
P151025485

>  <RI>
0

>  <Rbt.Current_Directory>
/home/fstefaniak/projects/zuza/docking/adenine/1Y26

>  <Rbt.Executable>
rbdock ($Id: //depot/dev/client3/rdock/2013.1/src/exe/rbdock.cxx#4 $)

>  <Rbt.Library>
libRbt.so (2013.1, Build901 2013/11/27)

>  <Rbt.Parameter_File>
/home/fstefaniak/progs/rDock//data/scripts/dock_solv.prm

>  <Rbt.Receptor>
1y26.prm

>  <SCORE>
-43.5069

>  <SCORE.INTER>
-25.7219

>  <SCORE.INTER.CONST>
1

>  <SCORE.INTER.POLAR>
-4.06011

>  <SCORE.INTER.ROT>
0

>  <SCORE.INTER.SOLV>
20.1625

>  <SCORE.INTER.VDW>
-13.9351

>  <SCORE.INTER.norm>
-2.57219

>  <SCORE.INTRA>
3.88865

>  <SCORE.INTRA.DIHEDRAL>
1.68855

>  <SCORE.INTRA.DIHEDRAL.0>
3.92792

>  <SCORE.INTRA.POLAR>
0.580523

>  <SCORE.INTRA.POLAR.0>
-1.15089

>  <SCORE.INTRA.REPUL>
0

>  <SCORE.INTRA.REPUL.0>
0

>  <SCORE.INTRA.SOLV>
-0.107654

>  <SCORE.INTRA.SOLV.lig_0>
-33.1626

>  <SCORE.INTRA.VDW>
1.12443

>  <SCORE.INTRA.VDW.0>
0.0824476

>  <SCORE.INTRA.norm>
0.388865

>  <SCORE.RESTR>
0

>  <SCORE.RESTR.CAVITY>
0

>  <SCORE.RESTR.norm>
0

>  <SCORE.SYSTEM>
-21.6736

>  <SCORE.SYSTEM.CONST>
0

>  <SCORE.SYSTEM.DIHEDRAL>
8.87078

>  <SCORE.SYSTEM.POLAR>
-3.71808

>  <SCORE.SYSTEM.SOLV>
0.3466

>  <SCORE.SYSTEM.VDW>
-5.12793

>  <SCORE.SYSTEM.norm>
-2.16736

>  <SCORE.heavy>
10

>  <SCORE.norm>
-4.35069

$$$$
P151025485
 OpenBabel12072022103D
libRbt.so/2013.1/901 2013/11/27
 16 16  0  0  0  0  0  0  0  0999 V2000
   24.6418  -14.3307    3.2950 C   0  0  0  0  0  0  0  0  0  0  0  0
   24.9836  -13.0877    4.1187 C   0  0  1  0  0  0  0  0  0  0  0  0
   23.7405  -12.4984    4.7800 C   0  0  0  0  0  0  0  0  0  0  0  0
   23.0344  -13.5321    5.6607 C   0  0  2  0  0  0  0  0  0  0  0  0
   22.7426  -14.8397    4.9028 C   0  0  2  0  0  0  0  0  0  0  0  0
   23.9664  -15.4050    4.1567 C   0  0  2  0  0  0  0  0  0  0  0  0
   24.9797  -15.9532    5.1092 N   0  3  0  0  0  0  0  0  0  0  0  0
   25.9141  -15.9599    4.6494 H   0  0  0  0  0  0  0  0  0  0  0  0
   25.0429  -15.4331    5.9919 H   0  0  0  0  0  0  0  0  0  0  0  0
   24.7768  -16.9351    5.3347 H   0  0  0  0  0  0  0  0  0  0  0  0
   21.7115  -14.5910    3.9402 O   0  0  0  0  0  0  0  0  0  0  0  0
   21.7841  -13.0104    6.1106 O   0  0  0  0  0  0  0  0  0  0  0  0
   25.9017  -13.4954    5.1466 O   0  0  0  0  0  0  0  0  0  0  0  0
   20.9179  -14.3363    4.4616 H   0  0  0  0  0  0  0  0  0  0  0  0
   21.4144  -13.6147    6.7820 H   0  0  0  0  0  0  0  0  0  0  0  0
   26.6418  -13.9471    4.6835 H   0  0  0  0  0  0  0  0  0  0  0  0
  1  2  1  0  0  0  0
  1  6  1  0  0  0  0
  2  3  1  0  0  0  0
  2 13  1  1  0  0  0
  3  4  1  0  0  0  0
  4 12  1  6  0  0  0
  4  5  1  0  0  0  0
  5 11  1  6  0  0  0
  5  6  1  0  0  0  0
  6  7  1  1  0  0  0
  7  8  1  0  0  0  0
  7  9  1  0  0  0  0
  7 10  1  0  0  0  0
 11 14  1  0  0  0  0
 12 15  1  0  0  0  0
 13 16  1  0  0  0  0
M  CHG  1   7   1
M  END
>  <CHROM.0>
-46.12655291,-62.02770694,-62.37143248,-53.18590748,-54.70834687,-57.21764237
-168.02654503,-50.45670463,-167.21140987,160.46256063

>  <CHROM.1>
53.94125604,-170.92544536,-62.97766120,-33.98144244,23.74075131,-14.09457452
4.76035890,0.26973557,-0.13068229,-2.80644010

>  <Name>
P151025485

>  <RI>
0

>  <Rbt.Current_Directory>
/home/fstefaniak/projects/zuza/docking/adenine/1Y26

>  <Rbt.Executable>
rbdock ($Id: //depot/dev/client3/rdock/2013.1/src/exe/rbdock.cxx#4 $)

>  <Rbt.Library>
libRbt.so (2013.1, Build901 2013/11/27)

>  <Rbt.Parameter_File>
/home/fstefaniak/progs/rDock//data/scripts/dock_solv.prm

>  <Rbt.Receptor>
1y26.prm

>  <SCORE>
-43.4415

>  <SCORE.INTER>
-25.9919

>  <SCORE.INTER.CONST>
1

>  <SCORE.INTER.POLAR>
-4.64296

>  <SCORE.INTER.ROT>
0

>  <SCORE.INTER.SOLV>
18.9288

>  <SCORE.INTER.VDW>
-11.761

>  <SCORE.INTER.norm>
-2.59919

>  <SCORE.INTRA>
3.17539

>  <SCORE.INTRA.DIHEDRAL>
-1.62134

>  <SCORE.INTRA.DIHEDRAL.0>
3.92792

>  <SCORE.INTRA.POLAR>
1.14741

>  <SCORE.INTRA.POLAR.0>
-1.15089

>  <SCORE.INTRA.REPUL>
0

>  <SCORE.INTRA.REPUL.0>
0

>  <SCORE.INTRA.SOLV>
0.218873

>  <SCORE.INTRA.SOLV.lig_0>
-33.1626

>  <SCORE.INTRA.VDW>
-0.0245714

>  <SCORE.INTRA.VDW.0>
0.0824476

>  <SCORE.INTRA.norm>
0.317539

>  <SCORE.RESTR>
0.630626

>  <SCORE.RESTR.CAVITY>
0.630626

>  <SCORE.RESTR.norm>
0.0630626

>  <SCORE.SYSTEM>
-21.2556

>  <SCORE.SYSTEM.CONST>
0

>  <SCORE.SYSTEM.DIHEDRAL>
6.8008

>  <SCORE.SYSTEM.POLAR>
-3.51088

>  <SCORE.SYSTEM.SOLV>
0.615903

>  <SCORE.SYSTEM.VDW>
-4.93973

>  <SCORE.SYSTEM.norm>
-2.12556

>  <SCORE.heavy>
10

>  <SCORE.norm>
-4.34415

$$$$
P151028160
 OpenBabel12072022103D
libRbt.so/2013.1/901 2013/11/27
 13 13  0  0  0  0  0  0  0  0999 V2000
   18.0558  -18.4116    1.7727 H   0  0  0  0  0  0  0  0  0  0  0  0
   17.9338  -18.6243    2.7664 N   0  0  0  0  0  0  0  0  0  0  0  0
   18.9349  -18.2141    3.4609 C   0  0  0  0  0  0  0  0  0  0  0  0
   20.1385  -17.5149    2.9238 C   0  0  0  0  0  0  0  0  0  0  0  0
   20.9194  -17.2953    4.1791 C   0  0  0  0  0  0  0  0  0  0  0  0
   20.3527  -17.7524    5.2528 N   0  0  0  0  0  0  0  0  0  0  0  0
   19.1323  -18.3185    4.8456 N   0  0  0  0  0  0  0  0  0  0  0  0
   18.2832  -18.8973    5.8020 C   0  0  0  0  0  0  0  0  0  0  0  0
   17.2211  -19.4763    5.6058 O   0  0  0  0  0  0  0  0  0  0  0  0
   18.7543  -18.7717    7.0856 N   0  0  0  0  0  0  0  0  0  0  0  0
   22.2377  -16.6026    4.1685 C   0  0  0  0  0  0  0  0  0  0  0  0
   18.4624  -17.9438    7.5876 H   0  0  0  0  0  0  0  0  0  0  0  0
   19.6435  -19.2019    7.2898 H   0  0  0  0  0  0  0  0  0  0  0  0
  1  2  1  0  0  0  0
  2  3  2  0  0  0  0
  3  4  1  0  0  0  0
  3  7  1  0  0  0  0
  4  5  1  0  0  0  0
  5  6  2  0  0  0  0
  5 11  1  0  0  0  0
  6  7  1  0  0  0  0
  7  8  1  0  0  0  0
  8  9  2  0  0  0  0
  8 10  1  0  0  0  0
 10 12  1  0  0  0  0
 10 13  1  0  0  0  0
M  END
>  <CHROM.0>
-170.05530445,178.19343983,-52.90722293,-54.01223510,-54.61938929,-61.18889533
-55.32027362,-176.32348657,-166.28370956,-61.98528065

>  <CHROM.1>
90.20341343,19.36696525,-18.16274428,4.64553500,0.52655672,-0.47800146,-1.43443038

>  <Name>
P151028160

>  <RI>
0

>  <Rbt.Current_Directory>
/home/fstefaniak/projects/zuza/docking/adenine/1Y26

>  <Rbt.Executable>
rbdock ($Id: //depot/dev/client3/rdock/2013.1/src/exe/rbdock.cxx#4 $)

>  <Rbt.Library>
libRbt.so (2013.1, Build901 2013/11/27)

>  <Rbt.Parameter_File>
/home/fstefaniak/progs/rDock//data/scripts/dock_solv.prm

>  <Rbt.Receptor>
1y26.prm

>  <SCORE>
-52.5933

>  <SCORE.INTER>
-34.286

>  <SCORE.INTER.CONST>
1

>  <SCORE.INTER.POLAR>
-4.45689

>  <SCORE.INTER.ROT>
1

>  <SCORE.INTER.SOLV>
11.9624

>  <SCORE.INTER.VDW>
-16.2552

>  <SCORE.INTER.norm>
-3.4286

>  <SCORE.INTRA>
0.305674

>  <SCORE.INTRA.DIHEDRAL>
0.000594695

>  <SCORE.INTRA.DIHEDRAL.0>
0.478022

>  <SCORE.INTRA.POLAR>
0.116207

>  <SCORE.INTRA.POLAR.0>
-0.116207

>  <SCORE.INTRA.REPUL>
0

>  <SCORE.INTRA.REPUL.0>
0

>  <SCORE.INTRA.SOLV>
-0.0379619

>  <SCORE.INTRA.SOLV.lig_0>
-14.5875

>  <SCORE.INTRA.VDW>
-0.0707457

>  <SCORE.INTRA.VDW.0>
-0.11601

>  <SCORE.INTRA.norm>
0.0305674

>  <SCORE.RESTR>
0

>  <SCORE.RESTR.CAVITY>
0

>  <SCORE.RESTR.norm>
0

>  <SCORE.SYSTEM>
-18.613

>  <SCORE.SYSTEM.CONST>
0

>  <SCORE.SYSTEM.DIHEDRAL>
4.15109

>  <SCORE.SYSTEM.POLAR>
-2.37431

>  <SCORE.SYSTEM.SOLV>
0.425498

>  <SCORE.SYSTEM.VDW>
-6.01985

>  <SCORE.SYSTEM.norm>
-1.8613

>  <SCORE.heavy>
10

>  <SCORE.norm>
-5.25933

$$$$
P151028160
 OpenBabel12072022103D
libRbt.so/2013.1/901 2013/11/27
 13 13  0  0  0  0  0  0  0  0999 V2000
   20.4620  -15.3886    4.8809 H   0  0  0  0  0  0  0  0  0  0  0  0
   20.3243  -16.2900    5.3460 N   0  0  0  0  0  0  0  0  0  0  0  0
   19.7011  -17.1197    4.5871 C   0  0  0  0  0  0  0  0  0  0  0  0
   19.2231  -16.8416    3.2014 C   0  0  0  0  0  0  0  0  0  0  0  0
   18.6000  -18.1540    2.8504 C   0  0  0  0  0  0  0  0  0  0  0  0
   18.6601  -19.0470    3.7896 N   0  0  0  0  0  0  0  0  0  0  0  0
   19.3329  -18.4440    4.8663 N   0  0  0  0  0  0  0  0  0  0  0  0
   19.5568  -19.1774    6.0422 C   0  0  0  0  0  0  0  0  0  0  0  0
   20.0736  -18.7842    7.0814 O   0  0  0  0  0  0  0  0  0  0  0  0
   19.1201  -20.4764    5.9571 N   0  0  0  0  0  0  0  0  0  0  0  0
   17.9703  -18.3899    1.5217 C   0  0  0  0  0  0  0  0  0  0  0  0
   19.6150  -21.0704    5.3053 H   0  0  0  0  0  0  0  0  0  0  0  0
   18.1461  -20.6448    6.1584 H   0  0  0  0  0  0  0  0  0  0  0  0
  1  2  1  0  0  0  0
  2  3  2  0  0  0  0
  3  4  1  0  0  0  0
  3  7  1  0  0  0  0
  4  5  1  0  0  0  0
  5  6  2  0  0  0  0
  5 11  1  0  0  0  0
  6  7  1  0  0  0  0
  7  8  1  0  0  0  0
  8  9  2  0  0  0  0
  8 10  1  0  0  0  0
 10 12  1  0  0  0  0
 10 13  1  0  0  0  0
M  END
>  <CHROM.0>
-48.67786381,-169.58832315,-58.93173337,-52.94937683,-174.54189730,-175.19482257
-61.25118135,-50.96937023,-168.00502948,160.22661764

>  <CHROM.1>
66.65839036,19.26042256,-18.30202048,4.55973407,-2.20444568,1.07373368,2.43023238

>  <Name>
P151028160

>  <RI>
0

>  <Rbt.Current_Directory>
/home/fstefaniak/projects/zuza/docking/adenine/1Y26

>  <Rbt.Executable>
rbdock ($Id: //depot/dev/client3/rdock/2013.1/src/exe/rbdock.cxx#4 $)

>  <Rbt.Library>
libRbt.so (2013.1, Build901 2013/11/27)

>  <Rbt.Parameter_File>
/home/fstefaniak/progs/rDock//data/scripts/dock_solv.prm

>  <Rbt.Receptor>
1y26.prm

>  <SCORE>
-51.3256

>  <SCORE.INTER>
-29.5773

>  <SCORE.INTER.CONST>
1

>  <SCORE.INTER.POLAR>
-3.89135

>  <SCORE.INTER.ROT>
1

>  <SCORE.INTER.SOLV>
14.8246

>  <SCORE.INTER.VDW>
-15.9552

>  <SCORE.INTER.norm>
-2.95773

>  <SCORE.INTRA>
0.301642

>  <SCORE.INTRA.DIHEDRAL>
0.00290188

>  <SCORE.INTRA.DIHEDRAL.0>
0.478022

>  <SCORE.INTRA.POLAR>
0.116207

>  <SCORE.INTRA.POLAR.0>
-0.116207

>  <SCORE.INTRA.REPUL>
0

>  <SCORE.INTRA.REPUL.0>
0

>  <SCORE.INTRA.SOLV>
-0.0430577

>  <SCORE.INTRA.SOLV.lig_0>
-14.5875

>  <SCORE.INTRA.VDW>
-0.0733832

>  <SCORE.INTRA.VDW.0>
-0.11601

>  <SCORE.INTRA.norm>
0.0301642

>  <SCORE.RESTR>
0

>  <SCORE.RESTR.CAVITY>
0

>  <SCORE.RESTR.norm>
0

>  <SCORE.SYSTEM>
-22.0499

>  <SCORE.SYSTEM.CONST>
0

>  <SCORE.SYSTEM.DIHEDRAL>
6.3121

>  <SCORE.SYSTEM.POLAR>
-3.46912

>  <SCORE.SYSTEM.SOLV>
0.284402

>  <SCORE.SYSTEM.VDW>
-5.33501

>  <SCORE.SYSTEM.norm>
-2.20499

>  <SCORE.heavy>
10

>  <SCORE.norm>
-5.13256

$$$$
P151028160
 OpenBabel12072022103D
libRbt.so/2013.1/901 2013/11/27
 13 13  0  0  0  0  0  0  0  0999 V2000
   17.6665  -18.4641    2.1562 H   0  0  0  0  0  0  0  0  0  0  0  0
   17.6144  -18.6427    3.1627 N   0  0  0  0  0  0  0  0  0  0  0  0
   18.6740  -18.2372    3.7672 C   0  0  0  0  0  0  0  0  0  0  0  0
   19.8501  -17.5864    3.1197 C   0  0  0  0  0  0  0  0  0  0  0  0
   20.7278  -17.3482    4.3057 C   0  0  0  0  0  0  0  0  0  0  0  0
   20.2325  -17.7571    5.4330 N   0  0  0  0  0  0  0  0  0  0  0  0
   18.9721  -18.3037    5.1361 N   0  0  0  0  0  0  0  0  0  0  0  0
   18.1837  -18.8305    6.1713 C   0  0  0  0  0  0  0  0  0  0  0  0
   17.0966  -19.3876    6.0735 O   0  0  0  0  0  0  0  0  0  0  0  0
   18.7524  -18.6774    7.4117 N   0  0  0  0  0  0  0  0  0  0  0  0
   22.0575  -16.6906    4.1747 C   0  0  0  0  0  0  0  0  0  0  0  0
   19.7109  -18.3554    7.4249 H   0  0  0  0  0  0  0  0  0  0  0  0
   18.4068  -19.2727    8.1491 H   0  0  0  0  0  0  0  0  0  0  0  0
  1  2  1  0  0  0  0
  2  3  2  0  0  0  0
  3  4  1  0  0  0  0
  3  7  1  0  0  0  0
  4  5  1  0  0  0  0
  5  6  2  0  0  0  0
  5 11  1  0  0  0  0
  6  7  1  0  0  0  0
  7  8  1  0  0  0  0
  8  9  2  0  0  0  0
  8 10  1  0  0  0  0
 10 12  1  0  0  0  0
 10 13  1  0  0  0  0
M  END
>  <CHROM.0>
-47.95192419,-177.34923398,-55.68672322,-54.32074823,-173.01582039,-57.86067748
-62.58248011,-49.12862243,-166.02042998,161.15755328

>  <CHROM.1>
-9.69501834,19.19439951,-18.16525649,4.91498228,0.61158121,-0.44298738,-1.42410294

>  <Name>
P151028160

>  <RI>
0

>  <Rbt.Current_Directory>
/home/fstefaniak/projects/zuza/docking/adenine/1Y26

>  <Rbt.Executable>
rbdock ($Id: //depot/dev/client3/rdock/2013.1/src/exe/rbdock.cxx#4 $)

>  <Rbt.Library>
libRbt.so (2013.1, Build901 2013/11/27)

>  <Rbt.Parameter_File>
/home/fstefaniak/progs/rDock//data/scripts/dock_solv.prm

>  <Rbt.Receptor>
1y26.prm

>  <SCORE>
-51.3033

>  <SCORE.INTER>
-28.8562

>  <SCORE.INTER.CONST>
1

>  <SCORE.INTER.POLAR>
-3.57389

>  <SCORE.INTER.ROT>
1

>  <SCORE.INTER.SOLV>
12.2002

>  <SCORE.INTER.VDW>
-15.6579

>  <SCORE.INTER.norm>
-2.88562

>  <SCORE.INTRA>
-0.129772

>  <SCORE.INTRA.DIHEDRAL>
1.92833e-05

>  <SCORE.INTRA.DIHEDRAL.0>
0.478022

>  <SCORE.INTRA.POLAR>
-0.0416595

>  <SCORE.INTRA.POLAR.0>
-0.116207

>  <SCORE.INTRA.REPUL>
0

>  <SCORE.INTRA.REPUL.0>
0

>  <SCORE.INTRA.SOLV>
0.00475806

>  <SCORE.INTRA.SOLV.lig_0>
-14.5875

>  <SCORE.INTRA.VDW>
0.00948199

>  <SCORE.INTRA.VDW.0>
-0.11601

>  <SCORE.INTRA.norm>
-0.0129772

>  <SCORE.RESTR>
0

>  <SCORE.RESTR.CAVITY>
0

>  <SCORE.RESTR.norm>
0

>  <SCORE.SYSTEM>
-22.3173

>  <SCORE.SYSTEM.CONST>
0

>  <SCORE.SYSTEM.DIHEDRAL>
6.1916

>  <SCORE.SYSTEM.POLAR>
-3.48275

>  <SCORE.SYSTEM.SOLV>
0.437025

>  <SCORE.SYSTEM.VDW>
-5.47857

>  <SCORE.SYSTEM.norm>
-2.23173

>  <SCORE.heavy>
10

>  <SCORE.norm>
-5.13033

$$$$
P151032104
 OpenBabel12072022103D
libRbt.so/2013.1/901 2013/11/27
 13 13  0  0  0  0  0  0  0  0999 V2000
   18.2734  -19.2886    5.8202 C   0  0  0  0  0  0  0  0  0  0  0  0
   18.0226  -19.2542    4.4214 O   0  0  0  0  0  0  0  0  0  0  0  0
   18.6131  -18.1043    3.8082 C   0  0  0  0  0  0  0  0  0  0  0  0
   20.1603  -18.1862    3.7749 C   0  0  2  0  0  0  0  0  0  0  0  0
   20.7887  -17.4930    4.9870 C   0  0  0  0  0  0  0  0  0  0  0  0
   21.1253  -16.0776    4.5141 C   0  0  2  0  0  0  0  0  0  0  0  0
   20.9095  -16.0813    2.9973 C   0  0  0  0  0  0  0  0  0  0  0  0
   20.8738  -17.5141    2.6656 N   0  0  0  0  0  0  0  0  0  0  0  0
   20.2780  -17.7696    1.3842 N   0  0  0  0  0  0  0  0  0  0  0  0
   22.4817  -15.7741    4.8432 O   0  0  0  0  0  0  0  0  0  0  0  0
   20.1236  -18.7725    1.2532 H   0  0  0  0  0  0  0  0  0  0  0  0
   20.8826  -17.4769    0.6116 H   0  0  0  0  0  0  0  0  0  0  0  0
   22.5607  -15.8688    5.8101 H   0  0  0  0  0  0  0  0  0  0  0  0
  1  2  1  0  0  0  0
  2  3  1  0  0  0  0
  4  5  1  0  0  0  0
  4  8  1  0  0  0  0
  4  3  1  6  0  0  0
  5  6  1  0  0  0  0
  6  7  1  0  0  0  0
  6 10  1  6  0  0  0
  7  8  1  0  0  0  0
  8  9  1  0  0  0  0
  9 11  1  0  0  0  0
  9 12  1  0  0  0  0
 10 13  1  0  0  0  0
M  END
>  <CHROM.0>
-50.34299767,-61.30533147,-53.55442666,-52.58934367,-55.94454279,-58.01103487
-63.53350588,-51.37092663,-167.26568192,162.05644435

>  <CHROM.1>
69.88735320,-93.61295483,-58.35539140,-49.70244561,20.15692008,-17.56721540
3.92312603,-2.96532641,-0.71040477,-1.60532880

>  <Name>
P151032104

>  <RI>
0

>  <Rbt.Current_Directory>
/home/fstefaniak/projects/zuza/docking/adenine/1Y26

>  <Rbt.Executable>
rbdock ($Id: //depot/dev/client3/rdock/2013.1/src/exe/rbdock.cxx#4 $)

>  <Rbt.Library>
libRbt.so (2013.1, Build901 2013/11/27)

>  <Rbt.Parameter_File>
/home/fstefaniak/progs/rDock//data/scripts/dock_solv.prm

>  <Rbt.Receptor>
1y26.prm

>  <SCORE>
-49.1258

>  <SCORE.INTER>
-29.2162

>  <SCORE.INTER.CONST>
1

>  <SCORE.INTER.POLAR>
-5.21208

>  <SCORE.INTER.ROT>
3

>  <SCORE.INTER.SOLV>
12.6174

>  <SCORE.INTER.VDW>
-11.9096

>  <SCORE.INTER.norm>
-2.92162

>  <SCORE.INTRA>
2.30138

>  <SCORE.INTRA.DIHEDRAL>
3.15415

>  <SCORE.INTRA.DIHEDRAL.0>
0.650667

>  <SCORE.INTRA.POLAR>
0

>  <SCORE.INTRA.POLAR.0>
0

>  <SCORE.INTRA.REPUL>
0

>  <SCORE.INTRA.REPUL.0>
0

>  <SCORE.INTRA.SOLV>
-0.702209

>  <SCORE.INTRA.SOLV.lig_0>
-14.7545

>  <SCORE.INTRA.VDW>
1.07541

>  <SCORE.INTRA.VDW.0>
-0.103612

>  <SCORE.INTRA.norm>
0.230138

>  <SCORE.RESTR>
0

>  <SCORE.RESTR.CAVITY>
0

>  <SCORE.RESTR.norm>
0

>  <SCORE.SYSTEM>
-22.211

>  <SCORE.SYSTEM.CONST>
0

>  <SCORE.SYSTEM.DIHEDRAL>
5.55564

>  <SCORE.SYSTEM.POLAR>
-3.44693

>  <SCORE.SYSTEM.SOLV>
0.660627

>  <SCORE.SYSTEM.VDW>
-5.38967

>  <SCORE.SYSTEM.norm>
-2.2211

>  <SCORE.heavy>
10

>  <SCORE.norm>
-4.91258

$$$$
P151032104
 OpenBabel12072022103D
libRbt.so/2013.1/901 2013/11/27
 13 13  0  0  0  0  0  0  0  0999 V2000
   18.3839  -19.2565    5.8645 C   0  0  0  0  0  0  0  0  0  0  0  0
   18.0638  -19.2425    4.4795 O   0  0  0  0  0  0  0  0  0  0  0  0
   18.6421  -18.1144    3.8163 C   0  0  0  0  0  0  0  0  0  0  0  0
   20.1900  -18.1823    3.7839 C   0  0  2  0  0  0  0  0  0  0  0  0
   20.8114  -17.4859    4.9977 C   0  0  0  0  0  0  0  0  0  0  0  0
   21.1357  -16.0667    4.5277 C   0  0  2  0  0  0  0  0  0  0  0  0
   20.9209  -16.0693    3.0108 C   0  0  0  0  0  0  0  0  0  0  0  0
   20.8982  -17.5018    2.6763 N   0  0  0  0  0  0  0  0  0  0  0  0
   20.3055  -17.7601    1.3940 N   0  0  0  0  0  0  0  0  0  0  0  0
   22.4891  -15.7517    4.8583 O   0  0  0  0  0  0  0  0  0  0  0  0
   20.1051  -18.7575    1.2851 H   0  0  0  0  0  0  0  0  0  0  0  0
   20.9321  -17.5154    0.6223 H   0  0  0  0  0  0  0  0  0  0  0  0
   22.5718  -15.8610    5.8234 H   0  0  0  0  0  0  0  0  0  0  0  0
  1  2  1  0  0  0  0
  2  3  1  0  0  0  0
  4  5  1  0  0  0  0
  4  8  1  0  0  0  0
  4  3  1  6  0  0  0
  5  6  1  0  0  0  0
  6  7  1  0  0  0  0
  6 10  1  6  0  0  0
  7  8  1  0  0  0  0
  8  9  1  0  0  0  0
  9 11  1  0  0  0  0
  9 12  1  0  0  0  0
 10 13  1  0  0  0  0
M  END
>  <CHROM.0>
-49.42972686,-63.92932205,-55.84349057,-50.53813940,-174.78764589,-53.63156498
-47.35631035,-53.17952509,-167.89610408,161.29659550

>  <CHROM.1>
66.40174288,-91.02932631,-57.49653492,-46.08233059,20.18849545,-17.55602244
3.94318223,-2.95344364,-0.71797727,-1.60301278

>  <Name>
P151032104

>  <RI>
0

>  <Rbt.Current_Directory>
/home/fstefaniak/projects/zuza/docking/adenine/1Y26

>  <Rbt.Executable>
rbdock ($Id: //depot/dev/client3/rdock/2013.1/src/exe/rbdock.cxx#4 $)

>  <Rbt.Library>
libRbt.so (2013.1, Build901 2013/11/27)

>  <Rbt.Parameter_File>
/home/fstefaniak/progs/rDock//data/scripts/dock_solv.prm

>  <Rbt.Receptor>
1y26.prm

>  <SCORE>
-48.8393

>  <SCORE.INTER>
-29.5576

>  <SCORE.INTER.CONST>
1

>  <SCORE.INTER.POLAR>
-5.22281

>  <SCORE.INTER.ROT>
3

>  <SCORE.INTER.SOLV>
12.589

>  <SCORE.INTER.VDW>
-12.092

>  <SCORE.INTER.norm>
-2.95576

>  <SCORE.INTRA>
2.56371

>  <SCORE.INTRA.DIHEDRAL>
2.64453

>  <SCORE.INTRA.DIHEDRAL.0>
0.650667

>  <SCORE.INTRA.POLAR>
0

>  <SCORE.INTRA.POLAR.0>
0

>  <SCORE.INTRA.REPUL>
0

>  <SCORE.INTRA.REPUL.0>
0

>  <SCORE.INTRA.SOLV>
-0.69845

>  <SCORE.INTRA.SOLV.lig_0>
-14.7545

>  <SCORE.INTRA.VDW>
1.59067

>  <SCORE.INTRA.VDW.0>
-0.103612

>  <SCORE.INTRA.norm>
0.256371

>  <SCORE.RESTR>
0

>  <SCORE.RESTR.CAVITY>
0

>  <SCORE.RESTR.norm>
0

>  <SCORE.SYSTEM>
-21.8454

>  <SCORE.SYSTEM.CONST>
0

>  <SCORE.SYSTEM.DIHEDRAL>
6.55761

>  <SCORE.SYSTEM.POLAR>
-3.5644

>  <SCORE.SYSTEM.SOLV>
0.533161

>  <SCORE.SYSTEM.VDW>
-5.04588

>  <SCORE.SYSTEM.norm>
-2.18454

>  <SCORE.heavy>
10

>  <SCORE.norm>
-4.88393

$$$$
P151032104
 OpenBabel12072022103D
libRbt.so/2013.1/901 2013/11/27
 13 13  0  0  0  0  0  0  0  0999 V2000
   23.7327  -16.3595    4.1262 C   0  0  0  0  0  0  0  0  0  0  0  0
   22.4336  -16.3473    4.7030 O   0  0  0  0  0  0  0  0  0  0  0  0
   21.4844  -17.0302    3.8786 C   0  0  0  0  0  0  0  0  0  0  0  0
   20.0498  -16.9699    4.4614 C   0  0  2  0  0  0  0  0  0  0  0  0
   19.9527  -17.7069    5.8001 C   0  0  0  0  0  0  0  0  0  0  0  0
   19.4593  -19.1127    5.4530 C   0  0  2  0  0  0  0  0  0  0  0  0
   19.0584  -19.0621    3.9752 C   0  0  0  0  0  0  0  0  0  0  0  0
   18.9574  -17.6200    3.7028 N   0  0  0  0  0  0  0  0  0  0  0  0
   18.9980  -17.3189    2.2993 N   0  0  0  0  0  0  0  0  0  0  0  0
   18.3439  -19.4453    6.2809 O   0  0  0  0  0  0  0  0  0  0  0  0
   18.1123  -17.5694    1.8522 H   0  0  0  0  0  0  0  0  0  0  0  0
   19.7194  -17.8554    1.8095 H   0  0  0  0  0  0  0  0  0  0  0  0
   18.0210  -20.3131    5.9763 H   0  0  0  0  0  0  0  0  0  0  0  0
  1  2  1  0  0  0  0
  2  3  1  0  0  0  0
  4  5  1  0  0  0  0
  4  8  1  0  0  0  0
  4  3  1  6  0  0  0
  5  6  1  0  0  0  0
  6  7  1  0  0  0  0
  6 10  1  1  0  0  0
  7  8  1  0  0  0  0
  8  9  1  0  0  0  0
  9 11  1  0  0  0  0
  9 12  1  0  0  0  0
 10 13  1  0  0  0  0
M  END
>  <CHROM.0>
-49.31769803,75.97433797,-63.16155418,-52.67113026,-56.25345839,-52.75156700
-57.83851710,-176.09320728,-165.48020363,160.14004499

>  <CHROM.1>
-177.37059011,-64.40039273,175.51651734,-165.07604905,20.24830662,-17.70700663
4.46102669,-0.37504261,0.44504078,1.97883954

>  <Name>
P151032104

>  <RI>
0

>  <Rbt.Current_Directory>
/home/fstefaniak/projects/zuza/docking/adenine/1Y26

>  <Rbt.Executable>
rbdock ($Id: //depot/dev/client3/rdock/2013.1/src/exe/rbdock.cxx#4 $)

>  <Rbt.Library>
libRbt.so (2013.1, Build901 2013/11/27)

>  <Rbt.Parameter_File>
/home/fstefaniak/progs/rDock//data/scripts/dock_solv.prm

>  <Rbt.Receptor>
1y26.prm

>  <SCORE>
-47.1411

>  <SCORE.INTER>
-25.352

>  <SCORE.INTER.CONST>
1

>  <SCORE.INTER.POLAR>
-3.13241

>  <SCORE.INTER.ROT>
3

>  <SCORE.INTER.SOLV>
11.6403

>  <SCORE.INTER.VDW>
-15.9401

>  <SCORE.INTER.norm>
-2.5352

>  <SCORE.INTRA>
-0.669542

>  <SCORE.INTRA.DIHEDRAL>
-0.122023

>  <SCORE.INTRA.DIHEDRAL.0>
0.650667

>  <SCORE.INTRA.POLAR>
0

>  <SCORE.INTRA.POLAR.0>
0

>  <SCORE.INTRA.REPUL>
0

>  <SCORE.INTRA.REPUL.0>
0

>  <SCORE.INTRA.SOLV>
-0.732888

>  <SCORE.INTRA.SOLV.lig_0>
-14.7545

>  <SCORE.INTRA.VDW>
-0.242086

>  <SCORE.INTRA.VDW.0>
-0.103612

>  <SCORE.INTRA.norm>
-0.0669542

>  <SCORE.RESTR>
0

>  <SCORE.RESTR.CAVITY>
0

>  <SCORE.RESTR.norm>
0

>  <SCORE.SYSTEM>
-21.1195

>  <SCORE.SYSTEM.CONST>
0

>  <SCORE.SYSTEM.DIHEDRAL>
7.02625

>  <SCORE.SYSTEM.POLAR>
-3.46758

>  <SCORE.SYSTEM.SOLV>
0.451196

>  <SCORE.SYSTEM.VDW>
-5.01356

>  <SCORE.SYSTEM.norm>
-2.11195

>  <SCORE.heavy>
10

>  <SCORE.norm>
-4.71411

$$$$
P151032491
 OpenBabel12072022103D
libRbt.so/2013.1/901 2013/11/27
 14 14  0  0  0  0  0  0  0  0999 V2000
   23.7516  -19.7203   -1.1325 H   0  0  0  0  0  0  0  0  0  0  0  0
   22.7579  -19.4933   -1.0463 N   0  0  0  0  0  0  0  0  0  0  0  0
   22.5446  -19.0761    0.1551 C   0  0  0  0  0  0  0  0  0  0  0  0
   23.5346  -18.9557    1.0651 N   0  0  0  0  0  0  0  0  0  0  0  0
   21.2970  -18.7512    0.5714 N   0  0  0  0  0  0  0  0  0  0  0  0
   20.8023  -18.1461    1.6831 C   0  0  0  0  0  0  0  0  0  0  0  0
   21.5320  -17.7350    2.6942 N   0  0  0  0  0  0  0  0  0  0  0  0
   20.5538  -17.1129    3.6252 C   0  0  0  0  0  0  0  0  0  0  0  0
   19.1669  -17.5365    3.1433 C   0  0  0  0  0  0  0  0  0  0  0  0
   19.4455  -17.9521    1.7785 N   0  0  0  0  0  0  0  0  0  0  0  0
   18.4466  -18.7789    1.1316 C   0  0  0  0  0  0  0  0  0  0  0  0
   23.2740  -19.0905    2.0311 H   0  0  0  0  0  0  0  0  0  0  0  0
   24.3593  -19.5058    0.8059 H   0  0  0  0  0  0  0  0  0  0  0  0
   20.6366  -18.8687   -0.1801 H   0  0  0  0  0  0  0  0  0  0  0  0
  1  2  1  0  0  0  0
  2  3  2  0  0  0  0
  3  4  1  0  0  0  0
  3  5  1  0  0  0  0
  4 12  1  0  0  0  0
  4 13  1  0  0  0  0
  5  6  1  0  0  0  0
  5 14  1  0  0  0  0
  6  7  2  0  0  0  0
  6 10  1  0  0  0  0
  7  8  1  0  0  0  0
  8  9  1  0  0  0  0
  9 10  1  0  0  0  0
 10 11  1  0  0  0  0
M  END
>  <CHROM.0>
-49.20864165,-63.64349124,-58.71045310,-52.22329566,-57.03544198,-168.83579624
-61.88719319,-176.24722073,-166.41497240,161.52479481

>  <CHROM.1>
-149.68180972,-1.41655621,21.02736263,-18.37622193,1.46260216,0.73056290
0.02970663,-2.04250676

>  <Name>
P151032491

>  <RI>
0

>  <Rbt.Current_Directory>
/home/fstefaniak/projects/zuza/docking/adenine/1Y26

>  <Rbt.Executable>
rbdock ($Id: //depot/dev/client3/rdock/2013.1/src/exe/rbdock.cxx#4 $)

>  <Rbt.Library>
libRbt.so (2013.1, Build901 2013/11/27)

>  <Rbt.Parameter_File>
/home/fstefaniak/progs/rDock//data/scripts/dock_solv.prm

>  <Rbt.Receptor>
1y26.prm

>  <SCORE>
-51.4748

>  <SCORE.INTER>
-29.7285

>  <SCORE.INTER.CONST>
1

>  <SCORE.INTER.POLAR>
-4.82596

>  <SCORE.INTER.ROT>
2

>  <SCORE.INTER.SOLV>
15.1327

>  <SCORE.INTER.VDW>
-13.71

>  <SCORE.INTER.norm>
-2.97285

>  <SCORE.INTRA>
0.58678

>  <SCORE.INTRA.DIHEDRAL>
-2.64289

>  <SCORE.INTRA.DIHEDRAL.0>
4.60484

>  <SCORE.INTRA.POLAR>
0.560254

>  <SCORE.INTRA.POLAR.0>
-0.743558

>  <SCORE.INTRA.REPUL>
0

>  <SCORE.INTRA.REPUL.0>
0

>  <SCORE.INTRA.SOLV>
-0.0508913

>  <SCORE.INTRA.SOLV.lig_0>
-16.7253

>  <SCORE.INTRA.VDW>
0.0288055

>  <SCORE.INTRA.VDW.0>
-0.267814

>  <SCORE.INTRA.norm>
0.058678

>  <SCORE.RESTR>
0

>  <SCORE.RESTR.CAVITY>
0

>  <SCORE.RESTR.norm>
0

>  <SCORE.SYSTEM>
-22.3331

>  <SCORE.SYSTEM.CONST>
0

>  <SCORE.SYSTEM.DIHEDRAL>
5.91095

>  <SCORE.SYSTEM.POLAR>
-3.42506

>  <SCORE.SYSTEM.SOLV>
0.298061

>  <SCORE.SYSTEM.VDW>
-5.54153

>  <SCORE.SYSTEM.norm>
-2.23331

>  <SCORE.heavy>
10

>  <SCORE.norm>
-5.14748

$$$$
P151032491
 OpenBabel12072022103D
libRbt.so/2013.1/901 2013/11/27
 14 14  0  0  0  0  0  0  0  0999 V2000
   23.7588  -19.7276   -1.1101 H   0  0  0  0  0  0  0  0  0  0  0  0
   22.7635  -19.5056   -1.0285 N   0  0  0  0  0  0  0  0  0  0  0  0
   22.5420  -19.0917    0.1725 C   0  0  0  0  0  0  0  0  0  0  0  0
   23.5269  -18.9682    1.0878 N   0  0  0  0  0  0  0  0  0  0  0  0
   21.2908  -18.7736    0.5830 N   0  0  0  0  0  0  0  0  0  0  0  0
   20.7875  -18.1730    1.6933 C   0  0  0  0  0  0  0  0  0  0  0  0
   21.5093  -17.7656    2.7114 N   0  0  0  0  0  0  0  0  0  0  0  0
   20.5239  -17.1475    3.6374 C   0  0  0  0  0  0  0  0  0  0  0  0
   19.1408  -17.5696    3.1434 C   0  0  0  0  0  0  0  0  0  0  0  0
   19.4299  -17.9798    1.7791 N   0  0  0  0  0  0  0  0  0  0  0  0
   18.4362  -18.8044    1.1215 C   0  0  0  0  0  0  0  0  0  0  0  0
   23.2647  -19.1190    2.0510 H   0  0  0  0  0  0  0  0  0  0  0  0
   24.3606  -19.5025    0.8248 H   0  0  0  0  0  0  0  0  0  0  0  0
   20.6348  -18.8930   -0.1720 H   0  0  0  0  0  0  0  0  0  0  0  0
  1  2  1  0  0  0  0
  2  3  2  0  0  0  0
  3  4  1  0  0  0  0
  3  5  1  0  0  0  0
  4 12  1  0  0  0  0
  4 13  1  0  0  0  0
  5  6  1  0  0  0  0
  5 14  1  0  0  0  0
  6  7  2  0  0  0  0
  6 10  1  0  0  0  0
  7  8  1  0  0  0  0
  8  9  1  0  0  0  0
  9 10  1  0  0  0  0
 10 11  1  0  0  0  0
M  END
>  <CHROM.0>
62.97511028,-174.32615505,-51.18642477,-51.02367493,-54.90280366,-167.40558339
-55.23136859,-49.60864259,-166.50075778,161.15986828

>  <CHROM.1>
-148.83072189,-1.73735692,21.01457980,-18.40016036,1.47253260,0.72339892
0.03094917,-2.03821837

>  <Name>
P151032491

>  <RI>
0

>  <Rbt.Current_Directory>
/home/fstefaniak/projects/zuza/docking/adenine/1Y26

>  <Rbt.Executable>
rbdock ($Id: //depot/dev/client3/rdock/2013.1/src/exe/rbdock.cxx#4 $)

>  <Rbt.Library>
libRbt.so (2013.1, Build901 2013/11/27)

>  <Rbt.Parameter_File>
/home/fstefaniak/progs/rDock//data/scripts/dock_solv.prm

>  <Rbt.Receptor>
1y26.prm

>  <SCORE>
-50.0971

>  <SCORE.INTER>
-29.7936

>  <SCORE.INTER.CONST>
1

>  <SCORE.INTER.POLAR>
-4.8188

>  <SCORE.INTER.ROT>
2

>  <SCORE.INTER.SOLV>
15.058

>  <SCORE.INTER.VDW>
-13.7524

>  <SCORE.INTER.norm>
-2.97936

>  <SCORE.INTRA>
0.603898

>  <SCORE.INTRA.DIHEDRAL>
-2.72176

>  <SCORE.INTRA.DIHEDRAL.0>
4.60484

>  <SCORE.INTRA.POLAR>
0.574675

>  <SCORE.INTRA.POLAR.0>
-0.743558

>  <SCORE.INTRA.REPUL>
0

>  <SCORE.INTRA.REPUL.0>
0

>  <SCORE.INTRA.SOLV>
-0.0522284

>  <SCORE.INTRA.SOLV.lig_0>
-16.7253

>  <SCORE.INTRA.VDW>
0.0369952

>  <SCORE.INTRA.VDW.0>
-0.267814

>  <SCORE.INTRA.norm>
0.0603898

>  <SCORE.RESTR>
0

>  <SCORE.RESTR.CAVITY>
0

>  <SCORE.RESTR.norm>
0

>  <SCORE.SYSTEM>
-20.9075

>  <SCORE.SYSTEM.CONST>
0

>  <SCORE.SYSTEM.DIHEDRAL>
6.70299

>  <SCORE.SYSTEM.POLAR>
-3.32534

>  <SCORE.SYSTEM.SOLV>
0.455462

>  <SCORE.SYSTEM.VDW>
-5.23998

>  <SCORE.SYSTEM.norm>
-2.09075

>  <SCORE.heavy>
10

>  <SCORE.norm>
-5.00971

$$$$
P151032491
 OpenBabel12072022103D
libRbt.so/2013.1/901 2013/11/27
 14 14  0  0  0  0  0  0  0  0999 V2000
   23.1883  -20.1080   -1.4122 H   0  0  0  0  0  0  0  0  0  0  0  0
   22.2856  -19.6543   -1.2517 N   0  0  0  0  0  0  0  0  0  0  0  0
   22.2225  -19.3153   -0.0092 C   0  0  0  0  0  0  0  0  0  0  0  0
   23.2409  -19.5288    0.8512 N   0  0  0  0  0  0  0  0  0  0  0  0
   21.1093  -18.7369    0.5023 N   0  0  0  0  0  0  0  0  0  0  0  0
   20.8176  -18.1391    1.6874 C   0  0  0  0  0  0  0  0  0  0  0  0
   21.7009  -17.8592    2.6174 N   0  0  0  0  0  0  0  0  0  0  0  0
   20.9128  -17.1841    3.6823 C   0  0  0  0  0  0  0  0  0  0  0  0
   19.4409  -17.4330    3.3561 C   0  0  0  0  0  0  0  0  0  0  0  0
   19.5111  -17.8069    1.9531 N   0  0  0  0  0  0  0  0  0  0  0  0
   18.3579  -18.4891    1.4013 C   0  0  0  0  0  0  0  0  0  0  0  0
   24.1611  -19.6110    0.4444 H   0  0  0  0  0  0  0  0  0  0  0  0
   23.2213  -18.8701    1.6357 H   0  0  0  0  0  0  0  0  0  0  0  0
   20.4160  -18.6164   -0.2185 H   0  0  0  0  0  0  0  0  0  0  0  0
  1  2  1  0  0  0  0
  2  3  2  0  0  0  0
  3  4  1  0  0  0  0
  3  5  1  0  0  0  0
  4 12  1  0  0  0  0
  4 13  1  0  0  0  0
  5  6  1  0  0  0  0
  5 14  1  0  0  0  0
  6  7  2  0  0  0  0
  6 10  1  0  0  0  0
  7  8  1  0  0  0  0
  8  9  1  0  0  0  0
  9 10  1  0  0  0  0
 10 11  1  0  0  0  0
M  END
>  <CHROM.0>
-49.29818114,59.91803041,-58.62517054,-50.58733639,-172.32852159,-174.32370674
-56.56524193,-177.31668856,-167.35775247,161.08308194

>  <CHROM.1>
23.91235066,8.05332474,20.97595626,-18.43137813,1.45808275,0.89410702,0.11520357
-2.02448868

>  <Name>
P151032491

>  <RI>
0

>  <Rbt.Current_Directory>
/home/fstefaniak/projects/zuza/docking/adenine/1Y26

>  <Rbt.Executable>
rbdock ($Id: //depot/dev/client3/rdock/2013.1/src/exe/rbdock.cxx#4 $)

>  <Rbt.Library>
libRbt.so (2013.1, Build901 2013/11/27)

>  <Rbt.Parameter_File>
/home/fstefaniak/progs/rDock//data/scripts/dock_solv.prm

>  <Rbt.Receptor>
1y26.prm

>  <SCORE>
-48.5748

>  <SCORE.INTER>
-28.1239

>  <SCORE.INTER.CONST>
1

>  <SCORE.INTER.POLAR>
-4.24679

>  <SCORE.INTER.ROT>
2

>  <SCORE.INTER.SOLV>
15.126

>  <SCORE.INTER.VDW>
-14.5686

>  <SCORE.INTER.norm>
-2.81239

>  <SCORE.INTRA>
1.24663

>  <SCORE.INTRA.DIHEDRAL>
2.26983

>  <SCORE.INTRA.DIHEDRAL.0>
4.60484

>  <SCORE.INTRA.POLAR>
0.0707677

>  <SCORE.INTRA.POLAR.0>
-0.743558

>  <SCORE.INTRA.REPUL>
0

>  <SCORE.INTRA.REPUL.0>
0

>  <SCORE.INTRA.SOLV>
-0.0167139

>  <SCORE.INTRA.SOLV.lig_0>
-16.7253

>  <SCORE.INTRA.VDW>
-0.120538

>  <SCORE.INTRA.VDW.0>
-0.267814

>  <SCORE.INTRA.norm>
0.124663

>  <SCORE.RESTR>
0

>  <SCORE.RESTR.CAVITY>
0

>  <SCORE.RESTR.norm>
0

>  <SCORE.SYSTEM>
-21.6975

>  <SCORE.SYSTEM.CONST>
0

>  <SCORE.SYSTEM.DIHEDRAL>
5.74504

>  <SCORE.SYSTEM.POLAR>
-3.4587

>  <SCORE.SYSTEM.SOLV>
0.192458

>  <SCORE.SYSTEM.VDW>
-4.91518

>  <SCORE.SYSTEM.norm>
-2.16975

>  <SCORE.heavy>
10

>  <SCORE.norm>
-4.85748

$$$$
P151032568
 OpenBabel12072022103D
libRbt.so/2013.1/901 2013/11/27
 13 13  0  0  0  0  0  0  0  0999 V2000
   18.3262  -18.4283    1.5638 C   0  0  0  0  0  0  0  0  0  0  0  0
   18.4836  -19.2688    2.6970 O   0  0  0  0  0  0  0  0  0  0  0  0
   18.4945  -18.5399    3.9215 C   0  0  2  0  0  0  0  0  0  0  0  0
   19.8588  -17.7711    4.0940 C   0  0  2  0  0  0  0  0  0  0  0  0
   20.3442  -18.2495    5.3804 N   0  0  0  0  0  0  0  0  0  0  0  0
   19.4425  -19.0747    5.9713 C   0  0  0  0  0  0  0  0  0  0  0  0
   19.4024  -19.4017    7.2053 N   0  0  0  0  0  0  0  0  0  0  0  0
   18.5022  -19.4311    5.0623 N   0  0  0  0  0  0  0  0  0  0  0  0
   19.7098  -16.3589    4.2027 O   0  0  0  0  0  0  0  0  0  0  0  0
   20.9514  -15.6839    4.0527 C   0  0  0  0  0  0  0  0  0  0  0  0
   20.7439  -17.5254    5.9586 H   0  0  0  0  0  0  0  0  0  0  0  0
   20.2199  -19.0039    7.6733 H   0  0  0  0  0  0  0  0  0  0  0  0
   17.6255  -19.7296    5.4623 H   0  0  0  0  0  0  0  0  0  0  0  0
  1  2  1  0  0  0  0
  3  8  1  0  0  0  0
  3  2  1  6  0  0  0
  3  4  1  0  0  0  0
  4  5  1  0  0  0  0
  4  9  1  1  0  0  0
  5  6  1  0  0  0  0
  5 11  1  0  0  0  0
  6  7  2  0  0  0  0
  6  8  1  0  0  0  0
  7 12  1  0  0  0  0
  8 13  1  0  0  0  0
  9 10  1  0  0  0  0
M  END
>  <CHROM.0>
-164.23946524,-63.75935083,-59.96854816,-52.67656515,-56.95995800,-173.68685697
-60.18421684,-176.01360661,-166.73945221,161.21445923

>  <CHROM.1>
-73.89423870,-166.72788314,19.35347130,-18.19333750,4.39060709,1.84774091
-0.95478102,-1.07923025

>  <Name>
P151032568

>  <RI>
0

>  <Rbt.Current_Directory>
/home/fstefaniak/projects/zuza/docking/adenine/1Y26

>  <Rbt.Executable>
rbdock ($Id: //depot/dev/client3/rdock/2013.1/src/exe/rbdock.cxx#4 $)

>  <Rbt.Library>
libRbt.so (2013.1, Build901 2013/11/27)

>  <Rbt.Parameter_File>
/home/fstefaniak/progs/rDock//data/scripts/dock_solv.prm

>  <Rbt.Receptor>
1y26.prm

>  <SCORE>
-52.2088

>  <SCORE.INTER>
-31.906

>  <SCORE.INTER.CONST>
1

>  <SCORE.INTER.POLAR>
-3.45539

>  <SCORE.INTER.ROT>
2

>  <SCORE.INTER.SOLV>
13.2477

>  <SCORE.INTER.VDW>
-19.1019

>  <SCORE.INTER.norm>
-3.1906

>  <SCORE.INTRA>
0.598926

>  <SCORE.INTRA.DIHEDRAL>
0.028089

>  <SCORE.INTRA.DIHEDRAL.0>
1.96904

>  <SCORE.INTRA.POLAR>
0

>  <SCORE.INTRA.POLAR.0>
0

>  <SCORE.INTRA.REPUL>
0

>  <SCORE.INTRA.REPUL.0>
0

>  <SCORE.INTRA.SOLV>
-0.00583044

>  <SCORE.INTRA.SOLV.lig_0>
-13.5212

>  <SCORE.INTRA.VDW>
0.587797

>  <SCORE.INTRA.VDW.0>
0.024909

>  <SCORE.INTRA.norm>
0.0598926

>  <SCORE.RESTR>
0

>  <SCORE.RESTR.CAVITY>
0

>  <SCORE.RESTR.norm>
0

>  <SCORE.SYSTEM>
-20.9017

>  <SCORE.SYSTEM.CONST>
0

>  <SCORE.SYSTEM.DIHEDRAL>
6.09851

>  <SCORE.SYSTEM.POLAR>
-3.18012

>  <SCORE.SYSTEM.SOLV>
0.242067

>  <SCORE.SYSTEM.VDW>
-5.44763

>  <SCORE.SYSTEM.norm>
-2.09017

>  <SCORE.heavy>
10

>  <SCORE.norm>
-5.22088

$$$$
P151032568
 OpenBabel12072022103D
libRbt.so/2013.1/901 2013/11/27
 13 13  0  0  0  0  0  0  0  0999 V2000
   18.3147  -18.4647    1.5168 C   0  0  0  0  0  0  0  0  0  0  0  0
   18.5209  -19.2899    2.6534 O   0  0  0  0  0  0  0  0  0  0  0  0
   18.5194  -18.5522    3.8726 C   0  0  2  0  0  0  0  0  0  0  0  0
   19.8677  -17.7538    4.0363 C   0  0  2  0  0  0  0  0  0  0  0  0
   20.3661  -18.2127    5.3248 N   0  0  0  0  0  0  0  0  0  0  0  0
   19.4832  -19.0523    5.9238 C   0  0  0  0  0  0  0  0  0  0  0  0
   19.4529  -19.3713    7.1602 N   0  0  0  0  0  0  0  0  0  0  0  0
   18.5485  -19.4349    5.0198 N   0  0  0  0  0  0  0  0  0  0  0  0
   19.6894  -16.3443    4.1352 O   0  0  0  0  0  0  0  0  0  0  0  0
   20.9197  -15.6457    4.0016 C   0  0  0  0  0  0  0  0  0  0  0  0
   20.7519  -17.4762    5.8968 H   0  0  0  0  0  0  0  0  0  0  0  0
   20.2630  -18.9531    7.6233 H   0  0  0  0  0  0  0  0  0  0  0  0
   17.6792  -19.7488    5.4240 H   0  0  0  0  0  0  0  0  0  0  0  0
  1  2  1  0  0  0  0
  3  8  1  0  0  0  0
  3  2  1  6  0  0  0
  3  4  1  0  0  0  0
  4  5  1  0  0  0  0
  4  9  1  1  0  0  0
  5  6  1  0  0  0  0
  5 11  1  0  0  0  0
  6  7  2  0  0  0  0
  6  8  1  0  0  0  0
  7 12  1  0  0  0  0
  8 13  1  0  0  0  0
  9 10  1  0  0  0  0
M  END
>  <CHROM.0>
-160.47570745,57.40197916,-58.76217019,-51.52497269,-55.14895642,-175.86760020
-60.43376636,-51.89462168,-167.12938942,160.81447385

>  <CHROM.1>
-75.15512688,-167.79333296,19.36946000,-18.18489814,4.33983979,1.89452264
-0.97037901,-1.06459026

>  <Name>
P151032568

>  <RI>
0

>  <Rbt.Current_Directory>
/home/fstefaniak/projects/zuza/docking/adenine/1Y26

>  <Rbt.Executable>
rbdock ($Id: //depot/dev/client3/rdock/2013.1/src/exe/rbdock.cxx#4 $)

>  <Rbt.Library>
libRbt.so (2013.1, Build901 2013/11/27)

>  <Rbt.Parameter_File>
/home/fstefaniak/progs/rDock//data/scripts/dock_solv.prm

>  <Rbt.Receptor>
1y26.prm

>  <SCORE>
-51.1747

>  <SCORE.INTER>
-32.171

>  <SCORE.INTER.CONST>
1

>  <SCORE.INTER.POLAR>
-3.52649

>  <SCORE.INTER.ROT>
2

>  <SCORE.INTER.SOLV>
13.198

>  <SCORE.INTER.VDW>
-19.025

>  <SCORE.INTER.norm>
-3.2171

>  <SCORE.INTRA>
0.623573

>  <SCORE.INTRA.DIHEDRAL>
0.0650896

>  <SCORE.INTRA.DIHEDRAL.0>
1.96904

>  <SCORE.INTRA.POLAR>
0

>  <SCORE.INTRA.POLAR.0>
0

>  <SCORE.INTRA.REPUL>
0

>  <SCORE.INTRA.REPUL.0>
0

>  <SCORE.INTRA.SOLV>
-0.00493053

>  <SCORE.INTRA.SOLV.lig_0>
-13.5212

>  <SCORE.INTRA.VDW>
0.593493

>  <SCORE.INTRA.VDW.0>
0.024909

>  <SCORE.INTRA.norm>
0.0623573

>  <SCORE.RESTR>
0

>  <SCORE.RESTR.CAVITY>
0

>  <SCORE.RESTR.norm>
0

>  <SCORE.SYSTEM>
-19.6273

>  <SCORE.SYSTEM.CONST>
0

>  <SCORE.SYSTEM.DIHEDRAL>
6.91167

>  <SCORE.SYSTEM.POLAR>
-3.24962

>  <SCORE.SYSTEM.SOLV>
0.508401

>  <SCORE.SYSTEM.VDW>
-4.72615

>  <SCORE.SYSTEM.norm>
-1.96273

>  <SCORE.heavy>
10

>  <SCORE.norm>
-5.11747

$$$$
P151032568
 OpenBabel12072022103D
libRbt.so/2013.1/901 2013/11/27
 13 13  0  0  0  0  0  0  0  0999 V2000
   18.3251  -18.4989    1.4896 C   0  0  0  0  0  0  0  0  0  0  0  0
   18.5075  -19.3190    2.6339 O   0  0  0  0  0  0  0  0  0  0  0  0
   18.5039  -18.5727    3.8479 C   0  0  2  0  0  0  0  0  0  0  0  0
   19.8596  -17.7882    4.0176 C   0  0  2  0  0  0  0  0  0  0  0  0
   20.3419  -18.2437    5.3135 N   0  0  0  0  0  0  0  0  0  0  0  0
   19.4446  -19.0692    5.9107 C   0  0  0  0  0  0  0  0  0  0  0  0
   19.4002  -19.3790    7.1490 N   0  0  0  0  0  0  0  0  0  0  0  0
   18.5133  -19.4476    5.0014 N   0  0  0  0  0  0  0  0  0  0  0  0
   19.6963  -16.3762    4.1053 O   0  0  0  0  0  0  0  0  0  0  0  0
   20.9429  -15.6961    4.0505 C   0  0  0  0  0  0  0  0  0  0  0  0
   20.7310  -17.5075    5.8838 H   0  0  0  0  0  0  0  0  0  0  0  0
   20.2110  -18.9667    7.6161 H   0  0  0  0  0  0  0  0  0  0  0  0
   17.6372  -19.7490    5.4003 H   0  0  0  0  0  0  0  0  0  0  0  0
  1  2  1  0  0  0  0
  3  8  1  0  0  0  0
  3  2  1  6  0  0  0
  3  4  1  0  0  0  0
  4  5  1  0  0  0  0
  4  9  1  1  0  0  0
  5  6  1  0  0  0  0
  5 11  1  0  0  0  0
  6  7  2  0  0  0  0
  6  8  1  0  0  0  0
  7 12  1  0  0  0  0
  8 13  1  0  0  0  0
  9 10  1  0  0  0  0
M  END
>  <CHROM.0>
-164.21770045,-62.34163225,-54.49586423,-52.59353371,-57.16337889,-59.54268465
-59.85375996,65.45280599,-168.73716466,159.81869858

>  <CHROM.1>
-74.94176191,-170.98776882,19.35528414,-18.21197694,4.32742203,1.90992570
-0.96639397,-1.08882828

>  <Name>
P151032568

>  <RI>
0

>  <Rbt.Current_Directory>
/home/fstefaniak/projects/zuza/docking/adenine/1Y26

>  <Rbt.Executable>
rbdock ($Id: //depot/dev/client3/rdock/2013.1/src/exe/rbdock.cxx#4 $)

>  <Rbt.Library>
libRbt.so (2013.1, Build901 2013/11/27)

>  <Rbt.Parameter_File>
/home/fstefaniak/progs/rDock//data/scripts/dock_solv.prm

>  <Rbt.Receptor>
1y26.prm

>  <SCORE>
-51.0957

>  <SCORE.INTER>
-31.9654

>  <SCORE.INTER.CONST>
1

>  <SCORE.INTER.POLAR>
-3.48272

>  <SCORE.INTER.ROT>
2

>  <SCORE.INTER.SOLV>
13.1839

>  <SCORE.INTER.VDW>
-19.0292

>  <SCORE.INTER.norm>
-3.19654

>  <SCORE.INTRA>
0.708057

>  <SCORE.INTRA.DIHEDRAL>
-0.265431

>  <SCORE.INTRA.DIHEDRAL.0>
1.96904

>  <SCORE.INTRA.POLAR>
0

>  <SCORE.INTRA.POLAR.0>
0

>  <SCORE.INTRA.REPUL>
0

>  <SCORE.INTRA.REPUL.0>
0

>  <SCORE.INTRA.SOLV>
0.0068719

>  <SCORE.INTRA.SOLV.lig_0>
-13.5212

>  <SCORE.INTRA.VDW>
0.837337

>  <SCORE.INTRA.VDW.0>
0.024909

>  <SCORE.INTRA.norm>
0.0708057

>  <SCORE.RESTR>
0

>  <SCORE.RESTR.CAVITY>
0

>  <SCORE.RESTR.norm>
0

>  <SCORE.SYSTEM>
-19.8384

>  <SCORE.SYSTEM.CONST>
0

>  <SCORE.SYSTEM.DIHEDRAL>
6.07843

>  <SCORE.SYSTEM.POLAR>
-3.2126

>  <SCORE.SYSTEM.SOLV>
0.373628

>  <SCORE.SYSTEM.VDW>
-4.66758

>  <SCORE.SYSTEM.norm>
-1.98384

>  <SCORE.heavy>
10

>  <SCORE.norm>
-5.10957

$$$$
P151032918
 OpenBabel12072022103D
libRbt.so/2013.1/901 2013/11/27
 16 16  0  0  0  0  0  0  0  0999 V2000
   18.4529  -19.3017    5.0678 C   0  0  0  0  0  0  0  0  0  0  0  0
   19.7174  -18.8554    4.3463 C   0  0  1  0  0  0  0  0  0  0  0  0
   19.5394  -18.4156    2.8750 C   0  0  2  0  0  0  0  0  0  0  0  0
   20.7537  -17.4939    2.6252 C   0  0  1  0  0  0  0  0  0  0  0  0
   20.7723  -16.6746    3.9147 C   0  0  2  0  0  0  0  0  0  0  0  0
   20.5114  -17.7125    5.0236 C   0  0  1  0  0  0  0  0  0  0  0  0
   19.7947  -17.0815    6.0778 O   0  0  0  0  0  0  0  0  0  0  0  0
   19.6620  -15.7540    3.8820 O   0  0  0  0  0  0  0  0  0  0  0  0
   21.9319  -18.2702    2.4756 O   0  0  0  0  0  0  0  0  0  0  0  0
   18.2777  -17.6419    2.6715 N   0  3  0  0  0  0  0  0  0  0  0  0
   17.4747  -18.2057    3.0242 H   0  0  0  0  0  0  0  0  0  0  0  0
   18.2718  -16.7713    3.2166 H   0  0  0  0  0  0  0  0  0  0  0  0
   18.0929  -17.4025    1.6913 H   0  0  0  0  0  0  0  0  0  0  0  0
   20.4348  -16.5714    6.6126 H   0  0  0  0  0  0  0  0  0  0  0  0
   19.9555  -15.0549    3.2496 H   0  0  0  0  0  0  0  0  0  0  0  0
   22.0843  -18.7692    3.3025 H   0  0  0  0  0  0  0  0  0  0  0  0
  2  1  1  1  0  0  0
  2  3  1  0  0  0  0
  3 10  1  1  0  0  0
  3  4  1  0  0  0  0
  4  9  1  1  0  0  0
  4  5  1  0  0  0  0
  5  8  1  6  0  0  0
  5  6  1  0  0  0  0
  6  2  1  0  0  0  0
  6  7  1  1  0  0  0
  7 14  1  0  0  0  0
  8 15  1  0  0  0  0
  9 16  1  0  0  0  0
 10 11  1  0  0  0  0
 10 12  1  0  0  0  0
 10 13  1  0  0  0  0
M  CHG  1  10   1
M  END
>  <CHROM.0>
-43.00591045,-44.31500530,-56.47250624,-53.04142590,-55.11808797,58.43463488
-58.27655108,-174.44047149,-166.54413926,162.20207990

>  <CHROM.1>
-54.57740490,-61.22685805,-75.44936544,163.68906360,19.91879248,-17.67568810
3.90326873,2.39785561,0.72187684,1.07087744

>  <Name>
P151032918

>  <RI>
0

>  <Rbt.Current_Directory>
/home/fstefaniak/projects/zuza/docking/adenine/1Y26

>  <Rbt.Executable>
rbdock ($Id: //depot/dev/client3/rdock/2013.1/src/exe/rbdock.cxx#4 $)

>  <Rbt.Library>
libRbt.so (2013.1, Build901 2013/11/27)

>  <Rbt.Parameter_File>
/home/fstefaniak/progs/rDock//data/scripts/dock_solv.prm

>  <Rbt.Receptor>
1y26.prm

>  <SCORE>
-45.3775

>  <SCORE.INTER>
-25.3368

>  <SCORE.INTER.CONST>
1

>  <SCORE.INTER.POLAR>
-3.76926

>  <SCORE.INTER.ROT>
0

>  <SCORE.INTER.SOLV>
21.1576

>  <SCORE.INTER.VDW>
-14.9796

>  <SCORE.INTER.norm>
-2.53368

>  <SCORE.INTRA>
0.810138

>  <SCORE.INTRA.DIHEDRAL>
-1.08424

>  <SCORE.INTRA.DIHEDRAL.0>
3.92058

>  <SCORE.INTRA.POLAR>
0.287828

>  <SCORE.INTRA.POLAR.0>
-0.96714

>  <SCORE.INTRA.REPUL>
0

>  <SCORE.INTRA.REPUL.0>
0

>  <SCORE.INTRA.SOLV>
-0.166311

>  <SCORE.INTRA.SOLV.lig_0>
-31.5703

>  <SCORE.INTRA.VDW>
0.456799

>  <SCORE.INTRA.VDW.0>
-0.300275

>  <SCORE.INTRA.norm>
0.0810138

>  <SCORE.RESTR>
0

>  <SCORE.RESTR.CAVITY>
0

>  <SCORE.RESTR.norm>
0

>  <SCORE.SYSTEM>
-20.8508

>  <SCORE.SYSTEM.CONST>
0

>  <SCORE.SYSTEM.DIHEDRAL>
7.21616

>  <SCORE.SYSTEM.POLAR>
-3.48926

>  <SCORE.SYSTEM.SOLV>
0.311972

>  <SCORE.SYSTEM.VDW>
-4.77907

>  <SCORE.SYSTEM.norm>
-2.08508

>  <SCORE.heavy>
10

>  <SCORE.norm>
-4.53775

$$$$
P151032918
 OpenBabel12072022103D
libRbt.so/2013.1/901 2013/11/27
 16 16  0  0  0  0  0  0  0  0999 V2000
   18.4361  -19.2782    5.1154 C   0  0  0  0  0  0  0  0  0  0  0  0
   19.7040  -18.8518    4.3878 C   0  0  1  0  0  0  0  0  0  0  0  0
   19.5296  -18.4337    2.9097 C   0  0  2  0  0  0  0  0  0  0  0  0
   20.7502  -17.5242    2.6463 C   0  0  1  0  0  0  0  0  0  0  0  0
   20.7738  -16.6851    3.9230 C   0  0  2  0  0  0  0  0  0  0  0  0
   20.5054  -17.7040    5.0477 C   0  0  1  0  0  0  0  0  0  0  0  0
   19.7925  -17.0519    6.0916 O   0  0  0  0  0  0  0  0  0  0  0  0
   19.6698  -15.7577    3.8754 O   0  0  0  0  0  0  0  0  0  0  0  0
   21.9232  -18.3107    2.5095 O   0  0  0  0  0  0  0  0  0  0  0  0
   18.2732  -17.6547    2.6936 N   0  3  0  0  0  0  0  0  0  0  0  0
   18.1441  -17.4981    1.6709 H   0  0  0  0  0  0  0  0  0  0  0  0
   17.4438  -18.1738    3.0062 H   0  0  0  0  0  0  0  0  0  0  0  0
   18.2681  -16.7407    3.1592 H   0  0  0  0  0  0  0  0  0  0  0  0
   20.4348  -16.5326    6.6148 H   0  0  0  0  0  0  0  0  0  0  0  0
   19.9666  -15.0725    3.2295 H   0  0  0  0  0  0  0  0  0  0  0  0
   22.0799  -18.7867    3.3489 H   0  0  0  0  0  0  0  0  0  0  0  0
  2  1  1  1  0  0  0
  2  3  1  0  0  0  0
  3 10  1  1  0  0  0
  3  4  1  0  0  0  0
  4  9  1  1  0  0  0
  4  5  1  0  0  0  0
  5  8  1  6  0  0  0
  5  6  1  0  0  0  0
  6  2  1  0  0  0  0
  6  7  1  1  0  0  0
  7 14  1  0  0  0  0
  8 15  1  0  0  0  0
  9 16  1  0  0  0  0
 10 11  1  0  0  0  0
 10 12  1  0  0  0  0
 10 13  1  0  0  0  0
M  CHG  1  10   1
M  END
>  <CHROM.0>
-43.71946753,59.36449954,-55.52148178,-52.90425433,-55.78529748,-57.94374712
-59.81940170,-50.36279725,-167.57627440,-61.55919536

>  <CHROM.1>
-173.19532625,-62.12511385,-75.21137914,164.10038480,19.91374186,-17.68039794
3.92557078,2.38833849,0.71456883,1.06227597

>  <Name>
P151032918

>  <RI>
0

>  <Rbt.Current_Directory>
/home/fstefaniak/projects/zuza/docking/adenine/1Y26

>  <Rbt.Executable>
rbdock ($Id: //depot/dev/client3/rdock/2013.1/src/exe/rbdock.cxx#4 $)

>  <Rbt.Library>
libRbt.so (2013.1, Build901 2013/11/27)

>  <Rbt.Parameter_File>
/home/fstefaniak/progs/rDock//data/scripts/dock_solv.prm

>  <Rbt.Receptor>
1y26.prm

>  <SCORE>
-44.7289

>  <SCORE.INTER>
-26.5677

>  <SCORE.INTER.CONST>
1

>  <SCORE.INTER.POLAR>
-3.72619

>  <SCORE.INTER.ROT>
0

>  <SCORE.INTER.SOLV>
21.1459

>  <SCORE.INTER.VDW>
-15.9398

>  <SCORE.INTER.norm>
-2.65677

>  <SCORE.INTRA>
0.544615

>  <SCORE.INTRA.DIHEDRAL>
-1.12703

>  <SCORE.INTRA.DIHEDRAL.0>
3.92058

>  <SCORE.INTRA.POLAR>
0.319769

>  <SCORE.INTRA.POLAR.0>
-0.96714

>  <SCORE.INTRA.REPUL>
0

>  <SCORE.INTRA.REPUL.0>
0

>  <SCORE.INTRA.SOLV>
-0.330539

>  <SCORE.INTRA.SOLV.lig_0>
-31.5703

>  <SCORE.INTRA.VDW>
0.186186

>  <SCORE.INTRA.VDW.0>
-0.300275

>  <SCORE.INTRA.norm>
0.0544615

>  <SCORE.RESTR>
0

>  <SCORE.RESTR.CAVITY>
0

>  <SCORE.RESTR.norm>
0

>  <SCORE.SYSTEM>
-18.7058

>  <SCORE.SYSTEM.CONST>
0

>  <SCORE.SYSTEM.DIHEDRAL>
4.87287

>  <SCORE.SYSTEM.POLAR>
-2.7135

>  <SCORE.SYSTEM.SOLV>
0.785611

>  <SCORE.SYSTEM.VDW>
-5.31172

>  <SCORE.SYSTEM.norm>
-1.87058

>  <SCORE.heavy>
10

>  <SCORE.norm>
-4.47289

$$$$
P151032918
 OpenBabel12072022103D
libRbt.so/2013.1/901 2013/11/27
 16 16  0  0  0  0  0  0  0  0999 V2000
   18.9927  -18.7860    5.6612 C   0  0  0  0  0  0  0  0  0  0  0  0
   20.0408  -18.4922    4.5963 C   0  0  1  0  0  0  0  0  0  0  0  0
   19.5732  -18.6274    3.1290 C   0  0  2  0  0  0  0  0  0  0  0  0
   20.5616  -17.7296    2.3520 C   0  0  1  0  0  0  0  0  0  0  0  0
   20.6320  -16.5078    3.2667 C   0  0  2  0  0  0  0  0  0  0  0  0
   20.7201  -17.1044    4.6850 C   0  0  1  0  0  0  0  0  0  0  0  0
   20.0713  -16.2206    5.5913 O   0  0  0  0  0  0  0  0  0  0  0  0
   19.3886  -15.7851    3.1529 O   0  0  0  0  0  0  0  0  0  0  0  0
   21.8193  -18.3761    2.2364 O   0  0  0  0  0  0  0  0  0  0  0  0
   18.1820  -18.1181    2.9364 N   0  3  0  0  0  0  0  0  0  0  0  0
   18.1872  -17.0791    3.0226 H   0  0  0  0  0  0  0  0  0  0  0  0
   17.8285  -18.3210    1.9936 H   0  0  0  0  0  0  0  0  0  0  0  0
   17.5077  -18.4907    3.6138 H   0  0  0  0  0  0  0  0  0  0  0  0
   20.5121  -16.3050    6.4600 H   0  0  0  0  0  0  0  0  0  0  0  0
   19.3678  -15.2246    3.9654 H   0  0  0  0  0  0  0  0  0  0  0  0
   22.0633  -18.7431    3.1091 H   0  0  0  0  0  0  0  0  0  0  0  0
  2  1  1  1  0  0  0
  2  3  1  0  0  0  0
  3 10  1  1  0  0  0
  3  4  1  0  0  0  0
  4  9  1  1  0  0  0
  4  5  1  0  0  0  0
  5  8  1  1  0  0  0
  5  6  1  0  0  0  0
  6  2  1  0  0  0  0
  6  7  1  1  0  0  0
  7 14  1  0  0  0  0
  8 15  1  0  0  0  0
  9 16  1  0  0  0  0
 10 11  1  0  0  0  0
 10 12  1  0  0  0  0
 10 13  1  0  0  0  0
M  CHG  1  10   1
M  END
>  <CHROM.0>
-52.17256638,52.65933182,-51.05758296,-53.24408045,-177.51263155,-57.88674707
-60.50498496,-53.66383759,-166.41343458,160.42038884

>  <CHROM.1>
70.80121401,-46.09727497,160.82494287,93.32058269,19.96745206,-17.53897891
3.77230781,2.27428789,0.92838666,0.78034648

>  <Name>
P151032918

>  <RI>
0

>  <Rbt.Current_Directory>
/home/fstefaniak/projects/zuza/docking/adenine/1Y26

>  <Rbt.Executable>
rbdock ($Id: //depot/dev/client3/rdock/2013.1/src/exe/rbdock.cxx#4 $)

>  <Rbt.Library>
libRbt.so (2013.1, Build901 2013/11/27)

>  <Rbt.Parameter_File>
/home/fstefaniak/progs/rDock//data/scripts/dock_solv.prm

>  <Rbt.Receptor>
1y26.prm

>  <SCORE>
-43.406

>  <SCORE.INTER>
-23.7886

>  <SCORE.INTER.CONST>
1

>  <SCORE.INTER.POLAR>
-3.81515

>  <SCORE.INTER.ROT>
0

>  <SCORE.INTER.SOLV>
20.4821

>  <SCORE.INTER.VDW>
-13.5693

>  <SCORE.INTER.norm>
-2.37886

>  <SCORE.INTRA>
1.97033

>  <SCORE.INTRA.DIHEDRAL>
3.41942

>  <SCORE.INTRA.DIHEDRAL.0>
3.92058

>  <SCORE.INTRA.POLAR>
-0.14674

>  <SCORE.INTRA.POLAR.0>
-0.96714

>  <SCORE.INTRA.REPUL>
0

>  <SCORE.INTRA.REPUL.0>
0

>  <SCORE.INTRA.SOLV>
-0.101304

>  <SCORE.INTRA.SOLV.lig_0>
-31.5703

>  <SCORE.INTRA.VDW>
0.810191

>  <SCORE.INTRA.VDW.0>
-0.300275

>  <SCORE.INTRA.norm>
0.197033

>  <SCORE.RESTR>
0

>  <SCORE.RESTR.CAVITY>
0

>  <SCORE.RESTR.norm>
0

>  <SCORE.SYSTEM>
-21.5877

>  <SCORE.SYSTEM.CONST>
0

>  <SCORE.SYSTEM.DIHEDRAL>
5.85639

>  <SCORE.SYSTEM.POLAR>
-3.51064

>  <SCORE.SYSTEM.SOLV>
0.567629

>  <SCORE.SYSTEM.VDW>
-4.83102

>  <SCORE.SYSTEM.norm>
-2.15877

>  <SCORE.heavy>
10

>  <SCORE.norm>
-4.3406

$$$$
P151033173
 OpenBabel12072022103D
libRbt.so/2013.1/901 2013/11/27
 12 12  0  0  0  0  0  0  0  0999 V2000
   21.5798  -15.1277    4.6022 C   0  0  0  0  0  0  0  0  0  0  0  0
   22.5741  -14.0355    5.0087 C   0  0  1  0  0  0  0  0  0  0  0  0
   24.0340  -14.4441    4.8141 C   0  0  0  0  0  0  0  0  0  0  0  0
   24.5362  -13.9774    3.4531 C   0  0  0  0  0  0  0  0  0  0  0  0
   23.4215  -13.7306    2.6016 O   0  0  0  0  0  0  0  0  0  0  0  0
   22.7235  -12.5828    3.0413 N   0  0  0  0  0  0  0  0  0  0  0  0
   22.2738  -12.7014    4.2567 C   0  0  0  0  0  0  0  0  0  0  0  0
   21.6317  -11.8550    4.9225 O   0  5  0  0  0  0  0  0  0  0  0  0
   22.3302  -13.7325    6.4622 N   0  3  0  0  0  0  0  0  0  0  0  0
   22.5509  -14.6721    6.8725 H   0  0  0  0  0  0  0  0  0  0  0  0
   22.9106  -13.0204    6.8948 H   0  0  0  0  0  0  0  0  0  0  0  0
   21.3325  -13.6563    6.6630 H   0  0  0  0  0  0  0  0  0  0  0  0
  2  3  1  0  0  0  0
  2  7  1  0  0  0  0
  2  9  1  0  0  0  0
  2  1  1  6  0  0  0
  3  4  1  0  0  0  0
  4  5  1  0  0  0  0
  5  6  1  0  0  0  0
  6  7  2  0  0  0  0
  7  8  1  0  0  0  0
  9 10  1  0  0  0  0
  9 11  1  0  0  0  0
  9 12  1  0  0  0  0
M  CHG  2   8  -1   9   1
M  END
>  <CHROM.0>
-46.92776217,-100.63158712,-55.12082004,-50.51634936,-172.51573190,-60.31996018
-59.90478615,-52.76981822,-166.57462155,161.17410594

>  <CHROM.1>
61.73315200,22.77131538,-13.57595857,4.38374095,-2.54050600,0.82486728,-0.82877323

>  <Name>
P151033173

>  <RI>
0

>  <Rbt.Current_Directory>
/home/fstefaniak/projects/zuza/docking/adenine/1Y26

>  <Rbt.Executable>
rbdock ($Id: //depot/dev/client3/rdock/2013.1/src/exe/rbdock.cxx#4 $)

>  <Rbt.Library>
libRbt.so (2013.1, Build901 2013/11/27)

>  <Rbt.Parameter_File>
/home/fstefaniak/progs/rDock//data/scripts/dock_solv.prm

>  <Rbt.Receptor>
1y26.prm

>  <SCORE>
-47.3061

>  <SCORE.INTER>
-26.1795

>  <SCORE.INTER.CONST>
1

>  <SCORE.INTER.POLAR>
-4.37803

>  <SCORE.INTER.ROT>
0

>  <SCORE.INTER.SOLV>
16.2457

>  <SCORE.INTER.VDW>
-11.8748

>  <SCORE.INTER.norm>
-2.90883

>  <SCORE.INTRA>
-1.21205

>  <SCORE.INTRA.DIHEDRAL>
-1.33628

>  <SCORE.INTRA.DIHEDRAL.0>
1.49454

>  <SCORE.INTRA.POLAR>
0

>  <SCORE.INTRA.POLAR.0>
0

>  <SCORE.INTRA.REPUL>
0

>  <SCORE.INTRA.REPUL.0>
0

>  <SCORE.INTRA.SOLV>
-0.666391

>  <SCORE.INTRA.SOLV.lig_0>
-40.4381

>  <SCORE.INTRA.VDW>
-0.210719

>  <SCORE.INTRA.VDW.0>
1.31266

>  <SCORE.INTRA.norm>
-0.134673

>  <SCORE.RESTR>
0.0453434

>  <SCORE.RESTR.CAVITY>
0.0453434

>  <SCORE.RESTR.norm>
0.00503815

>  <SCORE.SYSTEM>
-19.9599

>  <SCORE.SYSTEM.CONST>
0

>  <SCORE.SYSTEM.DIHEDRAL>
11.51

>  <SCORE.SYSTEM.POLAR>
-3.54707

>  <SCORE.SYSTEM.SOLV>
0.471307

>  <SCORE.SYSTEM.VDW>
-5.47683

>  <SCORE.SYSTEM.norm>
-2.21777

>  <SCORE.heavy>
9

>  <SCORE.norm>
-5.25623

$$$$
P151033173
 OpenBabel12072022103D
libRbt.so/2013.1/901 2013/11/27
 12 12  0  0  0  0  0  0  0  0999 V2000
   21.5728  -15.1167    4.5866 C   0  0  0  0  0  0  0  0  0  0  0  0
   22.5737  -14.0297    4.9913 C   0  0  1  0  0  0  0  0  0  0  0  0
   24.0311  -14.4485    4.8002 C   0  0  0  0  0  0  0  0  0  0  0  0
   24.5385  -13.9893    3.4385 C   0  0  0  0  0  0  0  0  0  0  0  0
   23.4267  -13.7378    2.5846 O   0  0  0  0  0  0  0  0  0  0  0  0
   22.7356  -12.5842    3.0196 N   0  0  0  0  0  0  0  0  0  0  0  0
   22.2833  -12.6961    4.2347 C   0  0  0  0  0  0  0  0  0  0  0  0
   21.6457  -11.8433    4.8969 O   0  5  0  0  0  0  0  0  0  0  0  0
   22.3295  -13.7206    6.4435 N   0  3  0  0  0  0  0  0  0  0  0  0
   22.5588  -14.6560    6.8586 H   0  0  0  0  0  0  0  0  0  0  0  0
   22.9045  -13.0012    6.8711 H   0  0  0  0  0  0  0  0  0  0  0  0
   21.3315  -13.6517    6.6455 H   0  0  0  0  0  0  0  0  0  0  0  0
  2  3  1  0  0  0  0
  2  7  1  0  0  0  0
  2  9  1  0  0  0  0
  2  1  1  6  0  0  0
  3  4  1  0  0  0  0
  4  5  1  0  0  0  0
  5  6  1  0  0  0  0
  6  7  2  0  0  0  0
  7  8  1  0  0  0  0
  9 10  1  0  0  0  0
  9 11  1  0  0  0  0
  9 12  1  0  0  0  0
M  CHG  2   8  -1   9   1
M  END
>  <CHROM.0>
-51.66463775,-99.58769950,-57.02898005,-52.10512671,-176.85236882,57.08282560
-60.51234024,-53.38961308,-166.73225472,160.60436424

>  <CHROM.1>
62.62255446,22.77485473,-13.57343107,4.36520540,-2.54864992,0.82869090,-0.82587317

>  <Name>
P151033173

>  <RI>
0

>  <Rbt.Current_Directory>
/home/fstefaniak/projects/zuza/docking/adenine/1Y26

>  <Rbt.Executable>
rbdock ($Id: //depot/dev/client3/rdock/2013.1/src/exe/rbdock.cxx#4 $)

>  <Rbt.Library>
libRbt.so (2013.1, Build901 2013/11/27)

>  <Rbt.Parameter_File>
/home/fstefaniak/progs/rDock//data/scripts/dock_solv.prm

>  <Rbt.Receptor>
1y26.prm

>  <SCORE>
-46.5032

>  <SCORE.INTER>
-26.1406

>  <SCORE.INTER.CONST>
1

>  <SCORE.INTER.POLAR>
-4.35005

>  <SCORE.INTER.ROT>
0

>  <SCORE.INTER.SOLV>
16.0789

>  <SCORE.INTER.VDW>
-11.8865

>  <SCORE.INTER.norm>
-2.90451

>  <SCORE.INTRA>
-1.20125

>  <SCORE.INTRA.DIHEDRAL>
-1.3182

>  <SCORE.INTRA.DIHEDRAL.0>
1.49454

>  <SCORE.INTRA.POLAR>
0

>  <SCORE.INTRA.POLAR.0>
0

>  <SCORE.INTRA.REPUL>
0

>  <SCORE.INTRA.REPUL.0>
0

>  <SCORE.INTRA.SOLV>
-0.665179

>  <SCORE.INTRA.SOLV.lig_0>
-40.4381

>  <SCORE.INTRA.VDW>
-0.209557

>  <SCORE.INTRA.VDW.0>
1.31266

>  <SCORE.INTRA.norm>
-0.133472

>  <SCORE.RESTR>
0.0614159

>  <SCORE.RESTR.CAVITY>
0.0614159

>  <SCORE.RESTR.norm>
0.00682399

>  <SCORE.SYSTEM>
-19.2228

>  <SCORE.SYSTEM.CONST>
0

>  <SCORE.SYSTEM.DIHEDRAL>
10.5463

>  <SCORE.SYSTEM.POLAR>
-3.44877

>  <SCORE.SYSTEM.SOLV>
0.299291

>  <SCORE.SYSTEM.VDW>
-4.93451

>  <SCORE.SYSTEM.norm>
-2.13586

>  <SCORE.heavy>
9

>  <SCORE.norm>
-5.16702

$$$$
P151033173
 OpenBabel12072022103D
libRbt.so/2013.1/901 2013/11/27
 12 12  0  0  0  0  0  0  0  0999 V2000
   21.5574  -15.1337    4.5740 C   0  0  0  0  0  0  0  0  0  0  0  0
   22.5608  -14.0518    4.9859 C   0  0  1  0  0  0  0  0  0  0  0  0
   24.0170  -14.4684    4.7816 C   0  0  0  0  0  0  0  0  0  0  0  0
   24.5167  -13.9932    3.4226 C   0  0  0  0  0  0  0  0  0  0  0  0
   23.4002  -13.7315    2.5780 O   0  0  0  0  0  0  0  0  0  0  0  0
   22.7118  -12.5830    3.0306 N   0  0  0  0  0  0  0  0  0  0  0  0
   22.2664  -12.7092    4.2468 C   0  0  0  0  0  0  0  0  0  0  0  0
   21.6328  -11.8643    4.9226 O   0  5  0  0  0  0  0  0  0  0  0  0
   22.3249  -13.7599    6.4430 N   0  3  0  0  0  0  0  0  0  0  0  0
   22.5459  -14.7031    6.8446 H   0  0  0  0  0  0  0  0  0  0  0  0
   22.9089  -13.0523    6.8782 H   0  0  0  0  0  0  0  0  0  0  0  0
   21.3284  -13.6833    6.6495 H   0  0  0  0  0  0  0  0  0  0  0  0
  2  3  1  0  0  0  0
  2  7  1  0  0  0  0
  2  9  1  0  0  0  0
  2  1  1  6  0  0  0
  3  4  1  0  0  0  0
  4  5  1  0  0  0  0
  5  6  1  0  0  0  0
  6  7  2  0  0  0  0
  7  8  1  0  0  0  0
  9 10  1  0  0  0  0
  9 11  1  0  0  0  0
  9 12  1  0  0  0  0
M  CHG  2   8  -1   9   1
M  END
>  <CHROM.0>
60.57376824,-98.51179875,-53.67101378,-50.60825119,-173.61721736,58.25028893
-58.81515839,65.84547385,-166.83723509,160.82614117

>  <CHROM.1>
62.01689730,22.75845764,-13.58811520,4.36411897,-2.54273062,0.83264885,-0.81840126

>  <Name>
P151033173

>  <RI>
0

>  <Rbt.Current_Directory>
/home/fstefaniak/projects/zuza/docking/adenine/1Y26

>  <Rbt.Executable>
rbdock ($Id: //depot/dev/client3/rdock/2013.1/src/exe/rbdock.cxx#4 $)

>  <Rbt.Library>
libRbt.so (2013.1, Build901 2013/11/27)

>  <Rbt.Parameter_File>
/home/fstefaniak/progs/rDock//data/scripts/dock_solv.prm

>  <Rbt.Receptor>
1y26.prm

>  <SCORE>
-44.5889

>  <SCORE.INTER>
-25.9461

>  <SCORE.INTER.CONST>
1

>  <SCORE.INTER.POLAR>
-4.34725

>  <SCORE.INTER.ROT>
0

>  <SCORE.INTER.SOLV>
16.284

>  <SCORE.INTER.VDW>
-11.8345

>  <SCORE.INTER.norm>
-2.8829

>  <SCORE.INTRA>
-1.20914

>  <SCORE.INTRA.DIHEDRAL>
-1.33089

>  <SCORE.INTRA.DIHEDRAL.0>
1.49454

>  <SCORE.INTRA.POLAR>
0

>  <SCORE.INTRA.POLAR.0>
0

>  <SCORE.INTRA.REPUL>
0

>  <SCORE.INTRA.REPUL.0>
0

>  <SCORE.INTRA.SOLV>
-0.666014

>  <SCORE.INTRA.SOLV.lig_0>
-40.4381

>  <SCORE.INTRA.VDW>
-0.210691

>  <SCORE.INTRA.VDW.0>
1.31266

>  <SCORE.INTRA.norm>
-0.134349

>  <SCORE.RESTR>
0.0357202

>  <SCORE.RESTR.CAVITY>
0.0357202

>  <SCORE.RESTR.norm>
0.00396891

>  <SCORE.SYSTEM>
-17.4694

>  <SCORE.SYSTEM.CONST>
0

>  <SCORE.SYSTEM.DIHEDRAL>
10.3279

>  <SCORE.SYSTEM.POLAR>
-3.26549

>  <SCORE.SYSTEM.SOLV>
0.0571567

>  <SCORE.SYSTEM.VDW>
-4.22294

>  <SCORE.SYSTEM.norm>
-1.94104

>  <SCORE.heavy>
9

>  <SCORE.norm>
-4.95432

$$$$
P151076806
 OpenBabel12072022103D
libRbt.so/2013.1/901 2013/11/27
 17 18  0  0  0  0  0  0  0  0999 V2000
   25.9939  -12.8654    4.5502 C   0  0  0  0  0  0  0  0  0  0  0  0
   24.6549  -13.1987    3.8686 C   0  0  0  0  0  0  0  0  0  0  0  0
   24.0503  -14.5184    4.4558 C   0  0  1  0  0  0  0  0  0  0  0  0
   23.0849  -13.6737    5.3248 C   0  0  1  0  0  0  0  0  0  0  0  0
   23.3665  -12.4536    4.4050 C   0  0  2  0  0  0  0  0  0  0  0  0
   22.3657  -11.9564    3.3492 C   0  0  0  0  0  0  0  0  0  0  0  0
   21.1828  -11.9168    3.8357 O   0  0  0  0  0  0  0  0  0  0  0  0
   22.6996  -11.7802    2.1529 O   0  5  0  0  0  0  0  0  0  0  0  0
   23.6893  -11.2035    5.2069 N   0  3  0  0  0  0  0  0  0  0  0  0
   24.0014  -10.3794    4.7052 H   0  0  0  0  0  0  0  0  0  0  0  0
   22.7731  -11.0206    5.6952 H   0  0  0  0  0  0  0  0  0  0  0  0
   24.2986  -11.4475    5.9951 H   0  0  0  0  0  0  0  0  0  0  0  0
   21.7317  -14.3182    5.6217 C   0  0  0  0  0  0  0  0  0  0  0  0
   21.2581  -15.3167    4.5646 C   0  0  0  0  0  0  0  0  0  0  0  0
   22.3762  -16.2101    4.0501 C   0  0  0  0  0  0  0  0  0  0  0  0
   23.4289  -15.4135    3.5165 O   0  0  0  0  0  0  0  0  0  0  0  0
   24.8518  -13.2020    2.3495 C   0  0  0  0  0  0  0  0  0  0  0  0
  1  2  1  0  0  0  0
  2  3  1  0  0  0  0
  2  5  1  0  0  0  0
  2 17  1  0  0  0  0
  3 16  1  6  0  0  0
  3  4  1  0  0  0  0
  4 13  1  6  0  0  0
  4  5  1  0  0  0  0
  5  6  1  6  0  0  0
  5  9  1  0  0  0  0
  6  7  2  0  0  0  0
  6  8  1  0  0  0  0
  9 10  1  0  0  0  0
  9 11  1  0  0  0  0
  9 12  1  0  0  0  0
 13 14  1  0  0  0  0
 14 15  1  0  0  0  0
 15 16  1  0  0  0  0
M  CHG  2   8  -1   9   1
M  END
>  <CHROM.0>
-47.28568643,-70.35186959,-55.85602641,-51.71707181,-175.39463232,-60.58706468
-60.54573028,63.43649426,-166.57127197,160.46655845

>  <CHROM.1>
152.00192554,74.12041546,23.19094560,-13.39777596,4.07475917,-1.10492675
-0.12170495,2.99834087

>  <Name>
P151076806

>  <RI>
0

>  <Rbt.Current_Directory>
/home/fstefaniak/projects/zuza/docking/adenine/1Y26

>  <Rbt.Executable>
rbdock ($Id: //depot/dev/client3/rdock/2013.1/src/exe/rbdock.cxx#4 $)

>  <Rbt.Library>
libRbt.so (2013.1, Build901 2013/11/27)

>  <Rbt.Parameter_File>
/home/fstefaniak/progs/rDock//data/scripts/dock_solv.prm

>  <Rbt.Receptor>
1y26.prm

>  <SCORE>
-30.3263

>  <SCORE.INTER>
-13.2281

>  <SCORE.INTER.CONST>
1

>  <SCORE.INTER.POLAR>
-1.55589

>  <SCORE.INTER.ROT>
1

>  <SCORE.INTER.SOLV>
10.3333

>  <SCORE.INTER.VDW>
-11.3435

>  <SCORE.INTER.norm>
-0.944866

>  <SCORE.INTRA>
0.906901

>  <SCORE.INTRA.DIHEDRAL>
-0.499213

>  <SCORE.INTRA.DIHEDRAL.0>
1.54845

>  <SCORE.INTRA.POLAR>
0

>  <SCORE.INTRA.POLAR.0>
0

>  <SCORE.INTRA.REPUL>
0

>  <SCORE.INTRA.REPUL.0>
0

>  <SCORE.INTRA.SOLV>
-0.955579

>  <SCORE.INTRA.SOLV.lig_0>
-39.0855

>  <SCORE.INTRA.VDW>
1.6343

>  <SCORE.INTRA.VDW.0>
0.00164971

>  <SCORE.INTRA.norm>
0.0647787

>  <SCORE.RESTR>
3.29867

>  <SCORE.RESTR.CAVITY>
3.29867

>  <SCORE.RESTR.norm>
0.235619

>  <SCORE.SYSTEM>
-21.3037

>  <SCORE.SYSTEM.CONST>
0

>  <SCORE.SYSTEM.DIHEDRAL>
6.27696

>  <SCORE.SYSTEM.POLAR>
-3.50884

>  <SCORE.SYSTEM.SOLV>
0.257055

>  <SCORE.SYSTEM.VDW>
-4.68437

>  <SCORE.SYSTEM.norm>
-1.52169

>  <SCORE.heavy>
14

>  <SCORE.norm>
-2.16616

$$$$
P151076806
 OpenBabel12072022103D
libRbt.so/2013.1/901 2013/11/27
 17 18  0  0  0  0  0  0  0  0999 V2000
   26.2055  -12.9807    4.7698 C   0  0  0  0  0  0  0  0  0  0  0  0
   24.9919  -13.4064    3.9245 C   0  0  0  0  0  0  0  0  0  0  0  0
   24.3822  -14.7424    4.4679 C   0  0  1  0  0  0  0  0  0  0  0  0
   23.2640  -13.9313    5.1695 C   0  0  1  0  0  0  0  0  0  0  0  0
   23.6049  -12.7215    4.2563 C   0  0  2  0  0  0  0  0  0  0  0  0
   22.7336  -12.3089    3.0587 C   0  0  0  0  0  0  0  0  0  0  0  0
   22.6784  -13.2535    2.1973 O   0  0  0  0  0  0  0  0  0  0  0  0
   22.2954  -11.1404    2.9313 O   0  5  0  0  0  0  0  0  0  0  0  0
   23.7488  -11.4349    5.0525 N   0  3  0  0  0  0  0  0  0  0  0  0
   24.2256  -11.4752    5.9465 H   0  0  0  0  0  0  0  0  0  0  0  0
   24.2740  -10.8218    4.3746 H   0  0  0  0  0  0  0  0  0  0  0  0
   22.8422  -10.9578    5.1031 H   0  0  0  0  0  0  0  0  0  0  0  0
   21.9184  -14.6432    5.3016 C   0  0  0  0  0  0  0  0  0  0  0  0
   21.6472  -15.6938    4.2239 C   0  0  0  0  0  0  0  0  0  0  0  0
   22.8704  -16.5357    3.8956 C   0  0  0  0  0  0  0  0  0  0  0  0
   23.9432  -15.6951    3.4834 O   0  0  0  0  0  0  0  0  0  0  0  0
   25.3951  -13.4378    2.4471 C   0  0  0  0  0  0  0  0  0  0  0  0
  1  2  1  0  0  0  0
  2  3  1  0  0  0  0
  2  5  1  0  0  0  0
  2 17  1  0  0  0  0
  3 16  1  6  0  0  0
  3  4  1  0  0  0  0
  4 13  1  6  0  0  0
  4  5  1  0  0  0  0
  5  6  1  6  0  0  0
  5  9  1  0  0  0  0
  6  7  2  0  0  0  0
  6  8  1  0  0  0  0
  9 10  1  0  0  0  0
  9 11  1  0  0  0  0
  9 12  1  0  0  0  0
 13 14  1  0  0  0  0
 14 15  1  0  0  0  0
 15 16  1  0  0  0  0
M  CHG  2   8  -1   9   1
M  END
>  <CHROM.0>
61.22416584,-62.10936636,-50.65612490,-51.83704160,-54.82542073,-61.19210168
-60.94588056,-51.00812699,-167.49396680,58.54004167

>  <CHROM.1>
46.04253613,-57.89778735,23.54796786,-13.67489544,3.92134722,-1.28087746
0.11267759,3.00166388

>  <Name>
P151076806

>  <RI>
0

>  <Rbt.Current_Directory>
/home/fstefaniak/projects/zuza/docking/adenine/1Y26

>  <Rbt.Executable>
rbdock ($Id: //depot/dev/client3/rdock/2013.1/src/exe/rbdock.cxx#4 $)

>  <Rbt.Library>
libRbt.so (2013.1, Build901 2013/11/27)

>  <Rbt.Parameter_File>
/home/fstefaniak/progs/rDock//data/scripts/dock_solv.prm

>  <Rbt.Receptor>
1y26.prm

>  <SCORE>
-25.1143

>  <SCORE.INTER>
-11.3574

>  <SCORE.INTER.CONST>
1

>  <SCORE.INTER.POLAR>
-1.76121

>  <SCORE.INTER.ROT>
1

>  <SCORE.INTER.SOLV>
10.533

>  <SCORE.INTER.VDW>
-9.47855

>  <SCORE.INTER.norm>
-0.811242

>  <SCORE.INTRA>
-0.25504

>  <SCORE.INTRA.DIHEDRAL>
-0.300292

>  <SCORE.INTRA.DIHEDRAL.0>
1.54845

>  <SCORE.INTRA.POLAR>
0

>  <SCORE.INTRA.POLAR.0>
0

>  <SCORE.INTRA.REPUL>
0

>  <SCORE.INTRA.REPUL.0>
0

>  <SCORE.INTRA.SOLV>
-0.112322

>  <SCORE.INTRA.SOLV.lig_0>
-39.0855

>  <SCORE.INTRA.VDW>
-0.0487335

>  <SCORE.INTRA.VDW.0>
0.00164971

>  <SCORE.INTRA.norm>
-0.0182172

>  <SCORE.RESTR>
3.50739

>  <SCORE.RESTR.CAVITY>
3.50739

>  <SCORE.RESTR.norm>
0.250528

>  <SCORE.SYSTEM>
-17.0092

>  <SCORE.SYSTEM.CONST>
0

>  <SCORE.SYSTEM.DIHEDRAL>
4.0458

>  <SCORE.SYSTEM.POLAR>
-2.44736

>  <SCORE.SYSTEM.SOLV>
0.586752

>  <SCORE.SYSTEM.VDW>
-4.7258

>  <SCORE.SYSTEM.norm>
-1.21494

>  <SCORE.heavy>
14

>  <SCORE.norm>
-1.79388

$$$$
P151076806
 OpenBabel12072022103D
libRbt.so/2013.1/901 2013/11/27
 17 18  0  0  0  0  0  0  0  0999 V2000
   25.8601  -12.8943    4.6413 C   0  0  0  0  0  0  0  0  0  0  0  0
   24.6011  -13.3167    3.8636 C   0  0  0  0  0  0  0  0  0  0  0  0
   24.0355  -14.6665    4.4204 C   0  0  1  0  0  0  0  0  0  0  0  0
   22.9554  -13.8765    5.2013 C   0  0  1  0  0  0  0  0  0  0  0  0
   23.2315  -12.6492    4.2895 C   0  0  2  0  0  0  0  0  0  0  0  0
   22.2865  -12.2248    3.1534 C   0  0  0  0  0  0  0  0  0  0  0  0
   21.1401  -11.9013    3.6205 O   0  0  0  0  0  0  0  0  0  0  0  0
   22.6055  -12.3499    1.9467 O   0  5  0  0  0  0  0  0  0  0  0  0
   23.4133  -11.3744    5.0968 N   0  3  0  0  0  0  0  0  0  0  0  0
   22.5835  -10.8839    5.4116 H   0  0  0  0  0  0  0  0  0  0  0  0
   23.9785  -11.7198    5.9169 H   0  0  0  0  0  0  0  0  0  0  0  0
   24.0866  -10.7610    4.6252 H   0  0  0  0  0  0  0  0  0  0  0  0
   21.6257  -14.6019    5.4022 C   0  0  0  0  0  0  0  0  0  0  0  0
   21.2980  -15.6372    4.3254 C   0  0  0  0  0  0  0  0  0  0  0  0
   22.5055  -16.4633    3.9103 C   0  0  0  0  0  0  0  0  0  0  0  0
   23.5452  -15.6069    3.4483 O   0  0  0  0  0  0  0  0  0  0  0  0
   24.9148  -13.3208    2.3643 C   0  0  0  0  0  0  0  0  0  0  0  0
  1  2  1  0  0  0  0
  2  3  1  0  0  0  0
  2  5  1  0  0  0  0
  2 17  1  0  0  0  0
  3 16  1  6  0  0  0
  3  4  1  0  0  0  0
  4 13  1  6  0  0  0
  4  5  1  0  0  0  0
  5  6  1  6  0  0  0
  5  9  1  0  0  0  0
  6  7  2  0  0  0  0
  6  8  1  0  0  0  0
  9 10  1  0  0  0  0
  9 11  1  0  0  0  0
  9 12  1  0  0  0  0
 13 14  1  0  0  0  0
 14 15  1  0  0  0  0
 15 16  1  0  0  0  0
M  CHG  2   8  -1   9   1
M  END
>  <CHROM.0>
-51.39372143,-67.29264356,-57.47174849,-51.05687719,-177.99086321,58.14224459
-62.22823261,-176.34144241,-55.91123408,60.62403561

>  <CHROM.1>
169.68381788,-179.87842433,23.14126916,-13.60196015,3.96187710,-1.20229801
-0.04926557,3.01531674

>  <Name>
P151076806

>  <RI>
0

>  <Rbt.Current_Directory>
/home/fstefaniak/projects/zuza/docking/adenine/1Y26

>  <Rbt.Executable>
rbdock ($Id: //depot/dev/client3/rdock/2013.1/src/exe/rbdock.cxx#4 $)

>  <Rbt.Library>
libRbt.so (2013.1, Build901 2013/11/27)

>  <Rbt.Parameter_File>
/home/fstefaniak/progs/rDock//data/scripts/dock_solv.prm

>  <Rbt.Receptor>
1y26.prm

>  <SCORE>
-17.2484

>  <SCORE.INTER>
-10.2638

>  <SCORE.INTER.CONST>
1

>  <SCORE.INTER.POLAR>
-1.27263

>  <SCORE.INTER.ROT>
1

>  <SCORE.INTER.SOLV>
11.6739

>  <SCORE.INTER.VDW>
-10.7584

>  <SCORE.INTER.norm>
-0.733127

>  <SCORE.INTRA>
2.37934

>  <SCORE.INTRA.DIHEDRAL>
-0.218109

>  <SCORE.INTRA.DIHEDRAL.0>
1.54845

>  <SCORE.INTRA.POLAR>
0

>  <SCORE.INTRA.POLAR.0>
0

>  <SCORE.INTRA.REPUL>
0

>  <SCORE.INTRA.REPUL.0>
0

>  <SCORE.INTRA.SOLV>
-0.879549

>  <SCORE.INTRA.SOLV.lig_0>
-39.0855

>  <SCORE.INTRA.VDW>
2.92817

>  <SCORE.INTRA.VDW.0>
0.00164971

>  <SCORE.INTRA.norm>
0.169953

>  <SCORE.RESTR>
2.43598

>  <SCORE.RESTR.CAVITY>
2.43598

>  <SCORE.RESTR.norm>
0.173999

>  <SCORE.SYSTEM>
-11.8

>  <SCORE.SYSTEM.CONST>
0

>  <SCORE.SYSTEM.DIHEDRAL>
3.31003

>  <SCORE.SYSTEM.POLAR>
-1.56798

>  <SCORE.SYSTEM.SOLV>
0.24053

>  <SCORE.SYSTEM.VDW>
-3.82357

>  <SCORE.SYSTEM.norm>
-0.842856

>  <SCORE.heavy>
14

>  <SCORE.norm>
-1.23203

$$$$
P151246905
 OpenBabel12072022103D
libRbt.so/2013.1/901 2013/11/27
 11 11  0  0  0  0  0  0  0  0999 V2000
   21.9738  -13.8970    5.8989 C   0  0  0  0  0  0  0  0  0  0  0  0
   21.9495  -13.9724    4.3660 C   0  0  1  0  0  0  0  0  0  0  0  0
   23.0931  -13.1271    3.7707 C   0  0  0  0  0  0  0  0  0  0  0  0
   24.4653  -13.7891    3.9365 C   0  0  0  0  0  0  0  0  0  0  0  0
   24.4857  -15.1391    3.3683 N   0  0  0  0  0  0  0  0  0  0  0  0
   23.4555  -16.0003    3.9727 C   0  0  0  0  0  0  0  0  0  0  0  0
   22.0629  -15.3952    3.7887 C   0  0  1  0  0  0  0  0  0  0  0  0
   21.0162  -16.2987    4.3859 N   0  3  0  0  0  0  0  0  0  0  0  0
   19.8245  -16.0395    4.1716 O   0  0  0  0  0  0  0  0  0  0  0  0
   21.4277  -17.2629    5.0447 O   0  5  0  0  0  0  0  0  0  0  0  0
   25.4064  -15.5548    3.5207 H   0  0  0  0  0  0  0  0  0  0  0  0
  2  1  1  1  0  0  0
  2  3  1  0  0  0  0
  2  7  1  0  0  0  0
  3  4  1  0  0  0  0
  4  5  1  0  0  0  0
  5  6  1  0  0  0  0
  5 11  1  0  0  0  0
  6  7  1  0  0  0  0
  7  8  1  1  0  0  0
  8  9  2  0  0  0  0
  8 10  1  0  0  0  0
M  CHG  2   8   1  10  -1
M  END
>  <CHROM.0>
-50.95830344,-70.52449974,-53.46781196,-52.98219918,-57.60000937,-176.27052223
-60.04688863,-52.46888474,-166.62400210,162.47228491

>  <CHROM.1>
63.45912279,22.35098859,-15.13522260,4.28861030,0.57313836,0.32515537,0.17055385

>  <Name>
P151246905

>  <RI>
0

>  <Rbt.Current_Directory>
/home/fstefaniak/projects/zuza/docking/adenine/1Y26

>  <Rbt.Executable>
rbdock ($Id: //depot/dev/client3/rdock/2013.1/src/exe/rbdock.cxx#4 $)

>  <Rbt.Library>
libRbt.so (2013.1, Build901 2013/11/27)

>  <Rbt.Parameter_File>
/home/fstefaniak/progs/rDock//data/scripts/dock_solv.prm

>  <Rbt.Receptor>
1y26.prm

>  <SCORE>
-32.8052

>  <SCORE.INTER>
-11.9259

>  <SCORE.INTER.CONST>
1

>  <SCORE.INTER.POLAR>
-1.45511

>  <SCORE.INTER.ROT>
1

>  <SCORE.INTER.SOLV>
6.81646

>  <SCORE.INTER.VDW>
-9.63906

>  <SCORE.INTER.norm>
-1.19259

>  <SCORE.INTRA>
0.864306

>  <SCORE.INTRA.DIHEDRAL>
-0.0661284

>  <SCORE.INTRA.DIHEDRAL.0>
2.45713

>  <SCORE.INTRA.POLAR>
0

>  <SCORE.INTRA.POLAR.0>
0

>  <SCORE.INTRA.REPUL>
0

>  <SCORE.INTRA.REPUL.0>
0

>  <SCORE.INTRA.SOLV>
0.0159773

>  <SCORE.INTRA.SOLV.lig_0>
-7.17545

>  <SCORE.INTRA.VDW>
0.889382

>  <SCORE.INTRA.VDW.0>
0.168428

>  <SCORE.INTRA.norm>
0.0864306

>  <SCORE.RESTR>
0.0962387

>  <SCORE.RESTR.CAVITY>
0.0962387

>  <SCORE.RESTR.norm>
0.00962387

>  <SCORE.SYSTEM>
-21.8398

>  <SCORE.SYSTEM.CONST>
0

>  <SCORE.SYSTEM.DIHEDRAL>
5.86258

>  <SCORE.SYSTEM.POLAR>
-3.41714

>  <SCORE.SYSTEM.SOLV>
0.513775

>  <SCORE.SYSTEM.VDW>
-5.29488

>  <SCORE.SYSTEM.norm>
-2.18398

>  <SCORE.heavy>
10

>  <SCORE.norm>
-3.28052

$$$$
P151246905
 OpenBabel12072022103D
libRbt.so/2013.1/901 2013/11/27
 11 11  0  0  0  0  0  0  0  0999 V2000
   20.2473  -16.8720    5.2130 C   0  0  0  0  0  0  0  0  0  0  0  0
   20.2119  -18.2903    4.6272 C   0  0  1  0  0  0  0  0  0  0  0  0
   19.0597  -19.0997    5.2548 C   0  0  0  0  0  0  0  0  0  0  0  0
   17.6847  -18.6790    4.7246 C   0  0  0  0  0  0  0  0  0  0  0  0
   17.6217  -18.7593    3.2633 N   0  0  0  0  0  0  0  0  0  0  0  0
   18.6609  -17.9326    2.6269 C   0  0  0  0  0  0  0  0  0  0  0  0
   20.0546  -18.3520    3.0969 C   0  0  1  0  0  0  0  0  0  0  0  0
   21.1092  -17.5183    2.4177 N   0  3  0  0  0  0  0  0  0  0  0  0
   22.0088  -18.1003    1.7969 O   0  0  0  0  0  0  0  0  0  0  0  0
   20.9908  -16.2896    2.5142 O   0  5  0  0  0  0  0  0  0  0  0  0
   16.7013  -18.4479    2.9482 H   0  0  0  0  0  0  0  0  0  0  0  0
  2  1  1  1  0  0  0
  2  3  1  0  0  0  0
  2  7  1  0  0  0  0
  3  4  1  0  0  0  0
  4  5  1  0  0  0  0
  5  6  1  0  0  0  0
  5 11  1  0  0  0  0
  6  7  1  0  0  0  0
  7  8  1  6  0  0  0
  8  9  2  0  0  0  0
  8 10  1  0  0  0  0
M  CHG  2   8   1  10  -1
M  END
>  <CHROM.0>
-49.02744618,-59.55715453,-53.80770734,-52.46434794,-55.40374411,-59.92592762
-56.51198148,-176.72194321,-167.25191033,161.03953732

>  <CHROM.1>
109.49075142,19.78934866,-17.95828417,3.51852833,-2.60880449,-0.42153779
-1.63204841

>  <Name>
P151246905

>  <RI>
0

>  <Rbt.Current_Directory>
/home/fstefaniak/projects/zuza/docking/adenine/1Y26

>  <Rbt.Executable>
rbdock ($Id: //depot/dev/client3/rdock/2013.1/src/exe/rbdock.cxx#4 $)

>  <Rbt.Library>
libRbt.so (2013.1, Build901 2013/11/27)

>  <Rbt.Parameter_File>
/home/fstefaniak/progs/rDock//data/scripts/dock_solv.prm

>  <Rbt.Receptor>
1y26.prm

>  <SCORE>
-31.0787

>  <SCORE.INTER>
-8.66128

>  <SCORE.INTER.CONST>
1

>  <SCORE.INTER.POLAR>
-1.10352

>  <SCORE.INTER.ROT>
1

>  <SCORE.INTER.SOLV>
10.1141

>  <SCORE.INTER.VDW>
-9.73384

>  <SCORE.INTER.norm>
-0.866128

>  <SCORE.INTRA>
0.197615

>  <SCORE.INTRA.DIHEDRAL>
-0.0885814

>  <SCORE.INTRA.DIHEDRAL.0>
2.45713

>  <SCORE.INTRA.POLAR>
0

>  <SCORE.INTRA.POLAR.0>
0

>  <SCORE.INTRA.REPUL>
0

>  <SCORE.INTRA.REPUL.0>
0

>  <SCORE.INTRA.SOLV>
-0.0100166

>  <SCORE.INTRA.SOLV.lig_0>
-7.17545

>  <SCORE.INTRA.VDW>
0.246914

>  <SCORE.INTRA.VDW.0>
0.168428

>  <SCORE.INTRA.norm>
0.0197615

>  <SCORE.RESTR>
0

>  <SCORE.RESTR.CAVITY>
0

>  <SCORE.RESTR.norm>
0

>  <SCORE.SYSTEM>
-22.6151

>  <SCORE.SYSTEM.CONST>
0

>  <SCORE.SYSTEM.DIHEDRAL>
5.52639

>  <SCORE.SYSTEM.POLAR>
-3.46435

>  <SCORE.SYSTEM.SOLV>
0.466045

>  <SCORE.SYSTEM.VDW>
-5.52637

>  <SCORE.SYSTEM.norm>
-2.26151

>  <SCORE.heavy>
10

>  <SCORE.norm>
-3.10787

$$$$
P151246905
 OpenBabel12072022103D
libRbt.so/2013.1/901 2013/11/27
 11 11  0  0  0  0  0  0  0  0999 V2000
   20.2306  -16.8873    5.2483 C   0  0  0  0  0  0  0  0  0  0  0  0
   20.2035  -18.2948    4.6367 C   0  0  1  0  0  0  0  0  0  0  0  0
   19.0536  -19.1210    5.2466 C   0  0  0  0  0  0  0  0  0  0  0  0
   17.6779  -18.6972    4.7207 C   0  0  0  0  0  0  0  0  0  0  0  0
   17.6188  -18.7512    3.2581 N   0  0  0  0  0  0  0  0  0  0  0  0
   18.6554  -17.9081    2.6393 C   0  0  0  0  0  0  0  0  0  0  0  0
   20.0500  -18.3294    3.1051 C   0  0  1  0  0  0  0  0  0  0  0  0
   21.1022  -17.4784    2.4437 N   0  3  0  0  0  0  0  0  0  0  0  0
   20.9954  -16.2471    2.5197 O   0  0  0  0  0  0  0  0  0  0  0  0
   22.0244  -18.0794    1.8768 O   0  5  0  0  0  0  0  0  0  0  0  0
   16.6976  -18.4385    2.9464 H   0  0  0  0  0  0  0  0  0  0  0  0
  2  1  1  1  0  0  0
  2  3  1  0  0  0  0
  2  7  1  0  0  0  0
  3  4  1  0  0  0  0
  4  5  1  0  0  0  0
  5  6  1  0  0  0  0
  5 11  1  0  0  0  0
  6  7  1  0  0  0  0
  7  8  1  6  0  0  0
  8  9  2  0  0  0  0
  8 10  1  0  0  0  0
M  CHG  2   8   1  10  -1
M  END
>  <CHROM.0>
-49.29026688,-62.52276302,-56.17644844,-50.83314549,-57.76858063,-62.13335815
-63.48076848,-54.81723711,-166.98823806,160.42108580

>  <CHROM.1>
-72.82735346,19.78590490,-17.94793353,3.53533212,-2.61315246,-0.41821439
-1.60407196

>  <Name>
P151246905

>  <RI>
0

>  <Rbt.Current_Directory>
/home/fstefaniak/projects/zuza/docking/adenine/1Y26

>  <Rbt.Executable>
rbdock ($Id: //depot/dev/client3/rdock/2013.1/src/exe/rbdock.cxx#4 $)

>  <Rbt.Library>
libRbt.so (2013.1, Build901 2013/11/27)

>  <Rbt.Parameter_File>
/home/fstefaniak/progs/rDock//data/scripts/dock_solv.prm

>  <Rbt.Receptor>
1y26.prm

>  <SCORE>
-30.902

>  <SCORE.INTER>
-8.57556

>  <SCORE.INTER.CONST>
1

>  <SCORE.INTER.POLAR>
-1.10487

>  <SCORE.INTER.ROT>
1

>  <SCORE.INTER.SOLV>
10.1136

>  <SCORE.INTER.VDW>
-9.67198

>  <SCORE.INTER.norm>
-0.857556

>  <SCORE.INTRA>
-0.00467462

>  <SCORE.INTRA.DIHEDRAL>
-0.020025

>  <SCORE.INTRA.DIHEDRAL.0>
2.45713

>  <SCORE.INTRA.POLAR>
0

>  <SCORE.INTRA.POLAR.0>
0

>  <SCORE.INTRA.REPUL>
0

>  <SCORE.INTRA.REPUL.0>
0

>  <SCORE.INTRA.SOLV>
-0.0142506

>  <SCORE.INTRA.SOLV.lig_0>
-7.17545

>  <SCORE.INTRA.VDW>
0.0124632

>  <SCORE.INTRA.VDW.0>
0.168428

>  <SCORE.INTRA.norm>
-0.000467462

>  <SCORE.RESTR>
0

>  <SCORE.RESTR.CAVITY>
0

>  <SCORE.RESTR.norm>
0

>  <SCORE.SYSTEM>
-22.3218

>  <SCORE.SYSTEM.CONST>
0

>  <SCORE.SYSTEM.DIHEDRAL>
5.67946

>  <SCORE.SYSTEM.POLAR>
-3.50558

>  <SCORE.SYSTEM.SOLV>
0.646258

>  <SCORE.SYSTEM.VDW>
-5.30449

>  <SCORE.SYSTEM.norm>
-2.23218

>  <SCORE.heavy>
10

>  <SCORE.norm>
-3.0902

$$$$
P151250459
 OpenBabel12072022103D
libRbt.so/2013.1/901 2013/11/27
 15 16  0  0  0  0  0  0  0  0999 V2000
   18.2044  -18.6134    1.0305 C   0  0  0  0  0  0  0  0  0  0  0  0
   19.2201  -18.3243    2.0649 C   0  0  0  0  0  0  0  0  0  0  0  0
   19.1950  -18.3767    3.4424 C   0  0  0  0  0  0  0  0  0  0  0  0
   20.4867  -17.9706    3.8457 C   0  0  0  0  0  0  0  0  0  0  0  0
   21.2696  -17.6780    2.8171 N   0  0  0  0  0  0  0  0  0  0  0  0
   20.4881  -17.9085    1.7484 N   0  0  0  0  0  0  0  0  0  0  0  0
   20.8841  -17.7556    0.8273 H   0  0  0  0  0  0  0  0  0  0  0  0
   20.8257  -17.9150    5.1464 N   0  0  0  0  0  0  0  0  0  0  0  0
   19.7566  -17.9028    6.1475 C   0  0  0  0  0  0  0  0  0  0  0  0
   18.6853  -18.9852    5.8198 C   0  0  1  0  0  0  0  0  0  0  0  0
   18.1117  -18.7289    4.4007 C   0  0  0  0  0  0  0  0  0  0  0  0
   19.2789  -20.3374    5.9362 N   0  0  0  0  0  0  0  0  0  0  0  0
   21.6620  -17.3889    5.3743 H   0  0  0  0  0  0  0  0  0  0  0  0
   19.8266  -20.4921    5.0817 H   0  0  0  0  0  0  0  0  0  0  0  0
   18.5434  -21.0413    5.9147 H   0  0  0  0  0  0  0  0  0  0  0  0
  1  2  1  0  0  0  0
  2  3  2  0  0  0  0
  2  6  1  0  0  0  0
  3  4  1  0  0  0  0
  3 11  1  0  0  0  0
  4  5  2  0  0  0  0
  4  8  1  0  0  0  0
  5  6  1  0  0  0  0
  6  7  1  0  0  0  0
  8  9  1  0  0  0  0
  8 13  1  0  0  0  0
  9 10  1  0  0  0  0
 10 11  1  0  0  0  0
 10 12  1  6  0  0  0
 12 14  1  0  0  0  0
 12 15  1  0  0  0  0
M  END
>  <CHROM.0>
-47.16691941,-62.75979699,-53.69687809,-50.96891672,-57.06440352,-175.64922724
-62.32038501,-176.77751164,-167.13684178,161.31731441

>  <CHROM.1>
-78.14999419,19.60449774,-18.45631476,3.86382649,1.51960785,-0.49858362,-1.39716491

>  <Name>
P151250459

>  <RI>
0

>  <Rbt.Current_Directory>
/home/fstefaniak/projects/zuza/docking/adenine/1Y26

>  <Rbt.Executable>
rbdock ($Id: //depot/dev/client3/rdock/2013.1/src/exe/rbdock.cxx#4 $)

>  <Rbt.Library>
libRbt.so (2013.1, Build901 2013/11/27)

>  <Rbt.Parameter_File>
/home/fstefaniak/progs/rDock//data/scripts/dock_solv.prm

>  <Rbt.Receptor>
1y26.prm

>  <SCORE>
-50.9051

>  <SCORE.INTER>
-28.1944

>  <SCORE.INTER.CONST>
1

>  <SCORE.INTER.POLAR>
-3.7224

>  <SCORE.INTER.ROT>
1

>  <SCORE.INTER.SOLV>
15.5187

>  <SCORE.INTER.VDW>
-15.8278

>  <SCORE.INTER.norm>
-2.56312

>  <SCORE.INTRA>
-0.273429

>  <SCORE.INTRA.DIHEDRAL>
-0.144541

>  <SCORE.INTRA.DIHEDRAL.0>
0.507822

>  <SCORE.INTRA.POLAR>
0.0267913

>  <SCORE.INTRA.POLAR.0>
-0.0267913

>  <SCORE.INTRA.REPUL>
0

>  <SCORE.INTRA.REPUL.0>
0

>  <SCORE.INTRA.SOLV>
-0.0591632

>  <SCORE.INTRA.SOLV.lig_0>
-15.484

>  <SCORE.INTRA.VDW>
-0.262668

>  <SCORE.INTRA.VDW.0>
0.225154

>  <SCORE.INTRA.norm>
-0.0248572

>  <SCORE.RESTR>
0

>  <SCORE.RESTR.CAVITY>
0

>  <SCORE.RESTR.norm>
0

>  <SCORE.SYSTEM>
-22.4373

>  <SCORE.SYSTEM.CONST>
0

>  <SCORE.SYSTEM.DIHEDRAL>
5.84847

>  <SCORE.SYSTEM.POLAR>
-3.50874

>  <SCORE.SYSTEM.SOLV>
0.312061

>  <SCORE.SYSTEM.VDW>
-5.31592

>  <SCORE.SYSTEM.norm>
-2.03976

>  <SCORE.heavy>
11

>  <SCORE.norm>
-4.62774

$$$$
P151250459
 OpenBabel12072022103D
libRbt.so/2013.1/901 2013/11/27
 15 16  0  0  0  0  0  0  0  0999 V2000
   18.1842  -18.6132    1.0227 C   0  0  0  0  0  0  0  0  0  0  0  0
   19.2025  -18.3193    2.0531 C   0  0  0  0  0  0  0  0  0  0  0  0
   19.1820  -18.3686    3.4308 C   0  0  0  0  0  0  0  0  0  0  0  0
   20.4740  -17.9586    3.8290 C   0  0  0  0  0  0  0  0  0  0  0  0
   21.2528  -17.6665    2.7973 N   0  0  0  0  0  0  0  0  0  0  0  0
   20.4685  -17.9013    1.7316 N   0  0  0  0  0  0  0  0  0  0  0  0
   20.8612  -17.7496    0.8089 H   0  0  0  0  0  0  0  0  0  0  0  0
   20.8170  -17.8992    5.1285 N   0  0  0  0  0  0  0  0  0  0  0  0
   19.7510  -17.8872    6.1330 C   0  0  0  0  0  0  0  0  0  0  0  0
   18.6812  -18.9728    5.8112 C   0  0  1  0  0  0  0  0  0  0  0  0
   18.1025  -18.7211    4.3934 C   0  0  0  0  0  0  0  0  0  0  0  0
   19.2784  -20.3234    5.9289 N   0  0  0  0  0  0  0  0  0  0  0  0
   21.6528  -17.3706    5.3525 H   0  0  0  0  0  0  0  0  0  0  0  0
   19.8162  -20.4825    5.0687 H   0  0  0  0  0  0  0  0  0  0  0  0
   18.5439  -21.0285    5.9204 H   0  0  0  0  0  0  0  0  0  0  0  0
  1  2  1  0  0  0  0
  2  3  2  0  0  0  0
  2  6  1  0  0  0  0
  3  4  1  0  0  0  0
  3 11  1  0  0  0  0
  4  5  2  0  0  0  0
  4  8  1  0  0  0  0
  5  6  1  0  0  0  0
  6  7  1  0  0  0  0
  8  9  1  0  0  0  0
  8 13  1  0  0  0  0
  9 10  1  0  0  0  0
 10 11  1  0  0  0  0
 10 12  1  6  0  0  0
 12 14  1  0  0  0  0
 12 15  1  0  0  0  0
M  END
>  <CHROM.0>
-49.47372551,-57.60208523,61.33665955,-51.56504271,-56.84467689,-57.38097351
75.98429816,-174.96597776,-167.37602975,160.57740245

>  <CHROM.1>
-78.69876653,19.59290480,-18.44633182,3.85114098,1.52356729,-0.50041009,-1.39751168

>  <Name>
P151250459

>  <RI>
0

>  <Rbt.Current_Directory>
/home/fstefaniak/projects/zuza/docking/adenine/1Y26

>  <Rbt.Executable>
rbdock ($Id: //depot/dev/client3/rdock/2013.1/src/exe/rbdock.cxx#4 $)

>  <Rbt.Library>
libRbt.so (2013.1, Build901 2013/11/27)

>  <Rbt.Parameter_File>
/home/fstefaniak/progs/rDock//data/scripts/dock_solv.prm

>  <Rbt.Receptor>
1y26.prm

>  <SCORE>
-49.6935

>  <SCORE.INTER>
-28.1421

>  <SCORE.INTER.CONST>
1

>  <SCORE.INTER.POLAR>
-3.69399

>  <SCORE.INTER.ROT>
1

>  <SCORE.INTER.SOLV>
15.494

>  <SCORE.INTER.VDW>
-15.8794

>  <SCORE.INTER.norm>
-2.55837

>  <SCORE.INTRA>
-0.25727

>  <SCORE.INTRA.DIHEDRAL>
-0.12029

>  <SCORE.INTRA.DIHEDRAL.0>
0.507822

>  <SCORE.INTRA.POLAR>
0.0267913

>  <SCORE.INTRA.POLAR.0>
-0.0267913

>  <SCORE.INTRA.REPUL>
0

>  <SCORE.INTRA.REPUL.0>
0

>  <SCORE.INTRA.SOLV>
-0.060055

>  <SCORE.INTRA.SOLV.lig_0>
-15.484

>  <SCORE.INTRA.VDW>
-0.258188

>  <SCORE.INTRA.VDW.0>
0.225154

>  <SCORE.INTRA.norm>
-0.0233882

>  <SCORE.RESTR>
0

>  <SCORE.RESTR.CAVITY>
0

>  <SCORE.RESTR.norm>
0

>  <SCORE.SYSTEM>
-21.2942

>  <SCORE.SYSTEM.CONST>
0

>  <SCORE.SYSTEM.DIHEDRAL>
6.60777

>  <SCORE.SYSTEM.POLAR>
-3.74874

>  <SCORE.SYSTEM.SOLV>
0.284213

>  <SCORE.SYSTEM.VDW>
-3.99763

>  <SCORE.SYSTEM.norm>
-1.93583

>  <SCORE.heavy>
11

>  <SCORE.norm>
-4.51759

$$$$
P151250459
 OpenBabel12072022103D
libRbt.so/2013.1/901 2013/11/27
 15 16  0  0  0  0  0  0  0  0999 V2000
   18.2189  -18.6405    1.0135 C   0  0  0  0  0  0  0  0  0  0  0  0
   19.2289  -18.3322    2.0479 C   0  0  0  0  0  0  0  0  0  0  0  0
   19.2012  -18.3743    3.4257 C   0  0  0  0  0  0  0  0  0  0  0  0
   20.4873  -17.9509    3.8288 C   0  0  0  0  0  0  0  0  0  0  0  0
   21.2694  -17.6577    2.7998 N   0  0  0  0  0  0  0  0  0  0  0  0
   20.4930  -17.9050    1.7311 N   0  0  0  0  0  0  0  0  0  0  0  0
   20.8895  -17.7549    0.8097 H   0  0  0  0  0  0  0  0  0  0  0  0
   20.8226  -17.8815    5.1298 N   0  0  0  0  0  0  0  0  0  0  0  0
   19.7510  -17.8734    6.1284 C   0  0  0  0  0  0  0  0  0  0  0  0
   18.6925  -18.9699    5.8066 C   0  0  1  0  0  0  0  0  0  0  0  0
   18.1195  -18.7309    4.3843 C   0  0  0  0  0  0  0  0  0  0  0  0
   19.3006  -20.3146    5.9349 N   0  0  0  0  0  0  0  0  0  0  0  0
   21.6526  -17.3445    5.3555 H   0  0  0  0  0  0  0  0  0  0  0  0
   19.8469  -20.4725    5.0799 H   0  0  0  0  0  0  0  0  0  0  0  0
   18.5725  -21.0263    5.9234 H   0  0  0  0  0  0  0  0  0  0  0  0
  1  2  1  0  0  0  0
  2  3  2  0  0  0  0
  2  6  1  0  0  0  0
  3  4  1  0  0  0  0
  3 11  1  0  0  0  0
  4  5  2  0  0  0  0
  4  8  1  0  0  0  0
  5  6  1  0  0  0  0
  6  7  1  0  0  0  0
  8  9  1  0  0  0  0
  8 13  1  0  0  0  0
  9 10  1  0  0  0  0
 10 11  1  0  0  0  0
 10 12  1  6  0  0  0
 12 14  1  0  0  0  0
 12 15  1  0  0  0  0
M  END
>  <CHROM.0>
-53.27861906,-60.47237959,60.99408692,-52.32760901,-175.74740255,-61.08591502
77.87831325,-52.04104954,-167.10976747,160.38277630

>  <CHROM.1>
-78.52813467,19.61043377,-18.44612380,3.84871995,1.51903897,-0.50984575,-1.40514429

>  <Name>
P151250459

>  <RI>
0

>  <Rbt.Current_Directory>
/home/fstefaniak/projects/zuza/docking/adenine/1Y26

>  <Rbt.Executable>
rbdock ($Id: //depot/dev/client3/rdock/2013.1/src/exe/rbdock.cxx#4 $)

>  <Rbt.Library>
libRbt.so (2013.1, Build901 2013/11/27)

>  <Rbt.Parameter_File>
/home/fstefaniak/progs/rDock//data/scripts/dock_solv.prm

>  <Rbt.Receptor>
1y26.prm

>  <SCORE>
-49.2666

>  <SCORE.INTER>
-28.1001

>  <SCORE.INTER.CONST>
1

>  <SCORE.INTER.POLAR>
-3.73554

>  <SCORE.INTER.ROT>
1

>  <SCORE.INTER.SOLV>
15.481

>  <SCORE.INTER.VDW>
-15.7086

>  <SCORE.INTER.norm>
-2.55456

>  <SCORE.INTRA>
-0.262356

>  <SCORE.INTRA.DIHEDRAL>
-0.127904

>  <SCORE.INTRA.DIHEDRAL.0>
0.507822

>  <SCORE.INTRA.POLAR>
0.0267913

>  <SCORE.INTRA.POLAR.0>
-0.0267913

>  <SCORE.INTRA.REPUL>
0

>  <SCORE.INTRA.REPUL.0>
0

>  <SCORE.INTRA.SOLV>
-0.0597761

>  <SCORE.INTRA.SOLV.lig_0>
-15.484

>  <SCORE.INTRA.VDW>
-0.259607

>  <SCORE.INTRA.VDW.0>
0.225154

>  <SCORE.INTRA.norm>
-0.0238506

>  <SCORE.RESTR>
0

>  <SCORE.RESTR.CAVITY>
0

>  <SCORE.RESTR.norm>
0

>  <SCORE.SYSTEM>
-20.9041

>  <SCORE.SYSTEM.CONST>
0

>  <SCORE.SYSTEM.DIHEDRAL>
6.72379

>  <SCORE.SYSTEM.POLAR>
-3.76425

>  <SCORE.SYSTEM.SOLV>
0.315757

>  <SCORE.SYSTEM.VDW>
-3.73506

>  <SCORE.SYSTEM.norm>
-1.90037

>  <SCORE.heavy>
11

>  <SCORE.norm>
-4.47878

$$$$
P151391838
 OpenBabel12072022103D
libRbt.so/2013.1/901 2013/11/27
 17 17  0  0  0  0  0  0  0  0999 V2000
   24.1895  -13.8019    4.7263 C   0  0  0  0  0  0  0  0  0  0  0  0
   24.5572  -13.2988    3.3285 C   0  0  2  0  0  0  0  0  0  0  0  0
   23.4869  -12.2406    2.9596 C   0  0  2  0  0  0  0  0  0  0  0  0
   22.5378  -12.1718    4.1567 C   0  0  0  0  0  0  0  0  0  0  0  0
   22.6814  -13.5314    4.8766 C   0  0  1  0  0  0  0  0  0  0  0  0
   21.7777  -14.6394    4.2704 C   0  0  0  0  0  0  0  0  0  0  0  0
   22.2480  -16.0111    4.5251 N   0  3  0  0  0  0  0  0  0  0  0  0
   21.5504  -16.7158    4.2154 H   0  0  0  0  0  0  0  0  0  0  0  0
   23.0692  -16.2557    3.9363 H   0  0  0  0  0  0  0  0  0  0  0  0
   22.4829  -16.2002    5.5028 H   0  0  0  0  0  0  0  0  0  0  0  0
   22.3106  -13.3957    6.3657 C   0  0  0  0  0  0  0  0  0  0  0  0
   21.2957  -12.4136    6.5002 O   0  0  0  0  0  0  0  0  0  0  0  0
   22.7215  -12.6550    1.8171 O   0  0  0  0  0  0  0  0  0  0  0  0
   24.5156  -14.4190    2.4333 O   0  0  0  0  0  0  0  0  0  0  0  0
   20.8087  -12.6043    7.3258 H   0  0  0  0  0  0  0  0  0  0  0  0
   23.3646  -12.7585    1.0832 H   0  0  0  0  0  0  0  0  0  0  0  0
   25.2941  -14.9682    2.6666 H   0  0  0  0  0  0  0  0  0  0  0  0
  1  2  1  0  0  0  0
  1  5  1  0  0  0  0
  2 14  1  6  0  0  0
  2  3  1  0  0  0  0
  3  4  1  0  0  0  0
  3 13  1  6  0  0  0
  4  5  1  0  0  0  0
  5  6  1  6  0  0  0
  5 11  1  0  0  0  0
  6  7  1  0  0  0  0
  7  8  1  0  0  0  0
  7  9  1  0  0  0  0
  7 10  1  0  0  0  0
 11 12  1  0  0  0  0
 12 15  1  0  0  0  0
 13 16  1  0  0  0  0
 14 17  1  0  0  0  0
M  CHG  1   7   1
M  END
>  <CHROM.0>
-47.45538877,-168.87032668,-55.39490705,59.88558039,-57.19419154,-57.35064196
-56.65068930,-175.44555385,-165.32758323,-60.66957124

>  <CHROM.1>
-71.44875635,-60.15707668,41.17065111,144.15342503,172.28389010,155.61893432
22.91814311,-13.55566801,4.15844615,-0.12886785,-1.02827127,2.96793123

>  <Name>
P151391838

>  <RI>
0

>  <Rbt.Current_Directory>
/home/fstefaniak/projects/zuza/docking/adenine/1Y26

>  <Rbt.Executable>
rbdock ($Id: //depot/dev/client3/rdock/2013.1/src/exe/rbdock.cxx#4 $)

>  <Rbt.Library>
libRbt.so (2013.1, Build901 2013/11/27)

>  <Rbt.Parameter_File>
/home/fstefaniak/progs/rDock//data/scripts/dock_solv.prm

>  <Rbt.Receptor>
1y26.prm

>  <SCORE>
-45.0681

>  <SCORE.INTER>
-33.7429

>  <SCORE.INTER.CONST>
1

>  <SCORE.INTER.POLAR>
-5.69268

>  <SCORE.INTER.ROT>
2

>  <SCORE.INTER.SOLV>
15.2098

>  <SCORE.INTER.VDW>
-13.5229

>  <SCORE.INTER.norm>
-3.06753

>  <SCORE.INTRA>
4.68593

>  <SCORE.INTRA.DIHEDRAL>
2.8565

>  <SCORE.INTRA.DIHEDRAL.0>
4.85615

>  <SCORE.INTRA.POLAR>
1.90521

>  <SCORE.INTRA.POLAR.0>
-1.90521

>  <SCORE.INTRA.REPUL>
0

>  <SCORE.INTRA.REPUL.0>
0

>  <SCORE.INTRA.SOLV>
-6.35399

>  <SCORE.INTRA.SOLV.lig_0>
-29.279

>  <SCORE.INTRA.VDW>
-0.0430303

>  <SCORE.INTRA.VDW.0>
0.000141062

>  <SCORE.INTRA.norm>
0.425994

>  <SCORE.RESTR>
0.986051

>  <SCORE.RESTR.CAVITY>
0.986051

>  <SCORE.RESTR.norm>
0.089641

>  <SCORE.SYSTEM>
-16.9972

>  <SCORE.SYSTEM.CONST>
0

>  <SCORE.SYSTEM.DIHEDRAL>
4.69679

>  <SCORE.SYSTEM.POLAR>
-2.09309

>  <SCORE.SYSTEM.SOLV>
0.412185

>  <SCORE.SYSTEM.VDW>
-6.0575

>  <SCORE.SYSTEM.norm>
-1.5452

>  <SCORE.heavy>
11

>  <SCORE.norm>
-4.0971

$$$$
P151391838
 OpenBabel12072022103D
libRbt.so/2013.1/901 2013/11/27
 17 17  0  0  0  0  0  0  0  0999 V2000
   18.9678  -16.8446    3.3749 C   0  0  0  0  0  0  0  0  0  0  0  0
   18.1611  -18.0045    3.9632 C   0  0  2  0  0  0  0  0  0  0  0  0
   19.0283  -18.5928    5.1047 C   0  0  2  0  0  0  0  0  0  0  0  0
   20.3060  -17.7530    5.1338 C   0  0  0  0  0  0  0  0  0  0  0  0
   20.4372  -17.1511    3.7167 C   0  0  1  0  0  0  0  0  0  0  0  0
   21.1329  -18.1084    2.7110 C   0  0  0  0  0  0  0  0  0  0  0  0
   20.5359  -18.1108    1.3652 N   0  3  0  0  0  0  0  0  0  0  0  0
   20.6299  -19.0393    0.9092 H   0  0  0  0  0  0  0  0  0  0  0  0
   19.5031  -17.9966    1.3982 H   0  0  0  0  0  0  0  0  0  0  0  0
   20.9196  -17.4029    0.7339 H   0  0  0  0  0  0  0  0  0  0  0  0
   21.2574  -15.8478    3.7575 C   0  0  0  0  0  0  0  0  0  0  0  0
   22.5147  -16.1132    4.3589 O   0  0  0  0  0  0  0  0  0  0  0  0
   19.4029  -19.9504    4.8232 O   0  0  0  0  0  0  0  0  0  0  0  0
   17.9483  -18.9655    2.9195 O   0  0  0  0  0  0  0  0  0  0  0  0
   22.9993  -16.7251    3.7707 H   0  0  0  0  0  0  0  0  0  0  0  0
   18.5983  -20.4909    4.9766 H   0  0  0  0  0  0  0  0  0  0  0  0
   17.4118  -18.5006    2.2426 H   0  0  0  0  0  0  0  0  0  0  0  0
  1  2  1  0  0  0  0
  1  5  1  0  0  0  0
  2 14  1  6  0  0  0
  2  3  1  0  0  0  0
  3  4  1  0  0  0  0
  3 13  1  6  0  0  0
  4  5  1  0  0  0  0
  5  6  1  6  0  0  0
  5 11  1  0  0  0  0
  6  7  1  0  0  0  0
  7  8  1  0  0  0  0
  7  9  1  0  0  0  0
  7 10  1  0  0  0  0
 11 12  1  0  0  0  0
 12 15  1  0  0  0  0
 13 16  1  0  0  0  0
 14 17  1  0  0  0  0
M  CHG  1   7   1
M  END
>  <CHROM.0>
66.48615334,71.21644356,-66.01988441,-52.15411098,-51.41753210,-58.47789639
-171.54745399,66.82089674,-166.26099553,160.06784504

>  <CHROM.1>
-62.93410721,-74.86587115,24.65828815,167.05670540,-148.76836041,65.11452081
19.98412023,-17.81154321,3.69683976,3.07758794,0.66968986,1.61093376

>  <Name>
P151391838

>  <RI>
0

>  <Rbt.Current_Directory>
/home/fstefaniak/projects/zuza/docking/adenine/1Y26

>  <Rbt.Executable>
rbdock ($Id: //depot/dev/client3/rdock/2013.1/src/exe/rbdock.cxx#4 $)

>  <Rbt.Library>
libRbt.so (2013.1, Build901 2013/11/27)

>  <Rbt.Parameter_File>
/home/fstefaniak/progs/rDock//data/scripts/dock_solv.prm

>  <Rbt.Receptor>
1y26.prm

>  <SCORE>
-42.4697

>  <SCORE.INTER>
-29.5505

>  <SCORE.INTER.CONST>
1

>  <SCORE.INTER.POLAR>
-5.35621

>  <SCORE.INTER.ROT>
2

>  <SCORE.INTER.SOLV>
22.1488

>  <SCORE.INTER.VDW>
-14.1626

>  <SCORE.INTER.norm>
-2.68641

>  <SCORE.INTRA>
5.47392

>  <SCORE.INTRA.DIHEDRAL>
1.84421

>  <SCORE.INTRA.DIHEDRAL.0>
4.85615

>  <SCORE.INTRA.POLAR>
1.87754

>  <SCORE.INTRA.POLAR.0>
-1.90521

>  <SCORE.INTRA.REPUL>
0

>  <SCORE.INTRA.REPUL.0>
0

>  <SCORE.INTRA.SOLV>
-5.34525

>  <SCORE.INTRA.SOLV.lig_0>
-29.279

>  <SCORE.INTRA.VDW>
0.840801

>  <SCORE.INTRA.VDW.0>
0.000141062

>  <SCORE.INTRA.norm>
0.497629

>  <SCORE.RESTR>
0

>  <SCORE.RESTR.CAVITY>
0

>  <SCORE.RESTR.norm>
0

>  <SCORE.SYSTEM>
-18.3931

>  <SCORE.SYSTEM.CONST>
0

>  <SCORE.SYSTEM.DIHEDRAL>
6.69029

>  <SCORE.SYSTEM.POLAR>
-3.20113

>  <SCORE.SYSTEM.SOLV>
0.34231

>  <SCORE.SYSTEM.VDW>
-3.93585

>  <SCORE.SYSTEM.norm>
-1.6721

>  <SCORE.heavy>
11

>  <SCORE.norm>
-3.86088

$$$$
P151391838
 OpenBabel12072022103D
libRbt.so/2013.1/901 2013/11/27
 17 17  0  0  0  0  0  0  0  0999 V2000
   24.0019  -13.8955    4.7846 C   0  0  0  0  0  0  0  0  0  0  0  0
   24.3969  -13.3271    3.4197 C   0  0  2  0  0  0  0  0  0  0  0  0
   23.2673  -12.3434    3.0230 C   0  0  2  0  0  0  0  0  0  0  0  0
   22.2587  -12.3804    4.1720 C   0  0  0  0  0  0  0  0  0  0  0  0
   22.4719  -13.7447    4.8652 C   0  0  1  0  0  0  0  0  0  0  0  0
   21.6870  -14.9007    4.1876 C   0  0  0  0  0  0  0  0  0  0  0  0
   22.0995  -16.2469    4.6183 N   0  3  0  0  0  0  0  0  0  0  0  0
   21.8237  -16.4324    5.6024 H   0  0  0  0  0  0  0  0  0  0  0  0
   21.5821  -16.9925    4.1111 H   0  0  0  0  0  0  0  0  0  0  0  0
   23.1022  -16.4288    4.5262 H   0  0  0  0  0  0  0  0  0  0  0  0
   22.0201  -13.6792    6.3365 C   0  0  0  0  0  0  0  0  0  0  0  0
   22.4317  -12.4395    6.8902 O   0  0  0  0  0  0  0  0  0  0  0  0
   22.5924  -12.7827    1.8337 O   0  0  0  0  0  0  0  0  0  0  0  0
   24.4855  -14.4218    2.4968 O   0  0  0  0  0  0  0  0  0  0  0  0
   23.4084  -12.4152    6.8643 H   0  0  0  0  0  0  0  0  0  0  0  0
   23.2807  -12.8382    1.1365 H   0  0  0  0  0  0  0  0  0  0  0  0
   25.2400  -14.9654    2.8087 H   0  0  0  0  0  0  0  0  0  0  0  0
  1  2  1  0  0  0  0
  1  5  1  0  0  0  0
  2 14  1  6  0  0  0
  2  3  1  0  0  0  0
  3  4  1  0  0  0  0
  3 13  1  6  0  0  0
  4  5  1  0  0  0  0
  5  6  1  6  0  0  0
  5 11  1  0  0  0  0
  6  7  1  0  0  0  0
  7  8  1  0  0  0  0
  7  9  1  0  0  0  0
  7 10  1  0  0  0  0
 11 12  1  0  0  0  0
 12 15  1  0  0  0  0
 13 16  1  0  0  0  0
 14 17  1  0  0  0  0
M  CHG  1   7   1
M  END
>  <CHROM.0>
-48.80809774,-71.00708127,-61.35818299,64.13328652,-54.74081534,-57.16615230
-172.74300088,63.77888118,-165.39430805,-58.09484944

>  <CHROM.1>
-66.06576465,-58.76693270,51.36662660,70.61198808,69.51911800,-62.58484140
22.89394242,-13.69455869,4.22311078,2.86604142,1.18388069,0.36339830

>  <Name>
P151391838

>  <RI>
0

>  <Rbt.Current_Directory>
/home/fstefaniak/projects/zuza/docking/adenine/1Y26

>  <Rbt.Executable>
rbdock ($Id: //depot/dev/client3/rdock/2013.1/src/exe/rbdock.cxx#4 $)

>  <Rbt.Library>
libRbt.so (2013.1, Build901 2013/11/27)

>  <Rbt.Parameter_File>
/home/fstefaniak/progs/rDock//data/scripts/dock_solv.prm

>  <Rbt.Receptor>
1y26.prm

>  <SCORE>
-39.6968

>  <SCORE.INTER>
-27.2946

>  <SCORE.INTER.CONST>
1

>  <SCORE.INTER.POLAR>
-4.59989

>  <SCORE.INTER.ROT>
2

>  <SCORE.INTER.SOLV>
15.4887

>  <SCORE.INTER.VDW>
-12.9596

>  <SCORE.INTER.norm>
-2.48132

>  <SCORE.INTRA>
1.49575

>  <SCORE.INTRA.DIHEDRAL>
-3.21628

>  <SCORE.INTRA.DIHEDRAL.0>
4.85615

>  <SCORE.INTRA.POLAR>
1.90521

>  <SCORE.INTRA.POLAR.0>
-1.90521

>  <SCORE.INTRA.REPUL>
0

>  <SCORE.INTRA.REPUL.0>
0

>  <SCORE.INTRA.SOLV>
-6.72403

>  <SCORE.INTRA.SOLV.lig_0>
-29.279

>  <SCORE.INTRA.VDW>
-0.011806

>  <SCORE.INTRA.VDW.0>
0.000141062

>  <SCORE.INTRA.norm>
0.135977

>  <SCORE.RESTR>
0.58574

>  <SCORE.RESTR.CAVITY>
0.58574

>  <SCORE.RESTR.norm>
0.053249

>  <SCORE.SYSTEM>
-14.4838

>  <SCORE.SYSTEM.CONST>
0

>  <SCORE.SYSTEM.DIHEDRAL>
4.79109

>  <SCORE.SYSTEM.POLAR>
-2.04753

>  <SCORE.SYSTEM.SOLV>
0.38072

>  <SCORE.SYSTEM.VDW>
-4.55467

>  <SCORE.SYSTEM.norm>
-1.31671

>  <SCORE.heavy>
11

>  <SCORE.norm>
-3.6088

$$$$
P151705215
 OpenBabel12072022103D
libRbt.so/2013.1/901 2013/11/27
 12 13  0  0  0  0  0  0  0  0999 V2000
   24.0135  -14.2006    4.5259 C   0  0  0  0  0  0  0  0  0  0  0  0
   23.1257  -15.3499    4.4782 N   0  0  0  0  0  0  0  0  0  0  0  0
   23.7665  -16.6516    4.4008 C   0  0  0  0  0  0  0  0  0  0  0  0
   21.7791  -15.1355    4.1414 C   0  0  0  0  0  0  0  0  0  0  0  0
   21.3377  -13.9799    4.0384 O   0  0  0  0  0  0  0  0  0  0  0  0
   20.8602  -16.3620    3.8951 C   0  0  2  0  0  0  0  0  0  0  0  0
   20.4835  -17.2924    5.1125 C   0  0  0  0  0  0  0  0  0  0  0  0
   20.1059  -18.2461    3.9519 C   0  0  2  0  0  0  0  0  0  0  0  0
   21.3868  -17.6961    3.2653 C   0  0  0  0  0  0  0  0  0  0  0  0
   18.9855  -17.4997    3.2568 C   0  0  0  0  0  0  0  0  0  0  0  0
   19.5363  -16.1392    3.2302 N   0  0  0  0  0  0  0  0  0  0  0  0
   18.9315  -15.5152    3.7663 H   0  0  0  0  0  0  0  0  0  0  0  0
  1  2  1  0  0  0  0
  2  3  1  0  0  0  0
  2  4  1  0  0  0  0
  4  5  2  0  0  0  0
  6  4  1  1  0  0  0
  6  7  1  0  0  0  0
  6  9  1  0  0  0  0
  6 11  1  0  0  0  0
  8  7  1  1  0  0  0
  8  9  1  0  0  0  0
  8 10  1  0  0  0  0
 10 11  1  0  0  0  0
 11 12  1  0  0  0  0
M  END
>  <CHROM.0>
-49.58331667,-61.43263451,-55.19263536,-52.97114337,-54.71911506,-59.42975911
-59.43100326,-176.98500864,-165.72687323,160.33954044

>  <CHROM.1>
68.42681838,21.42443518,-16.18765971,4.03184629,0.60923554,-0.22252549,-0.02081619

>  <Name>
P151705215

>  <RI>
0

>  <Rbt.Current_Directory>
/home/fstefaniak/projects/zuza/docking/adenine/1Y26

>  <Rbt.Executable>
rbdock ($Id: //depot/dev/client3/rdock/2013.1/src/exe/rbdock.cxx#4 $)

>  <Rbt.Library>
libRbt.so (2013.1, Build901 2013/11/27)

>  <Rbt.Parameter_File>
/home/fstefaniak/progs/rDock//data/scripts/dock_solv.prm

>  <Rbt.Receptor>
1y26.prm

>  <SCORE>
-40.8607

>  <SCORE.INTER>
-21.6937

>  <SCORE.INTER.CONST>
1

>  <SCORE.INTER.POLAR>
-1.95672

>  <SCORE.INTER.ROT>
1

>  <SCORE.INTER.SOLV>
9.70937

>  <SCORE.INTER.VDW>
-15.4432

>  <SCORE.INTER.norm>
-1.97216

>  <SCORE.INTRA>
3.52286

>  <SCORE.INTRA.DIHEDRAL>
0.535181

>  <SCORE.INTRA.DIHEDRAL.0>
0.454189

>  <SCORE.INTRA.POLAR>
0

>  <SCORE.INTRA.POLAR.0>
0

>  <SCORE.INTRA.REPUL>
0

>  <SCORE.INTRA.REPUL.0>
0

>  <SCORE.INTRA.SOLV>
-0.258522

>  <SCORE.INTRA.SOLV.lig_0>
-8.63405

>  <SCORE.INTRA.VDW>
3.38454

>  <SCORE.INTRA.VDW.0>
-0.877416

>  <SCORE.INTRA.norm>
0.32026

>  <SCORE.RESTR>
0

>  <SCORE.RESTR.CAVITY>
0

>  <SCORE.RESTR.norm>
0

>  <SCORE.SYSTEM>
-22.6898

>  <SCORE.SYSTEM.CONST>
0

>  <SCORE.SYSTEM.DIHEDRAL>
5.61938

>  <SCORE.SYSTEM.POLAR>
-3.46352

>  <SCORE.SYSTEM.SOLV>
0.453978

>  <SCORE.SYSTEM.VDW>
-5.60592

>  <SCORE.SYSTEM.norm>
-2.06271

>  <SCORE.heavy>
11

>  <SCORE.norm>
-3.71461

$$$$
P151705215
 OpenBabel12072022103D
libRbt.so/2013.1/901 2013/11/27
 12 13  0  0  0  0  0  0  0  0999 V2000
   24.0174  -14.2398    4.5059 C   0  0  0  0  0  0  0  0  0  0  0  0
   23.1151  -15.3780    4.4665 N   0  0  0  0  0  0  0  0  0  0  0  0
   23.7394  -16.6886    4.4076 C   0  0  0  0  0  0  0  0  0  0  0  0
   21.7732  -15.1502    4.1198 C   0  0  0  0  0  0  0  0  0  0  0  0
   21.3473  -13.9903    4.0011 O   0  0  0  0  0  0  0  0  0  0  0  0
   20.8399  -16.3675    3.8825 C   0  0  2  0  0  0  0  0  0  0  0  0
   20.4687  -17.2963    5.1027 C   0  0  0  0  0  0  0  0  0  0  0  0
   20.0684  -18.2444    3.9452 C   0  0  2  0  0  0  0  0  0  0  0  0
   21.3463  -17.7055    3.2444 C   0  0  0  0  0  0  0  0  0  0  0  0
   18.9470  -17.4863    3.2645 C   0  0  0  0  0  0  0  0  0  0  0  0
   19.5104  -16.1311    3.2336 N   0  0  0  0  0  0  0  0  0  0  0  0
   18.9179  -15.5023    3.7777 H   0  0  0  0  0  0  0  0  0  0  0  0
  1  2  1  0  0  0  0
  2  3  1  0  0  0  0
  2  4  1  0  0  0  0
  4  5  2  0  0  0  0
  6  4  1  1  0  0  0
  6  7  1  0  0  0  0
  6  9  1  0  0  0  0
  6 11  1  0  0  0  0
  8  7  1  1  0  0  0
  8  9  1  0  0  0  0
  8 10  1  0  0  0  0
 10 11  1  0  0  0  0
 11 12  1  0  0  0  0
M  END
>  <CHROM.0>
-48.32496158,-62.78153907,-54.64856698,-54.73140725,-57.89803745,-58.68546955
-59.12141519,-52.35256430,-166.12766172,160.34979464

>  <CHROM.1>
67.16904328,21.40603784,-16.19932942,4.02070504,0.59674647,-0.22460563,-0.03185747

>  <Name>
P151705215

>  <RI>
0

>  <Rbt.Current_Directory>
/home/fstefaniak/projects/zuza/docking/adenine/1Y26

>  <Rbt.Executable>
rbdock ($Id: //depot/dev/client3/rdock/2013.1/src/exe/rbdock.cxx#4 $)

>  <Rbt.Library>
libRbt.so (2013.1, Build901 2013/11/27)

>  <Rbt.Parameter_File>
/home/fstefaniak/progs/rDock//data/scripts/dock_solv.prm

>  <Rbt.Receptor>
1y26.prm

>  <SCORE>
-40.4425

>  <SCORE.INTER>
-21.4688

>  <SCORE.INTER.CONST>
1

>  <SCORE.INTER.POLAR>
-1.95123

>  <SCORE.INTER.ROT>
1

>  <SCORE.INTER.SOLV>
9.73491

>  <SCORE.INTER.VDW>
-15.3201

>  <SCORE.INTER.norm>
-1.95171

>  <SCORE.INTRA>
3.29444

>  <SCORE.INTRA.DIHEDRAL>
0.461204

>  <SCORE.INTRA.DIHEDRAL.0>
0.454189

>  <SCORE.INTRA.POLAR>
0

>  <SCORE.INTRA.POLAR.0>
0

>  <SCORE.INTRA.REPUL>
0

>  <SCORE.INTRA.REPUL.0>
0

>  <SCORE.INTRA.SOLV>
-0.259669

>  <SCORE.INTRA.SOLV.lig_0>
-8.63405

>  <SCORE.INTRA.VDW>
3.19367

>  <SCORE.INTRA.VDW.0>
-0.877416

>  <SCORE.INTRA.norm>
0.299494

>  <SCORE.RESTR>
0

>  <SCORE.RESTR.CAVITY>
0

>  <SCORE.RESTR.norm>
0

>  <SCORE.SYSTEM>
-22.2682

>  <SCORE.SYSTEM.CONST>
0

>  <SCORE.SYSTEM.DIHEDRAL>
5.78268

>  <SCORE.SYSTEM.POLAR>
-3.48008

>  <SCORE.SYSTEM.SOLV>
0.661242

>  <SCORE.SYSTEM.VDW>
-5.39315

>  <SCORE.SYSTEM.norm>
-2.02438

>  <SCORE.heavy>
11

>  <SCORE.norm>
-3.67659

$$$$
P151705215
 OpenBabel12072022103D
libRbt.so/2013.1/901 2013/11/27
 12 13  0  0  0  0  0  0  0  0999 V2000
   24.0104  -14.2461    4.5278 C   0  0  0  0  0  0  0  0  0  0  0  0
   23.1138  -15.3884    4.4794 N   0  0  0  0  0  0  0  0  0  0  0  0
   23.7442  -16.6945    4.3934 C   0  0  0  0  0  0  0  0  0  0  0  0
   21.7672  -15.1623    4.1498 C   0  0  0  0  0  0  0  0  0  0  0  0
   21.3341  -14.0030    4.0538 O   0  0  0  0  0  0  0  0  0  0  0  0
   20.8380  -16.3808    3.9026 C   0  0  2  0  0  0  0  0  0  0  0  0
   20.4629  -17.3158    5.1169 C   0  0  0  0  0  0  0  0  0  0  0  0
   20.0706  -18.2597    3.9533 C   0  0  2  0  0  0  0  0  0  0  0  0
   21.3507  -17.7148    3.2612 C   0  0  0  0  0  0  0  0  0  0  0  0
   18.9508  -17.5013    3.2703 C   0  0  0  0  0  0  0  0  0  0  0  0
   19.5111  -16.1446    3.2481 N   0  0  0  0  0  0  0  0  0  0  0  0
   18.9145  -15.5196    3.7921 H   0  0  0  0  0  0  0  0  0  0  0  0
  1  2  1  0  0  0  0
  2  3  1  0  0  0  0
  2  4  1  0  0  0  0
  4  5  2  0  0  0  0
  6  4  1  1  0  0  0
  6  7  1  0  0  0  0
  6  9  1  0  0  0  0
  6 11  1  0  0  0  0
  8  7  1  1  0  0  0
  8  9  1  0  0  0  0
  8 10  1  0  0  0  0
 10 11  1  0  0  0  0
 11 12  1  0  0  0  0
M  END
>  <CHROM.0>
-48.47240552,-59.50196560,-55.88308325,-52.31436495,-176.52435679,-62.18327968
-61.80795755,-49.55350282,-166.69353777,160.49833694

>  <CHROM.1>
68.26559811,21.40417041,-16.21135659,4.03744109,0.60168184,-0.21733932,-0.01774105

>  <Name>
P151705215

>  <RI>
0

>  <Rbt.Current_Directory>
/home/fstefaniak/projects/zuza/docking/adenine/1Y26

>  <Rbt.Executable>
rbdock ($Id: //depot/dev/client3/rdock/2013.1/src/exe/rbdock.cxx#4 $)

>  <Rbt.Library>
libRbt.so (2013.1, Build901 2013/11/27)

>  <Rbt.Parameter_File>
/home/fstefaniak/progs/rDock//data/scripts/dock_solv.prm

>  <Rbt.Receptor>
1y26.prm

>  <SCORE>
-40.3534

>  <SCORE.INTER>
-21.5876

>  <SCORE.INTER.CONST>
1

>  <SCORE.INTER.POLAR>
-1.95648

>  <SCORE.INTER.ROT>
1

>  <SCORE.INTER.SOLV>
9.73752

>  <SCORE.INTER.VDW>
-15.3826

>  <SCORE.INTER.norm>
-1.96251

>  <SCORE.INTRA>
3.49303

>  <SCORE.INTRA.DIHEDRAL>
0.525473

>  <SCORE.INTRA.DIHEDRAL.0>
0.454189

>  <SCORE.INTRA.POLAR>
0

>  <SCORE.INTRA.POLAR.0>
0

>  <SCORE.INTRA.REPUL>
0

>  <SCORE.INTRA.REPUL.0>
0

>  <SCORE.INTRA.SOLV>
-0.25867

>  <SCORE.INTRA.SOLV.lig_0>
-8.63405

>  <SCORE.INTRA.VDW>
3.35963

>  <SCORE.INTRA.VDW.0>
-0.877416

>  <SCORE.INTRA.norm>
0.317548

>  <SCORE.RESTR>
0

>  <SCORE.RESTR.CAVITY>
0

>  <SCORE.RESTR.norm>
0

>  <SCORE.SYSTEM>
-22.2588

>  <SCORE.SYSTEM.CONST>
0

>  <SCORE.SYSTEM.DIHEDRAL>
6.01414

>  <SCORE.SYSTEM.POLAR>
-3.52222

>  <SCORE.SYSTEM.SOLV>
0.491946

>  <SCORE.SYSTEM.VDW>
-5.26716

>  <SCORE.SYSTEM.norm>
-2.02353

>  <SCORE.heavy>
11

>  <SCORE.norm>
-3.66849

$$$$
P152008234
 OpenBabel12072022103D
libRbt.so/2013.1/901 2013/11/27
 11 12  0  0  0  0  0  0  0  0999 V2000
   18.8329  -16.9718    3.3966 C   0  0  0  0  0  0  0  0  0  0  0  0
   18.9009  -18.1896    2.5061 C   0  0  1  0  0  0  0  0  0  0  0  0
   20.2071  -18.1614    1.7080 C   0  0  0  0  0  0  0  0  0  0  0  0
   21.3698  -17.7579    2.4786 O   0  0  0  0  0  0  0  0  0  0  0  0
   21.2697  -17.3153    3.7560 C   0  0  0  0  0  0  0  0  0  0  0  0
   22.2472  -16.9151    4.3843 O   0  0  0  0  0  0  0  0  0  0  0  0
   19.8842  -17.3766    4.3992 C   0  0  2  0  0  0  0  0  0  0  0  0
   19.5437  -18.8411    4.6415 C   0  0  0  0  0  0  0  0  0  0  0  0
   18.9453  -19.3120    3.4152 O   0  0  0  0  0  0  0  0  0  0  0  0
   19.7871  -16.5987    5.5803 O   0  0  0  0  0  0  0  0  0  0  0  0
   20.5261  -16.8776    6.1591 H   0  0  0  0  0  0  0  0  0  0  0  0
  1  7  1  0  0  0  0
  2  1  1  1  0  0  0
  2  3  1  0  0  0  0
  2  9  1  0  0  0  0
  3  4  1  0  0  0  0
  4  5  1  0  0  0  0
  5  7  1  0  0  0  0
  5  6  2  0  0  0  0
  7  8  1  0  0  0  0
  7 10  1  1  0  0  0
  8  9  1  0  0  0  0
 10 11  1  0  0  0  0
M  END
>  <CHROM.0>
-48.18230596,77.70644118,-56.36034454,-53.10684955,-53.58178934,-62.49122547
-62.04574158,-50.44301755,-166.26094040,160.53181172

>  <CHROM.1>
-176.76517294,20.12352022,-17.74052905,3.65800341,2.26422027,-0.37730847
-1.95967044

>  <Name>
P152008234

>  <RI>
0

>  <Rbt.Current_Directory>
/home/fstefaniak/projects/zuza/docking/adenine/1Y26

>  <Rbt.Executable>
rbdock ($Id: //depot/dev/client3/rdock/2013.1/src/exe/rbdock.cxx#4 $)

>  <Rbt.Library>
libRbt.so (2013.1, Build901 2013/11/27)

>  <Rbt.Parameter_File>
/home/fstefaniak/progs/rDock//data/scripts/dock_solv.prm

>  <Rbt.Receptor>
1y26.prm

>  <SCORE>
-45.1051

>  <SCORE.INTER>
-22.4029

>  <SCORE.INTER.CONST>
1

>  <SCORE.INTER.POLAR>
-3.72372

>  <SCORE.INTER.ROT>
0

>  <SCORE.INTER.SOLV>
9.94626

>  <SCORE.INTER.VDW>
-9.43827

>  <SCORE.INTER.norm>
-2.24029

>  <SCORE.INTRA>
-1.94396

>  <SCORE.INTRA.DIHEDRAL>
-3.71279

>  <SCORE.INTRA.DIHEDRAL.0>
3.96966

>  <SCORE.INTRA.POLAR>
0

>  <SCORE.INTRA.POLAR.0>
0

>  <SCORE.INTRA.REPUL>
0

>  <SCORE.INTRA.REPUL.0>
0

>  <SCORE.INTRA.SOLV>
-0.0139976

>  <SCORE.INTRA.SOLV.lig_0>
-9.78642

>  <SCORE.INTRA.VDW>
-0.0805656

>  <SCORE.INTRA.VDW.0>
0.0854728

>  <SCORE.INTRA.norm>
-0.194396

>  <SCORE.RESTR>
0

>  <SCORE.RESTR.CAVITY>
0

>  <SCORE.RESTR.norm>
0

>  <SCORE.SYSTEM>
-20.7582

>  <SCORE.SYSTEM.CONST>
0

>  <SCORE.SYSTEM.DIHEDRAL>
7.47801

>  <SCORE.SYSTEM.POLAR>
-3.50852

>  <SCORE.SYSTEM.SOLV>
0.651478

>  <SCORE.SYSTEM.VDW>
-4.85358

>  <SCORE.SYSTEM.norm>
-2.07582

>  <SCORE.heavy>
10

>  <SCORE.norm>
-4.51051

$$$$
P152008234
 OpenBabel12072022103D
libRbt.so/2013.1/901 2013/11/27
 11 12  0  0  0  0  0  0  0  0999 V2000
   18.8604  -16.9392    3.3697 C   0  0  0  0  0  0  0  0  0  0  0  0
   18.9087  -18.1718    2.4985 C   0  0  1  0  0  0  0  0  0  0  0  0
   20.2207  -18.1837    1.7097 C   0  0  0  0  0  0  0  0  0  0  0  0
   21.3863  -17.7930    2.4826 O   0  0  0  0  0  0  0  0  0  0  0  0
   21.2867  -17.3286    3.7523 C   0  0  0  0  0  0  0  0  0  0  0  0
   22.2680  -16.9396    4.3816 O   0  0  0  0  0  0  0  0  0  0  0  0
   19.8957  -17.3506    4.3861 C   0  0  2  0  0  0  0  0  0  0  0  0
   19.5223  -18.8036    4.6483 C   0  0  0  0  0  0  0  0  0  0  0  0
   18.9227  -19.2807    3.4250 O   0  0  0  0  0  0  0  0  0  0  0  0
   19.8068  -16.5526    5.5544 O   0  0  0  0  0  0  0  0  0  0  0  0
   20.5373  -16.8362    6.1416 H   0  0  0  0  0  0  0  0  0  0  0  0
  1  7  1  0  0  0  0
  2  1  1  1  0  0  0
  2  3  1  0  0  0  0
  2  9  1  0  0  0  0
  3  4  1  0  0  0  0
  4  5  1  0  0  0  0
  5  7  1  0  0  0  0
  5  6  2  0  0  0  0
  7  8  1  0  0  0  0
  7 10  1  1  0  0  0
  8  9  1  0  0  0  0
 10 11  1  0  0  0  0
M  END
>  <CHROM.0>
-47.48736467,78.96542915,-50.09946545,-53.43865038,-54.64811941,-54.98667667
-55.06052650,-51.93891301,-166.48661263,160.87506321

>  <CHROM.1>
-176.59526442,20.13243428,-17.73096401,3.65239562,2.26591231,-0.35489766
-1.97453641

>  <Name>
P152008234

>  <RI>
0

>  <Rbt.Current_Directory>
/home/fstefaniak/projects/zuza/docking/adenine/1Y26

>  <Rbt.Executable>
rbdock ($Id: //depot/dev/client3/rdock/2013.1/src/exe/rbdock.cxx#4 $)

>  <Rbt.Library>
libRbt.so (2013.1, Build901 2013/11/27)

>  <Rbt.Parameter_File>
/home/fstefaniak/progs/rDock//data/scripts/dock_solv.prm

>  <Rbt.Receptor>
1y26.prm

>  <SCORE>
-44.9981

>  <SCORE.INTER>
-22.6244

>  <SCORE.INTER.CONST>
1

>  <SCORE.INTER.POLAR>
-3.80318

>  <SCORE.INTER.ROT>
0

>  <SCORE.INTER.SOLV>
9.94572

>  <SCORE.INTER.VDW>
-9.32092

>  <SCORE.INTER.norm>
-2.26244

>  <SCORE.INTRA>
-1.93886

>  <SCORE.INTRA.DIHEDRAL>
-3.70166

>  <SCORE.INTRA.DIHEDRAL.0>
3.96966

>  <SCORE.INTRA.POLAR>
0

>  <SCORE.INTRA.POLAR.0>
0

>  <SCORE.INTRA.REPUL>
0

>  <SCORE.INTRA.REPUL.0>
0

>  <SCORE.INTRA.SOLV>
-0.0138667

>  <SCORE.INTRA.SOLV.lig_0>
-9.78642

>  <SCORE.INTRA.VDW>
-0.0810981

>  <SCORE.INTRA.VDW.0>
0.0854728

>  <SCORE.INTRA.norm>
-0.193886

>  <SCORE.RESTR>
0

>  <SCORE.RESTR.CAVITY>
0

>  <SCORE.RESTR.norm>
0

>  <SCORE.SYSTEM>
-20.4348

>  <SCORE.SYSTEM.CONST>
0

>  <SCORE.SYSTEM.DIHEDRAL>
8.04534

>  <SCORE.SYSTEM.POLAR>
-3.56821

>  <SCORE.SYSTEM.SOLV>
0.689917

>  <SCORE.SYSTEM.VDW>
-4.64094

>  <SCORE.SYSTEM.norm>
-2.04348

>  <SCORE.heavy>
10

>  <SCORE.norm>
-4.49981

$$$$
P152008234
 OpenBabel12072022103D
libRbt.so/2013.1/901 2013/11/27
 11 12  0  0  0  0  0  0  0  0999 V2000
   18.8419  -16.9844    3.3543 C   0  0  0  0  0  0  0  0  0  0  0  0
   18.9152  -18.2036    2.4660 C   0  0  1  0  0  0  0  0  0  0  0  0
   20.2286  -18.1794    1.6798 C   0  0  0  0  0  0  0  0  0  0  0  0
   21.3852  -17.7775    2.4604 O   0  0  0  0  0  0  0  0  0  0  0  0
   21.2746  -17.3329    3.7362 C   0  0  0  0  0  0  0  0  0  0  0  0
   22.2472  -16.9341    4.3728 O   0  0  0  0  0  0  0  0  0  0  0  0
   19.8832  -17.3902    4.3669 C   0  0  2  0  0  0  0  0  0  0  0  0
   19.5371  -18.8537    4.6080 C   0  0  0  0  0  0  0  0  0  0  0  0
   18.9487  -19.3249    3.3770 O   0  0  0  0  0  0  0  0  0  0  0  0
   19.7771  -16.6106    5.5461 O   0  0  0  0  0  0  0  0  0  0  0  0
   20.5200  -16.8786    6.1249 H   0  0  0  0  0  0  0  0  0  0  0  0
  1  7  1  0  0  0  0
  2  1  1  1  0  0  0
  2  3  1  0  0  0  0
  2  9  1  0  0  0  0
  3  4  1  0  0  0  0
  4  5  1  0  0  0  0
  5  7  1  0  0  0  0
  5  6  2  0  0  0  0
  7  8  1  0  0  0  0
  7 10  1  1  0  0  0
  8  9  1  0  0  0  0
 10 11  1  0  0  0  0
M  END
>  <CHROM.0>
-48.02054138,78.99999212,-57.56194785,-50.74706353,-176.80018101,-61.49484020
-61.59366045,62.13610775,-167.17956039,160.46926420

>  <CHROM.1>
-175.73848995,20.12839846,-17.75565316,3.62835878,2.25635040,-0.37171568
-1.96412651

>  <Name>
P152008234

>  <RI>
0

>  <Rbt.Current_Directory>
/home/fstefaniak/projects/zuza/docking/adenine/1Y26

>  <Rbt.Executable>
rbdock ($Id: //depot/dev/client3/rdock/2013.1/src/exe/rbdock.cxx#4 $)

>  <Rbt.Library>
libRbt.so (2013.1, Build901 2013/11/27)

>  <Rbt.Parameter_File>
/home/fstefaniak/progs/rDock//data/scripts/dock_solv.prm

>  <Rbt.Receptor>
1y26.prm

>  <SCORE>
-44.357

>  <SCORE.INTER>
-22.6707

>  <SCORE.INTER.CONST>
1

>  <SCORE.INTER.POLAR>
-3.7892

>  <SCORE.INTER.ROT>
0

>  <SCORE.INTER.SOLV>
9.92107

>  <SCORE.INTER.VDW>
-9.39014

>  <SCORE.INTER.norm>
-2.26707

>  <SCORE.INTRA>
-1.91086

>  <SCORE.INTRA.DIHEDRAL>
-3.64151

>  <SCORE.INTRA.DIHEDRAL.0>
3.96966

>  <SCORE.INTRA.POLAR>
0

>  <SCORE.INTRA.POLAR.0>
0

>  <SCORE.INTRA.REPUL>
0

>  <SCORE.INTRA.REPUL.0>
0

>  <SCORE.INTRA.SOLV>
-0.0132138

>  <SCORE.INTRA.SOLV.lig_0>
-9.78642

>  <SCORE.INTRA.VDW>
-0.0835017

>  <SCORE.INTRA.VDW.0>
0.0854728

>  <SCORE.INTRA.norm>
-0.191086

>  <SCORE.RESTR>
0

>  <SCORE.RESTR.CAVITY>
0

>  <SCORE.RESTR.norm>
0

>  <SCORE.SYSTEM>
-19.7755

>  <SCORE.SYSTEM.CONST>
0

>  <SCORE.SYSTEM.DIHEDRAL>
7.17471

>  <SCORE.SYSTEM.POLAR>
-3.49473

>  <SCORE.SYSTEM.SOLV>
0.257247

>  <SCORE.SYSTEM.VDW>
-4.01186

>  <SCORE.SYSTEM.norm>
-1.97755

>  <SCORE.heavy>
10

>  <SCORE.norm>
-4.4357

$$$$
P152069116
 OpenBabel12072022103D
libRbt.so/2013.1/901 2013/11/27
 12 12  0  0  0  0  0  0  0  0999 V2000
   19.0689  -19.7954    5.9636 C   0  0  0  0  0  0  0  0  0  0  0  0
   19.7104  -18.6218    6.6679 C   0  0  0  0  0  0  0  0  0  0  0  0
   20.3475  -17.7430    5.7213 N   0  0  0  0  0  0  0  0  0  0  0  0
   19.9000  -17.5091    4.4592 C   0  0  0  0  0  0  0  0  0  0  0  0
   20.3635  -16.5767    3.8066 O   0  0  0  0  0  0  0  0  0  0  0  0
   18.9241  -18.3546    3.9769 N   0  0  0  0  0  0  0  0  0  0  0  0
   18.1839  -19.2438    4.8622 C   0  0  0  0  0  0  0  0  0  0  0  0
   18.3607  -18.0853    2.6503 C   0  0  0  0  0  0  0  0  0  0  0  0
   19.3289  -18.4129    1.5058 C   0  0  0  0  0  0  0  0  0  0  0  0
   20.4033  -17.4831    1.3981 O   0  0  0  0  0  0  0  0  0  0  0  0
   21.0089  -17.0514    6.0512 H   0  0  0  0  0  0  0  0  0  0  0  0
   20.8899  -17.6683    0.5663 H   0  0  0  0  0  0  0  0  0  0  0  0
  1  2  1  0  0  0  0
  1  7  1  0  0  0  0
  2  3  1  0  0  0  0
  3  4  1  0  0  0  0
  3 11  1  0  0  0  0
  4  5  2  0  0  0  0
  4  6  1  0  0  0  0
  6  7  1  0  0  0  0
  6  8  1  0  0  0  0
  8  9  1  0  0  0  0
  9 10  1  0  0  0  0
 10 12  1  0  0  0  0
M  END
>  <CHROM.0>
-46.13688558,-55.75822635,-49.82334361,-51.39492586,-54.65385574,-52.75191360
-50.63757861,-49.95432000,-164.08763591,162.05506992

>  <CHROM.1>
72.59380846,-72.38400589,-170.83826842,19.49904041,-18.14896321,4.04386827
1.68140114,0.79679211,1.74689807

>  <Name>
P152069116

>  <RI>
0

>  <Rbt.Current_Directory>
/home/fstefaniak/projects/zuza/docking/adenine/1Y26

>  <Rbt.Executable>
rbdock ($Id: //depot/dev/client3/rdock/2013.1/src/exe/rbdock.cxx#4 $)

>  <Rbt.Library>
libRbt.so (2013.1, Build901 2013/11/27)

>  <Rbt.Parameter_File>
/home/fstefaniak/progs/rDock//data/scripts/dock_solv.prm

>  <Rbt.Receptor>
1y26.prm

>  <SCORE>
-49.6763

>  <SCORE.INTER>
-23.6634

>  <SCORE.INTER.CONST>
1

>  <SCORE.INTER.POLAR>
-2.69169

>  <SCORE.INTER.ROT>
2

>  <SCORE.INTER.SOLV>
13.5371

>  <SCORE.INTER.VDW>
-16.249

>  <SCORE.INTER.norm>
-2.36634

>  <SCORE.INTRA>
-4.38014

>  <SCORE.INTRA.DIHEDRAL>
-7.40179

>  <SCORE.INTRA.DIHEDRAL.0>
10.5491

>  <SCORE.INTRA.POLAR>
0.0274738

>  <SCORE.INTRA.POLAR.0>
-0.0274738

>  <SCORE.INTRA.REPUL>
0

>  <SCORE.INTRA.REPUL.0>
0

>  <SCORE.INTRA.SOLV>
-0.0819216

>  <SCORE.INTRA.SOLV.lig_0>
-16.041

>  <SCORE.INTRA.VDW>
-0.731692

>  <SCORE.INTRA.VDW.0>
0.38247

>  <SCORE.INTRA.norm>
-0.438014

>  <SCORE.RESTR>
0

>  <SCORE.RESTR.CAVITY>
0

>  <SCORE.RESTR.norm>
0

>  <SCORE.SYSTEM>
-21.6328

>  <SCORE.SYSTEM.CONST>
0

>  <SCORE.SYSTEM.DIHEDRAL>
7.57553

>  <SCORE.SYSTEM.POLAR>
-3.6434

>  <SCORE.SYSTEM.SOLV>
0.713562

>  <SCORE.SYSTEM.VDW>
-5.04022

>  <SCORE.SYSTEM.norm>
-2.16328

>  <SCORE.heavy>
10

>  <SCORE.norm>
-4.96763

$$$$
P152069116
 OpenBabel12072022103D
libRbt.so/2013.1/901 2013/11/27
 12 12  0  0  0  0  0  0  0  0999 V2000
   19.0390  -19.7180    5.9903 C   0  0  0  0  0  0  0  0  0  0  0  0
   19.6819  -18.5373    6.6815 C   0  0  0  0  0  0  0  0  0  0  0  0
   20.3291  -17.6756    5.7263 N   0  0  0  0  0  0  0  0  0  0  0  0
   19.8907  -17.4578    4.4581 C   0  0  0  0  0  0  0  0  0  0  0  0
   20.3629  -16.5373    3.7950 O   0  0  0  0  0  0  0  0  0  0  0  0
   18.9137  -18.3055    3.9819 N   0  0  0  0  0  0  0  0  0  0  0  0
   18.1636  -19.1782    4.8754 C   0  0  0  0  0  0  0  0  0  0  0  0
   18.3601  -18.0529    2.6480 C   0  0  0  0  0  0  0  0  0  0  0  0
   19.3302  -18.4108    1.5144 C   0  0  0  0  0  0  0  0  0  0  0  0
   20.4126  -17.4919    1.3930 O   0  0  0  0  0  0  0  0  0  0  0  0
   20.9919  -16.9824    6.0503 H   0  0  0  0  0  0  0  0  0  0  0  0
   20.8934  -17.6893    0.5606 H   0  0  0  0  0  0  0  0  0  0  0  0
  1  2  1  0  0  0  0
  1  7  1  0  0  0  0
  2  3  1  0  0  0  0
  3  4  1  0  0  0  0
  3 11  1  0  0  0  0
  4  5  2  0  0  0  0
  4  6  1  0  0  0  0
  6  7  1  0  0  0  0
  6  8  1  0  0  0  0
  8  9  1  0  0  0  0
  9 10  1  0  0  0  0
 10 12  1  0  0  0  0
M  END
>  <CHROM.0>
61.63783058,-60.94597708,-57.01453872,-53.00241384,-169.75111971,-63.66609327
-60.88118546,-53.24075169,-167.41804518,160.38141130

>  <CHROM.1>
72.98584133,-72.61327891,-170.04385562,19.48876210,-18.10416027,4.04865483
1.69032714,0.79385430,1.72320130

>  <Name>
P152069116

>  <RI>
0

>  <Rbt.Current_Directory>
/home/fstefaniak/projects/zuza/docking/adenine/1Y26

>  <Rbt.Executable>
rbdock ($Id: //depot/dev/client3/rdock/2013.1/src/exe/rbdock.cxx#4 $)

>  <Rbt.Library>
libRbt.so (2013.1, Build901 2013/11/27)

>  <Rbt.Parameter_File>
/home/fstefaniak/progs/rDock//data/scripts/dock_solv.prm

>  <Rbt.Receptor>
1y26.prm

>  <SCORE>
-49.2901

>  <SCORE.INTER>
-23.6488

>  <SCORE.INTER.CONST>
1

>  <SCORE.INTER.POLAR>
-2.63852

>  <SCORE.INTER.ROT>
2

>  <SCORE.INTER.SOLV>
13.519

>  <SCORE.INTER.VDW>
-16.4105

>  <SCORE.INTER.norm>
-2.36488

>  <SCORE.INTRA>
-4.38458

>  <SCORE.INTRA.DIHEDRAL>
-7.3305

>  <SCORE.INTRA.DIHEDRAL.0>
10.5491

>  <SCORE.INTRA.POLAR>
0.0274738

>  <SCORE.INTRA.POLAR.0>
-0.0274738

>  <SCORE.INTRA.REPUL>
0

>  <SCORE.INTRA.REPUL.0>
0

>  <SCORE.INTRA.SOLV>
-0.0907615

>  <SCORE.INTRA.SOLV.lig_0>
-16.041

>  <SCORE.INTRA.VDW>
-0.767363

>  <SCORE.INTRA.VDW.0>
0.38247

>  <SCORE.INTRA.norm>
-0.438458

>  <SCORE.RESTR>
0

>  <SCORE.RESTR.CAVITY>
0

>  <SCORE.RESTR.norm>
0

>  <SCORE.SYSTEM>
-21.2567

>  <SCORE.SYSTEM.CONST>
0

>  <SCORE.SYSTEM.DIHEDRAL>
5.40773

>  <SCORE.SYSTEM.POLAR>
-3.22101

>  <SCORE.SYSTEM.SOLV>
0.456401

>  <SCORE.SYSTEM.VDW>
-5.38916

>  <SCORE.SYSTEM.norm>
-2.12567

>  <SCORE.heavy>
10

>  <SCORE.norm>
-4.92901

$$$$
P152069116
 OpenBabel12072022103D
libRbt.so/2013.1/901 2013/11/27
 12 12  0  0  0  0  0  0  0  0999 V2000
   19.3139  -19.3735    5.8004 C   0  0  0  0  0  0  0  0  0  0  0  0
   19.8157  -18.0465    6.3219 C   0  0  0  0  0  0  0  0  0  0  0  0
   20.2579  -17.2056    5.2395 N   0  0  0  0  0  0  0  0  0  0  0  0
   19.7059  -17.1879    3.9974 C   0  0  0  0  0  0  0  0  0  0  0  0
   19.9865  -16.2838    3.2139 O   0  0  0  0  0  0  0  0  0  0  0  0
   18.8387  -18.2129    3.6858 N   0  0  0  0  0  0  0  0  0  0  0  0
   18.2926  -19.0858    4.7164 C   0  0  0  0  0  0  0  0  0  0  0  0
   18.1633  -18.1844    2.3848 C   0  0  0  0  0  0  0  0  0  0  0  0
   19.0981  -18.5102    1.2124 C   0  0  0  0  0  0  0  0  0  0  0  0
   20.2218  -17.6374    1.1332 O   0  0  0  0  0  0  0  0  0  0  0  0
   20.8283  -16.3939    5.4409 H   0  0  0  0  0  0  0  0  0  0  0  0
   20.6986  -17.8229    0.2958 H   0  0  0  0  0  0  0  0  0  0  0  0
  1  2  1  0  0  0  0
  1  7  1  0  0  0  0
  2  3  1  0  0  0  0
  3  4  1  0  0  0  0
  3 11  1  0  0  0  0
  4  5  2  0  0  0  0
  4  6  1  0  0  0  0
  6  7  1  0  0  0  0
  6  8  1  0  0  0  0
  8  9  1  0  0  0  0
  9 10  1  0  0  0  0
 10 12  1  0  0  0  0
M  END
>  <CHROM.0>
-51.56604419,-60.93949818,-55.00687130,-53.99650152,-56.21815372,-61.82137212
-52.59218028,-175.61311638,-167.08080507,160.86366625

>  <CHROM.1>
72.75016278,-57.33005498,-172.05529304,19.40430550,-17.94403990,3.71088308
1.56216034,0.91236871,1.70413980

>  <Name>
P152069116

>  <RI>
0

>  <Rbt.Current_Directory>
/home/fstefaniak/projects/zuza/docking/adenine/1Y26

>  <Rbt.Executable>
rbdock ($Id: //depot/dev/client3/rdock/2013.1/src/exe/rbdock.cxx#4 $)

>  <Rbt.Library>
libRbt.so (2013.1, Build901 2013/11/27)

>  <Rbt.Parameter_File>
/home/fstefaniak/progs/rDock//data/scripts/dock_solv.prm

>  <Rbt.Receptor>
1y26.prm

>  <SCORE>
-49.2202

>  <SCORE.INTER>
-22.2958

>  <SCORE.INTER.CONST>
1

>  <SCORE.INTER.POLAR>
-2.50107

>  <SCORE.INTER.ROT>
2

>  <SCORE.INTER.SOLV>
13.4355

>  <SCORE.INTER.VDW>
-15.9388

>  <SCORE.INTER.norm>
-2.22958

>  <SCORE.INTRA>
-4.32002

>  <SCORE.INTRA.DIHEDRAL>
-8.04265

>  <SCORE.INTRA.DIHEDRAL.0>
10.5491

>  <SCORE.INTRA.POLAR>
0.0274738

>  <SCORE.INTRA.POLAR.0>
-0.0274738

>  <SCORE.INTRA.REPUL>
0

>  <SCORE.INTRA.REPUL.0>
0

>  <SCORE.INTRA.SOLV>
0.130112

>  <SCORE.INTRA.SOLV.lig_0>
-16.041

>  <SCORE.INTRA.VDW>
-0.457162

>  <SCORE.INTRA.VDW.0>
0.38247

>  <SCORE.INTRA.norm>
-0.432002

>  <SCORE.RESTR>
0

>  <SCORE.RESTR.CAVITY>
0

>  <SCORE.RESTR.norm>
0

>  <SCORE.SYSTEM>
-22.6043

>  <SCORE.SYSTEM.CONST>
0

>  <SCORE.SYSTEM.DIHEDRAL>
5.41558

>  <SCORE.SYSTEM.POLAR>
-3.41739

>  <SCORE.SYSTEM.SOLV>
0.460386

>  <SCORE.SYSTEM.VDW>
-5.63691

>  <SCORE.SYSTEM.norm>
-2.26043

>  <SCORE.heavy>
10

>  <SCORE.norm>
-4.92202

$$$$
P152264608
 OpenBabel12072022103D
libRbt.so/2013.1/901 2013/11/27
 15 15  0  0  0  0  0  0  0  0999 V2000
   18.0102  -19.1145    5.5333 C   0  0  0  0  0  0  0  0  0  0  0  0
   19.1314  -18.3803    4.8844 C   0  0  0  0  0  0  0  0  0  0  0  0
   20.2079  -17.8913    5.5085 C   0  0  0  0  0  0  0  0  0  0  0  0
   21.0318  -17.2574    4.4685 C   0  0  0  0  0  0  0  0  0  0  0  0
   22.1668  -16.6936    4.7401 N   0  0  0  0  0  0  0  0  0  0  0  0
   22.7839  -16.1520    3.6040 N   0  0  0  0  0  0  0  0  0  0  0  0
   24.0576  -15.9777    3.7726 C   0  0  0  0  0  0  0  0  0  0  0  0
   24.7291  -16.2382    4.9215 N   0  0  0  0  0  0  0  0  0  0  0  0
   24.8558  -15.4798    2.8050 N   0  0  0  0  0  0  0  0  0  0  0  0
   20.3881  -17.3596    3.1135 C   0  0  0  0  0  0  0  0  0  0  0  0
   19.1103  -18.1374    3.4042 C   0  0  0  0  0  0  0  0  0  0  0  0
   25.7198  -16.1162    4.7111 H   0  0  0  0  0  0  0  0  0  0  0  0
   24.4622  -15.6509    5.6968 H   0  0  0  0  0  0  0  0  0  0  0  0
   25.0286  -16.1327    2.0508 H   0  0  0  0  0  0  0  0  0  0  0  0
   25.6605  -14.9490    3.0980 H   0  0  0  0  0  0  0  0  0  0  0  0
  1  2  1  0  0  0  0
  2  3  2  0  0  0  0
  2 11  1  0  0  0  0
  3  4  1  0  0  0  0
  4  5  2  0  0  0  0
  4 10  1  0  0  0  0
  5  6  1  0  0  0  0
  6  7  2  0  0  0  0
  7  8  1  0  0  0  0
  7  9  1  0  0  0  0
  8 12  1  0  0  0  0
  8 13  1  0  0  0  0
  9 14  1  0  0  0  0
  9 15  1  0  0  0  0
 10 11  1  0  0  0  0
M  END
>  <CHROM.0>
-49.36713032,80.52999992,-49.79564046,-51.20098837,-59.55126037,-57.76106394
-54.82169178,-52.40832346,-166.83834912,161.03926573

>  <CHROM.1>
-159.52225453,173.01482902,-72.76291314,21.58402217,-17.12128262,4.23628670
-2.88392278,-0.39518952,-1.34193804

>  <Name>
P152264608

>  <RI>
0

>  <Rbt.Current_Directory>
/home/fstefaniak/projects/zuza/docking/adenine/1Y26

>  <Rbt.Executable>
rbdock ($Id: //depot/dev/client3/rdock/2013.1/src/exe/rbdock.cxx#4 $)

>  <Rbt.Library>
libRbt.so (2013.1, Build901 2013/11/27)

>  <Rbt.Parameter_File>
/home/fstefaniak/progs/rDock//data/scripts/dock_solv.prm

>  <Rbt.Receptor>
1y26.prm

>  <SCORE>
-56.5756

>  <SCORE.INTER>
-37.3921

>  <SCORE.INTER.CONST>
1

>  <SCORE.INTER.POLAR>
-4.70271

>  <SCORE.INTER.ROT>
3

>  <SCORE.INTER.SOLV>
12.1911

>  <SCORE.INTER.VDW>
-18.916

>  <SCORE.INTER.norm>
-3.39928

>  <SCORE.INTRA>
1.14766

>  <SCORE.INTRA.DIHEDRAL>
0.331661

>  <SCORE.INTRA.DIHEDRAL.0>
1.01263

>  <SCORE.INTRA.POLAR>
0.225068

>  <SCORE.INTRA.POLAR.0>
-0.225068

>  <SCORE.INTRA.REPUL>
0

>  <SCORE.INTRA.REPUL.0>
0

>  <SCORE.INTRA.SOLV>
0.0481928

>  <SCORE.INTRA.SOLV.lig_0>
-11.1852

>  <SCORE.INTRA.VDW>
0.192503

>  <SCORE.INTRA.VDW.0>
-0.506888

>  <SCORE.INTRA.norm>
0.104333

>  <SCORE.RESTR>
0

>  <SCORE.RESTR.CAVITY>
0

>  <SCORE.RESTR.norm>
0

>  <SCORE.SYSTEM>
-20.3312

>  <SCORE.SYSTEM.CONST>
0

>  <SCORE.SYSTEM.DIHEDRAL>
7.9678

>  <SCORE.SYSTEM.POLAR>
-3.5599

>  <SCORE.SYSTEM.SOLV>
0.684373

>  <SCORE.SYSTEM.VDW>
-4.57189

>  <SCORE.SYSTEM.norm>
-1.84829

>  <SCORE.heavy>
11

>  <SCORE.norm>
-5.14324

$$$$
P152264608
 OpenBabel12072022103D
libRbt.so/2013.1/901 2013/11/27
 15 15  0  0  0  0  0  0  0  0999 V2000
   18.0390  -19.1312    5.5347 C   0  0  0  0  0  0  0  0  0  0  0  0
   19.1559  -18.3843    4.8929 C   0  0  0  0  0  0  0  0  0  0  0  0
   20.2172  -17.8733    5.5256 C   0  0  0  0  0  0  0  0  0  0  0  0
   21.0431  -17.2347    4.4901 C   0  0  0  0  0  0  0  0  0  0  0  0
   22.1658  -16.6506    4.7703 N   0  0  0  0  0  0  0  0  0  0  0  0
   22.7876  -16.1084    3.6372 N   0  0  0  0  0  0  0  0  0  0  0  0
   24.0636  -15.9511    3.8047 C   0  0  0  0  0  0  0  0  0  0  0  0
   24.7339  -16.2284    4.9504 N   0  0  0  0  0  0  0  0  0  0  0  0
   24.8662  -15.4561    2.8393 N   0  0  0  0  0  0  0  0  0  0  0  0
   20.4172  -17.3579    3.1286 C   0  0  0  0  0  0  0  0  0  0  0  0
   19.1485  -18.1537    3.4107 C   0  0  0  0  0  0  0  0  0  0  0  0
   25.7247  -16.1028    4.7431 H   0  0  0  0  0  0  0  0  0  0  0  0
   24.4656  -15.6530    5.7341 H   0  0  0  0  0  0  0  0  0  0  0  0
   25.0600  -16.1185    2.0987 H   0  0  0  0  0  0  0  0  0  0  0  0
   25.6580  -14.9068    3.1338 H   0  0  0  0  0  0  0  0  0  0  0  0
  1  2  1  0  0  0  0
  2  3  2  0  0  0  0
  2 11  1  0  0  0  0
  3  4  1  0  0  0  0
  4  5  2  0  0  0  0
  4 10  1  0  0  0  0
  5  6  1  0  0  0  0
  6  7  2  0  0  0  0
  7  8  1  0  0  0  0
  7  9  1  0  0  0  0
  8 12  1  0  0  0  0
  8 13  1  0  0  0  0
  9 14  1  0  0  0  0
  9 15  1  0  0  0  0
 10 11  1  0  0  0  0
M  END
>  <CHROM.0>
-52.01877559,75.09045770,-61.93124249,-49.76193760,-177.34151699,-61.27442371
-54.58861922,-53.69185151,-165.55298271,160.25032801

>  <CHROM.1>
-157.51788596,173.89276474,-75.10492465,21.59904924,-17.10765461,4.25743410
-2.88776246,-0.40323792,-1.34592495

>  <Name>
P152264608

>  <RI>
0

>  <Rbt.Current_Directory>
/home/fstefaniak/projects/zuza/docking/adenine/1Y26

>  <Rbt.Executable>
rbdock ($Id: //depot/dev/client3/rdock/2013.1/src/exe/rbdock.cxx#4 $)

>  <Rbt.Library>
libRbt.so (2013.1, Build901 2013/11/27)

>  <Rbt.Parameter_File>
/home/fstefaniak/progs/rDock//data/scripts/dock_solv.prm

>  <Rbt.Receptor>
1y26.prm

>  <SCORE>
-56.5266

>  <SCORE.INTER>
-36.9081

>  <SCORE.INTER.CONST>
1

>  <SCORE.INTER.POLAR>
-4.54196

>  <SCORE.INTER.ROT>
3

>  <SCORE.INTER.SOLV>
12.2028

>  <SCORE.INTER.VDW>
-19.1331

>  <SCORE.INTER.norm>
-3.35528

>  <SCORE.INTRA>
1.16312

>  <SCORE.INTRA.DIHEDRAL>
0.406448

>  <SCORE.INTRA.DIHEDRAL.0>
1.01263

>  <SCORE.INTRA.POLAR>
0.225068

>  <SCORE.INTRA.POLAR.0>
-0.225068

>  <SCORE.INTRA.REPUL>
0

>  <SCORE.INTRA.REPUL.0>
0

>  <SCORE.INTRA.SOLV>
0.0538947

>  <SCORE.INTRA.SOLV.lig_0>
-11.1852

>  <SCORE.INTRA.VDW>
0.167721

>  <SCORE.INTRA.VDW.0>
-0.506888

>  <SCORE.INTRA.norm>
0.105739

>  <SCORE.RESTR>
0

>  <SCORE.RESTR.CAVITY>
0

>  <SCORE.RESTR.norm>
0

>  <SCORE.SYSTEM>
-20.7817

>  <SCORE.SYSTEM.CONST>
0

>  <SCORE.SYSTEM.DIHEDRAL>
6.81134

>  <SCORE.SYSTEM.POLAR>
-3.4916

>  <SCORE.SYSTEM.SOLV>
0.492831

>  <SCORE.SYSTEM.VDW>
-4.65052

>  <SCORE.SYSTEM.norm>
-1.88924

>  <SCORE.heavy>
11

>  <SCORE.norm>
-5.13878

$$$$
P152264608
 OpenBabel12072022103D
libRbt.so/2013.1/901 2013/11/27
 15 15  0  0  0  0  0  0  0  0999 V2000
   17.9996  -19.1584    5.6233 C   0  0  0  0  0  0  0  0  0  0  0  0
   19.1135  -18.4220    4.9645 C   0  0  0  0  0  0  0  0  0  0  0  0
   20.1615  -17.8733    5.5877 C   0  0  0  0  0  0  0  0  0  0  0  0
   20.9900  -17.2638    4.5368 C   0  0  0  0  0  0  0  0  0  0  0  0
   22.1021  -16.6548    4.8056 N   0  0  0  0  0  0  0  0  0  0  0  0
   22.7288  -16.1481    3.6588 N   0  0  0  0  0  0  0  0  0  0  0  0
   24.0122  -16.0396    3.8073 C   0  0  0  0  0  0  0  0  0  0  0  0
   24.6871  -16.3324    4.9465 N   0  0  0  0  0  0  0  0  0  0  0  0
   24.8201  -15.5856    2.8263 N   0  0  0  0  0  0  0  0  0  0  0  0
   20.3800  -17.4472    3.1748 C   0  0  0  0  0  0  0  0  0  0  0  0
   19.1187  -18.2482    3.4745 C   0  0  0  0  0  0  0  0  0  0  0  0
   25.6769  -16.2015    4.7376 H   0  0  0  0  0  0  0  0  0  0  0  0
   24.4203  -15.7692    5.7396 H   0  0  0  0  0  0  0  0  0  0  0  0
   24.9634  -16.2558    2.0811 H   0  0  0  0  0  0  0  0  0  0  0  0
   25.6456  -15.0796    3.1050 H   0  0  0  0  0  0  0  0  0  0  0  0
  1  2  1  0  0  0  0
  2  3  2  0  0  0  0
  2 11  1  0  0  0  0
  3  4  1  0  0  0  0
  4  5  2  0  0  0  0
  4 10  1  0  0  0  0
  5  6  1  0  0  0  0
  6  7  2  0  0  0  0
  7  8  1  0  0  0  0
  7  9  1  0  0  0  0
  8 12  1  0  0  0  0
  8 13  1  0  0  0  0
  9 14  1  0  0  0  0
  9 15  1  0  0  0  0
 10 11  1  0  0  0  0
M  END
>  <CHROM.0>
-51.11309573,74.09477898,-55.77401631,-52.70753639,-56.82158393,59.85517011
-58.16690972,-177.59990395,-167.38100587,160.81161553

>  <CHROM.1>
-153.83330079,176.71787132,-74.02689077,21.55146250,-17.16853594,4.29455397
-2.88673984,-0.39971249,-1.37426657

>  <Name>
P152264608

>  <RI>
0

>  <Rbt.Current_Directory>
/home/fstefaniak/projects/zuza/docking/adenine/1Y26

>  <Rbt.Executable>
rbdock ($Id: //depot/dev/client3/rdock/2013.1/src/exe/rbdock.cxx#4 $)

>  <Rbt.Library>
libRbt.so (2013.1, Build901 2013/11/27)

>  <Rbt.Parameter_File>
/home/fstefaniak/progs/rDock//data/scripts/dock_solv.prm

>  <Rbt.Receptor>
1y26.prm

>  <SCORE>
-56.3188

>  <SCORE.INTER>
-36.9572

>  <SCORE.INTER.CONST>
1

>  <SCORE.INTER.POLAR>
-4.56329

>  <SCORE.INTER.ROT>
3

>  <SCORE.INTER.SOLV>
12.2309

>  <SCORE.INTER.VDW>
-19.1041

>  <SCORE.INTER.norm>
-3.35974

>  <SCORE.INTRA>
1.26169

>  <SCORE.INTRA.DIHEDRAL>
0.558671

>  <SCORE.INTRA.DIHEDRAL.0>
1.01263

>  <SCORE.INTRA.POLAR>
0.225068

>  <SCORE.INTRA.POLAR.0>
-0.225068

>  <SCORE.INTRA.REPUL>
0

>  <SCORE.INTRA.REPUL.0>
0

>  <SCORE.INTRA.SOLV>
0.0649334

>  <SCORE.INTRA.SOLV.lig_0>
-11.1852

>  <SCORE.INTRA.VDW>
0.184652

>  <SCORE.INTRA.VDW.0>
-0.506888

>  <SCORE.INTRA.norm>
0.114699

>  <SCORE.RESTR>
0

>  <SCORE.RESTR.CAVITY>
0

>  <SCORE.RESTR.norm>
0

>  <SCORE.SYSTEM>
-20.6233

>  <SCORE.SYSTEM.CONST>
0

>  <SCORE.SYSTEM.DIHEDRAL>
6.03394

>  <SCORE.SYSTEM.POLAR>
-3.41635

>  <SCORE.SYSTEM.SOLV>
0.291327

>  <SCORE.SYSTEM.VDW>
-4.46944

>  <SCORE.SYSTEM.norm>
-1.87484

>  <SCORE.heavy>
11

>  <SCORE.norm>
-5.11989

$$$$
P152612369
 OpenBabel12072022103D
libRbt.so/2013.1/901 2013/11/27
 14 14  0  0  0  0  0  0  0  0999 V2000
   20.3390  -16.3919    4.5535 C   0  0  0  0  0  0  0  0  0  0  0  0
   20.6591  -17.0257    3.2461 C   0  0  0  0  0  0  0  0  0  0  0  0
   21.5630  -15.9442    3.7908 C   0  0  0  0  0  0  0  0  0  0  0  0
   22.8492  -16.3186    4.2815 N   0  0  0  0  0  0  0  0  0  0  0  0
   23.7528  -15.5323    4.9025 C   0  0  0  0  0  0  0  0  0  0  0  0
   24.9926  -16.0469    5.2033 N   0  3  0  0  0  0  0  0  0  0  0  0
   25.6448  -15.5861    5.8352 H   0  0  0  0  0  0  0  0  0  0  0  0
   25.3197  -17.3418    4.7703 N   0  0  0  0  0  0  0  0  0  0  0  0
   23.4828  -14.2666    5.2510 N   0  0  0  0  0  0  0  0  0  0  0  0
   23.1206  -17.2953    4.2130 H   0  0  0  0  0  0  0  0  0  0  0  0
   26.1159  -17.6945    5.3165 H   0  0  0  0  0  0  0  0  0  0  0  0
   24.5349  -17.9779    4.9592 H   0  0  0  0  0  0  0  0  0  0  0  0
   22.5700  -13.8626    5.1052 H   0  0  0  0  0  0  0  0  0  0  0  0
   24.1808  -13.6867    5.6959 H   0  0  0  0  0  0  0  0  0  0  0  0
  1  2  1  0  0  0  0
  1  3  1  0  0  0  0
  2  3  1  0  0  0  0
  3  4  1  0  0  0  0
  4  5  1  0  0  0  0
  4 10  1  0  0  0  0
  5  6  2  0  0  0  0
  5  9  1  0  0  0  0
  6  7  1  0  0  0  0
  6  8  1  0  0  0  0
  8 11  1  0  0  0  0
  8 12  1  0  0  0  0
  9 13  1  0  0  0  0
  9 14  1  0  0  0  0
M  CHG  1   6   1
M  END
>  <CHROM.0>
61.80270920,-59.75660966,-55.98826072,-53.43841003,-57.52835554,-61.00577890
-61.79414508,-178.50457342,-166.54979004,161.61436336

>  <CHROM.1>
-105.94634225,-161.39432026,22.94317657,-16.11531163,4.53488695,2.97395920
0.24568420,-2.80075429

>  <Name>
P152612369

>  <RI>
0

>  <Rbt.Current_Directory>
/home/fstefaniak/projects/zuza/docking/adenine/1Y26

>  <Rbt.Executable>
rbdock ($Id: //depot/dev/client3/rdock/2013.1/src/exe/rbdock.cxx#4 $)

>  <Rbt.Library>
libRbt.so (2013.1, Build901 2013/11/27)

>  <Rbt.Parameter_File>
/home/fstefaniak/progs/rDock//data/scripts/dock_solv.prm

>  <Rbt.Receptor>
1y26.prm

>  <SCORE>
-55.9463

>  <SCORE.INTER>
-35.981

>  <SCORE.INTER.CONST>
1

>  <SCORE.INTER.POLAR>
-5.32224

>  <SCORE.INTER.ROT>
2

>  <SCORE.INTER.SOLV>
16.2068

>  <SCORE.INTER.VDW>
-16.5821

>  <SCORE.INTER.norm>
-4.49762

>  <SCORE.INTRA>
1.83052

>  <SCORE.INTRA.DIHEDRAL>
0.0469398

>  <SCORE.INTRA.DIHEDRAL.0>
3.2197

>  <SCORE.INTRA.POLAR>
0.0556622

>  <SCORE.INTRA.POLAR.0>
-0.0758958

>  <SCORE.INTRA.REPUL>
0

>  <SCORE.INTRA.REPUL.0>
0

>  <SCORE.INTRA.SOLV>
0.269521

>  <SCORE.INTRA.SOLV.lig_0>
-28.7305

>  <SCORE.INTRA.VDW>
1.48304

>  <SCORE.INTRA.VDW.0>
-0.726309

>  <SCORE.INTRA.norm>
0.228815

>  <SCORE.RESTR>
0

>  <SCORE.RESTR.CAVITY>
0

>  <SCORE.RESTR.norm>
0

>  <SCORE.SYSTEM>
-21.7958

>  <SCORE.SYSTEM.CONST>
0

>  <SCORE.SYSTEM.DIHEDRAL>
4.65741

>  <SCORE.SYSTEM.POLAR>
-3.17187

>  <SCORE.SYSTEM.SOLV>
0.417782

>  <SCORE.SYSTEM.VDW>
-5.64938

>  <SCORE.SYSTEM.norm>
-2.72448

>  <SCORE.heavy>
8

>  <SCORE.norm>
-6.99329

$$$$
P152612369
 OpenBabel12072022103D
libRbt.so/2013.1/901 2013/11/27
 14 14  0  0  0  0  0  0  0  0999 V2000
   20.3456  -16.3737    4.5693 C   0  0  0  0  0  0  0  0  0  0  0  0
   20.6523  -17.0449    3.2775 C   0  0  0  0  0  0  0  0  0  0  0  0
   21.5675  -15.9556    3.7866 C   0  0  0  0  0  0  0  0  0  0  0  0
   22.8544  -16.3258    4.2788 N   0  0  0  0  0  0  0  0  0  0  0  0
   23.7577  -15.5349    4.8942 C   0  0  0  0  0  0  0  0  0  0  0  0
   24.9982  -16.0465    5.1974 N   0  3  0  0  0  0  0  0  0  0  0  0
   25.6504  -15.5812    5.8260 H   0  0  0  0  0  0  0  0  0  0  0  0
   25.3260  -17.3439    4.7725 N   0  0  0  0  0  0  0  0  0  0  0  0
   23.4870  -14.2672    5.2349 N   0  0  0  0  0  0  0  0  0  0  0  0
   23.1265  -17.3027    4.2163 H   0  0  0  0  0  0  0  0  0  0  0  0
   26.1235  -17.6921    5.3196 H   0  0  0  0  0  0  0  0  0  0  0  0
   24.5423  -17.9796    4.9668 H   0  0  0  0  0  0  0  0  0  0  0  0
   22.5738  -13.8649    5.0871 H   0  0  0  0  0  0  0  0  0  0  0  0
   24.1847  -13.6839    5.6756 H   0  0  0  0  0  0  0  0  0  0  0  0
  1  2  1  0  0  0  0
  1  3  1  0  0  0  0
  2  3  1  0  0  0  0
  3  4  1  0  0  0  0
  4  5  1  0  0  0  0
  4 10  1  0  0  0  0
  5  6  2  0  0  0  0
  5  9  1  0  0  0  0
  6  7  1  0  0  0  0
  6  8  1  0  0  0  0
  8 11  1  0  0  0  0
  8 12  1  0  0  0  0
  9 13  1  0  0  0  0
  9 14  1  0  0  0  0
M  CHG  1   6   1
M  END
>  <CHROM.0>
-48.15827962,-64.16532466,62.99915819,-51.92871034,-53.53751241,-57.27240741
78.17191818,-172.41953900,-166.29266549,161.85033607

>  <CHROM.1>
-104.62929982,-161.45531937,22.94707065,-16.11815856,4.53624880,2.97794873
0.24175101,-2.80827871

>  <Name>
P152612369

>  <RI>
0

>  <Rbt.Current_Directory>
/home/fstefaniak/projects/zuza/docking/adenine/1Y26

>  <Rbt.Executable>
rbdock ($Id: //depot/dev/client3/rdock/2013.1/src/exe/rbdock.cxx#4 $)

>  <Rbt.Library>
libRbt.so (2013.1, Build901 2013/11/27)

>  <Rbt.Parameter_File>
/home/fstefaniak/progs/rDock//data/scripts/dock_solv.prm

>  <Rbt.Receptor>
1y26.prm

>  <SCORE>
-55.3215

>  <SCORE.INTER>
-35.9657

>  <SCORE.INTER.CONST>
1

>  <SCORE.INTER.POLAR>
-5.30767

>  <SCORE.INTER.ROT>
2

>  <SCORE.INTER.SOLV>
16.1366

>  <SCORE.INTER.VDW>
-16.5971

>  <SCORE.INTER.norm>
-4.49572

>  <SCORE.INTRA>
1.8181

>  <SCORE.INTRA.DIHEDRAL>
0.0431581

>  <SCORE.INTRA.DIHEDRAL.0>
3.2197

>  <SCORE.INTRA.POLAR>
0.05555

>  <SCORE.INTRA.POLAR.0>
-0.0758958

>  <SCORE.INTRA.REPUL>
0

>  <SCORE.INTRA.REPUL.0>
0

>  <SCORE.INTRA.SOLV>
0.277832

>  <SCORE.INTRA.SOLV.lig_0>
-28.7305

>  <SCORE.INTRA.VDW>
1.46873

>  <SCORE.INTRA.VDW.0>
-0.726309

>  <SCORE.INTRA.norm>
0.227262

>  <SCORE.RESTR>
0

>  <SCORE.RESTR.CAVITY>
0

>  <SCORE.RESTR.norm>
0

>  <SCORE.SYSTEM>
-21.1738

>  <SCORE.SYSTEM.CONST>
0

>  <SCORE.SYSTEM.DIHEDRAL>
7.34964

>  <SCORE.SYSTEM.POLAR>
-3.79257

>  <SCORE.SYSTEM.SOLV>
0.281111

>  <SCORE.SYSTEM.VDW>
-4.01759

>  <SCORE.SYSTEM.norm>
-2.64673

>  <SCORE.heavy>
8

>  <SCORE.norm>
-6.91518

$$$$
P152612369
 OpenBabel12072022103D
libRbt.so/2013.1/901 2013/11/27
 14 14  0  0  0  0  0  0  0  0999 V2000
   20.3452  -16.3494    4.5571 C   0  0  0  0  0  0  0  0  0  0  0  0
   20.6454  -17.0619    3.2861 C   0  0  0  0  0  0  0  0  0  0  0  0
   21.5683  -15.9633    3.7601 C   0  0  0  0  0  0  0  0  0  0  0  0
   22.8537  -16.3265    4.2614 N   0  0  0  0  0  0  0  0  0  0  0  0
   23.7503  -15.5294    4.8786 C   0  0  0  0  0  0  0  0  0  0  0  0
   24.9909  -16.0349    5.1913 N   0  3  0  0  0  0  0  0  0  0  0  0
   25.6377  -15.5644    5.8216 H   0  0  0  0  0  0  0  0  0  0  0  0
   25.3262  -17.3329    4.7740 N   0  0  0  0  0  0  0  0  0  0  0  0
   23.4728  -14.2613    5.2120 N   0  0  0  0  0  0  0  0  0  0  0  0
   23.1298  -17.3026    4.2049 H   0  0  0  0  0  0  0  0  0  0  0  0
   26.1142  -17.6802    5.3354 H   0  0  0  0  0  0  0  0  0  0  0  0
   24.5393  -17.9684    4.9558 H   0  0  0  0  0  0  0  0  0  0  0  0
   22.5590  -13.8630    5.0571 H   0  0  0  0  0  0  0  0  0  0  0  0
   24.1658  -13.6734    5.6542 H   0  0  0  0  0  0  0  0  0  0  0  0
  1  2  1  0  0  0  0
  1  3  1  0  0  0  0
  2  3  1  0  0  0  0
  3  4  1  0  0  0  0
  4  5  1  0  0  0  0
  4 10  1  0  0  0  0
  5  6  2  0  0  0  0
  5  9  1  0  0  0  0
  6  7  1  0  0  0  0
  6  8  1  0  0  0  0
  8 11  1  0  0  0  0
  8 12  1  0  0  0  0
  9 13  1  0  0  0  0
  9 14  1  0  0  0  0
M  CHG  1   6   1
M  END
>  <CHROM.0>
-49.64317116,-57.56631357,-65.88778825,-51.89485781,-171.63453609,-57.43960636
-174.45407755,-48.40312721,-167.77041132,160.59793773

>  <CHROM.1>
-102.95679986,-160.74940206,22.94233413,-16.11372459,4.52519461,2.97811890
0.24235171,-2.81305945

>  <Name>
P152612369

>  <RI>
0

>  <Rbt.Current_Directory>
/home/fstefaniak/projects/zuza/docking/adenine/1Y26

>  <Rbt.Executable>
rbdock ($Id: //depot/dev/client3/rdock/2013.1/src/exe/rbdock.cxx#4 $)

>  <Rbt.Library>
libRbt.so (2013.1, Build901 2013/11/27)

>  <Rbt.Parameter_File>
/home/fstefaniak/progs/rDock//data/scripts/dock_solv.prm

>  <Rbt.Receptor>
1y26.prm

>  <SCORE>
-55.2607

>  <SCORE.INTER>
-36.0704

>  <SCORE.INTER.CONST>
1

>  <SCORE.INTER.POLAR>
-5.32633

>  <SCORE.INTER.ROT>
2

>  <SCORE.INTER.SOLV>
16.0268

>  <SCORE.INTER.VDW>
-16.5681

>  <SCORE.INTER.norm>
-4.5088

>  <SCORE.INTRA>
1.94341

>  <SCORE.INTRA.DIHEDRAL>
0.0440242

>  <SCORE.INTRA.DIHEDRAL.0>
3.2197

>  <SCORE.INTRA.POLAR>
0.0568497

>  <SCORE.INTRA.POLAR.0>
-0.0758958

>  <SCORE.INTRA.REPUL>
0

>  <SCORE.INTRA.REPUL.0>
0

>  <SCORE.INTRA.SOLV>
0.29135

>  <SCORE.INTRA.SOLV.lig_0>
-28.7305

>  <SCORE.INTRA.VDW>
1.58243

>  <SCORE.INTRA.VDW.0>
-0.726309

>  <SCORE.INTRA.norm>
0.242926

>  <SCORE.RESTR>
0

>  <SCORE.RESTR.CAVITY>
0

>  <SCORE.RESTR.norm>
0

>  <SCORE.SYSTEM>
-21.1338

>  <SCORE.SYSTEM.CONST>
0

>  <SCORE.SYSTEM.DIHEDRAL>
6.40785

>  <SCORE.SYSTEM.POLAR>
-3.4637

>  <SCORE.SYSTEM.SOLV>
0.453932

>  <SCORE.SYSTEM.VDW>
-4.83075

>  <SCORE.SYSTEM.norm>
-2.64172

>  <SCORE.heavy>
8

>  <SCORE.norm>
-6.90759

$$$$
P152621411
 OpenBabel12072022103D
libRbt.so/2013.1/901 2013/11/27
 16 16  0  0  0  0  0  0  0  0999 V2000
   22.2503  -12.5956    3.7540 C   0  0  0  0  0  0  0  0  0  0  0  0
   22.2229  -14.0706    4.0682 C   0  0  0  0  0  0  0  0  0  0  0  0
   20.9838  -14.7222    4.1302 C   0  0  0  0  0  0  0  0  0  0  0  0
   20.9127  -16.0823    4.3985 C   0  0  0  0  0  0  0  0  0  0  0  0
   22.0832  -16.8105    4.6018 C   0  0  0  0  0  0  0  0  0  0  0  0
   23.3515  -16.1955    4.5634 C   0  0  0  0  0  0  0  0  0  0  0  0
   23.4196  -14.8058    4.2765 C   0  0  0  0  0  0  0  0  0  0  0  0
   24.7408  -14.0982    4.1974 C   0  0  0  0  0  0  0  0  0  0  0  0
   25.5074  -14.2333    5.2146 O   0  0  0  0  0  0  0  0  0  0  0  0
   25.1018  -13.6238    3.0849 O   0  5  0  0  0  0  0  0  0  0  0  0
   24.4737  -17.0713    4.6867 N   0  0  0  0  0  0  0  0  0  0  0  0
   25.6957  -16.6910    5.3981 N   0  3  0  0  0  0  0  0  0  0  0  0
   26.2720  -16.0559    4.8202 H   0  0  0  0  0  0  0  0  0  0  0  0
   25.4488  -15.9691    6.1395 H   0  0  0  0  0  0  0  0  0  0  0  0
   26.2395  -17.4371    5.8269 H   0  0  0  0  0  0  0  0  0  0  0  0
   24.1832  -18.0511    4.7235 H   0  0  0  0  0  0  0  0  0  0  0  0
  1  2  1  0  0  0  0
  2  3  2  0  0  0  0
  2  7  1  0  0  0  0
  3  4  1  0  0  0  0
  4  5  2  0  0  0  0
  5  6  1  0  0  0  0
  6  7  2  0  0  0  0
  6 11  1  0  0  0  0
  7  8  1  0  0  0  0
  8  9  2  0  0  0  0
  8 10  1  0  0  0  0
 11 12  1  0  0  0  0
 11 16  1  0  0  0  0
 12 13  1  0  0  0  0
 12 14  1  0  0  0  0
 12 15  1  0  0  0  0
M  CHG  2  10  -1  12   1
M  END
>  <CHROM.0>
-46.96976738,-61.91098862,-58.25152415,-54.11592885,-175.52860116,-59.72171146
-59.90724397,-50.79998810,-167.07499916,161.50237796

>  <CHROM.1>
-144.29404039,126.09143064,-77.03211496,23.52098215,-15.08372121,4.38419070
-2.85030954,0.11047851,2.84566685

>  <Name>
P152621411

>  <RI>
0

>  <Rbt.Current_Directory>
/home/fstefaniak/projects/zuza/docking/adenine/1Y26

>  <Rbt.Executable>
rbdock ($Id: //depot/dev/client3/rdock/2013.1/src/exe/rbdock.cxx#4 $)

>  <Rbt.Library>
libRbt.so (2013.1, Build901 2013/11/27)

>  <Rbt.Parameter_File>
/home/fstefaniak/progs/rDock//data/scripts/dock_solv.prm

>  <Rbt.Receptor>
1y26.prm

>  <SCORE>
-53.8231

>  <SCORE.INTER>
-29.8352

>  <SCORE.INTER.CONST>
1

>  <SCORE.INTER.POLAR>
-5.046

>  <SCORE.INTER.ROT>
2

>  <SCORE.INTER.SOLV>
26.3517

>  <SCORE.INTER.VDW>
-16.7874

>  <SCORE.INTER.norm>
-2.48627

>  <SCORE.INTRA>
-2.47986

>  <SCORE.INTRA.DIHEDRAL>
1.63598

>  <SCORE.INTRA.DIHEDRAL.0>
9.93661

>  <SCORE.INTRA.POLAR>
-0.0507034

>  <SCORE.INTRA.POLAR.0>
-0.063604

>  <SCORE.INTRA.REPUL>
0

>  <SCORE.INTRA.REPUL.0>
0

>  <SCORE.INTRA.SOLV>
-1.70417

>  <SCORE.INTRA.SOLV.lig_0>
-45.1123

>  <SCORE.INTRA.VDW>
-2.27338

>  <SCORE.INTRA.VDW.0>
1.61851

>  <SCORE.INTRA.norm>
-0.206655

>  <SCORE.RESTR>
0.695807

>  <SCORE.RESTR.CAVITY>
0.695807

>  <SCORE.RESTR.norm>
0.0579839

>  <SCORE.SYSTEM>
-22.2038

>  <SCORE.SYSTEM.CONST>
0

>  <SCORE.SYSTEM.DIHEDRAL>
5.72943

>  <SCORE.SYSTEM.POLAR>
-3.45222

>  <SCORE.SYSTEM.SOLV>
0.49395

>  <SCORE.SYSTEM.VDW>
-5.36956

>  <SCORE.SYSTEM.norm>
-1.85031

>  <SCORE.heavy>
12

>  <SCORE.norm>
-4.48526

$$$$
P152621411
 OpenBabel12072022103D
libRbt.so/2013.1/901 2013/11/27
 16 16  0  0  0  0  0  0  0  0999 V2000
   22.2077  -12.6046    3.7133 C   0  0  0  0  0  0  0  0  0  0  0  0
   22.1799  -14.0783    4.0337 C   0  0  0  0  0  0  0  0  0  0  0  0
   20.9417  -14.7325    4.0835 C   0  0  0  0  0  0  0  0  0  0  0  0
   20.8705  -16.0916    4.3570 C   0  0  0  0  0  0  0  0  0  0  0  0
   22.0401  -16.8161    4.5776 C   0  0  0  0  0  0  0  0  0  0  0  0
   23.3074  -16.1982    4.5519 C   0  0  0  0  0  0  0  0  0  0  0  0
   23.3757  -14.8097    4.2597 C   0  0  0  0  0  0  0  0  0  0  0  0
   24.6961  -14.0992    4.1935 C   0  0  0  0  0  0  0  0  0  0  0  0
   25.4433  -14.2137    5.2276 O   0  0  0  0  0  0  0  0  0  0  0  0
   25.0772  -13.6437    3.0798 O   0  5  0  0  0  0  0  0  0  0  0  0
   24.4300  -17.0708    4.6926 N   0  0  0  0  0  0  0  0  0  0  0  0
   25.6602  -16.6681    5.3771 N   0  3  0  0  0  0  0  0  0  0  0  0
   26.3137  -17.4660    5.4532 H   0  0  0  0  0  0  0  0  0  0  0  0
   26.2573  -16.1027    4.7022 H   0  0  0  0  0  0  0  0  0  0  0  0
   25.5635  -16.1525    6.2495 H   0  0  0  0  0  0  0  0  0  0  0  0
   24.1390  -18.0485    4.7660 H   0  0  0  0  0  0  0  0  0  0  0  0
  1  2  1  0  0  0  0
  2  3  2  0  0  0  0
  2  7  1  0  0  0  0
  3  4  1  0  0  0  0
  4  5  2  0  0  0  0
  5  6  1  0  0  0  0
  6  7  2  0  0  0  0
  6 11  1  0  0  0  0
  7  8  1  0  0  0  0
  8  9  2  0  0  0  0
  8 10  1  0  0  0  0
 11 12  1  0  0  0  0
 11 16  1  0  0  0  0
 12 13  1  0  0  0  0
 12 14  1  0  0  0  0
 12 15  1  0  0  0  0
M  CHG  2  10  -1  12   1
M  END
>  <CHROM.0>
-50.57093821,-168.61713982,-58.00680000,-51.42990662,-62.19696917,-63.79115258
-166.91910321,-53.54617736,-165.84353217,160.47012253

>  <CHROM.1>
-146.46356446,125.21028432,174.49290235,23.48001683,-15.08722399,4.36431724
-2.85790861,0.11781692,2.84699182

>  <Name>
P152621411

>  <RI>
0

>  <Rbt.Current_Directory>
/home/fstefaniak/projects/zuza/docking/adenine/1Y26

>  <Rbt.Executable>
rbdock ($Id: //depot/dev/client3/rdock/2013.1/src/exe/rbdock.cxx#4 $)

>  <Rbt.Library>
libRbt.so (2013.1, Build901 2013/11/27)

>  <Rbt.Parameter_File>
/home/fstefaniak/progs/rDock//data/scripts/dock_solv.prm

>  <Rbt.Receptor>
1y26.prm

>  <SCORE>
-53.7724

>  <SCORE.INTER>
-30.7641

>  <SCORE.INTER.CONST>
1

>  <SCORE.INTER.POLAR>
-5.32147

>  <SCORE.INTER.ROT>
2

>  <SCORE.INTER.SOLV>
26.444

>  <SCORE.INTER.VDW>
-16.5192

>  <SCORE.INTER.norm>
-2.56368

>  <SCORE.INTRA>
-2.57949

>  <SCORE.INTRA.DIHEDRAL>
1.30091

>  <SCORE.INTRA.DIHEDRAL.0>
9.93661

>  <SCORE.INTRA.POLAR>
0.063604

>  <SCORE.INTRA.POLAR.0>
-0.063604

>  <SCORE.INTRA.REPUL>
0

>  <SCORE.INTRA.REPUL.0>
0

>  <SCORE.INTRA.SOLV>
-2.31111

>  <SCORE.INTRA.SOLV.lig_0>
-45.1123

>  <SCORE.INTRA.VDW>
-2.29064

>  <SCORE.INTRA.VDW.0>
1.61851

>  <SCORE.INTRA.norm>
-0.214958

>  <SCORE.RESTR>
0.673796

>  <SCORE.RESTR.CAVITY>
0.673796

>  <SCORE.RESTR.norm>
0.0561497

>  <SCORE.SYSTEM>
-21.1026

>  <SCORE.SYSTEM.CONST>
0

>  <SCORE.SYSTEM.DIHEDRAL>
7.0056

>  <SCORE.SYSTEM.POLAR>
-3.47859

>  <SCORE.SYSTEM.SOLV>
0.531986

>  <SCORE.SYSTEM.VDW>
-4.9856

>  <SCORE.SYSTEM.norm>
-1.75855

>  <SCORE.heavy>
12

>  <SCORE.norm>
-4.48103

$$$$
P152621411
 OpenBabel12072022103D
libRbt.so/2013.1/901 2013/11/27
 16 16  0  0  0  0  0  0  0  0999 V2000
   22.1473  -12.6505    3.6310 C   0  0  0  0  0  0  0  0  0  0  0  0
   22.1362  -14.1156    3.9894 C   0  0  0  0  0  0  0  0  0  0  0  0
   20.9034  -14.7748    4.0873 C   0  0  0  0  0  0  0  0  0  0  0  0
   20.8471  -16.1268    4.3970 C   0  0  0  0  0  0  0  0  0  0  0  0
   22.0260  -16.8393    4.6060 C   0  0  0  0  0  0  0  0  0  0  0  0
   23.2887  -16.2158    4.5324 C   0  0  0  0  0  0  0  0  0  0  0  0
   23.3415  -14.8349    4.2034 C   0  0  0  0  0  0  0  0  0  0  0  0
   24.6557  -14.1196    4.0855 C   0  0  0  0  0  0  0  0  0  0  0  0
   25.4200  -14.1849    5.1114 O   0  0  0  0  0  0  0  0  0  0  0  0
   25.0160  -13.7099    2.9473 O   0  5  0  0  0  0  0  0  0  0  0  0
   24.4195  -17.0788    4.6666 N   0  0  0  0  0  0  0  0  0  0  0  0
   25.6418  -16.6734    5.3636 N   0  3  0  0  0  0  0  0  0  0  0  0
   26.2898  -17.4737    5.4596 H   0  0  0  0  0  0  0  0  0  0  0  0
   26.2516  -16.1200    4.6901 H   0  0  0  0  0  0  0  0  0  0  0  0
   25.5352  -16.1459    6.2277 H   0  0  0  0  0  0  0  0  0  0  0  0
   24.1383  -18.0604    4.7242 H   0  0  0  0  0  0  0  0  0  0  0  0
  1  2  1  0  0  0  0
  2  3  2  0  0  0  0
  2  7  1  0  0  0  0
  3  4  1  0  0  0  0
  4  5  2  0  0  0  0
  5  6  1  0  0  0  0
  6  7  2  0  0  0  0
  6 11  1  0  0  0  0
  7  8  1  0  0  0  0
  8  9  2  0  0  0  0
  8 10  1  0  0  0  0
 11 12  1  0  0  0  0
 11 16  1  0  0  0  0
 12 13  1  0  0  0  0
 12 14  1  0  0  0  0
 12 15  1  0  0  0  0
M  CHG  2  10  -1  12   1
M  END
>  <CHROM.0>
-51.48388381,29.37904939,-56.54948486,-50.32390987,-55.64464617,-57.08810605
-56.88322138,-51.54336796,-166.36957613,160.49852657

>  <CHROM.1>
-143.55659578,124.07508754,172.60318079,23.44778820,-15.11143853,4.31833521
-2.85894735,0.09912217,2.81953958

>  <Name>
P152621411

>  <RI>
0

>  <Rbt.Current_Directory>
/home/fstefaniak/projects/zuza/docking/adenine/1Y26

>  <Rbt.Executable>
rbdock ($Id: //depot/dev/client3/rdock/2013.1/src/exe/rbdock.cxx#4 $)

>  <Rbt.Library>
libRbt.so (2013.1, Build901 2013/11/27)

>  <Rbt.Parameter_File>
/home/fstefaniak/progs/rDock//data/scripts/dock_solv.prm

>  <Rbt.Receptor>
1y26.prm

>  <SCORE>
-53.0595

>  <SCORE.INTER>
-30.3871

>  <SCORE.INTER.CONST>
1

>  <SCORE.INTER.POLAR>
-5.24206

>  <SCORE.INTER.ROT>
2

>  <SCORE.INTER.SOLV>
26.4256

>  <SCORE.INTER.VDW>
-16.5264

>  <SCORE.INTER.norm>
-2.53225

>  <SCORE.INTRA>
-2.79557

>  <SCORE.INTRA.DIHEDRAL>
1.58844

>  <SCORE.INTRA.DIHEDRAL.0>
9.93661

>  <SCORE.INTRA.POLAR>
0.063604

>  <SCORE.INTRA.POLAR.0>
-0.063604

>  <SCORE.INTRA.REPUL>
0

>  <SCORE.INTRA.REPUL.0>
0

>  <SCORE.INTRA.SOLV>
-2.54256

>  <SCORE.INTRA.SOLV.lig_0>
-45.1123

>  <SCORE.INTRA.VDW>
-2.53477

>  <SCORE.INTRA.VDW.0>
1.61851

>  <SCORE.INTRA.norm>
-0.232964

>  <SCORE.RESTR>
0.619266

>  <SCORE.RESTR.CAVITY>
0.619266

>  <SCORE.RESTR.norm>
0.0516055

>  <SCORE.SYSTEM>
-20.4962

>  <SCORE.SYSTEM.CONST>
0

>  <SCORE.SYSTEM.DIHEDRAL>
9.4132

>  <SCORE.SYSTEM.POLAR>
-3.72266

>  <SCORE.SYSTEM.SOLV>
0.807913

>  <SCORE.SYSTEM.VDW>
-4.66227

>  <SCORE.SYSTEM.norm>
-1.70801

>  <SCORE.heavy>
12

>  <SCORE.norm>
-4.42163

$$$$
P152625938
 OpenBabel12072022103D
libRbt.so/2013.1/901 2013/11/27
 14 13  0  0  0  0  0  0  0  0999 V2000
   22.3440  -14.3762    4.3797 C   0  0  0  0  0  0  0  0  0  0  0  0
   22.5215  -15.8668    4.1341 C   0  0  2  0  0  0  0  0  0  0  0  0
   21.2551  -16.6584    4.4701 C   0  0  0  0  0  0  0  0  0  0  0  0
   20.4947  -16.9599    3.1943 C   0  0  0  0  0  0  0  0  0  0  0  0
   21.0974  -17.7167    2.3210 N   0  0  0  0  0  0  0  0  0  0  0  0
   20.2735  -17.8937    1.1979 O   0  0  0  0  0  0  0  0  0  0  0  0
   19.2584  -16.4078    3.0203 N   0  0  0  0  0  0  0  0  0  0  0  0
   23.6556  -16.3409    4.9845 N   0  3  0  0  0  0  0  0  0  0  0  0
   24.5399  -15.9409    4.6111 H   0  0  0  0  0  0  0  0  0  0  0  0
   23.5710  -16.0366    5.9613 H   0  0  0  0  0  0  0  0  0  0  0  0
   23.7724  -17.3610    4.9637 H   0  0  0  0  0  0  0  0  0  0  0  0
   20.0319  -18.8400    1.2261 H   0  0  0  0  0  0  0  0  0  0  0  0
   18.9765  -15.6444    3.6276 H   0  0  0  0  0  0  0  0  0  0  0  0
   18.5278  -17.1126    2.9200 H   0  0  0  0  0  0  0  0  0  0  0  0
  2  3  1  0  0  0  0
  2  8  1  0  0  0  0
  2  1  1  1  0  0  0
  3  4  1  0  0  0  0
  4  5  2  0  0  0  0
  4  7  1  0  0  0  0
  5  6  1  0  0  0  0
  6 12  1  0  0  0  0
  7 13  1  0  0  0  0
  7 14  1  0  0  0  0
  8  9  1  0  0  0  0
  8 10  1  0  0  0  0
  8 11  1  0  0  0  0
M  CHG  1   8   1
M  END
>  <CHROM.0>
-47.27515708,-70.70178207,-56.09181053,-53.15960637,-55.94346450,-59.97938539
-55.64321398,-170.69452742,-166.89556574,161.09161476

>  <CHROM.1>
99.70882120,-69.36506860,63.32925561,14.63921885,-112.29282517,21.36826039
-16.54521772,3.45321526,0.79598486,-0.32732631,0.65633128

>  <Name>
P152625938

>  <RI>
0

>  <Rbt.Current_Directory>
/home/fstefaniak/projects/zuza/docking/adenine/1Y26

>  <Rbt.Executable>
rbdock ($Id: //depot/dev/client3/rdock/2013.1/src/exe/rbdock.cxx#4 $)

>  <Rbt.Library>
libRbt.so (2013.1, Build901 2013/11/27)

>  <Rbt.Parameter_File>
/home/fstefaniak/progs/rDock//data/scripts/dock_solv.prm

>  <Rbt.Receptor>
1y26.prm

>  <SCORE>
-60.5487

>  <SCORE.INTER>
-40.7037

>  <SCORE.INTER.CONST>
1

>  <SCORE.INTER.POLAR>
-7.13424

>  <SCORE.INTER.ROT>
3

>  <SCORE.INTER.SOLV>
17.326

>  <SCORE.INTER.VDW>
-14.7303

>  <SCORE.INTER.norm>
-5.08796

>  <SCORE.INTRA>
2.52526

>  <SCORE.INTRA.DIHEDRAL>
2.10361

>  <SCORE.INTRA.DIHEDRAL.0>
4.01598

>  <SCORE.INTRA.POLAR>
0.859103

>  <SCORE.INTRA.POLAR.0>
-0.859103

>  <SCORE.INTRA.REPUL>
0

>  <SCORE.INTRA.REPUL.0>
0

>  <SCORE.INTRA.SOLV>
-2.79514

>  <SCORE.INTRA.SOLV.lig_0>
-27.776

>  <SCORE.INTRA.VDW>
-0.0499329

>  <SCORE.INTRA.VDW.0>
-0.179238

>  <SCORE.INTRA.norm>
0.315657

>  <SCORE.RESTR>
0

>  <SCORE.RESTR.CAVITY>
0

>  <SCORE.RESTR.norm>
0

>  <SCORE.SYSTEM>
-22.3703

>  <SCORE.SYSTEM.CONST>
0

>  <SCORE.SYSTEM.DIHEDRAL>
6.48321

>  <SCORE.SYSTEM.POLAR>
-3.46389

>  <SCORE.SYSTEM.SOLV>
0.452409

>  <SCORE.SYSTEM.VDW>
-5.67911

>  <SCORE.SYSTEM.norm>
-2.79629

>  <SCORE.heavy>
8

>  <SCORE.norm>
-7.56859

$$$$
P152625938
 OpenBabel12072022103D
libRbt.so/2013.1/901 2013/11/27
 14 13  0  0  0  0  0  0  0  0999 V2000
   22.3042  -14.4061    4.2597 C   0  0  0  0  0  0  0  0  0  0  0  0
   22.5397  -15.8968    4.0702 C   0  0  2  0  0  0  0  0  0  0  0  0
   21.2968  -16.7222    4.4129 C   0  0  0  0  0  0  0  0  0  0  0  0
   20.5081  -16.9960    3.1481 C   0  0  0  0  0  0  0  0  0  0  0  0
   21.0744  -17.7668    2.2629 N   0  0  0  0  0  0  0  0  0  0  0  0
   20.2283  -17.9150    1.1523 O   0  0  0  0  0  0  0  0  0  0  0  0
   19.2861  -16.4070    2.9956 N   0  0  0  0  0  0  0  0  0  0  0  0
   23.6747  -16.2991    4.9558 N   0  3  0  0  0  0  0  0  0  0  0  0
   23.7270  -17.3374    4.9770 H   0  0  0  0  0  0  0  0  0  0  0  0
   24.5808  -15.9543    4.6178 H   0  0  0  0  0  0  0  0  0  0  0  0
   23.5482  -15.9995    5.9298 H   0  0  0  0  0  0  0  0  0  0  0  0
   20.8285  -17.8469    0.3843 H   0  0  0  0  0  0  0  0  0  0  0  0
   19.0177  -15.6691    3.6394 H   0  0  0  0  0  0  0  0  0  0  0  0
   18.5402  -17.0885    2.8552 H   0  0  0  0  0  0  0  0  0  0  0  0
  2  3  1  0  0  0  0
  2  8  1  0  0  0  0
  2  1  1  1  0  0  0
  3  4  1  0  0  0  0
  4  5  2  0  0  0  0
  4  7  1  0  0  0  0
  5  6  1  0  0  0  0
  6 12  1  0  0  0  0
  7 13  1  0  0  0  0
  7 14  1  0  0  0  0
  8  9  1  0  0  0  0
  8 10  1  0  0  0  0
  8 11  1  0  0  0  0
M  CHG  1   8   1
M  END
>  <CHROM.0>
-46.65317572,-160.25358546,-53.77818362,-55.29158137,-177.58698290,-58.80661683
-37.14417940,-172.54337483,-166.56627994,158.94574641

>  <CHROM.1>
94.95857193,169.16140631,66.58188809,11.62867768,137.89238951,21.37524548
-16.55848353,3.39230115,0.79610548,-0.32742843,0.66626610

>  <Name>
P152625938

>  <RI>
0

>  <Rbt.Current_Directory>
/home/fstefaniak/projects/zuza/docking/adenine/1Y26

>  <Rbt.Executable>
rbdock ($Id: //depot/dev/client3/rdock/2013.1/src/exe/rbdock.cxx#4 $)

>  <Rbt.Library>
libRbt.so (2013.1, Build901 2013/11/27)

>  <Rbt.Parameter_File>
/home/fstefaniak/progs/rDock//data/scripts/dock_solv.prm

>  <Rbt.Receptor>
1y26.prm

>  <SCORE>
-59.1059

>  <SCORE.INTER>
-40.4954

>  <SCORE.INTER.CONST>
1

>  <SCORE.INTER.POLAR>
-6.90239

>  <SCORE.INTER.ROT>
3

>  <SCORE.INTER.SOLV>
17.2524

>  <SCORE.INTER.VDW>
-15.3397

>  <SCORE.INTER.norm>
-5.06192

>  <SCORE.INTRA>
2.68765

>  <SCORE.INTRA.DIHEDRAL>
2.38758

>  <SCORE.INTRA.DIHEDRAL.0>
4.01598

>  <SCORE.INTRA.POLAR>
0.859103

>  <SCORE.INTRA.POLAR.0>
-0.859103

>  <SCORE.INTRA.REPUL>
0

>  <SCORE.INTRA.REPUL.0>
0

>  <SCORE.INTRA.SOLV>
-2.78726

>  <SCORE.INTRA.SOLV.lig_0>
-27.776

>  <SCORE.INTRA.VDW>
-0.0334583

>  <SCORE.INTRA.VDW.0>
-0.179238

>  <SCORE.INTRA.norm>
0.335956

>  <SCORE.RESTR>
0

>  <SCORE.RESTR.CAVITY>
0

>  <SCORE.RESTR.norm>
0

>  <SCORE.SYSTEM>
-21.2982

>  <SCORE.SYSTEM.CONST>
0

>  <SCORE.SYSTEM.DIHEDRAL>
10.0452

>  <SCORE.SYSTEM.POLAR>
-3.63766

>  <SCORE.SYSTEM.SOLV>
0.256024

>  <SCORE.SYSTEM.VDW>
-5.50701

>  <SCORE.SYSTEM.norm>
-2.66227

>  <SCORE.heavy>
8

>  <SCORE.norm>
-7.38824

$$$$
P152625938
 OpenBabel12072022103D
libRbt.so/2013.1/901 2013/11/27
 14 13  0  0  0  0  0  0  0  0999 V2000
   18.9003  -19.4614    5.0967 C   0  0  0  0  0  0  0  0  0  0  0  0
   19.3535  -18.0727    5.5207 C   0  0  2  0  0  0  0  0  0  0  0  0
   20.5958  -17.6150    4.7520 C   0  0  0  0  0  0  0  0  0  0  0  0
   20.2062  -17.2514    3.3333 C   0  0  0  0  0  0  0  0  0  0  0  0
   20.5080  -18.1159    2.4058 N   0  0  0  0  0  0  0  0  0  0  0  0
   20.0940  -17.6327    1.1542 O   0  0  0  0  0  0  0  0  0  0  0  0
   19.6011  -16.0491    3.1058 N   0  0  0  0  0  0  0  0  0  0  0  0
   19.6505  -18.1132    6.9850 N   0  3  0  0  0  0  0  0  0  0  0  0
   20.0519  -19.0441    7.2165 H   0  0  0  0  0  0  0  0  0  0  0  0
   20.3376  -17.4051    7.2684 H   0  0  0  0  0  0  0  0  0  0  0  0
   18.8103  -18.0117    7.5668 H   0  0  0  0  0  0  0  0  0  0  0  0
   20.9215  -17.5638    0.6394 H   0  0  0  0  0  0  0  0  0  0  0  0
   20.1744  -15.2112    3.0887 H   0  0  0  0  0  0  0  0  0  0  0  0
   18.7548  -15.9278    3.6623 H   0  0  0  0  0  0  0  0  0  0  0  0
  2  3  1  0  0  0  0
  2  8  1  0  0  0  0
  2  1  1  6  0  0  0
  3  4  1  0  0  0  0
  4  5  2  0  0  0  0
  4  7  1  0  0  0  0
  5  6  1  0  0  0  0
  6 12  1  0  0  0  0
  7 13  1  0  0  0  0
  7 14  1  0  0  0  0
  8  9  1  0  0  0  0
  8 10  1  0  0  0  0
  8 11  1  0  0  0  0
M  CHG  1   8   1
M  END
>  <CHROM.0>
-49.52003460,57.53829493,-58.92396580,-52.40265907,-59.56104692,-58.01597946
-61.69592064,-49.53518647,-166.45356390,162.10471231

>  <CHROM.1>
73.83243833,35.03727472,-103.56856317,77.84070899,118.95064535,19.85665893
-17.77707017,4.04855694,2.43732761,1.37390280,0.95490687

>  <Name>
P152625938

>  <RI>
0

>  <Rbt.Current_Directory>
/home/fstefaniak/projects/zuza/docking/adenine/1Y26

>  <Rbt.Executable>
rbdock ($Id: //depot/dev/client3/rdock/2013.1/src/exe/rbdock.cxx#4 $)

>  <Rbt.Library>
libRbt.so (2013.1, Build901 2013/11/27)

>  <Rbt.Parameter_File>
/home/fstefaniak/progs/rDock//data/scripts/dock_solv.prm

>  <Rbt.Receptor>
1y26.prm

>  <SCORE>
-55.2645

>  <SCORE.INTER>
-35.978

>  <SCORE.INTER.CONST>
1

>  <SCORE.INTER.POLAR>
-5.84119

>  <SCORE.INTER.ROT>
3

>  <SCORE.INTER.SOLV>
22.7951

>  <SCORE.INTER.VDW>
-17.713

>  <SCORE.INTER.norm>
-4.49725

>  <SCORE.INTRA>
2.33108

>  <SCORE.INTRA.DIHEDRAL>
0.27403

>  <SCORE.INTRA.DIHEDRAL.0>
4.01598

>  <SCORE.INTRA.POLAR>
0.859103

>  <SCORE.INTRA.POLAR.0>
-0.859103

>  <SCORE.INTRA.REPUL>
0

>  <SCORE.INTRA.REPUL.0>
0

>  <SCORE.INTRA.SOLV>
-2.88763

>  <SCORE.INTRA.SOLV.lig_0>
-27.776

>  <SCORE.INTRA.VDW>
0.716932

>  <SCORE.INTRA.VDW.0>
-0.179238

>  <SCORE.INTRA.norm>
0.291385

>  <SCORE.RESTR>
0

>  <SCORE.RESTR.CAVITY>
0

>  <SCORE.RESTR.norm>
0

>  <SCORE.SYSTEM>
-21.6176

>  <SCORE.SYSTEM.CONST>
0

>  <SCORE.SYSTEM.DIHEDRAL>
5.5982

>  <SCORE.SYSTEM.POLAR>
-3.4499

>  <SCORE.SYSTEM.SOLV>
0.704241

>  <SCORE.SYSTEM.VDW>
-5.0129

>  <SCORE.SYSTEM.norm>
-2.7022

>  <SCORE.heavy>
8

>  <SCORE.norm>
-6.90806

$$$$
P153029743
 OpenBabel12072022103D
libRbt.so/2013.1/901 2013/11/27
 12 11  0  0  0  0  0  0  0  0999 V2000
   18.5693  -18.4569    1.9169 C   0  0  0  0  0  0  0  0  0  0  0  0
   18.5502  -18.1102    3.4025 C   0  0  2  0  0  0  0  0  0  0  0  0
   19.8003  -17.2890    3.7848 C   0  0  0  0  0  0  0  0  0  0  0  0
   19.8039  -15.9899    3.1998 O   0  0  0  0  0  0  0  0  0  0  0  0
   18.4457  -19.3487    4.1804 N   0  0  0  0  0  0  0  0  0  0  0  0
   18.0894  -19.3375    5.5018 C   0  0  0  0  0  0  0  0  0  0  0  0
   16.9564  -19.0979    5.8957 O   0  0  0  0  0  0  0  0  0  0  0  0
   19.1613  -19.6028    6.3102 N   0  0  0  0  0  0  0  0  0  0  0  0
   19.7843  -18.5349    7.0521 C   0  0  0  0  0  0  0  0  0  0  0  0
   19.0871  -15.4637    3.6171 H   0  0  0  0  0  0  0  0  0  0  0  0
   19.0722  -20.1006    3.9297 H   0  0  0  0  0  0  0  0  0  0  0  0
   19.1470  -20.5124    6.7474 H   0  0  0  0  0  0  0  0  0  0  0  0
  2  3  1  0  0  0  0
  2  5  1  0  0  0  0
  2  1  1  6  0  0  0
  3  4  1  0  0  0  0
  4 10  1  0  0  0  0
  5  6  1  0  0  0  0
  5 11  1  0  0  0  0
  6  7  2  0  0  0  0
  6  8  1  0  0  0  0
  8  9  1  0  0  0  0
  8 12  1  0  0  0  0
M  END
>  <CHROM.0>
-45.84940714,61.72443637,-59.93204560,-51.74293391,-177.54521488,63.06929892
-59.32229329,-54.95340527,-167.35044099,160.10947650

>  <CHROM.1>
67.66462796,-164.13228969,68.51622513,72.04932521,104.96263976,18.80871074
-18.38797785,4.57909780,1.31120080,-0.80701320,-1.22702660

>  <Name>
P153029743

>  <RI>
0

>  <Rbt.Current_Directory>
/home/fstefaniak/projects/zuza/docking/adenine/1Y26

>  <Rbt.Executable>
rbdock ($Id: //depot/dev/client3/rdock/2013.1/src/exe/rbdock.cxx#4 $)

>  <Rbt.Library>
libRbt.so (2013.1, Build901 2013/11/27)

>  <Rbt.Parameter_File>
/home/fstefaniak/progs/rDock//data/scripts/dock_solv.prm

>  <Rbt.Receptor>
1y26.prm

>  <SCORE>
-54.7556

>  <SCORE.INTER>
-30.8141

>  <SCORE.INTER.CONST>
1

>  <SCORE.INTER.POLAR>
-4.07541

>  <SCORE.INTER.ROT>
4

>  <SCORE.INTER.SOLV>
14.9491

>  <SCORE.INTER.VDW>
-18.2078

>  <SCORE.INTER.norm>
-3.42379

>  <SCORE.INTRA>
-3.34095

>  <SCORE.INTRA.DIHEDRAL>
-4.33328

>  <SCORE.INTRA.DIHEDRAL.0>
6.1878

>  <SCORE.INTRA.POLAR>
0.201268

>  <SCORE.INTRA.POLAR.0>
-0.201268

>  <SCORE.INTRA.REPUL>
0

>  <SCORE.INTRA.REPUL.0>
0

>  <SCORE.INTRA.SOLV>
-1.0238

>  <SCORE.INTRA.SOLV.lig_0>
-16.2732

>  <SCORE.INTRA.VDW>
-1.34672

>  <SCORE.INTRA.VDW.0>
0.590693

>  <SCORE.INTRA.norm>
-0.371216

>  <SCORE.RESTR>
0

>  <SCORE.RESTR.CAVITY>
0

>  <SCORE.RESTR.norm>
0

>  <SCORE.SYSTEM>
-20.6005

>  <SCORE.SYSTEM.CONST>
0

>  <SCORE.SYSTEM.DIHEDRAL>
5.88458

>  <SCORE.SYSTEM.POLAR>
-3.52169

>  <SCORE.SYSTEM.SOLV>
0.367199

>  <SCORE.SYSTEM.VDW>
-4.07859

>  <SCORE.SYSTEM.norm>
-2.28894

>  <SCORE.heavy>
9

>  <SCORE.norm>
-6.08395

$$$$
P153029743
 OpenBabel12072022103D
libRbt.so/2013.1/901 2013/11/27
 12 11  0  0  0  0  0  0  0  0999 V2000
   18.4541  -18.4469    1.8578 C   0  0  0  0  0  0  0  0  0  0  0  0
   18.5200  -18.0983    3.3417 C   0  0  2  0  0  0  0  0  0  0  0  0
   19.8211  -17.3317    3.6624 C   0  0  0  0  0  0  0  0  0  0  0  0
   19.8066  -15.9951    3.1693 O   0  0  0  0  0  0  0  0  0  0  0  0
   18.3987  -19.3304    4.1273 N   0  0  0  0  0  0  0  0  0  0  0  0
   18.0577  -19.3052    5.4525 C   0  0  0  0  0  0  0  0  0  0  0  0
   16.9350  -19.0376    5.8578 O   0  0  0  0  0  0  0  0  0  0  0  0
   19.1322  -19.5917    6.2501 N   0  0  0  0  0  0  0  0  0  0  0  0
   19.7023  -18.5640    7.0853 C   0  0  0  0  0  0  0  0  0  0  0  0
   19.1063  -15.4993    3.6475 H   0  0  0  0  0  0  0  0  0  0  0  0
   19.0067  -20.0963    3.8736 H   0  0  0  0  0  0  0  0  0  0  0  0
   19.1522  -20.5342    6.6109 H   0  0  0  0  0  0  0  0  0  0  0  0
  2  3  1  0  0  0  0
  2  5  1  0  0  0  0
  2  1  1  6  0  0  0
  3  4  1  0  0  0  0
  4 10  1  0  0  0  0
  5  6  1  0  0  0  0
  5 11  1  0  0  0  0
  6  7  2  0  0  0  0
  6  8  1  0  0  0  0
  8  9  1  0  0  0  0
  8 12  1  0  0  0  0
M  END
>  <CHROM.0>
-44.05694282,-53.23789130,-47.53247151,63.73233679,-53.43626822,-49.88222455
-46.03656235,-50.30708754,-164.00575310,164.52102105

>  <CHROM.1>
72.59623689,-161.69542731,65.08052600,71.89597455,111.32611726,18.77198672
-18.38118366,4.53118622,1.32591578,-0.79342879,-1.23321807

>  <Name>
P153029743

>  <RI>
0

>  <Rbt.Current_Directory>
/home/fstefaniak/projects/zuza/docking/adenine/1Y26

>  <Rbt.Executable>
rbdock ($Id: //depot/dev/client3/rdock/2013.1/src/exe/rbdock.cxx#4 $)

>  <Rbt.Library>
libRbt.so (2013.1, Build901 2013/11/27)

>  <Rbt.Parameter_File>
/home/fstefaniak/progs/rDock//data/scripts/dock_solv.prm

>  <Rbt.Receptor>
1y26.prm

>  <SCORE>
-52.2062

>  <SCORE.INTER>
-30.4929

>  <SCORE.INTER.CONST>
1

>  <SCORE.INTER.POLAR>
-4.00086

>  <SCORE.INTER.ROT>
4

>  <SCORE.INTER.SOLV>
14.9922

>  <SCORE.INTER.VDW>
-18.2564

>  <SCORE.INTER.norm>
-3.3881

>  <SCORE.INTRA>
-3.41888

>  <SCORE.INTRA.DIHEDRAL>
-4.20383

>  <SCORE.INTRA.DIHEDRAL.0>
6.1878

>  <SCORE.INTRA.POLAR>
0.201268

>  <SCORE.INTRA.POLAR.0>
-0.201268

>  <SCORE.INTRA.REPUL>
0

>  <SCORE.INTRA.REPUL.0>
0

>  <SCORE.INTRA.SOLV>
-1.05535

>  <SCORE.INTRA.SOLV.lig_0>
-16.2732

>  <SCORE.INTRA.VDW>
-1.47361

>  <SCORE.INTRA.VDW.0>
0.590693

>  <SCORE.INTRA.norm>
-0.379876

>  <SCORE.RESTR>
0

>  <SCORE.RESTR.CAVITY>
0

>  <SCORE.RESTR.norm>
0

>  <SCORE.SYSTEM>
-18.2944

>  <SCORE.SYSTEM.CONST>
0

>  <SCORE.SYSTEM.DIHEDRAL>
8.36623

>  <SCORE.SYSTEM.POLAR>
-3.0941

>  <SCORE.SYSTEM.SOLV>
0.659344

>  <SCORE.SYSTEM.VDW>
-4.8911

>  <SCORE.SYSTEM.norm>
-2.03271

>  <SCORE.heavy>
9

>  <SCORE.norm>
-5.80068

$$$$
P153029743
 OpenBabel12072022103D
libRbt.so/2013.1/901 2013/11/27
 12 11  0  0  0  0  0  0  0  0999 V2000
   18.6533  -18.2676    3.7136 C   0  0  0  0  0  0  0  0  0  0  0  0
   19.6703  -18.5364    4.8187 C   0  0  2  0  0  0  0  0  0  0  0  0
   18.9581  -18.9592    6.1215 C   0  0  0  0  0  0  0  0  0  0  0  0
   19.8656  -19.1729    7.1988 O   0  0  0  0  0  0  0  0  0  0  0  0
   20.4982  -17.3409    5.0065 N   0  0  0  0  0  0  0  0  0  0  0  0
   21.4732  -16.9959    4.1101 C   0  0  0  0  0  0  0  0  0  0  0  0
   21.6321  -17.5550    3.0338 O   0  0  0  0  0  0  0  0  0  0  0  0
   22.2485  -15.9729    4.5848 N   0  0  0  0  0  0  0  0  0  0  0  0
   22.1230  -14.6528    4.0187 C   0  0  0  0  0  0  0  0  0  0  0  0
   19.3435  -19.2675    8.0254 H   0  0  0  0  0  0  0  0  0  0  0  0
   20.6999  -17.0691    5.9584 H   0  0  0  0  0  0  0  0  0  0  0  0
   22.4643  -16.0270    5.5693 H   0  0  0  0  0  0  0  0  0  0  0  0
  2  3  1  0  0  0  0
  2  5  1  0  0  0  0
  2  1  1  6  0  0  0
  3  4  1  0  0  0  0
  4 10  1  0  0  0  0
  5  6  1  0  0  0  0
  5 11  1  0  0  0  0
  6  7  2  0  0  0  0
  6  8  1  0  0  0  0
  8  9  1  0  0  0  0
  8 12  1  0  0  0  0
M  END
>  <CHROM.0>
63.13387186,-62.22743393,-56.01361922,-51.57539652,-174.44603048,-57.70184224
-58.19251490,62.83533913,-166.79629761,158.65984022

>  <CHROM.1>
-177.78936104,-74.55359117,169.32099168,8.22291641,-107.59891040,20.57067982
-17.50401577,4.78188428,2.53600643,0.77687411,1.76342750

>  <Name>
P153029743

>  <RI>
0

>  <Rbt.Current_Directory>
/home/fstefaniak/projects/zuza/docking/adenine/1Y26

>  <Rbt.Executable>
rbdock ($Id: //depot/dev/client3/rdock/2013.1/src/exe/rbdock.cxx#4 $)

>  <Rbt.Library>
libRbt.so (2013.1, Build901 2013/11/27)

>  <Rbt.Parameter_File>
/home/fstefaniak/progs/rDock//data/scripts/dock_solv.prm

>  <Rbt.Receptor>
1y26.prm

>  <SCORE>
-51.9363

>  <SCORE.INTER>
-29.2517

>  <SCORE.INTER.CONST>
1

>  <SCORE.INTER.POLAR>
-4.13596

>  <SCORE.INTER.ROT>
4

>  <SCORE.INTER.SOLV>
12.3598

>  <SCORE.INTER.VDW>
-16.1012

>  <SCORE.INTER.norm>
-3.25019

>  <SCORE.INTRA>
-2.30654

>  <SCORE.INTRA.DIHEDRAL>
-3.54082

>  <SCORE.INTRA.DIHEDRAL.0>
6.1878

>  <SCORE.INTRA.POLAR>
0.201268

>  <SCORE.INTRA.POLAR.0>
-0.201268

>  <SCORE.INTRA.REPUL>
0

>  <SCORE.INTRA.REPUL.0>
0

>  <SCORE.INTRA.SOLV>
-0.641332

>  <SCORE.INTRA.SOLV.lig_0>
-16.2732

>  <SCORE.INTRA.VDW>
-0.899771

>  <SCORE.INTRA.VDW.0>
0.590693

>  <SCORE.INTRA.norm>
-0.256282

>  <SCORE.RESTR>
0

>  <SCORE.RESTR.CAVITY>
0

>  <SCORE.RESTR.norm>
0

>  <SCORE.SYSTEM>
-20.3781

>  <SCORE.SYSTEM.CONST>
0

>  <SCORE.SYSTEM.DIHEDRAL>
5.39861

>  <SCORE.SYSTEM.POLAR>
-3.26347

>  <SCORE.SYSTEM.SOLV>
0.243821

>  <SCORE.SYSTEM.VDW>
-4.58796

>  <SCORE.SYSTEM.norm>
-2.26423

>  <SCORE.heavy>
9

>  <SCORE.norm>
-5.7707

$$$$
P155110579
 OpenBabel12072022103D
libRbt.so/2013.1/901 2013/11/27
 17 16  0  0  0  0  0  0  0  0999 V2000
   21.9241  -12.7642    3.5400 C   0  0  0  0  0  0  0  0  0  0  0  0
   23.1800  -12.5429    4.4160 C   0  0  0  0  0  0  0  0  0  0  0  0
   23.8111  -11.2055    3.9928 C   0  0  0  0  0  0  0  0  0  0  0  0
   22.7039  -12.4045    5.8779 C   0  0  0  0  0  0  0  0  0  0  0  0
   24.1312  -13.7763    4.2925 C   0  0  2  0  0  0  0  0  0  0  0  0
   23.7993  -15.0576    5.1064 C   0  0  2  0  0  0  0  0  0  0  0  0
   24.6473  -16.2552    4.6816 C   0  0  0  0  0  0  0  0  0  0  0  0
   24.5435  -16.7513    3.5608 O   0  0  0  0  0  0  0  0  0  0  0  0
   25.4390  -16.8049    5.6408 N   0  0  0  0  0  0  0  0  0  0  0  0
   22.4362  -15.3953    4.7789 O   0  0  0  0  0  0  0  0  0  0  0  0
   25.5654  -13.4116    4.5668 N   0  3  0  0  0  0  0  0  0  0  0  0
   26.1318  -14.2713    4.4877 H   0  0  0  0  0  0  0  0  0  0  0  0
   25.9644  -12.7014    3.9468 H   0  0  0  0  0  0  0  0  0  0  0  0
   25.6746  -13.1108    5.5553 H   0  0  0  0  0  0  0  0  0  0  0  0
   25.6447  -16.3755    6.5353 H   0  0  0  0  0  0  0  0  0  0  0  0
   26.0154  -17.6012    5.3820 H   0  0  0  0  0  0  0  0  0  0  0  0
   22.0969  -15.9799    5.4867 H   0  0  0  0  0  0  0  0  0  0  0  0
  1  2  1  0  0  0  0
  2  3  1  0  0  0  0
  2  4  1  0  0  0  0
  5 11  1  0  0  0  0
  5  2  1  1  0  0  0
  6  7  1  6  0  0  0
  6 10  1  0  0  0  0
  6  5  1  0  0  0  0
  7  8  2  0  0  0  0
  7  9  1  0  0  0  0
  9 15  1  0  0  0  0
  9 16  1  0  0  0  0
 10 17  1  0  0  0  0
 11 12  1  0  0  0  0
 11 13  1  0  0  0  0
 11 14  1  0  0  0  0
M  CHG  1  11   1
M  END
>  <CHROM.0>
-53.01793081,-170.66121682,-58.23955760,-54.98139689,-57.16397734,-174.62656932
-44.52413170,179.45039541,-168.02104525,160.62322200

>  <CHROM.1>
178.84459023,-79.10923779,-65.51649856,-160.19742920,168.79823392,23.85627512
-14.24400031,4.59800319,1.93640144,-0.09308733,-0.04762536

>  <Name>
P155110579

>  <RI>
0

>  <Rbt.Current_Directory>
/home/fstefaniak/projects/zuza/docking/adenine/1Y26

>  <Rbt.Executable>
rbdock ($Id: //depot/dev/client3/rdock/2013.1/src/exe/rbdock.cxx#4 $)

>  <Rbt.Library>
libRbt.so (2013.1, Build901 2013/11/27)

>  <Rbt.Parameter_File>
/home/fstefaniak/progs/rDock//data/scripts/dock_solv.prm

>  <Rbt.Receptor>
1y26.prm

>  <SCORE>
-49.5657

>  <SCORE.INTER>
-31.1497

>  <SCORE.INTER.CONST>
1

>  <SCORE.INTER.POLAR>
-5.3721

>  <SCORE.INTER.ROT>
3

>  <SCORE.INTER.SOLV>
15.6716

>  <SCORE.INTER.VDW>
-13.6833

>  <SCORE.INTER.norm>
-2.83179

>  <SCORE.INTRA>
2.60757

>  <SCORE.INTRA.DIHEDRAL>
3.77231

>  <SCORE.INTRA.DIHEDRAL.0>
2.79952

>  <SCORE.INTRA.POLAR>
0.236014

>  <SCORE.INTRA.POLAR.0>
-0.236014

>  <SCORE.INTRA.REPUL>
0

>  <SCORE.INTRA.REPUL.0>
0

>  <SCORE.INTRA.SOLV>
-1.72476

>  <SCORE.INTRA.SOLV.lig_0>
-29.1422

>  <SCORE.INTRA.VDW>
0.781348

>  <SCORE.INTRA.VDW.0>
-0.616711

>  <SCORE.INTRA.norm>
0.237052

>  <SCORE.RESTR>
1.14016

>  <SCORE.RESTR.CAVITY>
1.14016

>  <SCORE.RESTR.norm>
0.103651

>  <SCORE.SYSTEM>
-22.1637

>  <SCORE.SYSTEM.CONST>
0

>  <SCORE.SYSTEM.DIHEDRAL>
6.33163

>  <SCORE.SYSTEM.POLAR>
-3.41555

>  <SCORE.SYSTEM.SOLV>
0.262309

>  <SCORE.SYSTEM.VDW>
-5.58863

>  <SCORE.SYSTEM.norm>
-2.01489

>  <SCORE.heavy>
11

>  <SCORE.norm>
-4.50597

$$$$
P155110579
 OpenBabel12072022103D
libRbt.so/2013.1/901 2013/11/27
 17 16  0  0  0  0  0  0  0  0999 V2000
   21.8555  -12.7798    3.6075 C   0  0  0  0  0  0  0  0  0  0  0  0
   23.1289  -12.5734    4.4616 C   0  0  0  0  0  0  0  0  0  0  0  0
   23.7567  -11.2333    4.0422 C   0  0  0  0  0  0  0  0  0  0  0  0
   22.6817  -12.4510    5.9339 C   0  0  0  0  0  0  0  0  0  0  0  0
   24.0730  -13.8086    4.3049 C   0  0  2  0  0  0  0  0  0  0  0  0
   23.7719  -15.0867    5.1356 C   0  0  2  0  0  0  0  0  0  0  0  0
   24.6499  -16.2685    4.7279 C   0  0  0  0  0  0  0  0  0  0  0  0
   24.5518  -16.7896    3.6180 O   0  0  0  0  0  0  0  0  0  0  0  0
   25.4637  -16.7768    5.6915 N   0  0  0  0  0  0  0  0  0  0  0  0
   22.4180  -15.4625    4.8113 O   0  0  0  0  0  0  0  0  0  0  0  0
   25.5174  -13.4450    4.5211 N   0  3  0  0  0  0  0  0  0  0  0  0
   25.5983  -13.0086    5.4534 H   0  0  0  0  0  0  0  0  0  0  0  0
   26.1793  -14.2241    4.4683 H   0  0  0  0  0  0  0  0  0  0  0  0
   25.8022  -12.7014    3.8535 H   0  0  0  0  0  0  0  0  0  0  0  0
   25.6638  -16.3240    6.5757 H   0  0  0  0  0  0  0  0  0  0  0  0
   26.0602  -17.5617    5.4439 H   0  0  0  0  0  0  0  0  0  0  0  0
   22.0797  -16.0158    5.5443 H   0  0  0  0  0  0  0  0  0  0  0  0
  1  2  1  0  0  0  0
  2  3  1  0  0  0  0
  2  4  1  0  0  0  0
  5 11  1  0  0  0  0
  5  2  1  1  0  0  0
  6  7  1  6  0  0  0
  6 10  1  0  0  0  0
  6  5  1  0  0  0  0
  7  8  2  0  0  0  0
  7  9  1  0  0  0  0
  9 15  1  0  0  0  0
  9 16  1  0  0  0  0
 10 17  1  0  0  0  0
 11 12  1  0  0  0  0
 11 13  1  0  0  0  0
 11 14  1  0  0  0  0
M  CHG  1  11   1
M  END
>  <CHROM.0>
63.33554565,-56.78849060,-57.66495244,-51.21109161,-172.42387547,-54.27659384
-61.60213278,-52.67405519,-165.24975497,160.54499022

>  <CHROM.1>
56.10053440,-80.56556646,-66.16252309,-157.91928039,171.62644567,23.82831687
-14.27023976,4.63331649,1.94969464,-0.06916002,-0.05556244

>  <Name>
P155110579

>  <RI>
0

>  <Rbt.Current_Directory>
/home/fstefaniak/projects/zuza/docking/adenine/1Y26

>  <Rbt.Executable>
rbdock ($Id: //depot/dev/client3/rdock/2013.1/src/exe/rbdock.cxx#4 $)

>  <Rbt.Library>
libRbt.so (2013.1, Build901 2013/11/27)

>  <Rbt.Parameter_File>
/home/fstefaniak/progs/rDock//data/scripts/dock_solv.prm

>  <Rbt.Receptor>
1y26.prm

>  <SCORE>
-48.8647

>  <SCORE.INTER>
-31.7628

>  <SCORE.INTER.CONST>
1

>  <SCORE.INTER.POLAR>
-5.47213

>  <SCORE.INTER.ROT>
3

>  <SCORE.INTER.SOLV>
15.5701

>  <SCORE.INTER.VDW>
-13.7248

>  <SCORE.INTER.norm>
-2.88753

>  <SCORE.INTRA>
2.96019

>  <SCORE.INTRA.DIHEDRAL>
4.17025

>  <SCORE.INTRA.DIHEDRAL.0>
2.79952

>  <SCORE.INTRA.POLAR>
0.236014

>  <SCORE.INTRA.POLAR.0>
-0.236014

>  <SCORE.INTRA.REPUL>
0

>  <SCORE.INTRA.REPUL.0>
0

>  <SCORE.INTRA.SOLV>
-1.72611

>  <SCORE.INTRA.SOLV.lig_0>
-29.1422

>  <SCORE.INTRA.VDW>
0.935676

>  <SCORE.INTRA.VDW.0>
-0.616711

>  <SCORE.INTRA.norm>
0.269109

>  <SCORE.RESTR>
1.03877

>  <SCORE.RESTR.CAVITY>
1.03877

>  <SCORE.RESTR.norm>
0.0944337

>  <SCORE.SYSTEM>
-21.1009

>  <SCORE.SYSTEM.CONST>
0

>  <SCORE.SYSTEM.DIHEDRAL>
5.7536

>  <SCORE.SYSTEM.POLAR>
-3.28627

>  <SCORE.SYSTEM.SOLV>
0.475024

>  <SCORE.SYSTEM.VDW>
-5.18923

>  <SCORE.SYSTEM.norm>
-1.91826

>  <SCORE.heavy>
11

>  <SCORE.norm>
-4.44225

$$$$
P155110579
 OpenBabel12072022103D
libRbt.so/2013.1/901 2013/11/27
 17 16  0  0  0  0  0  0  0  0999 V2000
   23.8225  -11.3060    4.0219 C   0  0  0  0  0  0  0  0  0  0  0  0
   23.1199  -12.5880    4.5283 C   0  0  0  0  0  0  0  0  0  0  0  0
   22.6936  -12.3389    5.9851 C   0  0  0  0  0  0  0  0  0  0  0  0
   21.8423  -12.7781    3.6831 C   0  0  0  0  0  0  0  0  0  0  0  0
   24.0632  -13.8177    4.3303 C   0  0  2  0  0  0  0  0  0  0  0  0
   23.7760  -15.1146    5.1364 C   0  0  2  0  0  0  0  0  0  0  0  0
   24.6554  -16.2833    4.6952 C   0  0  0  0  0  0  0  0  0  0  0  0
   24.5412  -16.7885    3.5795 O   0  0  0  0  0  0  0  0  0  0  0  0
   25.4904  -16.7994    5.6362 N   0  0  0  0  0  0  0  0  0  0  0  0
   22.4208  -15.4899    4.8172 O   0  0  0  0  0  0  0  0  0  0  0  0
   25.5102  -13.4566    4.5335 N   0  3  0  0  0  0  0  0  0  0  0  0
   26.0690  -14.3193    4.4358 H   0  0  0  0  0  0  0  0  0  0  0  0
   25.8823  -12.7536    3.8890 H   0  0  0  0  0  0  0  0  0  0  0  0
   25.6668  -13.1473    5.5130 H   0  0  0  0  0  0  0  0  0  0  0  0
   25.7031  -16.3583    6.5234 H   0  0  0  0  0  0  0  0  0  0  0  0
   26.0883  -17.5758    5.3662 H   0  0  0  0  0  0  0  0  0  0  0  0
   22.0963  -16.0701    5.5354 H   0  0  0  0  0  0  0  0  0  0  0  0
  1  2  1  0  0  0  0
  2  3  1  0  0  0  0
  2  4  1  0  0  0  0
  5 11  1  0  0  0  0
  5  2  1  1  0  0  0
  6  7  1  6  0  0  0
  6 10  1  0  0  0  0
  6  5  1  0  0  0  0
  7  8  2  0  0  0  0
  7  9  1  0  0  0  0
  9 15  1  0  0  0  0
  9 16  1  0  0  0  0
 10 17  1  0  0  0  0
 11 12  1  0  0  0  0
 11 13  1  0  0  0  0
 11 14  1  0  0  0  0
M  CHG  1  11   1
M  END
>  <CHROM.0>
-46.83313230,-59.43070128,61.00379409,-52.68313533,-57.60055864,-60.21287163
74.81395565,-51.09966667,-168.17304739,160.68966822

>  <CHROM.1>
177.16735583,161.58330530,-66.79370857,-158.67025562,171.96764965,23.83528782
-14.27960268,4.64045581,-1.94980315,0.05334996,3.10370964

>  <Name>
P155110579

>  <RI>
0

>  <Rbt.Current_Directory>
/home/fstefaniak/projects/zuza/docking/adenine/1Y26

>  <Rbt.Executable>
rbdock ($Id: //depot/dev/client3/rdock/2013.1/src/exe/rbdock.cxx#4 $)

>  <Rbt.Library>
libRbt.so (2013.1, Build901 2013/11/27)

>  <Rbt.Parameter_File>
/home/fstefaniak/progs/rDock//data/scripts/dock_solv.prm

>  <Rbt.Receptor>
1y26.prm

>  <SCORE>
-48.3619

>  <SCORE.INTER>
-31.3175

>  <SCORE.INTER.CONST>
1

>  <SCORE.INTER.POLAR>
-5.29286

>  <SCORE.INTER.ROT>
3

>  <SCORE.INTER.SOLV>
15.6126

>  <SCORE.INTER.VDW>
-14.0397

>  <SCORE.INTER.norm>
-2.84705

>  <SCORE.INTRA>
2.82621

>  <SCORE.INTRA.DIHEDRAL>
3.72645

>  <SCORE.INTRA.DIHEDRAL.0>
2.79952

>  <SCORE.INTRA.POLAR>
0.236014

>  <SCORE.INTRA.POLAR.0>
-0.236014

>  <SCORE.INTRA.REPUL>
0

>  <SCORE.INTRA.REPUL.0>
0

>  <SCORE.INTRA.SOLV>
-1.52854

>  <SCORE.INTRA.SOLV.lig_0>
-29.1422

>  <SCORE.INTRA.VDW>
0.924807

>  <SCORE.INTRA.VDW.0>
-0.616711

>  <SCORE.INTRA.norm>
0.256928

>  <SCORE.RESTR>
1.01872

>  <SCORE.RESTR.CAVITY>
1.01872

>  <SCORE.RESTR.norm>
0.0926107

>  <SCORE.SYSTEM>
-20.8893

>  <SCORE.SYSTEM.CONST>
0

>  <SCORE.SYSTEM.DIHEDRAL>
6.72339

>  <SCORE.SYSTEM.POLAR>
-3.74916

>  <SCORE.SYSTEM.SOLV>
0.489588

>  <SCORE.SYSTEM.VDW>
-3.83332

>  <SCORE.SYSTEM.norm>
-1.89903

>  <SCORE.heavy>
11

>  <SCORE.norm>
-4.39654

$$$$
P155268485
 OpenBabel12072022103D
libRbt.so/2013.1/901 2013/11/27
 12 11  0  0  0  0  0  0  0  0999 V2000
   20.0016  -18.3805    6.9809 C   0  0  0  0  0  0  0  0  0  0  0  0
   19.9498  -18.0583    5.4971 C   0  0  0  0  0  0  0  0  0  0  0  0
   18.8546  -18.3193    4.7368 C   0  0  0  0  0  0  0  0  0  0  0  0
   17.6756  -18.9102    5.2747 C   0  0  0  0  0  0  0  0  0  0  0  0
   16.7300  -19.4047    5.7332 N   0  0  0  0  0  0  0  0  0  0  0  0
   18.8666  -18.0018    3.2809 C   0  0  0  0  0  0  0  0  0  0  0  0
   19.5336  -17.1096    2.7707 O   0  0  0  0  0  0  0  0  0  0  0  0
   18.0387  -18.8373    2.6005 O   0  0  0  0  0  0  0  0  0  0  0  0
   18.1051  -18.7049    1.1792 C   0  0  0  0  0  0  0  0  0  0  0  0
   21.1169  -17.4612    5.0301 N   0  0  0  0  0  0  0  0  0  0  0  0
   21.0403  -17.0384    4.1071 H   0  0  0  0  0  0  0  0  0  0  0  0
   21.5654  -16.8312    5.7069 H   0  0  0  0  0  0  0  0  0  0  0  0
  1  2  1  0  0  0  0
  2  3  2  0  0  0  0
  2 10  1  0  0  0  0
  3  4  1  0  0  0  0
  3  6  1  0  0  0  0
  4  5  3  0  0  0  0
  6  7  2  0  0  0  0
  6  8  1  0  0  0  0
  8  9  1  0  0  0  0
 10 11  1  0  0  0  0
 10 12  1  0  0  0  0
M  END
>  <CHROM.0>
-46.55009407,-58.28318832,-47.77214117,-51.15296638,-57.43321826,-176.75654857
-48.89339710,-176.72773689,-168.14920102,160.35898186

>  <CHROM.1>
-166.39901521,-28.32884900,-173.15694440,18.92443260,-18.29212451,4.24536079
1.18618500,0.47854436,1.70772991

>  <Name>
P155268485

>  <RI>
0

>  <Rbt.Current_Directory>
/home/fstefaniak/projects/zuza/docking/adenine/1Y26

>  <Rbt.Executable>
rbdock ($Id: //depot/dev/client3/rdock/2013.1/src/exe/rbdock.cxx#4 $)

>  <Rbt.Library>
libRbt.so (2013.1, Build901 2013/11/27)

>  <Rbt.Parameter_File>
/home/fstefaniak/progs/rDock//data/scripts/dock_solv.prm

>  <Rbt.Receptor>
1y26.prm

>  <SCORE>
-47.8859

>  <SCORE.INTER>
-26.384

>  <SCORE.INTER.CONST>
1

>  <SCORE.INTER.POLAR>
-4.10575

>  <SCORE.INTER.ROT>
3

>  <SCORE.INTER.SOLV>
10.9419

>  <SCORE.INTER.VDW>
-13.1508

>  <SCORE.INTER.norm>
-2.6384

>  <SCORE.INTRA>
0.588181

>  <SCORE.INTRA.DIHEDRAL>
1.65697

>  <SCORE.INTRA.DIHEDRAL.0>
1.64635

>  <SCORE.INTRA.POLAR>
0

>  <SCORE.INTRA.POLAR.0>
0

>  <SCORE.INTRA.REPUL>
0

>  <SCORE.INTRA.REPUL.0>
0

>  <SCORE.INTRA.SOLV>
-0.0192394

>  <SCORE.INTRA.SOLV.lig_0>
-10.2967

>  <SCORE.INTRA.VDW>
-0.230684

>  <SCORE.INTRA.VDW.0>
2.10067

>  <SCORE.INTRA.norm>
0.0588181

>  <SCORE.RESTR>
0

>  <SCORE.RESTR.CAVITY>
0

>  <SCORE.RESTR.norm>
0

>  <SCORE.SYSTEM>
-22.0901

>  <SCORE.SYSTEM.CONST>
0

>  <SCORE.SYSTEM.DIHEDRAL>
6.91555

>  <SCORE.SYSTEM.POLAR>
-3.62209

>  <SCORE.SYSTEM.SOLV>
0.353112

>  <SCORE.SYSTEM.VDW>
-5.07596

>  <SCORE.SYSTEM.norm>
-2.20901

>  <SCORE.heavy>
10

>  <SCORE.norm>
-4.78859

$$$$
P155268485
 OpenBabel12072022103D
libRbt.so/2013.1/901 2013/11/27
 12 11  0  0  0  0  0  0  0  0999 V2000
   18.8405  -19.9199    5.7066 C   0  0  0  0  0  0  0  0  0  0  0  0
   19.4226  -18.5460    5.4199 C   0  0  0  0  0  0  0  0  0  0  0  0
   19.3887  -17.9888    4.1814 C   0  0  0  0  0  0  0  0  0  0  0  0
   18.8032  -18.6492    3.0635 C   0  0  0  0  0  0  0  0  0  0  0  0
   18.3317  -19.2125    2.1640 N   0  0  0  0  0  0  0  0  0  0  0  0
   19.9940  -16.6466    3.9525 C   0  0  0  0  0  0  0  0  0  0  0  0
   19.7719  -15.9428    2.9745 O   0  0  0  0  0  0  0  0  0  0  0  0
   20.8227  -16.3127    4.9764 O   0  0  0  0  0  0  0  0  0  0  0  0
   21.5623  -15.1079    4.7676 C   0  0  0  0  0  0  0  0  0  0  0  0
   19.9588  -17.9369    6.5506 N   0  0  0  0  0  0  0  0  0  0  0  0
   20.6974  -17.2620    6.3621 H   0  0  0  0  0  0  0  0  0  0  0  0
   19.2546  -17.5665    7.2010 H   0  0  0  0  0  0  0  0  0  0  0  0
  1  2  1  0  0  0  0
  2  3  2  0  0  0  0
  2 10  1  0  0  0  0
  3  4  1  0  0  0  0
  3  6  1  0  0  0  0
  4  5  3  0  0  0  0
  6  7  2  0  0  0  0
  6  8  1  0  0  0  0
  8  9  1  0  0  0  0
 10 11  1  0  0  0  0
 10 12  1  0  0  0  0
M  END
>  <CHROM.0>
-50.47062897,-60.55087953,-56.54197692,-51.91001485,-58.68671129,-59.96633863
-62.54008822,-53.49424544,-166.85442409,160.04432823

>  <CHROM.1>
153.59409238,-163.61238944,173.30114561,19.73493236,-17.56013774,4.42416977
-2.84359594,-0.99877378,-1.08824557

>  <Name>
P155268485

>  <RI>
0

>  <Rbt.Current_Directory>
/home/fstefaniak/projects/zuza/docking/adenine/1Y26

>  <Rbt.Executable>
rbdock ($Id: //depot/dev/client3/rdock/2013.1/src/exe/rbdock.cxx#4 $)

>  <Rbt.Library>
libRbt.so (2013.1, Build901 2013/11/27)

>  <Rbt.Parameter_File>
/home/fstefaniak/progs/rDock//data/scripts/dock_solv.prm

>  <Rbt.Receptor>
1y26.prm

>  <SCORE>
-47.3259

>  <SCORE.INTER>
-23.4938

>  <SCORE.INTER.CONST>
1

>  <SCORE.INTER.POLAR>
-2.48539

>  <SCORE.INTER.ROT>
3

>  <SCORE.INTER.SOLV>
12.1104

>  <SCORE.INTER.VDW>
-17.0147

>  <SCORE.INTER.norm>
-2.34938

>  <SCORE.INTRA>
-1.54171

>  <SCORE.INTRA.DIHEDRAL>
0.108658

>  <SCORE.INTRA.DIHEDRAL.0>
1.64635

>  <SCORE.INTRA.POLAR>
-0.508894

>  <SCORE.INTRA.POLAR.0>
0

>  <SCORE.INTRA.REPUL>
0

>  <SCORE.INTRA.REPUL.0>
0

>  <SCORE.INTRA.SOLV>
-0.132612

>  <SCORE.INTRA.SOLV.lig_0>
-10.2967

>  <SCORE.INTRA.VDW>
0.200508

>  <SCORE.INTRA.VDW.0>
2.10067

>  <SCORE.INTRA.norm>
-0.154171

>  <SCORE.RESTR>
0

>  <SCORE.RESTR.CAVITY>
0

>  <SCORE.RESTR.norm>
0

>  <SCORE.SYSTEM>
-22.2904

>  <SCORE.SYSTEM.CONST>
0

>  <SCORE.SYSTEM.DIHEDRAL>
5.5229

>  <SCORE.SYSTEM.POLAR>
-3.47799

>  <SCORE.SYSTEM.SOLV>
0.650996

>  <SCORE.SYSTEM.VDW>
-5.3249

>  <SCORE.SYSTEM.norm>
-2.22904

>  <SCORE.heavy>
10

>  <SCORE.norm>
-4.73259

$$$$
P155268485
 OpenBabel12072022103D
libRbt.so/2013.1/901 2013/11/27
 12 11  0  0  0  0  0  0  0  0999 V2000
   19.9965  -18.3698    6.9687 C   0  0  0  0  0  0  0  0  0  0  0  0
   19.9161  -18.0165    5.4932 C   0  0  0  0  0  0  0  0  0  0  0  0
   18.8130  -18.2780    4.7446 C   0  0  0  0  0  0  0  0  0  0  0  0
   17.6519  -18.8988    5.2879 C   0  0  0  0  0  0  0  0  0  0  0  0
   16.7214  -19.4177    5.7502 N   0  0  0  0  0  0  0  0  0  0  0  0
   18.7968  -17.9290    3.2961 C   0  0  0  0  0  0  0  0  0  0  0  0
   19.3355  -16.9395    2.8146 O   0  0  0  0  0  0  0  0  0  0  0  0
   18.1050  -18.8584    2.5860 O   0  0  0  0  0  0  0  0  0  0  0  0
   18.2044  -18.7113    1.1681 C   0  0  0  0  0  0  0  0  0  0  0  0
   21.0664  -17.3914    5.0212 N   0  0  0  0  0  0  0  0  0  0  0  0
   21.6242  -16.9280    5.7359 H   0  0  0  0  0  0  0  0  0  0  0  0
   21.6407  -17.9801    4.4050 H   0  0  0  0  0  0  0  0  0  0  0  0
  1  2  1  0  0  0  0
  2  3  2  0  0  0  0
  2 10  1  0  0  0  0
  3  4  1  0  0  0  0
  3  6  1  0  0  0  0
  4  5  3  0  0  0  0
  6  7  2  0  0  0  0
  6  8  1  0  0  0  0
  8  9  1  0  0  0  0
 10 11  1  0  0  0  0
 10 12  1  0  0  0  0
M  END
>  <CHROM.0>
-49.72375763,-62.61104992,-51.24081597,-51.00492502,-57.61979600,58.74692675
-56.85628104,-55.83823332,-167.28214741,160.28425056

>  <CHROM.1>
-23.19814815,-35.84389424,-171.22154150,18.90386719,-18.26210280,4.25212656
-1.20602265,-0.49509095,-1.42764746

>  <Name>
P155268485

>  <RI>
0

>  <Rbt.Current_Directory>
/home/fstefaniak/projects/zuza/docking/adenine/1Y26

>  <Rbt.Executable>
rbdock ($Id: //depot/dev/client3/rdock/2013.1/src/exe/rbdock.cxx#4 $)

>  <Rbt.Library>
libRbt.so (2013.1, Build901 2013/11/27)

>  <Rbt.Parameter_File>
/home/fstefaniak/progs/rDock//data/scripts/dock_solv.prm

>  <Rbt.Receptor>
1y26.prm

>  <SCORE>
-47.1612

>  <SCORE.INTER>
-26.9878

>  <SCORE.INTER.CONST>
1

>  <SCORE.INTER.POLAR>
-4.09948

>  <SCORE.INTER.ROT>
3

>  <SCORE.INTER.SOLV>
11.2587

>  <SCORE.INTER.VDW>
-13.6798

>  <SCORE.INTER.norm>
-2.69878

>  <SCORE.INTRA>
1.14986

>  <SCORE.INTRA.DIHEDRAL>
3.20026

>  <SCORE.INTRA.DIHEDRAL.0>
1.64635

>  <SCORE.INTRA.POLAR>
0

>  <SCORE.INTRA.POLAR.0>
0

>  <SCORE.INTRA.REPUL>
0

>  <SCORE.INTRA.REPUL.0>
0

>  <SCORE.INTRA.SOLV>
-0.165751

>  <SCORE.INTRA.SOLV.lig_0>
-10.2967

>  <SCORE.INTRA.VDW>
-0.367392

>  <SCORE.INTRA.VDW.0>
2.10067

>  <SCORE.INTRA.norm>
0.114986

>  <SCORE.RESTR>
0

>  <SCORE.RESTR.CAVITY>
0

>  <SCORE.RESTR.norm>
0

>  <SCORE.SYSTEM>
-21.3233

>  <SCORE.SYSTEM.CONST>
0

>  <SCORE.SYSTEM.DIHEDRAL>
5.83383

>  <SCORE.SYSTEM.POLAR>
-3.53194

>  <SCORE.SYSTEM.SOLV>
0.513131

>  <SCORE.SYSTEM.VDW>
-4.55807

>  <SCORE.SYSTEM.norm>
-2.13233

>  <SCORE.heavy>
10

>  <SCORE.norm>
-4.71612

$$$$
P155774521
 OpenBabel12072022103D
libRbt.so/2013.1/901 2013/11/27
 14 14  0  0  0  0  0  0  0  0999 V2000
   19.8928  -17.6572    6.2111 C   0  0  0  0  0  0  0  0  0  0  0  0
   20.4844  -17.2494    5.0793 C   0  0  0  0  0  0  0  0  0  0  0  0
   20.0067  -17.7094    3.7774 C   0  0  0  0  0  0  0  0  0  0  0  0
   20.7441  -17.4234    2.6847 C   0  0  0  0  0  0  0  0  0  0  0  0
   20.5585  -17.8419    1.3804 N   0  0  0  0  0  0  0  0  0  0  0  0
   21.5972  -18.5651    0.7967 O   0  0  0  0  0  0  0  0  0  0  0  0
   18.7537  -18.4701    3.7246 C   0  0  0  0  0  0  0  0  0  0  0  0
   18.1518  -18.8954    4.8411 C   0  0  0  0  0  0  0  0  0  0  0  0
   18.7142  -18.5585    6.1688 C   0  0  0  0  0  0  0  0  0  0  0  0
   18.2058  -18.9780    7.2014 O   0  0  0  0  0  0  0  0  0  0  0  0
   18.1584  -18.6821    2.4969 O   0  0  0  0  0  0  0  0  0  0  0  0
   19.6542  -18.3216    1.2699 H   0  0  0  0  0  0  0  0  0  0  0  0
   21.1892  -19.4309    0.6018 H   0  0  0  0  0  0  0  0  0  0  0  0
   17.8229  -17.8179    2.1879 H   0  0  0  0  0  0  0  0  0  0  0  0
  1  2  2  0  0  0  0
  1  9  1  0  0  0  0
  2  3  1  0  0  0  0
  3  4  2  0  0  0  0
  3  7  1  0  0  0  0
  4  5  1  0  0  0  0
  5  6  1  0  0  0  0
  5 12  1  0  0  0  0
  6 13  1  0  0  0  0
  7  8  2  0  0  0  0
  7 11  1  0  0  0  0
  8  9  1  0  0  0  0
  9 10  2  0  0  0  0
 11 14  1  0  0  0  0
M  END
>  <CHROM.0>
-172.94413947,58.58915010,-53.13758947,-51.07948126,-55.50987980,-58.99878576
-58.64253327,-49.17496489,-166.81186020,161.00916742

>  <CHROM.1>
-120.54298599,118.03225909,-69.41414476,19.56943475,-18.22038883,3.92135832
-2.01077592,-0.43748838,-1.69759672

>  <Name>
P155774521

>  <RI>
0

>  <Rbt.Current_Directory>
/home/fstefaniak/projects/zuza/docking/adenine/1Y26

>  <Rbt.Executable>
rbdock ($Id: //depot/dev/client3/rdock/2013.1/src/exe/rbdock.cxx#4 $)

>  <Rbt.Library>
libRbt.so (2013.1, Build901 2013/11/27)

>  <Rbt.Parameter_File>
/home/fstefaniak/progs/rDock//data/scripts/dock_solv.prm

>  <Rbt.Receptor>
1y26.prm

>  <SCORE>
-50.1978

>  <SCORE.INTER>
-31.5397

>  <SCORE.INTER.CONST>
1

>  <SCORE.INTER.POLAR>
-4.67622

>  <SCORE.INTER.ROT>
1

>  <SCORE.INTER.SOLV>
14.6943

>  <SCORE.INTER.VDW>
-14.6039

>  <SCORE.INTER.norm>
-2.86725

>  <SCORE.INTRA>
1.78647

>  <SCORE.INTRA.DIHEDRAL>
3.53412

>  <SCORE.INTRA.DIHEDRAL.0>
2.0052

>  <SCORE.INTRA.POLAR>
0.112938

>  <SCORE.INTRA.POLAR.0>
-0.398033

>  <SCORE.INTRA.REPUL>
0

>  <SCORE.INTRA.REPUL.0>
0

>  <SCORE.INTRA.SOLV>
0.220146

>  <SCORE.INTRA.SOLV.lig_0>
-19.064

>  <SCORE.INTRA.VDW>
-0.474651

>  <SCORE.INTRA.VDW.0>
-0.0170964

>  <SCORE.INTRA.norm>
0.162406

>  <SCORE.RESTR>
0

>  <SCORE.RESTR.CAVITY>
0

>  <SCORE.RESTR.norm>
0

>  <SCORE.SYSTEM>
-20.4446

>  <SCORE.SYSTEM.CONST>
0

>  <SCORE.SYSTEM.DIHEDRAL>
5.82263

>  <SCORE.SYSTEM.POLAR>
-3.30422

>  <SCORE.SYSTEM.SOLV>
0.667987

>  <SCORE.SYSTEM.VDW>
-4.77923

>  <SCORE.SYSTEM.norm>
-1.8586

>  <SCORE.heavy>
11

>  <SCORE.norm>
-4.56344

$$$$
P155774521
 OpenBabel12072022103D
libRbt.so/2013.1/901 2013/11/27
 14 14  0  0  0  0  0  0  0  0999 V2000
   20.1353  -17.8776    2.5236 C   0  0  0  0  0  0  0  0  0  0  0  0
   18.9500  -18.2629    3.0175 C   0  0  0  0  0  0  0  0  0  0  0  0
   18.7437  -18.3850    4.4587 C   0  0  0  0  0  0  0  0  0  0  0  0
   17.6013  -18.9516    4.8986 C   0  0  0  0  0  0  0  0  0  0  0  0
   17.2363  -19.2740    6.1923 N   0  0  0  0  0  0  0  0  0  0  0  0
   16.0086  -18.7894    6.6401 O   0  0  0  0  0  0  0  0  0  0  0  0
   19.7954  -17.8956    5.3565 C   0  0  0  0  0  0  0  0  0  0  0  0
   20.9887  -17.5155    4.8861 C   0  0  0  0  0  0  0  0  0  0  0  0
   21.2581  -17.5305    3.4303 C   0  0  0  0  0  0  0  0  0  0  0  0
   22.3588  -17.2323    2.9826 O   0  0  0  0  0  0  0  0  0  0  0  0
   19.5099  -17.7623    6.7008 O   0  0  0  0  0  0  0  0  0  0  0  0
   17.3294  -20.2851    6.3629 H   0  0  0  0  0  0  0  0  0  0  0  0
   16.2445  -17.9559    7.0912 H   0  0  0  0  0  0  0  0  0  0  0  0
   20.2395  -17.2488    7.0994 H   0  0  0  0  0  0  0  0  0  0  0  0
  1  2  2  0  0  0  0
  1  9  1  0  0  0  0
  2  3  1  0  0  0  0
  3  4  2  0  0  0  0
  3  7  1  0  0  0  0
  4  5  1  0  0  0  0
  5  6  1  0  0  0  0
  5 12  1  0  0  0  0
  6 13  1  0  0  0  0
  7  8  2  0  0  0  0
  7 11  1  0  0  0  0
  8  9  1  0  0  0  0
  9 10  2  0  0  0  0
 11 14  1  0  0  0  0
M  END
>  <CHROM.0>
-46.86954606,-45.29183179,-52.05476998,-52.97606336,-56.22580664,-53.55595359
-60.92151848,-50.00947716,-167.08791909,160.82366355

>  <CHROM.1>
127.31615469,-94.25580067,-167.71010072,19.27117516,-18.14060876,4.74890711
0.54614578,-0.35409207,-1.66433423

>  <Name>
P155774521

>  <RI>
0

>  <Rbt.Current_Directory>
/home/fstefaniak/projects/zuza/docking/adenine/1Y26

>  <Rbt.Executable>
rbdock ($Id: //depot/dev/client3/rdock/2013.1/src/exe/rbdock.cxx#4 $)

>  <Rbt.Library>
libRbt.so (2013.1, Build901 2013/11/27)

>  <Rbt.Parameter_File>
/home/fstefaniak/progs/rDock//data/scripts/dock_solv.prm

>  <Rbt.Receptor>
1y26.prm

>  <SCORE>
-50.0142

>  <SCORE.INTER>
-30.687

>  <SCORE.INTER.CONST>
1

>  <SCORE.INTER.POLAR>
-4.69978

>  <SCORE.INTER.ROT>
1

>  <SCORE.INTER.SOLV>
15.1254

>  <SCORE.INTER.VDW>
-14.1005

>  <SCORE.INTER.norm>
-2.78973

>  <SCORE.INTRA>
2.07769

>  <SCORE.INTRA.DIHEDRAL>
-0.784306

>  <SCORE.INTRA.DIHEDRAL.0>
2.0052

>  <SCORE.INTRA.POLAR>
0.398033

>  <SCORE.INTRA.POLAR.0>
-0.398033

>  <SCORE.INTRA.REPUL>
0.200237

>  <SCORE.INTRA.REPUL.0>
0

>  <SCORE.INTRA.SOLV>
0.015383

>  <SCORE.INTRA.SOLV.lig_0>
-19.064

>  <SCORE.INTRA.VDW>
0.10766

>  <SCORE.INTRA.VDW.0>
-0.0170964

>  <SCORE.INTRA.norm>
0.188881

>  <SCORE.RESTR>
0

>  <SCORE.RESTR.CAVITY>
0

>  <SCORE.RESTR.norm>
0

>  <SCORE.SYSTEM>
-21.4049

>  <SCORE.SYSTEM.CONST>
0

>  <SCORE.SYSTEM.DIHEDRAL>
7.37876

>  <SCORE.SYSTEM.POLAR>
-3.57236

>  <SCORE.SYSTEM.SOLV>
0.68952

>  <SCORE.SYSTEM.VDW>
-5.05152

>  <SCORE.SYSTEM.norm>
-1.9459

>  <SCORE.heavy>
11

>  <SCORE.norm>
-4.54675

$$$$
P155774521
 OpenBabel12072022103D
libRbt.so/2013.1/901 2013/11/27
 14 14  0  0  0  0  0  0  0  0999 V2000
   20.1471  -17.8925    2.5205 C   0  0  0  0  0  0  0  0  0  0  0  0
   18.9600  -18.2724    3.0142 C   0  0  0  0  0  0  0  0  0  0  0  0
   18.7523  -18.3911    4.4556 C   0  0  0  0  0  0  0  0  0  0  0  0
   17.6074  -18.9525    4.8957 C   0  0  0  0  0  0  0  0  0  0  0  0
   17.2402  -19.2711    6.1898 N   0  0  0  0  0  0  0  0  0  0  0  0
   15.9920  -18.8238    6.6190 O   0  0  0  0  0  0  0  0  0  0  0  0
   19.8052  -17.9041    5.3531 C   0  0  0  0  0  0  0  0  0  0  0  0
   21.0004  -17.5296    4.8829 C   0  0  0  0  0  0  0  0  0  0  0  0
   21.2707  -17.5482    3.4273 C   0  0  0  0  0  0  0  0  0  0  0  0
   22.3728  -17.2551    2.9799 O   0  0  0  0  0  0  0  0  0  0  0  0
   19.5194  -17.7674    6.6971 O   0  0  0  0  0  0  0  0  0  0  0  0
   17.3664  -20.2762    6.3743 H   0  0  0  0  0  0  0  0  0  0  0  0
   16.1908  -17.9641    7.0380 H   0  0  0  0  0  0  0  0  0  0  0  0
   20.1748  -17.1446    7.0677 H   0  0  0  0  0  0  0  0  0  0  0  0
  1  2  2  0  0  0  0
  1  9  1  0  0  0  0
  2  3  1  0  0  0  0
  3  4  2  0  0  0  0
  3  7  1  0  0  0  0
  4  5  1  0  0  0  0
  5  6  1  0  0  0  0
  5 12  1  0  0  0  0
  6 13  1  0  0  0  0
  7  8  2  0  0  0  0
  7 11  1  0  0  0  0
  8  9  1  0  0  0  0
  9 10  2  0  0  0  0
 11 14  1  0  0  0  0
M  END
>  <CHROM.0>
-46.63182244,-45.40174615,-53.89317999,-51.98759962,-53.94293645,-57.50564034
-66.56823490,-52.20348109,-165.90552814,160.40808226

>  <CHROM.1>
129.66853009,-92.61457710,-159.26358115,19.27751449,-18.15203991,4.74351057
0.54211001,-0.35242784,-1.66577831

>  <Name>
P155774521

>  <RI>
0

>  <Rbt.Current_Directory>
/home/fstefaniak/projects/zuza/docking/adenine/1Y26

>  <Rbt.Executable>
rbdock ($Id: //depot/dev/client3/rdock/2013.1/src/exe/rbdock.cxx#4 $)

>  <Rbt.Library>
libRbt.so (2013.1, Build901 2013/11/27)

>  <Rbt.Parameter_File>
/home/fstefaniak/progs/rDock//data/scripts/dock_solv.prm

>  <Rbt.Receptor>
1y26.prm

>  <SCORE>
-49.9411

>  <SCORE.INTER>
-30.6501

>  <SCORE.INTER.CONST>
1

>  <SCORE.INTER.POLAR>
-4.73787

>  <SCORE.INTER.ROT>
1

>  <SCORE.INTER.SOLV>
15.1531

>  <SCORE.INTER.VDW>
-13.9581

>  <SCORE.INTER.norm>
-2.78637

>  <SCORE.INTRA>
2.13967

>  <SCORE.INTRA.DIHEDRAL>
-0.467228

>  <SCORE.INTRA.DIHEDRAL.0>
2.0052

>  <SCORE.INTRA.POLAR>
0.398033

>  <SCORE.INTRA.POLAR.0>
-0.398033

>  <SCORE.INTRA.REPUL>
0.196425

>  <SCORE.INTRA.REPUL.0>
0

>  <SCORE.INTRA.SOLV>
-0.0117928

>  <SCORE.INTRA.SOLV.lig_0>
-19.064

>  <SCORE.INTRA.VDW>
0.0437421

>  <SCORE.INTRA.VDW.0>
-0.0170964

>  <SCORE.INTRA.norm>
0.194515

>  <SCORE.RESTR>
0

>  <SCORE.RESTR.CAVITY>
0

>  <SCORE.RESTR.norm>
0

>  <SCORE.SYSTEM>
-21.4307

>  <SCORE.SYSTEM.CONST>
0

>  <SCORE.SYSTEM.DIHEDRAL>
7.50594

>  <SCORE.SYSTEM.POLAR>
-3.57033

>  <SCORE.SYSTEM.SOLV>
0.666794

>  <SCORE.SYSTEM.VDW>
-5.1103

>  <SCORE.SYSTEM.norm>
-1.94825

>  <SCORE.heavy>
11

>  <SCORE.norm>
-4.5401

$$$$
P155841029
 OpenBabel12072022103D
libRbt.so/2013.1/901 2013/11/27
 13 13  0  0  0  0  0  0  0  0999 V2000
   21.1726  -16.5752    3.1990 C   0  0  0  0  0  0  0  0  0  0  0  0
   21.3510  -16.8868    4.6799 C   0  0  0  0  0  0  0  0  0  0  0  0
   20.0147  -17.2104    5.3449 C   0  0  0  0  0  0  0  0  0  0  0  0
   19.3412  -18.3123    4.6358 N   0  0  0  0  0  0  0  0  0  0  0  0
   19.1115  -18.0269    3.2083 C   0  0  0  0  0  0  0  0  0  0  0  0
   20.4299  -17.7108    2.5058 C   0  0  0  0  0  0  0  0  0  0  0  0
   18.4002  -19.0818    5.2902 C   0  0  0  0  0  0  0  0  0  0  0  0
   17.1618  -18.7229    5.4752 N   0  0  0  0  0  0  0  0  0  0  0  0
   16.4320  -19.7357    6.1222 O   0  0  0  0  0  0  0  0  0  0  0  0
   18.8671  -20.2980    5.6867 N   0  0  0  0  0  0  0  0  0  0  0  0
   16.9811  -19.9010    6.9105 H   0  0  0  0  0  0  0  0  0  0  0  0
   19.5745  -20.6417    5.0514 H   0  0  0  0  0  0  0  0  0  0  0  0
   18.0758  -20.9353    5.7252 H   0  0  0  0  0  0  0  0  0  0  0  0
  1  2  1  0  0  0  0
  1  6  1  0  0  0  0
  2  3  1  0  0  0  0
  3  4  1  0  0  0  0
  4  5  1  0  0  0  0
  4  7  1  0  0  0  0
  5  6  1  0  0  0  0
  7  8  2  0  0  0  0
  7 10  1  0  0  0  0
  8  9  1  0  0  0  0
  9 11  1  0  0  0  0
 10 12  1  0  0  0  0
 10 13  1  0  0  0  0
M  END
>  <CHROM.0>
-44.94394748,-62.11458313,-58.18503765,-49.99001618,-57.66280734,-53.14673565
-62.43642155,-51.29553733,-166.22072894,160.07926509

>  <CHROM.1>
80.28985017,-31.22307375,53.75143732,19.18015676,-18.31172644,4.65284137
0.53514494,-0.58504006,-1.47811878

>  <Name>
P155841029

>  <RI>
0

>  <Rbt.Current_Directory>
/home/fstefaniak/projects/zuza/docking/adenine/1Y26

>  <Rbt.Executable>
rbdock ($Id: //depot/dev/client3/rdock/2013.1/src/exe/rbdock.cxx#4 $)

>  <Rbt.Library>
libRbt.so (2013.1, Build901 2013/11/27)

>  <Rbt.Parameter_File>
/home/fstefaniak/progs/rDock//data/scripts/dock_solv.prm

>  <Rbt.Receptor>
1y26.prm

>  <SCORE>
-51.6786

>  <SCORE.INTER>
-29.3965

>  <SCORE.INTER.CONST>
1

>  <SCORE.INTER.POLAR>
-4.5724

>  <SCORE.INTER.ROT>
2

>  <SCORE.INTER.SOLV>
12.2223

>  <SCORE.INTER.VDW>
-13.3637

>  <SCORE.INTER.norm>
-2.93965

>  <SCORE.INTRA>
-0.157536

>  <SCORE.INTRA.DIHEDRAL>
-1.33365

>  <SCORE.INTRA.DIHEDRAL.0>
2.95132

>  <SCORE.INTRA.POLAR>
0.224075

>  <SCORE.INTRA.POLAR.0>
-0.224075

>  <SCORE.INTRA.REPUL>
0

>  <SCORE.INTRA.REPUL.0>
0

>  <SCORE.INTRA.SOLV>
0.0364116

>  <SCORE.INTRA.SOLV.lig_0>
-10.5908

>  <SCORE.INTRA.VDW>
-0.270771

>  <SCORE.INTRA.VDW.0>
0.312495

>  <SCORE.INTRA.norm>
-0.0157536

>  <SCORE.RESTR>
0

>  <SCORE.RESTR.CAVITY>
0

>  <SCORE.RESTR.norm>
0

>  <SCORE.SYSTEM>
-22.1246

>  <SCORE.SYSTEM.CONST>
0

>  <SCORE.SYSTEM.DIHEDRAL>
6.71374

>  <SCORE.SYSTEM.POLAR>
-3.62746

>  <SCORE.SYSTEM.SOLV>
0.669266

>  <SCORE.SYSTEM.VDW>
-5.11919

>  <SCORE.SYSTEM.norm>
-2.21246

>  <SCORE.heavy>
10

>  <SCORE.norm>
-5.16786

$$$$
P155841029
 OpenBabel12072022103D
libRbt.so/2013.1/901 2013/11/27
 13 13  0  0  0  0  0  0  0  0999 V2000
   19.9387  -17.9500    6.1779 C   0  0  0  0  0  0  0  0  0  0  0  0
   19.2459  -19.2112    5.6764 C   0  0  0  0  0  0  0  0  0  0  0  0
   18.3173  -18.9063    4.5029 C   0  0  0  0  0  0  0  0  0  0  0  0
   19.0574  -18.2282    3.4244 N   0  0  0  0  0  0  0  0  0  0  0  0
   19.7042  -16.9788    3.8633 C   0  0  0  0  0  0  0  0  0  0  0  0
   20.6523  -17.2470    5.0299 C   0  0  0  0  0  0  0  0  0  0  0  0
   18.5893  -18.2805    2.1267 C   0  0  0  0  0  0  0  0  0  0  0  0
   17.3312  -18.3870    1.8064 N   0  0  0  0  0  0  0  0  0  0  0  0
   17.1595  -18.3590    0.4111 O   0  0  0  0  0  0  0  0  0  0  0  0
   19.5661  -18.1525    1.1866 N   0  0  0  0  0  0  0  0  0  0  0  0
   16.8905  -19.2777    0.2273 H   0  0  0  0  0  0  0  0  0  0  0  0
   19.1715  -18.0783    0.2588 H   0  0  0  0  0  0  0  0  0  0  0  0
   20.1718  -18.9661    1.2575 H   0  0  0  0  0  0  0  0  0  0  0  0
  1  2  1  0  0  0  0
  1  6  1  0  0  0  0
  2  3  1  0  0  0  0
  3  4  1  0  0  0  0
  4  5  1  0  0  0  0
  4  7  1  0  0  0  0
  5  6  1  0  0  0  0
  7  8  2  0  0  0  0
  7 10  1  0  0  0  0
  8  9  1  0  0  0  0
  9 11  1  0  0  0  0
 10 12  1  0  0  0  0
 10 13  1  0  0  0  0
M  END
>  <CHROM.0>
-49.45298141,-63.23371503,-55.96833461,-56.04651951,-58.10826173,-61.62467992
-59.66798581,-175.48614399,-168.09990475,160.74960301

>  <CHROM.1>
29.43469954,-172.79715305,110.32195775,18.93225974,-18.18382710,3.33788160
1.06605225,0.58443000,1.80272633

>  <Name>
P155841029

>  <RI>
0

>  <Rbt.Current_Directory>
/home/fstefaniak/projects/zuza/docking/adenine/1Y26

>  <Rbt.Executable>
rbdock ($Id: //depot/dev/client3/rdock/2013.1/src/exe/rbdock.cxx#4 $)

>  <Rbt.Library>
libRbt.so (2013.1, Build901 2013/11/27)

>  <Rbt.Parameter_File>
/home/fstefaniak/progs/rDock//data/scripts/dock_solv.prm

>  <Rbt.Receptor>
1y26.prm

>  <SCORE>
-51.0044

>  <SCORE.INTER>
-27.2553

>  <SCORE.INTER.CONST>
1

>  <SCORE.INTER.POLAR>
-3.55125

>  <SCORE.INTER.ROT>
2

>  <SCORE.INTER.SOLV>
11.9784

>  <SCORE.INTER.VDW>
-15.2589

>  <SCORE.INTER.norm>
-2.72553

>  <SCORE.INTRA>
-1.09434

>  <SCORE.INTRA.DIHEDRAL>
-1.73873

>  <SCORE.INTRA.DIHEDRAL.0>
2.95132

>  <SCORE.INTRA.POLAR>
0.138014

>  <SCORE.INTRA.POLAR.0>
-0.224075

>  <SCORE.INTRA.REPUL>
0

>  <SCORE.INTRA.REPUL.0>
0

>  <SCORE.INTRA.SOLV>
0.0105246

>  <SCORE.INTRA.SOLV.lig_0>
-10.5908

>  <SCORE.INTRA.VDW>
-0.699485

>  <SCORE.INTRA.VDW.0>
0.312495

>  <SCORE.INTRA.norm>
-0.109434

>  <SCORE.RESTR>
0

>  <SCORE.RESTR.CAVITY>
0

>  <SCORE.RESTR.norm>
0

>  <SCORE.SYSTEM>
-22.6548

>  <SCORE.SYSTEM.CONST>
0

>  <SCORE.SYSTEM.DIHEDRAL>
5.11837

>  <SCORE.SYSTEM.POLAR>
-3.3654

>  <SCORE.SYSTEM.SOLV>
0.438958

>  <SCORE.SYSTEM.VDW>
-5.73761

>  <SCORE.SYSTEM.norm>
-2.26548

>  <SCORE.heavy>
10

>  <SCORE.norm>
-5.10044

$$$$
P155841029
 OpenBabel12072022103D
libRbt.so/2013.1/901 2013/11/27
 13 13  0  0  0  0  0  0  0  0999 V2000
   21.1549  -16.5287    3.2115 C   0  0  0  0  0  0  0  0  0  0  0  0
   21.3339  -16.8429    4.6918 C   0  0  0  0  0  0  0  0  0  0  0  0
   20.0004  -17.1853    5.3528 C   0  0  0  0  0  0  0  0  0  0  0  0
   19.3422  -18.2932    4.6387 N   0  0  0  0  0  0  0  0  0  0  0  0
   19.1121  -18.0061    3.2116 C   0  0  0  0  0  0  0  0  0  0  0  0
   20.4280  -17.6712    2.5130 C   0  0  0  0  0  0  0  0  0  0  0  0
   18.4095  -19.0765    5.2885 C   0  0  0  0  0  0  0  0  0  0  0  0
   17.1683  -18.7302    5.4790 N   0  0  0  0  0  0  0  0  0  0  0  0
   16.4489  -19.7549    6.1190 O   0  0  0  0  0  0  0  0  0  0  0  0
   18.8880  -20.2918    5.6738 N   0  0  0  0  0  0  0  0  0  0  0  0
   16.9718  -19.8847    6.9314 H   0  0  0  0  0  0  0  0  0  0  0  0
   19.6105  -20.6152    5.0448 H   0  0  0  0  0  0  0  0  0  0  0  0
   18.1057  -20.9412    5.6897 H   0  0  0  0  0  0  0  0  0  0  0  0
  1  2  1  0  0  0  0
  1  6  1  0  0  0  0
  2  3  1  0  0  0  0
  3  4  1  0  0  0  0
  4  5  1  0  0  0  0
  4  7  1  0  0  0  0
  5  6  1  0  0  0  0
  7  8  2  0  0  0  0
  7 10  1  0  0  0  0
  8  9  1  0  0  0  0
  9 11  1  0  0  0  0
 10 12  1  0  0  0  0
 10 13  1  0  0  0  0
M  END
>  <CHROM.0>
65.48589915,-59.75796854,-56.53125455,-52.02093442,-57.30802815,-55.38630231
-59.97029236,-51.17794889,-168.54570917,160.54503435

>  <CHROM.1>
79.85431219,-30.05735863,57.01305121,19.18105565,-18.29418164,4.65577928
0.52812561,-0.60256442,-1.48688396

>  <Name>
P155841029

>  <RI>
0

>  <Rbt.Current_Directory>
/home/fstefaniak/projects/zuza/docking/adenine/1Y26

>  <Rbt.Executable>
rbdock ($Id: //depot/dev/client3/rdock/2013.1/src/exe/rbdock.cxx#4 $)

>  <Rbt.Library>
libRbt.so (2013.1, Build901 2013/11/27)

>  <Rbt.Parameter_File>
/home/fstefaniak/progs/rDock//data/scripts/dock_solv.prm

>  <Rbt.Receptor>
1y26.prm

>  <SCORE>
-50.7988

>  <SCORE.INTER>
-29.1133

>  <SCORE.INTER.CONST>
1

>  <SCORE.INTER.POLAR>
-4.52288

>  <SCORE.INTER.ROT>
2

>  <SCORE.INTER.SOLV>
12.2419

>  <SCORE.INTER.VDW>
-13.3466

>  <SCORE.INTER.norm>
-2.91133

>  <SCORE.INTRA>
-0.458116

>  <SCORE.INTRA.DIHEDRAL>
-1.43975

>  <SCORE.INTRA.DIHEDRAL.0>
2.95132

>  <SCORE.INTRA.POLAR>
0.224075

>  <SCORE.INTRA.POLAR.0>
-0.224075

>  <SCORE.INTRA.REPUL>
0

>  <SCORE.INTRA.REPUL.0>
0

>  <SCORE.INTRA.SOLV>
0.034118

>  <SCORE.INTRA.SOLV.lig_0>
-10.5908

>  <SCORE.INTRA.VDW>
-0.517152

>  <SCORE.INTRA.VDW.0>
0.312495

>  <SCORE.INTRA.norm>
-0.0458116

>  <SCORE.RESTR>
0

>  <SCORE.RESTR.CAVITY>
0

>  <SCORE.RESTR.norm>
0

>  <SCORE.SYSTEM>
-21.2274

>  <SCORE.SYSTEM.CONST>
0

>  <SCORE.SYSTEM.DIHEDRAL>
5.22271

>  <SCORE.SYSTEM.POLAR>
-3.25037

>  <SCORE.SYSTEM.SOLV>
0.640459

>  <SCORE.SYSTEM.VDW>
-5.27141

>  <SCORE.SYSTEM.norm>
-2.12274

>  <SCORE.heavy>
10

>  <SCORE.norm>
-5.07988

$$$$
P156180563
 OpenBabel12072022103D
libRbt.so/2013.1/901 2013/11/27
 12 11  0  0  0  0  0  0  0  0999 V2000
   20.0880  -15.9114    3.8965 C   0  0  0  0  0  0  0  0  0  0  0  0
   19.7955  -17.3471    3.4384 C   0  0  0  0  0  0  0  0  0  0  0  0
   21.1077  -17.9904    2.9730 C   0  0  0  0  0  0  0  0  0  0  0  0
   19.1403  -18.0963    4.6367 C   0  0  0  0  0  0  0  0  0  0  0  0
   19.7388  -18.1085    5.7935 N   0  0  0  0  0  0  0  0  0  0  0  0
   19.0101  -18.8700    6.7223 O   0  0  0  0  0  0  0  0  0  0  0  0
   17.9452  -18.7386    4.3989 N   0  0  0  0  0  0  0  0  0  0  0  0
   18.8393  -17.2286    2.3662 O   0  0  0  0  0  0  0  0  0  0  0  0
   18.4697  -18.4551    1.7470 C   0  0  0  0  0  0  0  0  0  0  0  0
   18.4496  -18.1933    7.1457 H   0  0  0  0  0  0  0  0  0  0  0  0
   17.7611  -19.5248    5.0141 H   0  0  0  0  0  0  0  0  0  0  0  0
   17.1797  -18.0807    4.2969 H   0  0  0  0  0  0  0  0  0  0  0  0
  1  2  1  0  0  0  0
  2  3  1  0  0  0  0
  2  4  1  0  0  0  0
  2  8  1  0  0  0  0
  4  5  2  0  0  0  0
  4  7  1  0  0  0  0
  5  6  1  0  0  0  0
  6 10  1  0  0  0  0
  7 11  1  0  0  0  0
  7 12  1  0  0  0  0
  8  9  1  0  0  0  0
M  END
>  <CHROM.0>
-44.47000588,-176.92823160,-50.18314859,-53.07366419,-55.15917154,-60.94415391
-60.79449276,-55.21812813,-166.48682659,161.74997729

>  <CHROM.1>
-53.56402501,177.28490382,153.69067367,-92.57071307,19.30900358,-17.87792280
4.02004627,-1.45601428,0.65848485,1.77160664

>  <Name>
P156180563

>  <RI>
0

>  <Rbt.Current_Directory>
/home/fstefaniak/projects/zuza/docking/adenine/1Y26

>  <Rbt.Executable>
rbdock ($Id: //depot/dev/client3/rdock/2013.1/src/exe/rbdock.cxx#4 $)

>  <Rbt.Library>
libRbt.so (2013.1, Build901 2013/11/27)

>  <Rbt.Parameter_File>
/home/fstefaniak/progs/rDock//data/scripts/dock_solv.prm

>  <Rbt.Receptor>
1y26.prm

>  <SCORE>
-52.3174

>  <SCORE.INTER>
-30.0265

>  <SCORE.INTER.CONST>
1

>  <SCORE.INTER.POLAR>
-4.64524

>  <SCORE.INTER.ROT>
3

>  <SCORE.INTER.SOLV>
9.59773

>  <SCORE.INTER.VDW>
-13.3328

>  <SCORE.INTER.norm>
-3.33628

>  <SCORE.INTRA>
0.00570942

>  <SCORE.INTRA.DIHEDRAL>
-2.24102

>  <SCORE.INTRA.DIHEDRAL.0>
3.55613

>  <SCORE.INTRA.POLAR>
0.0773217

>  <SCORE.INTRA.POLAR.0>
-0.0773217

>  <SCORE.INTRA.REPUL>
0

>  <SCORE.INTRA.REPUL.0>
0

>  <SCORE.INTRA.SOLV>
0.153006

>  <SCORE.INTRA.SOLV.lig_0>
-7.61666

>  <SCORE.INTRA.VDW>
0.786822

>  <SCORE.INTRA.VDW.0>
3.72047

>  <SCORE.INTRA.norm>
0.00063438

>  <SCORE.RESTR>
0

>  <SCORE.RESTR.CAVITY>
0

>  <SCORE.RESTR.norm>
0

>  <SCORE.SYSTEM>
-22.2966

>  <SCORE.SYSTEM.CONST>
0

>  <SCORE.SYSTEM.DIHEDRAL>
6.33705

>  <SCORE.SYSTEM.POLAR>
-3.54943

>  <SCORE.SYSTEM.SOLV>
0.612352

>  <SCORE.SYSTEM.VDW>
-5.34946

>  <SCORE.SYSTEM.norm>
-2.4774

>  <SCORE.heavy>
9

>  <SCORE.norm>
-5.81305

$$$$
P156180563
 OpenBabel12072022103D
libRbt.so/2013.1/901 2013/11/27
 12 11  0  0  0  0  0  0  0  0999 V2000
   20.1045  -15.9138    3.9169 C   0  0  0  0  0  0  0  0  0  0  0  0
   19.7857  -17.3391    3.4441 C   0  0  0  0  0  0  0  0  0  0  0  0
   21.0838  -17.9970    2.9598 C   0  0  0  0  0  0  0  0  0  0  0  0
   19.1289  -18.0925    4.6389 C   0  0  0  0  0  0  0  0  0  0  0  0
   19.7261  -18.1091    5.7963 N   0  0  0  0  0  0  0  0  0  0  0  0
   18.9961  -18.8738    6.7215 O   0  0  0  0  0  0  0  0  0  0  0  0
   17.9339  -18.7336    4.3973 N   0  0  0  0  0  0  0  0  0  0  0  0
   18.8226  -17.1927    2.3816 O   0  0  0  0  0  0  0  0  0  0  0  0
   18.4524  -18.4021    1.7299 C   0  0  0  0  0  0  0  0  0  0  0  0
   18.4278  -18.2002    7.1393 H   0  0  0  0  0  0  0  0  0  0  0  0
   17.7560  -19.5314    4.9993 H   0  0  0  0  0  0  0  0  0  0  0  0
   17.1661  -18.0760    4.3126 H   0  0  0  0  0  0  0  0  0  0  0  0
  1  2  1  0  0  0  0
  2  3  1  0  0  0  0
  2  4  1  0  0  0  0
  2  8  1  0  0  0  0
  4  5  2  0  0  0  0
  4  7  1  0  0  0  0
  5  6  1  0  0  0  0
  6 10  1  0  0  0  0
  7 11  1  0  0  0  0
  7 12  1  0  0  0  0
  8  9  1  0  0  0  0
M  END
>  <CHROM.0>
-48.28399156,-178.96789385,-54.26107501,-52.46156119,-173.82404905,58.81772554
-58.23469947,178.43451625,-167.32923076,161.32969424

>  <CHROM.1>
-52.42295768,175.86516732,152.72426302,-91.92891708,19.29768530,-17.86756528
4.02147810,-1.45844429,0.65110593,1.77895223

>  <Name>
P156180563

>  <RI>
0

>  <Rbt.Current_Directory>
/home/fstefaniak/projects/zuza/docking/adenine/1Y26

>  <Rbt.Executable>
rbdock ($Id: //depot/dev/client3/rdock/2013.1/src/exe/rbdock.cxx#4 $)

>  <Rbt.Library>
libRbt.so (2013.1, Build901 2013/11/27)

>  <Rbt.Parameter_File>
/home/fstefaniak/progs/rDock//data/scripts/dock_solv.prm

>  <Rbt.Receptor>
1y26.prm

>  <SCORE>
-51.9484

>  <SCORE.INTER>
-30.1504

>  <SCORE.INTER.CONST>
1

>  <SCORE.INTER.POLAR>
-4.65766

>  <SCORE.INTER.ROT>
3

>  <SCORE.INTER.SOLV>
9.6058

>  <SCORE.INTER.VDW>
-13.3766

>  <SCORE.INTER.norm>
-3.35004

>  <SCORE.INTRA>
0.0199079

>  <SCORE.INTRA.DIHEDRAL>
-2.18391

>  <SCORE.INTRA.DIHEDRAL.0>
3.55613

>  <SCORE.INTRA.POLAR>
0.0773217

>  <SCORE.INTRA.POLAR.0>
-0.0773217

>  <SCORE.INTRA.REPUL>
0

>  <SCORE.INTRA.REPUL.0>
0

>  <SCORE.INTRA.SOLV>
0.147232

>  <SCORE.INTRA.SOLV.lig_0>
-7.61666

>  <SCORE.INTRA.VDW>
0.775355

>  <SCORE.INTRA.VDW.0>
3.72047

>  <SCORE.INTRA.norm>
0.00221199

>  <SCORE.RESTR>
0

>  <SCORE.RESTR.CAVITY>
0

>  <SCORE.RESTR.norm>
0

>  <SCORE.SYSTEM>
-21.8179

>  <SCORE.SYSTEM.CONST>
0

>  <SCORE.SYSTEM.DIHEDRAL>
5.53403

>  <SCORE.SYSTEM.POLAR>
-3.45674

>  <SCORE.SYSTEM.SOLV>
0.0812896

>  <SCORE.SYSTEM.VDW>
-4.8946

>  <SCORE.SYSTEM.norm>
-2.42421

>  <SCORE.heavy>
9

>  <SCORE.norm>
-5.77204

$$$$
P156180563
 OpenBabel12072022103D
libRbt.so/2013.1/901 2013/11/27
 12 11  0  0  0  0  0  0  0  0999 V2000
   20.0791  -15.9421    3.9446 C   0  0  0  0  0  0  0  0  0  0  0  0
   19.8000  -17.3649    3.4401 C   0  0  0  0  0  0  0  0  0  0  0  0
   21.1333  -18.0209    3.0602 C   0  0  0  0  0  0  0  0  0  0  0  0
   19.0478  -18.1241    4.5735 C   0  0  0  0  0  0  0  0  0  0  0  0
   17.9609  -18.7854    4.2944 N   0  0  0  0  0  0  0  0  0  0  0  0
   17.4156  -19.3584    5.4553 O   0  0  0  0  0  0  0  0  0  0  0  0
   19.5725  -18.0369    5.8441 N   0  0  0  0  0  0  0  0  0  0  0  0
   18.9269  -17.2128    2.3033 O   0  0  0  0  0  0  0  0  0  0  0  0
   18.5338  -18.4277    1.6757 C   0  0  0  0  0  0  0  0  0  0  0  0
   17.6176  -20.3043    5.3299 H   0  0  0  0  0  0  0  0  0  0  0  0
   18.8994  -17.7816    6.5599 H   0  0  0  0  0  0  0  0  0  0  0  0
   20.1558  -18.8370    6.0646 H   0  0  0  0  0  0  0  0  0  0  0  0
  1  2  1  0  0  0  0
  2  3  1  0  0  0  0
  2  4  1  0  0  0  0
  2  8  1  0  0  0  0
  4  5  2  0  0  0  0
  4  7  1  0  0  0  0
  5  6  1  0  0  0  0
  6 10  1  0  0  0  0
  7 11  1  0  0  0  0
  7 12  1  0  0  0  0
  8  9  1  0  0  0  0
M  END
>  <CHROM.0>
-49.21145171,-178.28515405,-56.40880822,-53.70891892,-55.41672547,-174.87427825
-55.20775912,-176.89763430,-167.12026424,161.37773840

>  <CHROM.1>
131.02127791,-179.80452028,130.09874031,-107.37493301,19.13684970,-17.94908385
3.86642446,-0.89527669,0.66197644,1.67373859

>  <Name>
P156180563

>  <RI>
0

>  <Rbt.Current_Directory>
/home/fstefaniak/projects/zuza/docking/adenine/1Y26

>  <Rbt.Executable>
rbdock ($Id: //depot/dev/client3/rdock/2013.1/src/exe/rbdock.cxx#4 $)

>  <Rbt.Library>
libRbt.so (2013.1, Build901 2013/11/27)

>  <Rbt.Parameter_File>
/home/fstefaniak/progs/rDock//data/scripts/dock_solv.prm

>  <Rbt.Receptor>
1y26.prm

>  <SCORE>
-51.1554

>  <SCORE.INTER>
-28.443

>  <SCORE.INTER.CONST>
1

>  <SCORE.INTER.POLAR>
-4.55635

>  <SCORE.INTER.ROT>
3

>  <SCORE.INTER.SOLV>
9.71056

>  <SCORE.INTER.VDW>
-12.611

>  <SCORE.INTER.norm>
-3.16033

>  <SCORE.INTRA>
-0.176922

>  <SCORE.INTRA.DIHEDRAL>
-2.12413

>  <SCORE.INTRA.DIHEDRAL.0>
3.55613

>  <SCORE.INTRA.POLAR>
0.0773217

>  <SCORE.INTRA.POLAR.0>
-0.0773217

>  <SCORE.INTRA.REPUL>
0

>  <SCORE.INTRA.REPUL.0>
0

>  <SCORE.INTRA.SOLV>
-0.0595077

>  <SCORE.INTRA.SOLV.lig_0>
-7.61666

>  <SCORE.INTRA.VDW>
0.652001

>  <SCORE.INTRA.VDW.0>
3.72047

>  <SCORE.INTRA.norm>
-0.019658

>  <SCORE.RESTR>
0

>  <SCORE.RESTR.CAVITY>
0

>  <SCORE.RESTR.norm>
0

>  <SCORE.SYSTEM>
-22.5355

>  <SCORE.SYSTEM.CONST>
0

>  <SCORE.SYSTEM.DIHEDRAL>
5.45782

>  <SCORE.SYSTEM.POLAR>
-3.41283

>  <SCORE.SYSTEM.SOLV>
0.264809

>  <SCORE.SYSTEM.VDW>
-5.55507

>  <SCORE.SYSTEM.norm>
-2.50394

>  <SCORE.heavy>
9

>  <SCORE.norm>
-5.68393

$$$$
P156234412
 OpenBabel12072022103D
libRbt.so/2013.1/901 2013/11/27
 10  9  0  0  0  0  0  0  0  0999 V2000
   18.2201  -18.2678    1.7467 C   0  0  0  0  0  0  0  0  0  0  0  0
   18.9617  -18.5423    3.0208 C   0  0  0  0  0  0  0  0  0  0  0  0
   18.4953  -19.3915    3.8882 N   0  0  0  0  0  0  0  0  0  0  0  0
   19.3150  -19.4665    5.0206 O   0  0  0  0  0  0  0  0  0  0  0  0
   20.2030  -17.7166    3.2545 C   0  0  0  0  0  0  0  0  0  0  0  0
   21.1744  -17.6244    2.3946 N   0  0  0  0  0  0  0  0  0  0  0  0
   20.9385  -18.4244    1.2705 O   0  0  0  0  0  0  0  0  0  0  0  0
   20.2286  -16.9082    4.5180 C   0  0  0  0  0  0  0  0  0  0  0  0
   19.8198  -20.2862    4.8608 H   0  0  0  0  0  0  0  0  0  0  0  0
   20.9670  -17.7763    0.5414 H   0  0  0  0  0  0  0  0  0  0  0  0
  1  2  1  0  0  0  0
  2  3  2  0  0  0  0
  2  5  1  0  0  0  0
  3  4  1  0  0  0  0
  4  9  1  0  0  0  0
  5  6  2  0  0  0  0
  5  8  1  0  0  0  0
  6  7  1  0  0  0  0
  7 10  1  0  0  0  0
M  END
>  <CHROM.0>
-44.68275782,-57.48095780,-59.52369159,-54.27194262,-52.26132730,-64.24222753
-59.36373791,-179.04587704,-166.33690863,160.17844536

>  <CHROM.1>
-53.45470696,-101.10910511,122.17837321,19.71466760,-18.32107606,3.13176978
0.97192512,-0.59311378,-1.56340813

>  <Name>
P156234412

>  <RI>
0

>  <Rbt.Current_Directory>
/home/fstefaniak/projects/zuza/docking/adenine/1Y26

>  <Rbt.Executable>
rbdock ($Id: //depot/dev/client3/rdock/2013.1/src/exe/rbdock.cxx#4 $)

>  <Rbt.Library>
libRbt.so (2013.1, Build901 2013/11/27)

>  <Rbt.Parameter_File>
/home/fstefaniak/progs/rDock//data/scripts/dock_solv.prm

>  <Rbt.Receptor>
1y26.prm

>  <SCORE>
-51.9209

>  <SCORE.INTER>
-28.1758

>  <SCORE.INTER.CONST>
1

>  <SCORE.INTER.POLAR>
-3.77656

>  <SCORE.INTER.ROT>
1

>  <SCORE.INTER.SOLV>
8.1578

>  <SCORE.INTER.VDW>
-13.1813

>  <SCORE.INTER.norm>
-3.52197

>  <SCORE.INTRA>
-1.23778

>  <SCORE.INTRA.DIHEDRAL>
-7.05958

>  <SCORE.INTRA.DIHEDRAL.0>
15.0649

>  <SCORE.INTRA.POLAR>
0

>  <SCORE.INTRA.POLAR.0>
0

>  <SCORE.INTRA.REPUL>
0

>  <SCORE.INTRA.REPUL.0>
0

>  <SCORE.INTRA.SOLV>
-0.128865

>  <SCORE.INTRA.SOLV.lig_0>
-6.51036

>  <SCORE.INTRA.VDW>
2.35645

>  <SCORE.INTRA.VDW.0>
-0.726131

>  <SCORE.INTRA.norm>
-0.154722

>  <SCORE.RESTR>
0

>  <SCORE.RESTR.CAVITY>
0

>  <SCORE.RESTR.norm>
0

>  <SCORE.SYSTEM>
-22.5074

>  <SCORE.SYSTEM.CONST>
0

>  <SCORE.SYSTEM.DIHEDRAL>
6.16443

>  <SCORE.SYSTEM.POLAR>
-3.49214

>  <SCORE.SYSTEM.SOLV>
0.445215

>  <SCORE.SYSTEM.VDW>
-5.56769

>  <SCORE.SYSTEM.norm>
-2.81342

>  <SCORE.heavy>
8

>  <SCORE.norm>
-6.49012

$$$$
P156234412
 OpenBabel12072022103D
libRbt.so/2013.1/901 2013/11/27
 10  9  0  0  0  0  0  0  0  0999 V2000
   19.2670  -19.1916    4.7197 C   0  0  0  0  0  0  0  0  0  0  0  0
   18.8849  -18.4927    3.4492 C   0  0  0  0  0  0  0  0  0  0  0  0
   17.8059  -18.8305    2.8068 N   0  0  0  0  0  0  0  0  0  0  0  0
   17.6587  -18.0869    1.6299 O   0  0  0  0  0  0  0  0  0  0  0  0
   19.8641  -17.4634    2.9404 C   0  0  0  0  0  0  0  0  0  0  0  0
   20.3646  -17.4827    1.7401 N   0  0  0  0  0  0  0  0  0  0  0  0
   19.9209  -18.5981    1.0200 O   0  0  0  0  0  0  0  0  0  0  0  0
   20.1739  -16.3304    3.8736 C   0  0  0  0  0  0  0  0  0  0  0  0
   17.0270  -18.6264    1.1178 H   0  0  0  0  0  0  0  0  0  0  0  0
   19.1888  -18.2291    0.4907 H   0  0  0  0  0  0  0  0  0  0  0  0
  1  2  1  0  0  0  0
  2  3  2  0  0  0  0
  2  5  1  0  0  0  0
  3  4  1  0  0  0  0
  4  9  1  0  0  0  0
  5  6  2  0  0  0  0
  5  8  1  0  0  0  0
  6  7  1  0  0  0  0
  7 10  1  0  0  0  0
M  END
>  <CHROM.0>
-49.97037238,-59.09565284,-55.71797067,-53.71587065,-173.15365520,-59.47887676
-61.52307974,-50.25448227,-166.49150004,160.81191561

>  <CHROM.1>
125.48728608,161.31882124,98.06995159,19.21120826,-18.07315948,2.70108839
1.11996817,0.64783053,1.62845725

>  <Name>
P156234412

>  <RI>
0

>  <Rbt.Current_Directory>
/home/fstefaniak/projects/zuza/docking/adenine/1Y26

>  <Rbt.Executable>
rbdock ($Id: //depot/dev/client3/rdock/2013.1/src/exe/rbdock.cxx#4 $)

>  <Rbt.Library>
libRbt.so (2013.1, Build901 2013/11/27)

>  <Rbt.Parameter_File>
/home/fstefaniak/progs/rDock//data/scripts/dock_solv.prm

>  <Rbt.Receptor>
1y26.prm

>  <SCORE>
-51.7923

>  <SCORE.INTER>
-28.4608

>  <SCORE.INTER.CONST>
1

>  <SCORE.INTER.POLAR>
-3.99519

>  <SCORE.INTER.ROT>
1

>  <SCORE.INTER.SOLV>
8.63852

>  <SCORE.INTER.VDW>
-12.8027

>  <SCORE.INTER.norm>
-3.5576

>  <SCORE.INTRA>
-1.10357

>  <SCORE.INTRA.DIHEDRAL>
-5.66797

>  <SCORE.INTRA.DIHEDRAL.0>
15.0649

>  <SCORE.INTRA.POLAR>
-0.143119

>  <SCORE.INTRA.POLAR.0>
0

>  <SCORE.INTRA.REPUL>
0

>  <SCORE.INTRA.REPUL.0>
0

>  <SCORE.INTRA.SOLV>
0.316494

>  <SCORE.INTRA.SOLV.lig_0>
-6.51036

>  <SCORE.INTRA.VDW>
2.05877

>  <SCORE.INTRA.VDW.0>
-0.726131

>  <SCORE.INTRA.norm>
-0.137947

>  <SCORE.RESTR>
0

>  <SCORE.RESTR.CAVITY>
0

>  <SCORE.RESTR.norm>
0

>  <SCORE.SYSTEM>
-22.2279

>  <SCORE.SYSTEM.CONST>
0

>  <SCORE.SYSTEM.DIHEDRAL>
5.83157

>  <SCORE.SYSTEM.POLAR>
-3.46497

>  <SCORE.SYSTEM.SOLV>
0.493736

>  <SCORE.SYSTEM.VDW>
-5.37711

>  <SCORE.SYSTEM.norm>
-2.77849

>  <SCORE.heavy>
8

>  <SCORE.norm>
-6.47403

$$$$
P156234412
 OpenBabel12072022103D
libRbt.so/2013.1/901 2013/11/27
 10  9  0  0  0  0  0  0  0  0999 V2000
   18.2415  -18.2699    1.7779 C   0  0  0  0  0  0  0  0  0  0  0  0
   18.9858  -18.5482    3.0496 C   0  0  0  0  0  0  0  0  0  0  0  0
   18.5151  -19.3909    3.9211 N   0  0  0  0  0  0  0  0  0  0  0  0
   19.3388  -19.4709    5.0502 O   0  0  0  0  0  0  0  0  0  0  0  0
   20.2358  -17.7337    3.2761 C   0  0  0  0  0  0  0  0  0  0  0  0
   21.1932  -17.6326    2.4017 N   0  0  0  0  0  0  0  0  0  0  0  0
   20.9339  -18.4123    1.2685 O   0  0  0  0  0  0  0  0  0  0  0  0
   20.2873  -16.9466    4.5523 C   0  0  0  0  0  0  0  0  0  0  0  0
   19.8700  -20.2688    4.8669 H   0  0  0  0  0  0  0  0  0  0  0  0
   20.9845  -17.7576    0.5467 H   0  0  0  0  0  0  0  0  0  0  0  0
  1  2  1  0  0  0  0
  2  3  2  0  0  0  0
  2  5  1  0  0  0  0
  3  4  1  0  0  0  0
  4  9  1  0  0  0  0
  5  6  2  0  0  0  0
  5  8  1  0  0  0  0
  6  7  1  0  0  0  0
  7 10  1  0  0  0  0
M  END
>  <CHROM.0>
-51.87755312,-61.93394080,-55.50684877,-51.02152230,-56.28285918,-58.39136474
-64.91360614,-52.80067958,-167.00168022,160.07743823

>  <CHROM.1>
-52.12968188,-98.11723633,124.04321776,19.73881182,-18.32824959,3.15420241
0.99268376,-0.58457166,-1.54977771

>  <Name>
P156234412

>  <RI>
0

>  <Rbt.Current_Directory>
/home/fstefaniak/projects/zuza/docking/adenine/1Y26

>  <Rbt.Executable>
rbdock ($Id: //depot/dev/client3/rdock/2013.1/src/exe/rbdock.cxx#4 $)

>  <Rbt.Library>
libRbt.so (2013.1, Build901 2013/11/27)

>  <Rbt.Parameter_File>
/home/fstefaniak/progs/rDock//data/scripts/dock_solv.prm

>  <Rbt.Receptor>
1y26.prm

>  <SCORE>
-51.6184

>  <SCORE.INTER>
-28.3122

>  <SCORE.INTER.CONST>
1

>  <SCORE.INTER.POLAR>
-3.8102

>  <SCORE.INTER.ROT>
1

>  <SCORE.INTER.SOLV>
8.1275

>  <SCORE.INTER.VDW>
-13.15

>  <SCORE.INTER.norm>
-3.53902

>  <SCORE.INTRA>
-1.03857

>  <SCORE.INTRA.DIHEDRAL>
-7.28664

>  <SCORE.INTRA.DIHEDRAL.0>
15.0649

>  <SCORE.INTRA.POLAR>
0

>  <SCORE.INTRA.POLAR.0>
0

>  <SCORE.INTRA.REPUL>
0

>  <SCORE.INTRA.REPUL.0>
0

>  <SCORE.INTRA.SOLV>
-0.132191

>  <SCORE.INTRA.SOLV.lig_0>
-6.51036

>  <SCORE.INTRA.VDW>
2.67085

>  <SCORE.INTRA.VDW.0>
-0.726131

>  <SCORE.INTRA.norm>
-0.129821

>  <SCORE.RESTR>
0

>  <SCORE.RESTR.CAVITY>
0

>  <SCORE.RESTR.norm>
0

>  <SCORE.SYSTEM>
-22.2677

>  <SCORE.SYSTEM.CONST>
0

>  <SCORE.SYSTEM.DIHEDRAL>
5.69942

>  <SCORE.SYSTEM.POLAR>
-3.48796

>  <SCORE.SYSTEM.SOLV>
0.650868

>  <SCORE.SYSTEM.VDW>
-5.33533

>  <SCORE.SYSTEM.norm>
-2.78346

>  <SCORE.heavy>
8

>  <SCORE.norm>
-6.4523

$$$$
P156238498
 OpenBabel12072022103D
libRbt.so/2013.1/901 2013/11/27
 13 13  0  0  0  0  0  0  0  0999 V2000
   17.3323  -19.2108    0.9184 H   0  0  0  0  0  0  0  0  0  0  0  0
   18.1980  -19.0697    1.4508 N   0  0  0  0  0  0  0  0  0  0  0  0
   18.4755  -17.8650    1.5509 N   0  0  0  0  0  0  0  0  0  0  0  0
   19.6198  -17.8239    2.2485 N   0  0  0  0  0  0  0  0  0  0  0  0
   19.6024  -18.1141    3.6293 C   0  0  0  0  0  0  0  0  0  0  0  0
   18.9959  -19.2846    4.1157 C   0  0  0  0  0  0  0  0  0  0  0  0
   18.9123  -19.5450    5.4870 C   0  0  0  0  0  0  0  0  0  0  0  0
   19.4196  -18.6302    6.4048 C   0  0  0  0  0  0  0  0  0  0  0  0
   20.0083  -17.4507    5.9529 C   0  0  0  0  0  0  0  0  0  0  0  0
   20.0941  -17.1922    4.5760 C   0  0  0  0  0  0  0  0  0  0  0  0
   20.7452  -15.9260    4.1659 C   0  0  0  0  0  0  0  0  0  0  0  0
   21.4957  -15.2975    4.9040 O   0  0  0  0  0  0  0  0  0  0  0  0
   20.4546  -18.1566    1.7553 H   0  0  0  0  0  0  0  0  0  0  0  0
  1  2  1  0  0  0  0
  2  3  2  0  0  0  0
  3  4  1  0  0  0  0
  4  5  1  0  0  0  0
  4 13  1  0  0  0  0
  5  6  2  0  0  0  0
  5 10  1  0  0  0  0
  6  7  1  0  0  0  0
  7  8  2  0  0  0  0
  8  9  1  0  0  0  0
  9 10  2  0  0  0  0
 10 11  1  0  0  0  0
 11 12  2  0  0  0  0
M  END
>  <CHROM.0>
-53.38731094,63.64508160,-55.93252837,-52.19470163,-55.26930822,-175.74064303
-61.31221841,-53.88308335,-166.88647553,160.41864234

>  <CHROM.1>
-72.47592643,51.18741676,-159.12761398,19.60547330,-17.80771358,3.97837395
-2.52850467,0.97605274,1.90391735

>  <Name>
P156238498

>  <RI>
0

>  <Rbt.Current_Directory>
/home/fstefaniak/projects/zuza/docking/adenine/1Y26

>  <Rbt.Executable>
rbdock ($Id: //depot/dev/client3/rdock/2013.1/src/exe/rbdock.cxx#4 $)

>  <Rbt.Library>
libRbt.so (2013.1, Build901 2013/11/27)

>  <Rbt.Parameter_File>
/home/fstefaniak/progs/rDock//data/scripts/dock_solv.prm

>  <Rbt.Receptor>
1y26.prm

>  <SCORE>
-52.9367

>  <SCORE.INTER>
-32.0782

>  <SCORE.INTER.CONST>
1

>  <SCORE.INTER.POLAR>
-3.38856

>  <SCORE.INTER.ROT>
3

>  <SCORE.INTER.SOLV>
11.254

>  <SCORE.INTER.VDW>
-19.4416

>  <SCORE.INTER.norm>
-2.9162

>  <SCORE.INTRA>
0.551161

>  <SCORE.INTRA.DIHEDRAL>
0.967798

>  <SCORE.INTRA.DIHEDRAL.0>
1.08068

>  <SCORE.INTRA.POLAR>
0.0321666

>  <SCORE.INTRA.POLAR.0>
-0.0321666

>  <SCORE.INTRA.REPUL>
0

>  <SCORE.INTRA.REPUL.0>
0

>  <SCORE.INTRA.SOLV>
-0.473531

>  <SCORE.INTRA.SOLV.lig_0>
-10.7482

>  <SCORE.INTRA.VDW>
0.194661

>  <SCORE.INTRA.VDW.0>
-0.336416

>  <SCORE.INTRA.norm>
0.0501055

>  <SCORE.RESTR>
0

>  <SCORE.RESTR.CAVITY>
0

>  <SCORE.RESTR.norm>
0

>  <SCORE.SYSTEM>
-21.4097

>  <SCORE.SYSTEM.CONST>
0

>  <SCORE.SYSTEM.DIHEDRAL>
5.43413

>  <SCORE.SYSTEM.POLAR>
-3.43458

>  <SCORE.SYSTEM.SOLV>
0.538085

>  <SCORE.SYSTEM.VDW>
-4.81529

>  <SCORE.SYSTEM.norm>
-1.94634

>  <SCORE.heavy>
11

>  <SCORE.norm>
-4.81243

$$$$
P156238498
 OpenBabel12072022103D
libRbt.so/2013.1/901 2013/11/27
 13 13  0  0  0  0  0  0  0  0999 V2000
   17.2986  -19.0105    1.1535 H   0  0  0  0  0  0  0  0  0  0  0  0
   18.1531  -18.8779    1.7058 N   0  0  0  0  0  0  0  0  0  0  0  0
   18.4529  -17.6775    1.7927 N   0  0  0  0  0  0  0  0  0  0  0  0
   19.5796  -17.6476    2.5191 N   0  0  0  0  0  0  0  0  0  0  0  0
   19.5523  -18.0809    3.8617 C   0  0  0  0  0  0  0  0  0  0  0  0
   18.9374  -19.2929    4.2190 C   0  0  0  0  0  0  0  0  0  0  0  0
   18.8441  -19.6952    5.5550 C   0  0  0  0  0  0  0  0  0  0  0  0
   19.3497  -18.8843    6.5666 C   0  0  0  0  0  0  0  0  0  0  0  0
   19.9466  -17.6670    6.2444 C   0  0  0  0  0  0  0  0  0  0  0  0
   20.0421  -17.2659    4.9027 C   0  0  0  0  0  0  0  0  0  0  0  0
   20.7014  -15.9670    4.6314 C   0  0  0  0  0  0  0  0  0  0  0  0
   20.9051  -15.5517    3.4960 O   0  0  0  0  0  0  0  0  0  0  0  0
   20.4411  -17.8813    2.0150 H   0  0  0  0  0  0  0  0  0  0  0  0
  1  2  1  0  0  0  0
  2  3  2  0  0  0  0
  3  4  1  0  0  0  0
  4  5  1  0  0  0  0
  4 13  1  0  0  0  0
  5  6  2  0  0  0  0
  5 10  1  0  0  0  0
  6  7  1  0  0  0  0
  7  8  2  0  0  0  0
  8  9  1  0  0  0  0
  9 10  2  0  0  0  0
 10 11  1  0  0  0  0
 11 12  2  0  0  0  0
M  END
>  <CHROM.0>
-51.98611527,-59.45502995,-54.59730730,-53.96410253,-173.94412498,-59.66007791
-58.14717389,-51.93469526,-165.48550366,161.03580740

>  <CHROM.1>
-64.27332444,47.61933061,-2.89176291,19.49710676,-17.84135149,4.04291919
1.98680284,-0.97098933,-1.16909527

>  <Name>
P156238498

>  <RI>
0

>  <Rbt.Current_Directory>
/home/fstefaniak/projects/zuza/docking/adenine/1Y26

>  <Rbt.Executable>
rbdock ($Id: //depot/dev/client3/rdock/2013.1/src/exe/rbdock.cxx#4 $)

>  <Rbt.Library>
libRbt.so (2013.1, Build901 2013/11/27)

>  <Rbt.Parameter_File>
/home/fstefaniak/progs/rDock//data/scripts/dock_solv.prm

>  <Rbt.Receptor>
1y26.prm

>  <SCORE>
-52.7576

>  <SCORE.INTER>
-31.191

>  <SCORE.INTER.CONST>
1

>  <SCORE.INTER.POLAR>
-3.01588

>  <SCORE.INTER.ROT>
3

>  <SCORE.INTER.SOLV>
11.2852

>  <SCORE.INTER.VDW>
-20.1028

>  <SCORE.INTER.norm>
-2.83555

>  <SCORE.INTRA>
0.567139

>  <SCORE.INTRA.DIHEDRAL>
-0.504464

>  <SCORE.INTRA.DIHEDRAL.0>
1.08068

>  <SCORE.INTRA.POLAR>
0.0321666

>  <SCORE.INTRA.POLAR.0>
-0.0321666

>  <SCORE.INTRA.REPUL>
0

>  <SCORE.INTRA.REPUL.0>
0

>  <SCORE.INTRA.SOLV>
0.117906

>  <SCORE.INTRA.SOLV.lig_0>
-10.7482

>  <SCORE.INTRA.VDW>
0.651052

>  <SCORE.INTRA.VDW.0>
-0.336416

>  <SCORE.INTRA.norm>
0.0515581

>  <SCORE.RESTR>
0

>  <SCORE.RESTR.CAVITY>
0

>  <SCORE.RESTR.norm>
0

>  <SCORE.SYSTEM>
-22.1337

>  <SCORE.SYSTEM.CONST>
0

>  <SCORE.SYSTEM.DIHEDRAL>
5.60778

>  <SCORE.SYSTEM.POLAR>
-3.42755

>  <SCORE.SYSTEM.SOLV>
0.498873

>  <SCORE.SYSTEM.VDW>
-5.36617

>  <SCORE.SYSTEM.norm>
-2.01215

>  <SCORE.heavy>
11

>  <SCORE.norm>
-4.79614

$$$$
P156238498
 OpenBabel12072022103D
libRbt.so/2013.1/901 2013/11/27
 13 13  0  0  0  0  0  0  0  0999 V2000
   17.2885  -18.9887    1.1772 H   0  0  0  0  0  0  0  0  0  0  0  0
   18.1448  -18.8617    1.7281 N   0  0  0  0  0  0  0  0  0  0  0  0
   18.4539  -17.6635    1.8126 N   0  0  0  0  0  0  0  0  0  0  0  0
   19.5818  -17.6410    2.5373 N   0  0  0  0  0  0  0  0  0  0  0  0
   19.5581  -18.0939    3.8735 C   0  0  0  0  0  0  0  0  0  0  0  0
   18.9790  -19.3295    4.2092 C   0  0  0  0  0  0  0  0  0  0  0  0
   18.8885  -19.7534    5.5386 C   0  0  0  0  0  0  0  0  0  0  0  0
   19.3608  -18.9415    6.5654 C   0  0  0  0  0  0  0  0  0  0  0  0
   19.9215  -17.7016    6.2648 C   0  0  0  0  0  0  0  0  0  0  0  0
   20.0144  -17.2788    4.9296 C   0  0  0  0  0  0  0  0  0  0  0  0
   20.6346  -15.9562    4.6816 C   0  0  0  0  0  0  0  0  0  0  0  0
   20.8303  -15.5172    3.5538 O   0  0  0  0  0  0  0  0  0  0  0  0
   20.4430  -17.8650    2.0284 H   0  0  0  0  0  0  0  0  0  0  0  0
  1  2  1  0  0  0  0
  2  3  2  0  0  0  0
  3  4  1  0  0  0  0
  4  5  1  0  0  0  0
  4 13  1  0  0  0  0
  5  6  2  0  0  0  0
  5 10  1  0  0  0  0
  6  7  1  0  0  0  0
  7  8  2  0  0  0  0
  8  9  1  0  0  0  0
  9 10  2  0  0  0  0
 10 11  1  0  0  0  0
 11 12  2  0  0  0  0
M  END
>  <CHROM.0>
-48.67043923,-61.97266614,-50.64877522,-49.03947905,-56.06896037,-57.69580646
-58.17146830,-48.10275888,-167.34174147,160.58817609

>  <CHROM.1>
-63.17241075,49.34452106,-2.69761689,19.48722788,-17.85136505,4.06192160
1.98940524,-0.99479831,-1.13418813

>  <Name>
P156238498

>  <RI>
0

>  <Rbt.Current_Directory>
/home/fstefaniak/projects/zuza/docking/adenine/1Y26

>  <Rbt.Executable>
rbdock ($Id: //depot/dev/client3/rdock/2013.1/src/exe/rbdock.cxx#4 $)

>  <Rbt.Library>
libRbt.so (2013.1, Build901 2013/11/27)

>  <Rbt.Parameter_File>
/home/fstefaniak/progs/rDock//data/scripts/dock_solv.prm

>  <Rbt.Receptor>
1y26.prm

>  <SCORE>
-52.6389

>  <SCORE.INTER>
-31.1231

>  <SCORE.INTER.CONST>
1

>  <SCORE.INTER.POLAR>
-3.00413

>  <SCORE.INTER.ROT>
3

>  <SCORE.INTER.SOLV>
11.3686

>  <SCORE.INTER.VDW>
-20.1245

>  <SCORE.INTER.norm>
-2.82937

>  <SCORE.INTRA>
0.601425

>  <SCORE.INTRA.DIHEDRAL>
-0.499733

>  <SCORE.INTRA.DIHEDRAL.0>
1.08068

>  <SCORE.INTRA.POLAR>
0.0321666

>  <SCORE.INTRA.POLAR.0>
-0.0321666

>  <SCORE.INTRA.REPUL>
0

>  <SCORE.INTRA.REPUL.0>
0

>  <SCORE.INTRA.SOLV>
0.120985

>  <SCORE.INTRA.SOLV.lig_0>
-10.7482

>  <SCORE.INTRA.VDW>
0.681432

>  <SCORE.INTRA.VDW.0>
-0.336416

>  <SCORE.INTRA.norm>
0.054675

>  <SCORE.RESTR>
0

>  <SCORE.RESTR.CAVITY>
0

>  <SCORE.RESTR.norm>
0

>  <SCORE.SYSTEM>
-22.1173

>  <SCORE.SYSTEM.CONST>
0

>  <SCORE.SYSTEM.DIHEDRAL>
6.6733

>  <SCORE.SYSTEM.POLAR>
-3.62541

>  <SCORE.SYSTEM.SOLV>
0.686537

>  <SCORE.SYSTEM.VDW>
-5.11342

>  <SCORE.SYSTEM.norm>
-2.01066

>  <SCORE.heavy>
11

>  <SCORE.norm>
-4.78536

$$$$
P156243627
 OpenBabel12072022103D
libRbt.so/2013.1/901 2013/11/27
 14 13  0  0  0  0  0  0  0  0999 V2000
   24.3857  -16.3908    4.3643 C   0  0  0  0  0  0  0  0  0  0  0  0
   23.1226  -17.0117    3.8243 C   0  0  0  0  0  0  0  0  0  0  0  0
   23.0923  -17.5026    2.7005 O   0  0  0  0  0  0  0  0  0  0  0  0
   22.0851  -17.0156    4.7337 N   0  0  0  0  0  0  0  0  0  0  0  0
   20.7784  -17.4870    4.5906 C   0  0  0  0  0  0  0  0  0  0  0  0
   20.1425  -17.7882    3.4329 C   0  0  0  0  0  0  0  0  0  0  0  0
   18.7361  -18.3637    3.4684 C   0  0  0  0  0  0  0  0  0  0  0  0
   17.5694  -18.8411    3.4978 N   0  0  0  0  0  0  0  0  0  0  0  0
   20.5909  -17.6493    2.1274 N   0  0  0  0  0  0  0  0  0  0  0  0
   20.0756  -17.6184    5.8383 C   0  0  0  0  0  0  0  0  0  0  0  0
   19.5721  -17.6973    6.8800 N   0  0  0  0  0  0  0  0  0  0  0  0
   22.3380  -16.7439    5.6808 H   0  0  0  0  0  0  0  0  0  0  0  0
   21.4647  -18.1637    1.9525 H   0  0  0  0  0  0  0  0  0  0  0  0
   19.8956  -17.8797    1.4195 H   0  0  0  0  0  0  0  0  0  0  0  0
  1  2  1  0  0  0  0
  2  3  2  0  0  0  0
  2  4  1  0  0  0  0
  4  5  1  0  0  0  0
  4 12  1  0  0  0  0
  5  6  2  0  0  0  0
  5 10  1  0  0  0  0
  6  7  1  0  0  0  0
  6  9  1  0  0  0  0
  7  8  3  0  0  0  0
  9 13  1  0  0  0  0
  9 14  1  0  0  0  0
 10 11  3  0  0  0  0
M  END
>  <CHROM.0>
-50.22729166,-62.23993289,-54.30415095,-51.35549570,-56.80339983,-61.03042880
-59.94995696,-177.58385207,-166.45686902,160.23658031

>  <CHROM.1>
57.56349713,21.00491536,-17.56490919,4.08616011,-0.04013936,0.29366936,1.43363882

>  <Name>
P156243627

>  <RI>
0

>  <Rbt.Current_Directory>
/home/fstefaniak/projects/zuza/docking/adenine/1Y26

>  <Rbt.Executable>
rbdock ($Id: //depot/dev/client3/rdock/2013.1/src/exe/rbdock.cxx#4 $)

>  <Rbt.Library>
libRbt.so (2013.1, Build901 2013/11/27)

>  <Rbt.Parameter_File>
/home/fstefaniak/progs/rDock//data/scripts/dock_solv.prm

>  <Rbt.Receptor>
1y26.prm

>  <SCORE>
-41.8967

>  <SCORE.INTER>
-19.8418

>  <SCORE.INTER.CONST>
1

>  <SCORE.INTER.POLAR>
-3.24573

>  <SCORE.INTER.ROT>
1

>  <SCORE.INTER.SOLV>
15.1839

>  <SCORE.INTER.VDW>
-11.7367

>  <SCORE.INTER.norm>
-1.8038

>  <SCORE.INTRA>
0.664204

>  <SCORE.INTRA.DIHEDRAL>
-0.000338102

>  <SCORE.INTRA.DIHEDRAL.0>
0.48032

>  <SCORE.INTRA.POLAR>
0.263108

>  <SCORE.INTRA.POLAR.0>
-0.642366

>  <SCORE.INTRA.REPUL>
0

>  <SCORE.INTRA.REPUL.0>
0

>  <SCORE.INTRA.SOLV>
-0.109023

>  <SCORE.INTRA.SOLV.lig_0>
-21.2795

>  <SCORE.INTRA.VDW>
-0.175681

>  <SCORE.INTRA.VDW.0>
0.0596453

>  <SCORE.INTRA.norm>
0.0603822

>  <SCORE.RESTR>
0

>  <SCORE.RESTR.CAVITY>
0

>  <SCORE.RESTR.norm>
0

>  <SCORE.SYSTEM>
-22.7191

>  <SCORE.SYSTEM.CONST>
0

>  <SCORE.SYSTEM.DIHEDRAL>
5.56566

>  <SCORE.SYSTEM.POLAR>
-3.4902

>  <SCORE.SYSTEM.SOLV>
0.451604

>  <SCORE.SYSTEM.VDW>
-5.51784

>  <SCORE.SYSTEM.norm>
-2.06538

>  <SCORE.heavy>
11

>  <SCORE.norm>
-3.80879

$$$$
P156243627
 OpenBabel12072022103D
libRbt.so/2013.1/901 2013/11/27
 14 13  0  0  0  0  0  0  0  0999 V2000
   24.3917  -16.3981    4.3733 C   0  0  0  0  0  0  0  0  0  0  0  0
   23.1268  -17.0151    3.8329 C   0  0  0  0  0  0  0  0  0  0  0  0
   23.0937  -17.5005    2.7068 O   0  0  0  0  0  0  0  0  0  0  0  0
   22.0913  -17.0226    4.7445 N   0  0  0  0  0  0  0  0  0  0  0  0
   20.7838  -17.4920    4.6017 C   0  0  0  0  0  0  0  0  0  0  0  0
   20.1452  -17.7868    3.4439 C   0  0  0  0  0  0  0  0  0  0  0  0
   18.7384  -18.3612    3.4795 C   0  0  0  0  0  0  0  0  0  0  0  0
   17.5712  -18.8377    3.5090 N   0  0  0  0  0  0  0  0  0  0  0  0
   20.5910  -17.6419    2.1382 N   0  0  0  0  0  0  0  0  0  0  0  0
   20.0836  -17.6289    5.8503 C   0  0  0  0  0  0  0  0  0  0  0  0
   19.5821  -17.7126    6.8926 N   0  0  0  0  0  0  0  0  0  0  0  0
   22.3465  -16.7558    5.6924 H   0  0  0  0  0  0  0  0  0  0  0  0
   21.4704  -18.1465    1.9622 H   0  0  0  0  0  0  0  0  0  0  0  0
   19.8978  -17.8794    1.4306 H   0  0  0  0  0  0  0  0  0  0  0  0
  1  2  1  0  0  0  0
  2  3  2  0  0  0  0
  2  4  1  0  0  0  0
  4  5  1  0  0  0  0
  4 12  1  0  0  0  0
  5  6  2  0  0  0  0
  5 10  1  0  0  0  0
  6  7  1  0  0  0  0
  6  9  1  0  0  0  0
  7  8  3  0  0  0  0
  9 13  1  0  0  0  0
  9 14  1  0  0  0  0
 10 11  3  0  0  0  0
M  END
>  <CHROM.0>
-48.29599921,-62.06070729,-50.86038051,-51.97155875,-55.74071514,-59.12494987
-60.03118296,-52.26661233,-167.50960986,160.14514370

>  <CHROM.1>
56.83182819,21.00928639,-17.56763776,4.09647850,-0.04246878,0.29303620,1.43920017

>  <Name>
P156243627

>  <RI>
0

>  <Rbt.Current_Directory>
/home/fstefaniak/projects/zuza/docking/adenine/1Y26

>  <Rbt.Executable>
rbdock ($Id: //depot/dev/client3/rdock/2013.1/src/exe/rbdock.cxx#4 $)

>  <Rbt.Library>
libRbt.so (2013.1, Build901 2013/11/27)

>  <Rbt.Parameter_File>
/home/fstefaniak/progs/rDock//data/scripts/dock_solv.prm

>  <Rbt.Receptor>
1y26.prm

>  <SCORE>
-41.4522

>  <SCORE.INTER>
-19.8221

>  <SCORE.INTER.CONST>
1

>  <SCORE.INTER.POLAR>
-3.2616

>  <SCORE.INTER.ROT>
1

>  <SCORE.INTER.SOLV>
15.202

>  <SCORE.INTER.VDW>
-11.6767

>  <SCORE.INTER.norm>
-1.80201

>  <SCORE.INTRA>
0.612838

>  <SCORE.INTRA.DIHEDRAL>
-0.000325399

>  <SCORE.INTRA.DIHEDRAL.0>
0.48032

>  <SCORE.INTRA.POLAR>
0.246845

>  <SCORE.INTRA.POLAR.0>
-0.642366

>  <SCORE.INTRA.REPUL>
0

>  <SCORE.INTRA.REPUL.0>
0

>  <SCORE.INTRA.SOLV>
-0.105938

>  <SCORE.INTRA.SOLV.lig_0>
-21.2795

>  <SCORE.INTRA.VDW>
-0.173305

>  <SCORE.INTRA.VDW.0>
0.0596453

>  <SCORE.INTRA.norm>
0.0557125

>  <SCORE.RESTR>
0

>  <SCORE.RESTR.CAVITY>
0

>  <SCORE.RESTR.norm>
0

>  <SCORE.SYSTEM>
-22.243

>  <SCORE.SYSTEM.CONST>
0

>  <SCORE.SYSTEM.DIHEDRAL>
6.11758

>  <SCORE.SYSTEM.POLAR>
-3.55191

>  <SCORE.SYSTEM.SOLV>
0.67268

>  <SCORE.SYSTEM.VDW>
-5.25236

>  <SCORE.SYSTEM.norm>
-2.02209

>  <SCORE.heavy>
11

>  <SCORE.norm>
-3.76838

$$$$
P156243627
 OpenBabel12072022103D
libRbt.so/2013.1/901 2013/11/27
 14 13  0  0  0  0  0  0  0  0999 V2000
   24.3779  -16.3807    4.3484 C   0  0  0  0  0  0  0  0  0  0  0  0
   23.1114  -17.0065    3.8221 C   0  0  0  0  0  0  0  0  0  0  0  0
   23.0717  -17.5005    2.6999 O   0  0  0  0  0  0  0  0  0  0  0  0
   22.0827  -17.0109    4.7413 N   0  0  0  0  0  0  0  0  0  0  0  0
   20.7760  -17.4863    4.6119 C   0  0  0  0  0  0  0  0  0  0  0  0
   20.1299  -17.7923    3.4612 C   0  0  0  0  0  0  0  0  0  0  0  0
   18.7255  -18.3716    3.5116 C   0  0  0  0  0  0  0  0  0  0  0  0
   17.5605  -18.8522    3.5534 N   0  0  0  0  0  0  0  0  0  0  0  0
   20.5654  -17.6556    2.1511 N   0  0  0  0  0  0  0  0  0  0  0  0
   20.0855  -17.6164    5.8667 C   0  0  0  0  0  0  0  0  0  0  0  0
   19.5922  -17.6940    6.9133 N   0  0  0  0  0  0  0  0  0  0  0  0
   22.3439  -16.7360    5.6853 H   0  0  0  0  0  0  0  0  0  0  0  0
   21.4479  -18.1541    1.9736 H   0  0  0  0  0  0  0  0  0  0  0  0
   19.8694  -17.9056    1.4506 H   0  0  0  0  0  0  0  0  0  0  0  0
  1  2  1  0  0  0  0
  2  3  2  0  0  0  0
  2  4  1  0  0  0  0
  4  5  1  0  0  0  0
  4 12  1  0  0  0  0
  5  6  2  0  0  0  0
  5 10  1  0  0  0  0
  6  7  1  0  0  0  0
  6  9  1  0  0  0  0
  7  8  3  0  0  0  0
  9 13  1  0  0  0  0
  9 14  1  0  0  0  0
 10 11  3  0  0  0  0
M  END
>  <CHROM.0>
-46.93006655,-61.57326125,-53.10013543,-53.17249485,-57.49618008,-175.56197422
-62.10866610,-57.72758576,-167.93623346,160.57287973

>  <CHROM.1>
56.53196792,20.99798194,-17.56490904,4.10560594,-0.04966831,0.29776417,1.43371056

>  <Name>
P156243627

>  <RI>
0

>  <Rbt.Current_Directory>
/home/fstefaniak/projects/zuza/docking/adenine/1Y26

>  <Rbt.Executable>
rbdock ($Id: //depot/dev/client3/rdock/2013.1/src/exe/rbdock.cxx#4 $)

>  <Rbt.Library>
libRbt.so (2013.1, Build901 2013/11/27)

>  <Rbt.Parameter_File>
/home/fstefaniak/progs/rDock//data/scripts/dock_solv.prm

>  <Rbt.Receptor>
1y26.prm

>  <SCORE>
-41.1977

>  <SCORE.INTER>
-19.7923

>  <SCORE.INTER.CONST>
1

>  <SCORE.INTER.POLAR>
-3.20028

>  <SCORE.INTER.ROT>
1

>  <SCORE.INTER.SOLV>
15.1625

>  <SCORE.INTER.VDW>
-11.8481

>  <SCORE.INTER.norm>
-1.7993

>  <SCORE.INTRA>
0.591719

>  <SCORE.INTRA.DIHEDRAL>
-0.000320189

>  <SCORE.INTRA.DIHEDRAL.0>
0.48032

>  <SCORE.INTRA.POLAR>
0.240165

>  <SCORE.INTRA.POLAR.0>
-0.642366

>  <SCORE.INTRA.REPUL>
0

>  <SCORE.INTRA.REPUL.0>
0

>  <SCORE.INTRA.SOLV>
-0.104684

>  <SCORE.INTRA.SOLV.lig_0>
-21.2795

>  <SCORE.INTRA.VDW>
-0.172339

>  <SCORE.INTRA.VDW.0>
0.0596453

>  <SCORE.INTRA.norm>
0.0537927

>  <SCORE.RESTR>
0

>  <SCORE.RESTR.CAVITY>
0

>  <SCORE.RESTR.norm>
0

>  <SCORE.SYSTEM>
-21.9972

>  <SCORE.SYSTEM.CONST>
0

>  <SCORE.SYSTEM.DIHEDRAL>
5.71968

>  <SCORE.SYSTEM.POLAR>
-3.49573

>  <SCORE.SYSTEM.SOLV>
0.515627

>  <SCORE.SYSTEM.VDW>
-5.09079

>  <SCORE.SYSTEM.norm>
-1.99974

>  <SCORE.heavy>
11

>  <SCORE.norm>
-3.74525

$$$$
P156251492
 OpenBabel12072022103D
libRbt.so/2013.1/901 2013/11/27
 14 13  0  0  0  0  0  0  0  0999 V2000
   22.7433  -19.1968    0.9528 C   0  0  0  0  0  0  0  0  0  0  0  0
   22.0421  -18.6478    1.9548 N   0  3  0  0  0  0  0  0  0  0  0  0
   22.3964  -18.5883    2.8980 H   0  0  0  0  0  0  0  0  0  0  0  0
   21.1778  -18.1725    1.7237 H   0  0  0  0  0  0  0  0  0  0  0  0
   23.9653  -19.6927    1.1947 N   0  0  0  0  0  0  0  0  0  0  0  0
   22.1985  -19.2527   -0.3485 N   0  0  0  0  0  0  0  0  0  0  0  0
   23.0143  -19.5880   -1.4092 N   0  0  0  0  0  0  0  0  0  0  0  0
   20.8609  -18.9701   -0.5342 N   0  0  0  0  0  0  0  0  0  0  0  0
   24.3888  -19.6727    2.1106 H   0  0  0  0  0  0  0  0  0  0  0  0
   24.4221  -20.2101    0.4531 H   0  0  0  0  0  0  0  0  0  0  0  0
   23.1044  -20.6074   -1.4593 H   0  0  0  0  0  0  0  0  0  0  0  0
   23.9538  -19.2234   -1.2366 H   0  0  0  0  0  0  0  0  0  0  0  0
   20.7286  -17.9544   -0.5580 H   0  0  0  0  0  0  0  0  0  0  0  0
   20.3325  -19.3110    0.2720 H   0  0  0  0  0  0  0  0  0  0  0  0
  1  2  2  0  0  0  0
  1  5  1  0  0  0  0
  1  6  1  0  0  0  0
  2  3  1  0  0  0  0
  2  4  1  0  0  0  0
  5  9  1  0  0  0  0
  5 10  1  0  0  0  0
  6  7  1  0  0  0  0
  6  8  1  0  0  0  0
  7 11  1  0  0  0  0
  7 12  1  0  0  0  0
  8 13  1  0  0  0  0
  8 14  1  0  0  0  0
M  CHG  1   2   1
M  END
>  <CHROM.0>
-47.50825295,61.82641421,-46.92982385,-48.15848260,-52.57100966,-168.94421081
-60.37983846,-52.16480694,-167.24186346,161.51077003

>  <CHROM.1>
82.17101333,80.87548176,22.47294888,-19.22464966,0.30733804,1.15024219,-0.33148718
1.38324437

>  <Name>
P156251492

>  <RI>
0

>  <Rbt.Current_Directory>
/home/fstefaniak/projects/zuza/docking/adenine/1Y26

>  <Rbt.Executable>
rbdock ($Id: //depot/dev/client3/rdock/2013.1/src/exe/rbdock.cxx#4 $)

>  <Rbt.Library>
libRbt.so (2013.1, Build901 2013/11/27)

>  <Rbt.Parameter_File>
/home/fstefaniak/progs/rDock//data/scripts/dock_solv.prm

>  <Rbt.Receptor>
1y26.prm

>  <SCORE>
-50.5845

>  <SCORE.INTER>
-30.3423

>  <SCORE.INTER.CONST>
1

>  <SCORE.INTER.POLAR>
-6.87179

>  <SCORE.INTER.ROT>
2

>  <SCORE.INTER.SOLV>
20.534

>  <SCORE.INTER.VDW>
-9.10024

>  <SCORE.INTER.norm>
-5.05705

>  <SCORE.INTRA>
0.657111

>  <SCORE.INTRA.DIHEDRAL>
1.39176e-05

>  <SCORE.INTRA.DIHEDRAL.0>
1.6

>  <SCORE.INTRA.POLAR>
0

>  <SCORE.INTRA.POLAR.0>
0

>  <SCORE.INTRA.REPUL>
0

>  <SCORE.INTRA.REPUL.0>
0

>  <SCORE.INTRA.SOLV>
0.727524

>  <SCORE.INTRA.SOLV.lig_0>
-34.2898

>  <SCORE.INTRA.VDW>
0.293342

>  <SCORE.INTRA.VDW.0>
-0.316297

>  <SCORE.INTRA.norm>
0.109518

>  <SCORE.RESTR>
0

>  <SCORE.RESTR.CAVITY>
0

>  <SCORE.RESTR.norm>
0

>  <SCORE.SYSTEM>
-20.8993

>  <SCORE.SYSTEM.CONST>
0

>  <SCORE.SYSTEM.DIHEDRAL>
7.45514

>  <SCORE.SYSTEM.POLAR>
-3.63223

>  <SCORE.SYSTEM.SOLV>
0.576254

>  <SCORE.SYSTEM.VDW>
-4.50253

>  <SCORE.SYSTEM.norm>
-3.48321

>  <SCORE.heavy>
6

>  <SCORE.norm>
-8.43075

$$$$
P156251492
 OpenBabel12072022103D
libRbt.so/2013.1/901 2013/11/27
 14 13  0  0  0  0  0  0  0  0999 V2000
   22.4629  -19.3292    0.2124 C   0  0  0  0  0  0  0  0  0  0  0  0
   22.9019  -19.9202   -0.9080 N   0  3  0  0  0  0  0  0  0  0  0  0
   22.3725  -19.9186   -1.7672 H   0  0  0  0  0  0  0  0  0  0  0  0
   23.8508  -20.2750   -0.9161 H   0  0  0  0  0  0  0  0  0  0  0  0
   21.2751  -18.7073    0.2104 N   0  0  0  0  0  0  0  0  0  0  0  0
   23.2462  -19.3616    1.3866 N   0  0  0  0  0  0  0  0  0  0  0  0
   22.9064  -18.5493    2.4486 N   0  0  0  0  0  0  0  0  0  0  0  0
   24.3366  -20.2045    1.4490 N   0  0  0  0  0  0  0  0  0  0  0  0
   20.6857  -18.6632   -0.6078 H   0  0  0  0  0  0  0  0  0  0  0  0
   20.9116  -18.3771    1.0965 H   0  0  0  0  0  0  0  0  0  0  0  0
   23.7097  -17.9650    2.6999 H   0  0  0  0  0  0  0  0  0  0  0  0
   22.7070  -19.1321    3.2647 H   0  0  0  0  0  0  0  0  0  0  0  0
   24.8956  -20.1002    0.5966 H   0  0  0  0  0  0  0  0  0  0  0  0
   24.0096  -21.1731    1.4627 H   0  0  0  0  0  0  0  0  0  0  0  0
  1  2  2  0  0  0  0
  1  5  1  0  0  0  0
  1  6  1  0  0  0  0
  2  3  1  0  0  0  0
  2  4  1  0  0  0  0
  5  9  1  0  0  0  0
  5 10  1  0  0  0  0
  6  7  1  0  0  0  0
  6  8  1  0  0  0  0
  7 11  1  0  0  0  0
  7 12  1  0  0  0  0
  8 13  1  0  0  0  0
  8 14  1  0  0  0  0
M  CHG  1   2   1
M  END
>  <CHROM.0>
-43.32703588,-61.25093028,-50.75285908,-52.40941023,-56.64444950,-33.28383490
-55.40613212,-176.40085081,-168.75161614,160.82420354

>  <CHROM.1>
-124.29553938,47.65419898,22.86693582,-19.35510461,0.80646980,2.24724084
0.54030915,-1.95151810

>  <Name>
P156251492

>  <RI>
0

>  <Rbt.Current_Directory>
/home/fstefaniak/projects/zuza/docking/adenine/1Y26

>  <Rbt.Executable>
rbdock ($Id: //depot/dev/client3/rdock/2013.1/src/exe/rbdock.cxx#4 $)

>  <Rbt.Library>
libRbt.so (2013.1, Build901 2013/11/27)

>  <Rbt.Parameter_File>
/home/fstefaniak/progs/rDock//data/scripts/dock_solv.prm

>  <Rbt.Receptor>
1y26.prm

>  <SCORE>
-50.4907

>  <SCORE.INTER>
-29.5856

>  <SCORE.INTER.CONST>
1

>  <SCORE.INTER.POLAR>
-6.42005

>  <SCORE.INTER.ROT>
2

>  <SCORE.INTER.SOLV>
21.4757

>  <SCORE.INTER.VDW>
-10.4155

>  <SCORE.INTER.norm>
-4.93094

>  <SCORE.INTRA>
0.589483

>  <SCORE.INTRA.DIHEDRAL>
0.000450314

>  <SCORE.INTRA.DIHEDRAL.0>
1.6

>  <SCORE.INTRA.POLAR>
0

>  <SCORE.INTRA.POLAR.0>
0

>  <SCORE.INTRA.REPUL>
0

>  <SCORE.INTRA.REPUL.0>
0

>  <SCORE.INTRA.SOLV>
0.172854

>  <SCORE.INTRA.SOLV.lig_0>
-34.2898

>  <SCORE.INTRA.VDW>
0.502831

>  <SCORE.INTRA.VDW.0>
-0.316297

>  <SCORE.INTRA.norm>
0.0982472

>  <SCORE.RESTR>
0

>  <SCORE.RESTR.CAVITY>
0

>  <SCORE.RESTR.norm>
0

>  <SCORE.SYSTEM>
-21.4946

>  <SCORE.SYSTEM.CONST>
0

>  <SCORE.SYSTEM.DIHEDRAL>
9.08849

>  <SCORE.SYSTEM.POLAR>
-3.73687

>  <SCORE.SYSTEM.SOLV>
0.496651

>  <SCORE.SYSTEM.VDW>
-5.06852

>  <SCORE.SYSTEM.norm>
-3.58243

>  <SCORE.heavy>
6

>  <SCORE.norm>
-8.41511

$$$$
P156251492
 OpenBabel12072022103D
libRbt.so/2013.1/901 2013/11/27
 14 13  0  0  0  0  0  0  0  0999 V2000
   22.4580  -19.3209    0.2463 C   0  0  0  0  0  0  0  0  0  0  0  0
   21.2646  -18.7103    0.2605 N   0  3  0  0  0  0  0  0  0  0  0  0
   20.6633  -18.6724   -0.5492 H   0  0  0  0  0  0  0  0  0  0  0  0
   20.9108  -18.3819    1.1511 H   0  0  0  0  0  0  0  0  0  0  0  0
   22.8868  -19.9091   -0.8797 N   0  0  0  0  0  0  0  0  0  0  0  0
   23.2581  -19.3441    1.4093 N   0  0  0  0  0  0  0  0  0  0  0  0
   24.3569  -20.1768    1.4576 N   0  0  0  0  0  0  0  0  0  0  0  0
   22.9253  -18.5340    2.4753 N   0  0  0  0  0  0  0  0  0  0  0  0
   22.3451  -19.9132   -1.7313 H   0  0  0  0  0  0  0  0  0  0  0  0
   23.8389  -20.2544   -0.9010 H   0  0  0  0  0  0  0  0  0  0  0  0
   24.8901  -20.0865    0.5873 H   0  0  0  0  0  0  0  0  0  0  0  0
   24.0389  -21.1476    1.5017 H   0  0  0  0  0  0  0  0  0  0  0  0
   23.7513  -18.0043    2.7702 H   0  0  0  0  0  0  0  0  0  0  0  0
   22.6597  -19.1201    3.2700 H   0  0  0  0  0  0  0  0  0  0  0  0
  1  2  2  0  0  0  0
  1  5  1  0  0  0  0
  1  6  1  0  0  0  0
  2  3  1  0  0  0  0
  2  4  1  0  0  0  0
  5  9  1  0  0  0  0
  5 10  1  0  0  0  0
  6  7  1  0  0  0  0
  6  8  1  0  0  0  0
  7 11  1  0  0  0  0
  7 12  1  0  0  0  0
  8 13  1  0  0  0  0
  8 14  1  0  0  0  0
M  CHG  1   2   1
M  END
>  <CHROM.0>
-47.46604904,-174.47639441,-52.10207529,-49.55350912,-53.23636848,-38.71093741
-59.36559250,-51.31178075,-166.16287628,160.15504147

>  <CHROM.1>
46.24470800,-129.49144428,22.86974979,-19.34307571,0.83520895,2.25667355
0.52580358,-1.95629598

>  <Name>
P156251492

>  <RI>
0

>  <Rbt.Current_Directory>
/home/fstefaniak/projects/zuza/docking/adenine/1Y26

>  <Rbt.Executable>
rbdock ($Id: //depot/dev/client3/rdock/2013.1/src/exe/rbdock.cxx#4 $)

>  <Rbt.Library>
libRbt.so (2013.1, Build901 2013/11/27)

>  <Rbt.Parameter_File>
/home/fstefaniak/progs/rDock//data/scripts/dock_solv.prm

>  <Rbt.Receptor>
1y26.prm

>  <SCORE>
-50.3719

>  <SCORE.INTER>
-29.3988

>  <SCORE.INTER.CONST>
1

>  <SCORE.INTER.POLAR>
-6.32896

>  <SCORE.INTER.ROT>
2

>  <SCORE.INTER.SOLV>
21.3759

>  <SCORE.INTER.VDW>
-10.5613

>  <SCORE.INTER.norm>
-4.8998

>  <SCORE.INTRA>
0.699593

>  <SCORE.INTRA.DIHEDRAL>
-0.000684419

>  <SCORE.INTRA.DIHEDRAL.0>
1.6

>  <SCORE.INTRA.POLAR>
0

>  <SCORE.INTRA.POLAR.0>
0

>  <SCORE.INTRA.REPUL>
0

>  <SCORE.INTRA.REPUL.0>
0

>  <SCORE.INTRA.SOLV>
0.182818

>  <SCORE.INTRA.SOLV.lig_0>
-34.2898

>  <SCORE.INTRA.VDW>
0.608526

>  <SCORE.INTRA.VDW.0>
-0.316297

>  <SCORE.INTRA.norm>
0.116599

>  <SCORE.RESTR>
0

>  <SCORE.RESTR.CAVITY>
0

>  <SCORE.RESTR.norm>
0

>  <SCORE.SYSTEM>
-21.6727

>  <SCORE.SYSTEM.CONST>
0

>  <SCORE.SYSTEM.DIHEDRAL>
8.62933

>  <SCORE.SYSTEM.POLAR>
-3.7544

>  <SCORE.SYSTEM.SOLV>
0.63902

>  <SCORE.SYSTEM.VDW>
-5.02326

>  <SCORE.SYSTEM.norm>
-3.61212

>  <SCORE.heavy>
6

>  <SCORE.norm>
-8.39532

$$$$
P156450664
 OpenBabel12072022103D
libRbt.so/2013.1/901 2013/11/27
 17 17  0  0  0  0  0  0  0  0999 V2000
   23.6704  -14.6043    4.7739 C   0  0  0  0  0  0  0  0  0  0  0  0
   23.7056  -15.9960    4.6955 C   0  0  0  0  0  0  0  0  0  0  0  0
   22.5340  -16.7106    4.4368 C   0  0  0  0  0  0  0  0  0  0  0  0
   21.3188  -16.0348    4.2562 C   0  0  0  0  0  0  0  0  0  0  0  0
   21.2919  -14.6357    4.3361 C   0  0  0  0  0  0  0  0  0  0  0  0
   22.4662  -13.9243    4.5946 C   0  0  0  0  0  0  0  0  0  0  0  0
   20.0806  -16.8236    3.9743 C   0  0  0  0  0  0  0  0  0  0  0  0
   19.4951  -16.6642    2.9052 O   0  0  0  0  0  0  0  0  0  0  0  0
   19.6952  -17.7061    4.9573 N   0  0  0  0  0  0  0  0  0  0  0  0
   18.6397  -18.4347    4.7717 C   0  0  0  0  0  0  0  0  0  0  0  0
   17.8045  -18.4449    3.6960 N   0  0  0  0  0  0  0  0  0  0  0  0
   18.2202  -19.3463    5.7131 N   0  0  0  0  0  0  0  0  0  0  0  0
   16.9757  -19.0246    6.2771 O   0  0  0  0  0  0  0  0  0  0  0  0
   17.0352  -17.7792    3.8184 H   0  0  0  0  0  0  0  0  0  0  0  0
   18.2795  -18.2526    2.8218 H   0  0  0  0  0  0  0  0  0  0  0  0
   18.2594  -20.3087    5.3855 H   0  0  0  0  0  0  0  0  0  0  0  0
   16.8311  -19.7600    6.9104 H   0  0  0  0  0  0  0  0  0  0  0  0
  1  2  2  0  0  0  0
  1  6  1  0  0  0  0
  2  3  1  0  0  0  0
  3  4  2  0  0  0  0
  4  5  1  0  0  0  0
  4  7  1  0  0  0  0
  5  6  2  0  0  0  0
  7  8  2  0  0  0  0
  7  9  1  0  0  0  0
  9 10  2  0  0  0  0
 10 11  1  0  0  0  0
 10 12  1  0  0  0  0
 11 14  1  0  0  0  0
 11 15  1  0  0  0  0
 12 13  1  0  0  0  0
 12 16  1  0  0  0  0
 13 17  1  0  0  0  0
M  END
>  <CHROM.0>
-48.07758359,-60.96931258,-49.48530589,-52.98465153,-174.12502699,-54.92932962
-52.86959192,-176.06509030,-164.61492101,162.11931758

>  <CHROM.1>
-117.23326198,-179.14008983,-90.48794155,114.90500722,179.94169705,20.29201450
-16.90427422,4.58038122,-0.47473496,0.46577334,2.24776525

>  <Name>
P156450664

>  <RI>
0

>  <Rbt.Current_Directory>
/home/fstefaniak/projects/zuza/docking/adenine/1Y26

>  <Rbt.Executable>
rbdock ($Id: //depot/dev/client3/rdock/2013.1/src/exe/rbdock.cxx#4 $)

>  <Rbt.Library>
libRbt.so (2013.1, Build901 2013/11/27)

>  <Rbt.Parameter_File>
/home/fstefaniak/progs/rDock//data/scripts/dock_solv.prm

>  <Rbt.Receptor>
1y26.prm

>  <SCORE>
-62.3279

>  <SCORE.INTER>
-41.5835

>  <SCORE.INTER.CONST>
1

>  <SCORE.INTER.POLAR>
-5.66125

>  <SCORE.INTER.ROT>
4

>  <SCORE.INTER.SOLV>
15.8745

>  <SCORE.INTER.VDW>
-20.4096

>  <SCORE.INTER.norm>
-3.19873

>  <SCORE.INTRA>
1.50046

>  <SCORE.INTRA.DIHEDRAL>
3.72241

>  <SCORE.INTRA.DIHEDRAL.0>
7.26783

>  <SCORE.INTRA.POLAR>
0.296375

>  <SCORE.INTRA.POLAR.0>
-0.296375

>  <SCORE.INTRA.REPUL>
0

>  <SCORE.INTRA.REPUL.0>
0

>  <SCORE.INTRA.SOLV>
0.143546

>  <SCORE.INTRA.SOLV.lig_0>
-22.1253

>  <SCORE.INTRA.VDW>
-1.4402

>  <SCORE.INTRA.VDW.0>
0.900418

>  <SCORE.INTRA.norm>
0.11542

>  <SCORE.RESTR>
0

>  <SCORE.RESTR.CAVITY>
0

>  <SCORE.RESTR.norm>
0

>  <SCORE.SYSTEM>
-22.2449

>  <SCORE.SYSTEM.CONST>
0

>  <SCORE.SYSTEM.DIHEDRAL>
6.46451

>  <SCORE.SYSTEM.POLAR>
-3.51469

>  <SCORE.SYSTEM.SOLV>
0.319618

>  <SCORE.SYSTEM.VDW>
-5.37566

>  <SCORE.SYSTEM.norm>
-1.71114

>  <SCORE.heavy>
13

>  <SCORE.norm>
-4.79445

$$$$
P156450664
 OpenBabel12072022103D
libRbt.so/2013.1/901 2013/11/27
 17 17  0  0  0  0  0  0  0  0999 V2000
   23.8191  -14.3822    4.7649 C   0  0  0  0  0  0  0  0  0  0  0  0
   23.9672  -15.6871    4.2965 C   0  0  0  0  0  0  0  0  0  0  0  0
   22.8408  -16.4849    4.0849 C   0  0  0  0  0  0  0  0  0  0  0  0
   21.5582  -15.9804    4.3426 C   0  0  0  0  0  0  0  0  0  0  0  0
   21.4178  -14.6674    4.8127 C   0  0  0  0  0  0  0  0  0  0  0  0
   22.5471  -13.8721    5.0228 C   0  0  0  0  0  0  0  0  0  0  0  0
   20.3689  -16.8535    4.1015 C   0  0  0  0  0  0  0  0  0  0  0  0
   19.8700  -16.8954    2.9789 O   0  0  0  0  0  0  0  0  0  0  0  0
   19.9270  -17.5772    5.1854 N   0  0  0  0  0  0  0  0  0  0  0  0
   18.9270  -18.3878    5.0366 C   0  0  0  0  0  0  0  0  0  0  0  0
   18.2025  -18.6301    3.9091 N   0  0  0  0  0  0  0  0  0  0  0  0
   18.4565  -19.1492    6.0817 N   0  0  0  0  0  0  0  0  0  0  0  0
   17.0571  -19.1332    6.1903 O   0  0  0  0  0  0  0  0  0  0  0  0
   17.3760  -18.0263    3.8633 H   0  0  0  0  0  0  0  0  0  0  0  0
   18.7433  -18.5248    3.0586 H   0  0  0  0  0  0  0  0  0  0  0  0
   18.8346  -20.0936    6.0925 H   0  0  0  0  0  0  0  0  0  0  0  0
   16.8900  -19.7888    6.9011 H   0  0  0  0  0  0  0  0  0  0  0  0
  1  2  2  0  0  0  0
  1  6  1  0  0  0  0
  2  3  1  0  0  0  0
  3  4  2  0  0  0  0
  4  5  1  0  0  0  0
  4  7  1  0  0  0  0
  5  6  2  0  0  0  0
  7  8  2  0  0  0  0
  7  9  1  0  0  0  0
  9 10  2  0  0  0  0
 10 11  1  0  0  0  0
 10 12  1  0  0  0  0
 11 14  1  0  0  0  0
 11 15  1  0  0  0  0
 12 13  1  0  0  0  0
 12 16  1  0  0  0  0
 13 17  1  0  0  0  0
M  END
>  <CHROM.0>
-47.24614055,173.66609154,-56.61589002,-53.05846468,-171.77125098,-58.20194019
-57.30043428,-179.13001379,-166.30553791,160.62569620

>  <CHROM.1>
-86.39060409,-177.78610352,-92.82097734,134.32987446,173.95077748,20.53031640
-16.86423521,4.69062276,-0.07956793,0.66964276,1.49174955

>  <Name>
P156450664

>  <RI>
0

>  <Rbt.Current_Directory>
/home/fstefaniak/projects/zuza/docking/adenine/1Y26

>  <Rbt.Executable>
rbdock ($Id: //depot/dev/client3/rdock/2013.1/src/exe/rbdock.cxx#4 $)

>  <Rbt.Library>
libRbt.so (2013.1, Build901 2013/11/27)

>  <Rbt.Parameter_File>
/home/fstefaniak/progs/rDock//data/scripts/dock_solv.prm

>  <Rbt.Receptor>
1y26.prm

>  <SCORE>
-62.0065

>  <SCORE.INTER>
-42.6514

>  <SCORE.INTER.CONST>
1

>  <SCORE.INTER.POLAR>
-5.4698

>  <SCORE.INTER.ROT>
4

>  <SCORE.INTER.SOLV>
14.9375

>  <SCORE.INTER.VDW>
-21.4475

>  <SCORE.INTER.norm>
-3.28088

>  <SCORE.INTRA>
3.14417

>  <SCORE.INTRA.DIHEDRAL>
6.57859

>  <SCORE.INTRA.DIHEDRAL.0>
7.26783

>  <SCORE.INTRA.POLAR>
0.296375

>  <SCORE.INTRA.POLAR.0>
-0.296375

>  <SCORE.INTRA.REPUL>
0

>  <SCORE.INTRA.REPUL.0>
0

>  <SCORE.INTRA.SOLV>
0.226511

>  <SCORE.INTRA.SOLV.lig_0>
-22.1253

>  <SCORE.INTRA.VDW>
-1.26605

>  <SCORE.INTRA.VDW.0>
0.900418

>  <SCORE.INTRA.norm>
0.241859

>  <SCORE.RESTR>
0

>  <SCORE.RESTR.CAVITY>
0

>  <SCORE.RESTR.norm>
0

>  <SCORE.SYSTEM>
-22.4992

>  <SCORE.SYSTEM.CONST>
0

>  <SCORE.SYSTEM.DIHEDRAL>
6.0628

>  <SCORE.SYSTEM.POLAR>
-3.47872

>  <SCORE.SYSTEM.SOLV>
0.249772

>  <SCORE.SYSTEM.VDW>
-5.50795

>  <SCORE.SYSTEM.norm>
-1.73071

>  <SCORE.heavy>
13

>  <SCORE.norm>
-4.76973

$$$$
P156450664
 OpenBabel12072022103D
libRbt.so/2013.1/901 2013/11/27
 17 17  0  0  0  0  0  0  0  0999 V2000
   23.6224  -14.7726    4.8383 C   0  0  0  0  0  0  0  0  0  0  0  0
   23.7252  -16.0183    4.2204 C   0  0  0  0  0  0  0  0  0  0  0  0
   22.5733  -16.7582    3.9450 C   0  0  0  0  0  0  0  0  0  0  0  0
   21.3105  -16.2548    4.2883 C   0  0  0  0  0  0  0  0  0  0  0  0
   21.2157  -15.0015    4.9087 C   0  0  0  0  0  0  0  0  0  0  0  0
   22.3703  -14.2641    5.1822 C   0  0  0  0  0  0  0  0  0  0  0  0
   20.0932  -17.0646    3.9765 C   0  0  0  0  0  0  0  0  0  0  0  0
   19.5592  -16.9499    2.8752 O   0  0  0  0  0  0  0  0  0  0  0  0
   19.6669  -17.9137    4.9719 N   0  0  0  0  0  0  0  0  0  0  0  0
   18.5712  -18.5845    4.8017 C   0  0  0  0  0  0  0  0  0  0  0  0
   17.7286  -18.5599    3.7321 N   0  0  0  0  0  0  0  0  0  0  0  0
   18.1089  -19.4613    5.7561 N   0  0  0  0  0  0  0  0  0  0  0  0
   16.9328  -19.0233    6.3849 O   0  0  0  0  0  0  0  0  0  0  0  0
   17.0554  -17.7914    3.8089 H   0  0  0  0  0  0  0  0  0  0  0  0
   18.2140  -18.4942    2.8449 H   0  0  0  0  0  0  0  0  0  0  0  0
   18.0343  -20.4185    5.4195 H   0  0  0  0  0  0  0  0  0  0  0  0
   17.2467  -18.2636    6.9208 H   0  0  0  0  0  0  0  0  0  0  0  0
  1  2  2  0  0  0  0
  1  6  1  0  0  0  0
  2  3  1  0  0  0  0
  3  4  2  0  0  0  0
  4  5  1  0  0  0  0
  4  7  1  0  0  0  0
  5  6  2  0  0  0  0
  7  8  2  0  0  0  0
  7  9  1  0  0  0  0
  9 10  2  0  0  0  0
 10 11  1  0  0  0  0
 10 12  1  0  0  0  0
 11 14  1  0  0  0  0
 11 15  1  0  0  0  0
 12 13  1  0  0  0  0
 12 16  1  0  0  0  0
 13 17  1  0  0  0  0
M  END
>  <CHROM.0>
-53.05747555,-57.53506249,-59.23204567,-50.17755821,-61.19137674,-59.48997588
-60.10438639,-55.82291629,-166.85347732,160.50420870

>  <CHROM.1>
-87.46059591,175.78951820,-84.88566346,111.11502303,-69.93607139,20.26186424
-17.06702457,4.61801588,-0.05492937,0.62174799,1.48266797

>  <Name>
P156450664

>  <RI>
0

>  <Rbt.Current_Directory>
/home/fstefaniak/projects/zuza/docking/adenine/1Y26

>  <Rbt.Executable>
rbdock ($Id: //depot/dev/client3/rdock/2013.1/src/exe/rbdock.cxx#4 $)

>  <Rbt.Library>
libRbt.so (2013.1, Build901 2013/11/27)

>  <Rbt.Parameter_File>
/home/fstefaniak/progs/rDock//data/scripts/dock_solv.prm

>  <Rbt.Receptor>
1y26.prm

>  <SCORE>
-61.6936

>  <SCORE.INTER>
-42.5013

>  <SCORE.INTER.CONST>
1

>  <SCORE.INTER.POLAR>
-5.92266

>  <SCORE.INTER.ROT>
4

>  <SCORE.INTER.SOLV>
15.8645

>  <SCORE.INTER.VDW>
-20.1469

>  <SCORE.INTER.norm>
-3.26933

>  <SCORE.INTRA>
2.99865

>  <SCORE.INTRA.DIHEDRAL>
6.92625

>  <SCORE.INTRA.DIHEDRAL.0>
7.26783

>  <SCORE.INTRA.POLAR>
0.296375

>  <SCORE.INTRA.POLAR.0>
-0.296375

>  <SCORE.INTRA.REPUL>
0

>  <SCORE.INTRA.REPUL.0>
0

>  <SCORE.INTRA.SOLV>
0.135991

>  <SCORE.INTRA.SOLV.lig_0>
-22.1253

>  <SCORE.INTRA.VDW>
-1.54015

>  <SCORE.INTRA.VDW.0>
0.900418

>  <SCORE.INTRA.norm>
0.230665

>  <SCORE.RESTR>
0

>  <SCORE.RESTR.CAVITY>
0

>  <SCORE.RESTR.norm>
0

>  <SCORE.SYSTEM>
-22.1909

>  <SCORE.SYSTEM.CONST>
0

>  <SCORE.SYSTEM.DIHEDRAL>
5.21994

>  <SCORE.SYSTEM.POLAR>
-3.45004

>  <SCORE.SYSTEM.SOLV>
0.65098

>  <SCORE.SYSTEM.VDW>
-5.25081

>  <SCORE.SYSTEM.norm>
-1.70699

>  <SCORE.heavy>
13

>  <SCORE.norm>
-4.74566

$$$$
P20462346
 OpenBabel12072022103D
libRbt.so/2013.1/901 2013/11/27
 11 11  0  0  0  0  0  0  0  0999 V2000
   22.2083  -13.5994    5.9911 C   0  0  0  0  0  0  0  0  0  0  0  0
   22.6886  -13.8204    4.5596 C   0  0  1  0  0  0  0  0  0  0  0  0
   23.9356  -14.7161    4.4607 C   0  0  1  0  0  0  0  0  0  0  0  0
   23.6026  -16.1853    4.7115 C   0  0  0  0  0  0  0  0  0  0  0  0
   22.4127  -16.6274    3.8669 C   0  0  0  0  0  0  0  0  0  0  0  0
   21.2348  -15.6646    4.0078 C   0  0  1  0  0  0  0  0  0  0  0  0
   21.6407  -14.3272    3.7187 O   0  0  0  0  0  0  0  0  0  0  0  0
   20.2358  -16.0910    3.0812 O   0  0  0  0  0  0  0  0  0  0  0  0
   19.4999  -17.2058    3.5644 C   0  0  0  0  0  0  0  0  0  0  0  0
   24.4850  -14.6032    3.1421 O   0  0  0  0  0  0  0  0  0  0  0  0
   25.3296  -15.0941    3.1417 H   0  0  0  0  0  0  0  0  0  0  0  0
  2  1  1  1  0  0  0
  2  7  1  0  0  0  0
  2  3  1  0  0  0  0
  3  4  1  0  0  0  0
  3 10  1  6  0  0  0
  4  5  1  0  0  0  0
  5  6  1  0  0  0  0
  6  7  1  0  0  0  0
  6  8  1  6  0  0  0
  8  9  1  0  0  0  0
 10 11  1  0  0  0  0
M  END
>  <CHROM.0>
-48.61884698,-61.97858517,-64.82346593,-52.56120443,-57.03263919,-174.52053065
-170.47800949,-175.96301541,-167.36045131,160.73258853

>  <CHROM.1>
173.33387092,78.71876968,22.18575901,-15.28454331,4.07587051,0.56952659,0.10336070
0.55446775

>  <Name>
P20462346

>  <RI>
0

>  <Rbt.Current_Directory>
/home/fstefaniak/projects/zuza/docking/adenine/1Y26

>  <Rbt.Executable>
rbdock ($Id: //depot/dev/client3/rdock/2013.1/src/exe/rbdock.cxx#4 $)

>  <Rbt.Library>
libRbt.so (2013.1, Build901 2013/11/27)

>  <Rbt.Parameter_File>
/home/fstefaniak/progs/rDock//data/scripts/dock_solv.prm

>  <Rbt.Receptor>
1y26.prm

>  <SCORE>
-43.6976

>  <SCORE.INTER>
-22.8565

>  <SCORE.INTER.CONST>
1

>  <SCORE.INTER.POLAR>
-2.61553

>  <SCORE.INTER.ROT>
1

>  <SCORE.INTER.SOLV>
7.94064

>  <SCORE.INTER.VDW>
-13.4328

>  <SCORE.INTER.norm>
-2.28565

>  <SCORE.INTRA>
0.712145

>  <SCORE.INTRA.DIHEDRAL>
0.0184743

>  <SCORE.INTRA.DIHEDRAL.0>
1.80358

>  <SCORE.INTRA.POLAR>
0.00752285

>  <SCORE.INTRA.POLAR.0>
-0.00752285

>  <SCORE.INTRA.REPUL>
0

>  <SCORE.INTRA.REPUL.0>
0

>  <SCORE.INTRA.SOLV>
-0.0278749

>  <SCORE.INTRA.SOLV.lig_0>
-7.94252

>  <SCORE.INTRA.VDW>
0.691268

>  <SCORE.INTRA.VDW.0>
0.64276

>  <SCORE.INTRA.norm>
0.0712145

>  <SCORE.RESTR>
0

>  <SCORE.RESTR.CAVITY>
0

>  <SCORE.RESTR.norm>
0

>  <SCORE.SYSTEM>
-21.5533

>  <SCORE.SYSTEM.CONST>
0

>  <SCORE.SYSTEM.DIHEDRAL>
6.01873

>  <SCORE.SYSTEM.POLAR>
-3.41753

>  <SCORE.SYSTEM.SOLV>
0.254125

>  <SCORE.SYSTEM.VDW>
-5.06804

>  <SCORE.SYSTEM.norm>
-2.15533

>  <SCORE.heavy>
10

>  <SCORE.norm>
-4.36976

$$$$
P20462346
 OpenBabel12072022103D
libRbt.so/2013.1/901 2013/11/27
 11 11  0  0  0  0  0  0  0  0999 V2000
   22.4974  -13.2338    5.5528 C   0  0  0  0  0  0  0  0  0  0  0  0
   22.9765  -13.6380    4.1615 C   0  0  1  0  0  0  0  0  0  0  0  0
   24.2749  -14.4632    4.1738 C   0  0  1  0  0  0  0  0  0  0  0  0
   24.0348  -15.8953    4.6468 C   0  0  0  0  0  0  0  0  0  0  0  0
   22.8662  -16.5284    3.8998 C   0  0  0  0  0  0  0  0  0  0  0  0
   21.6330  -15.6266    3.9176 C   0  0  1  0  0  0  0  0  0  0  0  0
   21.9536  -14.3260    3.4251 O   0  0  0  0  0  0  0  0  0  0  0  0
   20.6531  -16.2452    3.0836 O   0  0  0  0  0  0  0  0  0  0  0  0
   19.9664  -17.2932    3.7531 C   0  0  0  0  0  0  0  0  0  0  0  0
   24.8038  -14.5168    2.8431 O   0  0  0  0  0  0  0  0  0  0  0  0
   25.6657  -14.9736    2.8966 H   0  0  0  0  0  0  0  0  0  0  0  0
  2  1  1  1  0  0  0
  2  7  1  0  0  0  0
  2  3  1  0  0  0  0
  3  4  1  0  0  0  0
  3 10  1  6  0  0  0
  4  5  1  0  0  0  0
  5  6  1  0  0  0  0
  6  7  1  0  0  0  0
  6  8  1  6  0  0  0
  8  9  1  0  0  0  0
 10 11  1  0  0  0  0
M  END
>  <CHROM.0>
-48.07334694,44.25337212,-55.82395886,-52.94775396,-58.30678865,-63.88979064
-59.00348009,-175.71730240,-167.16003733,160.91224202

>  <CHROM.1>
174.86165063,80.29373150,22.55686586,-15.18291796,3.91184536,0.61058430,0.14450695
0.40023416

>  <Name>
P20462346

>  <RI>
0

>  <Rbt.Current_Directory>
/home/fstefaniak/projects/zuza/docking/adenine/1Y26

>  <Rbt.Executable>
rbdock ($Id: //depot/dev/client3/rdock/2013.1/src/exe/rbdock.cxx#4 $)

>  <Rbt.Library>
libRbt.so (2013.1, Build901 2013/11/27)

>  <Rbt.Parameter_File>
/home/fstefaniak/progs/rDock//data/scripts/dock_solv.prm

>  <Rbt.Receptor>
1y26.prm

>  <SCORE>
-41.5205

>  <SCORE.INTER>
-20.3303

>  <SCORE.INTER.CONST>
1

>  <SCORE.INTER.POLAR>
-2.18605

>  <SCORE.INTER.ROT>
1

>  <SCORE.INTER.SOLV>
7.4923

>  <SCORE.INTER.VDW>
-13.0308

>  <SCORE.INTER.norm>
-2.03303

>  <SCORE.INTRA>
0.677705

>  <SCORE.INTRA.DIHEDRAL>
0.184229

>  <SCORE.INTRA.DIHEDRAL.0>
1.80358

>  <SCORE.INTRA.POLAR>
0.00752285

>  <SCORE.INTRA.POLAR.0>
-0.00752285

>  <SCORE.INTRA.REPUL>
0

>  <SCORE.INTRA.REPUL.0>
0

>  <SCORE.INTRA.SOLV>
-0.0285614

>  <SCORE.INTRA.SOLV.lig_0>
-7.94252

>  <SCORE.INTRA.VDW>
0.574293

>  <SCORE.INTRA.VDW.0>
0.64276

>  <SCORE.INTRA.norm>
0.0677705

>  <SCORE.RESTR>
0

>  <SCORE.RESTR.CAVITY>
0

>  <SCORE.RESTR.norm>
0

>  <SCORE.SYSTEM>
-21.8679

>  <SCORE.SYSTEM.CONST>
0

>  <SCORE.SYSTEM.DIHEDRAL>
6.61483

>  <SCORE.SYSTEM.POLAR>
-3.55049

>  <SCORE.SYSTEM.SOLV>
0.537832

>  <SCORE.SYSTEM.VDW>
-5.12785

>  <SCORE.SYSTEM.norm>
-2.18679

>  <SCORE.heavy>
10

>  <SCORE.norm>
-4.15205

$$$$
P20462346
 OpenBabel12072022103D
libRbt.so/2013.1/901 2013/11/27
 11 11  0  0  0  0  0  0  0  0999 V2000
   22.1990  -13.5814    5.9739 C   0  0  0  0  0  0  0  0  0  0  0  0
   22.6893  -13.8213    4.5489 C   0  0  1  0  0  0  0  0  0  0  0  0
   23.9354  -14.7204    4.4704 C   0  0  1  0  0  0  0  0  0  0  0  0
   23.5978  -16.1857    4.7372 C   0  0  0  0  0  0  0  0  0  0  0  0
   22.4133  -16.6363    3.8895 C   0  0  0  0  0  0  0  0  0  0  0  0
   21.2362  -15.6697    4.0096 C   0  0  1  0  0  0  0  0  0  0  0  0
   21.6468  -14.3368    3.7067 O   0  0  0  0  0  0  0  0  0  0  0  0
   20.2432  -16.1059    3.0811 O   0  0  0  0  0  0  0  0  0  0  0  0
   19.4912  -17.2033    3.5794 C   0  0  0  0  0  0  0  0  0  0  0  0
   24.4947  -14.6250    3.1546 O   0  0  0  0  0  0  0  0  0  0  0  0
   25.3394  -15.1156    3.1672 H   0  0  0  0  0  0  0  0  0  0  0  0
  2  1  1  1  0  0  0
  2  7  1  0  0  0  0
  2  3  1  0  0  0  0
  3  4  1  0  0  0  0
  3 10  1  6  0  0  0
  4  5  1  0  0  0  0
  5  6  1  0  0  0  0
  6  7  1  0  0  0  0
  6  8  1  6  0  0  0
  8  9  1  0  0  0  0
 10 11  1  0  0  0  0
M  END
>  <CHROM.0>
-49.53543618,-62.17203148,-54.98181049,-51.90201265,-175.24870395,-58.80638489
-61.64534403,64.46932065,-167.15154277,-61.10625556

>  <CHROM.1>
173.19512625,79.40878060,22.18627615,-15.28944130,4.08055986,0.56901069,0.09653383
0.54238297

>  <Name>
P20462346

>  <RI>
0

>  <Rbt.Current_Directory>
/home/fstefaniak/projects/zuza/docking/adenine/1Y26

>  <Rbt.Executable>
rbdock ($Id: //depot/dev/client3/rdock/2013.1/src/exe/rbdock.cxx#4 $)

>  <Rbt.Library>
libRbt.so (2013.1, Build901 2013/11/27)

>  <Rbt.Parameter_File>
/home/fstefaniak/progs/rDock//data/scripts/dock_solv.prm

>  <Rbt.Receptor>
1y26.prm

>  <SCORE>
-40.7378

>  <SCORE.INTER>
-22.866

>  <SCORE.INTER.CONST>
1

>  <SCORE.INTER.POLAR>
-2.61069

>  <SCORE.INTER.ROT>
1

>  <SCORE.INTER.SOLV>
7.94886

>  <SCORE.INTER.VDW>
-13.458

>  <SCORE.INTER.norm>
-2.2866

>  <SCORE.INTRA>
0.706013

>  <SCORE.INTRA.DIHEDRAL>
0.136777

>  <SCORE.INTRA.DIHEDRAL.0>
1.80358

>  <SCORE.INTRA.POLAR>
0.00752285

>  <SCORE.INTRA.POLAR.0>
-0.00752285

>  <SCORE.INTRA.REPUL>
0

>  <SCORE.INTRA.REPUL.0>
0

>  <SCORE.INTRA.SOLV>
-0.0275634

>  <SCORE.INTRA.SOLV.lig_0>
-7.94252

>  <SCORE.INTRA.VDW>
0.625828

>  <SCORE.INTRA.VDW.0>
0.64276

>  <SCORE.INTRA.norm>
0.0706013

>  <SCORE.RESTR>
0

>  <SCORE.RESTR.CAVITY>
0

>  <SCORE.RESTR.norm>
0

>  <SCORE.SYSTEM>
-18.5779

>  <SCORE.SYSTEM.CONST>
0

>  <SCORE.SYSTEM.DIHEDRAL>
4.02282

>  <SCORE.SYSTEM.POLAR>
-2.61426

>  <SCORE.SYSTEM.SOLV>
0.334653

>  <SCORE.SYSTEM.VDW>
-5.12355

>  <SCORE.SYSTEM.norm>
-1.85779

>  <SCORE.heavy>
10

>  <SCORE.norm>
-4.07378

$$$$
P20855218
 OpenBabel12072022103D
libRbt.so/2013.1/901 2013/11/27
 12 12  0  0  0  0  0  0  0  0999 V2000
   17.8858  -19.3246    5.8424 C   0  0  0  0  0  0  0  0  0  0  0  0
   19.1300  -19.0782    5.0004 C   0  0  2  0  0  0  0  0  0  0  0  0
   19.4454  -17.5895    4.8321 C   0  0  2  0  0  0  0  0  0  0  0  0
   18.7115  -17.2603    3.5483 C   0  0  2  0  0  0  0  0  0  0  0  0
   18.9475  -18.5394    2.7383 C   0  0  1  0  0  0  0  0  0  0  0  0
   18.8831  -19.6138    3.6834 O   0  0  0  0  0  0  0  0  0  0  0  0
   17.9714  -18.7027    1.7225 O   0  0  0  0  0  0  0  0  0  0  0  0
   19.2156  -16.0934    2.9073 O   0  0  0  0  0  0  0  0  0  0  0  0
   20.8486  -17.3703    4.6043 O   0  0  0  0  0  0  0  0  0  0  0  0
   18.2110  -18.0948    1.0023 H   0  0  0  0  0  0  0  0  0  0  0  0
   19.0213  -15.3596    3.5281 H   0  0  0  0  0  0  0  0  0  0  0  0
   21.2925  -17.3951    5.4718 H   0  0  0  0  0  0  0  0  0  0  0  0
  2  6  1  0  0  0  0
  2  1  1  1  0  0  0
  2  3  1  0  0  0  0
  3  9  1  6  0  0  0
  3  4  1  0  0  0  0
  4  8  1  6  0  0  0
  4  5  1  0  0  0  0
  5  6  1  0  0  0  0
  5  7  1  6  0  0  0
  7 10  1  0  0  0  0
  8 11  1  0  0  0  0
  9 12  1  0  0  0  0
M  END
>  <CHROM.0>
-50.19233586,-62.77513693,-64.96989215,-53.50017845,-56.73115262,-58.45095766
-171.97703440,-52.35386812,-166.59691778,160.32178693

>  <CHROM.1>
-81.02320661,-64.87414232,77.08488564,19.01890862,-18.14392496,3.83537535
1.58729299,0.94954854,2.10852848

>  <Name>
P20855218

>  <RI>
0

>  <Rbt.Current_Directory>
/home/fstefaniak/projects/zuza/docking/adenine/1Y26

>  <Rbt.Executable>
rbdock ($Id: //depot/dev/client3/rdock/2013.1/src/exe/rbdock.cxx#4 $)

>  <Rbt.Library>
libRbt.so (2013.1, Build901 2013/11/27)

>  <Rbt.Parameter_File>
/home/fstefaniak/progs/rDock//data/scripts/dock_solv.prm

>  <Rbt.Receptor>
1y26.prm

>  <SCORE>
-56.6114

>  <SCORE.INTER>
-33.1239

>  <SCORE.INTER.CONST>
1

>  <SCORE.INTER.POLAR>
-4.88104

>  <SCORE.INTER.ROT>
0

>  <SCORE.INTER.SOLV>
13.0817

>  <SCORE.INTER.VDW>
-13.773

>  <SCORE.INTER.norm>
-3.68043

>  <SCORE.INTRA>
-2.09861

>  <SCORE.INTRA.DIHEDRAL>
-4.30869

>  <SCORE.INTRA.DIHEDRAL.0>
7.99085

>  <SCORE.INTRA.POLAR>
0.341765

>  <SCORE.INTRA.POLAR.0>
-0.341765

>  <SCORE.INTRA.REPUL>
0

>  <SCORE.INTRA.REPUL.0>
0

>  <SCORE.INTRA.SOLV>
-0.0618421

>  <SCORE.INTRA.SOLV.lig_0>
-16.441

>  <SCORE.INTRA.VDW>
-1.07535

>  <SCORE.INTRA.VDW.0>
0.796924

>  <SCORE.INTRA.norm>
-0.233179

>  <SCORE.RESTR>
0

>  <SCORE.RESTR.CAVITY>
0

>  <SCORE.RESTR.norm>
0

>  <SCORE.SYSTEM>
-21.3889

>  <SCORE.SYSTEM.CONST>
0

>  <SCORE.SYSTEM.DIHEDRAL>
5.92684

>  <SCORE.SYSTEM.POLAR>
-3.42696

>  <SCORE.SYSTEM.SOLV>
0.604895

>  <SCORE.SYSTEM.VDW>
-5.01329

>  <SCORE.SYSTEM.norm>
-2.37654

>  <SCORE.heavy>
9

>  <SCORE.norm>
-6.29015

$$$$
P20855218
 OpenBabel12072022103D
libRbt.so/2013.1/901 2013/11/27
 12 12  0  0  0  0  0  0  0  0999 V2000
   17.9968  -19.2881    5.8402 C   0  0  0  0  0  0  0  0  0  0  0  0
   19.2248  -19.0184    4.9819 C   0  0  2  0  0  0  0  0  0  0  0  0
   19.5075  -17.5240    4.8064 C   0  0  2  0  0  0  0  0  0  0  0  0
   18.7508  -17.2129    3.5314 C   0  0  2  0  0  0  0  0  0  0  0  0
   19.0026  -18.4888    2.7212 C   0  0  1  0  0  0  0  0  0  0  0  0
   18.9722  -19.5620    3.6693 O   0  0  0  0  0  0  0  0  0  0  0  0
   18.0172  -18.6744    1.7183 O   0  0  0  0  0  0  0  0  0  0  0  0
   19.2228  -16.0375    2.8815 O   0  0  0  0  0  0  0  0  0  0  0  0
   20.9029  -17.2767    4.5603 O   0  0  0  0  0  0  0  0  0  0  0  0
   18.2430  -18.0735    0.9879 H   0  0  0  0  0  0  0  0  0  0  0  0
   19.0349  -15.3082    3.5096 H   0  0  0  0  0  0  0  0  0  0  0  0
   21.3623  -17.3161    5.4191 H   0  0  0  0  0  0  0  0  0  0  0  0
  2  6  1  0  0  0  0
  2  1  1  1  0  0  0
  2  3  1  0  0  0  0
  3  9  1  6  0  0  0
  3  4  1  0  0  0  0
  4  8  1  6  0  0  0
  4  5  1  0  0  0  0
  5  6  1  0  0  0  0
  5  7  1  6  0  0  0
  7 10  1  0  0  0  0
  8 11  1  0  0  0  0
  9 12  1  0  0  0  0
M  END
>  <CHROM.0>
-48.50450836,-61.80211353,-55.00056886,-51.17543215,-54.91759017,59.15034784
-61.21523057,64.60601939,-165.85641513,161.39644637

>  <CHROM.1>
-79.40664641,-63.96575682,77.94999053,19.08004778,-18.08966867,3.81638008
1.54966391,0.96021593,2.13644440

>  <Name>
P20855218

>  <RI>
0

>  <Rbt.Current_Directory>
/home/fstefaniak/projects/zuza/docking/adenine/1Y26

>  <Rbt.Executable>
rbdock ($Id: //depot/dev/client3/rdock/2013.1/src/exe/rbdock.cxx#4 $)

>  <Rbt.Library>
libRbt.so (2013.1, Build901 2013/11/27)

>  <Rbt.Parameter_File>
/home/fstefaniak/progs/rDock//data/scripts/dock_solv.prm

>  <Rbt.Receptor>
1y26.prm

>  <SCORE>
-55.791

>  <SCORE.INTER>
-33.0477

>  <SCORE.INTER.CONST>
1

>  <SCORE.INTER.POLAR>
-4.75949

>  <SCORE.INTER.ROT>
0

>  <SCORE.INTER.SOLV>
13.069

>  <SCORE.INTER.VDW>
-14.1232

>  <SCORE.INTER.norm>
-3.67197

>  <SCORE.INTRA>
-2.17021

>  <SCORE.INTRA.DIHEDRAL>
-4.46386

>  <SCORE.INTRA.DIHEDRAL.0>
7.99085

>  <SCORE.INTRA.POLAR>
0.341765

>  <SCORE.INTRA.POLAR.0>
-0.341765

>  <SCORE.INTRA.REPUL>
0

>  <SCORE.INTRA.REPUL.0>
0

>  <SCORE.INTRA.SOLV>
-0.0634602

>  <SCORE.INTRA.SOLV.lig_0>
-16.441

>  <SCORE.INTRA.VDW>
-1.06856

>  <SCORE.INTRA.VDW.0>
0.796924

>  <SCORE.INTRA.norm>
-0.241135

>  <SCORE.RESTR>
0

>  <SCORE.RESTR.CAVITY>
0

>  <SCORE.RESTR.norm>
0

>  <SCORE.SYSTEM>
-20.5731

>  <SCORE.SYSTEM.CONST>
0

>  <SCORE.SYSTEM.DIHEDRAL>
5.75494

>  <SCORE.SYSTEM.POLAR>
-3.48309

>  <SCORE.SYSTEM.SOLV>
0.271479

>  <SCORE.SYSTEM.VDW>
-4.11387

>  <SCORE.SYSTEM.norm>
-2.2859

>  <SCORE.heavy>
9

>  <SCORE.norm>
-6.199

$$$$
P20855218
 OpenBabel12072022103D
libRbt.so/2013.1/901 2013/11/27
 12 12  0  0  0  0  0  0  0  0999 V2000
   17.8470  -19.3029    5.7926 C   0  0  0  0  0  0  0  0  0  0  0  0
   19.1005  -19.0683    4.9611 C   0  0  2  0  0  0  0  0  0  0  0  0
   19.4353  -17.5829    4.8015 C   0  0  2  0  0  0  0  0  0  0  0  0
   18.7153  -17.2395    3.5135 C   0  0  2  0  0  0  0  0  0  0  0  0
   18.9418  -18.5181    2.7000 C   0  0  1  0  0  0  0  0  0  0  0  0
   18.8571  -19.5955    3.6402 O   0  0  0  0  0  0  0  0  0  0  0  0
   17.9716  -18.6653    1.6762 O   0  0  0  0  0  0  0  0  0  0  0  0
   19.2385  -16.0763    2.8813 O   0  0  0  0  0  0  0  0  0  0  0  0
   20.8427  -17.3800    4.5852 O   0  0  0  0  0  0  0  0  0  0  0  0
   18.2546  -18.0998    0.9375 H   0  0  0  0  0  0  0  0  0  0  0  0
   19.0716  -15.3469    3.5150 H   0  0  0  0  0  0  0  0  0  0  0  0
   21.2722  -17.3578    5.4600 H   0  0  0  0  0  0  0  0  0  0  0  0
  2  6  1  0  0  0  0
  2  1  1  1  0  0  0
  2  3  1  0  0  0  0
  3  9  1  6  0  0  0
  3  4  1  0  0  0  0
  4  8  1  6  0  0  0
  4  5  1  0  0  0  0
  5  6  1  0  0  0  0
  5  7  1  6  0  0  0
  7 10  1  0  0  0  0
  8 11  1  0  0  0  0
  9 12  1  0  0  0  0
M  END
>  <CHROM.0>
-46.99218064,40.52920503,-54.12800912,-51.89065796,-56.52576545,61.59287926
-56.60559434,-48.07645501,-166.10011248,163.14227489

>  <CHROM.1>
-84.51385880,-63.29341492,80.59247252,19.01002538,-18.12795690,3.79918867
1.61061385,0.94371584,2.09276607

>  <Name>
P20855218

>  <RI>
0

>  <Rbt.Current_Directory>
/home/fstefaniak/projects/zuza/docking/adenine/1Y26

>  <Rbt.Executable>
rbdock ($Id: //depot/dev/client3/rdock/2013.1/src/exe/rbdock.cxx#4 $)

>  <Rbt.Library>
libRbt.so (2013.1, Build901 2013/11/27)

>  <Rbt.Parameter_File>
/home/fstefaniak/progs/rDock//data/scripts/dock_solv.prm

>  <Rbt.Receptor>
1y26.prm

>  <SCORE>
-55.1126

>  <SCORE.INTER>
-33.3409

>  <SCORE.INTER.CONST>
1

>  <SCORE.INTER.POLAR>
-4.82304

>  <SCORE.INTER.ROT>
0

>  <SCORE.INTER.SOLV>
13.103

>  <SCORE.INTER.VDW>
-14.1181

>  <SCORE.INTER.norm>
-3.70454

>  <SCORE.INTRA>
-1.58278

>  <SCORE.INTRA.DIHEDRAL>
-3.25672

>  <SCORE.INTRA.DIHEDRAL.0>
7.99085

>  <SCORE.INTRA.POLAR>
0.341765

>  <SCORE.INTRA.POLAR.0>
-0.341765

>  <SCORE.INTRA.REPUL>
0

>  <SCORE.INTRA.REPUL.0>
0

>  <SCORE.INTRA.SOLV>
-0.0583536

>  <SCORE.INTRA.SOLV.lig_0>
-16.441

>  <SCORE.INTRA.VDW>
-1.08725

>  <SCORE.INTRA.VDW.0>
0.796924

>  <SCORE.INTRA.norm>
-0.175865

>  <SCORE.RESTR>
0

>  <SCORE.RESTR.CAVITY>
0

>  <SCORE.RESTR.norm>
0

>  <SCORE.SYSTEM>
-20.189

>  <SCORE.SYSTEM.CONST>
0

>  <SCORE.SYSTEM.DIHEDRAL>
7.82534

>  <SCORE.SYSTEM.POLAR>
-3.62611

>  <SCORE.SYSTEM.SOLV>
0.622386

>  <SCORE.SYSTEM.VDW>
-4.18818

>  <SCORE.SYSTEM.norm>
-2.24322

>  <SCORE.heavy>
9

>  <SCORE.norm>
-6.12363

$$$$
P21190230
 OpenBabel12072022103D
libRbt.so/2013.1/901 2013/11/27
 13 13  0  0  0  0  0  0  0  0999 V2000
   20.9366  -16.1829    3.7523 C   0  0  0  0  0  0  0  0  0  0  0  0
   20.3713  -17.5957    3.5980 C   0  0  1  0  0  0  0  0  0  0  0  0
   19.3853  -17.9132    4.6953 C   0  0  0  0  0  0  0  0  0  0  0  0
   19.3892  -19.2738    5.3497 C   0  0  0  0  0  0  0  0  0  0  0  0
   19.8490  -18.0702    6.1234 C   0  0  0  0  0  0  0  0  0  0  0  0
   19.7438  -17.7899    2.2880 N   0  0  0  0  0  0  0  0  0  0  0  0
   18.6021  -18.5445    2.1287 C   0  0  0  0  0  0  0  0  0  0  0  0
   17.7912  -18.8178    3.0033 O   0  0  0  0  0  0  0  0  0  0  0  0
   18.4224  -18.9875    0.8465 N   0  0  0  0  0  0  0  0  0  0  0  0
   20.6702  -17.8031    1.2110 O   0  0  0  0  0  0  0  0  0  0  0  0
   18.6687  -18.3005    0.1432 H   0  0  0  0  0  0  0  0  0  0  0  0
   17.5110  -19.4085    0.7094 H   0  0  0  0  0  0  0  0  0  0  0  0
   20.7569  -18.7605    1.0321 H   0  0  0  0  0  0  0  0  0  0  0  0
  2  1  1  1  0  0  0
  2  3  1  0  0  0  0
  2  6  1  0  0  0  0
  3  4  1  0  0  0  0
  3  5  1  0  0  0  0
  4  5  1  0  0  0  0
  6  7  1  0  0  0  0
  6 10  1  0  0  0  0
  7  8  2  0  0  0  0
  7  9  1  0  0  0  0
  9 11  1  0  0  0  0
  9 12  1  0  0  0  0
 10 13  1  0  0  0  0
M  END
>  <CHROM.0>
-45.26249402,-62.48292204,-50.12924283,-51.50597365,-57.19344067,-176.72504555
-52.77474052,-52.38857928,-167.63963932,160.31415126

>  <CHROM.1>
-138.72896683,-142.80673241,21.32111634,101.13178543,-39.55640746,19.51480642
-18.10398379,3.21912830,-1.32337811,-0.69016326,-1.52466889

>  <Name>
P21190230

>  <RI>
0

>  <Rbt.Current_Directory>
/home/fstefaniak/projects/zuza/docking/adenine/1Y26

>  <Rbt.Executable>
rbdock ($Id: //depot/dev/client3/rdock/2013.1/src/exe/rbdock.cxx#4 $)

>  <Rbt.Library>
libRbt.so (2013.1, Build901 2013/11/27)

>  <Rbt.Parameter_File>
/home/fstefaniak/progs/rDock//data/scripts/dock_solv.prm

>  <Rbt.Receptor>
1y26.prm

>  <SCORE>
-59.0818

>  <SCORE.INTER>
-40.5256

>  <SCORE.INTER.CONST>
1

>  <SCORE.INTER.POLAR>
-5.57217

>  <SCORE.INTER.ROT>
4

>  <SCORE.INTER.SOLV>
14.4101

>  <SCORE.INTER.VDW>
-19.5132

>  <SCORE.INTER.norm>
-4.05256

>  <SCORE.INTRA>
3.30803

>  <SCORE.INTRA.DIHEDRAL>
-0.660754

>  <SCORE.INTRA.DIHEDRAL.0>
5.47517

>  <SCORE.INTRA.POLAR>
0.110042

>  <SCORE.INTRA.POLAR.0>
-0.110042

>  <SCORE.INTRA.REPUL>
0

>  <SCORE.INTRA.REPUL.0>
0

>  <SCORE.INTRA.SOLV>
0.0536883

>  <SCORE.INTRA.SOLV.lig_0>
-16.261

>  <SCORE.INTRA.VDW>
3.23742

>  <SCORE.INTRA.VDW.0>
-0.10653

>  <SCORE.INTRA.norm>
0.330803

>  <SCORE.RESTR>
0

>  <SCORE.RESTR.CAVITY>
0

>  <SCORE.RESTR.norm>
0

>  <SCORE.SYSTEM>
-21.8642

>  <SCORE.SYSTEM.CONST>
0

>  <SCORE.SYSTEM.DIHEDRAL>
6.7855

>  <SCORE.SYSTEM.POLAR>
-3.62668

>  <SCORE.SYSTEM.SOLV>
0.550298

>  <SCORE.SYSTEM.VDW>
-4.93246

>  <SCORE.SYSTEM.norm>
-2.18642

>  <SCORE.heavy>
10

>  <SCORE.norm>
-5.90818

$$$$
P21190230
 OpenBabel12072022103D
libRbt.so/2013.1/901 2013/11/27
 13 13  0  0  0  0  0  0  0  0999 V2000
   20.7922  -15.9841    3.7754 C   0  0  0  0  0  0  0  0  0  0  0  0
   20.3657  -17.4480    3.6559 C   0  0  1  0  0  0  0  0  0  0  0  0
   19.3915  -17.8246    4.7450 C   0  0  0  0  0  0  0  0  0  0  0  0
   19.4362  -19.2022    5.3611 C   0  0  0  0  0  0  0  0  0  0  0  0
   19.8622  -18.0077    6.1675 C   0  0  0  0  0  0  0  0  0  0  0  0
   19.7865  -17.7397    2.3417 N   0  0  0  0  0  0  0  0  0  0  0  0
   18.6824  -18.5504    2.1928 C   0  0  0  0  0  0  0  0  0  0  0  0
   18.4779  -19.6043    2.7799 O   0  0  0  0  0  0  0  0  0  0  0  0
   17.7719  -18.0629    1.2951 N   0  0  0  0  0  0  0  0  0  0  0  0
   20.7445  -17.7711    1.2932 O   0  0  0  0  0  0  0  0  0  0  0  0
   16.9197  -18.6094    1.2466 H   0  0  0  0  0  0  0  0  0  0  0  0
   18.1884  -17.8687    0.3921 H   0  0  0  0  0  0  0  0  0  0  0  0
   20.8216  -18.7303    1.1199 H   0  0  0  0  0  0  0  0  0  0  0  0
  2  1  1  6  0  0  0
  2  3  1  0  0  0  0
  2  6  1  0  0  0  0
  3  4  1  0  0  0  0
  3  5  1  0  0  0  0
  4  5  1  0  0  0  0
  6  7  1  0  0  0  0
  6 10  1  0  0  0  0
  7  8  2  0  0  0  0
  7  9  1  0  0  0  0
  9 11  1  0  0  0  0
  9 12  1  0  0  0  0
 10 13  1  0  0  0  0
M  END
>  <CHROM.0>
-47.67411465,-61.03144314,-52.41519598,-50.91220228,57.54652650,57.59559239
-54.06795619,-172.89108037,-165.21149585,160.61989406

>  <CHROM.1>
-143.90118910,-139.47488997,-42.46615818,105.57756832,-174.56204447,19.53070722
-18.02956971,3.28123078,-1.23083319,-0.78609246,-1.40308182

>  <Name>
P21190230

>  <RI>
0

>  <Rbt.Current_Directory>
/home/fstefaniak/projects/zuza/docking/adenine/1Y26

>  <Rbt.Executable>
rbdock ($Id: //depot/dev/client3/rdock/2013.1/src/exe/rbdock.cxx#4 $)

>  <Rbt.Library>
libRbt.so (2013.1, Build901 2013/11/27)

>  <Rbt.Parameter_File>
/home/fstefaniak/progs/rDock//data/scripts/dock_solv.prm

>  <Rbt.Receptor>
1y26.prm

>  <SCORE>
-58.4404

>  <SCORE.INTER>
-39.544

>  <SCORE.INTER.CONST>
1

>  <SCORE.INTER.POLAR>
-5.721

>  <SCORE.INTER.ROT>
4

>  <SCORE.INTER.SOLV>
14.7447

>  <SCORE.INTER.VDW>
-18.4742

>  <SCORE.INTER.norm>
-3.9544

>  <SCORE.INTRA>
1.21579

>  <SCORE.INTRA.DIHEDRAL>
-0.300239

>  <SCORE.INTRA.DIHEDRAL.0>
5.47517

>  <SCORE.INTRA.POLAR>
0.110042

>  <SCORE.INTRA.POLAR.0>
-0.110042

>  <SCORE.INTRA.REPUL>
0

>  <SCORE.INTRA.REPUL.0>
0

>  <SCORE.INTRA.SOLV>
-0.0889942

>  <SCORE.INTRA.SOLV.lig_0>
-16.261

>  <SCORE.INTRA.VDW>
1.03626

>  <SCORE.INTRA.VDW.0>
-0.10653

>  <SCORE.INTRA.norm>
0.121579

>  <SCORE.RESTR>
0

>  <SCORE.RESTR.CAVITY>
0

>  <SCORE.RESTR.norm>
0

>  <SCORE.SYSTEM>
-20.1122

>  <SCORE.SYSTEM.CONST>
0

>  <SCORE.SYSTEM.DIHEDRAL>
6.42295

>  <SCORE.SYSTEM.POLAR>
-3.56024

>  <SCORE.SYSTEM.SOLV>
0.110253

>  <SCORE.SYSTEM.VDW>
-3.7184

>  <SCORE.SYSTEM.norm>
-2.01122

>  <SCORE.heavy>
10

>  <SCORE.norm>
-5.84404

$$$$
P21190230
 OpenBabel12072022103D
libRbt.so/2013.1/901 2013/11/27
 13 13  0  0  0  0  0  0  0  0999 V2000
   20.8352  -16.0556    4.1301 C   0  0  0  0  0  0  0  0  0  0  0  0
   20.3188  -17.4701    3.8623 C   0  0  1  0  0  0  0  0  0  0  0  0
   19.3341  -17.9025    4.9209 C   0  0  0  0  0  0  0  0  0  0  0  0
   19.3641  -19.3144    5.4550 C   0  0  0  0  0  0  0  0  0  0  0  0
   19.7934  -18.1729    6.3333 C   0  0  0  0  0  0  0  0  0  0  0  0
   19.7099  -17.5841    2.5342 N   0  0  0  0  0  0  0  0  0  0  0  0
   18.6826  -18.4645    2.2738 C   0  0  0  0  0  0  0  0  0  0  0  0
   18.5232  -19.5601    2.7947 O   0  0  0  0  0  0  0  0  0  0  0  0
   17.7951  -17.9982    1.3424 N   0  0  0  0  0  0  0  0  0  0  0  0
   20.6171  -17.3328    1.4702 O   0  0  0  0  0  0  0  0  0  0  0  0
   16.9478  -18.5507    1.2792 H   0  0  0  0  0  0  0  0  0  0  0  0
   18.2360  -17.8168    0.4483 H   0  0  0  0  0  0  0  0  0  0  0  0
   21.0036  -18.2187    1.3221 H   0  0  0  0  0  0  0  0  0  0  0  0
  2  1  1  1  0  0  0
  2  3  1  0  0  0  0
  2  6  1  0  0  0  0
  3  4  1  0  0  0  0
  3  5  1  0  0  0  0
  4  5  1  0  0  0  0
  6  7  1  0  0  0  0
  6 10  1  0  0  0  0
  7  8  2  0  0  0  0
  7  9  1  0  0  0  0
  9 11  1  0  0  0  0
  9 12  1  0  0  0  0
 10 13  1  0  0  0  0
M  END
>  <CHROM.0>
-53.82709270,50.90407938,-58.40875295,-49.68549916,-175.03961800,-59.63889333
-62.25313172,-172.07384508,-163.60905457,161.35642296

>  <CHROM.1>
-139.65013686,-149.61577864,-32.98316021,87.52984354,-168.64614721,19.49958173
-17.98657474,3.43138751,-1.23845608,-0.80794811,-1.32187038

>  <Name>
P21190230

>  <RI>
0

>  <Rbt.Current_Directory>
/home/fstefaniak/projects/zuza/docking/adenine/1Y26

>  <Rbt.Executable>
rbdock ($Id: //depot/dev/client3/rdock/2013.1/src/exe/rbdock.cxx#4 $)

>  <Rbt.Library>
libRbt.so (2013.1, Build901 2013/11/27)

>  <Rbt.Parameter_File>
/home/fstefaniak/progs/rDock//data/scripts/dock_solv.prm

>  <Rbt.Receptor>
1y26.prm

>  <SCORE>
-58.383

>  <SCORE.INTER>
-37.3119

>  <SCORE.INTER.CONST>
1

>  <SCORE.INTER.POLAR>
-5.15047

>  <SCORE.INTER.ROT>
4

>  <SCORE.INTER.SOLV>
14.831

>  <SCORE.INTER.VDW>
-18.9167

>  <SCORE.INTER.norm>
-3.73119

>  <SCORE.INTRA>
0.670815

>  <SCORE.INTRA.DIHEDRAL>
-1.07424

>  <SCORE.INTRA.DIHEDRAL.0>
5.47517

>  <SCORE.INTRA.POLAR>
0.110042

>  <SCORE.INTRA.POLAR.0>
-0.110042

>  <SCORE.INTRA.REPUL>
0

>  <SCORE.INTRA.REPUL.0>
0

>  <SCORE.INTRA.SOLV>
-0.171043

>  <SCORE.INTRA.SOLV.lig_0>
-16.261

>  <SCORE.INTRA.VDW>
0.919316

>  <SCORE.INTRA.VDW.0>
-0.10653

>  <SCORE.INTRA.norm>
0.0670815

>  <SCORE.RESTR>
0

>  <SCORE.RESTR.CAVITY>
0

>  <SCORE.RESTR.norm>
0

>  <SCORE.SYSTEM>
-21.7419

>  <SCORE.SYSTEM.CONST>
0

>  <SCORE.SYSTEM.DIHEDRAL>
6.1911

>  <SCORE.SYSTEM.POLAR>
-3.46295

>  <SCORE.SYSTEM.SOLV>
0.346085

>  <SCORE.SYSTEM.VDW>
-5.13045

>  <SCORE.SYSTEM.norm>
-2.17419

>  <SCORE.heavy>
10

>  <SCORE.norm>
-5.8383

$$$$
P22525129
 OpenBabel12072022103D
libRbt.so/2013.1/901 2013/11/27
 15 15  0  0  0  0  0  0  0  0999 V2000
   17.6544  -18.9839    6.4676 C   0  0  0  0  0  0  0  0  0  0  0  0
   17.8236  -18.8504    4.9782 C   0  0  0  0  0  0  0  0  0  0  0  0
   16.9403  -19.2305    4.2041 O   0  0  0  0  0  0  0  0  0  0  0  0
   19.0912  -18.3153    4.3993 C   0  0  0  0  0  0  0  0  0  0  0  0
   19.9769  -17.6530    5.2709 C   0  0  0  0  0  0  0  0  0  0  0  0
   21.1556  -17.0826    4.8025 C   0  0  0  0  0  0  0  0  0  0  0  0
   21.4765  -17.1757    3.4528 C   0  0  0  0  0  0  0  0  0  0  0  0
   20.6235  -17.8566    2.5796 C   0  0  0  0  0  0  0  0  0  0  0  0
   19.4370  -18.4579    3.0402 C   0  0  0  0  0  0  0  0  0  0  0  0
   18.5663  -19.1615    2.2493 O   0  0  0  0  0  0  0  0  0  0  0  0
   17.9009  -18.4489    1.2118 C   0  0  0  0  0  0  0  0  0  0  0  0
   20.9623  -17.9005    1.2538 O   0  0  0  0  0  0  0  0  0  0  0  0
   19.7487  -17.5184    6.6167 O   0  0  0  0  0  0  0  0  0  0  0  0
   20.7798  -18.7880    0.9028 H   0  0  0  0  0  0  0  0  0  0  0  0
   20.3908  -16.8586    6.9663 H   0  0  0  0  0  0  0  0  0  0  0  0
  1  2  1  0  0  0  0
  2  3  2  0  0  0  0
  2  4  1  0  0  0  0
  4  5  2  0  0  0  0
  4  9  1  0  0  0  0
  5  6  1  0  0  0  0
  5 13  1  0  0  0  0
  6  7  2  0  0  0  0
  7  8  1  0  0  0  0
  8  9  2  0  0  0  0
  8 12  1  0  0  0  0
  9 10  1  0  0  0  0
 10 11  1  0  0  0  0
 12 14  1  0  0  0  0
 13 15  1  0  0  0  0
M  END
>  <CHROM.0>
-53.54552752,-44.68915354,-50.76087553,-53.20821043,-57.75336399,-63.49467487
-60.90362175,-51.81556628,-166.20865752,161.11970276

>  <CHROM.1>
-14.82075822,-167.55906666,139.07002610,114.55319655,19.29462378,-18.22557006
3.86154018,1.96006145,0.44029044,1.46267755

>  <Name>
P22525129

>  <RI>
0

>  <Rbt.Current_Directory>
/home/fstefaniak/projects/zuza/docking/adenine/1Y26

>  <Rbt.Executable>
rbdock ($Id: //depot/dev/client3/rdock/2013.1/src/exe/rbdock.cxx#4 $)

>  <Rbt.Library>
libRbt.so (2013.1, Build901 2013/11/27)

>  <Rbt.Parameter_File>
/home/fstefaniak/progs/rDock//data/scripts/dock_solv.prm

>  <Rbt.Receptor>
1y26.prm

>  <SCORE>
-36.6887

>  <SCORE.INTER>
-17.2272

>  <SCORE.INTER.CONST>
1

>  <SCORE.INTER.POLAR>
-3.92594

>  <SCORE.INTER.ROT>
2

>  <SCORE.INTER.SOLV>
15.1767

>  <SCORE.INTER.VDW>
-8.39054

>  <SCORE.INTER.norm>
-1.32517

>  <SCORE.INTRA>
2.00766

>  <SCORE.INTRA.DIHEDRAL>
2.55698

>  <SCORE.INTRA.DIHEDRAL.0>
4.43341

>  <SCORE.INTRA.POLAR>
0.008947

>  <SCORE.INTRA.POLAR.0>
-0.008947

>  <SCORE.INTRA.REPUL>
0

>  <SCORE.INTRA.REPUL.0>
0

>  <SCORE.INTRA.SOLV>
0.0495778

>  <SCORE.INTRA.SOLV.lig_0>
-13.2835

>  <SCORE.INTRA.VDW>
0.67396

>  <SCORE.INTRA.VDW.0>
4.13314

>  <SCORE.INTRA.norm>
0.154435

>  <SCORE.RESTR>
0

>  <SCORE.RESTR.CAVITY>
0

>  <SCORE.RESTR.norm>
0

>  <SCORE.SYSTEM>
-21.4692

>  <SCORE.SYSTEM.CONST>
0

>  <SCORE.SYSTEM.DIHEDRAL>
6.67345

>  <SCORE.SYSTEM.POLAR>
-3.45036

>  <SCORE.SYSTEM.SOLV>
0.663021

>  <SCORE.SYSTEM.VDW>
-5.25706

>  <SCORE.SYSTEM.norm>
-1.65147

>  <SCORE.heavy>
13

>  <SCORE.norm>
-2.8222

$$$$
P22525129
 OpenBabel12072022103D
libRbt.so/2013.1/901 2013/11/27
 15 15  0  0  0  0  0  0  0  0999 V2000
   17.6974  -19.0609    6.3563 C   0  0  0  0  0  0  0  0  0  0  0  0
   17.8443  -18.7770    4.8857 C   0  0  0  0  0  0  0  0  0  0  0  0
   16.9246  -19.0203    4.0990 O   0  0  0  0  0  0  0  0  0  0  0  0
   19.1296  -18.2554    4.3340 C   0  0  0  0  0  0  0  0  0  0  0  0
   19.9845  -17.5658    5.2151 C   0  0  0  0  0  0  0  0  0  0  0  0
   21.1773  -17.0061    4.7698 C   0  0  0  0  0  0  0  0  0  0  0  0
   21.5432  -17.1373    3.4348 C   0  0  0  0  0  0  0  0  0  0  0  0
   20.7210  -17.8455    2.5538 C   0  0  0  0  0  0  0  0  0  0  0  0
   19.5208  -18.4365    2.9919 C   0  0  0  0  0  0  0  0  0  0  0  0
   18.6782  -19.1649    2.1932 O   0  0  0  0  0  0  0  0  0  0  0  0
   17.8764  -18.4482    1.2603 C   0  0  0  0  0  0  0  0  0  0  0  0
   21.1039  -17.9269    1.2419 O   0  0  0  0  0  0  0  0  0  0  0  0
   19.7114  -17.3929    6.5480 O   0  0  0  0  0  0  0  0  0  0  0  0
   20.8934  -18.8109    0.8979 H   0  0  0  0  0  0  0  0  0  0  0  0
   20.5685  -17.2716    7.0177 H   0  0  0  0  0  0  0  0  0  0  0  0
  1  2  1  0  0  0  0
  2  3  2  0  0  0  0
  2  4  1  0  0  0  0
  4  5  2  0  0  0  0
  4  9  1  0  0  0  0
  5  6  1  0  0  0  0
  5 13  1  0  0  0  0
  6  7  2  0  0  0  0
  7  8  1  0  0  0  0
  8  9  2  0  0  0  0
  8 12  1  0  0  0  0
  9 10  1  0  0  0  0
 10 11  1  0  0  0  0
 12 14  1  0  0  0  0
 13 15  1  0  0  0  0
M  END
>  <CHROM.0>
-55.74677874,44.37747604,-43.74918796,-50.96407591,-55.80182563,-178.61059771
-60.70694985,64.23708866,-164.47913346,161.41408619

>  <CHROM.1>
-23.97844330,154.66491249,141.91418082,104.22802309,19.33804158,-18.18253020
3.81278013,2.02287132,0.42504603,1.44056621

>  <Name>
P22525129

>  <RI>
0

>  <Rbt.Current_Directory>
/home/fstefaniak/projects/zuza/docking/adenine/1Y26

>  <Rbt.Executable>
rbdock ($Id: //depot/dev/client3/rdock/2013.1/src/exe/rbdock.cxx#4 $)

>  <Rbt.Library>
libRbt.so (2013.1, Build901 2013/11/27)

>  <Rbt.Parameter_File>
/home/fstefaniak/progs/rDock//data/scripts/dock_solv.prm

>  <Rbt.Receptor>
1y26.prm

>  <SCORE>
-36.3641

>  <SCORE.INTER>
-17.8727

>  <SCORE.INTER.CONST>
1

>  <SCORE.INTER.POLAR>
-3.77772

>  <SCORE.INTER.ROT>
2

>  <SCORE.INTER.SOLV>
15.0669

>  <SCORE.INTER.VDW>
-9.27834

>  <SCORE.INTER.norm>
-1.37482

>  <SCORE.INTRA>
1.44718

>  <SCORE.INTRA.DIHEDRAL>
4.75704

>  <SCORE.INTRA.DIHEDRAL.0>
4.43341

>  <SCORE.INTRA.POLAR>
0.008947

>  <SCORE.INTRA.POLAR.0>
-0.008947

>  <SCORE.INTRA.REPUL>
0

>  <SCORE.INTRA.REPUL.0>
0

>  <SCORE.INTRA.SOLV>
0.0270369

>  <SCORE.INTRA.SOLV.lig_0>
-13.2835

>  <SCORE.INTRA.VDW>
-0.975277

>  <SCORE.INTRA.VDW.0>
4.13314

>  <SCORE.INTRA.norm>
0.111322

>  <SCORE.RESTR>
0

>  <SCORE.RESTR.CAVITY>
0

>  <SCORE.RESTR.norm>
0

>  <SCORE.SYSTEM>
-19.9387

>  <SCORE.SYSTEM.CONST>
0

>  <SCORE.SYSTEM.DIHEDRAL>
7.48612

>  <SCORE.SYSTEM.POLAR>
-3.57217

>  <SCORE.SYSTEM.SOLV>
0.389061

>  <SCORE.SYSTEM.VDW>
-4.01027

>  <SCORE.SYSTEM.norm>
-1.53374

>  <SCORE.heavy>
13

>  <SCORE.norm>
-2.79724

$$$$
P22525129
 OpenBabel12072022103D
libRbt.so/2013.1/901 2013/11/27
 15 15  0  0  0  0  0  0  0  0999 V2000
   25.5223  -16.9392    5.3162 C   0  0  0  0  0  0  0  0  0  0  0  0
   24.4713  -17.0442    4.2441 C   0  0  0  0  0  0  0  0  0  0  0  0
   24.5271  -17.9315    3.3876 O   0  0  0  0  0  0  0  0  0  0  0  0
   23.3723  -16.0383    4.1520 C   0  0  0  0  0  0  0  0  0  0  0  0
   23.6539  -14.7251    4.5752 C   0  0  0  0  0  0  0  0  0  0  0  0
   22.6717  -13.7404    4.5681 C   0  0  0  0  0  0  0  0  0  0  0  0
   21.3906  -14.0492    4.1245 C   0  0  0  0  0  0  0  0  0  0  0  0
   21.1026  -15.3398    3.6717 C   0  0  0  0  0  0  0  0  0  0  0  0
   22.0900  -16.3430    3.6522 C   0  0  0  0  0  0  0  0  0  0  0  0
   21.8882  -17.6211    3.2000 O   0  0  0  0  0  0  0  0  0  0  0  0
   20.6055  -18.1990    3.4182 C   0  0  0  0  0  0  0  0  0  0  0  0
   19.8218  -15.6094    3.2703 O   0  0  0  0  0  0  0  0  0  0  0  0
   24.8881  -14.3262    5.0211 O   0  0  0  0  0  0  0  0  0  0  0  0
   19.2028  -15.0475    3.7656 H   0  0  0  0  0  0  0  0  0  0  0  0
   24.7643  -13.5122    5.5615 H   0  0  0  0  0  0  0  0  0  0  0  0
  1  2  1  0  0  0  0
  2  3  2  0  0  0  0
  2  4  1  0  0  0  0
  4  5  2  0  0  0  0
  4  9  1  0  0  0  0
  5  6  1  0  0  0  0
  5 13  1  0  0  0  0
  6  7  2  0  0  0  0
  7  8  1  0  0  0  0
  8  9  2  0  0  0  0
  8 12  1  0  0  0  0
  9 10  1  0  0  0  0
 10 11  1  0  0  0  0
 12 14  1  0  0  0  0
 13 15  1  0  0  0  0
M  END
>  <CHROM.0>
-49.65479481,56.08817444,-56.02128127,-53.84054827,-171.86896670,-175.02313899
-58.43843947,62.56204627,-166.79062697,160.59530724

>  <CHROM.1>
30.68700817,-158.95266136,-29.59481156,144.52892100,22.76356412,-16.03616823
4.03845018,-0.11819969,0.27139329,-2.89395806

>  <Name>
P22525129

>  <RI>
0

>  <Rbt.Current_Directory>
/home/fstefaniak/projects/zuza/docking/adenine/1Y26

>  <Rbt.Executable>
rbdock ($Id: //depot/dev/client3/rdock/2013.1/src/exe/rbdock.cxx#4 $)

>  <Rbt.Library>
libRbt.so (2013.1, Build901 2013/11/27)

>  <Rbt.Parameter_File>
/home/fstefaniak/progs/rDock//data/scripts/dock_solv.prm

>  <Rbt.Receptor>
1y26.prm

>  <SCORE>
-36.1276

>  <SCORE.INTER>
-17.2917

>  <SCORE.INTER.CONST>
1

>  <SCORE.INTER.POLAR>
-2.54181

>  <SCORE.INTER.ROT>
2

>  <SCORE.INTER.SOLV>
12.922

>  <SCORE.INTER.VDW>
-12.2957

>  <SCORE.INTER.norm>
-1.33013

>  <SCORE.INTRA>
1.70494

>  <SCORE.INTRA.DIHEDRAL>
2.5125

>  <SCORE.INTRA.DIHEDRAL.0>
4.43341

>  <SCORE.INTRA.POLAR>
0.008947

>  <SCORE.INTRA.POLAR.0>
-0.008947

>  <SCORE.INTRA.REPUL>
0

>  <SCORE.INTRA.REPUL.0>
0

>  <SCORE.INTRA.SOLV>
0.0391831

>  <SCORE.INTRA.SOLV.lig_0>
-13.2835

>  <SCORE.INTRA.VDW>
0.398677

>  <SCORE.INTRA.VDW.0>
4.13314

>  <SCORE.INTRA.norm>
0.131149

>  <SCORE.RESTR>
0

>  <SCORE.RESTR.CAVITY>
0

>  <SCORE.RESTR.norm>
0

>  <SCORE.SYSTEM>
-20.5409

>  <SCORE.SYSTEM.CONST>
0

>  <SCORE.SYSTEM.DIHEDRAL>
5.70766

>  <SCORE.SYSTEM.POLAR>
-3.43898

>  <SCORE.SYSTEM.SOLV>
0.177945

>  <SCORE.SYSTEM.VDW>
-4.19254

>  <SCORE.SYSTEM.norm>
-1.58007

>  <SCORE.heavy>
13

>  <SCORE.norm>
-2.77905

$$$$
P22525140
 OpenBabel12072022103D
libRbt.so/2013.1/901 2013/11/27
 15 15  0  0  0  0  0  0  0  0999 V2000
   19.2181  -18.8851    7.1969 C   0  0  0  0  0  0  0  0  0  0  0  0
   18.3675  -18.7465    5.9628 C   0  0  0  0  0  0  0  0  0  0  0  0
   17.1484  -18.9139    6.0100 O   0  0  0  0  0  0  0  0  0  0  0  0
   19.0064  -18.4378    4.6518 C   0  0  0  0  0  0  0  0  0  0  0  0
   20.3763  -18.1086    4.6753 C   0  0  0  0  0  0  0  0  0  0  0  0
   21.0483  -17.7975    3.4947 C   0  0  0  0  0  0  0  0  0  0  0  0
   20.3378  -17.8277    2.2910 C   0  0  0  0  0  0  0  0  0  0  0  0
   18.9901  -18.1644    2.2428 C   0  0  0  0  0  0  0  0  0  0  0  0
   18.3244  -18.4750    3.4280 C   0  0  0  0  0  0  0  0  0  0  0  0
   17.0099  -18.8424    3.3687 O   0  0  0  0  0  0  0  0  0  0  0  0
   20.9666  -17.5273    1.1129 O   0  0  0  0  0  0  0  0  0  0  0  0
   22.3696  -17.4527    3.3796 O   0  0  0  0  0  0  0  0  0  0  0  0
   22.8226  -16.3828    4.2034 C   0  0  0  0  0  0  0  0  0  0  0  0
   16.5635  -18.3290    2.6727 H   0  0  0  0  0  0  0  0  0  0  0  0
   20.6062  -18.1623    0.4622 H   0  0  0  0  0  0  0  0  0  0  0  0
  1  2  1  0  0  0  0
  2  3  2  0  0  0  0
  2  4  1  0  0  0  0
  4  5  2  0  0  0  0
  4  9  1  0  0  0  0
  5  6  1  0  0  0  0
  6  7  2  0  0  0  0
  6 12  1  0  0  0  0
  7  8  1  0  0  0  0
  7 11  1  0  0  0  0
  8  9  2  0  0  0  0
  9 10  1  0  0  0  0
 10 14  1  0  0  0  0
 11 15  1  0  0  0  0
 12 13  1  0  0  0  0
M  END
>  <CHROM.0>
-49.99330387,-59.52352240,-55.51235238,-51.92738744,-57.70298750,-63.30027953
-56.90496404,-50.89987738,-168.03092891,160.94678493

>  <CHROM.1>
-8.50089893,-52.99794145,140.40213091,145.05569325,19.69519409,-18.11115632
3.97809948,-2.52269983,-0.32580413,-1.48384586

>  <Name>
P22525140

>  <RI>
0

>  <Rbt.Current_Directory>
/home/fstefaniak/projects/zuza/docking/adenine/1Y26

>  <Rbt.Executable>
rbdock ($Id: //depot/dev/client3/rdock/2013.1/src/exe/rbdock.cxx#4 $)

>  <Rbt.Library>
libRbt.so (2013.1, Build901 2013/11/27)

>  <Rbt.Parameter_File>
/home/fstefaniak/progs/rDock//data/scripts/dock_solv.prm

>  <Rbt.Receptor>
1y26.prm

>  <SCORE>
-40.2242

>  <SCORE.INTER>
-20.0674

>  <SCORE.INTER.CONST>
1

>  <SCORE.INTER.POLAR>
-2.74799

>  <SCORE.INTER.ROT>
2

>  <SCORE.INTER.SOLV>
14.8484

>  <SCORE.INTER.VDW>
-14.1011

>  <SCORE.INTER.norm>
-1.54364

>  <SCORE.INTRA>
2.07733

>  <SCORE.INTRA.DIHEDRAL>
4.15696

>  <SCORE.INTRA.DIHEDRAL.0>
2.73165

>  <SCORE.INTRA.POLAR>
0.336957

>  <SCORE.INTRA.POLAR.0>
-0.336957

>  <SCORE.INTRA.REPUL>
0

>  <SCORE.INTRA.REPUL.0>
0

>  <SCORE.INTRA.SOLV>
0.153095

>  <SCORE.INTRA.SOLV.lig_0>
-14.039

>  <SCORE.INTRA.VDW>
-1.22335

>  <SCORE.INTRA.VDW.0>
3.54349

>  <SCORE.INTRA.norm>
0.159795

>  <SCORE.RESTR>
0

>  <SCORE.RESTR.CAVITY>
0

>  <SCORE.RESTR.norm>
0

>  <SCORE.SYSTEM>
-22.2342

>  <SCORE.SYSTEM.CONST>
0

>  <SCORE.SYSTEM.DIHEDRAL>
5.60666

>  <SCORE.SYSTEM.POLAR>
-3.47201

>  <SCORE.SYSTEM.SOLV>
0.66529

>  <SCORE.SYSTEM.VDW>
-5.34008

>  <SCORE.SYSTEM.norm>
-1.71032

>  <SCORE.heavy>
13

>  <SCORE.norm>
-3.09417

$$$$
P22525140
 OpenBabel12072022103D
libRbt.so/2013.1/901 2013/11/27
 15 15  0  0  0  0  0  0  0  0999 V2000
   19.2291  -18.8392    7.1269 C   0  0  0  0  0  0  0  0  0  0  0  0
   18.3832  -18.7166    5.8879 C   0  0  0  0  0  0  0  0  0  0  0  0
   17.1628  -18.8743    5.9342 O   0  0  0  0  0  0  0  0  0  0  0  0
   19.0283  -18.4360    4.5735 C   0  0  0  0  0  0  0  0  0  0  0  0
   20.4036  -18.1304    4.5940 C   0  0  0  0  0  0  0  0  0  0  0  0
   21.0817  -17.8464    3.4101 C   0  0  0  0  0  0  0  0  0  0  0  0
   20.3716  -17.8799    2.2062 C   0  0  0  0  0  0  0  0  0  0  0  0
   19.0184  -18.1938    2.1612 C   0  0  0  0  0  0  0  0  0  0  0  0
   18.3465  -18.4774    3.3497 C   0  0  0  0  0  0  0  0  0  0  0  0
   17.0259  -18.8227    3.2940 O   0  0  0  0  0  0  0  0  0  0  0  0
   21.0063  -17.6058    1.0248 O   0  0  0  0  0  0  0  0  0  0  0  0
   22.4089  -17.5260    3.2916 O   0  0  0  0  0  0  0  0  0  0  0  0
   22.8782  -16.4489    4.0967 C   0  0  0  0  0  0  0  0  0  0  0  0
   16.5915  -18.3193    2.5832 H   0  0  0  0  0  0  0  0  0  0  0  0
   20.3571  -17.8295    0.3285 H   0  0  0  0  0  0  0  0  0  0  0  0
  1  2  1  0  0  0  0
  2  3  2  0  0  0  0
  2  4  1  0  0  0  0
  4  5  2  0  0  0  0
  4  9  1  0  0  0  0
  5  6  1  0  0  0  0
  6  7  2  0  0  0  0
  6 12  1  0  0  0  0
  7  8  1  0  0  0  0
  7 11  1  0  0  0  0
  8  9  2  0  0  0  0
  9 10  1  0  0  0  0
 10 14  1  0  0  0  0
 11 15  1  0  0  0  0
 12 13  1  0  0  0  0
M  END
>  <CHROM.0>
-47.51311951,43.36023669,-53.68240437,-52.11454062,-56.18780711,-173.50825981
-55.93315379,-176.33217969,-167.57127376,160.59110410

>  <CHROM.1>
-7.84668307,-53.31992972,171.18436907,145.79748354,19.72143759,-18.12744772
3.89554549,-2.52362958,-0.30933577,-1.49505986

>  <Name>
P22525140

>  <RI>
0

>  <Rbt.Current_Directory>
/home/fstefaniak/projects/zuza/docking/adenine/1Y26

>  <Rbt.Executable>
rbdock ($Id: //depot/dev/client3/rdock/2013.1/src/exe/rbdock.cxx#4 $)

>  <Rbt.Library>
libRbt.so (2013.1, Build901 2013/11/27)

>  <Rbt.Parameter_File>
/home/fstefaniak/progs/rDock//data/scripts/dock_solv.prm

>  <Rbt.Receptor>
1y26.prm

>  <SCORE>
-39.2316

>  <SCORE.INTER>
-19.3481

>  <SCORE.INTER.CONST>
1

>  <SCORE.INTER.POLAR>
-2.69446

>  <SCORE.INTER.ROT>
2

>  <SCORE.INTER.SOLV>
14.801

>  <SCORE.INTER.VDW>
-13.7842

>  <SCORE.INTER.norm>
-1.48831

>  <SCORE.INTRA>
1.66591

>  <SCORE.INTRA.DIHEDRAL>
2.25655

>  <SCORE.INTRA.DIHEDRAL.0>
2.73165

>  <SCORE.INTRA.POLAR>
0.336957

>  <SCORE.INTRA.POLAR.0>
-0.336957

>  <SCORE.INTRA.REPUL>
0

>  <SCORE.INTRA.REPUL.0>
0

>  <SCORE.INTRA.SOLV>
0.146419

>  <SCORE.INTRA.SOLV.lig_0>
-14.039

>  <SCORE.INTRA.VDW>
-0.681232

>  <SCORE.INTRA.VDW.0>
3.54349

>  <SCORE.INTRA.norm>
0.128147

>  <SCORE.RESTR>
0

>  <SCORE.RESTR.CAVITY>
0

>  <SCORE.RESTR.norm>
0

>  <SCORE.SYSTEM>
-21.5494

>  <SCORE.SYSTEM.CONST>
0

>  <SCORE.SYSTEM.DIHEDRAL>
7.1865

>  <SCORE.SYSTEM.POLAR>
-3.61052

>  <SCORE.SYSTEM.SOLV>
0.422384

>  <SCORE.SYSTEM.VDW>
-4.86751

>  <SCORE.SYSTEM.norm>
-1.65765

>  <SCORE.heavy>
13

>  <SCORE.norm>
-3.01781

$$$$
P22525140
 OpenBabel12072022103D
libRbt.so/2013.1/901 2013/11/27
 15 15  0  0  0  0  0  0  0  0999 V2000
   19.8046  -17.2775    4.3546 C   0  0  0  0  0  0  0  0  0  0  0  0
   21.0603  -17.2600    3.5249 C   0  0  0  0  0  0  0  0  0  0  0  0
   21.2182  -18.0521    2.5952 O   0  0  0  0  0  0  0  0  0  0  0  0
   22.1507  -16.2965    3.8491 C   0  0  0  0  0  0  0  0  0  0  0  0
   21.7576  -15.0302    4.3258 C   0  0  0  0  0  0  0  0  0  0  0  0
   22.7136  -14.0672    4.6437 C   0  0  0  0  0  0  0  0  0  0  0  0
   24.0656  -14.3876    4.4877 C   0  0  0  0  0  0  0  0  0  0  0  0
   24.4761  -15.6354    4.0335 C   0  0  0  0  0  0  0  0  0  0  0  0
   23.5140  -16.5942    3.7179 C   0  0  0  0  0  0  0  0  0  0  0  0
   23.9255  -17.8310    3.3090 O   0  0  0  0  0  0  0  0  0  0  0  0
   25.0308  -13.4655    4.7902 O   0  0  0  0  0  0  0  0  0  0  0  0
   22.4675  -12.8005    5.1050 O   0  0  0  0  0  0  0  0  0  0  0  0
   22.1626  -11.8137    4.1243 C   0  0  0  0  0  0  0  0  0  0  0  0
   24.7863  -17.7520    2.8616 H   0  0  0  0  0  0  0  0  0  0  0  0
   25.8801  -13.9246    4.6343 H   0  0  0  0  0  0  0  0  0  0  0  0
  1  2  1  0  0  0  0
  2  3  2  0  0  0  0
  2  4  1  0  0  0  0
  4  5  2  0  0  0  0
  4  9  1  0  0  0  0
  5  6  1  0  0  0  0
  6  7  2  0  0  0  0
  6 12  1  0  0  0  0
  7  8  1  0  0  0  0
  7 11  1  0  0  0  0
  8  9  2  0  0  0  0
  9 10  1  0  0  0  0
 10 14  1  0  0  0  0
 11 15  1  0  0  0  0
 12 13  1  0  0  0  0
M  END
>  <CHROM.0>
-48.61719223,50.40744424,-52.25174112,-51.70282170,-53.99421908,-60.90344715
-58.93968291,179.73674209,-166.17992453,159.89175666

>  <CHROM.1>
-35.16551924,-82.83272922,178.01045613,152.18051036,22.66745988,-15.40828542
4.05952067,1.94294389,-0.01337815,-2.87203300

>  <Name>
P22525140

>  <RI>
0

>  <Rbt.Current_Directory>
/home/fstefaniak/projects/zuza/docking/adenine/1Y26

>  <Rbt.Executable>
rbdock ($Id: //depot/dev/client3/rdock/2013.1/src/exe/rbdock.cxx#4 $)

>  <Rbt.Library>
libRbt.so (2013.1, Build901 2013/11/27)

>  <Rbt.Parameter_File>
/home/fstefaniak/progs/rDock//data/scripts/dock_solv.prm

>  <Rbt.Receptor>
1y26.prm

>  <SCORE>
-39.0931

>  <SCORE.INTER>
-20.141

>  <SCORE.INTER.CONST>
1

>  <SCORE.INTER.POLAR>
-1.83251

>  <SCORE.INTER.ROT>
2

>  <SCORE.INTER.SOLV>
9.12743

>  <SCORE.INTER.VDW>
-15.2948

>  <SCORE.INTER.norm>
-1.5493

>  <SCORE.INTRA>
2.86434

>  <SCORE.INTRA.DIHEDRAL>
7.24956

>  <SCORE.INTRA.DIHEDRAL.0>
2.73165

>  <SCORE.INTRA.POLAR>
0.336957

>  <SCORE.INTRA.POLAR.0>
-0.336957

>  <SCORE.INTRA.REPUL>
0

>  <SCORE.INTRA.REPUL.0>
0

>  <SCORE.INTRA.SOLV>
0.206295

>  <SCORE.INTRA.SOLV.lig_0>
-14.039

>  <SCORE.INTRA.VDW>
-2.00924

>  <SCORE.INTRA.VDW.0>
3.54349

>  <SCORE.INTRA.norm>
0.220334

>  <SCORE.RESTR>
0.117908

>  <SCORE.RESTR.CAVITY>
0.117908

>  <SCORE.RESTR.norm>
0.00906982

>  <SCORE.SYSTEM>
-21.9344

>  <SCORE.SYSTEM.CONST>
0

>  <SCORE.SYSTEM.DIHEDRAL>
6.40722

>  <SCORE.SYSTEM.POLAR>
-3.57723

>  <SCORE.SYSTEM.SOLV>
0.536323

>  <SCORE.SYSTEM.VDW>
-5.01332

>  <SCORE.SYSTEM.norm>
-1.68726

>  <SCORE.heavy>
13

>  <SCORE.norm>
-3.00716

$$$$
P23843064
 OpenBabel12072022103D
libRbt.so/2013.1/901 2013/11/27
 15 15  0  0  0  0  0  0  0  0999 V2000
   21.0029  -16.9925    4.5272 C   0  0  0  0  0  0  0  0  0  0  0  0
   22.0086  -15.9116    4.4433 C   0  0  0  0  0  0  0  0  0  0  0  0
   23.3923  -15.8658    4.5026 C   0  0  0  0  0  0  0  0  0  0  0  0
   23.7246  -14.4749    4.3541 C   0  0  0  0  0  0  0  0  0  0  0  0
   22.5379  -13.7862    4.2321 C   0  0  0  0  0  0  0  0  0  0  0  0
   21.4952  -14.6623    4.2765 O   0  0  0  0  0  0  0  0  0  0  0  0
   22.1968  -12.3574    4.0614 C   0  0  0  0  0  0  0  0  0  0  0  0
   25.0808  -13.8949    4.3260 C   0  0  0  0  0  0  0  0  0  0  0  0
   25.8466  -14.0942    5.3034 O   0  0  0  0  0  0  0  0  0  0  0  0
   25.3266  -13.1800    3.2941 O   0  5  0  0  0  0  0  0  0  0  0  0
   24.3342  -16.9958    4.7104 C   0  0  0  0  0  0  0  0  0  0  0  0
   25.5976  -16.5847    5.3347 N   0  3  0  0  0  0  0  0  0  0  0  0
   25.4665  -16.1284    6.2375 H   0  0  0  0  0  0  0  0  0  0  0  0
   26.0673  -17.4981    5.5943 H   0  0  0  0  0  0  0  0  0  0  0  0
   26.2556  -16.0988    4.7318 H   0  0  0  0  0  0  0  0  0  0  0  0
  1  2  1  0  0  0  0
  2  3  2  0  0  0  0
  2  6  1  0  0  0  0
  3  4  1  0  0  0  0
  3 11  1  0  0  0  0
  4  5  2  0  0  0  0
  4  8  1  0  0  0  0
  5  6  1  0  0  0  0
  5  7  1  0  0  0  0
  8  9  2  0  0  0  0
  8 10  1  0  0  0  0
 11 12  1  0  0  0  0
 12 13  1  0  0  0  0
 12 14  1  0  0  0  0
 12 15  1  0  0  0  0
M  CHG  2  10  -1  12   1
M  END
>  <CHROM.0>
-48.60991751,-59.85658573,-62.86897671,-54.19691607,-173.26483550,-175.26760238
-59.91891602,-176.56770776,-165.66611668,59.91554232

>  <CHROM.1>
-152.84305721,-57.33545990,57.78333570,23.59994271,-14.90161542,4.46348466
-2.82717109,-0.11666728,-0.22992265

>  <Name>
P23843064

>  <RI>
0

>  <Rbt.Current_Directory>
/home/fstefaniak/projects/zuza/docking/adenine/1Y26

>  <Rbt.Executable>
rbdock ($Id: //depot/dev/client3/rdock/2013.1/src/exe/rbdock.cxx#4 $)

>  <Rbt.Library>
libRbt.so (2013.1, Build901 2013/11/27)

>  <Rbt.Parameter_File>
/home/fstefaniak/progs/rDock//data/scripts/dock_solv.prm

>  <Rbt.Receptor>
1y26.prm

>  <SCORE>
-38.2539

>  <SCORE.INTER>
-24.1924

>  <SCORE.INTER.CONST>
1

>  <SCORE.INTER.POLAR>
-4.09502

>  <SCORE.INTER.ROT>
2

>  <SCORE.INTER.SOLV>
24.8172

>  <SCORE.INTER.VDW>
-15.684

>  <SCORE.INTER.norm>
-2.01603

>  <SCORE.INTRA>
2.97899

>  <SCORE.INTRA.DIHEDRAL>
7.79355

>  <SCORE.INTRA.DIHEDRAL.0>
1.55387

>  <SCORE.INTRA.POLAR>
0.352815

>  <SCORE.INTRA.POLAR.0>
-0.352815

>  <SCORE.INTRA.REPUL>
0

>  <SCORE.INTRA.REPUL.0>
0

>  <SCORE.INTRA.SOLV>
-0.439977

>  <SCORE.INTRA.SOLV.lig_0>
-45.6611

>  <SCORE.INTRA.VDW>
-1.89737

>  <SCORE.INTRA.VDW.0>
0.938716

>  <SCORE.INTRA.norm>
0.248249

>  <SCORE.RESTR>
0.978814

>  <SCORE.RESTR.CAVITY>
0.978814

>  <SCORE.RESTR.norm>
0.0815678

>  <SCORE.SYSTEM>
-18.0192

>  <SCORE.SYSTEM.CONST>
0

>  <SCORE.SYSTEM.DIHEDRAL>
4.1838

>  <SCORE.SYSTEM.POLAR>
-2.55756

>  <SCORE.SYSTEM.SOLV>
0.0750389

>  <SCORE.SYSTEM.VDW>
-4.90724

>  <SCORE.SYSTEM.norm>
-1.5016

>  <SCORE.heavy>
12

>  <SCORE.norm>
-3.18782

$$$$
P23843064
 OpenBabel12072022103D
libRbt.so/2013.1/901 2013/11/27
 15 15  0  0  0  0  0  0  0  0999 V2000
   21.1043  -16.9040    3.9165 C   0  0  0  0  0  0  0  0  0  0  0  0
   22.0742  -15.7991    4.0759 C   0  0  0  0  0  0  0  0  0  0  0  0
   23.4512  -15.7280    4.2144 C   0  0  0  0  0  0  0  0  0  0  0  0
   23.7408  -14.3244    4.3294 C   0  0  0  0  0  0  0  0  0  0  0  0
   22.5376  -13.6566    4.2683 C   0  0  0  0  0  0  0  0  0  0  0  0
   21.5254  -14.5540    4.1041 O   0  0  0  0  0  0  0  0  0  0  0  0
   22.1548  -12.2296    4.3331 C   0  0  0  0  0  0  0  0  0  0  0  0
   25.0757  -13.7129    4.4742 C   0  0  0  0  0  0  0  0  0  0  0  0
   25.3618  -12.7075    3.7751 O   0  0  0  0  0  0  0  0  0  0  0  0
   25.8493  -14.3241    5.2892 O   0  5  0  0  0  0  0  0  0  0  0  0
   24.4215  -16.8515    4.2697 C   0  0  0  0  0  0  0  0  0  0  0  0
   25.3310  -16.7706    5.4192 N   0  3  0  0  0  0  0  0  0  0  0  0
   25.8756  -17.6219    5.5577 H   0  0  0  0  0  0  0  0  0  0  0  0
   26.0623  -16.0645    5.1214 H   0  0  0  0  0  0  0  0  0  0  0  0
   24.9311  -16.4062    6.2794 H   0  0  0  0  0  0  0  0  0  0  0  0
  1  2  1  0  0  0  0
  2  3  2  0  0  0  0
  2  6  1  0  0  0  0
  3  4  1  0  0  0  0
  3 11  1  0  0  0  0
  4  5  2  0  0  0  0
  4  8  1  0  0  0  0
  5  6  1  0  0  0  0
  5  7  1  0  0  0  0
  8  9  2  0  0  0  0
  8 10  1  0  0  0  0
 11 12  1  0  0  0  0
 12 13  1  0  0  0  0
 12 14  1  0  0  0  0
 12 15  1  0  0  0  0
M  CHG  2  10  -1  12   1
M  END
>  <CHROM.0>
-52.35060591,-175.94558963,-54.12247682,-52.72477412,-175.43142017,-58.57441057
-58.03273037,-54.63922551,-166.61685925,63.39276956

>  <CHROM.1>
-128.89920185,134.64748236,169.19028252,23.60096011,-14.80424182,4.39878873
-2.74308629,-0.19678476,-0.09152051

>  <Name>
P23843064

>  <RI>
0

>  <Rbt.Current_Directory>
/home/fstefaniak/projects/zuza/docking/adenine/1Y26

>  <Rbt.Executable>
rbdock ($Id: //depot/dev/client3/rdock/2013.1/src/exe/rbdock.cxx#4 $)

>  <Rbt.Library>
libRbt.so (2013.1, Build901 2013/11/27)

>  <Rbt.Parameter_File>
/home/fstefaniak/progs/rDock//data/scripts/dock_solv.prm

>  <Rbt.Receptor>
1y26.prm

>  <SCORE>
-38.1014

>  <SCORE.INTER>
-22.0286

>  <SCORE.INTER.CONST>
1

>  <SCORE.INTER.POLAR>
-3.45563

>  <SCORE.INTER.ROT>
2

>  <SCORE.INTER.SOLV>
23.7455

>  <SCORE.INTER.VDW>
-16.0155

>  <SCORE.INTER.norm>
-1.83572

>  <SCORE.INTRA>
0.888676

>  <SCORE.INTRA.DIHEDRAL>
6.00648

>  <SCORE.INTRA.DIHEDRAL.0>
1.55387

>  <SCORE.INTRA.POLAR>
0.0529834

>  <SCORE.INTRA.POLAR.0>
-0.352815

>  <SCORE.INTRA.REPUL>
0

>  <SCORE.INTRA.REPUL.0>
0

>  <SCORE.INTRA.SOLV>
-0.740227

>  <SCORE.INTRA.SOLV.lig_0>
-45.6611

>  <SCORE.INTRA.VDW>
-1.92459

>  <SCORE.INTRA.VDW.0>
0.938716

>  <SCORE.INTRA.norm>
0.0740564

>  <SCORE.RESTR>
1.00215

>  <SCORE.RESTR.CAVITY>
1.00215

>  <SCORE.RESTR.norm>
0.0835127

>  <SCORE.SYSTEM>
-17.9636

>  <SCORE.SYSTEM.CONST>
0

>  <SCORE.SYSTEM.DIHEDRAL>
3.97229

>  <SCORE.SYSTEM.POLAR>
-2.59381

>  <SCORE.SYSTEM.SOLV>
0.384972

>  <SCORE.SYSTEM.VDW>
-4.7821

>  <SCORE.SYSTEM.norm>
-1.49696

>  <SCORE.heavy>
12

>  <SCORE.norm>
-3.17511

$$$$
P23843064
 OpenBabel12072022103D
libRbt.so/2013.1/901 2013/11/27
 15 15  0  0  0  0  0  0  0  0999 V2000
   21.4147  -16.6585    4.2560 C   0  0  0  0  0  0  0  0  0  0  0  0
   22.3456  -15.5181    4.3964 C   0  0  0  0  0  0  0  0  0  0  0  0
   23.7250  -15.3858    4.4045 C   0  0  0  0  0  0  0  0  0  0  0  0
   23.9622  -13.9797    4.5879 C   0  0  0  0  0  0  0  0  0  0  0  0
   22.7305  -13.3717    4.6910 C   0  0  0  0  0  0  0  0  0  0  0  0
   21.7478  -14.3071    4.5643 O   0  0  0  0  0  0  0  0  0  0  0  0
   22.2932  -11.9733    4.8917 C   0  0  0  0  0  0  0  0  0  0  0  0
   25.2763  -13.3114    4.6439 C   0  0  0  0  0  0  0  0  0  0  0  0
   25.4224  -12.2093    4.0561 O   0  0  0  0  0  0  0  0  0  0  0  0
   26.1777  -13.9734    5.2647 O   0  5  0  0  0  0  0  0  0  0  0  0
   24.7449  -16.4596    4.2868 C   0  0  0  0  0  0  0  0  0  0  0  0
   25.4986  -16.6762    5.5277 N   0  3  0  0  0  0  0  0  0  0  0  0
   26.0218  -17.5518    5.5290 H   0  0  0  0  0  0  0  0  0  0  0  0
   26.2613  -15.9417    5.4990 H   0  0  0  0  0  0  0  0  0  0  0  0
   24.9907  -16.5116    6.3924 H   0  0  0  0  0  0  0  0  0  0  0  0
  1  2  1  0  0  0  0
  2  3  2  0  0  0  0
  2  6  1  0  0  0  0
  3  4  1  0  0  0  0
  3 11  1  0  0  0  0
  4  5  2  0  0  0  0
  4  8  1  0  0  0  0
  5  6  1  0  0  0  0
  5  7  1  0  0  0  0
  8  9  2  0  0  0  0
  8 10  1  0  0  0  0
 11 12  1  0  0  0  0
 12 13  1  0  0  0  0
 12 14  1  0  0  0  0
 12 15  1  0  0  0  0
M  CHG  2  10  -1  12   1
M  END
>  <CHROM.0>
-50.17039591,-59.99444928,-47.57749714,-51.45651009,-173.06246416,59.27586154
-53.37529061,63.28034318,-166.54378775,162.09516951

>  <CHROM.1>
-111.08018304,138.78254515,165.35965450,23.82411101,-14.49773331,4.65619637
2.42245185,0.10995888,3.10225273

>  <Name>
P23843064

>  <RI>
0

>  <Rbt.Current_Directory>
/home/fstefaniak/projects/zuza/docking/adenine/1Y26

>  <Rbt.Executable>
rbdock ($Id: //depot/dev/client3/rdock/2013.1/src/exe/rbdock.cxx#4 $)

>  <Rbt.Library>
libRbt.so (2013.1, Build901 2013/11/27)

>  <Rbt.Parameter_File>
/home/fstefaniak/progs/rDock//data/scripts/dock_solv.prm

>  <Rbt.Receptor>
1y26.prm

>  <SCORE>
-37.7579

>  <SCORE.INTER>
-16.1826

>  <SCORE.INTER.CONST>
1

>  <SCORE.INTER.POLAR>
-2.90272

>  <SCORE.INTER.ROT>
2

>  <SCORE.INTER.SOLV>
25.0441

>  <SCORE.INTER.VDW>
-14.3941

>  <SCORE.INTER.norm>
-1.34855

>  <SCORE.INTRA>
-2.52399

>  <SCORE.INTRA.DIHEDRAL>
5.54825

>  <SCORE.INTRA.DIHEDRAL.0>
1.55387

>  <SCORE.INTRA.POLAR>
-0.548727

>  <SCORE.INTRA.POLAR.0>
-0.352815

>  <SCORE.INTRA.REPUL>
0

>  <SCORE.INTRA.REPUL.0>
0

>  <SCORE.INTRA.SOLV>
-2.09929

>  <SCORE.INTRA.SOLV.lig_0>
-45.6611

>  <SCORE.INTRA.VDW>
-2.3828

>  <SCORE.INTRA.VDW.0>
0.938716

>  <SCORE.INTRA.norm>
-0.210333

>  <SCORE.RESTR>
1.19248

>  <SCORE.RESTR.CAVITY>
1.19248

>  <SCORE.RESTR.norm>
0.099373

>  <SCORE.SYSTEM>
-20.2437

>  <SCORE.SYSTEM.CONST>
0

>  <SCORE.SYSTEM.DIHEDRAL>
6.21008

>  <SCORE.SYSTEM.POLAR>
-3.50452

>  <SCORE.SYSTEM.SOLV>
0.133239

>  <SCORE.SYSTEM.VDW>
-3.92853

>  <SCORE.SYSTEM.norm>
-1.68698

>  <SCORE.heavy>
12

>  <SCORE.norm>
-3.14649

$$$$
P23868837
 OpenBabel12072022103D
libRbt.so/2013.1/901 2013/11/27
 10 10  0  0  0  0  0  0  0  0999 V2000
   21.2029  -14.9911    4.4648 C   0  0  0  0  0  0  0  0  0  0  0  0
   22.5461  -14.3078    4.2463 C   0  0  0  0  0  0  0  0  0  0  0  0
   23.3071  -14.3737    5.4603 O   0  0  0  0  0  0  0  0  0  0  0  0
   24.6466  -14.6163    5.0325 C   0  0  0  0  0  0  0  0  0  0  0  0
   24.4767  -15.4615    3.7947 C   0  0  2  0  0  0  0  0  0  0  0  0
   23.2599  -14.9796    3.1956 O   0  0  0  0  0  0  0  0  0  0  0  0
   24.3154  -16.9495    4.1125 C   0  0  0  0  0  0  0  0  0  0  0  0
   23.8610  -17.6394    2.9476 O   0  0  0  0  0  0  0  0  0  0  0  0
   22.3518  -12.8481    3.8442 C   0  0  0  0  0  0  0  0  0  0  0  0
   24.5791  -17.5509    2.2910 H   0  0  0  0  0  0  0  0  0  0  0  0
  1  2  1  0  0  0  0
  2  3  1  0  0  0  0
  2  6  1  0  0  0  0
  2  9  1  0  0  0  0
  3  4  1  0  0  0  0
  4  5  1  0  0  0  0
  5  6  1  0  0  0  0
  5  7  1  1  0  0  0
  7  8  1  0  0  0  0
  8 10  1  0  0  0  0
M  END
>  <CHROM.0>
61.86319235,55.14088477,-52.29194589,-52.21380101,-56.60028328,-64.17224089
-58.81501048,-174.27178587,-166.60075861,161.24206281

>  <CHROM.1>
166.92199622,64.16341201,23.32532503,-15.16361922,4.09779298,2.08231497,-0.33659608
0.46955117

>  <Name>
P23868837

>  <RI>
0

>  <Rbt.Current_Directory>
/home/fstefaniak/projects/zuza/docking/adenine/1Y26

>  <Rbt.Executable>
rbdock ($Id: //depot/dev/client3/rdock/2013.1/src/exe/rbdock.cxx#4 $)

>  <Rbt.Library>
libRbt.so (2013.1, Build901 2013/11/27)

>  <Rbt.Parameter_File>
/home/fstefaniak/progs/rDock//data/scripts/dock_solv.prm

>  <Rbt.Receptor>
1y26.prm

>  <SCORE>
-39.9025

>  <SCORE.INTER>
-18.9769

>  <SCORE.INTER.CONST>
1

>  <SCORE.INTER.POLAR>
-3.00394

>  <SCORE.INTER.ROT>
1

>  <SCORE.INTER.SOLV>
7.64101

>  <SCORE.INTER.VDW>
-9.45177

>  <SCORE.INTER.norm>
-2.10854

>  <SCORE.INTRA>
0.168276

>  <SCORE.INTRA.DIHEDRAL>
-0.0971969

>  <SCORE.INTRA.DIHEDRAL.0>
0.836658

>  <SCORE.INTRA.POLAR>
0.0803713

>  <SCORE.INTRA.POLAR.0>
-0.0803713

>  <SCORE.INTRA.REPUL>
0

>  <SCORE.INTRA.REPUL.0>
0

>  <SCORE.INTRA.SOLV>
0.171599

>  <SCORE.INTRA.SOLV.lig_0>
-8.26396

>  <SCORE.INTRA.VDW>
-0.142188

>  <SCORE.INTRA.VDW.0>
-0.14052

>  <SCORE.INTRA.norm>
0.0186973

>  <SCORE.RESTR>
0

>  <SCORE.RESTR.CAVITY>
0

>  <SCORE.RESTR.norm>
0

>  <SCORE.SYSTEM>
-21.0939

>  <SCORE.SYSTEM.CONST>
0

>  <SCORE.SYSTEM.DIHEDRAL>
5.32417

>  <SCORE.SYSTEM.POLAR>
-3.25365

>  <SCORE.SYSTEM.SOLV>
0.482878

>  <SCORE.SYSTEM.VDW>
-5.15283

>  <SCORE.SYSTEM.norm>
-2.34377

>  <SCORE.heavy>
9

>  <SCORE.norm>
-4.43361

$$$$
P23868837
 OpenBabel12072022103D
libRbt.so/2013.1/901 2013/11/27
 10 10  0  0  0  0  0  0  0  0999 V2000
   22.2647  -16.3560    4.0512 C   0  0  0  0  0  0  0  0  0  0  0  0
   23.5950  -15.6560    4.2946 C   0  0  0  0  0  0  0  0  0  0  0  0
   23.9977  -14.9862    3.0919 O   0  0  0  0  0  0  0  0  0  0  0  0
   24.5670  -13.7563    3.5385 C   0  0  0  0  0  0  0  0  0  0  0  0
   23.7614  -13.4176    4.7679 C   0  0  2  0  0  0  0  0  0  0  0  0
   23.4437  -14.6944    5.3516 O   0  0  0  0  0  0  0  0  0  0  0  0
   22.4580  -12.6872    4.4379 C   0  0  0  0  0  0  0  0  0  0  0  0
   21.6771  -12.5450    5.6251 O   0  0  0  0  0  0  0  0  0  0  0  0
   24.6688  -16.6610    4.7034 C   0  0  0  0  0  0  0  0  0  0  0  0
   21.6785  -13.4251    6.0493 H   0  0  0  0  0  0  0  0  0  0  0  0
  1  2  1  0  0  0  0
  2  3  1  0  0  0  0
  2  6  1  0  0  0  0
  2  9  1  0  0  0  0
  3  4  1  0  0  0  0
  4  5  1  0  0  0  0
  5  6  1  0  0  0  0
  5  7  1  6  0  0  0
  7  8  1  0  0  0  0
  8 10  1  0  0  0  0
M  END
>  <CHROM.0>
61.59592382,43.53501188,-60.10495240,-51.70248481,59.08039916,-60.69300486
-58.86712418,-174.40243905,-166.87229028,160.21554688

>  <CHROM.1>
173.01691076,-47.32112770,23.34833290,-14.52160586,4.45181956,1.04291440
-0.57017998,3.11850430

>  <Name>
P23868837

>  <RI>
0

>  <Rbt.Current_Directory>
/home/fstefaniak/projects/zuza/docking/adenine/1Y26

>  <Rbt.Executable>
rbdock ($Id: //depot/dev/client3/rdock/2013.1/src/exe/rbdock.cxx#4 $)

>  <Rbt.Library>
libRbt.so (2013.1, Build901 2013/11/27)

>  <Rbt.Parameter_File>
/home/fstefaniak/progs/rDock//data/scripts/dock_solv.prm

>  <Rbt.Receptor>
1y26.prm

>  <SCORE>
-39.2074

>  <SCORE.INTER>
-19.9828

>  <SCORE.INTER.CONST>
1

>  <SCORE.INTER.POLAR>
-2.59735

>  <SCORE.INTER.ROT>
1

>  <SCORE.INTER.SOLV>
6.09624

>  <SCORE.INTER.VDW>
-10.9628

>  <SCORE.INTER.norm>
-2.22032

>  <SCORE.INTRA>
-0.0375419

>  <SCORE.INTRA.DIHEDRAL>
0.162031

>  <SCORE.INTRA.DIHEDRAL.0>
0.836658

>  <SCORE.INTRA.POLAR>
-0.0400839

>  <SCORE.INTRA.POLAR.0>
-0.0803713

>  <SCORE.INTRA.REPUL>
0

>  <SCORE.INTRA.REPUL.0>
0

>  <SCORE.INTRA.SOLV>
0.0533404

>  <SCORE.INTRA.SOLV.lig_0>
-8.26396

>  <SCORE.INTRA.VDW>
-0.00894218

>  <SCORE.INTRA.VDW.0>
-0.14052

>  <SCORE.INTRA.norm>
-0.00417132

>  <SCORE.RESTR>
0.187886

>  <SCORE.RESTR.CAVITY>
0.187886

>  <SCORE.RESTR.norm>
0.0208763

>  <SCORE.SYSTEM>
-19.3749

>  <SCORE.SYSTEM.CONST>
0

>  <SCORE.SYSTEM.DIHEDRAL>
6.17348

>  <SCORE.SYSTEM.POLAR>
-3.32452

>  <SCORE.SYSTEM.SOLV>
0.312698

>  <SCORE.SYSTEM.VDW>
-3.99689

>  <SCORE.SYSTEM.norm>
-2.15276

>  <SCORE.heavy>
9

>  <SCORE.norm>
-4.35637

$$$$
P23868837
 OpenBabel12072022103D
libRbt.so/2013.1/901 2013/11/27
 10 10  0  0  0  0  0  0  0  0999 V2000
   22.5718  -16.7926    3.9502 C   0  0  0  0  0  0  0  0  0  0  0  0
   21.1575  -16.2462    4.0927 C   0  0  0  0  0  0  0  0  0  0  0  0
   20.4083  -16.5752    2.9147 O   0  0  0  0  0  0  0  0  0  0  0  0
   19.1072  -16.9079    3.3970 C   0  0  0  0  0  0  0  0  0  0  0  0
   19.3770  -17.5397    4.7399 C   0  0  2  0  0  0  0  0  0  0  0  0
   20.5291  -16.8377    5.2416 O   0  0  0  0  0  0  0  0  0  0  0  0
   19.7124  -19.0289    4.6360 C   0  0  0  0  0  0  0  0  0  0  0  0
   18.5777  -19.7399    4.1394 O   0  0  0  0  0  0  0  0  0  0  0  0
   21.1786  -14.7312    4.2777 C   0  0  0  0  0  0  0  0  0  0  0  0
   17.8941  -19.6643    4.8333 H   0  0  0  0  0  0  0  0  0  0  0  0
  1  2  1  0  0  0  0
  2  3  1  0  0  0  0
  2  6  1  0  0  0  0
  2  9  1  0  0  0  0
  3  4  1  0  0  0  0
  4  5  1  0  0  0  0
  5  6  1  0  0  0  0
  5  7  1  6  0  0  0
  7  8  1  0  0  0  0
  8 10  1  0  0  0  0
M  END
>  <CHROM.0>
-45.23417899,174.32396256,-56.36140580,-53.41614404,-55.64956318,-62.10401238
-62.97635898,-52.96464273,-166.58564149,160.35775331

>  <CHROM.1>
-64.65528653,-66.11952937,20.27043373,-17.18947573,4.15289048,-0.88330012
0.32936760,2.80420022

>  <Name>
P23868837

>  <RI>
0

>  <Rbt.Current_Directory>
/home/fstefaniak/projects/zuza/docking/adenine/1Y26

>  <Rbt.Executable>
rbdock ($Id: //depot/dev/client3/rdock/2013.1/src/exe/rbdock.cxx#4 $)

>  <Rbt.Library>
libRbt.so (2013.1, Build901 2013/11/27)

>  <Rbt.Parameter_File>
/home/fstefaniak/progs/rDock//data/scripts/dock_solv.prm

>  <Rbt.Receptor>
1y26.prm

>  <SCORE>
-37.6079

>  <SCORE.INTER>
-15.3666

>  <SCORE.INTER.CONST>
1

>  <SCORE.INTER.POLAR>
-2.47625

>  <SCORE.INTER.ROT>
1

>  <SCORE.INTER.SOLV>
9.119

>  <SCORE.INTER.VDW>
-9.29658

>  <SCORE.INTER.norm>
-1.7074

>  <SCORE.INTRA>
0.00726594

>  <SCORE.INTRA.DIHEDRAL>
-0.517216

>  <SCORE.INTRA.DIHEDRAL.0>
0.836658

>  <SCORE.INTRA.POLAR>
0.0803713

>  <SCORE.INTRA.POLAR.0>
-0.0803713

>  <SCORE.INTRA.REPUL>
0

>  <SCORE.INTRA.REPUL.0>
0

>  <SCORE.INTRA.SOLV>
-0.120653

>  <SCORE.INTRA.SOLV.lig_0>
-8.26396

>  <SCORE.INTRA.VDW>
0.0529383

>  <SCORE.INTRA.VDW.0>
-0.14052

>  <SCORE.INTRA.norm>
0.000807327

>  <SCORE.RESTR>
0

>  <SCORE.RESTR.CAVITY>
0

>  <SCORE.RESTR.norm>
0

>  <SCORE.SYSTEM>
-22.2485

>  <SCORE.SYSTEM.CONST>
0

>  <SCORE.SYSTEM.DIHEDRAL>
6.2867

>  <SCORE.SYSTEM.POLAR>
-3.53108

>  <SCORE.SYSTEM.SOLV>
0.604594

>  <SCORE.SYSTEM.VDW>
-5.35918

>  <SCORE.SYSTEM.norm>
-2.47206

>  <SCORE.heavy>
9

>  <SCORE.norm>
-4.17865

$$$$
P23886423
 OpenBabel12072022103D
libRbt.so/2013.1/901 2013/11/27
 14 14  0  0  0  0  0  0  0  0999 V2000
   20.2356  -18.6049    4.5030 C   0  0  0  0  0  0  0  0  0  0  0  0
   18.9803  -18.8293    3.6536 C   0  0  2  0  0  0  0  0  0  0  0  0
   18.9741  -17.6821    2.6244 C   0  0  1  0  0  0  0  0  0  0  0  0
   19.2268  -16.3853    3.3972 C   0  0  0  0  0  0  0  0  0  0  0  0
   20.3101  -16.8157    4.8006 S   0  0  0  0  0  0  0  0  0  0  0  0
   19.9992  -17.8850    1.6447 O   0  0  0  0  0  0  0  0  0  0  0  0
   17.7594  -18.8592    4.4609 N   0  0  0  0  0  0  0  0  0  0  0  0
   17.7624  -19.4223    5.7009 C   0  0  0  0  0  0  0  0  0  0  0  0
   18.6744  -20.0789    6.1774 O   0  0  0  0  0  0  0  0  0  0  0  0
   16.6087  -19.1893    6.3718 N   0  0  0  0  0  0  0  0  0  0  0  0
   19.9042  -18.8006    1.3250 H   0  0  0  0  0  0  0  0  0  0  0  0
   17.1022  -18.0992    4.3473 H   0  0  0  0  0  0  0  0  0  0  0  0
   16.3466  -19.8763    7.0646 H   0  0  0  0  0  0  0  0  0  0  0  0
   16.5156  -18.2290    6.6810 H   0  0  0  0  0  0  0  0  0  0  0  0
  1  2  1  0  0  0  0
  1  5  1  0  0  0  0
  2  7  1  1  0  0  0
  2  3  1  0  0  0  0
  3  4  1  0  0  0  0
  3  6  1  6  0  0  0
  4  5  1  0  0  0  0
  6 11  1  0  0  0  0
  7  8  1  0  0  0  0
  7 12  1  0  0  0  0
  8  9  2  0  0  0  0
  8 10  1  0  0  0  0
 10 13  1  0  0  0  0
 10 14  1  0  0  0  0
M  END
>  <CHROM.0>
-46.03881514,-61.05914597,-52.91482987,-51.38908481,-55.83140129,-50.92051864
-54.67530426,-46.82048811,-170.49935685,161.37506598

>  <CHROM.1>
-36.54958356,49.74361062,-9.68033617,152.70615385,19.00482770,-18.21423160
4.38563393,-0.74734413,0.75999724,1.56703911

>  <Name>
P23886423

>  <RI>
0

>  <Rbt.Current_Directory>
/home/fstefaniak/projects/zuza/docking/adenine/1Y26

>  <Rbt.Executable>
rbdock ($Id: //depot/dev/client3/rdock/2013.1/src/exe/rbdock.cxx#4 $)

>  <Rbt.Library>
libRbt.so (2013.1, Build901 2013/11/27)

>  <Rbt.Parameter_File>
/home/fstefaniak/progs/rDock//data/scripts/dock_solv.prm

>  <Rbt.Receptor>
1y26.prm

>  <SCORE>
-55.8517

>  <SCORE.INTER>
-35.8703

>  <SCORE.INTER.CONST>
1

>  <SCORE.INTER.POLAR>
-6.30449

>  <SCORE.INTER.ROT>
3

>  <SCORE.INTER.SOLV>
15.2604

>  <SCORE.INTER.VDW>
-13.5854

>  <SCORE.INTER.norm>
-3.58703

>  <SCORE.INTRA>
1.81924

>  <SCORE.INTRA.DIHEDRAL>
0.165646

>  <SCORE.INTRA.DIHEDRAL.0>
2.85762

>  <SCORE.INTRA.POLAR>
0

>  <SCORE.INTRA.POLAR.0>
0

>  <SCORE.INTRA.REPUL>
0

>  <SCORE.INTRA.REPUL.0>
0

>  <SCORE.INTRA.SOLV>
0.188757

>  <SCORE.INTRA.SOLV.lig_0>
-18.7476

>  <SCORE.INTRA.VDW>
1.64204

>  <SCORE.INTRA.VDW.0>
-0.809344

>  <SCORE.INTRA.norm>
0.181924

>  <SCORE.RESTR>
0

>  <SCORE.RESTR.CAVITY>
0

>  <SCORE.RESTR.norm>
0

>  <SCORE.SYSTEM>
-21.8007

>  <SCORE.SYSTEM.CONST>
0

>  <SCORE.SYSTEM.DIHEDRAL>
6.78631

>  <SCORE.SYSTEM.POLAR>
-3.58499

>  <SCORE.SYSTEM.SOLV>
0.703943

>  <SCORE.SYSTEM.VDW>
-5.08056

>  <SCORE.SYSTEM.norm>
-2.18007

>  <SCORE.heavy>
10

>  <SCORE.norm>
-5.58517

$$$$
P23886423
 OpenBabel12072022103D
libRbt.so/2013.1/901 2013/11/27
 14 14  0  0  0  0  0  0  0  0999 V2000
   20.2314  -18.6318    4.4574 C   0  0  0  0  0  0  0  0  0  0  0  0
   18.9478  -18.8245    3.6432 C   0  0  2  0  0  0  0  0  0  0  0  0
   18.9346  -17.6691    2.6233 C   0  0  1  0  0  0  0  0  0  0  0  0
   19.2353  -16.3839    3.3984 C   0  0  0  0  0  0  0  0  0  0  0  0
   20.3500  -16.8469    4.7663 S   0  0  0  0  0  0  0  0  0  0  0  0
   19.9268  -17.8840    1.6128 O   0  0  0  0  0  0  0  0  0  0  0  0
   17.7505  -18.8371    4.4854 N   0  0  0  0  0  0  0  0  0  0  0  0
   17.7853  -19.3866    5.7310 C   0  0  0  0  0  0  0  0  0  0  0  0
   18.7227  -20.0095    6.2033 O   0  0  0  0  0  0  0  0  0  0  0  0
   16.6328  -19.1821    6.4132 N   0  0  0  0  0  0  0  0  0  0  0  0
   19.8443  -18.8136    1.3321 H   0  0  0  0  0  0  0  0  0  0  0  0
   17.0954  -18.0738    4.3822 H   0  0  0  0  0  0  0  0  0  0  0  0
   16.3475  -19.9195    7.0421 H   0  0  0  0  0  0  0  0  0  0  0  0
   16.5622  -18.2502    6.8043 H   0  0  0  0  0  0  0  0  0  0  0  0
  1  2  1  0  0  0  0
  1  5  1  0  0  0  0
  2  7  1  1  0  0  0
  2  3  1  0  0  0  0
  3  4  1  0  0  0  0
  3  6  1  6  0  0  0
  4  5  1  0  0  0  0
  6 11  1  0  0  0  0
  7  8  1  0  0  0  0
  7 12  1  0  0  0  0
  8  9  2  0  0  0  0
  8 10  1  0  0  0  0
 10 13  1  0  0  0  0
 10 14  1  0  0  0  0
M  END
>  <CHROM.0>
-49.16783050,-62.37725123,-50.81236886,-50.66054927,-51.71820991,58.55467197
-66.22877207,-54.34718990,-169.42887919,160.37031390

>  <CHROM.1>
-35.23406992,45.95552203,-7.31101053,146.13834560,19.00781084,-18.20939573
4.38232673,-0.80201394,0.72012687,1.61858246

>  <Name>
P23886423

>  <RI>
0

>  <Rbt.Current_Directory>
/home/fstefaniak/projects/zuza/docking/adenine/1Y26

>  <Rbt.Executable>
rbdock ($Id: //depot/dev/client3/rdock/2013.1/src/exe/rbdock.cxx#4 $)

>  <Rbt.Library>
libRbt.so (2013.1, Build901 2013/11/27)

>  <Rbt.Parameter_File>
/home/fstefaniak/progs/rDock//data/scripts/dock_solv.prm

>  <Rbt.Receptor>
1y26.prm

>  <SCORE>
-55.302

>  <SCORE.INTER>
-36.5031

>  <SCORE.INTER.CONST>
1

>  <SCORE.INTER.POLAR>
-6.31219

>  <SCORE.INTER.ROT>
3

>  <SCORE.INTER.SOLV>
15.1578

>  <SCORE.INTER.VDW>
-13.9474

>  <SCORE.INTER.norm>
-3.65031

>  <SCORE.INTRA>
2.40212

>  <SCORE.INTRA.DIHEDRAL>
0.640909

>  <SCORE.INTRA.DIHEDRAL.0>
2.85762

>  <SCORE.INTRA.POLAR>
0

>  <SCORE.INTRA.POLAR.0>
0

>  <SCORE.INTRA.REPUL>
0

>  <SCORE.INTRA.REPUL.0>
0

>  <SCORE.INTRA.SOLV>
0.201135

>  <SCORE.INTRA.SOLV.lig_0>
-18.7476

>  <SCORE.INTRA.VDW>
1.9811

>  <SCORE.INTRA.VDW.0>
-0.809344

>  <SCORE.INTRA.norm>
0.240212

>  <SCORE.RESTR>
0

>  <SCORE.RESTR.CAVITY>
0

>  <SCORE.RESTR.norm>
0

>  <SCORE.SYSTEM>
-21.201

>  <SCORE.SYSTEM.CONST>
0

>  <SCORE.SYSTEM.DIHEDRAL>
6.20163

>  <SCORE.SYSTEM.POLAR>
-3.5281

>  <SCORE.SYSTEM.SOLV>
0.49809

>  <SCORE.SYSTEM.VDW>
-4.60689

>  <SCORE.SYSTEM.norm>
-2.1201

>  <SCORE.heavy>
10

>  <SCORE.norm>
-5.5302

$$$$
P23886423
 OpenBabel12072022103D
libRbt.so/2013.1/901 2013/11/27
 14 14  0  0  0  0  0  0  0  0999 V2000
   20.2085  -18.6621    4.4621 C   0  0  0  0  0  0  0  0  0  0  0  0
   18.9235  -18.8446    3.6478 C   0  0  2  0  0  0  0  0  0  0  0  0
   18.9154  -17.6843    2.6335 C   0  0  1  0  0  0  0  0  0  0  0  0
   19.2229  -16.4043    3.4144 C   0  0  0  0  0  0  0  0  0  0  0  0
   20.3361  -16.8793    4.7795 S   0  0  0  0  0  0  0  0  0  0  0  0
   19.9059  -17.8993    1.6213 O   0  0  0  0  0  0  0  0  0  0  0  0
   17.7266  -18.8554    4.4907 N   0  0  0  0  0  0  0  0  0  0  0  0
   17.7646  -19.3935    5.7412 C   0  0  0  0  0  0  0  0  0  0  0  0
   18.7006  -20.0179    6.2143 O   0  0  0  0  0  0  0  0  0  0  0  0
   16.6171  -19.1754    6.4274 N   0  0  0  0  0  0  0  0  0  0  0  0
   19.8165  -18.8262    1.3339 H   0  0  0  0  0  0  0  0  0  0  0  0
   17.0679  -18.0961    4.3809 H   0  0  0  0  0  0  0  0  0  0  0  0
   16.3462  -19.8915    7.0866 H   0  0  0  0  0  0  0  0  0  0  0  0
   16.5405  -18.2302    6.7840 H   0  0  0  0  0  0  0  0  0  0  0  0
  1  2  1  0  0  0  0
  1  5  1  0  0  0  0
  2  7  1  1  0  0  0
  2  3  1  0  0  0  0
  3  4  1  0  0  0  0
  3  6  1  6  0  0  0
  4  5  1  0  0  0  0
  6 11  1  0  0  0  0
  7  8  1  0  0  0  0
  7 12  1  0  0  0  0
  8  9  2  0  0  0  0
  8 10  1  0  0  0  0
 10 13  1  0  0  0  0
 10 14  1  0  0  0  0
M  END
>  <CHROM.0>
63.56013112,55.32249889,-58.79660106,-52.93443219,-175.52652467,-57.22274659
-62.18592227,-54.57400987,-166.24188624,158.57337086

>  <CHROM.1>
-34.27104569,46.15952969,-8.00109707,148.04971616,18.98884102,-18.22677785
4.39240284,-0.80764577,0.71212212,1.62127804

>  <Name>
P23886423

>  <RI>
0

>  <Rbt.Current_Directory>
/home/fstefaniak/projects/zuza/docking/adenine/1Y26

>  <Rbt.Executable>
rbdock ($Id: //depot/dev/client3/rdock/2013.1/src/exe/rbdock.cxx#4 $)

>  <Rbt.Library>
libRbt.so (2013.1, Build901 2013/11/27)

>  <Rbt.Parameter_File>
/home/fstefaniak/progs/rDock//data/scripts/dock_solv.prm

>  <Rbt.Receptor>
1y26.prm

>  <SCORE>
-54.9954

>  <SCORE.INTER>
-36.871

>  <SCORE.INTER.CONST>
1

>  <SCORE.INTER.POLAR>
-6.32351

>  <SCORE.INTER.ROT>
3

>  <SCORE.INTER.SOLV>
15.1411

>  <SCORE.INTER.VDW>
-14.1493

>  <SCORE.INTER.norm>
-3.6871

>  <SCORE.INTRA>
2.46502

>  <SCORE.INTRA.DIHEDRAL>
0.654461

>  <SCORE.INTRA.DIHEDRAL.0>
2.85762

>  <SCORE.INTRA.POLAR>
0

>  <SCORE.INTRA.POLAR.0>
0

>  <SCORE.INTRA.REPUL>
0

>  <SCORE.INTRA.REPUL.0>
0

>  <SCORE.INTRA.SOLV>
0.211094

>  <SCORE.INTRA.SOLV.lig_0>
-18.7476

>  <SCORE.INTRA.VDW>
2.03225

>  <SCORE.INTRA.VDW.0>
-0.809344

>  <SCORE.INTRA.norm>
0.246502

>  <SCORE.RESTR>
0

>  <SCORE.RESTR.CAVITY>
0

>  <SCORE.RESTR.norm>
0

>  <SCORE.SYSTEM>
-20.5894

>  <SCORE.SYSTEM.CONST>
0

>  <SCORE.SYSTEM.DIHEDRAL>
5.47684

>  <SCORE.SYSTEM.POLAR>
-3.26491

>  <SCORE.SYSTEM.SOLV>
0.515688

>  <SCORE.SYSTEM.VDW>
-4.84078

>  <SCORE.SYSTEM.norm>
-2.05894

>  <SCORE.heavy>
10

>  <SCORE.norm>
-5.49954

$$$$
P23925466
 OpenBabel12072022103D
libRbt.so/2013.1/901 2013/11/27
 11 10  0  0  0  0  0  0  0  0999 V2000
   20.2214  -17.6420    4.0502 C   0  0  0  0  0  0  0  0  0  0  0  0
   18.8951  -17.9238    3.3625 C   0  0  0  0  0  0  0  0  0  0  0  0
   18.6250  -17.5906    2.2070 O   0  0  0  0  0  0  0  0  0  0  0  0
   17.9121  -18.5542    4.0956 N   0  0  0  0  0  0  0  0  0  0  0  0
   18.1178  -19.3595    5.1814 C   0  0  0  0  0  0  0  0  0  0  0  0
   19.0667  -20.1087    5.3555 O   0  0  0  0  0  0  0  0  0  0  0  0
   17.1115  -19.2834    6.0942 N   0  0  0  0  0  0  0  0  0  0  0  0
   20.5954  -15.9031    4.0083 Cl  0  0  0  0  0  0  0  0  0  0  0  0
   17.0574  -18.0184    4.1112 H   0  0  0  0  0  0  0  0  0  0  0  0
   16.9688  -20.0581    6.7273 H   0  0  0  0  0  0  0  0  0  0  0  0
   17.0174  -18.3683    6.5222 H   0  0  0  0  0  0  0  0  0  0  0  0
  1  2  1  0  0  0  0
  1  8  1  0  0  0  0
  2  3  2  0  0  0  0
  2  4  1  0  0  0  0
  4  5  1  0  0  0  0
  4  9  1  0  0  0  0
  5  6  2  0  0  0  0
  5  7  1  0  0  0  0
  7 10  1  0  0  0  0
  7 11  1  0  0  0  0
M  END
>  <CHROM.0>
60.59928210,-58.12275187,-57.39443216,-55.26661946,-58.63289389,-58.55352791
-56.76066875,-177.53092053,-167.40161263,160.90412295

>  <CHROM.1>
55.20792848,-24.46131688,-33.93060644,156.50173796,19.06745589,-17.93733288
4.26811849,-0.74126201,0.72290219,2.01612641

>  <Name>
P23925466

>  <RI>
0

>  <Rbt.Current_Directory>
/home/fstefaniak/projects/zuza/docking/adenine/1Y26

>  <Rbt.Executable>
rbdock ($Id: //depot/dev/client3/rdock/2013.1/src/exe/rbdock.cxx#4 $)

>  <Rbt.Library>
libRbt.so (2013.1, Build901 2013/11/27)

>  <Rbt.Parameter_File>
/home/fstefaniak/progs/rDock//data/scripts/dock_solv.prm

>  <Rbt.Receptor>
1y26.prm

>  <SCORE>
-57.8907

>  <SCORE.INTER>
-35.5022

>  <SCORE.INTER.CONST>
1

>  <SCORE.INTER.POLAR>
-5.68435

>  <SCORE.INTER.ROT>
4

>  <SCORE.INTER.SOLV>
12.7119

>  <SCORE.INTER.VDW>
-15.2243

>  <SCORE.INTER.norm>
-4.43778

>  <SCORE.INTRA>
-0.733215

>  <SCORE.INTRA.DIHEDRAL>
0.0777358

>  <SCORE.INTRA.DIHEDRAL.0>
2.71621

>  <SCORE.INTRA.POLAR>
0

>  <SCORE.INTRA.POLAR.0>
0

>  <SCORE.INTRA.REPUL>
0

>  <SCORE.INTRA.REPUL.0>
0

>  <SCORE.INTRA.SOLV>
0.0541071

>  <SCORE.INTRA.SOLV.lig_0>
-17.6601

>  <SCORE.INTRA.VDW>
-0.799136

>  <SCORE.INTRA.VDW.0>
0.336248

>  <SCORE.INTRA.norm>
-0.0916518

>  <SCORE.RESTR>
0

>  <SCORE.RESTR.CAVITY>
0

>  <SCORE.RESTR.norm>
0

>  <SCORE.SYSTEM>
-21.6552

>  <SCORE.SYSTEM.CONST>
0

>  <SCORE.SYSTEM.DIHEDRAL>
4.56911

>  <SCORE.SYSTEM.POLAR>
-3.14036

>  <SCORE.SYSTEM.SOLV>
0.430048

>  <SCORE.SYSTEM.VDW>
-5.63533

>  <SCORE.SYSTEM.norm>
-2.7069

>  <SCORE.heavy>
8

>  <SCORE.norm>
-7.23633

$$$$
P23925466
 OpenBabel12072022103D
libRbt.so/2013.1/901 2013/11/27
 11 10  0  0  0  0  0  0  0  0999 V2000
   20.1675  -17.5975    4.0966 C   0  0  0  0  0  0  0  0  0  0  0  0
   18.8580  -17.9005    3.3863 C   0  0  0  0  0  0  0  0  0  0  0  0
   18.6076  -17.5835    2.2218 O   0  0  0  0  0  0  0  0  0  0  0  0
   17.8668  -18.5321    4.1074 N   0  0  0  0  0  0  0  0  0  0  0  0
   18.0603  -19.3384    5.1947 C   0  0  0  0  0  0  0  0  0  0  0  0
   19.0070  -20.0880    5.3786 O   0  0  0  0  0  0  0  0  0  0  0  0
   17.0440  -19.2627    6.0964 N   0  0  0  0  0  0  0  0  0  0  0  0
   20.5712  -15.8698    3.9631 Cl  0  0  0  0  0  0  0  0  0  0  0  0
   17.0118  -17.9967    4.1135 H   0  0  0  0  0  0  0  0  0  0  0  0
   16.9224  -20.0175    6.7573 H   0  0  0  0  0  0  0  0  0  0  0  0
   16.9150  -18.3360    6.4886 H   0  0  0  0  0  0  0  0  0  0  0  0
  1  2  1  0  0  0  0
  1  8  1  0  0  0  0
  2  3  2  0  0  0  0
  2  4  1  0  0  0  0
  4  5  1  0  0  0  0
  4  9  1  0  0  0  0
  5  6  2  0  0  0  0
  5  7  1  0  0  0  0
  7 10  1  0  0  0  0
  7 11  1  0  0  0  0
M  END
>  <CHROM.0>
178.81617689,-65.21902684,-56.04329053,-54.89739885,-55.76814509,-63.12633404
-56.95521519,-50.65891590,-166.05481388,160.67494623

>  <CHROM.1>
52.04412514,-25.48134965,-33.98595936,159.48307096,19.02528185,-17.91184908
4.27027436,-0.74402460,0.71455713,2.01639051

>  <Name>
P23925466

>  <RI>
0

>  <Rbt.Current_Directory>
/home/fstefaniak/projects/zuza/docking/adenine/1Y26

>  <Rbt.Executable>
rbdock ($Id: //depot/dev/client3/rdock/2013.1/src/exe/rbdock.cxx#4 $)

>  <Rbt.Library>
libRbt.so (2013.1, Build901 2013/11/27)

>  <Rbt.Parameter_File>
/home/fstefaniak/progs/rDock//data/scripts/dock_solv.prm

>  <Rbt.Receptor>
1y26.prm

>  <SCORE>
-57.381

>  <SCORE.INTER>
-35.5184

>  <SCORE.INTER.CONST>
1

>  <SCORE.INTER.POLAR>
-5.66652

>  <SCORE.INTER.ROT>
4

>  <SCORE.INTER.SOLV>
12.7622

>  <SCORE.INTER.VDW>
-15.3113

>  <SCORE.INTER.norm>
-4.4398

>  <SCORE.INTRA>
-0.740533

>  <SCORE.INTRA.DIHEDRAL>
0.0889234

>  <SCORE.INTRA.DIHEDRAL.0>
2.71621

>  <SCORE.INTRA.POLAR>
0

>  <SCORE.INTRA.POLAR.0>
0

>  <SCORE.INTRA.REPUL>
0

>  <SCORE.INTRA.REPUL.0>
0

>  <SCORE.INTRA.SOLV>
0.049868

>  <SCORE.INTRA.SOLV.lig_0>
-17.6601

>  <SCORE.INTRA.VDW>
-0.809929

>  <SCORE.INTRA.VDW.0>
0.336248

>  <SCORE.INTRA.norm>
-0.0925667

>  <SCORE.RESTR>
0

>  <SCORE.RESTR.CAVITY>
0

>  <SCORE.RESTR.norm>
0

>  <SCORE.SYSTEM>
-21.122

>  <SCORE.SYSTEM.CONST>
0

>  <SCORE.SYSTEM.DIHEDRAL>
5.39542

>  <SCORE.SYSTEM.POLAR>
-3.21531

>  <SCORE.SYSTEM.SOLV>
0.605147

>  <SCORE.SYSTEM.VDW>
-5.36384

>  <SCORE.SYSTEM.norm>
-2.64025

>  <SCORE.heavy>
8

>  <SCORE.norm>
-7.17262

$$$$
P23925466
 OpenBabel12072022103D
libRbt.so/2013.1/901 2013/11/27
 11 10  0  0  0  0  0  0  0  0999 V2000
   20.2184  -17.6667    4.0881 C   0  0  0  0  0  0  0  0  0  0  0  0
   18.8948  -17.9284    3.3874 C   0  0  0  0  0  0  0  0  0  0  0  0
   18.6334  -17.5722    2.2368 O   0  0  0  0  0  0  0  0  0  0  0  0
   17.9041  -18.5672    4.1027 N   0  0  0  0  0  0  0  0  0  0  0  0
   18.0997  -19.4026    5.1674 C   0  0  0  0  0  0  0  0  0  0  0  0
   19.0063  -20.2114    5.2938 O   0  0  0  0  0  0  0  0  0  0  0  0
   17.1344  -19.2813    6.1188 N   0  0  0  0  0  0  0  0  0  0  0  0
   20.8454  -16.0555    3.6681 Cl  0  0  0  0  0  0  0  0  0  0  0  0
   17.0552  -18.0229    4.1313 H   0  0  0  0  0  0  0  0  0  0  0  0
   16.9822  -20.0487    6.7586 H   0  0  0  0  0  0  0  0  0  0  0  0
   17.0983  -18.3628    6.5483 H   0  0  0  0  0  0  0  0  0  0  0  0
  1  2  1  0  0  0  0
  1  8  1  0  0  0  0
  2  3  2  0  0  0  0
  2  4  1  0  0  0  0
  4  5  1  0  0  0  0
  4  9  1  0  0  0  0
  5  6  2  0  0  0  0
  5  7  1  0  0  0  0
  7 10  1  0  0  0  0
  7 11  1  0  0  0  0
M  END
>  <CHROM.0>
-52.33592769,-63.36787461,59.23843066,-52.30119847,-173.17536925,58.70119690
73.94601619,-49.98448450,-167.74061089,161.09765616

>  <CHROM.1>
38.07264089,-25.04210749,-37.63496428,157.89902680,19.12655076,-17.99455431
4.18473087,-0.81356952,0.56788675,2.10573337

>  <Name>
P23925466

>  <RI>
0

>  <Rbt.Current_Directory>
/home/fstefaniak/projects/zuza/docking/adenine/1Y26

>  <Rbt.Executable>
rbdock ($Id: //depot/dev/client3/rdock/2013.1/src/exe/rbdock.cxx#4 $)

>  <Rbt.Library>
libRbt.so (2013.1, Build901 2013/11/27)

>  <Rbt.Parameter_File>
/home/fstefaniak/progs/rDock//data/scripts/dock_solv.prm

>  <Rbt.Receptor>
1y26.prm

>  <SCORE>
-55.71

>  <SCORE.INTER>
-35.0682

>  <SCORE.INTER.CONST>
1

>  <SCORE.INTER.POLAR>
-5.73547

>  <SCORE.INTER.ROT>
4

>  <SCORE.INTER.SOLV>
12.7703

>  <SCORE.INTER.VDW>
-14.784

>  <SCORE.INTER.norm>
-4.38352

>  <SCORE.INTRA>
-0.700203

>  <SCORE.INTRA.DIHEDRAL>
0.11304

>  <SCORE.INTRA.DIHEDRAL.0>
2.71621

>  <SCORE.INTRA.POLAR>
0

>  <SCORE.INTRA.POLAR.0>
0

>  <SCORE.INTRA.REPUL>
0

>  <SCORE.INTRA.REPUL.0>
0

>  <SCORE.INTRA.SOLV>
0.0321599

>  <SCORE.INTRA.SOLV.lig_0>
-17.6601

>  <SCORE.INTRA.VDW>
-0.772804

>  <SCORE.INTRA.VDW.0>
0.336248

>  <SCORE.INTRA.norm>
-0.0875254

>  <SCORE.RESTR>
0

>  <SCORE.RESTR.CAVITY>
0

>  <SCORE.RESTR.norm>
0

>  <SCORE.SYSTEM>
-19.9417

>  <SCORE.SYSTEM.CONST>
0

>  <SCORE.SYSTEM.DIHEDRAL>
6.42695

>  <SCORE.SYSTEM.POLAR>
-3.65469

>  <SCORE.SYSTEM.SOLV>
0.158895

>  <SCORE.SYSTEM.VDW>
-3.30742

>  <SCORE.SYSTEM.norm>
-2.49271

>  <SCORE.heavy>
8

>  <SCORE.norm>
-6.96375

$$$$
P23933286
 OpenBabel12072022103D
libRbt.so/2013.1/901 2013/11/27
 15 15  0  0  0  0  0  0  0  0999 V2000
   23.2721  -14.2684    4.8615 C   0  0  0  0  0  0  0  0  0  0  0  0
   23.1926  -15.5310    4.1320 N   0  0  0  0  0  0  0  0  0  0  0  0
   24.4451  -16.2775    4.2167 C   0  0  0  0  0  0  0  0  0  0  0  0
   22.1156  -16.3081    4.5918 N   0  0  0  0  0  0  0  0  0  0  0  0
   21.0568  -16.6187    3.7542 C   0  0  0  0  0  0  0  0  0  0  0  0
   20.9700  -16.2615    2.5811 O   0  0  0  0  0  0  0  0  0  0  0  0
   19.9611  -17.4498    4.3548 C   0  0  0  0  0  0  0  0  0  0  0  0
   20.1553  -17.9072    5.6698 C   0  0  0  0  0  0  0  0  0  0  0  0
   19.1896  -18.6871    6.3100 C   0  0  0  0  0  0  0  0  0  0  0  0
   18.0141  -19.0215    5.6440 C   0  0  0  0  0  0  0  0  0  0  0  0
   17.8014  -18.5777    4.3388 C   0  0  0  0  0  0  0  0  0  0  0  0
   18.7692  -17.7961    3.6968 C   0  0  0  0  0  0  0  0  0  0  0  0
   18.5230  -17.3788    2.4125 O   0  0  0  0  0  0  0  0  0  0  0  0
   22.0985  -16.6516    5.5517 H   0  0  0  0  0  0  0  0  0  0  0  0
   17.6843  -17.7738    2.1133 H   0  0  0  0  0  0  0  0  0  0  0  0
  1  2  1  0  0  0  0
  2  3  1  0  0  0  0
  2  4  1  0  0  0  0
  4  5  1  0  0  0  0
  4 14  1  0  0  0  0
  5  6  2  0  0  0  0
  5  7  1  0  0  0  0
  7  8  2  0  0  0  0
  7 12  1  0  0  0  0
  8  9  1  0  0  0  0
  9 10  2  0  0  0  0
 10 11  1  0  0  0  0
 11 12  2  0  0  0  0
 12 13  1  0  0  0  0
 13 15  1  0  0  0  0
M  END
>  <CHROM.0>
-51.18647225,-61.25109966,-52.28091397,-52.37587143,-170.81882577,-58.53374745
-57.12301780,-179.17396312,-167.08165575,160.99186863

>  <CHROM.1>
116.25435206,-4.22857793,175.80136496,20.64640364,-17.01937482,4.29523874
-0.24580917,0.47413134,1.97205269

>  <Name>
P23933286

>  <RI>
0

>  <Rbt.Current_Directory>
/home/fstefaniak/projects/zuza/docking/adenine/1Y26

>  <Rbt.Executable>
rbdock ($Id: //depot/dev/client3/rdock/2013.1/src/exe/rbdock.cxx#4 $)

>  <Rbt.Library>
libRbt.so (2013.1, Build901 2013/11/27)

>  <Rbt.Parameter_File>
/home/fstefaniak/progs/rDock//data/scripts/dock_solv.prm

>  <Rbt.Receptor>
1y26.prm

>  <SCORE>
-51.0108

>  <SCORE.INTER>
-31.4493

>  <SCORE.INTER.CONST>
1

>  <SCORE.INTER.POLAR>
-2.75134

>  <SCORE.INTER.ROT>
2

>  <SCORE.INTER.SOLV>
13.7915

>  <SCORE.INTER.VDW>
-21.3256

>  <SCORE.INTER.norm>
-2.41918

>  <SCORE.INTRA>
2.9458

>  <SCORE.INTRA.DIHEDRAL>
0.0964502

>  <SCORE.INTRA.DIHEDRAL.0>
0.479735

>  <SCORE.INTRA.POLAR>
0.714694

>  <SCORE.INTRA.POLAR.0>
-0.714694

>  <SCORE.INTRA.REPUL>
0

>  <SCORE.INTRA.REPUL.0>
0

>  <SCORE.INTRA.SOLV>
-0.715437

>  <SCORE.INTRA.SOLV.lig_0>
-17.5326

>  <SCORE.INTRA.VDW>
0.825334

>  <SCORE.INTRA.VDW.0>
0.162251

>  <SCORE.INTRA.norm>
0.2266

>  <SCORE.RESTR>
0

>  <SCORE.RESTR.CAVITY>
0

>  <SCORE.RESTR.norm>
0

>  <SCORE.SYSTEM>
-22.5073

>  <SCORE.SYSTEM.CONST>
0

>  <SCORE.SYSTEM.DIHEDRAL>
5.68426

>  <SCORE.SYSTEM.POLAR>
-3.45094

>  <SCORE.SYSTEM.SOLV>
0.299652

>  <SCORE.SYSTEM.VDW>
-5.49639

>  <SCORE.SYSTEM.norm>
-1.73133

>  <SCORE.heavy>
13

>  <SCORE.norm>
-3.92391

$$$$
P23933286
 OpenBabel12072022103D
libRbt.so/2013.1/901 2013/11/27
 15 15  0  0  0  0  0  0  0  0999 V2000
   23.1375  -14.1223    4.8735 C   0  0  0  0  0  0  0  0  0  0  0  0
   23.1491  -15.4182    4.2004 N   0  0  0  0  0  0  0  0  0  0  0  0
   24.4289  -16.1001    4.3746 C   0  0  0  0  0  0  0  0  0  0  0  0
   22.0884  -16.2245    4.6478 N   0  0  0  0  0  0  0  0  0  0  0  0
   21.0306  -16.5344    3.8088 C   0  0  0  0  0  0  0  0  0  0  0  0
   20.9310  -16.1521    2.6446 O   0  0  0  0  0  0  0  0  0  0  0  0
   19.9529  -17.3981    4.3957 C   0  0  0  0  0  0  0  0  0  0  0  0
   20.1505  -17.8609    5.7084 C   0  0  0  0  0  0  0  0  0  0  0  0
   19.2013  -18.6703    6.3362 C   0  0  0  0  0  0  0  0  0  0  0  0
   18.0390  -19.0296    5.6601 C   0  0  0  0  0  0  0  0  0  0  0  0
   17.8231  -18.5811    4.3570 C   0  0  0  0  0  0  0  0  0  0  0  0
   18.7744  -17.7697    3.7274 C   0  0  0  0  0  0  0  0  0  0  0  0
   18.5257  -17.3488    2.4448 O   0  0  0  0  0  0  0  0  0  0  0  0
   22.0826  -16.5900    5.5996 H   0  0  0  0  0  0  0  0  0  0  0  0
   17.7311  -17.8069    2.1165 H   0  0  0  0  0  0  0  0  0  0  0  0
  1  2  1  0  0  0  0
  2  3  1  0  0  0  0
  2  4  1  0  0  0  0
  4  5  1  0  0  0  0
  4 14  1  0  0  0  0
  5  6  2  0  0  0  0
  5  7  1  0  0  0  0
  7  8  2  0  0  0  0
  7 12  1  0  0  0  0
  8  9  1  0  0  0  0
  9 10  2  0  0  0  0
 10 11  1  0  0  0  0
 11 12  2  0  0  0  0
 12 13  1  0  0  0  0
 13 15  1  0  0  0  0
M  END
>  <CHROM.0>
-50.57690120,-58.16728602,-60.21310218,-53.43808815,-58.12348906,-179.06814516
-60.07252124,-179.83136364,-166.95073927,159.75170549

>  <CHROM.1>
111.12103231,-3.03867419,172.19741626,20.62718905,-16.95002662,4.34343508
-0.25925488,0.49569170,1.99971468

>  <Name>
P23933286

>  <RI>
0

>  <Rbt.Current_Directory>
/home/fstefaniak/projects/zuza/docking/adenine/1Y26

>  <Rbt.Executable>
rbdock ($Id: //depot/dev/client3/rdock/2013.1/src/exe/rbdock.cxx#4 $)

>  <Rbt.Library>
libRbt.so (2013.1, Build901 2013/11/27)

>  <Rbt.Parameter_File>
/home/fstefaniak/progs/rDock//data/scripts/dock_solv.prm

>  <Rbt.Receptor>
1y26.prm

>  <SCORE>
-50.8799

>  <SCORE.INTER>
-31.463

>  <SCORE.INTER.CONST>
1

>  <SCORE.INTER.POLAR>
-2.72832

>  <SCORE.INTER.ROT>
2

>  <SCORE.INTER.SOLV>
13.7987

>  <SCORE.INTER.VDW>
-21.4139

>  <SCORE.INTER.norm>
-2.42023

>  <SCORE.INTRA>
2.97888

>  <SCORE.INTRA.DIHEDRAL>
0.126078

>  <SCORE.INTRA.DIHEDRAL.0>
0.479735

>  <SCORE.INTRA.POLAR>
0.714694

>  <SCORE.INTRA.POLAR.0>
-0.714694

>  <SCORE.INTRA.REPUL>
0

>  <SCORE.INTRA.REPUL.0>
0

>  <SCORE.INTRA.SOLV>
-0.713244

>  <SCORE.INTRA.SOLV.lig_0>
-17.5326

>  <SCORE.INTRA.VDW>
0.842502

>  <SCORE.INTRA.VDW.0>
0.162251

>  <SCORE.INTRA.norm>
0.229144

>  <SCORE.RESTR>
0

>  <SCORE.RESTR.CAVITY>
0

>  <SCORE.RESTR.norm>
0

>  <SCORE.SYSTEM>
-22.3957

>  <SCORE.SYSTEM.CONST>
0

>  <SCORE.SYSTEM.DIHEDRAL>
5.19408

>  <SCORE.SYSTEM.POLAR>
-3.41377

>  <SCORE.SYSTEM.SOLV>
0.301482

>  <SCORE.SYSTEM.VDW>
-5.38312

>  <SCORE.SYSTEM.norm>
-1.72275

>  <SCORE.heavy>
13

>  <SCORE.norm>
-3.91384

$$$$
P23933286
 OpenBabel12072022103D
libRbt.so/2013.1/901 2013/11/27
 15 15  0  0  0  0  0  0  0  0999 V2000
   23.1861  -14.1620    4.8785 C   0  0  0  0  0  0  0  0  0  0  0  0
   23.1674  -15.4432    4.1779 N   0  0  0  0  0  0  0  0  0  0  0  0
   24.4420  -16.1440    4.3103 C   0  0  0  0  0  0  0  0  0  0  0  0
   22.1063  -16.2460    4.6303 N   0  0  0  0  0  0  0  0  0  0  0  0
   21.0432  -16.5521    3.7966 C   0  0  0  0  0  0  0  0  0  0  0  0
   20.9390  -16.1691    2.6331 O   0  0  0  0  0  0  0  0  0  0  0  0
   19.9656  -17.4124    4.3887 C   0  0  0  0  0  0  0  0  0  0  0  0
   20.1687  -17.8768    5.7001 C   0  0  0  0  0  0  0  0  0  0  0  0
   19.2200  -18.6833    6.3324 C   0  0  0  0  0  0  0  0  0  0  0  0
   18.0528  -19.0380    5.6623 C   0  0  0  0  0  0  0  0  0  0  0  0
   17.8315  -18.5878    4.3607 C   0  0  0  0  0  0  0  0  0  0  0  0
   18.7823  -17.7794    3.7265 C   0  0  0  0  0  0  0  0  0  0  0  0
   18.5281  -17.3566    2.4456 O   0  0  0  0  0  0  0  0  0  0  0  0
   22.1041  -16.6118    5.5821 H   0  0  0  0  0  0  0  0  0  0  0  0
   17.6889  -17.7525    2.1489 H   0  0  0  0  0  0  0  0  0  0  0  0
  1  2  1  0  0  0  0
  2  3  1  0  0  0  0
  2  4  1  0  0  0  0
  4  5  1  0  0  0  0
  4 14  1  0  0  0  0
  5  6  2  0  0  0  0
  5  7  1  0  0  0  0
  7  8  2  0  0  0  0
  7 12  1  0  0  0  0
  8  9  1  0  0  0  0
  9 10  2  0  0  0  0
 10 11  1  0  0  0  0
 11 12  2  0  0  0  0
 12 13  1  0  0  0  0
 13 15  1  0  0  0  0
M  END
>  <CHROM.0>
-46.97341485,-59.34630113,-51.69139927,-53.12280278,-54.65649031,-53.77244895
-55.45534041,-175.79135963,-166.42016837,160.43366432

>  <CHROM.1>
112.72446698,-3.06970940,176.99307649,20.64242582,-16.96859876,4.33272184
-0.26084443,0.48953582,1.99798071

>  <Name>
P23933286

>  <RI>
0

>  <Rbt.Current_Directory>
/home/fstefaniak/projects/zuza/docking/adenine/1Y26

>  <Rbt.Executable>
rbdock ($Id: //depot/dev/client3/rdock/2013.1/src/exe/rbdock.cxx#4 $)

>  <Rbt.Library>
libRbt.so (2013.1, Build901 2013/11/27)

>  <Rbt.Parameter_File>
/home/fstefaniak/progs/rDock//data/scripts/dock_solv.prm

>  <Rbt.Receptor>
1y26.prm

>  <SCORE>
-50.8328

>  <SCORE.INTER>
-31.2998

>  <SCORE.INTER.CONST>
1

>  <SCORE.INTER.POLAR>
-2.72041

>  <SCORE.INTER.ROT>
2

>  <SCORE.INTER.SOLV>
13.7945

>  <SCORE.INTER.VDW>
-21.33

>  <SCORE.INTER.norm>
-2.40767

>  <SCORE.INTRA>
2.94945

>  <SCORE.INTRA.DIHEDRAL>
0.0513296

>  <SCORE.INTRA.DIHEDRAL.0>
0.479735

>  <SCORE.INTRA.POLAR>
0.714694

>  <SCORE.INTRA.POLAR.0>
-0.714694

>  <SCORE.INTRA.REPUL>
0

>  <SCORE.INTRA.REPUL.0>
0

>  <SCORE.INTRA.SOLV>
-0.714124

>  <SCORE.INTRA.SOLV.lig_0>
-17.5326

>  <SCORE.INTRA.VDW>
0.850888

>  <SCORE.INTRA.VDW.0>
0.162251

>  <SCORE.INTRA.norm>
0.226881

>  <SCORE.RESTR>
0

>  <SCORE.RESTR.CAVITY>
0

>  <SCORE.RESTR.norm>
0

>  <SCORE.SYSTEM>
-22.4825

>  <SCORE.SYSTEM.CONST>
0

>  <SCORE.SYSTEM.DIHEDRAL>
6.31182

>  <SCORE.SYSTEM.POLAR>
-3.55533

>  <SCORE.SYSTEM.SOLV>
0.481868

>  <SCORE.SYSTEM.VDW>
-5.40179

>  <SCORE.SYSTEM.norm>
-1.72942

>  <SCORE.heavy>
13

>  <SCORE.norm>
-3.91022

$$$$
P23936416
 OpenBabel12072022103D
libRbt.so/2013.1/901 2013/11/27
 10 10  0  0  0  0  0  0  0  0999 V2000
   20.1885  -16.3817    4.1437 C   0  0  0  0  0  0  0  0  0  0  0  0
   21.3987  -15.5545    4.0561 N   0  3  2  0  0  0  0  0  0  0  0  0
   21.3709  -14.9808    3.1696 H   0  0  0  0  0  0  0  0  0  0  0  0
   22.7201  -16.2525    3.9262 C   0  0  0  0  0  0  0  0  0  0  0  0
   23.7368  -15.3013    4.5515 C   0  0  0  0  0  0  0  0  0  0  0  0
   22.9858  -14.0165    4.8557 C   0  0  2  0  0  0  0  0  0  0  0  0
   21.5696  -14.4771    5.1010 C   0  0  0  0  0  0  0  0  0  0  0  0
   22.7671  -13.0952    3.6576 C   0  0  0  0  0  0  0  0  0  0  0  0
   23.1243  -13.5661    2.5536 O   0  0  0  0  0  0  0  0  0  0  0  0
   22.3644  -11.9316    3.9691 O   0  5  0  0  0  0  0  0  0  0  0  0
  1  2  1  0  0  0  0
  2  3  1  6  0  0  0
  2  4  1  0  0  0  0
  2  7  1  0  0  0  0
  4  5  1  0  0  0  0
  5  6  1  0  0  0  0
  6  7  1  0  0  0  0
  6  8  1  6  0  0  0
  8  9  2  0  0  0  0
  8 10  1  0  0  0  0
M  CHG  2   2   1  10  -1
M  END
>  <CHROM.0>
-49.37792825,-60.21834165,-55.01219613,-54.07815524,-56.77626266,-63.81641757
-63.31770988,-53.94288492,-166.88325307,160.56014194

>  <CHROM.1>
6.23028261,22.29419601,-14.49878643,4.05918642,1.99844189,-0.13713176,3.03783719

>  <Name>
P23936416

>  <RI>
0

>  <Rbt.Current_Directory>
/home/fstefaniak/projects/zuza/docking/adenine/1Y26

>  <Rbt.Executable>
rbdock ($Id: //depot/dev/client3/rdock/2013.1/src/exe/rbdock.cxx#4 $)

>  <Rbt.Library>
libRbt.so (2013.1, Build901 2013/11/27)

>  <Rbt.Parameter_File>
/home/fstefaniak/progs/rDock//data/scripts/dock_solv.prm

>  <Rbt.Receptor>
1y26.prm

>  <SCORE>
-38.8842

>  <SCORE.INTER>
-16.2208

>  <SCORE.INTER.CONST>
1

>  <SCORE.INTER.POLAR>
-2.46182

>  <SCORE.INTER.ROT>
1

>  <SCORE.INTER.SOLV>
13.124

>  <SCORE.INTER.VDW>
-11.2491

>  <SCORE.INTER.norm>
-1.80231

>  <SCORE.INTRA>
-0.328528

>  <SCORE.INTRA.DIHEDRAL>
0.186835

>  <SCORE.INTRA.DIHEDRAL.0>
0.91618

>  <SCORE.INTRA.POLAR>
0.178465

>  <SCORE.INTRA.POLAR.0>
-0.178465

>  <SCORE.INTRA.REPUL>
0

>  <SCORE.INTRA.REPUL.0>
0

>  <SCORE.INTRA.SOLV>
-0.860059

>  <SCORE.INTRA.SOLV.lig_0>
-37.3311

>  <SCORE.INTRA.VDW>
-0.598698

>  <SCORE.INTRA.VDW.0>
1.26299

>  <SCORE.INTRA.norm>
-0.0365031

>  <SCORE.RESTR>
0

>  <SCORE.RESTR.CAVITY>
0

>  <SCORE.RESTR.norm>
0

>  <SCORE.SYSTEM>
-22.3349

>  <SCORE.SYSTEM.CONST>
0

>  <SCORE.SYSTEM.DIHEDRAL>
5.57215

>  <SCORE.SYSTEM.POLAR>
-3.45718

>  <SCORE.SYSTEM.SOLV>
0.642554

>  <SCORE.SYSTEM.VDW>
-5.43759

>  <SCORE.SYSTEM.norm>
-2.48166

>  <SCORE.heavy>
9

>  <SCORE.norm>
-4.32047

$$$$
P23936416
 OpenBabel12072022103D
libRbt.so/2013.1/901 2013/11/27
 10 10  0  0  0  0  0  0  0  0999 V2000
   20.2036  -16.3644    4.1935 C   0  0  0  0  0  0  0  0  0  0  0  0
   21.4078  -15.5313    4.0824 N   0  3  2  0  0  0  0  0  0  0  0  0
   21.3675  -14.9699    3.1884 H   0  0  0  0  0  0  0  0  0  0  0  0
   22.7320  -16.2230    3.9486 C   0  0  0  0  0  0  0  0  0  0  0  0
   23.7492  -15.2572    4.5505 C   0  0  0  0  0  0  0  0  0  0  0  0
   22.9934  -13.9729    4.8447 C   0  0  2  0  0  0  0  0  0  0  0  0
   21.5825  -14.4386    5.1107 C   0  0  0  0  0  0  0  0  0  0  0  0
   22.7569  -13.0695    3.6364 C   0  0  0  0  0  0  0  0  0  0  0  0
   23.1268  -13.5441    2.5382 O   0  0  0  0  0  0  0  0  0  0  0  0
   22.3280  -11.9118    3.9347 O   0  5  0  0  0  0  0  0  0  0  0  0
  1  2  1  0  0  0  0
  2  3  1  6  0  0  0
  2  4  1  0  0  0  0
  2  7  1  0  0  0  0
  4  5  1  0  0  0  0
  5  6  1  0  0  0  0
  6  7  1  0  0  0  0
  6  8  1  6  0  0  0
  8  9  2  0  0  0  0
  8 10  1  0  0  0  0
M  CHG  2   2   1  10  -1
M  END
>  <CHROM.0>
-45.47235809,-63.23717444,-49.96884884,-52.91065489,-55.28658181,56.72141655
-60.74266844,-178.01953490,-166.31460939,160.65973302

>  <CHROM.1>
5.06886198,22.29659073,-14.47004760,4.06210789,1.99169795,-0.15137641,3.02340477

>  <Name>
P23936416

>  <RI>
0

>  <Rbt.Current_Directory>
/home/fstefaniak/projects/zuza/docking/adenine/1Y26

>  <Rbt.Executable>
rbdock ($Id: //depot/dev/client3/rdock/2013.1/src/exe/rbdock.cxx#4 $)

>  <Rbt.Library>
libRbt.so (2013.1, Build901 2013/11/27)

>  <Rbt.Parameter_File>
/home/fstefaniak/progs/rDock//data/scripts/dock_solv.prm

>  <Rbt.Receptor>
1y26.prm

>  <SCORE>
-38.2623

>  <SCORE.INTER>
-16.1632

>  <SCORE.INTER.CONST>
1

>  <SCORE.INTER.POLAR>
-2.46888

>  <SCORE.INTER.ROT>
1

>  <SCORE.INTER.SOLV>
13.0983

>  <SCORE.INTER.VDW>
-11.1787

>  <SCORE.INTER.norm>
-1.79592

>  <SCORE.INTRA>
-0.322822

>  <SCORE.INTRA.DIHEDRAL>
0.177972

>  <SCORE.INTRA.DIHEDRAL.0>
0.91618

>  <SCORE.INTRA.POLAR>
0.178465

>  <SCORE.INTRA.POLAR.0>
-0.178465

>  <SCORE.INTRA.REPUL>
0

>  <SCORE.INTRA.REPUL.0>
0

>  <SCORE.INTRA.SOLV>
-0.876712

>  <SCORE.INTRA.SOLV.lig_0>
-37.3311

>  <SCORE.INTRA.VDW>
-0.580234

>  <SCORE.INTRA.VDW.0>
1.26299

>  <SCORE.INTRA.norm>
-0.0358692

>  <SCORE.RESTR>
0

>  <SCORE.RESTR.CAVITY>
0

>  <SCORE.RESTR.norm>
0

>  <SCORE.SYSTEM>
-21.7763

>  <SCORE.SYSTEM.CONST>
0

>  <SCORE.SYSTEM.DIHEDRAL>
6.3657

>  <SCORE.SYSTEM.POLAR>
-3.55959

>  <SCORE.SYSTEM.SOLV>
0.301042

>  <SCORE.SYSTEM.VDW>
-4.87447

>  <SCORE.SYSTEM.norm>
-2.41958

>  <SCORE.heavy>
9

>  <SCORE.norm>
-4.25137

$$$$
P23936416
 OpenBabel12072022103D
libRbt.so/2013.1/901 2013/11/27
 10 10  0  0  0  0  0  0  0  0999 V2000
   20.1880  -16.3185    4.1894 C   0  0  0  0  0  0  0  0  0  0  0  0
   21.4120  -15.5136    4.0866 N   0  3  2  0  0  0  0  0  0  0  0  0
   21.3864  -14.9438    3.1975 H   0  0  0  0  0  0  0  0  0  0  0  0
   22.7194  -16.2357    3.9483 C   0  0  0  0  0  0  0  0  0  0  0  0
   23.7587  -15.2998    4.5596 C   0  0  0  0  0  0  0  0  0  0  0  0
   23.0336  -14.0003    4.8640 C   0  0  2  0  0  0  0  0  0  0  0  0
   21.6116  -14.4343    5.1245 C   0  0  0  0  0  0  0  0  0  0  0  0
   22.8204  -13.0811    3.6632 C   0  0  0  0  0  0  0  0  0  0  0  0
   23.1370  -13.5725    2.5558 O   0  0  0  0  0  0  0  0  0  0  0  0
   22.4648  -11.9020    3.9737 O   0  5  0  0  0  0  0  0  0  0  0  0
  1  2  1  0  0  0  0
  2  3  1  6  0  0  0
  2  4  1  0  0  0  0
  2  7  1  0  0  0  0
  4  5  1  0  0  0  0
  5  6  1  0  0  0  0
  6  7  1  0  0  0  0
  6  8  1  6  0  0  0
  8  9  2  0  0  0  0
  8 10  1  0  0  0  0
M  CHG  2   2   1  10  -1
M  END
>  <CHROM.0>
-48.95356240,-62.17322194,62.90725294,-51.85562229,-57.18183920,-176.07866038
78.92263658,-176.49740151,-167.33236292,160.20452109

>  <CHROM.1>
7.43704536,22.32637685,-14.47424484,4.07606635,2.01503286,-0.14237131,3.03450887

>  <Name>
P23936416

>  <RI>
0

>  <Rbt.Current_Directory>
/home/fstefaniak/projects/zuza/docking/adenine/1Y26

>  <Rbt.Executable>
rbdock ($Id: //depot/dev/client3/rdock/2013.1/src/exe/rbdock.cxx#4 $)

>  <Rbt.Library>
libRbt.so (2013.1, Build901 2013/11/27)

>  <Rbt.Parameter_File>
/home/fstefaniak/progs/rDock//data/scripts/dock_solv.prm

>  <Rbt.Receptor>
1y26.prm

>  <SCORE>
-37.6251

>  <SCORE.INTER>
-16.1707

>  <SCORE.INTER.CONST>
1

>  <SCORE.INTER.POLAR>
-2.45607

>  <SCORE.INTER.ROT>
1

>  <SCORE.INTER.SOLV>
12.9354

>  <SCORE.INTER.VDW>
-11.172

>  <SCORE.INTER.norm>
-1.79675

>  <SCORE.INTRA>
-0.332985

>  <SCORE.INTRA.DIHEDRAL>
0.195844

>  <SCORE.INTRA.DIHEDRAL.0>
0.91618

>  <SCORE.INTRA.POLAR>
0.178465

>  <SCORE.INTRA.POLAR.0>
-0.178465

>  <SCORE.INTRA.REPUL>
0

>  <SCORE.INTRA.REPUL.0>
0

>  <SCORE.INTRA.SOLV>
-0.842405

>  <SCORE.INTRA.SOLV.lig_0>
-37.3311

>  <SCORE.INTRA.VDW>
-0.616487

>  <SCORE.INTRA.VDW.0>
1.26299

>  <SCORE.INTRA.norm>
-0.0369984

>  <SCORE.RESTR>
0

>  <SCORE.RESTR.CAVITY>
0

>  <SCORE.RESTR.norm>
0

>  <SCORE.SYSTEM>
-21.1214

>  <SCORE.SYSTEM.CONST>
0

>  <SCORE.SYSTEM.DIHEDRAL>
7.12257

>  <SCORE.SYSTEM.POLAR>
-3.82746

>  <SCORE.SYSTEM.SOLV>
0.135397

>  <SCORE.SYSTEM.VDW>
-3.74204

>  <SCORE.SYSTEM.norm>
-2.34682

>  <SCORE.heavy>
9

>  <SCORE.norm>
-4.18056

$$$$
P23938388
 OpenBabel12072022103D
libRbt.so/2013.1/901 2013/11/27
 11 10  0  0  0  0  0  0  0  0999 V2000
   24.7609  -16.4406    5.1091 C   0  0  0  0  0  0  0  0  0  0  0  0
   23.8518  -16.2830    3.8988 C   0  0  0  0  0  0  0  0  0  0  0  0
   22.4702  -15.9703    4.2685 N   0  0  0  0  0  0  0  0  0  0  0  0
   22.1674  -14.5645    4.5083 C   0  0  0  0  0  0  0  0  0  0  0  0
   21.4903  -16.9017    3.8977 C   0  0  0  0  0  0  0  0  0  0  0  0
   21.5664  -17.5592    2.8644 O   0  0  0  0  0  0  0  0  0  0  0  0
   20.4946  -17.0674    4.8302 N   0  0  0  0  0  0  0  0  0  0  0  0
   19.5829  -18.1009    4.7872 C   0  0  0  0  0  0  0  0  0  0  0  0
   18.8306  -18.3510    3.8522 O   0  0  0  0  0  0  0  0  0  0  0  0
   19.4381  -18.7987    6.1144 C   0  0  0  0  0  0  0  0  0  0  0  0
   20.7126  -16.6793    5.7310 H   0  0  0  0  0  0  0  0  0  0  0  0
  1  2  1  0  0  0  0
  2  3  1  0  0  0  0
  3  4  1  0  0  0  0
  3  5  1  0  0  0  0
  5  6  2  0  0  0  0
  5  7  1  0  0  0  0
  7  8  1  0  0  0  0
  7 11  1  0  0  0  0
  8  9  2  0  0  0  0
  8 10  1  0  0  0  0
M  END
>  <CHROM.0>
-58.70052233,72.66170745,-58.92797224,-52.90630210,-58.74315728,-178.30270965
-52.91217696,-48.91345212,-166.39763367,160.60437760

>  <CHROM.1>
84.60930136,-33.72050059,-167.33003490,-57.24748813,21.46513109,-17.00527972
4.41279870,-0.22186489,0.46925472,1.88652672

>  <Name>
P23938388

>  <RI>
0

>  <Rbt.Current_Directory>
/home/fstefaniak/projects/zuza/docking/adenine/1Y26

>  <Rbt.Executable>
rbdock ($Id: //depot/dev/client3/rdock/2013.1/src/exe/rbdock.cxx#4 $)

>  <Rbt.Library>
libRbt.so (2013.1, Build901 2013/11/27)

>  <Rbt.Parameter_File>
/home/fstefaniak/progs/rDock//data/scripts/dock_solv.prm

>  <Rbt.Receptor>
1y26.prm

>  <SCORE>
-44.8567

>  <SCORE.INTER>
-22.2046

>  <SCORE.INTER.CONST>
1

>  <SCORE.INTER.POLAR>
-2.88525

>  <SCORE.INTER.ROT>
4

>  <SCORE.INTER.SOLV>
10.4184

>  <SCORE.INTER.VDW>
-14.925

>  <SCORE.INTER.norm>
-2.22046

>  <SCORE.INTRA>
-1.86846

>  <SCORE.INTRA.DIHEDRAL>
0.907001

>  <SCORE.INTRA.DIHEDRAL.0>
2.07448

>  <SCORE.INTRA.POLAR>
0

>  <SCORE.INTRA.POLAR.0>
0

>  <SCORE.INTRA.REPUL>
0

>  <SCORE.INTRA.REPUL.0>
0

>  <SCORE.INTRA.SOLV>
-0.12906

>  <SCORE.INTRA.SOLV.lig_0>
-15.1388

>  <SCORE.INTRA.VDW>
-2.25743

>  <SCORE.INTRA.VDW.0>
2.89487

>  <SCORE.INTRA.norm>
-0.186846

>  <SCORE.RESTR>
0

>  <SCORE.RESTR.CAVITY>
0

>  <SCORE.RESTR.norm>
0

>  <SCORE.SYSTEM>
-20.7837

>  <SCORE.SYSTEM.CONST>
0

>  <SCORE.SYSTEM.DIHEDRAL>
6.26488

>  <SCORE.SYSTEM.POLAR>
-3.40576

>  <SCORE.SYSTEM.SOLV>
0.513595

>  <SCORE.SYSTEM.VDW>
-4.76277

>  <SCORE.SYSTEM.norm>
-2.07837

>  <SCORE.heavy>
10

>  <SCORE.norm>
-4.48567

$$$$
P23938388
 OpenBabel12072022103D
libRbt.so/2013.1/901 2013/11/27
 11 10  0  0  0  0  0  0  0  0999 V2000
   24.4315  -16.2861    4.8096 C   0  0  0  0  0  0  0  0  0  0  0  0
   23.2375  -16.5656    3.9083 C   0  0  0  0  0  0  0  0  0  0  0  0
   22.0360  -15.8389    4.3227 N   0  0  0  0  0  0  0  0  0  0  0  0
   22.1613  -14.3904    4.4304 C   0  0  0  0  0  0  0  0  0  0  0  0
   20.8062  -16.4772    4.1096 C   0  0  0  0  0  0  0  0  0  0  0  0
   20.2223  -16.4349    3.0312 O   0  0  0  0  0  0  0  0  0  0  0  0
   20.3656  -17.2148    5.1820 N   0  0  0  0  0  0  0  0  0  0  0  0
   19.6385  -18.3790    5.0512 C   0  0  0  0  0  0  0  0  0  0  0  0
   19.2171  -18.8432    3.9978 O   0  0  0  0  0  0  0  0  0  0  0  0
   19.2135  -18.9468    6.3804 C   0  0  0  0  0  0  0  0  0  0  0  0
   20.9313  -17.1122    6.0060 H   0  0  0  0  0  0  0  0  0  0  0  0
  1  2  1  0  0  0  0
  2  3  1  0  0  0  0
  3  4  1  0  0  0  0
  3  5  1  0  0  0  0
  5  6  2  0  0  0  0
  5  7  1  0  0  0  0
  7  8  1  0  0  0  0
  7 11  1  0  0  0  0
  8  9  2  0  0  0  0
  8 10  1  0  0  0  0
M  END
>  <CHROM.0>
-50.56628800,62.28941737,-56.29071161,-51.84535448,-57.39477326,-176.29260071
-57.86238861,-51.51548135,-167.47583554,161.46102841

>  <CHROM.1>
55.84039349,-83.71365903,-146.67408957,-5.57709319,21.13512380,-16.93618531
4.51777972,-0.57898610,0.34382451,2.41502086

>  <Name>
P23938388

>  <RI>
0

>  <Rbt.Current_Directory>
/home/fstefaniak/projects/zuza/docking/adenine/1Y26

>  <Rbt.Executable>
rbdock ($Id: //depot/dev/client3/rdock/2013.1/src/exe/rbdock.cxx#4 $)

>  <Rbt.Library>
libRbt.so (2013.1, Build901 2013/11/27)

>  <Rbt.Parameter_File>
/home/fstefaniak/progs/rDock//data/scripts/dock_solv.prm

>  <Rbt.Receptor>
1y26.prm

>  <SCORE>
-44.7239

>  <SCORE.INTER>
-22.1993

>  <SCORE.INTER.CONST>
1

>  <SCORE.INTER.POLAR>
-2.66548

>  <SCORE.INTER.ROT>
4

>  <SCORE.INTER.SOLV>
11.0969

>  <SCORE.INTER.VDW>
-15.8802

>  <SCORE.INTER.norm>
-2.21993

>  <SCORE.INTRA>
-1.14561

>  <SCORE.INTRA.DIHEDRAL>
0.133925

>  <SCORE.INTRA.DIHEDRAL.0>
2.07448

>  <SCORE.INTRA.POLAR>
0

>  <SCORE.INTRA.POLAR.0>
0

>  <SCORE.INTRA.REPUL>
0

>  <SCORE.INTRA.REPUL.0>
0

>  <SCORE.INTRA.SOLV>
-0.0931318

>  <SCORE.INTRA.SOLV.lig_0>
-15.1388

>  <SCORE.INTRA.VDW>
-1.16601

>  <SCORE.INTRA.VDW.0>
2.89487

>  <SCORE.INTRA.norm>
-0.114561

>  <SCORE.RESTR>
0

>  <SCORE.RESTR.CAVITY>
0

>  <SCORE.RESTR.norm>
0

>  <SCORE.SYSTEM>
-21.379

>  <SCORE.SYSTEM.CONST>
0

>  <SCORE.SYSTEM.DIHEDRAL>
5.48747

>  <SCORE.SYSTEM.POLAR>
-3.44584

>  <SCORE.SYSTEM.SOLV>
0.556646

>  <SCORE.SYSTEM.VDW>
-4.78123

>  <SCORE.SYSTEM.norm>
-2.1379

>  <SCORE.heavy>
10

>  <SCORE.norm>
-4.47239

$$$$
P23938388
 OpenBabel12072022103D
libRbt.so/2013.1/901 2013/11/27
 11 10  0  0  0  0  0  0  0  0999 V2000
   22.4271  -13.2929    4.1743 C   0  0  0  0  0  0  0  0  0  0  0  0
   21.8564  -14.4545    4.9750 C   0  0  0  0  0  0  0  0  0  0  0  0
   21.9489  -15.7298    4.2622 N   0  0  0  0  0  0  0  0  0  0  0  0
   23.2481  -16.3909    4.2852 C   0  0  0  0  0  0  0  0  0  0  0  0
   20.7502  -16.4267    4.0551 C   0  0  0  0  0  0  0  0  0  0  0  0
   20.2353  -16.5330    2.9463 O   0  0  0  0  0  0  0  0  0  0  0  0
   20.2593  -17.0425    5.1812 N   0  0  0  0  0  0  0  0  0  0  0  0
   19.6262  -18.2671    5.1581 C   0  0  0  0  0  0  0  0  0  0  0  0
   19.1380  -18.8001    4.1680 O   0  0  0  0  0  0  0  0  0  0  0  0
   19.3946  -18.8235    6.5388 C   0  0  0  0  0  0  0  0  0  0  0  0
   20.7363  -16.7835    6.0268 H   0  0  0  0  0  0  0  0  0  0  0  0
  1  2  1  0  0  0  0
  2  3  1  0  0  0  0
  3  4  1  0  0  0  0
  3  5  1  0  0  0  0
  5  6  2  0  0  0  0
  5  7  1  0  0  0  0
  7  8  1  0  0  0  0
  7 11  1  0  0  0  0
  8  9  2  0  0  0  0
  8 10  1  0  0  0  0
M  END
>  <CHROM.0>
60.42718328,-60.21413094,-55.19770031,-53.06314808,-57.43911000,-60.76595494
-59.55101173,-52.93600921,-167.63663076,160.69668438

>  <CHROM.1>
79.51087948,109.17239843,-143.41591073,-18.59465812,20.89079382,-16.57735062
4.56470976,-0.46103477,0.86626667,1.92486933

>  <Name>
P23938388

>  <RI>
0

>  <Rbt.Current_Directory>
/home/fstefaniak/projects/zuza/docking/adenine/1Y26

>  <Rbt.Executable>
rbdock ($Id: //depot/dev/client3/rdock/2013.1/src/exe/rbdock.cxx#4 $)

>  <Rbt.Library>
libRbt.so (2013.1, Build901 2013/11/27)

>  <Rbt.Parameter_File>
/home/fstefaniak/progs/rDock//data/scripts/dock_solv.prm

>  <Rbt.Receptor>
1y26.prm

>  <SCORE>
-44.524

>  <SCORE.INTER>
-20.9847

>  <SCORE.INTER.CONST>
1

>  <SCORE.INTER.POLAR>
-2.13137

>  <SCORE.INTER.ROT>
4

>  <SCORE.INTER.SOLV>
10.358

>  <SCORE.INTER.VDW>
-16.6045

>  <SCORE.INTER.norm>
-2.09847

>  <SCORE.INTRA>
-2.13709

>  <SCORE.INTRA.DIHEDRAL>
0.911808

>  <SCORE.INTRA.DIHEDRAL.0>
2.07448

>  <SCORE.INTRA.POLAR>
0

>  <SCORE.INTRA.POLAR.0>
0

>  <SCORE.INTRA.REPUL>
0

>  <SCORE.INTRA.REPUL.0>
0

>  <SCORE.INTRA.SOLV>
-0.00815212

>  <SCORE.INTRA.SOLV.lig_0>
-15.1388

>  <SCORE.INTRA.VDW>
-2.58892

>  <SCORE.INTRA.VDW.0>
2.89487

>  <SCORE.INTRA.norm>
-0.213709

>  <SCORE.RESTR>
0

>  <SCORE.RESTR.CAVITY>
0

>  <SCORE.RESTR.norm>
0

>  <SCORE.SYSTEM>
-21.4023

>  <SCORE.SYSTEM.CONST>
0

>  <SCORE.SYSTEM.DIHEDRAL>
4.91065

>  <SCORE.SYSTEM.POLAR>
-3.22652

>  <SCORE.SYSTEM.SOLV>
0.636565

>  <SCORE.SYSTEM.VDW>
-5.36219

>  <SCORE.SYSTEM.norm>
-2.14023

>  <SCORE.heavy>
10

>  <SCORE.norm>
-4.4524

$$$$
P23963563
 OpenBabel12072022103D
libRbt.so/2013.1/901 2013/11/27
 15 15  0  0  0  0  0  0  0  0999 V2000
   22.9398  -16.6803    4.1300 C   0  0  0  0  0  0  0  0  0  0  0  0
   21.6901  -17.2383    3.8332 C   0  0  0  0  0  0  0  0  0  0  0  0
   20.5396  -16.4480    3.8759 C   0  0  0  0  0  0  0  0  0  0  0  0
   20.6545  -15.0965    4.2241 C   0  0  0  0  0  0  0  0  0  0  0  0
   21.9028  -14.5361    4.5203 C   0  0  0  0  0  0  0  0  0  0  0  0
   23.0547  -15.3262    4.4638 C   0  0  0  0  0  0  0  0  0  0  0  0
   24.4063  -14.7875    4.7719 C   0  0  0  0  0  0  0  0  0  0  0  0
   24.6673  -13.5984    4.6421 O   0  0  0  0  0  0  0  0  0  0  0  0
   25.3445  -15.6622    5.2445 N   0  0  0  0  0  0  0  0  0  0  0  0
   19.2530  -16.9313    3.5926 N   0  0  0  0  0  0  0  0  0  0  0  0
   18.8974  -18.1735    3.1564 C   0  0  0  0  0  0  0  0  0  0  0  0
   17.7319  -18.4835    2.9384 O   0  0  0  0  0  0  0  0  0  0  0  0
   25.5379  -15.7842    6.2274 H   0  0  0  0  0  0  0  0  0  0  0  0
   26.0623  -15.9425    4.5879 H   0  0  0  0  0  0  0  0  0  0  0  0
   18.4632  -16.3090    3.7163 H   0  0  0  0  0  0  0  0  0  0  0  0
  1  2  2  0  0  0  0
  1  6  1  0  0  0  0
  2  3  1  0  0  0  0
  3  4  2  0  0  0  0
  3 10  1  0  0  0  0
  4  5  1  0  0  0  0
  5  6  2  0  0  0  0
  6  7  1  0  0  0  0
  7  8  2  0  0  0  0
  7  9  1  0  0  0  0
  9 13  1  0  0  0  0
  9 14  1  0  0  0  0
 10 11  1  0  0  0  0
 10 15  1  0  0  0  0
 11 12  2  0  0  0  0
M  END
>  <CHROM.0>
-49.33242108,-178.80719993,-58.18758374,-52.22896232,-176.13285689,-60.72603510
-55.59054749,-177.99204768,-169.25577763,160.40262214

>  <CHROM.1>
-4.61777313,155.71179693,-96.11975890,21.75578118,-16.09038154,4.11661803
-0.49610242,0.19894478,-3.01428336

>  <Name>
P23963563

>  <RI>
0

>  <Rbt.Current_Directory>
/home/fstefaniak/projects/zuza/docking/adenine/1Y26

>  <Rbt.Executable>
rbdock ($Id: //depot/dev/client3/rdock/2013.1/src/exe/rbdock.cxx#4 $)

>  <Rbt.Library>
libRbt.so (2013.1, Build901 2013/11/27)

>  <Rbt.Parameter_File>
/home/fstefaniak/progs/rDock//data/scripts/dock_solv.prm

>  <Rbt.Receptor>
1y26.prm

>  <SCORE>
-50.4019

>  <SCORE.INTER>
-27.9669

>  <SCORE.INTER.CONST>
1

>  <SCORE.INTER.POLAR>
-3.65276

>  <SCORE.INTER.ROT>
3

>  <SCORE.INTER.SOLV>
14.2025

>  <SCORE.INTER.VDW>
-16.8029

>  <SCORE.INTER.norm>
-2.33057

>  <SCORE.INTRA>
0.27488

>  <SCORE.INTRA.DIHEDRAL>
0.805033

>  <SCORE.INTRA.DIHEDRAL.0>
2.18257

>  <SCORE.INTRA.POLAR>
0

>  <SCORE.INTRA.POLAR.0>
0

>  <SCORE.INTRA.REPUL>
0

>  <SCORE.INTRA.REPUL.0>
0

>  <SCORE.INTRA.SOLV>
0.00205166

>  <SCORE.INTRA.SOLV.lig_0>
-18.7183

>  <SCORE.INTRA.VDW>
-0.128662

>  <SCORE.INTRA.VDW.0>
-0.191828

>  <SCORE.INTRA.norm>
0.0229067

>  <SCORE.RESTR>
0

>  <SCORE.RESTR.CAVITY>
0

>  <SCORE.RESTR.norm>
0

>  <SCORE.SYSTEM>
-22.71

>  <SCORE.SYSTEM.CONST>
0

>  <SCORE.SYSTEM.DIHEDRAL>
5.22273

>  <SCORE.SYSTEM.POLAR>
-3.42465

>  <SCORE.SYSTEM.SOLV>
0.238933

>  <SCORE.SYSTEM.VDW>
-5.54502

>  <SCORE.SYSTEM.norm>
-1.8925

>  <SCORE.heavy>
12

>  <SCORE.norm>
-4.20016

$$$$
P23963563
 OpenBabel12072022103D
libRbt.so/2013.1/901 2013/11/27
 15 15  0  0  0  0  0  0  0  0999 V2000
   22.9112  -16.6767    4.1520 C   0  0  0  0  0  0  0  0  0  0  0  0
   21.6619  -17.2329    3.8503 C   0  0  0  0  0  0  0  0  0  0  0  0
   20.5146  -16.4370    3.8717 C   0  0  0  0  0  0  0  0  0  0  0  0
   20.6324  -15.0817    4.2038 C   0  0  0  0  0  0  0  0  0  0  0  0
   21.8803  -14.5231    4.5048 C   0  0  0  0  0  0  0  0  0  0  0  0
   23.0291  -15.3190    4.4696 C   0  0  0  0  0  0  0  0  0  0  0  0
   24.3801  -14.7824    4.7839 C   0  0  0  0  0  0  0  0  0  0  0  0
   24.6367  -13.5900    4.6782 O   0  0  0  0  0  0  0  0  0  0  0  0
   25.3230  -15.6636    5.2344 N   0  0  0  0  0  0  0  0  0  0  0  0
   19.2287  -16.9182    3.5822 N   0  0  0  0  0  0  0  0  0  0  0  0
   18.8713  -18.1653    3.1615 C   0  0  0  0  0  0  0  0  0  0  0  0
   17.7065  -18.4728    2.9359 O   0  0  0  0  0  0  0  0  0  0  0  0
   25.5076  -15.8193    6.2142 H   0  0  0  0  0  0  0  0  0  0  0  0
   26.0504  -15.9123    4.5757 H   0  0  0  0  0  0  0  0  0  0  0  0
   18.4408  -16.2901    3.6877 H   0  0  0  0  0  0  0  0  0  0  0  0
  1  2  2  0  0  0  0
  1  6  1  0  0  0  0
  2  3  1  0  0  0  0
  3  4  2  0  0  0  0
  3 10  1  0  0  0  0
  4  5  1  0  0  0  0
  5  6  2  0  0  0  0
  6  7  1  0  0  0  0
  7  8  2  0  0  0  0
  7  9  1  0  0  0  0
  9 13  1  0  0  0  0
  9 14  1  0  0  0  0
 10 11  1  0  0  0  0
 10 15  1  0  0  0  0
 11 12  2  0  0  0  0
M  END
>  <CHROM.0>
-50.16985899,-54.20666043,-59.69040547,-53.14395834,-59.14082064,-62.65372117
-49.24391977,-178.11428559,-166.35451390,160.62398024

>  <CHROM.1>
-4.44307259,157.84779198,-94.85094717,21.73028043,-16.08215592,4.11948754
-0.49454300,0.20370900,-3.01880397

>  <Name>
P23963563

>  <RI>
0

>  <Rbt.Current_Directory>
/home/fstefaniak/projects/zuza/docking/adenine/1Y26

>  <Rbt.Executable>
rbdock ($Id: //depot/dev/client3/rdock/2013.1/src/exe/rbdock.cxx#4 $)

>  <Rbt.Library>
libRbt.so (2013.1, Build901 2013/11/27)

>  <Rbt.Parameter_File>
/home/fstefaniak/progs/rDock//data/scripts/dock_solv.prm

>  <Rbt.Receptor>
1y26.prm

>  <SCORE>
-49.7439

>  <SCORE.INTER>
-27.4911

>  <SCORE.INTER.CONST>
1

>  <SCORE.INTER.POLAR>
-3.65426

>  <SCORE.INTER.ROT>
3

>  <SCORE.INTER.SOLV>
14.3144

>  <SCORE.INTER.VDW>
-16.518

>  <SCORE.INTER.norm>
-2.29092

>  <SCORE.INTRA>
0.117051

>  <SCORE.INTRA.DIHEDRAL>
0.437573

>  <SCORE.INTRA.DIHEDRAL.0>
2.18257

>  <SCORE.INTRA.POLAR>
0

>  <SCORE.INTRA.POLAR.0>
0

>  <SCORE.INTRA.REPUL>
0

>  <SCORE.INTRA.REPUL.0>
0

>  <SCORE.INTRA.SOLV>
0.00463201

>  <SCORE.INTRA.SOLV.lig_0>
-18.7183

>  <SCORE.INTRA.VDW>
-0.104051

>  <SCORE.INTRA.VDW.0>
-0.191828

>  <SCORE.INTRA.norm>
0.00975424

>  <SCORE.RESTR>
0

>  <SCORE.RESTR.CAVITY>
0

>  <SCORE.RESTR.norm>
0

>  <SCORE.SYSTEM>
-22.3698

>  <SCORE.SYSTEM.CONST>
0

>  <SCORE.SYSTEM.DIHEDRAL>
5.90684

>  <SCORE.SYSTEM.POLAR>
-3.46676

>  <SCORE.SYSTEM.SOLV>
0.462033

>  <SCORE.SYSTEM.VDW>
-5.48033

>  <SCORE.SYSTEM.norm>
-1.86415

>  <SCORE.heavy>
12

>  <SCORE.norm>
-4.14532

$$$$
P23963563
 OpenBabel12072022103D
libRbt.so/2013.1/901 2013/11/27
 15 15  0  0  0  0  0  0  0  0999 V2000
   22.0401  -14.5914    4.6211 C   0  0  0  0  0  0  0  0  0  0  0  0
   20.7485  -15.0507    4.3349 C   0  0  0  0  0  0  0  0  0  0  0  0
   20.5479  -16.3669    3.9136 C   0  0  0  0  0  0  0  0  0  0  0  0
   21.6545  -17.2142    3.7772 C   0  0  0  0  0  0  0  0  0  0  0  0
   22.9466  -16.7577    4.0637 C   0  0  0  0  0  0  0  0  0  0  0  0
   23.1432  -15.4435    4.4980 C   0  0  0  0  0  0  0  0  0  0  0  0
   24.4921  -14.9018    4.8129 C   0  0  0  0  0  0  0  0  0  0  0  0
   24.7409  -13.7068    4.7187 O   0  0  0  0  0  0  0  0  0  0  0  0
   25.4421  -15.7818    5.2507 N   0  0  0  0  0  0  0  0  0  0  0  0
   19.2874  -16.9022    3.6077 N   0  0  0  0  0  0  0  0  0  0  0  0
   18.9881  -18.1649    3.1884 C   0  0  0  0  0  0  0  0  0  0  0  0
   17.8405  -18.5213    2.9472 O   0  0  0  0  0  0  0  0  0  0  0  0
   25.6482  -15.9286    6.2276 H   0  0  0  0  0  0  0  0  0  0  0  0
   26.1538  -16.0393    4.5783 H   0  0  0  0  0  0  0  0  0  0  0  0
   18.4728  -16.3067    3.6982 H   0  0  0  0  0  0  0  0  0  0  0  0
  1  2  2  0  0  0  0
  1  6  1  0  0  0  0
  2  3  1  0  0  0  0
  3  4  2  0  0  0  0
  3 10  1  0  0  0  0
  4  5  1  0  0  0  0
  5  6  2  0  0  0  0
  6  7  1  0  0  0  0
  7  8  2  0  0  0  0
  7  9  1  0  0  0  0
  9 13  1  0  0  0  0
  9 14  1  0  0  0  0
 10 11  1  0  0  0  0
 10 15  1  0  0  0  0
 11 12  2  0  0  0  0
M  END
>  <CHROM.0>
-49.09830654,-64.69192898,-55.29536067,-51.76038153,-55.19279387,-60.05677587
-58.32436465,-174.15423884,-166.85542104,160.03979339

>  <CHROM.1>
179.85261731,-25.68504745,-96.51239781,21.82271471,-16.12913043,4.14447111
0.49070668,-0.18333524,0.16946808

>  <Name>
P23963563

>  <RI>
0

>  <Rbt.Current_Directory>
/home/fstefaniak/projects/zuza/docking/adenine/1Y26

>  <Rbt.Executable>
rbdock ($Id: //depot/dev/client3/rdock/2013.1/src/exe/rbdock.cxx#4 $)

>  <Rbt.Library>
libRbt.so (2013.1, Build901 2013/11/27)

>  <Rbt.Parameter_File>
/home/fstefaniak/progs/rDock//data/scripts/dock_solv.prm

>  <Rbt.Receptor>
1y26.prm

>  <SCORE>
-49.2499

>  <SCORE.INTER>
-27.2517

>  <SCORE.INTER.CONST>
1

>  <SCORE.INTER.POLAR>
-3.39615

>  <SCORE.INTER.ROT>
3

>  <SCORE.INTER.SOLV>
14.4527

>  <SCORE.INTER.VDW>
-17.2648

>  <SCORE.INTER.norm>
-2.27097

>  <SCORE.INTRA>
0.64986

>  <SCORE.INTRA.DIHEDRAL>
0.974772

>  <SCORE.INTRA.DIHEDRAL.0>
2.18257

>  <SCORE.INTRA.POLAR>
0

>  <SCORE.INTRA.POLAR.0>
0

>  <SCORE.INTRA.REPUL>
0

>  <SCORE.INTRA.REPUL.0>
0

>  <SCORE.INTRA.SOLV>
0.00588339

>  <SCORE.INTRA.SOLV.lig_0>
-18.7183

>  <SCORE.INTRA.VDW>
0.159532

>  <SCORE.INTRA.VDW.0>
-0.191828

>  <SCORE.INTRA.norm>
0.054155

>  <SCORE.RESTR>
0

>  <SCORE.RESTR.CAVITY>
0

>  <SCORE.RESTR.norm>
0

>  <SCORE.SYSTEM>
-22.6481

>  <SCORE.SYSTEM.CONST>
0

>  <SCORE.SYSTEM.DIHEDRAL>
5.85666

>  <SCORE.SYSTEM.POLAR>
-3.48883

>  <SCORE.SYSTEM.SOLV>
0.454654

>  <SCORE.SYSTEM.VDW>
-5.57304

>  <SCORE.SYSTEM.norm>
-1.88734

>  <SCORE.heavy>
12

>  <SCORE.norm>
-4.10415

$$$$
P24019403
 OpenBabel12072022103D
libRbt.so/2013.1/901 2013/11/27
 14 14  0  0  0  0  0  0  0  0999 V2000
   21.4594  -17.7648    3.2836 C   0  0  0  0  0  0  0  0  0  0  0  0
   20.3141  -17.0742    4.0221 C   0  0  1  0  0  0  0  0  0  0  0  0
   18.9725  -17.5841    3.4667 C   0  0  0  0  0  0  0  0  0  0  0  0
   18.5360  -17.3934    2.3420 O   0  0  0  0  0  0  0  0  0  0  0  0
   18.3508  -18.3080    4.4374 N   0  0  0  0  0  0  0  0  0  0  0  0
   19.0763  -18.3153    5.5796 C   0  0  0  0  0  0  0  0  0  0  0  0
   18.7805  -18.8747    6.6192 O   0  0  0  0  0  0  0  0  0  0  0  0
   20.2157  -17.5735    5.3777 N   0  0  0  0  0  0  0  0  0  0  0  0
   20.4388  -15.5466    3.9542 C   0  0  0  0  0  0  0  0  0  0  0  0
   21.5596  -14.9611    4.8237 C   0  0  0  0  0  0  0  0  0  0  0  0
   22.8979  -15.1258    4.1604 C   0  0  0  0  0  0  0  0  0  0  0  0
   23.9577  -15.7006    4.7427 C   0  0  0  0  0  0  0  0  0  0  0  0
   17.4605  -18.7630    4.3336 H   0  0  0  0  0  0  0  0  0  0  0  0
   20.9159  -17.4823    6.1030 H   0  0  0  0  0  0  0  0  0  0  0  0
  2  1  1  6  0  0  0
  2  3  1  0  0  0  0
  2  8  1  0  0  0  0
  2  9  1  0  0  0  0
  3  4  2  0  0  0  0
  3  5  1  0  0  0  0
  5  6  1  0  0  0  0
  5 13  1  0  0  0  0
  6  7  2  0  0  0  0
  6  8  1  0  0  0  0
  8 14  1  0  0  0  0
  9 10  1  0  0  0  0
 10 11  1  0  0  0  0
 11 12  2  0  0  0  0
M  END
>  <CHROM.0>
-48.89796242,-60.89836960,-55.35877329,-52.11185643,-55.67970512,-57.72578261
-58.83862431,-51.55944036,-165.85125878,161.97592444

>  <CHROM.1>
-72.57273306,78.75276643,-126.48852402,20.35020280,-17.05051855,4.40867548
0.27776574,-0.54576305,-1.19705661

>  <Name>
P24019403

>  <RI>
0

>  <Rbt.Current_Directory>
/home/fstefaniak/projects/zuza/docking/adenine/1Y26

>  <Rbt.Executable>
rbdock ($Id: //depot/dev/client3/rdock/2013.1/src/exe/rbdock.cxx#4 $)

>  <Rbt.Library>
libRbt.so (2013.1, Build901 2013/11/27)

>  <Rbt.Parameter_File>
/home/fstefaniak/progs/rDock//data/scripts/dock_solv.prm

>  <Rbt.Receptor>
1y26.prm

>  <SCORE>
-41.5468

>  <SCORE.INTER>
-20.8196

>  <SCORE.INTER.CONST>
1

>  <SCORE.INTER.POLAR>
-2.11785

>  <SCORE.INTER.ROT>
3

>  <SCORE.INTER.SOLV>
12.939

>  <SCORE.INTER.VDW>
-16.7332

>  <SCORE.INTER.norm>
-1.73497

>  <SCORE.INTRA>
1.48017

>  <SCORE.INTRA.DIHEDRAL>
1.78206

>  <SCORE.INTRA.DIHEDRAL.0>
0.0492842

>  <SCORE.INTRA.POLAR>
0

>  <SCORE.INTRA.POLAR.0>
0

>  <SCORE.INTRA.REPUL>
0

>  <SCORE.INTRA.REPUL.0>
0

>  <SCORE.INTRA.SOLV>
-0.343547

>  <SCORE.INTRA.SOLV.lig_0>
-17.1227

>  <SCORE.INTRA.VDW>
0.760917

>  <SCORE.INTRA.VDW.0>
-0.649006

>  <SCORE.INTRA.norm>
0.123348

>  <SCORE.RESTR>
0

>  <SCORE.RESTR.CAVITY>
0

>  <SCORE.RESTR.norm>
0

>  <SCORE.SYSTEM>
-22.2074

>  <SCORE.SYSTEM.CONST>
0

>  <SCORE.SYSTEM.DIHEDRAL>
5.75019

>  <SCORE.SYSTEM.POLAR>
-3.47526

>  <SCORE.SYSTEM.SOLV>
0.672028

>  <SCORE.SYSTEM.VDW>
-5.36147

>  <SCORE.SYSTEM.norm>
-1.85062

>  <SCORE.heavy>
12

>  <SCORE.norm>
-3.46224

$$$$
P24019403
 OpenBabel12072022103D
libRbt.so/2013.1/901 2013/11/27
 14 14  0  0  0  0  0  0  0  0999 V2000
   21.4394  -17.7745    3.2816 C   0  0  0  0  0  0  0  0  0  0  0  0
   20.2995  -17.0848    4.0294 C   0  0  1  0  0  0  0  0  0  0  0  0
   18.9539  -17.5938    3.4829 C   0  0  0  0  0  0  0  0  0  0  0  0
   18.5093  -17.4014    2.3617 O   0  0  0  0  0  0  0  0  0  0  0  0
   18.3392  -18.3190    4.4570 N   0  0  0  0  0  0  0  0  0  0  0  0
   19.0730  -18.3280    5.5939 C   0  0  0  0  0  0  0  0  0  0  0  0
   18.7847  -18.8889    6.6349 O   0  0  0  0  0  0  0  0  0  0  0  0
   20.2110  -17.5861    5.3849 N   0  0  0  0  0  0  0  0  0  0  0  0
   20.4240  -15.5571    3.9627 C   0  0  0  0  0  0  0  0  0  0  0  0
   21.5583  -14.9739    4.8160 C   0  0  0  0  0  0  0  0  0  0  0  0
   22.8912  -15.1782    4.1528 C   0  0  0  0  0  0  0  0  0  0  0  0
   23.8770  -15.9255    4.6650 C   0  0  0  0  0  0  0  0  0  0  0  0
   17.4481  -18.7738    4.3591 H   0  0  0  0  0  0  0  0  0  0  0  0
   20.9164  -17.4959    6.1052 H   0  0  0  0  0  0  0  0  0  0  0  0
  2  1  1  6  0  0  0
  2  3  1  0  0  0  0
  2  8  1  0  0  0  0
  2  9  1  0  0  0  0
  3  4  2  0  0  0  0
  3  5  1  0  0  0  0
  5  6  1  0  0  0  0
  5 13  1  0  0  0  0
  6  7  2  0  0  0  0
  6  8  1  0  0  0  0
  8 14  1  0  0  0  0
  9 10  1  0  0  0  0
 10 11  1  0  0  0  0
 11 12  2  0  0  0  0
M  END
>  <CHROM.0>
-48.84669303,-60.86806793,-55.45720110,-50.17349135,-54.02686622,-58.32894701
-56.89384180,-47.03014253,-166.20456768,160.52265860

>  <CHROM.1>
-72.10246443,76.88466055,-116.41824040,20.33363085,-17.08272268,4.40996940
0.29650634,-0.52801703,-1.18370106

>  <Name>
P24019403

>  <RI>
0

>  <Rbt.Current_Directory>
/home/fstefaniak/projects/zuza/docking/adenine/1Y26

>  <Rbt.Executable>
rbdock ($Id: //depot/dev/client3/rdock/2013.1/src/exe/rbdock.cxx#4 $)

>  <Rbt.Library>
libRbt.so (2013.1, Build901 2013/11/27)

>  <Rbt.Parameter_File>
/home/fstefaniak/progs/rDock//data/scripts/dock_solv.prm

>  <Rbt.Receptor>
1y26.prm

>  <SCORE>
-41.5149

>  <SCORE.INTER>
-20.993

>  <SCORE.INTER.CONST>
1

>  <SCORE.INTER.POLAR>
-2.0993

>  <SCORE.INTER.ROT>
3

>  <SCORE.INTER.SOLV>
12.9339

>  <SCORE.INTER.VDW>
-16.909

>  <SCORE.INTER.norm>
-1.74942

>  <SCORE.INTRA>
1.60155

>  <SCORE.INTRA.DIHEDRAL>
1.47348

>  <SCORE.INTRA.DIHEDRAL.0>
0.0492842

>  <SCORE.INTRA.POLAR>
0

>  <SCORE.INTRA.POLAR.0>
0

>  <SCORE.INTRA.REPUL>
0

>  <SCORE.INTRA.REPUL.0>
0

>  <SCORE.INTRA.SOLV>
-0.323563

>  <SCORE.INTRA.SOLV.lig_0>
-17.1227

>  <SCORE.INTRA.VDW>
1.02659

>  <SCORE.INTRA.VDW.0>
-0.649006

>  <SCORE.INTRA.norm>
0.133462

>  <SCORE.RESTR>
0

>  <SCORE.RESTR.CAVITY>
0

>  <SCORE.RESTR.norm>
0

>  <SCORE.SYSTEM>
-22.1234

>  <SCORE.SYSTEM.CONST>
0

>  <SCORE.SYSTEM.DIHEDRAL>
6.59299

>  <SCORE.SYSTEM.POLAR>
-3.58425

>  <SCORE.SYSTEM.SOLV>
0.681437

>  <SCORE.SYSTEM.VDW>
-5.22623

>  <SCORE.SYSTEM.norm>
-1.84362

>  <SCORE.heavy>
12

>  <SCORE.norm>
-3.45957

$$$$
P24019403
 OpenBabel12072022103D
libRbt.so/2013.1/901 2013/11/27
 14 14  0  0  0  0  0  0  0  0999 V2000
   21.2257  -17.9797    3.2481 C   0  0  0  0  0  0  0  0  0  0  0  0
   20.1699  -17.3059    4.1229 C   0  0  1  0  0  0  0  0  0  0  0  0
   18.8022  -17.9613    3.8617 C   0  0  0  0  0  0  0  0  0  0  0  0
   18.1623  -17.9102    2.8226 O   0  0  0  0  0  0  0  0  0  0  0  0
   18.4239  -18.6324    4.9840 N   0  0  0  0  0  0  0  0  0  0  0  0
   19.3343  -18.4789    5.9733 C   0  0  0  0  0  0  0  0  0  0  0  0
   19.2734  -18.9567    7.0910 O   0  0  0  0  0  0  0  0  0  0  0  0
   20.3521  -17.6798    5.5098 N   0  0  0  0  0  0  0  0  0  0  0  0
   20.1468  -15.7867    3.9103 C   0  0  0  0  0  0  0  0  0  0  0  0
   21.2502  -15.0238    4.6555 C   0  0  0  0  0  0  0  0  0  0  0  0
   22.6018  -15.3245    4.0716 C   0  0  0  0  0  0  0  0  0  0  0  0
   23.6487  -15.7550    4.7867 C   0  0  0  0  0  0  0  0  0  0  0  0
   17.5724  -19.1579    5.0797 H   0  0  0  0  0  0  0  0  0  0  0  0
   21.1568  -17.4700    6.0870 H   0  0  0  0  0  0  0  0  0  0  0  0
  2  1  1  6  0  0  0
  2  3  1  0  0  0  0
  2  8  1  0  0  0  0
  2  9  1  0  0  0  0
  3  4  2  0  0  0  0
  3  5  1  0  0  0  0
  5  6  1  0  0  0  0
  5 13  1  0  0  0  0
  6  7  2  0  0  0  0
  6  8  1  0  0  0  0
  8 14  1  0  0  0  0
  9 10  1  0  0  0  0
 10 11  1  0  0  0  0
 11 12  2  0  0  0  0
M  END
>  <CHROM.0>
-158.97955389,-60.96628410,-55.35076013,-49.96002034,-175.49930149,-59.45144965
-60.82610578,-52.40387680,-167.85722274,160.66916190

>  <CHROM.1>
-79.65571092,68.86213066,-126.58395546,20.25732575,-17.26518346,4.59961232
0.40433015,-0.57090592,-1.14517355

>  <Name>
P24019403

>  <RI>
0

>  <Rbt.Current_Directory>
/home/fstefaniak/projects/zuza/docking/adenine/1Y26

>  <Rbt.Executable>
rbdock ($Id: //depot/dev/client3/rdock/2013.1/src/exe/rbdock.cxx#4 $)

>  <Rbt.Library>
libRbt.so (2013.1, Build901 2013/11/27)

>  <Rbt.Parameter_File>
/home/fstefaniak/progs/rDock//data/scripts/dock_solv.prm

>  <Rbt.Receptor>
1y26.prm

>  <SCORE>
-41.4465

>  <SCORE.INTER>
-22.5187

>  <SCORE.INTER.CONST>
1

>  <SCORE.INTER.POLAR>
-2.26582

>  <SCORE.INTER.ROT>
3

>  <SCORE.INTER.SOLV>
13.6599

>  <SCORE.INTER.VDW>
-17.6131

>  <SCORE.INTER.norm>
-1.87656

>  <SCORE.INTRA>
1.35929

>  <SCORE.INTRA.DIHEDRAL>
1.59865

>  <SCORE.INTRA.DIHEDRAL.0>
0.0492842

>  <SCORE.INTRA.POLAR>
0

>  <SCORE.INTRA.POLAR.0>
0

>  <SCORE.INTRA.REPUL>
0

>  <SCORE.INTRA.REPUL.0>
0

>  <SCORE.INTRA.SOLV>
-0.198787

>  <SCORE.INTRA.SOLV.lig_0>
-17.1227

>  <SCORE.INTRA.VDW>
0.659357

>  <SCORE.INTRA.VDW.0>
-0.649006

>  <SCORE.INTRA.norm>
0.113274

>  <SCORE.RESTR>
0

>  <SCORE.RESTR.CAVITY>
0

>  <SCORE.RESTR.norm>
0

>  <SCORE.SYSTEM>
-20.2871

>  <SCORE.SYSTEM.CONST>
0

>  <SCORE.SYSTEM.DIHEDRAL>
7.16688

>  <SCORE.SYSTEM.POLAR>
-3.28254

>  <SCORE.SYSTEM.SOLV>
0.440636

>  <SCORE.SYSTEM.VDW>
-5.11877

>  <SCORE.SYSTEM.norm>
-1.69059

>  <SCORE.heavy>
12

>  <SCORE.norm>
-3.45387

$$$$
P24071195
 OpenBabel12072022103D
libRbt.so/2013.1/901 2013/11/27
 16 16  0  0  0  0  0  0  0  0999 V2000
   22.1673  -15.9748    4.3862 C   0  0  0  0  0  0  0  0  0  0  0  0
   21.3838  -14.8321    4.2068 C   0  0  0  0  0  0  0  0  0  0  0  0
   21.9713  -13.5691    4.2424 C   0  0  0  0  0  0  0  0  0  0  0  0
   23.3381  -13.4175    4.4846 C   0  0  0  0  0  0  0  0  0  0  0  0
   24.1008  -14.5689    4.7145 C   0  0  0  0  0  0  0  0  0  0  0  0
   23.5401  -15.8500    4.6278 C   0  0  0  0  0  0  0  0  0  0  0  0
   24.4462  -17.0343    4.7118 C   0  0  0  0  0  0  0  0  0  0  0  0
   25.7194  -16.6513    5.3697 N   0  3  0  0  0  0  0  0  0  0  0  0
   26.2915  -17.4888    5.5334 H   0  0  0  0  0  0  0  0  0  0  0  0
   26.2727  -16.0540    4.7385 H   0  0  0  0  0  0  0  0  0  0  0  0
   25.5771  -16.1521    6.2506 H   0  0  0  0  0  0  0  0  0  0  0  0
   24.0177  -12.0751    4.4573 C   0  0  0  0  0  0  0  0  0  0  0  0
   25.2234  -12.0456    4.8522 O   0  0  0  0  0  0  0  0  0  0  0  0
   23.3234  -11.1133    4.0040 O   0  5  0  0  0  0  0  0  0  0  0  0
   21.1581  -12.4927    4.0157 O   0  0  0  0  0  0  0  0  0  0  0  0
   21.7345  -11.8026    3.5824 H   0  0  0  0  0  0  0  0  0  0  0  0
  1  2  2  0  0  0  0
  1  6  1  0  0  0  0
  2  3  1  0  0  0  0
  3  4  2  0  0  0  0
  3 15  1  0  0  0  0
  4  5  1  0  0  0  0
  4 12  1  0  0  0  0
  5  6  2  0  0  0  0
  6  7  1  0  0  0  0
  7  8  1  0  0  0  0
  8  9  1  0  0  0  0
  8 10  1  0  0  0  0
  8 11  1  0  0  0  0
 12 13  2  0  0  0  0
 12 14  1  0  0  0  0
 15 16  1  0  0  0  0
M  CHG  2   8   1  14  -1
M  END
>  <CHROM.0>
-53.52785103,-63.64577365,-55.70067743,-52.28171311,-56.15759932,-177.53043476
-61.56014277,-51.59662075,-166.19500856,161.23281201

>  <CHROM.1>
-149.15071246,171.65623157,-162.84357476,172.89416531,23.42147573,-14.08701234
4.51472162,1.22612451,0.21088511,3.05813897

>  <Name>
P24071195

>  <RI>
0

>  <Rbt.Current_Directory>
/home/fstefaniak/projects/zuza/docking/adenine/1Y26

>  <Rbt.Executable>
rbdock ($Id: //depot/dev/client3/rdock/2013.1/src/exe/rbdock.cxx#4 $)

>  <Rbt.Library>
libRbt.so (2013.1, Build901 2013/11/27)

>  <Rbt.Parameter_File>
/home/fstefaniak/progs/rDock//data/scripts/dock_solv.prm

>  <Rbt.Receptor>
1y26.prm

>  <SCORE>
-47.9995

>  <SCORE.INTER>
-29.2073

>  <SCORE.INTER.CONST>
1

>  <SCORE.INTER.POLAR>
-4.56617

>  <SCORE.INTER.ROT>
2

>  <SCORE.INTER.SOLV>
22.1791

>  <SCORE.INTER.VDW>
-16.5773

>  <SCORE.INTER.norm>
-2.43394

>  <SCORE.INTRA>
1.08838

>  <SCORE.INTRA.DIHEDRAL>
1.79593

>  <SCORE.INTRA.DIHEDRAL.0>
0.87139

>  <SCORE.INTRA.POLAR>
-0.00250003

>  <SCORE.INTRA.POLAR.0>
-0.0627215

>  <SCORE.INTRA.REPUL>
0

>  <SCORE.INTRA.REPUL.0>
0

>  <SCORE.INTRA.SOLV>
0.0487928

>  <SCORE.INTRA.SOLV.lig_0>
-53.693

>  <SCORE.INTRA.VDW>
0.17452

>  <SCORE.INTRA.VDW.0>
0.455039

>  <SCORE.INTRA.norm>
0.0906984

>  <SCORE.RESTR>
2.18221

>  <SCORE.RESTR.CAVITY>
2.18221

>  <SCORE.RESTR.norm>
0.181851

>  <SCORE.SYSTEM>
-22.0628

>  <SCORE.SYSTEM.CONST>
0

>  <SCORE.SYSTEM.DIHEDRAL>
5.45394

>  <SCORE.SYSTEM.POLAR>
-3.42526

>  <SCORE.SYSTEM.SOLV>
0.511571

>  <SCORE.SYSTEM.VDW>
-5.27953

>  <SCORE.SYSTEM.norm>
-1.83857

>  <SCORE.heavy>
12

>  <SCORE.norm>
-3.99996

$$$$
P24071195
 OpenBabel12072022103D
libRbt.so/2013.1/901 2013/11/27
 16 16  0  0  0  0  0  0  0  0999 V2000
   24.2023  -13.8996    4.6577 C   0  0  0  0  0  0  0  0  0  0  0  0
   24.6310  -15.1452    4.1923 C   0  0  0  0  0  0  0  0  0  0  0  0
   23.7108  -16.1733    3.9978 C   0  0  0  0  0  0  0  0  0  0  0  0
   22.3571  -15.9922    4.2884 C   0  0  0  0  0  0  0  0  0  0  0  0
   21.9507  -14.7554    4.8035 C   0  0  0  0  0  0  0  0  0  0  0  0
   22.8503  -13.6917    4.9536 C   0  0  0  0  0  0  0  0  0  0  0  0
   22.3157  -12.3524    5.3424 C   0  0  0  0  0  0  0  0  0  0  0  0
   22.1384  -12.2864    6.8137 N   0  3  0  0  0  0  0  0  0  0  0  0
   21.5092  -13.0379    7.1219 H   0  0  0  0  0  0  0  0  0  0  0  0
   23.0383  -12.4657    7.2822 H   0  0  0  0  0  0  0  0  0  0  0  0
   21.7794  -11.3830    7.1307 H   0  0  0  0  0  0  0  0  0  0  0  0
   21.3260  -17.0554    4.0216 C   0  0  0  0  0  0  0  0  0  0  0  0
   21.3363  -17.5724    2.8627 O   0  0  0  0  0  0  0  0  0  0  0  0
   20.5737  -17.3536    5.0002 O   0  5  0  0  0  0  0  0  0  0  0  0
   24.1866  -17.3546    3.4984 O   0  0  0  0  0  0  0  0  0  0  0  0
   24.8988  -17.1066    2.8447 H   0  0  0  0  0  0  0  0  0  0  0  0
  1  2  2  0  0  0  0
  1  6  1  0  0  0  0
  2  3  1  0  0  0  0
  3  4  2  0  0  0  0
  3 15  1  0  0  0  0
  4  5  1  0  0  0  0
  4 12  1  0  0  0  0
  5  6  2  0  0  0  0
  6  7  1  0  0  0  0
  7  8  1  0  0  0  0
  8  9  1  0  0  0  0
  8 10  1  0  0  0  0
  8 11  1  0  0  0  0
 12 13  2  0  0  0  0
 12 14  1  0  0  0  0
 15 16  1  0  0  0  0
M  CHG  2   8   1  14  -1
M  END
>  <CHROM.0>
-48.05881775,179.50321699,-52.49049907,-51.96430574,-172.51958314,-58.48990947
-60.03029798,-173.29241379,-166.52677355,160.41597357

>  <CHROM.1>
-36.39746653,-49.76300838,-100.85841869,-57.61797898,22.60061029,-15.32692985
4.55721945,-1.46570299,-0.27867910,-2.67531677

>  <Name>
P24071195

>  <RI>
0

>  <Rbt.Current_Directory>
/home/fstefaniak/projects/zuza/docking/adenine/1Y26

>  <Rbt.Executable>
rbdock ($Id: //depot/dev/client3/rdock/2013.1/src/exe/rbdock.cxx#4 $)

>  <Rbt.Library>
libRbt.so (2013.1, Build901 2013/11/27)

>  <Rbt.Parameter_File>
/home/fstefaniak/progs/rDock//data/scripts/dock_solv.prm

>  <Rbt.Receptor>
1y26.prm

>  <SCORE>
-47.5336

>  <SCORE.INTER>
-28.0574

>  <SCORE.INTER.CONST>
1

>  <SCORE.INTER.POLAR>
-4.4636

>  <SCORE.INTER.ROT>
2

>  <SCORE.INTER.SOLV>
20.4982

>  <SCORE.INTER.VDW>
-15.5923

>  <SCORE.INTER.norm>
-2.33812

>  <SCORE.INTRA>
3.21563

>  <SCORE.INTRA.DIHEDRAL>
9.42768

>  <SCORE.INTRA.DIHEDRAL.0>
0.87139

>  <SCORE.INTRA.POLAR>
0.0627215

>  <SCORE.INTRA.POLAR.0>
-0.0627215

>  <SCORE.INTRA.REPUL>
0

>  <SCORE.INTRA.REPUL.0>
0

>  <SCORE.INTRA.SOLV>
-0.940076

>  <SCORE.INTRA.SOLV.lig_0>
-53.693

>  <SCORE.INTRA.VDW>
-1.24143

>  <SCORE.INTRA.VDW.0>
0.455039

>  <SCORE.INTRA.norm>
0.267969

>  <SCORE.RESTR>
0

>  <SCORE.RESTR.CAVITY>
0

>  <SCORE.RESTR.norm>
0

>  <SCORE.SYSTEM>
-22.6918

>  <SCORE.SYSTEM.CONST>
0

>  <SCORE.SYSTEM.DIHEDRAL>
6.17792

>  <SCORE.SYSTEM.POLAR>
-3.52448

>  <SCORE.SYSTEM.SOLV>
0.241903

>  <SCORE.SYSTEM.VDW>
-5.51955

>  <SCORE.SYSTEM.norm>
-1.89098

>  <SCORE.heavy>
12

>  <SCORE.norm>
-3.96113

$$$$
P24071195
 OpenBabel12072022103D
libRbt.so/2013.1/901 2013/11/27
 16 16  0  0  0  0  0  0  0  0999 V2000
   20.6114  -17.1677    2.6462 C   0  0  0  0  0  0  0  0  0  0  0  0
   19.4242  -17.9039    2.6264 C   0  0  0  0  0  0  0  0  0  0  0  0
   18.8593  -18.3516    3.8189 C   0  0  0  0  0  0  0  0  0  0  0  0
   19.4765  -18.1015    5.0462 C   0  0  0  0  0  0  0  0  0  0  0  0
   20.6926  -17.4078    5.0460 C   0  0  0  0  0  0  0  0  0  0  0  0
   21.2482  -16.9013    3.8636 C   0  0  0  0  0  0  0  0  0  0  0  0
   22.4531  -16.0239    3.9583 C   0  0  0  0  0  0  0  0  0  0  0  0
   23.4682  -16.6521    4.8389 N   0  3  0  0  0  0  0  0  0  0  0  0
   24.3846  -16.2160    4.6788 H   0  0  0  0  0  0  0  0  0  0  0  0
   23.2383  -16.4650    5.8256 H   0  0  0  0  0  0  0  0  0  0  0  0
   23.5386  -17.6635    4.7059 H   0  0  0  0  0  0  0  0  0  0  0  0
   18.8577  -18.5060    6.3570 C   0  0  0  0  0  0  0  0  0  0  0  0
   17.7257  -19.0763    6.2938 O   0  0  0  0  0  0  0  0  0  0  0  0
   19.5525  -18.2682    7.3930 O   0  5  0  0  0  0  0  0  0  0  0  0
   17.6736  -19.0286    3.7357 O   0  0  0  0  0  0  0  0  0  0  0  0
   17.3106  -19.0570    4.6650 H   0  0  0  0  0  0  0  0  0  0  0  0
  1  2  2  0  0  0  0
  1  6  1  0  0  0  0
  2  3  1  0  0  0  0
  3  4  2  0  0  0  0
  3 15  1  0  0  0  0
  4  5  1  0  0  0  0
  4 12  1  0  0  0  0
  5  6  2  0  0  0  0
  6  7  1  0  0  0  0
  7  8  1  0  0  0  0
  8  9  1  0  0  0  0
  8 10  1  0  0  0  0
  8 11  1  0  0  0  0
 12 13  2  0  0  0  0
 12 14  1  0  0  0  0
 15 16  1  0  0  0  0
M  CHG  2   8   1  14  -1
M  END
>  <CHROM.0>
-151.35320757,-145.25633201,-54.41479425,-52.57227815,-53.60455748,-60.50918880
-59.02700808,-53.37712483,-167.70350521,161.17572305

>  <CHROM.1>
-165.65824996,-0.92234523,-135.31202008,162.50102148,20.00910030,-17.80426399
4.69992513,0.33887141,-0.44982180,-1.45043275

>  <Name>
P24071195

>  <RI>
0

>  <Rbt.Current_Directory>
/home/fstefaniak/projects/zuza/docking/adenine/1Y26

>  <Rbt.Executable>
rbdock ($Id: //depot/dev/client3/rdock/2013.1/src/exe/rbdock.cxx#4 $)

>  <Rbt.Library>
libRbt.so (2013.1, Build901 2013/11/27)

>  <Rbt.Parameter_File>
/home/fstefaniak/progs/rDock//data/scripts/dock_solv.prm

>  <Rbt.Receptor>
1y26.prm

>  <SCORE>
-46.3901

>  <SCORE.INTER>
-29.0194

>  <SCORE.INTER.CONST>
1

>  <SCORE.INTER.POLAR>
-5.60791

>  <SCORE.INTER.ROT>
2

>  <SCORE.INTER.SOLV>
28.6638

>  <SCORE.INTER.VDW>
-15.1412

>  <SCORE.INTER.norm>
-2.41828

>  <SCORE.INTRA>
0.577275

>  <SCORE.INTRA.DIHEDRAL>
1.10943

>  <SCORE.INTRA.DIHEDRAL.0>
0.87139

>  <SCORE.INTRA.POLAR>
0.0403102

>  <SCORE.INTRA.POLAR.0>
-0.0627215

>  <SCORE.INTRA.REPUL>
0

>  <SCORE.INTRA.REPUL.0>
0

>  <SCORE.INTRA.SOLV>
-0.229393

>  <SCORE.INTRA.SOLV.lig_0>
-53.693

>  <SCORE.INTRA.VDW>
0.000199711

>  <SCORE.INTRA.VDW.0>
0.455039

>  <SCORE.INTRA.norm>
0.0481062

>  <SCORE.RESTR>
0

>  <SCORE.RESTR.CAVITY>
0

>  <SCORE.RESTR.norm>
0

>  <SCORE.SYSTEM>
-17.948

>  <SCORE.SYSTEM.CONST>
0

>  <SCORE.SYSTEM.DIHEDRAL>
12.6925

>  <SCORE.SYSTEM.POLAR>
-3.22661

>  <SCORE.SYSTEM.SOLV>
0.558154

>  <SCORE.SYSTEM.VDW>
-5.62682

>  <SCORE.SYSTEM.norm>
-1.49566

>  <SCORE.heavy>
12

>  <SCORE.norm>
-3.86584

$$$$
P24135333
 OpenBabel12072022103D
libRbt.so/2013.1/901 2013/11/27
 12 12  0  0  0  0  0  0  0  0999 V2000
   20.3469  -17.7285    4.7899 C   0  0  0  0  0  0  0  0  0  0  0  0
   19.0557  -17.2297    4.3078 N   0  0  0  0  0  0  0  0  0  0  0  0
   18.3301  -18.3435    3.6979 C   0  0  0  0  0  0  0  0  0  0  0  0
   18.0557  -19.3880    4.6870 N   0  0  0  0  0  0  0  0  0  0  0  0
   19.3035  -19.8249    5.3313 C   0  0  0  0  0  0  0  0  0  0  0  0
   20.1354  -18.7275    5.8366 N   0  0  0  0  0  0  0  0  0  0  0  0
   19.3917  -18.0632    6.9083 O   0  0  0  0  0  0  0  0  0  0  0  0
   17.1698  -18.8286    5.7005 O   0  0  0  0  0  0  0  0  0  0  0  0
   19.3687  -16.3162    3.2155 O   0  0  0  0  0  0  0  0  0  0  0  0
   20.0646  -17.4205    7.2289 H   0  0  0  0  0  0  0  0  0  0  0  0
   17.7931  -18.2812    6.2157 H   0  0  0  0  0  0  0  0  0  0  0  0
   19.0452  -15.4700    3.5808 H   0  0  0  0  0  0  0  0  0  0  0  0
  1  2  1  0  0  0  0
  1  6  1  0  0  0  0
  2  3  1  0  0  0  0
  2  9  1  0  0  0  0
  3  4  1  0  0  0  0
  4  5  1  0  0  0  0
  4  8  1  0  0  0  0
  5  6  1  0  0  0  0
  6  7  1  0  0  0  0
  7 10  1  0  0  0  0
  8 11  1  0  0  0  0
  9 12  1  0  0  0  0
M  END
>  <CHROM.0>
-49.45022829,-44.92560372,-54.84625276,-53.19780795,-58.90350685,-60.60351124
-58.58384907,-177.16247476,-167.36050734,160.54142025

>  <CHROM.1>
-115.83431071,-76.15335633,-67.12073133,18.99995940,-18.22147010,4.97264884
-1.33297375,0.54547317,2.21300147

>  <Name>
P24135333

>  <RI>
0

>  <Rbt.Current_Directory>
/home/fstefaniak/projects/zuza/docking/adenine/1Y26

>  <Rbt.Executable>
rbdock ($Id: //depot/dev/client3/rdock/2013.1/src/exe/rbdock.cxx#4 $)

>  <Rbt.Library>
libRbt.so (2013.1, Build901 2013/11/27)

>  <Rbt.Parameter_File>
/home/fstefaniak/progs/rDock//data/scripts/dock_solv.prm

>  <Rbt.Receptor>
1y26.prm

>  <SCORE>
-51.0786

>  <SCORE.INTER>
-28.7994

>  <SCORE.INTER.CONST>
1

>  <SCORE.INTER.POLAR>
-4.81568

>  <SCORE.INTER.ROT>
0

>  <SCORE.INTER.SOLV>
18.688

>  <SCORE.INTER.VDW>
-12.9767

>  <SCORE.INTER.norm>
-3.19993

>  <SCORE.INTRA>
-0.332596

>  <SCORE.INTRA.DIHEDRAL>
-0.677294

>  <SCORE.INTRA.DIHEDRAL.0>
1.60573

>  <SCORE.INTRA.POLAR>
-0.142951

>  <SCORE.INTRA.POLAR.0>
-0.840788

>  <SCORE.INTRA.REPUL>
0

>  <SCORE.INTRA.REPUL.0>
0

>  <SCORE.INTRA.SOLV>
0.0200098

>  <SCORE.INTRA.SOLV.lig_0>
-28.2115

>  <SCORE.INTRA.VDW>
0.482079

>  <SCORE.INTRA.VDW.0>
1.20758

>  <SCORE.INTRA.norm>
-0.0369551

>  <SCORE.RESTR>
0

>  <SCORE.RESTR.CAVITY>
0

>  <SCORE.RESTR.norm>
0

>  <SCORE.SYSTEM>
-21.9466

>  <SCORE.SYSTEM.CONST>
0

>  <SCORE.SYSTEM.DIHEDRAL>
6.32557

>  <SCORE.SYSTEM.POLAR>
-3.44675

>  <SCORE.SYSTEM.SOLV>
0.462255

>  <SCORE.SYSTEM.VDW>
-5.40454

>  <SCORE.SYSTEM.norm>
-2.43852

>  <SCORE.heavy>
9

>  <SCORE.norm>
-5.6754

$$$$
P24135333
 OpenBabel12072022103D
libRbt.so/2013.1/901 2013/11/27
 12 12  0  0  0  0  0  0  0  0999 V2000
   20.3621  -17.7012    4.7898 C   0  0  0  0  0  0  0  0  0  0  0  0
   19.0710  -17.2099    4.3001 N   0  0  0  0  0  0  0  0  0  0  0  0
   18.3578  -18.3267    3.6810 C   0  0  0  0  0  0  0  0  0  0  0  0
   18.0836  -19.3766    4.6643 N   0  0  0  0  0  0  0  0  0  0  0  0
   19.3298  -19.8069    5.3162 C   0  0  0  0  0  0  0  0  0  0  0  0
   20.1501  -18.7055    5.8314 N   0  0  0  0  0  0  0  0  0  0  0  0
   19.3940  -18.0503    6.8999 O   0  0  0  0  0  0  0  0  0  0  0  0
   17.1864  -18.8272    5.6733 O   0  0  0  0  0  0  0  0  0  0  0  0
   19.3854  -16.2903    3.2133 O   0  0  0  0  0  0  0  0  0  0  0  0
   20.0419  -17.3707    7.1947 H   0  0  0  0  0  0  0  0  0  0  0  0
   17.8024  -18.2788    6.1963 H   0  0  0  0  0  0  0  0  0  0  0  0
   19.0385  -15.4508    3.5725 H   0  0  0  0  0  0  0  0  0  0  0  0
  1  2  1  0  0  0  0
  1  6  1  0  0  0  0
  2  3  1  0  0  0  0
  2  9  1  0  0  0  0
  3  4  1  0  0  0  0
  4  5  1  0  0  0  0
  4  8  1  0  0  0  0
  5  6  1  0  0  0  0
  6  7  1  0  0  0  0
  7 10  1  0  0  0  0
  8 11  1  0  0  0  0
  9 12  1  0  0  0  0
M  END
>  <CHROM.0>
-49.27789715,-46.09166409,-55.51038293,-52.11585575,-173.21973316,-64.99090422
-59.80574147,-51.21331810,-167.11716252,161.30125579

>  <CHROM.1>
-116.81576602,-76.28178537,-64.14642561,19.01721530,-18.20421430,4.96069067
-1.33062020,0.55549267,2.21589306

>  <Name>
P24135333

>  <RI>
0

>  <Rbt.Current_Directory>
/home/fstefaniak/projects/zuza/docking/adenine/1Y26

>  <Rbt.Executable>
rbdock ($Id: //depot/dev/client3/rdock/2013.1/src/exe/rbdock.cxx#4 $)

>  <Rbt.Library>
libRbt.so (2013.1, Build901 2013/11/27)

>  <Rbt.Parameter_File>
/home/fstefaniak/progs/rDock//data/scripts/dock_solv.prm

>  <Rbt.Receptor>
1y26.prm

>  <SCORE>
-50.6012

>  <SCORE.INTER>
-28.8352

>  <SCORE.INTER.CONST>
1

>  <SCORE.INTER.POLAR>
-4.82727

>  <SCORE.INTER.ROT>
0

>  <SCORE.INTER.SOLV>
18.6851

>  <SCORE.INTER.VDW>
-12.9609

>  <SCORE.INTER.norm>
-3.20391

>  <SCORE.INTRA>
-0.236752

>  <SCORE.INTRA.DIHEDRAL>
-0.684242

>  <SCORE.INTRA.DIHEDRAL.0>
1.60573

>  <SCORE.INTRA.POLAR>
-0.145215

>  <SCORE.INTRA.POLAR.0>
-0.840788

>  <SCORE.INTRA.REPUL>
0

>  <SCORE.INTRA.REPUL.0>
0

>  <SCORE.INTRA.SOLV>
0.026006

>  <SCORE.INTRA.SOLV.lig_0>
-28.2115

>  <SCORE.INTRA.VDW>
0.586098

>  <SCORE.INTRA.VDW.0>
1.20758

>  <SCORE.INTRA.norm>
-0.0263058

>  <SCORE.RESTR>
0

>  <SCORE.RESTR.CAVITY>
0

>  <SCORE.RESTR.norm>
0

>  <SCORE.SYSTEM>
-21.5292

>  <SCORE.SYSTEM.CONST>
0

>  <SCORE.SYSTEM.DIHEDRAL>
6.76678

>  <SCORE.SYSTEM.POLAR>
-3.47693

>  <SCORE.SYSTEM.SOLV>
0.499008

>  <SCORE.SYSTEM.VDW>
-5.185

>  <SCORE.SYSTEM.norm>
-2.39214

>  <SCORE.heavy>
9

>  <SCORE.norm>
-5.62235

$$$$
P24135333
 OpenBabel12072022103D
libRbt.so/2013.1/901 2013/11/27
 12 12  0  0  0  0  0  0  0  0999 V2000
   20.3457  -17.7071    4.8249 C   0  0  0  0  0  0  0  0  0  0  0  0
   19.0531  -17.2336    4.3218 N   0  0  0  0  0  0  0  0  0  0  0  0
   18.3461  -18.3680    3.7282 C   0  0  0  0  0  0  0  0  0  0  0  0
   18.0754  -19.3957    4.7356 N   0  0  0  0  0  0  0  0  0  0  0  0
   19.3226  -19.8046    5.3993 C   0  0  0  0  0  0  0  0  0  0  0  0
   20.1368  -18.6874    5.8896 N   0  0  0  0  0  0  0  0  0  0  0  0
   19.3760  -18.0108    6.9413 O   0  0  0  0  0  0  0  0  0  0  0  0
   17.1740  -18.8269    5.7301 O   0  0  0  0  0  0  0  0  0  0  0  0
   19.3648  -16.3384    3.2141 O   0  0  0  0  0  0  0  0  0  0  0  0
   20.0658  -17.4168    7.3152 H   0  0  0  0  0  0  0  0  0  0  0  0
   17.7883  -18.2701    6.2462 H   0  0  0  0  0  0  0  0  0  0  0  0
   19.0137  -15.4922    3.5530 H   0  0  0  0  0  0  0  0  0  0  0  0
  1  2  1  0  0  0  0
  1  6  1  0  0  0  0
  2  3  1  0  0  0  0
  2  9  1  0  0  0  0
  3  4  1  0  0  0  0
  4  5  1  0  0  0  0
  4  8  1  0  0  0  0
  5  6  1  0  0  0  0
  6  7  1  0  0  0  0
  7 10  1  0  0  0  0
  8 11  1  0  0  0  0
  9 12  1  0  0  0  0
M  END
>  <CHROM.0>
-49.82013747,60.82193950,-64.32942730,-53.21349044,-57.15079919,-176.60223766
-168.83109565,-47.79644524,-167.17379939,160.79154152

>  <CHROM.1>
-116.79653434,-76.79982887,-72.55317794,19.00332226,-18.21302948,5.00638236
-1.33546201,0.55974187,2.19267014

>  <Name>
P24135333

>  <RI>
0

>  <Rbt.Current_Directory>
/home/fstefaniak/projects/zuza/docking/adenine/1Y26

>  <Rbt.Executable>
rbdock ($Id: //depot/dev/client3/rdock/2013.1/src/exe/rbdock.cxx#4 $)

>  <Rbt.Library>
libRbt.so (2013.1, Build901 2013/11/27)

>  <Rbt.Parameter_File>
/home/fstefaniak/progs/rDock//data/scripts/dock_solv.prm

>  <Rbt.Receptor>
1y26.prm

>  <SCORE>
-50.3896

>  <SCORE.INTER>
-29.4759

>  <SCORE.INTER.CONST>
1

>  <SCORE.INTER.POLAR>
-5.00961

>  <SCORE.INTER.ROT>
0

>  <SCORE.INTER.SOLV>
18.6777

>  <SCORE.INTER.VDW>
-12.7778

>  <SCORE.INTER.norm>
-3.2751

>  <SCORE.INTRA>
-0.462638

>  <SCORE.INTRA.DIHEDRAL>
-0.608954

>  <SCORE.INTRA.DIHEDRAL.0>
1.60573

>  <SCORE.INTRA.POLAR>
-0.154201

>  <SCORE.INTRA.POLAR.0>
-0.840788

>  <SCORE.INTRA.REPUL>
0

>  <SCORE.INTRA.REPUL.0>
0

>  <SCORE.INTRA.SOLV>
0.0115441

>  <SCORE.INTRA.SOLV.lig_0>
-28.2115

>  <SCORE.INTRA.VDW>
0.36035

>  <SCORE.INTRA.VDW.0>
1.20758

>  <SCORE.INTRA.norm>
-0.0514042

>  <SCORE.RESTR>
0

>  <SCORE.RESTR.CAVITY>
0

>  <SCORE.RESTR.norm>
0

>  <SCORE.SYSTEM>
-20.4511

>  <SCORE.SYSTEM.CONST>
0

>  <SCORE.SYSTEM.DIHEDRAL>
6.49068

>  <SCORE.SYSTEM.POLAR>
-3.44598

>  <SCORE.SYSTEM.SOLV>
0.500669

>  <SCORE.SYSTEM.VDW>
-4.47791

>  <SCORE.SYSTEM.norm>
-2.27234

>  <SCORE.heavy>
9

>  <SCORE.norm>
-5.59885

$$$$
P24145078
 OpenBabel12072022103D
libRbt.so/2013.1/901 2013/11/27
 13 13  0  0  0  0  0  0  0  0999 V2000
   19.0699  -18.0906    3.7522 C   0  0  0  0  0  0  0  0  0  0  0  0
   19.6905  -16.7470    3.4573 C   0  0  0  0  0  0  0  0  0  0  0  0
   21.0354  -16.8886    4.1495 C   0  0  2  0  0  0  0  0  0  0  0  0
   20.7863  -17.6672    5.3414 O   0  0  0  0  0  0  0  0  0  0  0  0
   19.5295  -18.3442    5.1738 C   0  0  0  0  0  0  0  0  0  0  0  0
   21.7626  -15.5873    4.4995 C   0  0  0  0  0  0  0  0  0  0  0  0
   23.0607  -15.8007    5.1152 N   0  0  0  0  0  0  0  0  0  0  0  0
   24.2180  -15.6703    4.4131 C   0  0  0  0  0  0  0  0  0  0  0  0
   24.3204  -15.2404    3.2745 O   0  0  0  0  0  0  0  0  0  0  0  0
   25.2976  -16.0842    5.1217 N   0  0  0  0  0  0  0  0  0  0  0  0
   23.1141  -15.6006    6.1046 H   0  0  0  0  0  0  0  0  0  0  0  0
   26.1879  -16.0206    4.6496 H   0  0  0  0  0  0  0  0  0  0  0  0
   25.2996  -15.7390    6.0735 H   0  0  0  0  0  0  0  0  0  0  0  0
  1  2  1  0  0  0  0
  1  5  1  0  0  0  0
  2  3  1  0  0  0  0
  3  4  1  0  0  0  0
  3  6  1  1  0  0  0
  4  5  1  0  0  0  0
  6  7  1  0  0  0  0
  7  8  1  0  0  0  0
  7 11  1  0  0  0  0
  8  9  2  0  0  0  0
  8 10  1  0  0  0  0
 10 12  1  0  0  0  0
 10 13  1  0  0  0  0
M  END
>  <CHROM.0>
-50.39125749,172.70450139,-58.51602876,-52.26838073,-55.78275538,-175.30173466
-58.00507365,-50.73030446,-167.56227540,160.17198758

>  <CHROM.1>
-177.94563249,101.72360599,8.01076046,179.41876675,21.93082042,-16.60181964
4.45321393,2.93604922,0.35495259,2.16356708

>  <Name>
P24145078

>  <RI>
0

>  <Rbt.Current_Directory>
/home/fstefaniak/projects/zuza/docking/adenine/1Y26

>  <Rbt.Executable>
rbdock ($Id: //depot/dev/client3/rdock/2013.1/src/exe/rbdock.cxx#4 $)

>  <Rbt.Library>
libRbt.so (2013.1, Build901 2013/11/27)

>  <Rbt.Parameter_File>
/home/fstefaniak/progs/rDock//data/scripts/dock_solv.prm

>  <Rbt.Receptor>
1y26.prm

>  <SCORE>
-57.3842

>  <SCORE.INTER>
-36.088

>  <SCORE.INTER.CONST>
1

>  <SCORE.INTER.POLAR>
-5.23302

>  <SCORE.INTER.ROT>
4

>  <SCORE.INTER.SOLV>
12.877

>  <SCORE.INTER.VDW>
-17.1743

>  <SCORE.INTER.norm>
-3.6088

>  <SCORE.INTRA>
0.615676

>  <SCORE.INTRA.DIHEDRAL>
1.17767

>  <SCORE.INTRA.DIHEDRAL.0>
1.81837

>  <SCORE.INTRA.POLAR>
0

>  <SCORE.INTRA.POLAR.0>
0

>  <SCORE.INTRA.REPUL>
0

>  <SCORE.INTRA.REPUL.0>
0

>  <SCORE.INTRA.SOLV>
-0.735885

>  <SCORE.INTRA.SOLV.lig_0>
-14.0981

>  <SCORE.INTRA.VDW>
0.394786

>  <SCORE.INTRA.VDW.0>
-0.912962

>  <SCORE.INTRA.norm>
0.0615676

>  <SCORE.RESTR>
0

>  <SCORE.RESTR.CAVITY>
0

>  <SCORE.RESTR.norm>
0

>  <SCORE.SYSTEM>
-21.9119

>  <SCORE.SYSTEM.CONST>
0

>  <SCORE.SYSTEM.DIHEDRAL>
5.96818

>  <SCORE.SYSTEM.POLAR>
-3.46775

>  <SCORE.SYSTEM.SOLV>
0.478194

>  <SCORE.SYSTEM.VDW>
-5.19753

>  <SCORE.SYSTEM.norm>
-2.19119

>  <SCORE.heavy>
10

>  <SCORE.norm>
-5.73842

$$$$
P24145078
 OpenBabel12072022103D
libRbt.so/2013.1/901 2013/11/27
 13 13  0  0  0  0  0  0  0  0999 V2000
   19.0937  -18.3600    4.5493 C   0  0  0  0  0  0  0  0  0  0  0  0
   20.4825  -17.7960    4.7243 C   0  0  0  0  0  0  0  0  0  0  0  0
   20.2819  -16.3707    4.2383 C   0  0  2  0  0  0  0  0  0  0  0  0
   19.3354  -16.4541    3.1493 O   0  0  0  0  0  0  0  0  0  0  0  0
   18.6539  -17.7156    3.2501 C   0  0  0  0  0  0  0  0  0  0  0  0
   21.5404  -15.6162    3.8004 C   0  0  0  0  0  0  0  0  0  0  0  0
   22.6894  -15.8697    4.6520 N   0  0  0  0  0  0  0  0  0  0  0  0
   23.9619  -15.6561    4.2225 C   0  0  0  0  0  0  0  0  0  0  0  0
   24.2833  -15.1544    3.1564 O   0  0  0  0  0  0  0  0  0  0  0  0
   24.8848  -16.0740    5.1240 N   0  0  0  0  0  0  0  0  0  0  0  0
   22.5301  -15.7651    5.6447 H   0  0  0  0  0  0  0  0  0  0  0  0
   25.8487  -15.8845    4.8908 H   0  0  0  0  0  0  0  0  0  0  0  0
   24.6308  -15.8527    6.0787 H   0  0  0  0  0  0  0  0  0  0  0  0
  1  2  1  0  0  0  0
  1  5  1  0  0  0  0
  2  3  1  0  0  0  0
  3  4  1  0  0  0  0
  3  6  1  6  0  0  0
  4  5  1  0  0  0  0
  6  7  1  0  0  0  0
  7  8  1  0  0  0  0
  7 11  1  0  0  0  0
  8  9  2  0  0  0  0
  8 10  1  0  0  0  0
 10 12  1  0  0  0  0
 10 13  1  0  0  0  0
M  END
>  <CHROM.0>
-44.25459519,-60.85226098,-66.03701877,-51.20955981,-55.81626382,-54.74984356
-172.44492940,-176.11016946,-166.92128101,160.15816080

>  <CHROM.1>
-39.71769415,158.89425856,5.60429043,-175.93276485,21.56156550,-16.48635059
4.08835825,-2.96132350,-0.32111416,-0.81643751

>  <Name>
P24145078

>  <RI>
0

>  <Rbt.Current_Directory>
/home/fstefaniak/projects/zuza/docking/adenine/1Y26

>  <Rbt.Executable>
rbdock ($Id: //depot/dev/client3/rdock/2013.1/src/exe/rbdock.cxx#4 $)

>  <Rbt.Library>
libRbt.so (2013.1, Build901 2013/11/27)

>  <Rbt.Parameter_File>
/home/fstefaniak/progs/rDock//data/scripts/dock_solv.prm

>  <Rbt.Receptor>
1y26.prm

>  <SCORE>
-54.9242

>  <SCORE.INTER>
-34.0388

>  <SCORE.INTER.CONST>
1

>  <SCORE.INTER.POLAR>
-4.4855

>  <SCORE.INTER.ROT>
4

>  <SCORE.INTER.SOLV>
12.2466

>  <SCORE.INTER.VDW>
-18.0898

>  <SCORE.INTER.norm>
-3.40388

>  <SCORE.INTRA>
0.723296

>  <SCORE.INTRA.DIHEDRAL>
0.913296

>  <SCORE.INTRA.DIHEDRAL.0>
1.81837

>  <SCORE.INTRA.POLAR>
0

>  <SCORE.INTRA.POLAR.0>
0

>  <SCORE.INTRA.REPUL>
0

>  <SCORE.INTRA.REPUL.0>
0

>  <SCORE.INTRA.SOLV>
-0.890222

>  <SCORE.INTRA.SOLV.lig_0>
-14.0981

>  <SCORE.INTRA.VDW>
0.711759

>  <SCORE.INTRA.VDW.0>
-0.912962

>  <SCORE.INTRA.norm>
0.0723296

>  <SCORE.RESTR>
0

>  <SCORE.RESTR.CAVITY>
0

>  <SCORE.RESTR.norm>
0

>  <SCORE.SYSTEM>
-21.6087

>  <SCORE.SYSTEM.CONST>
0

>  <SCORE.SYSTEM.DIHEDRAL>
6.68873

>  <SCORE.SYSTEM.POLAR>
-3.5343

>  <SCORE.SYSTEM.SOLV>
0.41224

>  <SCORE.SYSTEM.VDW>
-4.99177

>  <SCORE.SYSTEM.norm>
-2.16087

>  <SCORE.heavy>
10

>  <SCORE.norm>
-5.49242

$$$$
P24145078
 OpenBabel12072022103D
libRbt.so/2013.1/901 2013/11/27
 13 13  0  0  0  0  0  0  0  0999 V2000
   19.2049  -18.1428    4.6622 C   0  0  0  0  0  0  0  0  0  0  0  0
   20.5961  -17.6098    4.9028 C   0  0  0  0  0  0  0  0  0  0  0  0
   20.5039  -16.2450    4.2419 C   0  0  2  0  0  0  0  0  0  0  0  0
   19.6564  -16.4229    3.0847 O   0  0  0  0  0  0  0  0  0  0  0  0
   18.9130  -17.6401    3.2628 C   0  0  0  0  0  0  0  0  0  0  0  0
   21.8291  -15.5900    3.8423 C   0  0  0  0  0  0  0  0  0  0  0  0
   22.8220  -15.6061    4.9023 N   0  0  0  0  0  0  0  0  0  0  0  0
   24.0354  -15.0093    4.7579 C   0  0  0  0  0  0  0  0  0  0  0  0
   24.2324  -13.8788    4.3400 O   0  0  0  0  0  0  0  0  0  0  0  0
   25.0547  -15.8217    5.1323 N   0  0  0  0  0  0  0  0  0  0  0  0
   22.4567  -15.6523    5.8437 H   0  0  0  0  0  0  0  0  0  0  0  0
   25.8213  -15.8995    4.4798 H   0  0  0  0  0  0  0  0  0  0  0  0
   25.3336  -15.6846    6.0959 H   0  0  0  0  0  0  0  0  0  0  0  0
  1  2  1  0  0  0  0
  1  5  1  0  0  0  0
  2  3  1  0  0  0  0
  3  4  1  0  0  0  0
  3  6  1  6  0  0  0
  4  5  1  0  0  0  0
  6  7  1  0  0  0  0
  7  8  1  0  0  0  0
  7 11  1  0  0  0  0
  8  9  2  0  0  0  0
  8 10  1  0  0  0  0
 10 12  1  0  0  0  0
 10 13  1  0  0  0  0
M  END
>  <CHROM.0>
-51.10223587,-64.97857391,-54.53589168,-52.86793437,-174.82022864,-175.32782654
-55.03551215,-50.09769279,-167.16248320,161.05825914

>  <CHROM.1>
-48.42447978,-176.51737503,48.14018960,131.04649165,21.72648483,-16.17495987
4.31490171,-2.86340550,-0.41015851,-0.60997657

>  <Name>
P24145078

>  <RI>
0

>  <Rbt.Current_Directory>
/home/fstefaniak/projects/zuza/docking/adenine/1Y26

>  <Rbt.Executable>
rbdock ($Id: //depot/dev/client3/rdock/2013.1/src/exe/rbdock.cxx#4 $)

>  <Rbt.Library>
libRbt.so (2013.1, Build901 2013/11/27)

>  <Rbt.Parameter_File>
/home/fstefaniak/progs/rDock//data/scripts/dock_solv.prm

>  <Rbt.Receptor>
1y26.prm

>  <SCORE>
-54.7682

>  <SCORE.INTER>
-33.0716

>  <SCORE.INTER.CONST>
1

>  <SCORE.INTER.POLAR>
-4.57813

>  <SCORE.INTER.ROT>
4

>  <SCORE.INTER.SOLV>
11.8228

>  <SCORE.INTER.VDW>
-16.9949

>  <SCORE.INTER.norm>
-3.30716

>  <SCORE.INTRA>
0.201694

>  <SCORE.INTRA.DIHEDRAL>
0.362434

>  <SCORE.INTRA.DIHEDRAL.0>
1.81837

>  <SCORE.INTRA.POLAR>
0

>  <SCORE.INTRA.POLAR.0>
0

>  <SCORE.INTRA.REPUL>
0

>  <SCORE.INTRA.REPUL.0>
0

>  <SCORE.INTRA.SOLV>
-0.998714

>  <SCORE.INTRA.SOLV.lig_0>
-14.0981

>  <SCORE.INTRA.VDW>
0.519833

>  <SCORE.INTRA.VDW.0>
-0.912962

>  <SCORE.INTRA.norm>
0.0201694

>  <SCORE.RESTR>
0

>  <SCORE.RESTR.CAVITY>
0

>  <SCORE.RESTR.norm>
0

>  <SCORE.SYSTEM>
-21.8983

>  <SCORE.SYSTEM.CONST>
0

>  <SCORE.SYSTEM.DIHEDRAL>
5.96835

>  <SCORE.SYSTEM.POLAR>
-3.46807

>  <SCORE.SYSTEM.SOLV>
0.365438

>  <SCORE.SYSTEM.VDW>
-5.14988

>  <SCORE.SYSTEM.norm>
-2.18983

>  <SCORE.heavy>
10

>  <SCORE.norm>
-5.47682

$$$$
P24155541
 OpenBabel12072022103D
libRbt.so/2013.1/901 2013/11/27
 17 18  0  0  0  0  0  0  0  0999 V2000
   21.2378  -11.5369    3.3494 C   0  0  0  0  0  0  0  0  0  0  0  0
   22.5685  -11.9709    3.9674 C   0  0  2  0  0  0  0  0  0  0  0  0
   22.9192  -13.4153    3.6084 C   0  0  1  0  0  0  0  0  0  0  0  0
   24.3883  -13.7425    3.8535 C   0  0  0  0  0  0  0  0  0  0  0  0
   24.6335  -15.1473    3.6291 N   0  0  0  0  0  0  0  0  0  0  0  0
   23.7578  -16.1234    3.9774 C   0  0  0  0  0  0  0  0  0  0  0  0
   24.0724  -17.3069    3.9577 O   0  0  0  0  0  0  0  0  0  0  0  0
   22.5065  -15.7288    4.3133 N   0  0  0  0  0  0  0  0  0  0  0  0
   22.0877  -14.3655    4.4589 C   0  0  1  0  0  0  0  0  0  0  0  0
   22.0879  -14.0064    5.8449 N   0  0  0  0  0  0  0  0  0  0  0  0
   22.1749  -12.7376    6.3054 C   0  0  0  0  0  0  0  0  0  0  0  0
   21.9934  -12.4649    7.4850 O   0  0  0  0  0  0  0  0  0  0  0  0
   22.5213  -11.7848    5.4046 N   0  0  0  0  0  0  0  0  0  0  0  0
   25.5797  -15.4783    3.4836 H   0  0  0  0  0  0  0  0  0  0  0  0
   21.8892  -16.4785    4.5900 H   0  0  0  0  0  0  0  0  0  0  0  0
   21.8002  -14.6881    6.5318 H   0  0  0  0  0  0  0  0  0  0  0  0
   22.5532  -10.8487    5.7923 H   0  0  0  0  0  0  0  0  0  0  0  0
  2  1  1  6  0  0  0
  2  3  1  0  0  0  0
  2 13  1  0  0  0  0
  3  4  1  1  0  0  0
  3  9  1  0  0  0  0
  4  5  1  0  0  0  0
  5  6  1  0  0  0  0
  5 14  1  0  0  0  0
  6  7  2  0  0  0  0
  6  8  1  0  0  0  0
  8 15  1  0  0  0  0
  9  8  1  1  0  0  0
  9 10  1  0  0  0  0
 10 11  1  0  0  0  0
 10 16  1  0  0  0  0
 11 12  2  0  0  0  0
 11 13  1  0  0  0  0
 13 17  1  0  0  0  0
M  END
>  <CHROM.0>
-51.12624100,-177.16477242,-52.17397411,-53.77415066,58.38432128,59.43941719
-60.75007512,-51.07073572,-167.54023918,160.34505768

>  <CHROM.1>
22.84249776,-13.88939611,4.65285924,-2.81010683,-1.13520249,2.29888611

>  <Name>
P24155541

>  <RI>
0

>  <Rbt.Current_Directory>
/home/fstefaniak/projects/zuza/docking/adenine/1Y26

>  <Rbt.Executable>
rbdock ($Id: //depot/dev/client3/rdock/2013.1/src/exe/rbdock.cxx#4 $)

>  <Rbt.Library>
libRbt.so (2013.1, Build901 2013/11/27)

>  <Rbt.Parameter_File>
/home/fstefaniak/progs/rDock//data/scripts/dock_solv.prm

>  <Rbt.Receptor>
1y26.prm

>  <SCORE>
-39.0653

>  <SCORE.INTER>
-20.0047

>  <SCORE.INTER.CONST>
1

>  <SCORE.INTER.POLAR>
-1.98763

>  <SCORE.INTER.ROT>
0

>  <SCORE.INTER.SOLV>
11.8953

>  <SCORE.INTER.VDW>
-14.2761

>  <SCORE.INTER.norm>
-1.53883

>  <SCORE.INTRA>
0

>  <SCORE.INTRA.DIHEDRAL>
0

>  <SCORE.INTRA.DIHEDRAL.0>
0

>  <SCORE.INTRA.POLAR>
0

>  <SCORE.INTRA.POLAR.0>
0

>  <SCORE.INTRA.REPUL>
0

>  <SCORE.INTRA.REPUL.0>
0

>  <SCORE.INTRA.SOLV>
0

>  <SCORE.INTRA.SOLV.lig_0>
-27.6356

>  <SCORE.INTRA.VDW>
0

>  <SCORE.INTRA.VDW.0>
0

>  <SCORE.INTRA.norm>
0

>  <SCORE.RESTR>
0.952837

>  <SCORE.RESTR.CAVITY>
0.952837

>  <SCORE.RESTR.norm>
0.0732952

>  <SCORE.SYSTEM>
-20.0134

>  <SCORE.SYSTEM.CONST>
0

>  <SCORE.SYSTEM.DIHEDRAL>
5.63721

>  <SCORE.SYSTEM.POLAR>
-3.47016

>  <SCORE.SYSTEM.SOLV>
0.243458

>  <SCORE.SYSTEM.VDW>
-3.73529

>  <SCORE.SYSTEM.norm>
-1.53949

>  <SCORE.heavy>
13

>  <SCORE.norm>
-3.00502

$$$$
P24155541
 OpenBabel12072022103D
libRbt.so/2013.1/901 2013/11/27
 17 18  0  0  0  0  0  0  0  0999 V2000
   21.1400  -11.6023    3.2840 C   0  0  0  0  0  0  0  0  0  0  0  0
   22.5180  -11.9366    3.8588 C   0  0  2  0  0  0  0  0  0  0  0  0
   22.8757  -13.4101    3.6609 C   0  0  1  0  0  0  0  0  0  0  0  0
   24.3646  -13.6839    3.8436 C   0  0  0  0  0  0  0  0  0  0  0  0
   24.6251  -15.1024    3.7812 N   0  0  0  0  0  0  0  0  0  0  0  0
   23.7962  -16.0381    4.3085 C   0  0  0  0  0  0  0  0  0  0  0  0
   24.1346  -17.2102    4.4161 O   0  0  0  0  0  0  0  0  0  0  0  0
   22.5616  -15.6209    4.6774 N   0  0  0  0  0  0  0  0  0  0  0  0
   22.1236  -14.2558    4.6790 C   0  0  1  0  0  0  0  0  0  0  0  0
   22.2078  -13.7240    6.0056 N   0  0  0  0  0  0  0  0  0  0  0  0
   22.2974  -12.4060    6.2960 C   0  0  0  0  0  0  0  0  0  0  0  0
   22.1887  -11.9883    7.4417 O   0  0  0  0  0  0  0  0  0  0  0  0
   22.5623  -11.5705    5.2611 N   0  0  0  0  0  0  0  0  0  0  0  0
   25.5666  -15.4365    3.6138 H   0  0  0  0  0  0  0  0  0  0  0  0
   21.9806  -16.3376    5.0877 H   0  0  0  0  0  0  0  0  0  0  0  0
   21.9815  -14.3168    6.7908 H   0  0  0  0  0  0  0  0  0  0  0  0
   22.5993  -10.5924    5.5250 H   0  0  0  0  0  0  0  0  0  0  0  0
  2  1  1  1  0  0  0
  2  3  1  0  0  0  0
  2 13  1  0  0  0  0
  3  4  1  1  0  0  0
  3  9  1  0  0  0  0
  4  5  1  0  0  0  0
  5  6  1  0  0  0  0
  5 14  1  0  0  0  0
  6  7  2  0  0  0  0
  6  8  1  0  0  0  0
  8 15  1  0  0  0  0
  9  8  1  1  0  0  0
  9 10  1  0  0  0  0
 10 11  1  0  0  0  0
 10 16  1  0  0  0  0
 11 12  2  0  0  0  0
 11 13  1  0  0  0  0
 13 17  1  0  0  0  0
M  END
>  <CHROM.0>
-48.29956039,-91.67421208,-56.15208125,-53.92003954,-57.13150415,57.48249731
-61.05567624,-53.12388218,-166.98288664,160.87606062

>  <CHROM.1>
22.87889989,-13.74893616,4.75934703,-2.97087828,-1.15833312,2.02561013

>  <Name>
P24155541

>  <RI>
0

>  <Rbt.Current_Directory>
/home/fstefaniak/projects/zuza/docking/adenine/1Y26

>  <Rbt.Executable>
rbdock ($Id: //depot/dev/client3/rdock/2013.1/src/exe/rbdock.cxx#4 $)

>  <Rbt.Library>
libRbt.so (2013.1, Build901 2013/11/27)

>  <Rbt.Parameter_File>
/home/fstefaniak/progs/rDock//data/scripts/dock_solv.prm

>  <Rbt.Receptor>
1y26.prm

>  <SCORE>
-38.5851

>  <SCORE.INTER>
-19.7252

>  <SCORE.INTER.CONST>
1

>  <SCORE.INTER.POLAR>
-2.02683

>  <SCORE.INTER.ROT>
0

>  <SCORE.INTER.SOLV>
11.4553

>  <SCORE.INTER.VDW>
-13.8125

>  <SCORE.INTER.norm>
-1.51732

>  <SCORE.INTRA>
0

>  <SCORE.INTRA.DIHEDRAL>
0

>  <SCORE.INTRA.DIHEDRAL.0>
0

>  <SCORE.INTRA.POLAR>
0

>  <SCORE.INTRA.POLAR.0>
0

>  <SCORE.INTRA.REPUL>
0

>  <SCORE.INTRA.REPUL.0>
0

>  <SCORE.INTRA.SOLV>
0

>  <SCORE.INTRA.SOLV.lig_0>
-27.6356

>  <SCORE.INTRA.VDW>
0

>  <SCORE.INTRA.VDW.0>
0

>  <SCORE.INTRA.norm>
0

>  <SCORE.RESTR>
1.01752

>  <SCORE.RESTR.CAVITY>
1.01752

>  <SCORE.RESTR.norm>
0.0782706

>  <SCORE.SYSTEM>
-19.8774

>  <SCORE.SYSTEM.CONST>
0

>  <SCORE.SYSTEM.DIHEDRAL>
9.33749

>  <SCORE.SYSTEM.POLAR>
-3.45807

>  <SCORE.SYSTEM.SOLV>
0.468538

>  <SCORE.SYSTEM.VDW>
-4.9934

>  <SCORE.SYSTEM.norm>
-1.52903

>  <SCORE.heavy>
13

>  <SCORE.norm>
-2.96808

$$$$
P24155541
 OpenBabel12072022103D
libRbt.so/2013.1/901 2013/11/27
 17 18  0  0  0  0  0  0  0  0999 V2000
   22.2500  -11.9034    4.9916 C   0  0  0  0  0  0  0  0  0  0  0  0
   22.2530  -13.1626    4.1225 C   0  0  2  0  0  0  0  0  0  0  0  0
   22.9541  -14.3315    4.8155 C   0  0  1  0  0  0  0  0  0  0  0  0
   22.6265  -15.6767    4.1765 C   0  0  0  0  0  0  0  0  0  0  0  0
   23.4164  -16.7240    4.7792 N   0  0  0  0  0  0  0  0  0  0  0  0
   24.7101  -16.5619    5.1545 C   0  0  0  0  0  0  0  0  0  0  0  0
   25.4104  -17.5135    5.4770 O   0  0  0  0  0  0  0  0  0  0  0  0
   25.1803  -15.2923    5.1906 N   0  0  0  0  0  0  0  0  0  0  0  0
   24.4620  -14.1384    4.7348 C   0  0  1  0  0  0  0  0  0  0  0  0
   24.9017  -13.7856    3.4187 N   0  0  0  0  0  0  0  0  0  0  0  0
   24.1740  -13.0606    2.5388 C   0  0  0  0  0  0  0  0  0  0  0  0
   24.6572  -12.6342    1.4979 O   0  0  0  0  0  0  0  0  0  0  0  0
   22.8662  -12.8686    2.8419 N   0  0  0  0  0  0  0  0  0  0  0  0
   23.1393  -17.6922    4.6705 H   0  0  0  0  0  0  0  0  0  0  0  0
   26.1526  -15.2112    5.4505 H   0  0  0  0  0  0  0  0  0  0  0  0
   25.8775  -13.8868    3.1802 H   0  0  0  0  0  0  0  0  0  0  0  0
   22.3686  -12.3029    2.1636 H   0  0  0  0  0  0  0  0  0  0  0  0
  2  1  1  1  0  0  0
  2  3  1  0  0  0  0
  2 13  1  0  0  0  0
  3  4  1  6  0  0  0
  3  9  1  0  0  0  0
  4  5  1  0  0  0  0
  5  6  1  0  0  0  0
  5 14  1  0  0  0  0
  6  7  2  0  0  0  0
  6  8  1  0  0  0  0
  8 15  1  0  0  0  0
  9  8  1  6  0  0  0
  9 10  1  0  0  0  0
 10 11  1  0  0  0  0
 10 16  1  0  0  0  0
 11 12  2  0  0  0  0
 11 13  1  0  0  0  0
 13 17  1  0  0  0  0
M  END
>  <CHROM.0>
-49.66863523,-60.90445181,-50.37009611,-53.29112467,58.24021011,-60.00972437
-60.41517435,-50.89080332,-166.69770320,160.69641180

>  <CHROM.1>
23.86119919,-14.44293061,4.11815554,1.88830231,0.53676774,-0.63876079

>  <Name>
P24155541

>  <RI>
0

>  <Rbt.Current_Directory>
/home/fstefaniak/projects/zuza/docking/adenine/1Y26

>  <Rbt.Executable>
rbdock ($Id: //depot/dev/client3/rdock/2013.1/src/exe/rbdock.cxx#4 $)

>  <Rbt.Library>
libRbt.so (2013.1, Build901 2013/11/27)

>  <Rbt.Parameter_File>
/home/fstefaniak/progs/rDock//data/scripts/dock_solv.prm

>  <Rbt.Receptor>
1y26.prm

>  <SCORE>
-38.3728

>  <SCORE.INTER>
-19.3304

>  <SCORE.INTER.CONST>
1

>  <SCORE.INTER.POLAR>
-1.84081

>  <SCORE.INTER.ROT>
0

>  <SCORE.INTER.SOLV>
15.2719

>  <SCORE.INTER.VDW>
-15.4415

>  <SCORE.INTER.norm>
-1.48695

>  <SCORE.INTRA>
0

>  <SCORE.INTRA.DIHEDRAL>
0

>  <SCORE.INTRA.DIHEDRAL.0>
0

>  <SCORE.INTRA.POLAR>
0

>  <SCORE.INTRA.POLAR.0>
0

>  <SCORE.INTRA.REPUL>
0

>  <SCORE.INTRA.REPUL.0>
0

>  <SCORE.INTRA.SOLV>
0

>  <SCORE.INTRA.SOLV.lig_0>
-27.6356

>  <SCORE.INTRA.VDW>
0

>  <SCORE.INTRA.VDW.0>
0

>  <SCORE.INTRA.norm>
0

>  <SCORE.RESTR>
1.70255

>  <SCORE.RESTR.CAVITY>
1.70255

>  <SCORE.RESTR.norm>
0.130965

>  <SCORE.SYSTEM>
-20.7449

>  <SCORE.SYSTEM.CONST>
0

>  <SCORE.SYSTEM.DIHEDRAL>
5.95872

>  <SCORE.SYSTEM.POLAR>
-3.51901

>  <SCORE.SYSTEM.SOLV>
0.46527

>  <SCORE.SYSTEM.VDW>
-4.24126

>  <SCORE.SYSTEM.norm>
-1.59576

>  <SCORE.heavy>
13

>  <SCORE.norm>
-2.95175

$$$$
P24180736
 OpenBabel12072022103D
libRbt.so/2013.1/901 2013/11/27
 13 12  0  0  0  0  0  0  0  0999 V2000
   21.5832  -16.0427    3.5560 C   0  0  0  0  0  0  0  0  0  0  0  0
   20.4908  -17.1322    3.5927 C   0  0  0  0  0  0  0  0  0  0  0  0
   19.9257  -17.4125    2.4552 N   0  0  0  0  0  0  0  0  0  0  0  0
   18.9259  -18.3319    2.4082 C   0  0  0  0  0  0  0  0  0  0  0  0
   18.4429  -18.9447    3.3524 O   0  0  0  0  0  0  0  0  0  0  0  0
   18.4664  -18.4939    1.1492 N   0  0  0  0  0  0  0  0  0  0  0  0
   20.1938  -17.7265    4.8063 N   0  0  0  0  0  0  0  0  0  0  0  0
   21.2019  -14.8190    4.7888 Cl  0  0  0  0  0  0  0  0  0  0  0  0
   23.1570  -16.7935    3.8854 Cl  0  0  0  0  0  0  0  0  0  0  0  0
   18.8772  -17.9600    0.4010 H   0  0  0  0  0  0  0  0  0  0  0  0
   17.7106  -19.1385    0.9803 H   0  0  0  0  0  0  0  0  0  0  0  0
   20.1312  -18.7402    4.8202 H   0  0  0  0  0  0  0  0  0  0  0  0
   20.7073  -17.3400    5.6023 H   0  0  0  0  0  0  0  0  0  0  0  0
  1  2  1  0  0  0  0
  1  8  1  0  0  0  0
  1  9  1  0  0  0  0
  2  3  2  0  0  0  0
  2  7  1  0  0  0  0
  3  4  1  0  0  0  0
  4  5  2  0  0  0  0
  4  6  1  0  0  0  0
  6 10  1  0  0  0  0
  6 11  1  0  0  0  0
  7 12  1  0  0  0  0
  7 13  1  0  0  0  0
M  END
>  <CHROM.0>
61.71453025,-62.99961481,-57.44095452,-51.85813220,-175.15166911,-57.08440237
-59.41836763,-176.91618056,-167.35095665,161.06438526

>  <CHROM.1>
127.78029477,-132.79519091,1.68436791,20.71074546,-16.96287906,3.58376110
-0.78205836,-0.01447813,-2.48191089

>  <Name>
P24180736

>  <RI>
0

>  <Rbt.Current_Directory>
/home/fstefaniak/projects/zuza/docking/adenine/1Y26

>  <Rbt.Executable>
rbdock ($Id: //depot/dev/client3/rdock/2013.1/src/exe/rbdock.cxx#4 $)

>  <Rbt.Library>
libRbt.so (2013.1, Build901 2013/11/27)

>  <Rbt.Parameter_File>
/home/fstefaniak/progs/rDock//data/scripts/dock_solv.prm

>  <Rbt.Receptor>
1y26.prm

>  <SCORE>
-54.651

>  <SCORE.INTER>
-30.1461

>  <SCORE.INTER.CONST>
1

>  <SCORE.INTER.POLAR>
-4.39983

>  <SCORE.INTER.ROT>
3

>  <SCORE.INTER.SOLV>
11.1696

>  <SCORE.INTER.VDW>
-14.7545

>  <SCORE.INTER.norm>
-3.34957

>  <SCORE.INTRA>
-2.79557

>  <SCORE.INTRA.DIHEDRAL>
-5.63144

>  <SCORE.INTRA.DIHEDRAL.0>
7.16013

>  <SCORE.INTRA.POLAR>
0

>  <SCORE.INTRA.POLAR.0>
0

>  <SCORE.INTRA.REPUL>
0

>  <SCORE.INTRA.REPUL.0>
0

>  <SCORE.INTRA.SOLV>
-0.0727013

>  <SCORE.INTRA.SOLV.lig_0>
-15.1375

>  <SCORE.INTRA.VDW>
0.0564982

>  <SCORE.INTRA.VDW.0>
-0.844627

>  <SCORE.INTRA.norm>
-0.310619

>  <SCORE.RESTR>
0

>  <SCORE.RESTR.CAVITY>
0

>  <SCORE.RESTR.norm>
0

>  <SCORE.SYSTEM>
-21.7093

>  <SCORE.SYSTEM.CONST>
0

>  <SCORE.SYSTEM.DIHEDRAL>
4.87704

>  <SCORE.SYSTEM.POLAR>
-3.20371

>  <SCORE.SYSTEM.SOLV>
0.264638

>  <SCORE.SYSTEM.VDW>
-5.50772

>  <SCORE.SYSTEM.norm>
-2.41214

>  <SCORE.heavy>
9

>  <SCORE.norm>
-6.07233

$$$$
P24180736
 OpenBabel12072022103D
libRbt.so/2013.1/901 2013/11/27
 13 12  0  0  0  0  0  0  0  0999 V2000
   19.7193  -16.8162    4.4419 C   0  0  0  0  0  0  0  0  0  0  0  0
   19.0993  -17.7978    3.4252 C   0  0  0  0  0  0  0  0  0  0  0  0
   19.6493  -17.8221    2.2467 N   0  0  0  0  0  0  0  0  0  0  0  0
   19.1375  -18.6300    1.2810 C   0  0  0  0  0  0  0  0  0  0  0  0
   18.1462  -19.3443    1.3664 O   0  0  0  0  0  0  0  0  0  0  0  0
   19.8512  -18.5426    0.1384 N   0  0  0  0  0  0  0  0  0  0  0  0
   18.0247  -18.5710    3.8272 N   0  0  0  0  0  0  0  0  0  0  0  0
   20.0083  -17.6882    5.9646 Cl  0  0  0  0  0  0  0  0  0  0  0  0
   21.2420  -16.1883    3.7817 Cl  0  0  0  0  0  0  0  0  0  0  0  0
   20.6504  -17.9314    0.1009 H   0  0  0  0  0  0  0  0  0  0  0  0
   19.5649  -19.0819   -0.6631 H   0  0  0  0  0  0  0  0  0  0  0  0
   18.2056  -19.2828    4.5289 H   0  0  0  0  0  0  0  0  0  0  0  0
   17.1647  -18.0432    3.9961 H   0  0  0  0  0  0  0  0  0  0  0  0
  1  2  1  0  0  0  0
  1  8  1  0  0  0  0
  1  9  1  0  0  0  0
  2  3  2  0  0  0  0
  2  7  1  0  0  0  0
  3  4  1  0  0  0  0
  4  5  2  0  0  0  0
  4  6  1  0  0  0  0
  6 10  1  0  0  0  0
  6 11  1  0  0  0  0
  7 12  1  0  0  0  0
  7 13  1  0  0  0  0
M  END
>  <CHROM.0>
-49.37540091,-62.06712649,-56.32950575,-51.27550026,-173.44188428,-176.83680134
-57.40737816,-52.02767663,-167.43146490,160.62961912

>  <CHROM.1>
-130.95796159,-67.71298379,2.71816102,19.71010019,-17.71421660,3.39290279
-1.18640506,-0.70555517,-1.69927942

>  <Name>
P24180736

>  <RI>
0

>  <Rbt.Current_Directory>
/home/fstefaniak/projects/zuza/docking/adenine/1Y26

>  <Rbt.Executable>
rbdock ($Id: //depot/dev/client3/rdock/2013.1/src/exe/rbdock.cxx#4 $)

>  <Rbt.Library>
libRbt.so (2013.1, Build901 2013/11/27)

>  <Rbt.Parameter_File>
/home/fstefaniak/progs/rDock//data/scripts/dock_solv.prm

>  <Rbt.Receptor>
1y26.prm

>  <SCORE>
-51.9877

>  <SCORE.INTER>
-27.7188

>  <SCORE.INTER.CONST>
1

>  <SCORE.INTER.POLAR>
-3.96923

>  <SCORE.INTER.ROT>
3

>  <SCORE.INTER.SOLV>
13.3996

>  <SCORE.INTER.VDW>
-15.315

>  <SCORE.INTER.norm>
-3.07987

>  <SCORE.INTRA>
-2.28761

>  <SCORE.INTRA.DIHEDRAL>
-5.58686

>  <SCORE.INTRA.DIHEDRAL.0>
7.16013

>  <SCORE.INTRA.POLAR>
0

>  <SCORE.INTRA.POLAR.0>
0

>  <SCORE.INTRA.REPUL>
0

>  <SCORE.INTRA.REPUL.0>
0

>  <SCORE.INTRA.SOLV>
-0.171518

>  <SCORE.INTRA.SOLV.lig_0>
-15.1375

>  <SCORE.INTRA.VDW>
0.591575

>  <SCORE.INTRA.VDW.0>
-0.844627

>  <SCORE.INTRA.norm>
-0.254179

>  <SCORE.RESTR>
0

>  <SCORE.RESTR.CAVITY>
0

>  <SCORE.RESTR.norm>
0

>  <SCORE.SYSTEM>
-21.9813

>  <SCORE.SYSTEM.CONST>
0

>  <SCORE.SYSTEM.DIHEDRAL>
5.87569

>  <SCORE.SYSTEM.POLAR>
-3.49768

>  <SCORE.SYSTEM.SOLV>
0.363371

>  <SCORE.SYSTEM.VDW>
-5.07492

>  <SCORE.SYSTEM.norm>
-2.44236

>  <SCORE.heavy>
9

>  <SCORE.norm>
-5.77641

$$$$
P24180736
 OpenBabel12072022103D
libRbt.so/2013.1/901 2013/11/27
 13 12  0  0  0  0  0  0  0  0999 V2000
   20.2627  -16.8273    4.7233 C   0  0  0  0  0  0  0  0  0  0  0  0
   21.6676  -17.0365    4.1197 C   0  0  0  0  0  0  0  0  0  0  0  0
   22.6362  -16.3793    4.6868 N   0  0  0  0  0  0  0  0  0  0  0  0
   23.8976  -16.4769    4.1904 C   0  0  0  0  0  0  0  0  0  0  0  0
   24.2410  -17.0312    3.1535 O   0  0  0  0  0  0  0  0  0  0  0  0
   24.7874  -15.8401    4.9812 N   0  0  0  0  0  0  0  0  0  0  0  0
   21.8001  -17.8922    3.0406 N   0  0  0  0  0  0  0  0  0  0  0  0
   19.0676  -16.8918    3.4079 Cl  0  0  0  0  0  0  0  0  0  0  0  0
   19.9515  -18.1051    5.9147 Cl  0  0  0  0  0  0  0  0  0  0  0  0
   24.4650  -15.3811    5.8173 H   0  0  0  0  0  0  0  0  0  0  0  0
   25.7590  -15.8241    4.7152 H   0  0  0  0  0  0  0  0  0  0  0  0
   22.1578  -18.8235    3.2318 H   0  0  0  0  0  0  0  0  0  0  0  0
   21.0045  -17.8866    2.3974 H   0  0  0  0  0  0  0  0  0  0  0  0
  1  2  1  0  0  0  0
  1  8  1  0  0  0  0
  1  9  1  0  0  0  0
  2  3  2  0  0  0  0
  2  7  1  0  0  0  0
  3  4  1  0  0  0  0
  4  5  2  0  0  0  0
  4  6  1  0  0  0  0
  6 10  1  0  0  0  0
  6 11  1  0  0  0  0
  7 12  1  0  0  0  0
  7 13  1  0  0  0  0
M  END
>  <CHROM.0>
-49.74117913,71.68633507,-56.48990452,-51.64892148,-59.14571190,-60.61943545
-48.00365767,-50.98831863,-166.60089605,-61.22392977

>  <CHROM.1>
145.46535719,-101.41211352,7.71804135,21.44726907,-17.08952379,4.33280500
-3.03741530,-0.18772003,-1.39346169

>  <Name>
P24180736

>  <RI>
0

>  <Rbt.Current_Directory>
/home/fstefaniak/projects/zuza/docking/adenine/1Y26

>  <Rbt.Executable>
rbdock ($Id: //depot/dev/client3/rdock/2013.1/src/exe/rbdock.cxx#4 $)

>  <Rbt.Library>
libRbt.so (2013.1, Build901 2013/11/27)

>  <Rbt.Parameter_File>
/home/fstefaniak/progs/rDock//data/scripts/dock_solv.prm

>  <Rbt.Receptor>
1y26.prm

>  <SCORE>
-51.7523

>  <SCORE.INTER>
-31.7832

>  <SCORE.INTER.CONST>
1

>  <SCORE.INTER.POLAR>
-4.03831

>  <SCORE.INTER.ROT>
3

>  <SCORE.INTER.SOLV>
11.2288

>  <SCORE.INTER.VDW>
-17.0707

>  <SCORE.INTER.norm>
-3.53147

>  <SCORE.INTRA>
-1.80655

>  <SCORE.INTRA.DIHEDRAL>
-4.93499

>  <SCORE.INTRA.DIHEDRAL.0>
7.16013

>  <SCORE.INTRA.POLAR>
0

>  <SCORE.INTRA.POLAR.0>
0

>  <SCORE.INTRA.REPUL>
0

>  <SCORE.INTRA.REPUL.0>
0

>  <SCORE.INTRA.SOLV>
-0.118888

>  <SCORE.INTRA.SOLV.lig_0>
-15.1375

>  <SCORE.INTRA.VDW>
0.72039

>  <SCORE.INTRA.VDW.0>
-0.844627

>  <SCORE.INTRA.norm>
-0.200728

>  <SCORE.RESTR>
0

>  <SCORE.RESTR.CAVITY>
0

>  <SCORE.RESTR.norm>
0

>  <SCORE.SYSTEM>
-18.1625

>  <SCORE.SYSTEM.CONST>
0

>  <SCORE.SYSTEM.DIHEDRAL>
5.4671

>  <SCORE.SYSTEM.POLAR>
-2.70098

>  <SCORE.SYSTEM.SOLV>
0.749625

>  <SCORE.SYSTEM.VDW>
-5.17733

>  <SCORE.SYSTEM.norm>
-2.01806

>  <SCORE.heavy>
9

>  <SCORE.norm>
-5.75025

$$$$
P24207812
 OpenBabel12072022103D
libRbt.so/2013.1/901 2013/11/27
 14 14  0  0  0  0  0  0  0  0999 V2000
   21.8129  -14.5708    4.3651 C   0  0  0  0  0  0  0  0  0  0  0  0
   20.8024  -15.4838    4.7699 O   0  0  0  0  0  0  0  0  0  0  0  0
   21.1755  -16.8381    4.5227 C   0  0  2  0  0  0  0  0  0  0  0  0
   20.9955  -17.1414    3.0243 C   0  0  2  0  0  0  0  0  0  0  0  0
   19.6057  -17.7558    2.9753 C   0  0  1  0  0  0  0  0  0  0  0  0
   19.5519  -18.4982    4.3083 C   0  0  1  0  0  0  0  0  0  0  0  0
   20.3463  -17.7483    5.2584 O   0  0  0  0  0  0  0  0  0  0  0  0
   18.1525  -18.6854    4.8839 C   0  0  0  0  0  0  0  0  0  0  0  0
   18.2157  -19.5738    6.0043 O   0  0  0  0  0  0  0  0  0  0  0  0
   18.5923  -16.7545    2.8834 O   0  0  0  0  0  0  0  0  0  0  0  0
   21.9461  -18.1085    2.5591 O   0  0  0  0  0  0  0  0  0  0  0  0
   18.1014  -20.4670    5.6263 H   0  0  0  0  0  0  0  0  0  0  0  0
   18.5575  -16.2857    3.7354 H   0  0  0  0  0  0  0  0  0  0  0  0
   22.0549  -18.7706    3.2650 H   0  0  0  0  0  0  0  0  0  0  0  0
  1  2  1  0  0  0  0
  3  7  1  0  0  0  0
  3  2  1  6  0  0  0
  3  4  1  0  0  0  0
  4 11  1  1  0  0  0
  4  5  1  0  0  0  0
  5 10  1  1  0  0  0
  5  6  1  0  0  0  0
  6  7  1  0  0  0  0
  6  8  1  1  0  0  0
  8  9  1  0  0  0  0
  9 12  1  0  0  0  0
 10 13  1  0  0  0  0
 11 14  1  0  0  0  0
M  END
>  <CHROM.0>
-49.32192391,-176.89400889,-53.05413334,-50.39119381,-58.62358816,-66.61999234
-61.30842506,62.58692384,-165.70939743,160.67951753

>  <CHROM.1>
-77.52251278,38.36545937,-69.98098821,170.59744871,-89.22309455,20.09615522
-17.38654992,4.16384552,0.23039416,0.82481786,0.88382104

>  <Name>
P24207812

>  <RI>
0

>  <Rbt.Current_Directory>
/home/fstefaniak/projects/zuza/docking/adenine/1Y26

>  <Rbt.Executable>
rbdock ($Id: //depot/dev/client3/rdock/2013.1/src/exe/rbdock.cxx#4 $)

>  <Rbt.Library>
libRbt.so (2013.1, Build901 2013/11/27)

>  <Rbt.Parameter_File>
/home/fstefaniak/progs/rDock//data/scripts/dock_solv.prm

>  <Rbt.Receptor>
1y26.prm

>  <SCORE>
-52.5299

>  <SCORE.INTER>
-35.2997

>  <SCORE.INTER.CONST>
1

>  <SCORE.INTER.POLAR>
-5.52716

>  <SCORE.INTER.ROT>
2

>  <SCORE.INTER.SOLV>
13.5745

>  <SCORE.INTER.VDW>
-14.5674

>  <SCORE.INTER.norm>
-3.20907

>  <SCORE.INTRA>
4.29029

>  <SCORE.INTRA.DIHEDRAL>
6.92146

>  <SCORE.INTRA.DIHEDRAL.0>
1.02916

>  <SCORE.INTRA.POLAR>
0.0945277

>  <SCORE.INTRA.POLAR.0>
-0.0945277

>  <SCORE.INTRA.REPUL>
0

>  <SCORE.INTRA.REPUL.0>
0

>  <SCORE.INTRA.SOLV>
0.073323

>  <SCORE.INTRA.SOLV.lig_0>
-18.5277

>  <SCORE.INTRA.VDW>
0.471506

>  <SCORE.INTRA.VDW.0>
0.00199835

>  <SCORE.INTRA.norm>
0.390027

>  <SCORE.RESTR>
0

>  <SCORE.RESTR.CAVITY>
0

>  <SCORE.RESTR.norm>
0

>  <SCORE.SYSTEM>
-21.5205

>  <SCORE.SYSTEM.CONST>
0

>  <SCORE.SYSTEM.DIHEDRAL>
6.01385

>  <SCORE.SYSTEM.POLAR>
-3.52402

>  <SCORE.SYSTEM.SOLV>
0.359366

>  <SCORE.SYSTEM.VDW>
-4.72464

>  <SCORE.SYSTEM.norm>
-1.95641

>  <SCORE.heavy>
11

>  <SCORE.norm>
-4.77545

$$$$
P24207812
 OpenBabel12072022103D
libRbt.so/2013.1/901 2013/11/27
 14 14  0  0  0  0  0  0  0  0999 V2000
   21.8074  -14.5860    4.3806 C   0  0  0  0  0  0  0  0  0  0  0  0
   20.8123  -15.4951    4.8296 O   0  0  0  0  0  0  0  0  0  0  0  0
   21.1749  -16.8514    4.5782 C   0  0  2  0  0  0  0  0  0  0  0  0
   21.0247  -17.1391    3.0734 C   0  0  2  0  0  0  0  0  0  0  0  0
   19.6293  -17.7364    2.9880 C   0  0  1  0  0  0  0  0  0  0  0  0
   19.5373  -18.4902    4.3125 C   0  0  1  0  0  0  0  0  0  0  0  0
   20.3190  -17.7583    5.2868 O   0  0  0  0  0  0  0  0  0  0  0  0
   18.1233  -18.6659    4.8552 C   0  0  0  0  0  0  0  0  0  0  0  0
   18.1661  -19.4715    6.0375 O   0  0  0  0  0  0  0  0  0  0  0  0
   18.6300  -16.7224    2.8830 O   0  0  0  0  0  0  0  0  0  0  0  0
   21.9741  -18.1132    2.6204 O   0  0  0  0  0  0  0  0  0  0  0  0
   18.0726  -20.3907    5.7214 H   0  0  0  0  0  0  0  0  0  0  0  0
   18.5944  -16.2490    3.7323 H   0  0  0  0  0  0  0  0  0  0  0  0
   22.0772  -18.7701    3.3319 H   0  0  0  0  0  0  0  0  0  0  0  0
  1  2  1  0  0  0  0
  3  7  1  0  0  0  0
  3  2  1  6  0  0  0
  3  4  1  0  0  0  0
  4 11  1  1  0  0  0
  4  5  1  0  0  0  0
  5 10  1  1  0  0  0
  5  6  1  0  0  0  0
  6  7  1  0  0  0  0
  6  8  1  1  0  0  0
  8  9  1  0  0  0  0
  9 12  1  0  0  0  0
 10 13  1  0  0  0  0
 11 14  1  0  0  0  0
M  END
>  <CHROM.0>
-48.33545046,-176.79405814,-54.56875477,-50.47434417,-55.84064565,-57.37667673
-54.03011897,63.25031442,-166.44630913,160.05742154

>  <CHROM.1>
-73.91650191,36.89498322,-68.84241939,175.57568456,-89.75343885,20.09619977
-17.37371240,4.19116504,0.22480687,0.80602765,0.87804458

>  <Name>
P24207812

>  <RI>
0

>  <Rbt.Current_Directory>
/home/fstefaniak/projects/zuza/docking/adenine/1Y26

>  <Rbt.Executable>
rbdock ($Id: //depot/dev/client3/rdock/2013.1/src/exe/rbdock.cxx#4 $)

>  <Rbt.Library>
libRbt.so (2013.1, Build901 2013/11/27)

>  <Rbt.Parameter_File>
/home/fstefaniak/progs/rDock//data/scripts/dock_solv.prm

>  <Rbt.Receptor>
1y26.prm

>  <SCORE>
-52.438

>  <SCORE.INTER>
-35.2254

>  <SCORE.INTER.CONST>
1

>  <SCORE.INTER.POLAR>
-5.5963

>  <SCORE.INTER.ROT>
2

>  <SCORE.INTER.SOLV>
13.4716

>  <SCORE.INTER.VDW>
-14.2531

>  <SCORE.INTER.norm>
-3.20231

>  <SCORE.INTRA>
4.27704

>  <SCORE.INTRA.DIHEDRAL>
6.42632

>  <SCORE.INTRA.DIHEDRAL.0>
1.02916

>  <SCORE.INTRA.POLAR>
0.0945277

>  <SCORE.INTRA.POLAR.0>
-0.0945277

>  <SCORE.INTRA.REPUL>
0

>  <SCORE.INTRA.REPUL.0>
0

>  <SCORE.INTRA.SOLV>
0.123806

>  <SCORE.INTRA.SOLV.lig_0>
-18.5277

>  <SCORE.INTRA.VDW>
0.680578

>  <SCORE.INTRA.VDW.0>
0.00199835

>  <SCORE.INTRA.norm>
0.388822

>  <SCORE.RESTR>
0

>  <SCORE.RESTR.CAVITY>
0

>  <SCORE.RESTR.norm>
0

>  <SCORE.SYSTEM>
-21.4896

>  <SCORE.SYSTEM.CONST>
0

>  <SCORE.SYSTEM.DIHEDRAL>
6.11302

>  <SCORE.SYSTEM.POLAR>
-3.55343

>  <SCORE.SYSTEM.SOLV>
0.39646

>  <SCORE.SYSTEM.VDW>
-4.65148

>  <SCORE.SYSTEM.norm>
-1.9536

>  <SCORE.heavy>
11

>  <SCORE.norm>
-4.76709

$$$$
P24207812
 OpenBabel12072022103D
libRbt.so/2013.1/901 2013/11/27
 14 14  0  0  0  0  0  0  0  0999 V2000
   21.9141  -14.4943    4.3837 C   0  0  0  0  0  0  0  0  0  0  0  0
   20.9152  -15.4133    4.8037 O   0  0  0  0  0  0  0  0  0  0  0  0
   21.3048  -16.7665    4.5775 C   0  0  2  0  0  0  0  0  0  0  0  0
   21.1191  -17.0983    3.0858 C   0  0  2  0  0  0  0  0  0  0  0  0
   19.7374  -17.7319    3.0569 C   0  0  1  0  0  0  0  0  0  0  0  0
   19.7024  -18.4516    4.4029 C   0  0  1  0  0  0  0  0  0  0  0  0
   20.4928  -17.6748    5.3344 O   0  0  0  0  0  0  0  0  0  0  0  0
   18.3094  -18.6474    4.9911 C   0  0  0  0  0  0  0  0  0  0  0  0
   17.3852  -18.9328    3.9360 O   0  0  0  0  0  0  0  0  0  0  0  0
   18.7101  -16.7460    2.9545 O   0  0  0  0  0  0  0  0  0  0  0  0
   22.0796  -18.0606    2.6310 O   0  0  0  0  0  0  0  0  0  0  0  0
   17.3421  -18.1123    3.4081 H   0  0  0  0  0  0  0  0  0  0  0  0
   18.7046  -16.2334    3.7816 H   0  0  0  0  0  0  0  0  0  0  0  0
   22.1194  -18.7682    3.2989 H   0  0  0  0  0  0  0  0  0  0  0  0
  1  2  1  0  0  0  0
  3  7  1  0  0  0  0
  3  2  1  6  0  0  0
  3  4  1  0  0  0  0
  4 11  1  1  0  0  0
  4  5  1  0  0  0  0
  5 10  1  1  0  0  0
  5  6  1  0  0  0  0
  6  7  1  0  0  0  0
  6  8  1  1  0  0  0
  8  9  1  0  0  0  0
  9 12  1  0  0  0  0
 10 13  1  0  0  0  0
 11 14  1  0  0  0  0
M  END
>  <CHROM.0>
-50.21583454,-176.30835510,-54.33122649,-51.09251973,-179.05727122,-174.25624940
-56.13118386,63.83462211,-167.42531867,161.09654455

>  <CHROM.1>
-77.87811696,45.31555334,-67.17531912,37.29642374,-66.59224216,20.12674776
-17.26480405,4.00783463,0.55295568,0.41413457,0.60015553

>  <Name>
P24207812

>  <RI>
0

>  <Rbt.Current_Directory>
/home/fstefaniak/projects/zuza/docking/adenine/1Y26

>  <Rbt.Executable>
rbdock ($Id: //depot/dev/client3/rdock/2013.1/src/exe/rbdock.cxx#4 $)

>  <Rbt.Library>
libRbt.so (2013.1, Build901 2013/11/27)

>  <Rbt.Parameter_File>
/home/fstefaniak/progs/rDock//data/scripts/dock_solv.prm

>  <Rbt.Receptor>
1y26.prm

>  <SCORE>
-51.0318

>  <SCORE.INTER>
-32.7971

>  <SCORE.INTER.CONST>
1

>  <SCORE.INTER.POLAR>
-5.15478

>  <SCORE.INTER.ROT>
2

>  <SCORE.INTER.SOLV>
13.6733

>  <SCORE.INTER.VDW>
-14.1732

>  <SCORE.INTER.norm>
-2.98155

>  <SCORE.INTRA>
2.9726

>  <SCORE.INTRA.DIHEDRAL>
3.84973

>  <SCORE.INTRA.DIHEDRAL.0>
1.02916

>  <SCORE.INTRA.POLAR>
-0.171112

>  <SCORE.INTRA.POLAR.0>
-0.0945277

>  <SCORE.INTRA.REPUL>
0

>  <SCORE.INTRA.REPUL.0>
0

>  <SCORE.INTRA.SOLV>
0.976559

>  <SCORE.INTRA.SOLV.lig_0>
-18.5277

>  <SCORE.INTRA.VDW>
1.14123

>  <SCORE.INTRA.VDW.0>
0.00199835

>  <SCORE.INTRA.norm>
0.270236

>  <SCORE.RESTR>
0

>  <SCORE.RESTR.CAVITY>
0

>  <SCORE.RESTR.norm>
0

>  <SCORE.SYSTEM>
-21.2074

>  <SCORE.SYSTEM.CONST>
0

>  <SCORE.SYSTEM.DIHEDRAL>
5.6094

>  <SCORE.SYSTEM.POLAR>
-3.46432

>  <SCORE.SYSTEM.SOLV>
0.0800664

>  <SCORE.SYSTEM.VDW>
-4.48701

>  <SCORE.SYSTEM.norm>
-1.92794

>  <SCORE.heavy>
11

>  <SCORE.norm>
-4.63926

$$$$
P24228551
 OpenBabel12072022103D
libRbt.so/2013.1/901 2013/11/27
 13 13  0  0  0  0  0  0  0  0999 V2000
   19.0473  -18.5465    6.3332 C   0  0  0  0  0  0  0  0  0  0  0  0
   20.0748  -18.5902    5.2012 C   0  0  1  0  0  0  0  0  0  0  0  0
   19.4662  -18.7667    3.7997 C   0  0  2  0  0  0  0  0  0  0  0  0
   18.8033  -17.4674    3.3292 C   0  0  1  0  0  0  0  0  0  0  0  0
   19.7813  -16.3117    3.4391 C   0  0  0  0  0  0  0  0  0  0  0  0
   20.3428  -16.2294    4.8505 C   0  0  1  0  0  0  0  0  0  0  0  0
   20.9447  -17.4539    5.2494 O   0  0  0  0  0  0  0  0  0  0  0  0
   21.3498  -15.2349    4.8733 O   0  0  0  0  0  0  0  0  0  0  0  0
   18.3752  -17.6114    1.9725 O   0  0  0  0  0  0  0  0  0  0  0  0
   18.5012  -19.8214    3.7504 O   0  0  0  0  0  0  0  0  0  0  0  0
   21.7481  -15.3089    5.7560 H   0  0  0  0  0  0  0  0  0  0  0  0
   17.6887  -18.3068    1.9905 H   0  0  0  0  0  0  0  0  0  0  0  0
   18.9174  -20.6102    4.1423 H   0  0  0  0  0  0  0  0  0  0  0  0
  2  1  1  1  0  0  0
  2  3  1  0  0  0  0
  2  7  1  0  0  0  0
  3 10  1  1  0  0  0
  3  4  1  0  0  0  0
  4  5  1  0  0  0  0
  4  9  1  6  0  0  0
  5  6  1  0  0  0  0
  6  7  1  0  0  0  0
  6  8  1  6  0  0  0
  8 11  1  0  0  0  0
  9 12  1  0  0  0  0
 10 13  1  0  0  0  0
M  END
>  <CHROM.0>
-50.49026858,173.49170968,-59.46244449,-50.56455499,-62.06922009,-62.60752957
-59.14601109,-176.07653472,-166.39303663,160.44244894

>  <CHROM.1>
-50.98526676,64.31969979,-172.73222322,19.66653343,-17.61114464,4.26996918
-2.92674281,-0.93662126,-0.80937705

>  <Name>
P24228551

>  <RI>
0

>  <Rbt.Current_Directory>
/home/fstefaniak/projects/zuza/docking/adenine/1Y26

>  <Rbt.Executable>
rbdock ($Id: //depot/dev/client3/rdock/2013.1/src/exe/rbdock.cxx#4 $)

>  <Rbt.Library>
libRbt.so (2013.1, Build901 2013/11/27)

>  <Rbt.Parameter_File>
/home/fstefaniak/progs/rDock//data/scripts/dock_solv.prm

>  <Rbt.Receptor>
1y26.prm

>  <SCORE>
-47.3764

>  <SCORE.INTER>
-24.8466

>  <SCORE.INTER.CONST>
1

>  <SCORE.INTER.POLAR>
-3.77672

>  <SCORE.INTER.ROT>
0

>  <SCORE.INTER.SOLV>
13.7569

>  <SCORE.INTER.VDW>
-12.161

>  <SCORE.INTER.norm>
-2.48466

>  <SCORE.INTRA>
0.0782387

>  <SCORE.INTRA.DIHEDRAL>
-0.0178455

>  <SCORE.INTRA.DIHEDRAL.0>
0.79452

>  <SCORE.INTRA.POLAR>
0.0557692

>  <SCORE.INTRA.POLAR.0>
-0.061013

>  <SCORE.INTRA.REPUL>
0

>  <SCORE.INTRA.REPUL.0>
0

>  <SCORE.INTRA.SOLV>
-0.024179

>  <SCORE.INTRA.SOLV.lig_0>
-16.7178

>  <SCORE.INTRA.VDW>
-0.0903642

>  <SCORE.INTRA.VDW.0>
-0.103995

>  <SCORE.INTRA.norm>
0.00782387

>  <SCORE.RESTR>
0

>  <SCORE.RESTR.CAVITY>
0

>  <SCORE.RESTR.norm>
0

>  <SCORE.SYSTEM>
-22.608

>  <SCORE.SYSTEM.CONST>
0

>  <SCORE.SYSTEM.DIHEDRAL>
5.65556

>  <SCORE.SYSTEM.POLAR>
-3.46891

>  <SCORE.SYSTEM.SOLV>
0.391737

>  <SCORE.SYSTEM.VDW>
-5.52475

>  <SCORE.SYSTEM.norm>
-2.2608

>  <SCORE.heavy>
10

>  <SCORE.norm>
-4.73764

$$$$
P24228551
 OpenBabel12072022103D
libRbt.so/2013.1/901 2013/11/27
 13 13  0  0  0  0  0  0  0  0999 V2000
   21.0686  -15.9645    3.8687 C   0  0  0  0  0  0  0  0  0  0  0  0
   21.1422  -17.4920    3.8900 C   0  0  1  0  0  0  0  0  0  0  0  0
   19.9419  -18.1747    4.5676 C   0  0  2  0  0  0  0  0  0  0  0  0
   18.7036  -18.1124    3.6666 C   0  0  1  0  0  0  0  0  0  0  0  0
   19.0311  -18.6592    2.2890 C   0  0  0  0  0  0  0  0  0  0  0  0
   20.2391  -17.9384    1.7098 C   0  0  1  0  0  0  0  0  0  0  0  0
   21.3634  -18.0166    2.5762 O   0  0  0  0  0  0  0  0  0  0  0  0
   20.5959  -18.5703    0.4945 O   0  0  0  0  0  0  0  0  0  0  0  0
   17.6461  -18.8768    4.2515 O   0  0  0  0  0  0  0  0  0  0  0  0
   19.6218  -17.5901    5.8332 O   0  0  0  0  0  0  0  0  0  0  0  0
   21.3321  -18.0395    0.1487 H   0  0  0  0  0  0  0  0  0  0  0  0
   17.5036  -18.4863    5.1361 H   0  0  0  0  0  0  0  0  0  0  0  0
   20.4499  -17.5395    6.3440 H   0  0  0  0  0  0  0  0  0  0  0  0
  2  1  1  6  0  0  0
  2  3  1  0  0  0  0
  2  7  1  0  0  0  0
  3 10  1  1  0  0  0
  3  4  1  0  0  0  0
  4  5  1  0  0  0  0
  4  9  1  1  0  0  0
  5  6  1  0  0  0  0
  6  7  1  0  0  0  0
  6  8  1  6  0  0  0
  8 11  1  0  0  0  0
  9 12  1  0  0  0  0
 10 13  1  0  0  0  0
M  END
>  <CHROM.0>
-43.51784906,60.23207713,-55.00157710,-54.11907420,-55.61732282,-57.48702978
-57.28947480,-175.72120917,-166.40690307,160.54597793

>  <CHROM.1>
-49.92218020,57.61013803,176.77247756,19.93075354,-17.94527497,3.32466669
-2.01227010,-0.51452840,-1.87981770

>  <Name>
P24228551

>  <RI>
0

>  <Rbt.Current_Directory>
/home/fstefaniak/projects/zuza/docking/adenine/1Y26

>  <Rbt.Executable>
rbdock ($Id: //depot/dev/client3/rdock/2013.1/src/exe/rbdock.cxx#4 $)

>  <Rbt.Library>
libRbt.so (2013.1, Build901 2013/11/27)

>  <Rbt.Parameter_File>
/home/fstefaniak/progs/rDock//data/scripts/dock_solv.prm

>  <Rbt.Receptor>
1y26.prm

>  <SCORE>
-47.2688

>  <SCORE.INTER>
-25.2957

>  <SCORE.INTER.CONST>
1

>  <SCORE.INTER.POLAR>
-3.92998

>  <SCORE.INTER.ROT>
0

>  <SCORE.INTER.SOLV>
13.8833

>  <SCORE.INTER.VDW>
-11.9916

>  <SCORE.INTER.norm>
-2.52957

>  <SCORE.INTRA>
-0.00248099

>  <SCORE.INTRA.DIHEDRAL>
-0.19222

>  <SCORE.INTRA.DIHEDRAL.0>
0.79452

>  <SCORE.INTRA.POLAR>
0.0309887

>  <SCORE.INTRA.POLAR.0>
-0.061013

>  <SCORE.INTRA.REPUL>
0

>  <SCORE.INTRA.REPUL.0>
0

>  <SCORE.INTRA.SOLV>
-0.0204171

>  <SCORE.INTRA.SOLV.lig_0>
-16.7178

>  <SCORE.INTRA.VDW>
-0.00152398

>  <SCORE.INTRA.VDW.0>
-0.103995

>  <SCORE.INTRA.norm>
-0.000248099

>  <SCORE.RESTR>
0

>  <SCORE.RESTR.CAVITY>
0

>  <SCORE.RESTR.norm>
0

>  <SCORE.SYSTEM>
-21.9706

>  <SCORE.SYSTEM.CONST>
0

>  <SCORE.SYSTEM.DIHEDRAL>
6.23742

>  <SCORE.SYSTEM.POLAR>
-3.53325

>  <SCORE.SYSTEM.SOLV>
0.505138

>  <SCORE.SYSTEM.VDW>
-5.11711

>  <SCORE.SYSTEM.norm>
-2.19706

>  <SCORE.heavy>
10

>  <SCORE.norm>
-4.72688

$$$$
P24228551
 OpenBabel12072022103D
libRbt.so/2013.1/901 2013/11/27
 13 13  0  0  0  0  0  0  0  0999 V2000
   21.0837  -15.9290    3.9044 C   0  0  0  0  0  0  0  0  0  0  0  0
   21.1646  -17.4560    3.9325 C   0  0  1  0  0  0  0  0  0  0  0  0
   19.9695  -18.1412    4.6164 C   0  0  2  0  0  0  0  0  0  0  0  0
   18.7284  -18.0891    3.7186 C   0  0  1  0  0  0  0  0  0  0  0  0
   19.0547  -18.6406    2.3427 C   0  0  0  0  0  0  0  0  0  0  0  0
   20.2577  -17.9167    1.7569 C   0  0  1  0  0  0  0  0  0  0  0  0
   21.3848  -17.9855    2.6205 O   0  0  0  0  0  0  0  0  0  0  0  0
   20.6142  -18.5524    0.5434 O   0  0  0  0  0  0  0  0  0  0  0  0
   17.6762  -18.8558    4.3099 O   0  0  0  0  0  0  0  0  0  0  0  0
   19.6500  -17.5524    5.8803 O   0  0  0  0  0  0  0  0  0  0  0  0
   21.3477  -18.0204    0.1938 H   0  0  0  0  0  0  0  0  0  0  0  0
   17.5316  -18.4595    5.1916 H   0  0  0  0  0  0  0  0  0  0  0  0
   20.4791  -17.4959    6.3887 H   0  0  0  0  0  0  0  0  0  0  0  0
  2  1  1  6  0  0  0
  2  3  1  0  0  0  0
  2  7  1  0  0  0  0
  3 10  1  1  0  0  0
  3  4  1  0  0  0  0
  4  5  1  0  0  0  0
  4  9  1  1  0  0  0
  5  6  1  0  0  0  0
  6  7  1  0  0  0  0
  6  8  1  6  0  0  0
  8 11  1  0  0  0  0
  9 12  1  0  0  0  0
 10 13  1  0  0  0  0
M  END
>  <CHROM.0>
-47.06529623,56.90393117,-56.69260353,-53.06629180,-178.98132001,-59.03211845
-59.73100937,-53.67661381,-167.00658058,160.79541562

>  <CHROM.1>
-49.94906608,57.84903114,176.85065616,19.95380181,-17.91759766,3.37253498
-2.01099138,-0.51987982,-1.88375916

>  <Name>
P24228551

>  <RI>
0

>  <Rbt.Current_Directory>
/home/fstefaniak/projects/zuza/docking/adenine/1Y26

>  <Rbt.Executable>
rbdock ($Id: //depot/dev/client3/rdock/2013.1/src/exe/rbdock.cxx#4 $)

>  <Rbt.Library>
libRbt.so (2013.1, Build901 2013/11/27)

>  <Rbt.Parameter_File>
/home/fstefaniak/progs/rDock//data/scripts/dock_solv.prm

>  <Rbt.Receptor>
1y26.prm

>  <SCORE>
-46.8878

>  <SCORE.INTER>
-25.2824

>  <SCORE.INTER.CONST>
1

>  <SCORE.INTER.POLAR>
-3.91981

>  <SCORE.INTER.ROT>
0

>  <SCORE.INTER.SOLV>
13.8328

>  <SCORE.INTER.VDW>
-11.9998

>  <SCORE.INTER.norm>
-2.52824

>  <SCORE.INTRA>
-0.00722951

>  <SCORE.INTRA.DIHEDRAL>
-0.202529

>  <SCORE.INTRA.DIHEDRAL.0>
0.79452

>  <SCORE.INTRA.POLAR>
0.0321113

>  <SCORE.INTRA.POLAR.0>
-0.061013

>  <SCORE.INTRA.REPUL>
0

>  <SCORE.INTRA.REPUL.0>
0

>  <SCORE.INTRA.SOLV>
-0.020508

>  <SCORE.INTRA.SOLV.lig_0>
-16.7178

>  <SCORE.INTRA.VDW>
-0.00488973

>  <SCORE.INTRA.VDW.0>
-0.103995

>  <SCORE.INTRA.norm>
-0.000722951

>  <SCORE.RESTR>
0

>  <SCORE.RESTR.CAVITY>
0

>  <SCORE.RESTR.norm>
0

>  <SCORE.SYSTEM>
-21.5981

>  <SCORE.SYSTEM.CONST>
0

>  <SCORE.SYSTEM.DIHEDRAL>
5.67123

>  <SCORE.SYSTEM.POLAR>
-3.49485

>  <SCORE.SYSTEM.SOLV>
0.550397

>  <SCORE.SYSTEM.VDW>
-4.82313

>  <SCORE.SYSTEM.norm>
-2.15981

>  <SCORE.heavy>
10

>  <SCORE.norm>
-4.68878

$$$$
P24228552
 OpenBabel12072022103D
libRbt.so/2013.1/901 2013/11/27
 13 13  0  0  0  0  0  0  0  0999 V2000
   21.1684  -15.7376    4.3932 C   0  0  0  0  0  0  0  0  0  0  0  0
   20.5976  -17.1511    4.4270 C   0  0  2  0  0  0  0  0  0  0  0  0
   19.4800  -17.3405    3.3871 C   0  0  2  0  0  0  0  0  0  0  0  0
   18.8605  -18.7360    3.5505 C   0  0  1  0  0  0  0  0  0  0  0  0
   18.4371  -18.9760    4.9898 C   0  0  0  0  0  0  0  0  0  0  0  0
   19.6087  -18.7033    5.9212 C   0  0  1  0  0  0  0  0  0  0  0  0
   20.0942  -17.3781    5.7488 O   0  0  0  0  0  0  0  0  0  0  0  0
   19.2048  -18.8504    7.2686 O   0  0  0  0  0  0  0  0  0  0  0  0
   17.7260  -18.8612    2.6904 O   0  0  0  0  0  0  0  0  0  0  0  0
   19.9626  -17.2259    2.0448 O   0  0  0  0  0  0  0  0  0  0  0  0
   18.5635  -18.1388    7.4279 H   0  0  0  0  0  0  0  0  0  0  0  0
   17.1286  -18.1300    2.9432 H   0  0  0  0  0  0  0  0  0  0  0  0
   20.6542  -17.9010    1.9245 H   0  0  0  0  0  0  0  0  0  0  0  0
  2  7  1  0  0  0  0
  2  1  1  1  0  0  0
  2  3  1  0  0  0  0
  3 10  1  6  0  0  0
  3  4  1  0  0  0  0
  4  5  1  0  0  0  0
  4  9  1  6  0  0  0
  5  6  1  0  0  0  0
  6  7  1  0  0  0  0
  6  8  1  1  0  0  0
  8 11  1  0  0  0  0
  9 12  1  0  0  0  0
 10 13  1  0  0  0  0
M  END
>  <CHROM.0>
-51.36784452,-177.52374303,-56.52972630,-53.15977438,-55.91185895,-61.22876808
-60.94364629,-53.98400300,-167.57543257,161.20097134

>  <CHROM.1>
58.53341375,-57.03315134,-65.89239246,19.49273473,-17.89200227,4.43785177
-1.55456716,0.77719278,1.80145962

>  <Name>
P24228552

>  <RI>
0

>  <Rbt.Current_Directory>
/home/fstefaniak/projects/zuza/docking/adenine/1Y26

>  <Rbt.Executable>
rbdock ($Id: //depot/dev/client3/rdock/2013.1/src/exe/rbdock.cxx#4 $)

>  <Rbt.Library>
libRbt.so (2013.1, Build901 2013/11/27)

>  <Rbt.Parameter_File>
/home/fstefaniak/progs/rDock//data/scripts/dock_solv.prm

>  <Rbt.Receptor>
1y26.prm

>  <SCORE>
-58.5356

>  <SCORE.INTER>
-35.9317

>  <SCORE.INTER.CONST>
1

>  <SCORE.INTER.POLAR>
-4.15915

>  <SCORE.INTER.ROT>
0

>  <SCORE.INTER.SOLV>
14.3581

>  <SCORE.INTER.VDW>
-18.4766

>  <SCORE.INTER.norm>
-3.59317

>  <SCORE.INTRA>
-0.164994

>  <SCORE.INTRA.DIHEDRAL>
-0.898174

>  <SCORE.INTRA.DIHEDRAL.0>
1.14076

>  <SCORE.INTRA.POLAR>
0.0425732

>  <SCORE.INTRA.POLAR.0>
-0.0425732

>  <SCORE.INTRA.REPUL>
0

>  <SCORE.INTRA.REPUL.0>
0

>  <SCORE.INTRA.SOLV>
-0.0365072

>  <SCORE.INTRA.SOLV.lig_0>
-16.9242

>  <SCORE.INTRA.VDW>
0.157597

>  <SCORE.INTRA.VDW.0>
0.328339

>  <SCORE.INTRA.norm>
-0.0164994

>  <SCORE.RESTR>
0

>  <SCORE.RESTR.CAVITY>
0

>  <SCORE.RESTR.norm>
0

>  <SCORE.SYSTEM>
-22.439

>  <SCORE.SYSTEM.CONST>
0

>  <SCORE.SYSTEM.DIHEDRAL>
5.16506

>  <SCORE.SYSTEM.POLAR>
-3.40414

>  <SCORE.SYSTEM.SOLV>
0.596066

>  <SCORE.SYSTEM.VDW>
-5.53255

>  <SCORE.SYSTEM.norm>
-2.2439

>  <SCORE.heavy>
10

>  <SCORE.norm>
-5.85356

$$$$
P24228552
 OpenBabel12072022103D
libRbt.so/2013.1/901 2013/11/27
 13 13  0  0  0  0  0  0  0  0999 V2000
   21.1554  -15.7263    4.4268 C   0  0  0  0  0  0  0  0  0  0  0  0
   20.5968  -17.1448    4.4517 C   0  0  2  0  0  0  0  0  0  0  0  0
   19.4972  -17.3440    3.3945 C   0  0  2  0  0  0  0  0  0  0  0  0
   18.8877  -18.7450    3.5482 C   0  0  1  0  0  0  0  0  0  0  0  0
   18.4443  -18.9891    4.9807 C   0  0  0  0  0  0  0  0  0  0  0  0
   19.5988  -18.7061    5.9302 C   0  0  1  0  0  0  0  0  0  0  0  0
   20.0750  -17.3766    5.7654 O   0  0  0  0  0  0  0  0  0  0  0  0
   19.1754  -18.8571    7.2712 O   0  0  0  0  0  0  0  0  0  0  0  0
   17.7678  -18.8802    2.6706 O   0  0  0  0  0  0  0  0  0  0  0  0
   19.9994  -17.2247    2.0599 O   0  0  0  0  0  0  0  0  0  0  0  0
   18.4683  -18.2034    7.3967 H   0  0  0  0  0  0  0  0  0  0  0  0
   18.1327  -18.7796    1.7693 H   0  0  0  0  0  0  0  0  0  0  0  0
   20.6867  -17.9051    1.9446 H   0  0  0  0  0  0  0  0  0  0  0  0
  2  7  1  0  0  0  0
  2  1  1  1  0  0  0
  2  3  1  0  0  0  0
  3 10  1  6  0  0  0
  3  4  1  0  0  0  0
  4  5  1  0  0  0  0
  4  9  1  6  0  0  0
  5  6  1  0  0  0  0
  6  7  1  0  0  0  0
  6  8  1  1  0  0  0
  8 11  1  0  0  0  0
  9 12  1  0  0  0  0
 10 13  1  0  0  0  0
M  END
>  <CHROM.0>
-48.18082451,-176.78676870,-55.90412886,-52.62168274,-55.19417958,-57.76605825
-59.14421593,-51.77755092,-164.86997259,160.79257419

>  <CHROM.1>
59.62149088,62.25210594,-60.93955961,19.50471474,-17.90024282,4.43733883
-1.54722952,0.79925712,1.78120741

>  <Name>
P24228552

>  <RI>
0

>  <Rbt.Current_Directory>
/home/fstefaniak/projects/zuza/docking/adenine/1Y26

>  <Rbt.Executable>
rbdock ($Id: //depot/dev/client3/rdock/2013.1/src/exe/rbdock.cxx#4 $)

>  <Rbt.Library>
libRbt.so (2013.1, Build901 2013/11/27)

>  <Rbt.Parameter_File>
/home/fstefaniak/progs/rDock//data/scripts/dock_solv.prm

>  <Rbt.Receptor>
1y26.prm

>  <SCORE>
-58.5039

>  <SCORE.INTER>
-35.65

>  <SCORE.INTER.CONST>
1

>  <SCORE.INTER.POLAR>
-4.16006

>  <SCORE.INTER.ROT>
0

>  <SCORE.INTER.SOLV>
14.31

>  <SCORE.INTER.VDW>
-18.2698

>  <SCORE.INTER.norm>
-3.565

>  <SCORE.INTRA>
-0.489637

>  <SCORE.INTRA.DIHEDRAL>
-1.09176

>  <SCORE.INTRA.DIHEDRAL.0>
1.14076

>  <SCORE.INTRA.POLAR>
0.0421823

>  <SCORE.INTRA.POLAR.0>
-0.0425732

>  <SCORE.INTRA.REPUL>
0

>  <SCORE.INTRA.REPUL.0>
0

>  <SCORE.INTRA.SOLV>
0.0481271

>  <SCORE.INTRA.SOLV.lig_0>
-16.9242

>  <SCORE.INTRA.VDW>
-0.111241

>  <SCORE.INTRA.VDW.0>
0.328339

>  <SCORE.INTRA.norm>
-0.0489637

>  <SCORE.RESTR>
0

>  <SCORE.RESTR.CAVITY>
0

>  <SCORE.RESTR.norm>
0

>  <SCORE.SYSTEM>
-22.3642

>  <SCORE.SYSTEM.CONST>
0

>  <SCORE.SYSTEM.DIHEDRAL>
6.10117

>  <SCORE.SYSTEM.POLAR>
-3.51076

>  <SCORE.SYSTEM.SOLV>
0.611547

>  <SCORE.SYSTEM.VDW>
-5.44452

>  <SCORE.SYSTEM.norm>
-2.23642

>  <SCORE.heavy>
10

>  <SCORE.norm>
-5.85039

$$$$
P24228552
 OpenBabel12072022103D
libRbt.so/2013.1/901 2013/11/27
 13 13  0  0  0  0  0  0  0  0999 V2000
   21.1652  -15.7302    4.4098 C   0  0  0  0  0  0  0  0  0  0  0  0
   20.6035  -17.1475    4.4349 C   0  0  2  0  0  0  0  0  0  0  0  0
   19.4878  -17.3379    3.3930 C   0  0  2  0  0  0  0  0  0  0  0  0
   18.8771  -18.7383    3.5478 C   0  0  1  0  0  0  0  0  0  0  0  0
   18.4543  -18.9895    4.9853 C   0  0  0  0  0  0  0  0  0  0  0  0
   19.6235  -18.7148    5.9191 C   0  0  1  0  0  0  0  0  0  0  0  0
   20.1006  -17.3855    5.7549 O   0  0  0  0  0  0  0  0  0  0  0  0
   19.2196  -18.8725    7.2653 O   0  0  0  0  0  0  0  0  0  0  0  0
   17.7440  -18.8656    2.6861 O   0  0  0  0  0  0  0  0  0  0  0  0
   19.9705  -17.2122    2.0518 O   0  0  0  0  0  0  0  0  0  0  0  0
   18.5856  -18.1563    7.4331 H   0  0  0  0  0  0  0  0  0  0  0  0
   17.1469  -18.1328    2.9351 H   0  0  0  0  0  0  0  0  0  0  0  0
   20.6531  -17.8947    1.9220 H   0  0  0  0  0  0  0  0  0  0  0  0
  2  7  1  0  0  0  0
  2  1  1  1  0  0  0
  2  3  1  0  0  0  0
  3 10  1  6  0  0  0
  3  4  1  0  0  0  0
  4  5  1  0  0  0  0
  4  9  1  6  0  0  0
  5  6  1  0  0  0  0
  6  7  1  0  0  0  0
  6  8  1  1  0  0  0
  8 11  1  0  0  0  0
  9 12  1  0  0  0  0
 10 13  1  0  0  0  0
M  END
>  <CHROM.0>
-47.20469401,-176.70469776,-58.24181514,-53.61990675,-54.88274321,-60.00607774
-61.15494769,-51.12987953,-166.33601938,162.91690492

>  <CHROM.1>
59.72289078,-56.33291799,-66.87680868,19.50336451,-17.89545325,4.44046182
-1.55670354,0.78375465,1.80823497

>  <Name>
P24228552

>  <RI>
0

>  <Rbt.Current_Directory>
/home/fstefaniak/projects/zuza/docking/adenine/1Y26

>  <Rbt.Executable>
rbdock ($Id: //depot/dev/client3/rdock/2013.1/src/exe/rbdock.cxx#4 $)

>  <Rbt.Library>
libRbt.so (2013.1, Build901 2013/11/27)

>  <Rbt.Parameter_File>
/home/fstefaniak/progs/rDock//data/scripts/dock_solv.prm

>  <Rbt.Receptor>
1y26.prm

>  <SCORE>
-58.3464

>  <SCORE.INTER>
-35.875

>  <SCORE.INTER.CONST>
1

>  <SCORE.INTER.POLAR>
-4.15612

>  <SCORE.INTER.ROT>
0

>  <SCORE.INTER.SOLV>
14.3609

>  <SCORE.INTER.VDW>
-18.4499

>  <SCORE.INTER.norm>
-3.5875

>  <SCORE.INTRA>
-0.137901

>  <SCORE.INTRA.DIHEDRAL>
-0.824876

>  <SCORE.INTRA.DIHEDRAL.0>
1.14076

>  <SCORE.INTRA.POLAR>
0.0425732

>  <SCORE.INTRA.POLAR.0>
-0.0425732

>  <SCORE.INTRA.REPUL>
0

>  <SCORE.INTRA.REPUL.0>
0

>  <SCORE.INTRA.SOLV>
-0.0324135

>  <SCORE.INTRA.SOLV.lig_0>
-16.9242

>  <SCORE.INTRA.VDW>
0.145995

>  <SCORE.INTRA.VDW.0>
0.328339

>  <SCORE.INTRA.norm>
-0.0137901

>  <SCORE.RESTR>
0

>  <SCORE.RESTR.CAVITY>
0

>  <SCORE.RESTR.norm>
0

>  <SCORE.SYSTEM>
-22.3334

>  <SCORE.SYSTEM.CONST>
0

>  <SCORE.SYSTEM.DIHEDRAL>
5.66042

>  <SCORE.SYSTEM.POLAR>
-3.4211

>  <SCORE.SYSTEM.SOLV>
0.600842

>  <SCORE.SYSTEM.VDW>
-5.57239

>  <SCORE.SYSTEM.norm>
-2.23334

>  <SCORE.heavy>
10

>  <SCORE.norm>
-5.83464

$$$$
P24240664
 OpenBabel12072022103D
libRbt.so/2013.1/901 2013/11/27
 15 14  0  0  0  0  0  0  0  0999 V2000
   19.1331  -18.2607    2.0436 C   0  0  0  0  0  0  0  0  0  0  0  0
   20.5149  -17.8854    2.5320 C   0  0  0  0  0  0  0  0  0  0  0  0
   21.6131  -18.0942    1.8586 N   0  0  0  0  0  0  0  0  0  0  0  0
   21.5161  -18.6900    0.6325 N   0  0  0  0  0  0  0  0  0  0  0  0
   22.5439  -19.4196    0.0905 C   0  0  0  0  0  0  0  0  0  0  0  0
   22.4581  -19.9833   -0.9931 O   0  0  0  0  0  0  0  0  0  0  0  0
   23.6650  -19.4698    0.8514 N   0  0  0  0  0  0  0  0  0  0  0  0
   20.6509  -17.1933    3.9119 C   0  0  0  0  0  0  0  0  0  0  0  0
   20.0920  -15.7748    3.8582 C   0  0  0  0  0  0  0  0  0  0  0  0
   19.9809  -18.0241    5.0018 C   0  0  0  0  0  0  0  0  0  0  0  0
   22.0332  -17.0888    4.2675 O   0  0  0  0  0  0  0  0  0  0  0  0
   20.6680  -18.6501    0.0807 H   0  0  0  0  0  0  0  0  0  0  0  0
   24.4440  -19.9564    0.4297 H   0  0  0  0  0  0  0  0  0  0  0  0
   23.8450  -18.6789    1.4514 H   0  0  0  0  0  0  0  0  0  0  0  0
   22.0534  -16.6295    5.1304 H   0  0  0  0  0  0  0  0  0  0  0  0
  1  2  1  0  0  0  0
  2  3  2  0  0  0  0
  2  8  1  0  0  0  0
  3  4  1  0  0  0  0
  4  5  1  0  0  0  0
  4 12  1  0  0  0  0
  5  6  2  0  0  0  0
  5  7  1  0  0  0  0
  7 13  1  0  0  0  0
  7 14  1  0  0  0  0
  8  9  1  0  0  0  0
  8 10  1  0  0  0  0
  8 11  1  0  0  0  0
 11 15  1  0  0  0  0
M  END
>  <CHROM.0>
-42.77132252,-151.16606048,-47.87290017,-49.11674090,-50.33617428,-162.11668191
-59.17204301,67.09701815,-165.62607098,161.44379575

>  <CHROM.1>
-69.82341099,-153.50885242,-176.27818942,178.75679205,21.32386053,-18.17253845
2.19093670,2.00293193,-0.11705328,1.09223545

>  <Name>
P24240664

>  <RI>
0

>  <Rbt.Current_Directory>
/home/fstefaniak/projects/zuza/docking/adenine/1Y26

>  <Rbt.Executable>
rbdock ($Id: //depot/dev/client3/rdock/2013.1/src/exe/rbdock.cxx#4 $)

>  <Rbt.Library>
libRbt.so (2013.1, Build901 2013/11/27)

>  <Rbt.Parameter_File>
/home/fstefaniak/progs/rDock//data/scripts/dock_solv.prm

>  <Rbt.Receptor>
1y26.prm

>  <SCORE>
-45.5761

>  <SCORE.INTER>
-26.8122

>  <SCORE.INTER.CONST>
1

>  <SCORE.INTER.POLAR>
-4.18424

>  <SCORE.INTER.ROT>
3

>  <SCORE.INTER.SOLV>
16.7873

>  <SCORE.INTER.VDW>
-15.1231

>  <SCORE.INTER.norm>
-2.43747

>  <SCORE.INTRA>
0.273556

>  <SCORE.INTRA.DIHEDRAL>
-3.06355

>  <SCORE.INTRA.DIHEDRAL.0>
5.46719

>  <SCORE.INTRA.POLAR>
0.325193

>  <SCORE.INTRA.POLAR.0>
-0.325193

>  <SCORE.INTRA.REPUL>
0

>  <SCORE.INTRA.REPUL.0>
0

>  <SCORE.INTRA.SOLV>
-0.0842575

>  <SCORE.INTRA.SOLV.lig_0>
-19.7974

>  <SCORE.INTRA.VDW>
0.741805

>  <SCORE.INTRA.VDW.0>
2.46297

>  <SCORE.INTRA.norm>
0.0248687

>  <SCORE.RESTR>
0

>  <SCORE.RESTR.CAVITY>
0

>  <SCORE.RESTR.norm>
0

>  <SCORE.SYSTEM>
-19.0375

>  <SCORE.SYSTEM.CONST>
0

>  <SCORE.SYSTEM.DIHEDRAL>
12.2639

>  <SCORE.SYSTEM.POLAR>
-3.66666

>  <SCORE.SYSTEM.SOLV>
0.26317

>  <SCORE.SYSTEM.VDW>
-4.64512

>  <SCORE.SYSTEM.norm>
-1.73068

>  <SCORE.heavy>
11

>  <SCORE.norm>
-4.14328

$$$$
P24240664
 OpenBabel12072022103D
libRbt.so/2013.1/901 2013/11/27
 15 14  0  0  0  0  0  0  0  0999 V2000
   24.5821  -15.9277    4.7663 C   0  0  0  0  0  0  0  0  0  0  0  0
   23.6411  -14.9741    4.0636 C   0  0  0  0  0  0  0  0  0  0  0  0
   22.4405  -15.2906    3.6619 N   0  0  0  0  0  0  0  0  0  0  0  0
   21.9982  -16.5640    3.8871 N   0  0  0  0  0  0  0  0  0  0  0  0
   20.6947  -16.9343    3.6725 C   0  0  0  0  0  0  0  0  0  0  0  0
   20.2936  -18.0787    3.8415 O   0  0  0  0  0  0  0  0  0  0  0  0
   19.8829  -15.9315    3.2555 N   0  0  0  0  0  0  0  0  0  0  0  0
   24.1121  -13.5194    3.8109 C   0  0  0  0  0  0  0  0  0  0  0  0
   24.6180  -13.3599    2.3806 C   0  0  0  0  0  0  0  0  0  0  0  0
   22.9982  -12.5273    4.1307 C   0  0  0  0  0  0  0  0  0  0  0  0
   25.2035  -13.2052    4.6818 O   0  0  0  0  0  0  0  0  0  0  0  0
   22.6200  -17.3035    4.1902 H   0  0  0  0  0  0  0  0  0  0  0  0
   18.9967  -15.8731    3.7378 H   0  0  0  0  0  0  0  0  0  0  0  0
   20.3299  -15.0830    2.9423 H   0  0  0  0  0  0  0  0  0  0  0  0
   24.8450  -13.2587    5.5898 H   0  0  0  0  0  0  0  0  0  0  0  0
  1  2  1  0  0  0  0
  2  3  2  0  0  0  0
  2  8  1  0  0  0  0
  3  4  1  0  0  0  0
  4  5  1  0  0  0  0
  4 12  1  0  0  0  0
  5  6  2  0  0  0  0
  5  7  1  0  0  0  0
  7 13  1  0  0  0  0
  7 14  1  0  0  0  0
  8  9  1  0  0  0  0
  8 10  1  0  0  0  0
  8 11  1  0  0  0  0
 11 15  1  0  0  0  0
M  END
>  <CHROM.0>
-48.79680967,-177.01775739,-53.12746277,-52.40305233,-53.75827355,-58.05794776
-68.61600182,-53.19197160,-166.44041777,-61.74404467

>  <CHROM.1>
98.87619676,170.66673324,-133.48398620,-63.29121181,22.76524812,-15.11525085
3.84790540,-0.69760302,0.29141791,2.88504721

>  <Name>
P24240664

>  <RI>
0

>  <Rbt.Current_Directory>
/home/fstefaniak/projects/zuza/docking/adenine/1Y26

>  <Rbt.Executable>
rbdock ($Id: //depot/dev/client3/rdock/2013.1/src/exe/rbdock.cxx#4 $)

>  <Rbt.Library>
libRbt.so (2013.1, Build901 2013/11/27)

>  <Rbt.Parameter_File>
/home/fstefaniak/progs/rDock//data/scripts/dock_solv.prm

>  <Rbt.Receptor>
1y26.prm

>  <SCORE>
-45.081

>  <SCORE.INTER>
-25.1175

>  <SCORE.INTER.CONST>
1

>  <SCORE.INTER.POLAR>
-3.74967

>  <SCORE.INTER.ROT>
3

>  <SCORE.INTER.SOLV>
11.2308

>  <SCORE.INTER.VDW>
-13.5897

>  <SCORE.INTER.norm>
-2.28341

>  <SCORE.INTRA>
-1.12248

>  <SCORE.INTRA.DIHEDRAL>
-3.97001

>  <SCORE.INTRA.DIHEDRAL.0>
5.46719

>  <SCORE.INTRA.POLAR>
0.256488

>  <SCORE.INTRA.POLAR.0>
-0.325193

>  <SCORE.INTRA.REPUL>
0

>  <SCORE.INTRA.REPUL.0>
0

>  <SCORE.INTRA.SOLV>
0.0186161

>  <SCORE.INTRA.SOLV.lig_0>
-19.7974

>  <SCORE.INTRA.VDW>
-0.0188381

>  <SCORE.INTRA.VDW.0>
2.46297

>  <SCORE.INTRA.norm>
-0.102043

>  <SCORE.RESTR>
0.575395

>  <SCORE.RESTR.CAVITY>
0.575395

>  <SCORE.RESTR.norm>
0.0523086

>  <SCORE.SYSTEM>
-19.4164

>  <SCORE.SYSTEM.CONST>
0

>  <SCORE.SYSTEM.DIHEDRAL>
4.81371

>  <SCORE.SYSTEM.POLAR>
-2.6701

>  <SCORE.SYSTEM.SOLV>
0.660226

>  <SCORE.SYSTEM.VDW>
-5.86857

>  <SCORE.SYSTEM.norm>
-1.76513

>  <SCORE.heavy>
11

>  <SCORE.norm>
-4.09827

$$$$
P24240664
 OpenBabel12072022103D
libRbt.so/2013.1/901 2013/11/27
 15 14  0  0  0  0  0  0  0  0999 V2000
   21.3741  -14.7263    4.2033 C   0  0  0  0  0  0  0  0  0  0  0  0
   21.3877  -16.2390    4.2131 C   0  0  0  0  0  0  0  0  0  0  0  0
   22.3496  -16.9610    4.7198 N   0  0  0  0  0  0  0  0  0  0  0  0
   23.4164  -16.3155    5.2792 N   0  0  0  0  0  0  0  0  0  0  0  0
   24.7086  -16.5678    4.8930 C   0  0  0  0  0  0  0  0  0  0  0  0
   25.6700  -15.9745    5.3650 O   0  0  0  0  0  0  0  0  0  0  0  0
   24.8383  -17.5270    3.9436 N   0  0  0  0  0  0  0  0  0  0  0  0
   20.1820  -16.9952    3.5999 C   0  0  0  0  0  0  0  0  0  0  0  0
   20.6439  -17.9251    2.4822 C   0  0  0  0  0  0  0  0  0  0  0  0
   19.4104  -17.7481    4.6793 C   0  0  0  0  0  0  0  0  0  0  0  0
   19.2676  -16.0597    3.0194 O   0  0  0  0  0  0  0  0  0  0  0  0
   23.3013  -15.5951    5.9814 H   0  0  0  0  0  0  0  0  0  0  0  0
   24.2425  -18.3336    4.0695 H   0  0  0  0  0  0  0  0  0  0  0  0
   25.0562  -17.2170    3.0085 H   0  0  0  0  0  0  0  0  0  0  0  0
   18.9883  -15.4712    3.7485 H   0  0  0  0  0  0  0  0  0  0  0  0
  1  2  1  0  0  0  0
  2  3  2  0  0  0  0
  2  8  1  0  0  0  0
  3  4  1  0  0  0  0
  4  5  1  0  0  0  0
  4 12  1  0  0  0  0
  5  6  2  0  0  0  0
  5  7  1  0  0  0  0
  7 13  1  0  0  0  0
  7 14  1  0  0  0  0
  8  9  1  0  0  0  0
  8 10  1  0  0  0  0
  8 11  1  0  0  0  0
 11 15  1  0  0  0  0
M  END
>  <CHROM.0>
-47.23966071,-58.47730085,-54.28993941,177.97751274,-54.86639712,-60.96160445
-59.48772329,-51.45270355,-167.99387847,161.78274891

>  <CHROM.1>
122.29565718,-125.64396999,-41.31351869,-59.52009705,22.11132262,-16.62926761
4.20795707,2.97923315,0.21892155,-2.72827041

>  <Name>
P24240664

>  <RI>
0

>  <Rbt.Current_Directory>
/home/fstefaniak/projects/zuza/docking/adenine/1Y26

>  <Rbt.Executable>
rbdock ($Id: //depot/dev/client3/rdock/2013.1/src/exe/rbdock.cxx#4 $)

>  <Rbt.Library>
libRbt.so (2013.1, Build901 2013/11/27)

>  <Rbt.Parameter_File>
/home/fstefaniak/progs/rDock//data/scripts/dock_solv.prm

>  <Rbt.Receptor>
1y26.prm

>  <SCORE>
-44.9446

>  <SCORE.INTER>
-25.3183

>  <SCORE.INTER.CONST>
1

>  <SCORE.INTER.POLAR>
-4.28722

>  <SCORE.INTER.ROT>
3

>  <SCORE.INTER.SOLV>
17.1969

>  <SCORE.INTER.VDW>
-13.9204

>  <SCORE.INTER.norm>
-2.30166

>  <SCORE.INTRA>
0.338222

>  <SCORE.INTRA.DIHEDRAL>
-0.140698

>  <SCORE.INTRA.DIHEDRAL.0>
5.46719

>  <SCORE.INTRA.POLAR>
0.325193

>  <SCORE.INTRA.POLAR.0>
-0.325193

>  <SCORE.INTRA.REPUL>
0

>  <SCORE.INTRA.REPUL.0>
0

>  <SCORE.INTRA.SOLV>
0.243251

>  <SCORE.INTRA.SOLV.lig_0>
-19.7974

>  <SCORE.INTRA.VDW>
-0.818709

>  <SCORE.INTRA.VDW.0>
2.46297

>  <SCORE.INTRA.norm>
0.0307475

>  <SCORE.RESTR>
0

>  <SCORE.RESTR.CAVITY>
0

>  <SCORE.RESTR.norm>
0

>  <SCORE.SYSTEM>
-19.9646

>  <SCORE.SYSTEM.CONST>
0

>  <SCORE.SYSTEM.DIHEDRAL>
5.53611

>  <SCORE.SYSTEM.POLAR>
-2.92759

>  <SCORE.SYSTEM.SOLV>
0.479181

>  <SCORE.SYSTEM.VDW>
-5.5562

>  <SCORE.SYSTEM.norm>
-1.81496

>  <SCORE.heavy>
11

>  <SCORE.norm>
-4.08588

$$$$
P24243466
 OpenBabel12072022103D
libRbt.so/2013.1/901 2013/11/27
 14 14  0  0  0  0  0  0  0  0999 V2000
   20.0465  -15.6005    4.0768 C   0  0  0  0  0  0  0  0  0  0  0  0
   21.5026  -15.6871    3.6358 C   0  0  0  0  0  0  0  0  0  0  0  0
   22.0624  -17.0943    3.8281 C   0  0  0  0  0  0  0  0  0  0  0  0
   21.1989  -18.1645    3.1514 C   0  0  1  0  0  0  0  0  0  0  0  0
   19.7085  -18.0616    3.5095 C   0  0  2  0  0  0  0  0  0  0  0  0
   19.1806  -16.6265    3.3497 C   0  0  0  0  0  0  0  0  0  0  0  0
   19.4355  -18.6222    4.8997 C   0  0  0  0  0  0  0  0  0  0  0  0
   20.1139  -18.3720    5.8946 O   0  0  0  0  0  0  0  0  0  0  0  0
   18.3537  -19.4705    4.9693 N   0  0  0  0  0  0  0  0  0  0  0  0
   17.2483  -18.9835    5.7064 O   0  0  0  0  0  0  0  0  0  0  0  0
   21.3183  -18.0281    1.7296 O   0  0  0  0  0  0  0  0  0  0  0  0
   18.4493  -20.4795    4.9172 H   0  0  0  0  0  0  0  0  0  0  0  0
   17.3331  -19.4677    6.5577 H   0  0  0  0  0  0  0  0  0  0  0  0
   20.8566  -18.7843    1.3260 H   0  0  0  0  0  0  0  0  0  0  0  0
  1  2  1  0  0  0  0
  1  6  1  0  0  0  0
  2  3  1  0  0  0  0
  3  4  1  0  0  0  0
  4  5  1  0  0  0  0
  4 11  1  6  0  0  0
  5  6  1  0  0  0  0
  5  7  1  1  0  0  0
  7  8  2  0  0  0  0
  7  9  1  0  0  0  0
  9 10  1  0  0  0  0
  9 12  1  0  0  0  0
 10 13  1  0  0  0  0
 11 14  1  0  0  0  0
M  END
>  <CHROM.0>
-58.52012672,-176.17523291,-59.44199456,-52.09915288,-53.49941159,179.62308897
-58.69529230,63.01852416,-168.54226851,160.35286488

>  <CHROM.1>
172.84872280,45.72933798,-112.24213345,-102.28762214,19.97887352,-17.74779198
4.08469431,0.24497878,0.77195157,0.39598296

>  <Name>
P24243466

>  <RI>
0

>  <Rbt.Current_Directory>
/home/fstefaniak/projects/zuza/docking/adenine/1Y26

>  <Rbt.Executable>
rbdock ($Id: //depot/dev/client3/rdock/2013.1/src/exe/rbdock.cxx#4 $)

>  <Rbt.Library>
libRbt.so (2013.1, Build901 2013/11/27)

>  <Rbt.Parameter_File>
/home/fstefaniak/progs/rDock//data/scripts/dock_solv.prm

>  <Rbt.Receptor>
1y26.prm

>  <SCORE>
-47.5497

>  <SCORE.INTER>
-25.8218

>  <SCORE.INTER.CONST>
1

>  <SCORE.INTER.POLAR>
-5.52497

>  <SCORE.INTER.ROT>
2

>  <SCORE.INTER.SOLV>
15.0657

>  <SCORE.INTER.VDW>
-8.7532

>  <SCORE.INTER.norm>
-2.34744

>  <SCORE.INTRA>
-0.463424

>  <SCORE.INTRA.DIHEDRAL>
2.68885

>  <SCORE.INTRA.DIHEDRAL.0>
1.64153

>  <SCORE.INTRA.POLAR>
0

>  <SCORE.INTRA.POLAR.0>
0

>  <SCORE.INTRA.REPUL>
0

>  <SCORE.INTRA.REPUL.0>
0

>  <SCORE.INTRA.SOLV>
-0.00310478

>  <SCORE.INTRA.SOLV.lig_0>
-18.8194

>  <SCORE.INTRA.VDW>
-1.8063

>  <SCORE.INTRA.VDW.0>
0.490446

>  <SCORE.INTRA.norm>
-0.0421295

>  <SCORE.RESTR>
0

>  <SCORE.RESTR.CAVITY>
0

>  <SCORE.RESTR.norm>
0

>  <SCORE.SYSTEM>
-21.2644

>  <SCORE.SYSTEM.CONST>
0

>  <SCORE.SYSTEM.DIHEDRAL>
4.88312

>  <SCORE.SYSTEM.POLAR>
-3.33179

>  <SCORE.SYSTEM.SOLV>
0.218766

>  <SCORE.SYSTEM.VDW>
-4.77095

>  <SCORE.SYSTEM.norm>
-1.93313

>  <SCORE.heavy>
11

>  <SCORE.norm>
-4.3227

$$$$
P24243466
 OpenBabel12072022103D
libRbt.so/2013.1/901 2013/11/27
 14 14  0  0  0  0  0  0  0  0999 V2000
   20.0235  -15.6137    4.0619 C   0  0  0  0  0  0  0  0  0  0  0  0
   21.4884  -15.6759    3.6463 C   0  0  0  0  0  0  0  0  0  0  0  0
   22.0757  -17.0665    3.8744 C   0  0  0  0  0  0  0  0  0  0  0  0
   21.2474  -18.1681    3.2041 C   0  0  1  0  0  0  0  0  0  0  0  0
   19.7494  -18.0919    3.5359 C   0  0  2  0  0  0  0  0  0  0  0  0
   19.1928  -16.6722    3.3404 C   0  0  0  0  0  0  0  0  0  0  0  0
   19.4657  -18.6325    4.9318 C   0  0  0  0  0  0  0  0  0  0  0  0
   20.1390  -18.3716    5.9274 O   0  0  0  0  0  0  0  0  0  0  0  0
   18.3800  -19.4754    5.0063 N   0  0  0  0  0  0  0  0  0  0  0  0
   17.2585  -18.9594    5.6981 O   0  0  0  0  0  0  0  0  0  0  0  0
   21.3875  -18.0555    1.7821 O   0  0  0  0  0  0  0  0  0  0  0  0
   18.4737  -20.4858    4.9934 H   0  0  0  0  0  0  0  0  0  0  0  0
   17.2844  -19.4597    6.5438 H   0  0  0  0  0  0  0  0  0  0  0  0
   20.8888  -18.7900    1.3826 H   0  0  0  0  0  0  0  0  0  0  0  0
  1  2  1  0  0  0  0
  1  6  1  0  0  0  0
  2  3  1  0  0  0  0
  3  4  1  0  0  0  0
  4  5  1  0  0  0  0
  4 11  1  6  0  0  0
  5  6  1  0  0  0  0
  5  7  1  1  0  0  0
  7  8  2  0  0  0  0
  7  9  1  0  0  0  0
  9 10  1  0  0  0  0
  9 12  1  0  0  0  0
 10 13  1  0  0  0  0
 11 14  1  0  0  0  0
M  END
>  <CHROM.0>
-43.14765686,-169.64419326,-48.85138465,-47.08650716,-51.51376278,-49.22887198
-38.13633379,-48.86207847,-163.11202007,160.83983865

>  <CHROM.1>
177.30606070,44.08248357,-110.55813047,-106.17060449,20.00030733,-17.75383852
4.10819981,0.28654152,0.75537192,0.33276900

>  <Name>
P24243466

>  <RI>
0

>  <Rbt.Current_Directory>
/home/fstefaniak/projects/zuza/docking/adenine/1Y26

>  <Rbt.Executable>
rbdock ($Id: //depot/dev/client3/rdock/2013.1/src/exe/rbdock.cxx#4 $)

>  <Rbt.Library>
libRbt.so (2013.1, Build901 2013/11/27)

>  <Rbt.Parameter_File>
/home/fstefaniak/progs/rDock//data/scripts/dock_solv.prm

>  <Rbt.Receptor>
1y26.prm

>  <SCORE>
-47.0411

>  <SCORE.INTER>
-25.6097

>  <SCORE.INTER.CONST>
1

>  <SCORE.INTER.POLAR>
-5.55016

>  <SCORE.INTER.ROT>
2

>  <SCORE.INTER.SOLV>
15.0389

>  <SCORE.INTER.VDW>
-8.51891

>  <SCORE.INTER.norm>
-2.32816

>  <SCORE.INTRA>
-0.546661

>  <SCORE.INTRA.DIHEDRAL>
2.41554

>  <SCORE.INTRA.DIHEDRAL.0>
1.64153

>  <SCORE.INTRA.POLAR>
0

>  <SCORE.INTRA.POLAR.0>
0

>  <SCORE.INTRA.REPUL>
0

>  <SCORE.INTRA.REPUL.0>
0

>  <SCORE.INTRA.SOLV>
0.00453205

>  <SCORE.INTRA.SOLV.lig_0>
-18.8194

>  <SCORE.INTRA.VDW>
-1.7567

>  <SCORE.INTRA.VDW.0>
0.490446

>  <SCORE.INTRA.norm>
-0.0496964

>  <SCORE.RESTR>
0

>  <SCORE.RESTR.CAVITY>
0

>  <SCORE.RESTR.norm>
0

>  <SCORE.SYSTEM>
-20.8847

>  <SCORE.SYSTEM.CONST>
0

>  <SCORE.SYSTEM.DIHEDRAL>
11.405

>  <SCORE.SYSTEM.POLAR>
-3.95434

>  <SCORE.SYSTEM.SOLV>
0.671049

>  <SCORE.SYSTEM.VDW>
-4.76737

>  <SCORE.SYSTEM.norm>
-1.89861

>  <SCORE.heavy>
11

>  <SCORE.norm>
-4.27646

$$$$
P24243466
 OpenBabel12072022103D
libRbt.so/2013.1/901 2013/11/27
 14 14  0  0  0  0  0  0  0  0999 V2000
   20.0776  -15.6320    4.1042 C   0  0  0  0  0  0  0  0  0  0  0  0
   21.5303  -15.7248    3.6534 C   0  0  0  0  0  0  0  0  0  0  0  0
   22.0796  -17.1389    3.8245 C   0  0  0  0  0  0  0  0  0  0  0  0
   21.2033  -18.1933    3.1394 C   0  0  1  0  0  0  0  0  0  0  0  0
   19.7160  -18.0828    3.5076 C   0  0  2  0  0  0  0  0  0  0  0  0
   19.1990  -16.6415    3.3693 C   0  0  0  0  0  0  0  0  0  0  0  0
   19.4465  -18.6588    4.8921 C   0  0  0  0  0  0  0  0  0  0  0  0
   20.1319  -18.4258    5.8864 O   0  0  0  0  0  0  0  0  0  0  0  0
   18.3593  -19.5006    4.9570 N   0  0  0  0  0  0  0  0  0  0  0  0
   17.2442  -18.9964    5.6675 O   0  0  0  0  0  0  0  0  0  0  0  0
   21.3155  -18.0397    1.7187 O   0  0  0  0  0  0  0  0  0  0  0  0
   18.4504  -20.5108    4.9225 H   0  0  0  0  0  0  0  0  0  0  0  0
   17.2669  -19.5239    6.4966 H   0  0  0  0  0  0  0  0  0  0  0  0
   20.8538  -18.7921    1.3084 H   0  0  0  0  0  0  0  0  0  0  0  0
  1  2  1  0  0  0  0
  1  6  1  0  0  0  0
  2  3  1  0  0  0  0
  3  4  1  0  0  0  0
  4  5  1  0  0  0  0
  4 11  1  6  0  0  0
  5  6  1  0  0  0  0
  5  7  1  1  0  0  0
  7  8  2  0  0  0  0
  7  9  1  0  0  0  0
  9 10  1  0  0  0  0
  9 12  1  0  0  0  0
 10 13  1  0  0  0  0
 11 14  1  0  0  0  0
M  END
>  <CHROM.0>
-48.48964263,-178.00377482,-56.48991588,61.28825032,-177.64753342,-60.53097178
-61.82221978,-52.73213659,-166.45949289,161.46871999

>  <CHROM.1>
172.23315701,45.81486350,-110.17363841,-106.99414846,19.99017850,-17.77711377
4.08097184,0.23502667,0.76808482,0.41453684

>  <Name>
P24243466

>  <RI>
0

>  <Rbt.Current_Directory>
/home/fstefaniak/projects/zuza/docking/adenine/1Y26

>  <Rbt.Executable>
rbdock ($Id: //depot/dev/client3/rdock/2013.1/src/exe/rbdock.cxx#4 $)

>  <Rbt.Library>
libRbt.so (2013.1, Build901 2013/11/27)

>  <Rbt.Parameter_File>
/home/fstefaniak/progs/rDock//data/scripts/dock_solv.prm

>  <Rbt.Receptor>
1y26.prm

>  <SCORE>
-45.9655

>  <SCORE.INTER>
-25.9264

>  <SCORE.INTER.CONST>
1

>  <SCORE.INTER.POLAR>
-5.54296

>  <SCORE.INTER.ROT>
2

>  <SCORE.INTER.SOLV>
15.1434

>  <SCORE.INTER.VDW>
-8.78888

>  <SCORE.INTER.norm>
-2.35695

>  <SCORE.INTRA>
-0.412194

>  <SCORE.INTRA.DIHEDRAL>
2.79984

>  <SCORE.INTRA.DIHEDRAL.0>
1.64153

>  <SCORE.INTRA.POLAR>
0

>  <SCORE.INTRA.POLAR.0>
0

>  <SCORE.INTRA.REPUL>
0

>  <SCORE.INTRA.REPUL.0>
0

>  <SCORE.INTRA.SOLV>
0.00155365

>  <SCORE.INTRA.SOLV.lig_0>
-18.8194

>  <SCORE.INTRA.VDW>
-1.81289

>  <SCORE.INTRA.VDW.0>
0.490446

>  <SCORE.INTRA.norm>
-0.0374722

>  <SCORE.RESTR>
0

>  <SCORE.RESTR.CAVITY>
0

>  <SCORE.RESTR.norm>
0

>  <SCORE.SYSTEM>
-19.6269

>  <SCORE.SYSTEM.CONST>
0

>  <SCORE.SYSTEM.DIHEDRAL>
5.3401

>  <SCORE.SYSTEM.POLAR>
-2.9134

>  <SCORE.SYSTEM.SOLV>
0.372284

>  <SCORE.SYSTEM.VDW>
-5.27741

>  <SCORE.SYSTEM.norm>
-1.78427

>  <SCORE.heavy>
11

>  <SCORE.norm>
-4.17869

$$$$
P24318520
 OpenBabel12072022103D
libRbt.so/2013.1/901 2013/11/27
 12 11  0  0  0  0  0  0  0  0999 V2000
   20.4144  -18.1043    3.6769 C   0  0  0  0  0  0  0  0  0  0  0  0
   21.0285  -17.1073    4.6453 C   0  0  0  0  0  0  0  0  0  0  0  0
   20.8764  -15.4495    4.0127 Cl  0  0  0  0  0  0  0  0  0  0  0  0
   18.9533  -17.7898    3.4477 C   0  0  0  0  0  0  0  0  0  0  0  0
   18.5584  -17.1211    2.4913 O   0  0  0  0  0  0  0  0  0  0  0  0
   18.0280  -18.2603    4.3505 N   0  0  0  0  0  0  0  0  0  0  0  0
   18.2372  -18.8247    5.5821 C   0  0  0  0  0  0  0  0  0  0  0  0
   19.3144  -19.0723    6.1013 O   0  0  0  0  0  0  0  0  0  0  0  0
   17.0734  -19.1071    6.2336 N   0  0  0  0  0  0  0  0  0  0  0  0
   17.0897  -17.9526    4.1507 H   0  0  0  0  0  0  0  0  0  0  0  0
   17.0060  -19.9722    6.7516 H   0  0  0  0  0  0  0  0  0  0  0  0
   16.6805  -18.3037    6.7128 H   0  0  0  0  0  0  0  0  0  0  0  0
  1  2  1  0  0  0  0
  1  4  1  0  0  0  0
  2  3  1  0  0  0  0
  4  5  2  0  0  0  0
  4  6  1  0  0  0  0
  6  7  1  0  0  0  0
  6 10  1  0  0  0  0
  7  8  2  0  0  0  0
  7  9  1  0  0  0  0
  9 11  1  0  0  0  0
  9 12  1  0  0  0  0
M  END
>  <CHROM.0>
-51.01474009,47.84538593,-56.38141754,-52.52200047,-56.78315836,-177.04323796
-62.19977913,-50.10679246,-167.84049175,160.90435303

>  <CHROM.1>
-58.94185264,95.73464361,139.77238575,19.37318147,-17.53769181,4.45611504
0.75211573,-0.54656234,-1.06882668

>  <Name>
P24318520

>  <RI>
0

>  <Rbt.Current_Directory>
/home/fstefaniak/projects/zuza/docking/adenine/1Y26

>  <Rbt.Executable>
rbdock ($Id: //depot/dev/client3/rdock/2013.1/src/exe/rbdock.cxx#4 $)

>  <Rbt.Library>
libRbt.so (2013.1, Build901 2013/11/27)

>  <Rbt.Parameter_File>
/home/fstefaniak/progs/rDock//data/scripts/dock_solv.prm

>  <Rbt.Receptor>
1y26.prm

>  <SCORE>
-53.9198

>  <SCORE.INTER>
-32.0516

>  <SCORE.INTER.CONST>
1

>  <SCORE.INTER.POLAR>
-4.74024

>  <SCORE.INTER.ROT>
3

>  <SCORE.INTER.SOLV>
12.5365

>  <SCORE.INTER.VDW>
-15.3458

>  <SCORE.INTER.norm>
-3.56129

>  <SCORE.INTRA>
-0.508029

>  <SCORE.INTRA.DIHEDRAL>
0.546076

>  <SCORE.INTRA.DIHEDRAL.0>
1.59869

>  <SCORE.INTRA.POLAR>
0

>  <SCORE.INTRA.POLAR.0>
0

>  <SCORE.INTRA.REPUL>
0

>  <SCORE.INTRA.REPUL.0>
0

>  <SCORE.INTRA.SOLV>
0.638798

>  <SCORE.INTRA.SOLV.lig_0>
-18.6713

>  <SCORE.INTRA.VDW>
-1.10047

>  <SCORE.INTRA.VDW.0>
0.262432

>  <SCORE.INTRA.norm>
-0.0564476

>  <SCORE.RESTR>
0

>  <SCORE.RESTR.CAVITY>
0

>  <SCORE.RESTR.norm>
0

>  <SCORE.SYSTEM>
-21.3601

>  <SCORE.SYSTEM.CONST>
0

>  <SCORE.SYSTEM.DIHEDRAL>
6.20691

>  <SCORE.SYSTEM.POLAR>
-3.51406

>  <SCORE.SYSTEM.SOLV>
0.597696

>  <SCORE.SYSTEM.VDW>
-4.79471

>  <SCORE.SYSTEM.norm>
-2.37334

>  <SCORE.heavy>
9

>  <SCORE.norm>
-5.99108

$$$$
P24318520
 OpenBabel12072022103D
libRbt.so/2013.1/901 2013/11/27
 12 11  0  0  0  0  0  0  0  0999 V2000
   20.5288  -17.7353    3.7246 C   0  0  0  0  0  0  0  0  0  0  0  0
   21.1389  -16.3788    4.0356 C   0  0  0  0  0  0  0  0  0  0  0  0
   22.9042  -16.5181    4.2246 Cl  0  0  0  0  0  0  0  0  0  0  0  0
   19.0590  -17.5936    3.3994 C   0  0  0  0  0  0  0  0  0  0  0  0
   18.6526  -16.9948    2.4023 O   0  0  0  0  0  0  0  0  0  0  0  0
   18.1373  -18.1463    4.2582 N   0  0  0  0  0  0  0  0  0  0  0  0
   18.3307  -18.6565    5.5158 C   0  0  0  0  0  0  0  0  0  0  0  0
   19.3941  -18.7690    6.1054 O   0  0  0  0  0  0  0  0  0  0  0  0
   17.1672  -19.0549    6.1042 N   0  0  0  0  0  0  0  0  0  0  0  0
   17.1849  -17.9514    3.9939 H   0  0  0  0  0  0  0  0  0  0  0  0
   17.1401  -19.9545    6.5638 H   0  0  0  0  0  0  0  0  0  0  0  0
   16.7061  -18.3114    6.6180 H   0  0  0  0  0  0  0  0  0  0  0  0
  1  2  1  0  0  0  0
  1  4  1  0  0  0  0
  2  3  1  0  0  0  0
  4  5  2  0  0  0  0
  4  6  1  0  0  0  0
  6  7  1  0  0  0  0
  6 10  1  0  0  0  0
  7  8  2  0  0  0  0
  7  9  1  0  0  0  0
  9 11  1  0  0  0  0
  9 12  1  0  0  0  0
M  END
>  <CHROM.0>
-47.51886959,-175.80147816,-54.31623879,-51.24301140,-55.88948258,61.25684243
-47.36647115,-51.17454294,-164.81944358,163.44086017

>  <CHROM.1>
-173.16428738,65.63309919,133.77943611,19.92653197,-17.59682788,4.41193634
0.40385624,-0.28836361,-1.12772009

>  <Name>
P24318520

>  <RI>
0

>  <Rbt.Current_Directory>
/home/fstefaniak/projects/zuza/docking/adenine/1Y26

>  <Rbt.Executable>
rbdock ($Id: //depot/dev/client3/rdock/2013.1/src/exe/rbdock.cxx#4 $)

>  <Rbt.Library>
libRbt.so (2013.1, Build901 2013/11/27)

>  <Rbt.Parameter_File>
/home/fstefaniak/progs/rDock//data/scripts/dock_solv.prm

>  <Rbt.Receptor>
1y26.prm

>  <SCORE>
-52.2613

>  <SCORE.INTER>
-31.1969

>  <SCORE.INTER.CONST>
1

>  <SCORE.INTER.POLAR>
-4.50001

>  <SCORE.INTER.ROT>
3

>  <SCORE.INTER.SOLV>
12.4863

>  <SCORE.INTER.VDW>
-15.56

>  <SCORE.INTER.norm>
-3.46632

>  <SCORE.INTRA>
0.00344718

>  <SCORE.INTRA.DIHEDRAL>
1.76403

>  <SCORE.INTRA.DIHEDRAL.0>
1.59869

>  <SCORE.INTRA.POLAR>
0

>  <SCORE.INTRA.POLAR.0>
0

>  <SCORE.INTRA.REPUL>
0

>  <SCORE.INTRA.REPUL.0>
0

>  <SCORE.INTRA.SOLV>
0.119704

>  <SCORE.INTRA.SOLV.lig_0>
-18.6713

>  <SCORE.INTRA.VDW>
-0.938418

>  <SCORE.INTRA.VDW.0>
0.262432

>  <SCORE.INTRA.norm>
0.00038302

>  <SCORE.RESTR>
0

>  <SCORE.RESTR.CAVITY>
0

>  <SCORE.RESTR.norm>
0

>  <SCORE.SYSTEM>
-21.0679

>  <SCORE.SYSTEM.CONST>
0

>  <SCORE.SYSTEM.DIHEDRAL>
6.7639

>  <SCORE.SYSTEM.POLAR>
-3.53311

>  <SCORE.SYSTEM.SOLV>
0.476537

>  <SCORE.SYSTEM.VDW>
-4.68169

>  <SCORE.SYSTEM.norm>
-2.34088

>  <SCORE.heavy>
9

>  <SCORE.norm>
-5.80681

$$$$
P24318520
 OpenBabel12072022103D
libRbt.so/2013.1/901 2013/11/27
 12 11  0  0  0  0  0  0  0  0999 V2000
   20.5176  -17.7363    3.7711 C   0  0  0  0  0  0  0  0  0  0  0  0
   21.0730  -16.4192    4.2866 C   0  0  0  0  0  0  0  0  0  0  0  0
   22.8452  -16.5069    4.4383 Cl  0  0  0  0  0  0  0  0  0  0  0  0
   19.0492  -17.5985    3.4383 C   0  0  0  0  0  0  0  0  0  0  0  0
   18.6464  -17.0025    2.4381 O   0  0  0  0  0  0  0  0  0  0  0  0
   18.1245  -18.1518    4.2935 N   0  0  0  0  0  0  0  0  0  0  0  0
   18.3126  -18.6594    5.5529 C   0  0  0  0  0  0  0  0  0  0  0  0
   19.3733  -18.7684    6.1481 O   0  0  0  0  0  0  0  0  0  0  0  0
   17.1471  -19.0594    6.1361 N   0  0  0  0  0  0  0  0  0  0  0  0
   17.1729  -17.9596    4.0240 H   0  0  0  0  0  0  0  0  0  0  0  0
   17.1173  -19.9621    6.5895 H   0  0  0  0  0  0  0  0  0  0  0  0
   16.6865  -18.3184    6.6542 H   0  0  0  0  0  0  0  0  0  0  0  0
  1  2  1  0  0  0  0
  1  4  1  0  0  0  0
  2  3  1  0  0  0  0
  4  5  2  0  0  0  0
  4  6  1  0  0  0  0
  6  7  1  0  0  0  0
  6 10  1  0  0  0  0
  7  8  2  0  0  0  0
  7  9  1  0  0  0  0
  9 11  1  0  0  0  0
  9 12  1  0  0  0  0
M  END
>  <CHROM.0>
-47.05910657,-61.04703645,-64.21862358,-50.65578642,-56.04002399,-60.66767312
-169.58858943,-52.48659399,-166.37371404,162.13198216

>  <CHROM.1>
-171.22816020,74.25404765,133.19563638,19.89693516,-17.60049221,4.51122986
0.36512854,-0.31131537,-1.14129112

>  <Name>
P24318520

>  <RI>
0

>  <Rbt.Current_Directory>
/home/fstefaniak/projects/zuza/docking/adenine/1Y26

>  <Rbt.Executable>
rbdock ($Id: //depot/dev/client3/rdock/2013.1/src/exe/rbdock.cxx#4 $)

>  <Rbt.Library>
libRbt.so (2013.1, Build901 2013/11/27)

>  <Rbt.Parameter_File>
/home/fstefaniak/progs/rDock//data/scripts/dock_solv.prm

>  <Rbt.Receptor>
1y26.prm

>  <SCORE>
-52.2027

>  <SCORE.INTER>
-30.7946

>  <SCORE.INTER.CONST>
1

>  <SCORE.INTER.POLAR>
-4.49149

>  <SCORE.INTER.ROT>
3

>  <SCORE.INTER.SOLV>
12.4974

>  <SCORE.INTER.VDW>
-15.3239

>  <SCORE.INTER.norm>
-3.42162

>  <SCORE.INTRA>
-0.142957

>  <SCORE.INTRA.DIHEDRAL>
1.68363

>  <SCORE.INTRA.DIHEDRAL.0>
1.59869

>  <SCORE.INTRA.POLAR>
0

>  <SCORE.INTRA.POLAR.0>
0

>  <SCORE.INTRA.REPUL>
0

>  <SCORE.INTRA.REPUL.0>
0

>  <SCORE.INTRA.SOLV>
0.15916

>  <SCORE.INTRA.SOLV.lig_0>
-18.6713

>  <SCORE.INTRA.VDW>
-1.06435

>  <SCORE.INTRA.VDW.0>
0.262432

>  <SCORE.INTRA.norm>
-0.0158842

>  <SCORE.RESTR>
0

>  <SCORE.RESTR.CAVITY>
0

>  <SCORE.RESTR.norm>
0

>  <SCORE.SYSTEM>
-21.2652

>  <SCORE.SYSTEM.CONST>
0

>  <SCORE.SYSTEM.DIHEDRAL>
6.36694

>  <SCORE.SYSTEM.POLAR>
-3.47368

>  <SCORE.SYSTEM.SOLV>
0.610855

>  <SCORE.SYSTEM.VDW>
-4.92377

>  <SCORE.SYSTEM.norm>
-2.3628

>  <SCORE.heavy>
9

>  <SCORE.norm>
-5.8003

$$$$
P25485764
 OpenBabel12072022103D
libRbt.so/2013.1/901 2013/11/27
 16 16  0  0  0  0  0  0  0  0999 V2000
   20.2004  -17.9839    5.5102 C   0  0  0  0  0  0  0  0  0  0  0  0
   20.7218  -17.1264    4.3380 C   0  0  1  0  0  0  0  0  0  0  0  0
   19.6688  -17.2637    3.2264 C   0  0  2  0  0  0  0  0  0  0  0  0
   19.1603  -18.6837    3.4380 C   0  0  1  0  0  0  0  0  0  0  0  0
   18.9741  -18.7001    4.9508 C   0  0  1  0  0  0  0  0  0  0  0  0
   18.8352  -20.0905    5.4353 N   0  3  0  0  0  0  0  0  0  0  0  0
   18.8800  -20.0747    6.4676 H   0  0  0  0  0  0  0  0  0  0  0  0
   17.9332  -20.5163    5.1869 H   0  0  0  0  0  0  0  0  0  0  0  0
   19.5905  -20.7026    5.1042 H   0  0  0  0  0  0  0  0  0  0  0  0
   17.9309  -18.9622    2.7914 O   0  0  0  0  0  0  0  0  0  0  0  0
   20.2362  -17.1415    1.9368 O   0  0  0  0  0  0  0  0  0  0  0  0
   20.9967  -15.6700    4.6918 C   0  0  0  0  0  0  0  0  0  0  0  0
   21.6600  -15.0686    3.5884 O   0  0  0  0  0  0  0  0  0  0  0  0
   17.3116  -18.2519    3.0679 H   0  0  0  0  0  0  0  0  0  0  0  0
   20.8449  -17.9063    1.8300 H   0  0  0  0  0  0  0  0  0  0  0  0
   20.9864  -14.8853    2.9053 H   0  0  0  0  0  0  0  0  0  0  0  0
  1  2  1  0  0  0  0
  1  5  1  0  0  0  0
  2 12  1  1  0  0  0
  2  3  1  0  0  0  0
  3 11  1  6  0  0  0
  3  4  1  0  0  0  0
  4 10  1  6  0  0  0
  4  5  1  0  0  0  0
  5  6  1  1  0  0  0
  6  7  1  0  0  0  0
  6  8  1  0  0  0  0
  6  9  1  0  0  0  0
 10 14  1  0  0  0  0
 11 15  1  0  0  0  0
 12 13  1  0  0  0  0
 13 16  1  0  0  0  0
M  CHG  1   6   1
M  END
>  <CHROM.0>
-48.05926722,-62.85993518,-56.55353385,-53.10142970,-176.38833802,-60.24502224
-55.87028223,-53.72111773,-166.64338739,159.22274509

>  <CHROM.1>
171.02133778,64.58690021,-52.14670888,52.58552284,77.25378983,19.82466912
-17.67984148,3.94610175,-2.66365992,-0.89104740,-1.18928659

>  <Name>
P25485764

>  <RI>
0

>  <Rbt.Current_Directory>
/home/fstefaniak/projects/zuza/docking/adenine/1Y26

>  <Rbt.Executable>
rbdock ($Id: //depot/dev/client3/rdock/2013.1/src/exe/rbdock.cxx#4 $)

>  <Rbt.Library>
libRbt.so (2013.1, Build901 2013/11/27)

>  <Rbt.Parameter_File>
/home/fstefaniak/progs/rDock//data/scripts/dock_solv.prm

>  <Rbt.Receptor>
1y26.prm

>  <SCORE>
-57.8583

>  <SCORE.INTER>
-38.6725

>  <SCORE.INTER.CONST>
1

>  <SCORE.INTER.POLAR>
-5.53603

>  <SCORE.INTER.ROT>
1

>  <SCORE.INTER.SOLV>
23.5978

>  <SCORE.INTER.VDW>
-19.4608

>  <SCORE.INTER.norm>
-3.86725

>  <SCORE.INTRA>
2.95684

>  <SCORE.INTRA.DIHEDRAL>
1.21097

>  <SCORE.INTRA.DIHEDRAL.0>
1.32533

>  <SCORE.INTRA.POLAR>
0.643856

>  <SCORE.INTRA.POLAR.0>
-0.643856

>  <SCORE.INTRA.REPUL>
0

>  <SCORE.INTRA.REPUL.0>
0

>  <SCORE.INTRA.SOLV>
-0.210972

>  <SCORE.INTRA.SOLV.lig_0>
-36.5831

>  <SCORE.INTRA.VDW>
0.267728

>  <SCORE.INTRA.VDW.0>
-0.507159

>  <SCORE.INTRA.norm>
0.295684

>  <SCORE.RESTR>
0

>  <SCORE.RESTR.CAVITY>
0

>  <SCORE.RESTR.norm>
0

>  <SCORE.SYSTEM>
-22.1427

>  <SCORE.SYSTEM.CONST>
0

>  <SCORE.SYSTEM.DIHEDRAL>
5.9562

>  <SCORE.SYSTEM.POLAR>
-3.50584

>  <SCORE.SYSTEM.SOLV>
0.50111

>  <SCORE.SYSTEM.VDW>
-5.22811

>  <SCORE.SYSTEM.norm>
-2.21427

>  <SCORE.heavy>
10

>  <SCORE.norm>
-5.78583

$$$$
P25485764
 OpenBabel12072022103D
libRbt.so/2013.1/901 2013/11/27
 16 16  0  0  0  0  0  0  0  0999 V2000
   20.2171  -17.9553    5.5455 C   0  0  0  0  0  0  0  0  0  0  0  0
   20.7251  -17.0996    4.3661 C   0  0  1  0  0  0  0  0  0  0  0  0
   19.6752  -17.2638    3.2552 C   0  0  2  0  0  0  0  0  0  0  0  0
   19.1900  -18.6901    3.4789 C   0  0  1  0  0  0  0  0  0  0  0  0
   19.0031  -18.6964    4.9917 C   0  0  1  0  0  0  0  0  0  0  0  0
   18.8867  -20.0846    5.4882 N   0  3  0  0  0  0  0  0  0  0  0  0
   17.9787  -20.4620    5.1707 H   0  0  0  0  0  0  0  0  0  0  0  0
   19.6118  -20.7094    5.1133 H   0  0  0  0  0  0  0  0  0  0  0  0
   18.9015  -20.1411    6.5136 H   0  0  0  0  0  0  0  0  0  0  0  0
   17.9657  -18.9944    2.8342 O   0  0  0  0  0  0  0  0  0  0  0  0
   20.2414  -17.1435    1.9649 O   0  0  0  0  0  0  0  0  0  0  0  0
   20.9759  -15.6359    4.7073 C   0  0  0  0  0  0  0  0  0  0  0  0
   21.6537  -15.0399    3.6099 O   0  0  0  0  0  0  0  0  0  0  0  0
   17.3230  -18.3166    3.1379 H   0  0  0  0  0  0  0  0  0  0  0  0
   20.9090  -17.8615    1.8889 H   0  0  0  0  0  0  0  0  0  0  0  0
   20.9878  -14.8520    2.9206 H   0  0  0  0  0  0  0  0  0  0  0  0
  1  2  1  0  0  0  0
  1  5  1  0  0  0  0
  2 12  1  1  0  0  0
  2  3  1  0  0  0  0
  3 11  1  6  0  0  0
  3  4  1  0  0  0  0
  4 10  1  6  0  0  0
  4  5  1  0  0  0  0
  5  6  1  1  0  0  0
  6  7  1  0  0  0  0
  6  8  1  0  0  0  0
  6  9  1  0  0  0  0
 10 14  1  0  0  0  0
 11 15  1  0  0  0  0
 12 13  1  0  0  0  0
 13 16  1  0  0  0  0
M  CHG  1   6   1
M  END
>  <CHROM.0>
-45.43642020,-60.45817820,-52.50495720,-48.25467271,-171.82700414,-48.77443745
-51.47882790,63.01949724,-165.55364671,162.34759763

>  <CHROM.1>
169.87830248,60.68151855,-54.78129843,172.31042114,78.67392002,19.83991726
-17.67187569,3.97934061,-2.65996918,-0.90434073,-1.19285474

>  <Name>
P25485764

>  <RI>
0

>  <Rbt.Current_Directory>
/home/fstefaniak/projects/zuza/docking/adenine/1Y26

>  <Rbt.Executable>
rbdock ($Id: //depot/dev/client3/rdock/2013.1/src/exe/rbdock.cxx#4 $)

>  <Rbt.Library>
libRbt.so (2013.1, Build901 2013/11/27)

>  <Rbt.Parameter_File>
/home/fstefaniak/progs/rDock//data/scripts/dock_solv.prm

>  <Rbt.Receptor>
1y26.prm

>  <SCORE>
-56.146

>  <SCORE.INTER>
-38.2846

>  <SCORE.INTER.CONST>
1

>  <SCORE.INTER.POLAR>
-5.48521

>  <SCORE.INTER.ROT>
1

>  <SCORE.INTER.SOLV>
23.6099

>  <SCORE.INTER.VDW>
-19.3757

>  <SCORE.INTER.norm>
-3.82846

>  <SCORE.INTRA>
2.91342

>  <SCORE.INTRA.DIHEDRAL>
1.25827

>  <SCORE.INTRA.DIHEDRAL.0>
1.32533

>  <SCORE.INTRA.POLAR>
0.643856

>  <SCORE.INTRA.POLAR.0>
-0.643856

>  <SCORE.INTRA.REPUL>
0

>  <SCORE.INTRA.REPUL.0>
0

>  <SCORE.INTRA.SOLV>
-0.125207

>  <SCORE.INTRA.SOLV.lig_0>
-36.5831

>  <SCORE.INTRA.VDW>
0.15778

>  <SCORE.INTRA.VDW.0>
-0.507159

>  <SCORE.INTRA.norm>
0.291342

>  <SCORE.RESTR>
0

>  <SCORE.RESTR.CAVITY>
0

>  <SCORE.RESTR.norm>
0

>  <SCORE.SYSTEM>
-20.7747

>  <SCORE.SYSTEM.CONST>
0

>  <SCORE.SYSTEM.DIHEDRAL>
7.42468

>  <SCORE.SYSTEM.POLAR>
-3.6551

>  <SCORE.SYSTEM.SOLV>
0.31429

>  <SCORE.SYSTEM.VDW>
-4.24583

>  <SCORE.SYSTEM.norm>
-2.07747

>  <SCORE.heavy>
10

>  <SCORE.norm>
-5.6146

$$$$
P25485764
 OpenBabel12072022103D
libRbt.so/2013.1/901 2013/11/27
 16 16  0  0  0  0  0  0  0  0999 V2000
   19.9934  -17.5175    5.4968 C   0  0  0  0  0  0  0  0  0  0  0  0
   18.7769  -18.2707    4.9188 C   0  0  1  0  0  0  0  0  0  0  0  0
   19.1262  -18.5510    3.4482 C   0  0  2  0  0  0  0  0  0  0  0  0
   19.9729  -17.3392    3.0816 C   0  0  1  0  0  0  0  0  0  0  0  0
   20.8942  -17.2550    4.2930 C   0  0  1  0  0  0  0  0  0  0  0  0
   21.5634  -15.9369    4.3377 N   0  3  0  0  0  0  0  0  0  0  0  0
   20.8557  -15.2126    4.1319 H   0  0  0  0  0  0  0  0  0  0  0  0
   21.9525  -15.7129    5.2624 H   0  0  0  0  0  0  0  0  0  0  0  0
   22.3083  -15.8468    3.6365 H   0  0  0  0  0  0  0  0  0  0  0  0
   20.7352  -17.5005    1.8984 O   0  0  0  0  0  0  0  0  0  0  0  0
   17.9757  -18.6019    2.6275 O   0  0  0  0  0  0  0  0  0  0  0  0
   18.4019  -19.5410    5.6721 C   0  0  0  0  0  0  0  0  0  0  0  0
   17.0586  -19.4072    6.1155 O   0  0  0  0  0  0  0  0  0  0  0  0
   21.2608  -18.3207    2.0236 H   0  0  0  0  0  0  0  0  0  0  0  0
   18.3001  -18.6389    1.7000 H   0  0  0  0  0  0  0  0  0  0  0  0
   16.8970  -20.1067    6.7778 H   0  0  0  0  0  0  0  0  0  0  0  0
  1  2  1  0  0  0  0
  1  5  1  0  0  0  0
  2 12  1  1  0  0  0
  2  3  1  0  0  0  0
  3 11  1  6  0  0  0
  3  4  1  0  0  0  0
  4 10  1  6  0  0  0
  4  5  1  0  0  0  0
  5  6  1  1  0  0  0
  6  7  1  0  0  0  0
  6  8  1  0  0  0  0
  6  9  1  0  0  0  0
 10 14  1  0  0  0  0
 11 15  1  0  0  0  0
 12 13  1  0  0  0  0
 13 16  1  0  0  0  0
M  CHG  1   6   1
M  END
>  <CHROM.0>
-49.22649005,-60.80168992,-56.98032505,-51.33982589,179.62781721,-176.88788018
-64.56666961,-172.55082242,-166.20045962,160.79586494

>  <CHROM.1>
121.66761139,171.14091507,-54.35676234,-73.42559923,-165.99111499,19.44175174
-17.98855357,4.15932130,-0.47444829,0.65098160,1.54010391

>  <Name>
P25485764

>  <RI>
0

>  <Rbt.Current_Directory>
/home/fstefaniak/projects/zuza/docking/adenine/1Y26

>  <Rbt.Executable>
rbdock ($Id: //depot/dev/client3/rdock/2013.1/src/exe/rbdock.cxx#4 $)

>  <Rbt.Library>
libRbt.so (2013.1, Build901 2013/11/27)

>  <Rbt.Parameter_File>
/home/fstefaniak/progs/rDock//data/scripts/dock_solv.prm

>  <Rbt.Receptor>
1y26.prm

>  <SCORE>
-53.9144

>  <SCORE.INTER>
-36.747

>  <SCORE.INTER.CONST>
1

>  <SCORE.INTER.POLAR>
-5.38791

>  <SCORE.INTER.ROT>
1

>  <SCORE.INTER.SOLV>
18.2743

>  <SCORE.INTER.VDW>
-16.8964

>  <SCORE.INTER.norm>
-3.6747

>  <SCORE.INTRA>
5.14849

>  <SCORE.INTRA.DIHEDRAL>
6.17156

>  <SCORE.INTRA.DIHEDRAL.0>
1.32533

>  <SCORE.INTRA.POLAR>
0.643856

>  <SCORE.INTRA.POLAR.0>
-0.643856

>  <SCORE.INTRA.REPUL>
0

>  <SCORE.INTRA.REPUL.0>
0

>  <SCORE.INTRA.SOLV>
-0.491297

>  <SCORE.INTRA.SOLV.lig_0>
-36.5831

>  <SCORE.INTRA.VDW>
0.119243

>  <SCORE.INTRA.VDW.0>
-0.507159

>  <SCORE.INTRA.norm>
0.514849

>  <SCORE.RESTR>
0

>  <SCORE.RESTR.CAVITY>
0

>  <SCORE.RESTR.norm>
0

>  <SCORE.SYSTEM>
-22.3158

>  <SCORE.SYSTEM.CONST>
0

>  <SCORE.SYSTEM.DIHEDRAL>
5.80103

>  <SCORE.SYSTEM.POLAR>
-3.47057

>  <SCORE.SYSTEM.SOLV>
0.13369

>  <SCORE.SYSTEM.VDW>
-5.28689

>  <SCORE.SYSTEM.norm>
-2.23158

>  <SCORE.heavy>
10

>  <SCORE.norm>
-5.39144

$$$$
P28316096
 OpenBabel12072022103D
libRbt.so/2013.1/901 2013/11/27
 12 12  0  0  0  0  0  0  0  0999 V2000
   18.5474  -19.3191    6.3817 C   0  0  0  0  0  0  0  0  0  0  0  0
   17.9641  -18.9204    5.0262 C   0  0  0  0  0  0  0  0  0  0  0  0
   19.0716  -18.6466    4.0164 C   0  0  2  0  0  0  0  0  0  0  0  0
   20.0519  -17.6388    4.6381 N   0  3  0  0  0  0  0  0  0  0  0  0
   19.5510  -16.7371    4.7063 H   0  0  0  0  0  0  0  0  0  0  0  0
   20.7020  -17.4598    3.8396 H   0  0  0  0  0  0  0  0  0  0  0  0
   20.6367  -18.1383    5.8238 N   0  0  0  0  0  0  0  0  0  0  0  0
   19.5964  -18.3120    6.8506 C   0  0  0  0  0  0  0  0  0  0  0  0
   18.5973  -18.0699    2.6528 C   0  0  0  0  0  0  0  0  0  0  0  0
   17.9382  -18.9523    2.0124 O   0  0  0  0  0  0  0  0  0  0  0  0
   18.9786  -16.9208    2.3427 O   0  5  0  0  0  0  0  0  0  0  0  0
   21.3641  -17.5147    6.1941 H   0  0  0  0  0  0  0  0  0  0  0  0
  1  2  1  0  0  0  0
  1  8  1  0  0  0  0
  2  3  1  0  0  0  0
  3  4  1  0  0  0  0
  3  9  1  6  0  0  0
  4  5  1  0  0  0  0
  4  6  1  0  0  0  0
  4  7  1  0  0  0  0
  7  8  1  0  0  0  0
  7 12  1  0  0  0  0
  9 10  2  0  0  0  0
  9 11  1  0  0  0  0
M  CHG  2   4   1  11  -1
M  END
>  <CHROM.0>
-50.95127481,-61.25219834,-52.96491601,-53.93248283,-58.30709070,-61.19807119
-61.21766021,-178.38985649,-166.54419116,160.15375724

>  <CHROM.1>
-68.38811455,19.06577964,-18.28880138,4.38992253,1.22837260,0.66593055,1.90409541

>  <Name>
P28316096

>  <RI>
0

>  <Rbt.Current_Directory>
/home/fstefaniak/projects/zuza/docking/adenine/1Y26

>  <Rbt.Executable>
rbdock ($Id: //depot/dev/client3/rdock/2013.1/src/exe/rbdock.cxx#4 $)

>  <Rbt.Library>
libRbt.so (2013.1, Build901 2013/11/27)

>  <Rbt.Parameter_File>
/home/fstefaniak/progs/rDock//data/scripts/dock_solv.prm

>  <Rbt.Receptor>
1y26.prm

>  <SCORE>
-43.359

>  <SCORE.INTER>
-19.9858

>  <SCORE.INTER.CONST>
1

>  <SCORE.INTER.POLAR>
-3.37104

>  <SCORE.INTER.ROT>
1

>  <SCORE.INTER.SOLV>
23.0657

>  <SCORE.INTER.VDW>
-14.0423

>  <SCORE.INTER.norm>
-2.22065

>  <SCORE.INTRA>
-0.673227

>  <SCORE.INTRA.DIHEDRAL>
-0.0502419

>  <SCORE.INTRA.DIHEDRAL.0>
1.10641

>  <SCORE.INTRA.POLAR>
0

>  <SCORE.INTRA.POLAR.0>
0

>  <SCORE.INTRA.REPUL>
0

>  <SCORE.INTRA.REPUL.0>
0

>  <SCORE.INTRA.SOLV>
-0.370631

>  <SCORE.INTRA.SOLV.lig_0>
-45.9557

>  <SCORE.INTRA.VDW>
-0.462791

>  <SCORE.INTRA.VDW.0>
0.317883

>  <SCORE.INTRA.norm>
-0.074803

>  <SCORE.RESTR>
0

>  <SCORE.RESTR.CAVITY>
0

>  <SCORE.RESTR.norm>
0

>  <SCORE.SYSTEM>
-22.6999

>  <SCORE.SYSTEM.CONST>
0

>  <SCORE.SYSTEM.DIHEDRAL>
5.35901

>  <SCORE.SYSTEM.POLAR>
-3.44325

>  <SCORE.SYSTEM.SOLV>
0.444024

>  <SCORE.SYSTEM.VDW>
-5.59013

>  <SCORE.SYSTEM.norm>
-2.52222

>  <SCORE.heavy>
9

>  <SCORE.norm>
-4.81767

$$$$
P28316096
 OpenBabel12072022103D
libRbt.so/2013.1/901 2013/11/27
 12 12  0  0  0  0  0  0  0  0999 V2000
   18.6386  -19.8196    5.6508 C   0  0  0  0  0  0  0  0  0  0  0  0
   18.9262  -19.1588    4.3027 C   0  0  0  0  0  0  0  0  0  0  0  0
   20.2819  -18.4639    4.3154 C   0  0  2  0  0  0  0  0  0  0  0  0
   20.3331  -17.5300    5.5354 N   0  3  0  0  0  0  0  0  0  0  0  0
   19.6640  -16.7632    5.3536 H   0  0  0  0  0  0  0  0  0  0  0  0
   21.2499  -17.0491    5.3921 H   0  0  0  0  0  0  0  0  0  0  0  0
   20.1797  -18.2406    6.7474 N   0  0  0  0  0  0  0  0  0  0  0  0
   18.8343  -18.8350    6.8027 C   0  0  0  0  0  0  0  0  0  0  0  0
   20.6036  -17.6157    3.0529 C   0  0  0  0  0  0  0  0  0  0  0  0
   21.7356  -17.9551    2.5770 O   0  0  0  0  0  0  0  0  0  0  0  0
   19.8038  -16.7065    2.7434 O   0  5  0  0  0  0  0  0  0  0  0  0
   20.3091  -17.6411    7.5715 H   0  0  0  0  0  0  0  0  0  0  0  0
  1  2  1  0  0  0  0
  1  8  1  0  0  0  0
  2  3  1  0  0  0  0
  3  4  1  0  0  0  0
  3  9  1  6  0  0  0
  4  5  1  0  0  0  0
  4  6  1  0  0  0  0
  4  7  1  0  0  0  0
  7  8  1  0  0  0  0
  7 12  1  0  0  0  0
  9 10  2  0  0  0  0
  9 11  1  0  0  0  0
M  CHG  2   4   1  11  -1
M  END
>  <CHROM.0>
-50.69090606,-61.74563020,-55.24736620,-52.21242706,-57.33497150,-60.31593895
-59.34887903,-175.83687262,-167.64718633,160.93859957

>  <CHROM.1>
-127.73651325,19.94972328,-18.21298665,4.63719146,2.13132239,0.75869231,1.54578024

>  <Name>
P28316096

>  <RI>
0

>  <Rbt.Current_Directory>
/home/fstefaniak/projects/zuza/docking/adenine/1Y26

>  <Rbt.Executable>
rbdock ($Id: //depot/dev/client3/rdock/2013.1/src/exe/rbdock.cxx#4 $)

>  <Rbt.Library>
libRbt.so (2013.1, Build901 2013/11/27)

>  <Rbt.Parameter_File>
/home/fstefaniak/progs/rDock//data/scripts/dock_solv.prm

>  <Rbt.Receptor>
1y26.prm

>  <SCORE>
-43.3408

>  <SCORE.INTER>
-19.5489

>  <SCORE.INTER.CONST>
1

>  <SCORE.INTER.POLAR>
-2.77375

>  <SCORE.INTER.ROT>
1

>  <SCORE.INTER.SOLV>
23.6113

>  <SCORE.INTER.VDW>
-15.9239

>  <SCORE.INTER.norm>
-2.1721

>  <SCORE.INTRA>
-1.07133

>  <SCORE.INTRA.DIHEDRAL>
-0.0803583

>  <SCORE.INTRA.DIHEDRAL.0>
1.10641

>  <SCORE.INTRA.POLAR>
0

>  <SCORE.INTRA.POLAR.0>
0

>  <SCORE.INTRA.REPUL>
0

>  <SCORE.INTRA.REPUL.0>
0

>  <SCORE.INTRA.SOLV>
-0.547793

>  <SCORE.INTRA.SOLV.lig_0>
-45.9557

>  <SCORE.INTRA.VDW>
-0.757257

>  <SCORE.INTRA.VDW.0>
0.317883

>  <SCORE.INTRA.norm>
-0.119037

>  <SCORE.RESTR>
0

>  <SCORE.RESTR.CAVITY>
0

>  <SCORE.RESTR.norm>
0

>  <SCORE.SYSTEM>
-22.7206

>  <SCORE.SYSTEM.CONST>
0

>  <SCORE.SYSTEM.DIHEDRAL>
5.21043

>  <SCORE.SYSTEM.POLAR>
-3.42761

>  <SCORE.SYSTEM.SOLV>
0.451659

>  <SCORE.SYSTEM.VDW>
-5.60905

>  <SCORE.SYSTEM.norm>
-2.52451

>  <SCORE.heavy>
9

>  <SCORE.norm>
-4.81565

$$$$
P28316096
 OpenBabel12072022103D
libRbt.so/2013.1/901 2013/11/27
 12 12  0  0  0  0  0  0  0  0999 V2000
   18.6390  -19.8027    5.6630 C   0  0  0  0  0  0  0  0  0  0  0  0
   18.9055  -19.1421    4.3105 C   0  0  0  0  0  0  0  0  0  0  0  0
   20.2636  -18.4517    4.3002 C   0  0  2  0  0  0  0  0  0  0  0  0
   20.3389  -17.5187    5.5195 N   0  3  0  0  0  0  0  0  0  0  0  0
   19.6694  -16.7496    5.3498 H   0  0  0  0  0  0  0  0  0  0  0  0
   21.2547  -17.0408    5.3607 H   0  0  0  0  0  0  0  0  0  0  0  0
   20.2041  -18.2295    6.7336 N   0  0  0  0  0  0  0  0  0  0  0  0
   18.8578  -18.8195    6.8119 C   0  0  0  0  0  0  0  0  0  0  0  0
   20.5663  -17.6039    3.0327 C   0  0  0  0  0  0  0  0  0  0  0  0
   21.6841  -17.9536    2.5315 O   0  0  0  0  0  0  0  0  0  0  0  0
   19.7692  -16.6860    2.7426 O   0  5  0  0  0  0  0  0  0  0  0  0
   20.3496  -17.6310    7.5557 H   0  0  0  0  0  0  0  0  0  0  0  0
  1  2  1  0  0  0  0
  1  8  1  0  0  0  0
  2  3  1  0  0  0  0
  3  4  1  0  0  0  0
  3  9  1  6  0  0  0
  4  5  1  0  0  0  0
  4  6  1  0  0  0  0
  4  7  1  0  0  0  0
  7  8  1  0  0  0  0
  7 12  1  0  0  0  0
  9 10  2  0  0  0  0
  9 11  1  0  0  0  0
M  CHG  2   4   1  11  -1
M  END
>  <CHROM.0>
-52.21833820,47.05222173,-55.87719109,-51.50783477,-56.17988227,-60.54113895
-57.81236804,-175.37698493,-166.76187874,161.19549108

>  <CHROM.1>
-127.26134885,19.93784190,-18.20003249,4.62765171,2.11068496,0.76137716,1.55766856

>  <Name>
P28316096

>  <RI>
0

>  <Rbt.Current_Directory>
/home/fstefaniak/projects/zuza/docking/adenine/1Y26

>  <Rbt.Executable>
rbdock ($Id: //depot/dev/client3/rdock/2013.1/src/exe/rbdock.cxx#4 $)

>  <Rbt.Library>
libRbt.so (2013.1, Build901 2013/11/27)

>  <Rbt.Parameter_File>
/home/fstefaniak/progs/rDock//data/scripts/dock_solv.prm

>  <Rbt.Receptor>
1y26.prm

>  <SCORE>
-43.0335

>  <SCORE.INTER>
-20.0234

>  <SCORE.INTER.CONST>
1

>  <SCORE.INTER.POLAR>
-2.87877

>  <SCORE.INTER.ROT>
1

>  <SCORE.INTER.SOLV>
23.7664

>  <SCORE.INTER.VDW>
-15.9418

>  <SCORE.INTER.norm>
-2.22482

>  <SCORE.INTRA>
-1.07307

>  <SCORE.INTRA.DIHEDRAL>
-0.0787303

>  <SCORE.INTRA.DIHEDRAL.0>
1.10641

>  <SCORE.INTRA.POLAR>
0

>  <SCORE.INTRA.POLAR.0>
0

>  <SCORE.INTRA.REPUL>
0

>  <SCORE.INTRA.REPUL.0>
0

>  <SCORE.INTRA.SOLV>
-0.547915

>  <SCORE.INTRA.SOLV.lig_0>
-45.9557

>  <SCORE.INTRA.VDW>
-0.759746

>  <SCORE.INTRA.VDW.0>
0.317883

>  <SCORE.INTRA.norm>
-0.11923

>  <SCORE.RESTR>
0

>  <SCORE.RESTR.CAVITY>
0

>  <SCORE.RESTR.norm>
0

>  <SCORE.SYSTEM>
-21.9371

>  <SCORE.SYSTEM.CONST>
0

>  <SCORE.SYSTEM.DIHEDRAL>
6.00278

>  <SCORE.SYSTEM.POLAR>
-3.49246

>  <SCORE.SYSTEM.SOLV>
0.539472

>  <SCORE.SYSTEM.VDW>
-5.16395

>  <SCORE.SYSTEM.norm>
-2.43745

>  <SCORE.heavy>
9

>  <SCORE.norm>
-4.7815

$$$$
P28811580
 OpenBabel12072022103D
libRbt.so/2013.1/901 2013/11/27
 12 12  0  0  0  0  0  0  0  0999 V2000
   22.9435  -14.6780    4.4352 C   0  0  0  0  0  0  0  0  0  0  0  0
   21.9294  -15.2889    4.6400 C   0  0  0  0  0  0  0  0  0  0  0  0
   20.6967  -16.0547    4.8877 C   0  0  0  0  0  0  0  0  0  0  0  0
   20.9004  -17.5025    4.7315 N   0  0  0  0  0  0  0  0  0  0  0  0
   19.7443  -18.2746    5.2170 C   0  0  0  0  0  0  0  0  0  0  0  0
   18.5043  -18.1746    4.3343 C   0  0  0  0  0  0  0  0  0  0  0  0
   18.8686  -18.4740    2.8977 C   0  0  0  0  0  0  0  0  0  0  0  0
   18.0636  -19.2302    2.2114 N   0  0  0  0  0  0  0  0  0  0  0  0
   18.4829  -19.3694    0.8860 O   0  0  0  0  0  0  0  0  0  0  0  0
   20.0988  -17.7807    2.3525 C   0  0  0  0  0  0  0  0  0  0  0  0
   21.2388  -17.9152    3.3585 C   0  0  0  0  0  0  0  0  0  0  0  0
   18.2077  -18.5221    0.4884 H   0  0  0  0  0  0  0  0  0  0  0  0
  1  2  3  0  0  0  0
  2  3  1  0  0  0  0
  3  4  1  0  0  0  0
  4  5  1  0  0  0  0
  4 11  1  0  0  0  0
  5  6  1  0  0  0  0
  6  7  1  0  0  0  0
  7  8  2  0  0  0  0
  7 10  1  0  0  0  0
  8  9  1  0  0  0  0
  9 12  1  0  0  0  0
 10 11  1  0  0  0  0
M  END
>  <CHROM.0>
-52.59000269,-61.02345735,-56.84511044,-52.19356155,-175.81655775,-59.31626631
-58.14192020,-178.10829954,-168.26004398,160.31240664

>  <CHROM.1>
-1.00142644,169.49978681,-77.53233833,20.07413128,-17.58821868,3.56665838
-0.60510551,-0.71436456,-1.72053349

>  <Name>
P28811580

>  <RI>
0

>  <Rbt.Current_Directory>
/home/fstefaniak/projects/zuza/docking/adenine/1Y26

>  <Rbt.Executable>
rbdock ($Id: //depot/dev/client3/rdock/2013.1/src/exe/rbdock.cxx#4 $)

>  <Rbt.Library>
libRbt.so (2013.1, Build901 2013/11/27)

>  <Rbt.Parameter_File>
/home/fstefaniak/progs/rDock//data/scripts/dock_solv.prm

>  <Rbt.Receptor>
1y26.prm

>  <SCORE>
-40.1049

>  <SCORE.INTER>
-16.6617

>  <SCORE.INTER.CONST>
1

>  <SCORE.INTER.POLAR>
-2.05905

>  <SCORE.INTER.ROT>
2

>  <SCORE.INTER.SOLV>
10.3581

>  <SCORE.INTER.VDW>
-12.6303

>  <SCORE.INTER.norm>
-1.5147

>  <SCORE.INTRA>
-0.842007

>  <SCORE.INTRA.DIHEDRAL>
-1.87525

>  <SCORE.INTRA.DIHEDRAL.0>
2.07738

>  <SCORE.INTRA.POLAR>
0

>  <SCORE.INTRA.POLAR.0>
0

>  <SCORE.INTRA.REPUL>
0

>  <SCORE.INTRA.REPUL.0>
0

>  <SCORE.INTRA.SOLV>
-0.0420853

>  <SCORE.INTRA.SOLV.lig_0>
-7.79112

>  <SCORE.INTRA.VDW>
0.116658

>  <SCORE.INTRA.VDW.0>
-0.338893

>  <SCORE.INTRA.norm>
-0.0765461

>  <SCORE.RESTR>
0

>  <SCORE.RESTR.CAVITY>
0

>  <SCORE.RESTR.norm>
0

>  <SCORE.SYSTEM>
-22.6012

>  <SCORE.SYSTEM.CONST>
0

>  <SCORE.SYSTEM.DIHEDRAL>
5.0202

>  <SCORE.SYSTEM.POLAR>
-3.39614

>  <SCORE.SYSTEM.SOLV>
0.2887

>  <SCORE.SYSTEM.VDW>
-5.51662

>  <SCORE.SYSTEM.norm>
-2.05465

>  <SCORE.heavy>
11

>  <SCORE.norm>
-3.6459

$$$$
P28811580
 OpenBabel12072022103D
libRbt.so/2013.1/901 2013/11/27
 12 12  0  0  0  0  0  0  0  0999 V2000
   24.0413  -16.1203    4.6793 C   0  0  0  0  0  0  0  0  0  0  0  0
   23.0100  -16.5841    4.2733 C   0  0  0  0  0  0  0  0  0  0  0  0
   21.7449  -17.1372    3.7624 C   0  0  0  0  0  0  0  0  0  0  0  0
   20.5709  -16.4650    4.3385 N   0  0  0  0  0  0  0  0  0  0  0  0
   19.4414  -16.4289    3.3945 C   0  0  0  0  0  0  0  0  0  0  0  0
   18.7734  -17.7798    3.1593 C   0  0  0  0  0  0  0  0  0  0  0  0
   18.4313  -18.4236    4.4840 C   0  0  0  0  0  0  0  0  0  0  0  0
   17.2720  -19.0014    4.5976 N   0  0  0  0  0  0  0  0  0  0  0  0
   17.1141  -19.6113    5.8447 O   0  0  0  0  0  0  0  0  0  0  0  0
   19.5180  -18.4227    5.5378 C   0  0  0  0  0  0  0  0  0  0  0  0
   20.1306  -17.0276    5.6267 C   0  0  0  0  0  0  0  0  0  0  0  0
   17.4947  -20.4970    5.6952 H   0  0  0  0  0  0  0  0  0  0  0  0
  1  2  3  0  0  0  0
  2  3  1  0  0  0  0
  3  4  1  0  0  0  0
  4  5  1  0  0  0  0
  4 11  1  0  0  0  0
  5  6  1  0  0  0  0
  6  7  1  0  0  0  0
  7  8  2  0  0  0  0
  7 10  1  0  0  0  0
  8  9  1  0  0  0  0
  9 12  1  0  0  0  0
 10 11  1  0  0  0  0
M  END
>  <CHROM.0>
-51.22008038,-57.62809126,-56.68460328,-53.01930427,-175.31606339,-59.39447478
-58.75397631,-177.20850209,-167.26278006,161.01475447

>  <CHROM.1>
-81.97625897,148.37546313,-87.58851032,19.90484905,-17.60244771,4.54565180
-0.33348032,0.35100542,2.09963383

>  <Name>
P28811580

>  <RI>
0

>  <Rbt.Current_Directory>
/home/fstefaniak/projects/zuza/docking/adenine/1Y26

>  <Rbt.Executable>
rbdock ($Id: //depot/dev/client3/rdock/2013.1/src/exe/rbdock.cxx#4 $)

>  <Rbt.Library>
libRbt.so (2013.1, Build901 2013/11/27)

>  <Rbt.Parameter_File>
/home/fstefaniak/progs/rDock//data/scripts/dock_solv.prm

>  <Rbt.Receptor>
1y26.prm

>  <SCORE>
-40.0308

>  <SCORE.INTER>
-16.7004

>  <SCORE.INTER.CONST>
1

>  <SCORE.INTER.POLAR>
-1.73452

>  <SCORE.INTER.ROT>
2

>  <SCORE.INTER.SOLV>
10.393

>  <SCORE.INTER.VDW>
-13.7495

>  <SCORE.INTER.norm>
-1.51822

>  <SCORE.INTRA>
-0.74053

>  <SCORE.INTRA.DIHEDRAL>
-0.943577

>  <SCORE.INTRA.DIHEDRAL.0>
2.07738

>  <SCORE.INTRA.POLAR>
0

>  <SCORE.INTRA.POLAR.0>
0

>  <SCORE.INTRA.REPUL>
0

>  <SCORE.INTRA.REPUL.0>
0

>  <SCORE.INTRA.SOLV>
-0.0400565

>  <SCORE.INTRA.SOLV.lig_0>
-7.79112

>  <SCORE.INTRA.VDW>
-0.248713

>  <SCORE.INTRA.VDW.0>
-0.338893

>  <SCORE.INTRA.norm>
-0.0673209

>  <SCORE.RESTR>
0

>  <SCORE.RESTR.CAVITY>
0

>  <SCORE.RESTR.norm>
0

>  <SCORE.SYSTEM>
-22.5898

>  <SCORE.SYSTEM.CONST>
0

>  <SCORE.SYSTEM.DIHEDRAL>
5.13064

>  <SCORE.SYSTEM.POLAR>
-3.39606

>  <SCORE.SYSTEM.SOLV>
0.289864

>  <SCORE.SYSTEM.VDW>
-5.54653

>  <SCORE.SYSTEM.norm>
-2.05362

>  <SCORE.heavy>
11

>  <SCORE.norm>
-3.63916

$$$$
P28811580
 OpenBabel12072022103D
libRbt.so/2013.1/901 2013/11/27
 12 12  0  0  0  0  0  0  0  0999 V2000
   24.0308  -16.1101    4.6731 C   0  0  0  0  0  0  0  0  0  0  0  0
   22.9990  -16.5796    4.2751 C   0  0  0  0  0  0  0  0  0  0  0  0
   21.7354  -17.1426    3.7714 C   0  0  0  0  0  0  0  0  0  0  0  0
   20.5596  -16.4712    4.3447 N   0  0  0  0  0  0  0  0  0  0  0  0
   19.4314  -16.4383    3.3990 C   0  0  0  0  0  0  0  0  0  0  0  0
   18.7657  -17.7906    3.1650 C   0  0  0  0  0  0  0  0  0  0  0  0
   18.4226  -18.4326    4.4903 C   0  0  0  0  0  0  0  0  0  0  0  0
   17.2640  -19.0120    4.6032 N   0  0  0  0  0  0  0  0  0  0  0  0
   17.1052  -19.6200    5.8510 O   0  0  0  0  0  0  0  0  0  0  0  0
   19.5078  -18.4285    5.5457 C   0  0  0  0  0  0  0  0  0  0  0  0
   20.1182  -17.0323    5.6332 C   0  0  0  0  0  0  0  0  0  0  0  0
   17.5032  -20.4993    5.7086 H   0  0  0  0  0  0  0  0  0  0  0  0
  1  2  3  0  0  0  0
  2  3  1  0  0  0  0
  3  4  1  0  0  0  0
  4  5  1  0  0  0  0
  4 11  1  0  0  0  0
  5  6  1  0  0  0  0
  6  7  1  0  0  0  0
  7  8  2  0  0  0  0
  7 10  1  0  0  0  0
  8  9  1  0  0  0  0
  9 12  1  0  0  0  0
 10 11  1  0  0  0  0
M  END
>  <CHROM.0>
-47.83808399,-60.57998501,-58.49045354,-52.98122652,-56.86394064,-178.06965696
-59.77685280,-177.79871059,-167.91229714,160.23716943

>  <CHROM.1>
-93.76644044,147.91931071,-86.52160091,19.89515685,-17.60773435,4.55068992
-0.33444971,0.35333699,2.09687012

>  <Name>
P28811580

>  <RI>
0

>  <Rbt.Current_Directory>
/home/fstefaniak/projects/zuza/docking/adenine/1Y26

>  <Rbt.Executable>
rbdock ($Id: //depot/dev/client3/rdock/2013.1/src/exe/rbdock.cxx#4 $)

>  <Rbt.Library>
libRbt.so (2013.1, Build901 2013/11/27)

>  <Rbt.Parameter_File>
/home/fstefaniak/progs/rDock//data/scripts/dock_solv.prm

>  <Rbt.Receptor>
1y26.prm

>  <SCORE>
-39.9686

>  <SCORE.INTER>
-16.761

>  <SCORE.INTER.CONST>
1

>  <SCORE.INTER.POLAR>
-1.71555

>  <SCORE.INTER.ROT>
2

>  <SCORE.INTER.SOLV>
10.4009

>  <SCORE.INTER.VDW>
-13.8558

>  <SCORE.INTER.norm>
-1.52373

>  <SCORE.INTRA>
-0.718899

>  <SCORE.INTRA.DIHEDRAL>
-0.911423

>  <SCORE.INTRA.DIHEDRAL.0>
2.07738

>  <SCORE.INTRA.POLAR>
0

>  <SCORE.INTRA.POLAR.0>
0

>  <SCORE.INTRA.REPUL>
0

>  <SCORE.INTRA.REPUL.0>
0

>  <SCORE.INTRA.SOLV>
-0.0412369

>  <SCORE.INTRA.SOLV.lig_0>
-7.79112

>  <SCORE.INTRA.VDW>
-0.24257

>  <SCORE.INTRA.VDW.0>
-0.338893

>  <SCORE.INTRA.norm>
-0.0653545

>  <SCORE.RESTR>
0

>  <SCORE.RESTR.CAVITY>
0

>  <SCORE.RESTR.norm>
0

>  <SCORE.SYSTEM>
-22.4887

>  <SCORE.SYSTEM.CONST>
0

>  <SCORE.SYSTEM.DIHEDRAL>
5.37977

>  <SCORE.SYSTEM.POLAR>
-3.44724

>  <SCORE.SYSTEM.SOLV>
0.308652

>  <SCORE.SYSTEM.VDW>
-5.39778

>  <SCORE.SYSTEM.norm>
-2.04442

>  <SCORE.heavy>
11

>  <SCORE.norm>
-3.63351

$$$$
P29352675
 OpenBabel12072022103D
libRbt.so/2013.1/901 2013/11/27
 14 14  0  0  0  0  0  0  0  0999 V2000
   22.0645  -13.7399    4.4384 C   0  0  0  0  0  0  0  0  0  0  0  0
   22.4051  -15.1241    3.8904 C   0  0  1  0  0  0  0  0  0  0  0  0
   23.9154  -15.4359    3.9616 C   0  0  0  0  0  0  0  0  0  0  0  0
   24.6769  -14.7726    2.9597 O   0  0  0  0  0  0  0  0  0  0  0  0
   21.5666  -16.1545    4.5012 N   0  0  0  0  0  0  0  0  0  0  0  0
   20.5925  -16.8811    3.8528 C   0  0  0  0  0  0  0  0  0  0  0  0
   20.2667  -16.6556    2.6902 O   0  0  0  0  0  0  0  0  0  0  0  0
   19.9911  -17.9165    4.6668 C   0  0  0  0  0  0  0  0  0  0  0  0
   19.2294  -19.0171    4.3226 C   0  0  0  0  0  0  0  0  0  0  0  0
   18.9076  -19.6847    5.5284 C   0  0  0  0  0  0  0  0  0  0  0  0
   19.4905  -18.9549    6.5369 C   0  0  0  0  0  0  0  0  0  0  0  0
   20.1513  -17.8822    6.0297 O   0  0  0  0  0  0  0  0  0  0  0  0
   25.6182  -15.0093    3.1144 H   0  0  0  0  0  0  0  0  0  0  0  0
   21.7895  -16.4619    5.4423 H   0  0  0  0  0  0  0  0  0  0  0  0
  2  1  1  1  0  0  0
  2  3  1  0  0  0  0
  2  5  1  0  0  0  0
  3  4  1  0  0  0  0
  4 13  1  0  0  0  0
  5  6  1  0  0  0  0
  5 14  1  0  0  0  0
  6  7  2  0  0  0  0
  6  8  1  0  0  0  0
  8  9  2  0  0  0  0
  8 12  1  0  0  0  0
  9 10  1  0  0  0  0
 10 11  2  0  0  0  0
 11 12  1  0  0  0  0
M  END
>  <CHROM.0>
-48.03527789,-161.13768997,57.59822876,-50.60260893,-56.98882255,-59.85652479
74.77873363,-50.24983516,-167.43502938,160.39105890

>  <CHROM.1>
-76.12224305,111.61947584,177.87971124,-163.55118640,21.20771414,-16.76025995
4.41640841,-0.48756235,0.69493333,1.84778119

>  <Name>
P29352675

>  <RI>
0

>  <Rbt.Current_Directory>
/home/fstefaniak/projects/zuza/docking/adenine/1Y26

>  <Rbt.Executable>
rbdock ($Id: //depot/dev/client3/rdock/2013.1/src/exe/rbdock.cxx#4 $)

>  <Rbt.Library>
libRbt.so (2013.1, Build901 2013/11/27)

>  <Rbt.Parameter_File>
/home/fstefaniak/progs/rDock//data/scripts/dock_solv.prm

>  <Rbt.Receptor>
1y26.prm

>  <SCORE>
-56.1892

>  <SCORE.INTER>
-38.14

>  <SCORE.INTER.CONST>
1

>  <SCORE.INTER.POLAR>
-4.86107

>  <SCORE.INTER.ROT>
3

>  <SCORE.INTER.SOLV>
12.3641

>  <SCORE.INTER.VDW>
-18.9445

>  <SCORE.INTER.norm>
-3.17834

>  <SCORE.INTRA>
2.41981

>  <SCORE.INTRA.DIHEDRAL>
1.01282

>  <SCORE.INTRA.DIHEDRAL.0>
2.25017

>  <SCORE.INTRA.POLAR>
1.04645

>  <SCORE.INTRA.POLAR.0>
-1.13198

>  <SCORE.INTRA.REPUL>
0

>  <SCORE.INTRA.REPUL.0>
0

>  <SCORE.INTRA.SOLV>
-1.55531

>  <SCORE.INTRA.SOLV.lig_0>
-16.5325

>  <SCORE.INTRA.VDW>
-0.86688

>  <SCORE.INTRA.VDW.0>
-0.366351

>  <SCORE.INTRA.norm>
0.201651

>  <SCORE.RESTR>
0

>  <SCORE.RESTR.CAVITY>
0

>  <SCORE.RESTR.norm>
0

>  <SCORE.SYSTEM>
-20.469

>  <SCORE.SYSTEM.CONST>
0

>  <SCORE.SYSTEM.DIHEDRAL>
8.52914

>  <SCORE.SYSTEM.POLAR>
-3.79099

>  <SCORE.SYSTEM.SOLV>
0.428921

>  <SCORE.SYSTEM.VDW>
-3.99537

>  <SCORE.SYSTEM.norm>
-1.70575

>  <SCORE.heavy>
12

>  <SCORE.norm>
-4.68243

$$$$
P29352675
 OpenBabel12072022103D
libRbt.so/2013.1/901 2013/11/27
 14 14  0  0  0  0  0  0  0  0999 V2000
   22.0694  -13.7625    4.6311 C   0  0  0  0  0  0  0  0  0  0  0  0
   22.3476  -15.1580    4.0763 C   0  0  1  0  0  0  0  0  0  0  0  0
   23.8458  -15.5272    4.1215 C   0  0  0  0  0  0  0  0  0  0  0  0
   24.6248  -14.8471    3.1446 O   0  0  0  0  0  0  0  0  0  0  0  0
   21.4809  -16.1565    4.7008 N   0  0  0  0  0  0  0  0  0  0  0  0
   20.4162  -16.7839    4.0925 C   0  0  0  0  0  0  0  0  0  0  0  0
   20.0298  -16.4824    2.9662 O   0  0  0  0  0  0  0  0  0  0  0  0
   19.7988  -17.8130    4.9025 C   0  0  0  0  0  0  0  0  0  0  0  0
   18.8147  -18.7368    4.6053 C   0  0  0  0  0  0  0  0  0  0  0  0
   18.5984  -19.4957    5.7802 C   0  0  0  0  0  0  0  0  0  0  0  0
   19.4612  -18.9928    6.7246 C   0  0  0  0  0  0  0  0  0  0  0  0
   20.1956  -17.9744    6.2067 O   0  0  0  0  0  0  0  0  0  0  0  0
   25.5483  -15.1689    3.2427 H   0  0  0  0  0  0  0  0  0  0  0  0
   21.7441  -16.5221    5.6101 H   0  0  0  0  0  0  0  0  0  0  0  0
  2  1  1  1  0  0  0
  2  3  1  0  0  0  0
  2  5  1  0  0  0  0
  3  4  1  0  0  0  0
  4 13  1  0  0  0  0
  5  6  1  0  0  0  0
  5 14  1  0  0  0  0
  6  7  2  0  0  0  0
  6  8  1  0  0  0  0
  8  9  2  0  0  0  0
  8 12  1  0  0  0  0
  9 10  1  0  0  0  0
 10 11  2  0  0  0  0
 11 12  1  0  0  0  0
M  END
>  <CHROM.0>
-46.90137956,-57.44577326,-48.66302617,-50.38567341,-170.13255838,-53.85408655
-56.42398823,-49.83526871,-167.73999492,160.02205007

>  <CHROM.1>
-73.51874375,107.34007541,-178.51242617,-172.78799006,21.08290342,-16.72586740
4.62902844,0.65330834,-0.48357990,-0.98316963

>  <Name>
P29352675

>  <RI>
0

>  <Rbt.Current_Directory>
/home/fstefaniak/projects/zuza/docking/adenine/1Y26

>  <Rbt.Executable>
rbdock ($Id: //depot/dev/client3/rdock/2013.1/src/exe/rbdock.cxx#4 $)

>  <Rbt.Library>
libRbt.so (2013.1, Build901 2013/11/27)

>  <Rbt.Parameter_File>
/home/fstefaniak/progs/rDock//data/scripts/dock_solv.prm

>  <Rbt.Receptor>
1y26.prm

>  <SCORE>
-55.3516

>  <SCORE.INTER>
-35.4498

>  <SCORE.INTER.CONST>
1

>  <SCORE.INTER.POLAR>
-3.82548

>  <SCORE.INTER.ROT>
3

>  <SCORE.INTER.SOLV>
12.5152

>  <SCORE.INTER.VDW>
-20.6534

>  <SCORE.INTER.norm>
-2.95415

>  <SCORE.INTRA>
1.87998

>  <SCORE.INTRA.DIHEDRAL>
0.0617733

>  <SCORE.INTRA.DIHEDRAL.0>
2.25017

>  <SCORE.INTRA.POLAR>
1.00879

>  <SCORE.INTRA.POLAR.0>
-1.13198

>  <SCORE.INTRA.REPUL>
0

>  <SCORE.INTRA.REPUL.0>
0

>  <SCORE.INTRA.SOLV>
-1.54216

>  <SCORE.INTRA.SOLV.lig_0>
-16.5325

>  <SCORE.INTRA.VDW>
-0.809711

>  <SCORE.INTRA.VDW.0>
-0.366351

>  <SCORE.INTRA.norm>
0.156665

>  <SCORE.RESTR>
0

>  <SCORE.RESTR.CAVITY>
0

>  <SCORE.RESTR.norm>
0

>  <SCORE.SYSTEM>
-21.7818

>  <SCORE.SYSTEM.CONST>
0

>  <SCORE.SYSTEM.DIHEDRAL>
7.37102

>  <SCORE.SYSTEM.POLAR>
-3.6533

>  <SCORE.SYSTEM.SOLV>
0.535398

>  <SCORE.SYSTEM.VDW>
-4.97898

>  <SCORE.SYSTEM.norm>
-1.81515

>  <SCORE.heavy>
12

>  <SCORE.norm>
-4.61263

$$$$
P29352675
 OpenBabel12072022103D
libRbt.so/2013.1/901 2013/11/27
 14 14  0  0  0  0  0  0  0  0999 V2000
   22.1627  -13.7178    4.7553 C   0  0  0  0  0  0  0  0  0  0  0  0
   22.3878  -15.0809    4.1042 C   0  0  1  0  0  0  0  0  0  0  0  0
   23.8747  -15.4958    4.0940 C   0  0  0  0  0  0  0  0  0  0  0  0
   24.6439  -14.8170    3.1084 O   0  0  0  0  0  0  0  0  0  0  0  0
   21.5030  -16.0929    4.6792 N   0  0  0  0  0  0  0  0  0  0  0  0
   20.5587  -16.8170    3.9853 C   0  0  0  0  0  0  0  0  0  0  0  0
   20.3030  -16.6036    2.8030 O   0  0  0  0  0  0  0  0  0  0  0  0
   19.8988  -17.8340    4.7768 C   0  0  0  0  0  0  0  0  0  0  0  0
   19.9354  -18.0980    6.1329 C   0  0  0  0  0  0  0  0  0  0  0  0
   19.0961  -19.2158    6.3544 C   0  0  0  0  0  0  0  0  0  0  0  0
   18.5964  -19.5688    5.1236 C   0  0  0  0  0  0  0  0  0  0  0  0
   19.0727  -18.7398    4.1590 O   0  0  0  0  0  0  0  0  0  0  0  0
   25.5650  -15.1504    3.1870 H   0  0  0  0  0  0  0  0  0  0  0  0
   21.6676  -16.3900    5.6355 H   0  0  0  0  0  0  0  0  0  0  0  0
  2  1  1  1  0  0  0
  2  3  1  0  0  0  0
  2  5  1  0  0  0  0
  3  4  1  0  0  0  0
  4 13  1  0  0  0  0
  5  6  1  0  0  0  0
  5 14  1  0  0  0  0
  6  7  2  0  0  0  0
  6  8  1  0  0  0  0
  8  9  2  0  0  0  0
  8 12  1  0  0  0  0
  9 10  1  0  0  0  0
 10 11  2  0  0  0  0
 11 12  1  0  0  0  0
M  END
>  <CHROM.0>
-44.34869265,-60.61168946,-50.87518460,-51.94421426,-53.91905903,-173.53313089
-53.81623478,-50.60003982,-165.83660230,160.08905580

>  <CHROM.1>
-76.10063949,119.44555504,179.95967205,8.78895814,21.09479412,-16.76566581
4.44744689,-0.26900709,0.74035965,1.62936775

>  <Name>
P29352675

>  <RI>
0

>  <Rbt.Current_Directory>
/home/fstefaniak/projects/zuza/docking/adenine/1Y26

>  <Rbt.Executable>
rbdock ($Id: //depot/dev/client3/rdock/2013.1/src/exe/rbdock.cxx#4 $)

>  <Rbt.Library>
libRbt.so (2013.1, Build901 2013/11/27)

>  <Rbt.Parameter_File>
/home/fstefaniak/progs/rDock//data/scripts/dock_solv.prm

>  <Rbt.Receptor>
1y26.prm

>  <SCORE>
-54.0914

>  <SCORE.INTER>
-34.816

>  <SCORE.INTER.CONST>
1

>  <SCORE.INTER.POLAR>
-3.80834

>  <SCORE.INTER.ROT>
3

>  <SCORE.INTER.SOLV>
11.9715

>  <SCORE.INTER.VDW>
-20.1067

>  <SCORE.INTER.norm>
-2.90133

>  <SCORE.INTRA>
2.52211

>  <SCORE.INTRA.DIHEDRAL>
0.23621

>  <SCORE.INTRA.DIHEDRAL.0>
2.25017

>  <SCORE.INTRA.POLAR>
1.13198

>  <SCORE.INTRA.POLAR.0>
-1.13198

>  <SCORE.INTRA.REPUL>
0

>  <SCORE.INTRA.REPUL.0>
0

>  <SCORE.INTRA.SOLV>
-1.72434

>  <SCORE.INTRA.SOLV.lig_0>
-16.5325

>  <SCORE.INTRA.VDW>
-0.582565

>  <SCORE.INTRA.VDW.0>
-0.366351

>  <SCORE.INTRA.norm>
0.210176

>  <SCORE.RESTR>
0

>  <SCORE.RESTR.CAVITY>
0

>  <SCORE.RESTR.norm>
0

>  <SCORE.SYSTEM>
-21.7975

>  <SCORE.SYSTEM.CONST>
0

>  <SCORE.SYSTEM.DIHEDRAL>
7.35845

>  <SCORE.SYSTEM.POLAR>
-3.65154

>  <SCORE.SYSTEM.SOLV>
0.55084

>  <SCORE.SYSTEM.VDW>
-4.99629

>  <SCORE.SYSTEM.norm>
-1.81646

>  <SCORE.heavy>
12

>  <SCORE.norm>
-4.50761

$$$$
P29568059
 OpenBabel12072022103D
libRbt.so/2013.1/901 2013/11/27
 13 13  0  0  0  0  0  0  0  0999 V2000
   20.1702  -17.8308    4.8519 C   0  0  0  0  0  0  0  0  0  0  0  0
   21.0217  -16.7770    3.6976 S   0  0  0  0  0  0  0  0  0  0  0  0
   21.8258  -17.6094    2.8290 O   0  0  0  0  0  0  0  0  0  0  0  0
   20.0411  -15.8630    3.1520 O   0  0  0  0  0  0  0  0  0  0  0  0
   22.0573  -15.9309    4.7425 N   0  0  0  0  0  0  0  0  0  0  0  0
   23.4660  -16.3919    4.8155 C   0  0  0  0  0  0  0  0  0  0  0  0
   24.3434  -15.6940    3.7796 C   0  0  0  0  0  0  0  0  0  0  0  0
   24.1984  -14.1770    3.8332 C   0  0  0  0  0  0  0  0  0  0  0  0
   22.7268  -13.7710    3.7669 C   0  0  0  0  0  0  0  0  0  0  0  0
   21.8685  -14.4802    4.8227 C   0  0  2  0  0  0  0  0  0  0  0  0
   22.1684  -14.0214    6.1727 N   0  0  0  0  0  0  0  0  0  0  0  0
   22.6297  -14.7753    6.6778 H   0  0  0  0  0  0  0  0  0  0  0  0
   21.3070  -13.8323    6.6725 H   0  0  0  0  0  0  0  0  0  0  0  0
  1  2  1  0  0  0  0
  2  3  2  0  0  0  0
  2  4  2  0  0  0  0
  2  5  1  0  0  0  0
  5  6  1  0  0  0  0
  5 10  1  0  0  0  0
  6  7  1  0  0  0  0
  7  8  1  0  0  0  0
  8  9  1  0  0  0  0
  9 10  1  0  0  0  0
 10 11  1  1  0  0  0
 11 12  1  0  0  0  0
 11 13  1  0  0  0  0
M  END
>  <CHROM.0>
-49.61467013,-164.23137261,-54.75523033,-52.82485500,-174.25741087,-175.78213882
-57.12143068,-175.49873931,-168.00346525,160.94772556

>  <CHROM.1>
100.07048200,12.28611282,22.01596202,-15.82314620,4.17103171,2.37175757,-0.29650335
-2.57126767

>  <Name>
P29568059

>  <RI>
0

>  <Rbt.Current_Directory>
/home/fstefaniak/projects/zuza/docking/adenine/1Y26

>  <Rbt.Executable>
rbdock ($Id: //depot/dev/client3/rdock/2013.1/src/exe/rbdock.cxx#4 $)

>  <Rbt.Library>
libRbt.so (2013.1, Build901 2013/11/27)

>  <Rbt.Parameter_File>
/home/fstefaniak/progs/rDock//data/scripts/dock_solv.prm

>  <Rbt.Receptor>
1y26.prm

>  <SCORE>
-51.5311

>  <SCORE.INTER>
-30.7621

>  <SCORE.INTER.CONST>
1

>  <SCORE.INTER.POLAR>
-3.83594

>  <SCORE.INTER.ROT>
2

>  <SCORE.INTER.SOLV>
10.824

>  <SCORE.INTER.VDW>
-16.2629

>  <SCORE.INTER.norm>
-2.79656

>  <SCORE.INTRA>
1.35383

>  <SCORE.INTRA.DIHEDRAL>
2.87865

>  <SCORE.INTRA.DIHEDRAL.0>
1.23488

>  <SCORE.INTRA.POLAR>
0

>  <SCORE.INTRA.POLAR.0>
0

>  <SCORE.INTRA.REPUL>
0

>  <SCORE.INTRA.REPUL.0>
0

>  <SCORE.INTRA.SOLV>
0.0834319

>  <SCORE.INTRA.SOLV.lig_0>
-11.9379

>  <SCORE.INTRA.VDW>
-0.127207

>  <SCORE.INTRA.VDW.0>
-0.572882

>  <SCORE.INTRA.norm>
0.123076

>  <SCORE.RESTR>
0

>  <SCORE.RESTR.CAVITY>
0

>  <SCORE.RESTR.norm>
0

>  <SCORE.SYSTEM>
-22.1228

>  <SCORE.SYSTEM.CONST>
0

>  <SCORE.SYSTEM.DIHEDRAL>
6.60893

>  <SCORE.SYSTEM.POLAR>
-3.43009

>  <SCORE.SYSTEM.SOLV>
0.0891599

>  <SCORE.SYSTEM.VDW>
-5.54755

>  <SCORE.SYSTEM.norm>
-2.01116

>  <SCORE.heavy>
11

>  <SCORE.norm>
-4.68464

$$$$
P29568059
 OpenBabel12072022103D
libRbt.so/2013.1/901 2013/11/27
 13 13  0  0  0  0  0  0  0  0999 V2000
   20.1825  -17.8222    4.8733 C   0  0  0  0  0  0  0  0  0  0  0  0
   21.0302  -16.7749    3.7103 S   0  0  0  0  0  0  0  0  0  0  0  0
   21.8410  -17.6111    2.8516 O   0  0  0  0  0  0  0  0  0  0  0  0
   20.0454  -15.8721    3.1537 O   0  0  0  0  0  0  0  0  0  0  0  0
   22.0588  -15.9125    4.7489 N   0  0  0  0  0  0  0  0  0  0  0  0
   23.4620  -16.3838    4.8532 C   0  0  0  0  0  0  0  0  0  0  0  0
   24.3602  -15.7193    3.8131 C   0  0  0  0  0  0  0  0  0  0  0  0
   24.2283  -14.2003    3.8275 C   0  0  0  0  0  0  0  0  0  0  0  0
   22.7615  -13.7831    3.7303 C   0  0  0  0  0  0  0  0  0  0  0  0
   21.8821  -14.4586    4.7908 C   0  0  2  0  0  0  0  0  0  0  0  0
   22.1672  -13.9694    6.1333 N   0  0  0  0  0  0  0  0  0  0  0  0
   22.6712  -14.6922    6.6430 H   0  0  0  0  0  0  0  0  0  0  0  0
   21.3007  -13.8202    6.6377 H   0  0  0  0  0  0  0  0  0  0  0  0
  1  2  1  0  0  0  0
  2  3  2  0  0  0  0
  2  4  2  0  0  0  0
  2  5  1  0  0  0  0
  5  6  1  0  0  0  0
  5 10  1  0  0  0  0
  6  7  1  0  0  0  0
  7  8  1  0  0  0  0
  8  9  1  0  0  0  0
  9 10  1  0  0  0  0
 10 11  1  1  0  0  0
 11 12  1  0  0  0  0
 11 13  1  0  0  0  0
M  END
>  <CHROM.0>
-56.39915345,-78.77958398,-56.03325671,-53.87626039,-56.99122206,-178.32536241
-61.66837062,-54.53533333,-166.47337916,160.50436305

>  <CHROM.1>
98.68978391,16.10661901,22.02759715,-15.81949047,4.17425485,2.37119674,-0.28021691
-2.59566388

>  <Name>
P29568059

>  <RI>
0

>  <Rbt.Current_Directory>
/home/fstefaniak/projects/zuza/docking/adenine/1Y26

>  <Rbt.Executable>
rbdock ($Id: //depot/dev/client3/rdock/2013.1/src/exe/rbdock.cxx#4 $)

>  <Rbt.Library>
libRbt.so (2013.1, Build901 2013/11/27)

>  <Rbt.Parameter_File>
/home/fstefaniak/progs/rDock//data/scripts/dock_solv.prm

>  <Rbt.Receptor>
1y26.prm

>  <SCORE>
-51.1434

>  <SCORE.INTER>
-30.8833

>  <SCORE.INTER.CONST>
1

>  <SCORE.INTER.POLAR>
-3.72297

>  <SCORE.INTER.ROT>
2

>  <SCORE.INTER.SOLV>
10.8264

>  <SCORE.INTER.VDW>
-16.7211

>  <SCORE.INTER.norm>
-2.80757

>  <SCORE.INTRA>
1.26777

>  <SCORE.INTRA.DIHEDRAL>
2.66685

>  <SCORE.INTRA.DIHEDRAL.0>
1.23488

>  <SCORE.INTRA.POLAR>
0

>  <SCORE.INTRA.POLAR.0>
0

>  <SCORE.INTRA.REPUL>
0

>  <SCORE.INTRA.REPUL.0>
0

>  <SCORE.INTRA.SOLV>
0.0852311

>  <SCORE.INTRA.SOLV.lig_0>
-11.9379

>  <SCORE.INTRA.VDW>
-0.108276

>  <SCORE.INTRA.VDW.0>
-0.572882

>  <SCORE.INTRA.norm>
0.115251

>  <SCORE.RESTR>
0

>  <SCORE.RESTR.CAVITY>
0

>  <SCORE.RESTR.norm>
0

>  <SCORE.SYSTEM>
-21.528

>  <SCORE.SYSTEM.CONST>
0

>  <SCORE.SYSTEM.DIHEDRAL>
6.54655

>  <SCORE.SYSTEM.POLAR>
-3.37046

>  <SCORE.SYSTEM.SOLV>
0.486561

>  <SCORE.SYSTEM.VDW>
-5.46146

>  <SCORE.SYSTEM.norm>
-1.95709

>  <SCORE.heavy>
11

>  <SCORE.norm>
-4.6494

$$$$
P29568059
 OpenBabel12072022103D
libRbt.so/2013.1/901 2013/11/27
 13 13  0  0  0  0  0  0  0  0999 V2000
   20.1585  -17.7459    4.9241 C   0  0  0  0  0  0  0  0  0  0  0  0
   21.0261  -16.7432    3.7368 S   0  0  0  0  0  0  0  0  0  0  0  0
   21.8277  -17.6142    2.9046 O   0  0  0  0  0  0  0  0  0  0  0  0
   20.0569  -15.8416    3.1517 O   0  0  0  0  0  0  0  0  0  0  0  0
   22.0632  -15.8680    4.7559 N   0  0  0  0  0  0  0  0  0  0  0  0
   23.4731  -16.3238    4.8363 C   0  0  0  0  0  0  0  0  0  0  0  0
   24.3456  -15.6513    3.7797 C   0  0  0  0  0  0  0  0  0  0  0  0
   24.1974  -14.1338    3.7943 C   0  0  0  0  0  0  0  0  0  0  0  0
   22.7247  -13.7327    3.7222 C   0  0  0  0  0  0  0  0  0  0  0  0
   21.8714  -14.4160    4.7989 C   0  0  2  0  0  0  0  0  0  0  0  0
   22.1746  -13.9216    6.1355 N   0  0  0  0  0  0  0  0  0  0  0  0
   22.7113  -14.6306    6.6310 H   0  0  0  0  0  0  0  0  0  0  0  0
   21.3166  -13.7984    6.6610 H   0  0  0  0  0  0  0  0  0  0  0  0
  1  2  1  0  0  0  0
  2  3  2  0  0  0  0
  2  4  2  0  0  0  0
  2  5  1  0  0  0  0
  5  6  1  0  0  0  0
  5 10  1  0  0  0  0
  6  7  1  0  0  0  0
  7  8  1  0  0  0  0
  8  9  1  0  0  0  0
  9 10  1  0  0  0  0
 10 11  1  1  0  0  0
 11 12  1  0  0  0  0
 11 13  1  0  0  0  0
M  END
>  <CHROM.0>
-49.94972780,-74.77538520,-55.28955495,-53.11195427,-56.66589904,-57.25034619
-58.30037269,63.26442879,-166.72298545,161.08424370

>  <CHROM.1>
101.10784949,17.21808813,22.01952730,-15.77480126,4.18204635,2.37323488,-0.30035723
-2.59633113

>  <Name>
P29568059

>  <RI>
0

>  <Rbt.Current_Directory>
/home/fstefaniak/projects/zuza/docking/adenine/1Y26

>  <Rbt.Executable>
rbdock ($Id: //depot/dev/client3/rdock/2013.1/src/exe/rbdock.cxx#4 $)

>  <Rbt.Library>
libRbt.so (2013.1, Build901 2013/11/27)

>  <Rbt.Parameter_File>
/home/fstefaniak/progs/rDock//data/scripts/dock_solv.prm

>  <Rbt.Receptor>
1y26.prm

>  <SCORE>
-50.3258

>  <SCORE.INTER>
-30.4774

>  <SCORE.INTER.CONST>
1

>  <SCORE.INTER.POLAR>
-3.62653

>  <SCORE.INTER.ROT>
2

>  <SCORE.INTER.SOLV>
10.7423

>  <SCORE.INTER.VDW>
-16.744

>  <SCORE.INTER.norm>
-2.77067

>  <SCORE.INTRA>
1.28718

>  <SCORE.INTRA.DIHEDRAL>
2.6657

>  <SCORE.INTRA.DIHEDRAL.0>
1.23488

>  <SCORE.INTRA.POLAR>
0

>  <SCORE.INTRA.POLAR.0>
0

>  <SCORE.INTRA.REPUL>
0

>  <SCORE.INTRA.REPUL.0>
0

>  <SCORE.INTRA.SOLV>
0.0892688

>  <SCORE.INTRA.SOLV.lig_0>
-11.9379

>  <SCORE.INTRA.VDW>
-0.090303

>  <SCORE.INTRA.VDW.0>
-0.572882

>  <SCORE.INTRA.norm>
0.117017

>  <SCORE.RESTR>
0

>  <SCORE.RESTR.CAVITY>
0

>  <SCORE.RESTR.norm>
0

>  <SCORE.SYSTEM>
-21.1356

>  <SCORE.SYSTEM.CONST>
0

>  <SCORE.SYSTEM.DIHEDRAL>
6.3096

>  <SCORE.SYSTEM.POLAR>
-3.43537

>  <SCORE.SYSTEM.SOLV>
0.425295

>  <SCORE.SYSTEM.VDW>
-4.88412

>  <SCORE.SYSTEM.norm>
-1.92141

>  <SCORE.heavy>
11

>  <SCORE.norm>
-4.57507

$$$$
P30393900
 OpenBabel12072022103D
libRbt.so/2013.1/901 2013/11/27
 14 14  0  0  0  0  0  0  0  0999 V2000
   19.6020  -19.1847    7.2538 C   0  0  0  0  0  0  0  0  0  0  0  0
   19.0202  -18.4440    6.0527 C   0  0  2  0  0  0  0  0  0  0  0  0
   17.6529  -19.0593    5.6566 C   0  0  0  0  0  0  0  0  0  0  0  0
   17.4002  -19.5756    4.5736 O   0  0  0  0  0  0  0  0  0  0  0  0
   16.7184  -19.0373    6.6588 N   0  0  0  0  0  0  0  0  0  0  0  0
   19.8645  -18.3386    4.8366 N   0  0  0  0  0  0  0  0  0  0  0  0
   19.1144  -18.1190    3.5885 C   0  0  0  0  0  0  0  0  0  0  0  0
   18.8958  -16.6495    3.1664 C   0  0  0  0  0  0  0  0  0  0  0  0
   20.1322  -15.8607    3.1792 N   0  0  0  0  0  0  0  0  0  0  0  0
   20.7785  -15.9653    4.4920 C   0  0  0  0  0  0  0  0  0  0  0  0
   21.0189  -17.4268    4.9345 C   0  0  0  0  0  0  0  0  0  0  0  0
   16.5708  -19.9119    7.1526 H   0  0  0  0  0  0  0  0  0  0  0  0
   16.6079  -18.1700    7.1642 H   0  0  0  0  0  0  0  0  0  0  0  0
   19.9169  -14.8843    2.9828 H   0  0  0  0  0  0  0  0  0  0  0  0
  2  3  1  0  0  0  0
  2  6  1  0  0  0  0
  2  1  1  1  0  0  0
  3  4  2  0  0  0  0
  3  5  1  0  0  0  0
  5 12  1  0  0  0  0
  5 13  1  0  0  0  0
  6  7  1  0  0  0  0
  6 11  1  0  0  0  0
  7  8  1  0  0  0  0
  8  9  1  0  0  0  0
  9 10  1  0  0  0  0
  9 14  1  0  0  0  0
 10 11  1  0  0  0  0
M  END
>  <CHROM.0>
-50.74266567,-59.56817507,-52.73790125,-52.97184090,-61.23596095,-60.36936006
-57.99051314,-174.19492039,-166.84495757,160.17614081

>  <CHROM.1>
-118.90445952,156.81052627,-101.67201830,19.08281242,-17.97413177,4.95453987
-2.23896925,-0.45623774,-1.04649844

>  <Name>
P30393900

>  <RI>
0

>  <Rbt.Current_Directory>
/home/fstefaniak/projects/zuza/docking/adenine/1Y26

>  <Rbt.Executable>
rbdock ($Id: //depot/dev/client3/rdock/2013.1/src/exe/rbdock.cxx#4 $)

>  <Rbt.Library>
libRbt.so (2013.1, Build901 2013/11/27)

>  <Rbt.Parameter_File>
/home/fstefaniak/progs/rDock//data/scripts/dock_solv.prm

>  <Rbt.Receptor>
1y26.prm

>  <SCORE>
-39.5494

>  <SCORE.INTER>
-21.8788

>  <SCORE.INTER.CONST>
1

>  <SCORE.INTER.POLAR>
-4.4791

>  <SCORE.INTER.ROT>
3

>  <SCORE.INTER.SOLV>
15.2068

>  <SCORE.INTER.VDW>
-10.3245

>  <SCORE.INTER.norm>
-1.98898

>  <SCORE.INTRA>
4.93406

>  <SCORE.INTRA.DIHEDRAL>
0.105148

>  <SCORE.INTRA.DIHEDRAL.0>
1.73585

>  <SCORE.INTRA.POLAR>
0.0912391

>  <SCORE.INTRA.POLAR.0>
-0.0912391

>  <SCORE.INTRA.REPUL>
0

>  <SCORE.INTRA.REPUL.0>
0

>  <SCORE.INTRA.SOLV>
-0.167114

>  <SCORE.INTRA.SOLV.lig_0>
-15.622

>  <SCORE.INTRA.VDW>
4.65483

>  <SCORE.INTRA.VDW.0>
1.25119

>  <SCORE.INTRA.norm>
0.448551

>  <SCORE.RESTR>
0

>  <SCORE.RESTR.CAVITY>
0

>  <SCORE.RESTR.norm>
0

>  <SCORE.SYSTEM>
-22.6047

>  <SCORE.SYSTEM.CONST>
0

>  <SCORE.SYSTEM.DIHEDRAL>
5.54636

>  <SCORE.SYSTEM.POLAR>
-3.46191

>  <SCORE.SYSTEM.SOLV>
0.452959

>  <SCORE.SYSTEM.VDW>
-5.52987

>  <SCORE.SYSTEM.norm>
-2.05497

>  <SCORE.heavy>
11

>  <SCORE.norm>
-3.5954

$$$$
P30393900
 OpenBabel12072022103D
libRbt.so/2013.1/901 2013/11/27
 14 14  0  0  0  0  0  0  0  0999 V2000
   19.6056  -19.1776    7.2629 C   0  0  0  0  0  0  0  0  0  0  0  0
   19.0196  -18.4431    6.0600 C   0  0  2  0  0  0  0  0  0  0  0  0
   17.6577  -19.0696    5.6630 C   0  0  0  0  0  0  0  0  0  0  0  0
   17.4135  -19.5981    4.5840 O   0  0  0  0  0  0  0  0  0  0  0  0
   16.7177  -19.0424    6.6600 N   0  0  0  0  0  0  0  0  0  0  0  0
   19.8646  -18.3326    4.8449 N   0  0  0  0  0  0  0  0  0  0  0  0
   19.1150  -18.1118    3.5968 C   0  0  0  0  0  0  0  0  0  0  0  0
   18.8931  -16.6418    3.1781 C   0  0  0  0  0  0  0  0  0  0  0  0
   20.1275  -15.8499    3.1939 N   0  0  0  0  0  0  0  0  0  0  0  0
   20.7730  -15.9562    4.5069 C   0  0  0  0  0  0  0  0  0  0  0  0
   21.0167  -17.4182    4.9460 C   0  0  0  0  0  0  0  0  0  0  0  0
   16.5550  -19.9187    7.1459 H   0  0  0  0  0  0  0  0  0  0  0  0
   16.6164  -18.1776    7.1716 H   0  0  0  0  0  0  0  0  0  0  0  0
   19.9099  -14.8736    2.9996 H   0  0  0  0  0  0  0  0  0  0  0  0
  2  3  1  0  0  0  0
  2  6  1  0  0  0  0
  2  1  1  1  0  0  0
  3  4  2  0  0  0  0
  3  5  1  0  0  0  0
  5 12  1  0  0  0  0
  5 13  1  0  0  0  0
  6  7  1  0  0  0  0
  6 11  1  0  0  0  0
  7  8  1  0  0  0  0
  8  9  1  0  0  0  0
  9 10  1  0  0  0  0
  9 14  1  0  0  0  0
 10 11  1  0  0  0  0
M  END
>  <CHROM.0>
-44.19390585,-60.92745907,-64.59258473,-49.99368104,-174.68056574,-58.43985783
-169.11970406,-52.11134442,-167.65637921,159.65632087

>  <CHROM.1>
-118.32712309,157.18711872,-103.18870571,19.08339739,-17.97252537,4.96395235
-2.23916441,-0.46240270,-1.04505434

>  <Name>
P30393900

>  <RI>
0

>  <Rbt.Current_Directory>
/home/fstefaniak/projects/zuza/docking/adenine/1Y26

>  <Rbt.Executable>
rbdock ($Id: //depot/dev/client3/rdock/2013.1/src/exe/rbdock.cxx#4 $)

>  <Rbt.Library>
libRbt.so (2013.1, Build901 2013/11/27)

>  <Rbt.Parameter_File>
/home/fstefaniak/progs/rDock//data/scripts/dock_solv.prm

>  <Rbt.Receptor>
1y26.prm

>  <SCORE>
-38.0361

>  <SCORE.INTER>
-21.5668

>  <SCORE.INTER.CONST>
1

>  <SCORE.INTER.POLAR>
-4.44708

>  <SCORE.INTER.ROT>
3

>  <SCORE.INTER.SOLV>
15.2272

>  <SCORE.INTER.VDW>
-10.23

>  <SCORE.INTER.norm>
-1.96062

>  <SCORE.INTRA>
4.6554

>  <SCORE.INTRA.DIHEDRAL>
0.0887726

>  <SCORE.INTRA.DIHEDRAL.0>
1.73585

>  <SCORE.INTRA.POLAR>
0.0912391

>  <SCORE.INTRA.POLAR.0>
-0.0912391

>  <SCORE.INTRA.REPUL>
0

>  <SCORE.INTRA.REPUL.0>
0

>  <SCORE.INTRA.SOLV>
-0.172085

>  <SCORE.INTRA.SOLV.lig_0>
-15.622

>  <SCORE.INTRA.VDW>
4.38684

>  <SCORE.INTRA.VDW.0>
1.25119

>  <SCORE.INTRA.norm>
0.423218

>  <SCORE.RESTR>
0

>  <SCORE.RESTR.CAVITY>
0

>  <SCORE.RESTR.norm>
0

>  <SCORE.SYSTEM>
-21.1247

>  <SCORE.SYSTEM.CONST>
0

>  <SCORE.SYSTEM.DIHEDRAL>
7.15263

>  <SCORE.SYSTEM.POLAR>
-3.57465

>  <SCORE.SYSTEM.SOLV>
0.452202

>  <SCORE.SYSTEM.VDW>
-4.70259

>  <SCORE.SYSTEM.norm>
-1.92043

>  <SCORE.heavy>
11

>  <SCORE.norm>
-3.45783

$$$$
P30393900
 OpenBabel12072022103D
libRbt.so/2013.1/901 2013/11/27
 14 14  0  0  0  0  0  0  0  0999 V2000
   21.8290  -15.8455    4.4398 C   0  0  0  0  0  0  0  0  0  0  0  0
   21.1328  -17.1929    4.2685 C   0  0  2  0  0  0  0  0  0  0  0  0
   21.0596  -17.5693    2.7658 C   0  0  0  0  0  0  0  0  0  0  0  0
   20.2461  -17.1200    1.9661 O   0  0  0  0  0  0  0  0  0  0  0  0
   22.0411  -18.4343    2.3575 N   0  0  0  0  0  0  0  0  0  0  0  0
   19.7822  -17.3483    4.8640 N   0  0  0  0  0  0  0  0  0  0  0  0
   18.9033  -18.2893    4.1495 C   0  0  0  0  0  0  0  0  0  0  0  0
   18.9272  -19.7559    4.6332 C   0  0  0  0  0  0  0  0  0  0  0  0
   18.7589  -19.8823    6.0847 N   0  0  0  0  0  0  0  0  0  0  0  0
   19.7557  -19.0586    6.7774 C   0  0  0  0  0  0  0  0  0  0  0  0
   19.7461  -17.5822    6.3192 C   0  0  0  0  0  0  0  0  0  0  0  0
   22.4690  -19.0006    3.0832 H   0  0  0  0  0  0  0  0  0  0  0  0
   21.9551  -18.8202    1.4282 H   0  0  0  0  0  0  0  0  0  0  0  0
   18.8732  -20.8571    6.3586 H   0  0  0  0  0  0  0  0  0  0  0  0
  2  3  1  0  0  0  0
  2  6  1  0  0  0  0
  2  1  1  6  0  0  0
  3  4  2  0  0  0  0
  3  5  1  0  0  0  0
  5 12  1  0  0  0  0
  5 13  1  0  0  0  0
  6  7  1  0  0  0  0
  6 11  1  0  0  0  0
  7  8  1  0  0  0  0
  8  9  1  0  0  0  0
  9 10  1  0  0  0  0
  9 14  1  0  0  0  0
 10 11  1  0  0  0  0
M  END
>  <CHROM.0>
-51.18625540,-58.94548690,-56.12562274,-52.12006696,-55.09196296,-56.89771688
-55.28844667,-50.31307031,-165.60058021,159.69461655

>  <CHROM.1>
-79.08180496,150.03843924,22.47065000,20.20972432,-18.02263476,4.39669192
-0.58073161,0.92982443,1.23256251

>  <Name>
P30393900

>  <RI>
0

>  <Rbt.Current_Directory>
/home/fstefaniak/projects/zuza/docking/adenine/1Y26

>  <Rbt.Executable>
rbdock ($Id: //depot/dev/client3/rdock/2013.1/src/exe/rbdock.cxx#4 $)

>  <Rbt.Library>
libRbt.so (2013.1, Build901 2013/11/27)

>  <Rbt.Parameter_File>
/home/fstefaniak/progs/rDock//data/scripts/dock_solv.prm

>  <Rbt.Receptor>
1y26.prm

>  <SCORE>
-37.5641

>  <SCORE.INTER>
-17.4348

>  <SCORE.INTER.CONST>
1

>  <SCORE.INTER.POLAR>
-2.89631

>  <SCORE.INTER.ROT>
3

>  <SCORE.INTER.SOLV>
14.8013

>  <SCORE.INTER.VDW>
-12.5026

>  <SCORE.INTER.norm>
-1.58498

>  <SCORE.INTRA>
1.96237

>  <SCORE.INTRA.DIHEDRAL>
1.64987

>  <SCORE.INTRA.DIHEDRAL.0>
1.73585

>  <SCORE.INTRA.POLAR>
0.0912391

>  <SCORE.INTRA.POLAR.0>
-0.0912391

>  <SCORE.INTRA.REPUL>
0

>  <SCORE.INTRA.REPUL.0>
0

>  <SCORE.INTRA.SOLV>
-0.056778

>  <SCORE.INTRA.SOLV.lig_0>
-15.622

>  <SCORE.INTRA.VDW>
0.855608

>  <SCORE.INTRA.VDW.0>
1.25119

>  <SCORE.INTRA.norm>
0.178397

>  <SCORE.RESTR>
0

>  <SCORE.RESTR.CAVITY>
0

>  <SCORE.RESTR.norm>
0

>  <SCORE.SYSTEM>
-22.0917

>  <SCORE.SYSTEM.CONST>
0

>  <SCORE.SYSTEM.DIHEDRAL>
6.11074

>  <SCORE.SYSTEM.POLAR>
-3.51146

>  <SCORE.SYSTEM.SOLV>
0.678887

>  <SCORE.SYSTEM.VDW>
-5.28612

>  <SCORE.SYSTEM.norm>
-2.00834

>  <SCORE.heavy>
11

>  <SCORE.norm>
-3.41492

$$$$
P32736201
 OpenBabel12072022103D
libRbt.so/2013.1/901 2013/11/27
 12 12  0  0  0  0  0  0  0  0999 V2000
   19.7046  -16.6305    4.0704 C   0  0  0  0  0  0  0  0  0  0  0  0
   20.1114  -18.0597    4.4021 C   0  0  2  0  0  0  0  0  0  0  0  0
   19.1379  -19.1580    3.9498 C   0  0  1  0  0  0  0  0  0  0  0  0
   18.2982  -19.4061    5.1864 C   0  0  1  0  0  0  0  0  0  0  0  0
   19.3261  -19.1705    6.2944 C   0  0  1  0  0  0  0  0  0  0  0  0
   20.2410  -18.1725    5.8324 O   0  0  0  0  0  0  0  0  0  0  0  0
   18.7016  -18.7506    7.4914 O   0  0  0  0  0  0  0  0  0  0  0  0
   17.2273  -18.4445    5.2643 O   0  0  0  0  0  0  0  0  0  0  0  0
   18.3433  -18.8412    2.8157 O   0  0  0  0  0  0  0  0  0  0  0  0
   18.0862  -18.0487    7.2039 H   0  0  0  0  0  0  0  0  0  0  0  0
   17.1014  -18.1097    4.3564 H   0  0  0  0  0  0  0  0  0  0  0  0
   18.9575  -18.6099    2.0941 H   0  0  0  0  0  0  0  0  0  0  0  0
  2  3  1  0  0  0  0
  2  6  1  0  0  0  0
  2  1  1  1  0  0  0
  3  4  1  0  0  0  0
  3  9  1  6  0  0  0
  4  8  1  1  0  0  0
  4  5  1  0  0  0  0
  5  6  1  0  0  0  0
  5  7  1  1  0  0  0
  7 10  1  0  0  0  0
  8 11  1  0  0  0  0
  9 12  1  0  0  0  0
M  END
>  <CHROM.0>
-50.48121731,-172.78706410,-54.67301320,-51.70325281,-57.25422639,-176.81745637
-58.12501407,63.32215292,-167.81092073,160.30023131

>  <CHROM.1>
56.53607487,21.51264249,-47.25918273,18.96495577,-18.48400627,5.03690223
-1.54594316,0.54448882,1.71086411

>  <Name>
P32736201

>  <RI>
0

>  <Rbt.Current_Directory>
/home/fstefaniak/projects/zuza/docking/adenine/1Y26

>  <Rbt.Executable>
rbdock ($Id: //depot/dev/client3/rdock/2013.1/src/exe/rbdock.cxx#4 $)

>  <Rbt.Library>
libRbt.so (2013.1, Build901 2013/11/27)

>  <Rbt.Parameter_File>
/home/fstefaniak/progs/rDock//data/scripts/dock_solv.prm

>  <Rbt.Receptor>
1y26.prm

>  <SCORE>
-51.6159

>  <SCORE.INTER>
-30.1157

>  <SCORE.INTER.CONST>
1

>  <SCORE.INTER.POLAR>
-4.4828

>  <SCORE.INTER.ROT>
0

>  <SCORE.INTER.SOLV>
13.2695

>  <SCORE.INTER.VDW>
-13.1576

>  <SCORE.INTER.norm>
-3.34619

>  <SCORE.INTRA>
-0.155842

>  <SCORE.INTRA.DIHEDRAL>
1.12094

>  <SCORE.INTRA.DIHEDRAL.0>
4.76642

>  <SCORE.INTRA.POLAR>
-0.19544

>  <SCORE.INTRA.POLAR.0>
-0.323118

>  <SCORE.INTRA.REPUL>
0

>  <SCORE.INTRA.REPUL.0>
0

>  <SCORE.INTRA.SOLV>
-0.0797892

>  <SCORE.INTRA.SOLV.lig_0>
-15.752

>  <SCORE.INTRA.VDW>
-0.0119187

>  <SCORE.INTRA.VDW.0>
0.732915

>  <SCORE.INTRA.norm>
-0.0173158

>  <SCORE.RESTR>
0

>  <SCORE.RESTR.CAVITY>
0

>  <SCORE.RESTR.norm>
0

>  <SCORE.SYSTEM>
-21.3443

>  <SCORE.SYSTEM.CONST>
0

>  <SCORE.SYSTEM.DIHEDRAL>
5.63218

>  <SCORE.SYSTEM.POLAR>
-3.45826

>  <SCORE.SYSTEM.SOLV>
0.2334

>  <SCORE.SYSTEM.VDW>
-4.65723

>  <SCORE.SYSTEM.norm>
-2.37159

>  <SCORE.heavy>
9

>  <SCORE.norm>
-5.7351

$$$$
P32736201
 OpenBabel12072022103D
libRbt.so/2013.1/901 2013/11/27
 12 12  0  0  0  0  0  0  0  0999 V2000
   19.5733  -16.8247    4.0592 C   0  0  0  0  0  0  0  0  0  0  0  0
   20.0768  -18.2047    4.4589 C   0  0  2  0  0  0  0  0  0  0  0  0
   19.1471  -19.3815    4.1282 C   0  0  1  0  0  0  0  0  0  0  0  0
   18.3838  -19.5924    5.4200 C   0  0  1  0  0  0  0  0  0  0  0  0
   19.4489  -19.2290    6.4559 C   0  0  1  0  0  0  0  0  0  0  0  0
   20.2817  -18.2157    5.8848 O   0  0  0  0  0  0  0  0  0  0  0  0
   18.8601  -18.7654    7.6549 O   0  0  0  0  0  0  0  0  0  0  0  0
   17.2646  -18.6870    5.4925 O   0  0  0  0  0  0  0  0  0  0  0  0
   18.2817  -19.1837    3.0192 O   0  0  0  0  0  0  0  0  0  0  0  0
   18.3468  -17.9816    7.3789 H   0  0  0  0  0  0  0  0  0  0  0  0
   16.8889  -18.7967    6.3864 H   0  0  0  0  0  0  0  0  0  0  0  0
   18.8484  -19.0284    2.2406 H   0  0  0  0  0  0  0  0  0  0  0  0
  2  3  1  0  0  0  0
  2  6  1  0  0  0  0
  2  1  1  1  0  0  0
  3  4  1  0  0  0  0
  3  9  1  6  0  0  0
  4  8  1  6  0  0  0
  4  5  1  0  0  0  0
  5  6  1  0  0  0  0
  5  7  1  1  0  0  0
  7 10  1  0  0  0  0
  8 11  1  0  0  0  0
  9 12  1  0  0  0  0
M  END
>  <CHROM.0>
-52.53124847,-172.16096951,-54.12776281,-53.20214615,-57.86701396,-60.41715513
-60.17517979,-53.17799932,-165.59075999,160.44674373

>  <CHROM.1>
60.35476182,-173.09189925,-59.82889536,18.98840537,-18.64981930,5.19173116
-1.58367380,0.59342634,1.66841171

>  <Name>
P32736201

>  <RI>
0

>  <Rbt.Current_Directory>
/home/fstefaniak/projects/zuza/docking/adenine/1Y26

>  <Rbt.Executable>
rbdock ($Id: //depot/dev/client3/rdock/2013.1/src/exe/rbdock.cxx#4 $)

>  <Rbt.Library>
libRbt.so (2013.1, Build901 2013/11/27)

>  <Rbt.Parameter_File>
/home/fstefaniak/progs/rDock//data/scripts/dock_solv.prm

>  <Rbt.Receptor>
1y26.prm

>  <SCORE>
-50.6305

>  <SCORE.INTER>
-26.4902

>  <SCORE.INTER.CONST>
1

>  <SCORE.INTER.POLAR>
-3.84858

>  <SCORE.INTER.ROT>
0

>  <SCORE.INTER.SOLV>
14.0061

>  <SCORE.INTER.VDW>
-13.1002

>  <SCORE.INTER.norm>
-2.94335

>  <SCORE.INTRA>
-1.74591

>  <SCORE.INTRA.DIHEDRAL>
-4.28487

>  <SCORE.INTRA.DIHEDRAL.0>
4.76642

>  <SCORE.INTRA.POLAR>
0.323118

>  <SCORE.INTRA.POLAR.0>
-0.323118

>  <SCORE.INTRA.REPUL>
0

>  <SCORE.INTRA.REPUL.0>
0

>  <SCORE.INTRA.SOLV>
-0.0912995

>  <SCORE.INTRA.SOLV.lig_0>
-15.752

>  <SCORE.INTRA.VDW>
-0.656433

>  <SCORE.INTRA.VDW.0>
0.732915

>  <SCORE.INTRA.norm>
-0.19399

>  <SCORE.RESTR>
0

>  <SCORE.RESTR.CAVITY>
0

>  <SCORE.RESTR.norm>
0

>  <SCORE.SYSTEM>
-22.3944

>  <SCORE.SYSTEM.CONST>
0

>  <SCORE.SYSTEM.DIHEDRAL>
5.75428

>  <SCORE.SYSTEM.POLAR>
-3.44995

>  <SCORE.SYSTEM.SOLV>
0.592688

>  <SCORE.SYSTEM.VDW>
-5.54543

>  <SCORE.SYSTEM.norm>
-2.48827

>  <SCORE.heavy>
9

>  <SCORE.norm>
-5.62561

$$$$
P32736201
 OpenBabel12072022103D
libRbt.so/2013.1/901 2013/11/27
 12 12  0  0  0  0  0  0  0  0999 V2000
   19.5483  -16.7984    4.0446 C   0  0  0  0  0  0  0  0  0  0  0  0
   20.0705  -18.1694    4.4518 C   0  0  2  0  0  0  0  0  0  0  0  0
   19.1580  -19.3607    4.1251 C   0  0  1  0  0  0  0  0  0  0  0  0
   18.3954  -19.5762    5.4166 C   0  0  1  0  0  0  0  0  0  0  0  0
   19.4536  -19.1930    6.4525 C   0  0  1  0  0  0  0  0  0  0  0  0
   20.2731  -18.1708    5.8780 O   0  0  0  0  0  0  0  0  0  0  0  0
   18.8563  -18.7320    7.6483 O   0  0  0  0  0  0  0  0  0  0  0  0
   17.2635  -18.6863    5.4830 O   0  0  0  0  0  0  0  0  0  0  0  0
   18.2917  -19.1802    3.0137 O   0  0  0  0  0  0  0  0  0  0  0  0
   18.3655  -17.9329    7.3751 H   0  0  0  0  0  0  0  0  0  0  0  0
   16.9008  -18.7810    6.3839 H   0  0  0  0  0  0  0  0  0  0  0  0
   18.8581  -19.0578    2.2290 H   0  0  0  0  0  0  0  0  0  0  0  0
  2  3  1  0  0  0  0
  2  6  1  0  0  0  0
  2  1  1  1  0  0  0
  3  4  1  0  0  0  0
  3  9  1  6  0  0  0
  4  8  1  6  0  0  0
  4  5  1  0  0  0  0
  5  6  1  0  0  0  0
  5  7  1  1  0  0  0
  7 10  1  0  0  0  0
  8 11  1  0  0  0  0
  9 12  1  0  0  0  0
M  END
>  <CHROM.0>
-52.63831784,-175.19367193,-55.44807584,-52.05236819,-175.34341053,-60.70954257
-58.44606818,-52.01776604,-166.40432035,160.91288210

>  <CHROM.1>
62.66976835,-171.76439581,-62.33591814,18.98752720,-18.62623425,5.18493337
-1.58427193,0.60850499,1.66277597

>  <Name>
P32736201

>  <RI>
0

>  <Rbt.Current_Directory>
/home/fstefaniak/projects/zuza/docking/adenine/1Y26

>  <Rbt.Executable>
rbdock ($Id: //depot/dev/client3/rdock/2013.1/src/exe/rbdock.cxx#4 $)

>  <Rbt.Library>
libRbt.so (2013.1, Build901 2013/11/27)

>  <Rbt.Parameter_File>
/home/fstefaniak/progs/rDock//data/scripts/dock_solv.prm

>  <Rbt.Receptor>
1y26.prm

>  <SCORE>
-50.6036

>  <SCORE.INTER>
-26.4763

>  <SCORE.INTER.CONST>
1

>  <SCORE.INTER.POLAR>
-3.8705

>  <SCORE.INTER.ROT>
0

>  <SCORE.INTER.SOLV>
13.9727

>  <SCORE.INTER.VDW>
-13.0067

>  <SCORE.INTER.norm>
-2.94181

>  <SCORE.INTRA>
-1.74844

>  <SCORE.INTRA.DIHEDRAL>
-4.13382

>  <SCORE.INTRA.DIHEDRAL.0>
4.76642

>  <SCORE.INTRA.POLAR>
0.323118

>  <SCORE.INTRA.POLAR.0>
-0.323118

>  <SCORE.INTRA.REPUL>
0

>  <SCORE.INTRA.REPUL.0>
0

>  <SCORE.INTRA.SOLV>
-0.0913633

>  <SCORE.INTRA.SOLV.lig_0>
-15.752

>  <SCORE.INTRA.VDW>
-0.734454

>  <SCORE.INTRA.VDW.0>
0.732915

>  <SCORE.INTRA.norm>
-0.194271

>  <SCORE.RESTR>
0

>  <SCORE.RESTR.CAVITY>
0

>  <SCORE.RESTR.norm>
0

>  <SCORE.SYSTEM>
-22.3788

>  <SCORE.SYSTEM.CONST>
0

>  <SCORE.SYSTEM.DIHEDRAL>
5.58163

>  <SCORE.SYSTEM.POLAR>
-3.44988

>  <SCORE.SYSTEM.SOLV>
0.437965

>  <SCORE.SYSTEM.VDW>
-5.42617

>  <SCORE.SYSTEM.norm>
-2.48654

>  <SCORE.heavy>
9

>  <SCORE.norm>
-5.62262

$$$$
P32804231
 OpenBabel12072022103D
libRbt.so/2013.1/901 2013/11/27
 10 11  0  0  0  0  0  0  0  0999 V2000
   21.1587  -17.6095    3.3551 C   0  0  0  0  0  0  0  0  0  0  0  0
   20.6281  -17.3606    4.7557 C   0  0  2  0  0  0  0  0  0  0  0  0
   19.9538  -18.5967    5.4154 C   0  0  2  0  0  0  0  0  0  0  0  0
   18.6452  -18.9531    4.7566 C   0  0  0  0  0  0  0  0  0  0  0  0
   18.1782  -18.1787    3.7598 C   0  0  0  0  0  0  0  0  0  0  0  0
   18.9759  -16.9802    3.3187 C   0  0  2  0  0  0  0  0  0  0  0  0
   20.0228  -17.4853    2.4826 O   0  0  0  0  0  0  0  0  0  0  0  0
   19.5888  -16.3948    4.4837 O   0  0  0  0  0  0  0  0  0  0  0  0
   19.6437  -18.2890    6.7741 O   0  0  0  0  0  0  0  0  0  0  0  0
   20.4672  -17.9337    7.1590 H   0  0  0  0  0  0  0  0  0  0  0  0
  1  7  1  0  0  0  0
  2  1  1  6  0  0  0
  2  3  1  0  0  0  0
  2  8  1  0  0  0  0
  3  4  1  0  0  0  0
  3  9  1  1  0  0  0
  4  5  2  0  0  0  0
  6  5  1  1  0  0  0
  6  7  1  0  0  0  0
  6  8  1  0  0  0  0
  9 10  1  0  0  0  0
M  END
>  <CHROM.0>
-50.58057526,59.87050170,-55.62177439,-54.85039155,-61.37367194,-63.78365756
-60.22957016,-178.94128387,-168.22944257,160.00587498

>  <CHROM.1>
-50.69339755,19.66983391,-17.73516776,4.37543111,-1.46572438,0.39871208,1.86918887

>  <Name>
P32804231

>  <RI>
0

>  <Rbt.Current_Directory>
/home/fstefaniak/projects/zuza/docking/adenine/1Y26

>  <Rbt.Executable>
rbdock ($Id: //depot/dev/client3/rdock/2013.1/src/exe/rbdock.cxx#4 $)

>  <Rbt.Library>
libRbt.so (2013.1, Build901 2013/11/27)

>  <Rbt.Parameter_File>
/home/fstefaniak/progs/rDock//data/scripts/dock_solv.prm

>  <Rbt.Receptor>
1y26.prm

>  <SCORE>
-42.8359

>  <SCORE.INTER>
-20.886

>  <SCORE.INTER.CONST>
1

>  <SCORE.INTER.POLAR>
-2.12138

>  <SCORE.INTER.ROT>
0

>  <SCORE.INTER.SOLV>
9.71716

>  <SCORE.INTER.VDW>
-13.6918

>  <SCORE.INTER.norm>
-2.32067

>  <SCORE.INTRA>
0.066335

>  <SCORE.INTRA.DIHEDRAL>
0.286545

>  <SCORE.INTRA.DIHEDRAL.0>
0.136428

>  <SCORE.INTRA.POLAR>
0

>  <SCORE.INTRA.POLAR.0>
0

>  <SCORE.INTRA.REPUL>
0

>  <SCORE.INTRA.REPUL.0>
0

>  <SCORE.INTRA.SOLV>
0.0343032

>  <SCORE.INTRA.SOLV.lig_0>
-9.36961

>  <SCORE.INTRA.VDW>
-0.0940892

>  <SCORE.INTRA.VDW.0>
0.214767

>  <SCORE.INTRA.norm>
0.00737055

>  <SCORE.RESTR>
0

>  <SCORE.RESTR.CAVITY>
0

>  <SCORE.RESTR.norm>
0

>  <SCORE.SYSTEM>
-22.0162

>  <SCORE.SYSTEM.CONST>
0

>  <SCORE.SYSTEM.DIHEDRAL>
5.07825

>  <SCORE.SYSTEM.POLAR>
-3.38654

>  <SCORE.SYSTEM.SOLV>
0.473226

>  <SCORE.SYSTEM.VDW>
-5.23946

>  <SCORE.SYSTEM.norm>
-2.44624

>  <SCORE.heavy>
9

>  <SCORE.norm>
-4.75954

$$$$
P32804231
 OpenBabel12072022103D
libRbt.so/2013.1/901 2013/11/27
 10 11  0  0  0  0  0  0  0  0999 V2000
   21.1588  -17.6143    3.3739 C   0  0  0  0  0  0  0  0  0  0  0  0
   20.6235  -17.3625    4.7722 C   0  0  2  0  0  0  0  0  0  0  0  0
   19.9377  -18.5943    5.4281 C   0  0  2  0  0  0  0  0  0  0  0  0
   18.6297  -18.9413    4.7631 C   0  0  0  0  0  0  0  0  0  0  0  0
   18.1726  -18.1632    3.7646 C   0  0  0  0  0  0  0  0  0  0  0  0
   18.9806  -16.9700    3.3279 C   0  0  2  0  0  0  0  0  0  0  0  0
   20.0277  -17.4818    2.4963 O   0  0  0  0  0  0  0  0  0  0  0  0
   19.5921  -16.3894    4.4960 O   0  0  0  0  0  0  0  0  0  0  0  0
   19.6235  -18.2852    6.7855 O   0  0  0  0  0  0  0  0  0  0  0  0
   20.4450  -17.9265    7.1717 H   0  0  0  0  0  0  0  0  0  0  0  0
  1  7  1  0  0  0  0
  2  1  1  6  0  0  0
  2  3  1  0  0  0  0
  2  8  1  0  0  0  0
  3  4  1  0  0  0  0
  3  9  1  1  0  0  0
  4  5  2  0  0  0  0
  6  5  1  1  0  0  0
  6  7  1  0  0  0  0
  6  8  1  0  0  0  0
  9 10  1  0  0  0  0
M  END
>  <CHROM.0>
-50.04823884,54.76863071,-56.30525769,-53.30279956,-55.76715216,-61.49210931
-60.10665623,-51.06201315,-166.98822983,160.35749901

>  <CHROM.1>
-50.08691792,19.66441392,-17.73016578,4.38731012,-1.45868684,0.39367375,1.86692716

>  <Name>
P32804231

>  <RI>
0

>  <Rbt.Current_Directory>
/home/fstefaniak/projects/zuza/docking/adenine/1Y26

>  <Rbt.Executable>
rbdock ($Id: //depot/dev/client3/rdock/2013.1/src/exe/rbdock.cxx#4 $)

>  <Rbt.Library>
libRbt.so (2013.1, Build901 2013/11/27)

>  <Rbt.Parameter_File>
/home/fstefaniak/progs/rDock//data/scripts/dock_solv.prm

>  <Rbt.Receptor>
1y26.prm

>  <SCORE>
-42.5117

>  <SCORE.INTER>
-20.922

>  <SCORE.INTER.CONST>
1

>  <SCORE.INTER.POLAR>
-2.13033

>  <SCORE.INTER.ROT>
0

>  <SCORE.INTER.SOLV>
9.71678

>  <SCORE.INTER.VDW>
-13.6858

>  <SCORE.INTER.norm>
-2.32467

>  <SCORE.INTRA>
0.103746

>  <SCORE.INTRA.DIHEDRAL>
0.3416

>  <SCORE.INTRA.DIHEDRAL.0>
0.136428

>  <SCORE.INTRA.POLAR>
0

>  <SCORE.INTRA.POLAR.0>
0

>  <SCORE.INTRA.REPUL>
0

>  <SCORE.INTRA.REPUL.0>
0

>  <SCORE.INTRA.SOLV>
0.0342174

>  <SCORE.INTRA.SOLV.lig_0>
-9.36961

>  <SCORE.INTRA.VDW>
-0.0841629

>  <SCORE.INTRA.VDW.0>
0.214767

>  <SCORE.INTRA.norm>
0.0115273

>  <SCORE.RESTR>
0

>  <SCORE.RESTR.CAVITY>
0

>  <SCORE.RESTR.norm>
0

>  <SCORE.SYSTEM>
-21.6934

>  <SCORE.SYSTEM.CONST>
0

>  <SCORE.SYSTEM.DIHEDRAL>
5.76549

>  <SCORE.SYSTEM.POLAR>
-3.48604

>  <SCORE.SYSTEM.SOLV>
0.716321

>  <SCORE.SYSTEM.VDW>
-5.00274

>  <SCORE.SYSTEM.norm>
-2.41038

>  <SCORE.heavy>
9

>  <SCORE.norm>
-4.72352

$$$$
P32804231
 OpenBabel12072022103D
libRbt.so/2013.1/901 2013/11/27
 10 11  0  0  0  0  0  0  0  0999 V2000
   21.2068  -17.5973    3.3862 C   0  0  0  0  0  0  0  0  0  0  0  0
   20.6474  -17.3439    4.7747 C   0  0  2  0  0  0  0  0  0  0  0  0
   19.9510  -18.5752    5.4205 C   0  0  2  0  0  0  0  0  0  0  0  0
   18.6548  -18.9237    4.7336 C   0  0  0  0  0  0  0  0  0  0  0  0
   18.2145  -18.1470    3.7264 C   0  0  0  0  0  0  0  0  0  0  0  0
   19.0294  -16.9540    3.3020 C   0  0  2  0  0  0  0  0  0  0  0  0
   20.0909  -17.4665    2.4892 O   0  0  0  0  0  0  0  0  0  0  0  0
   19.6206  -16.3717    4.4797 O   0  0  0  0  0  0  0  0  0  0  0  0
   19.6135  -18.2645    6.7719 O   0  0  0  0  0  0  0  0  0  0  0  0
   20.4247  -17.8938    7.1682 H   0  0  0  0  0  0  0  0  0  0  0  0
  1  7  1  0  0  0  0
  2  1  1  6  0  0  0
  2  3  1  0  0  0  0
  2  8  1  0  0  0  0
  3  4  1  0  0  0  0
  3  9  1  1  0  0  0
  4  5  2  0  0  0  0
  6  5  1  1  0  0  0
  6  7  1  0  0  0  0
  6  8  1  0  0  0  0
  9 10  1  0  0  0  0
M  END
>  <CHROM.0>
-46.82577999,61.29843883,-49.89831232,-48.84232251,-54.86295752,-179.59001422
-56.23216864,-47.52096209,-166.29148797,161.13419507

>  <CHROM.1>
-49.34333495,19.69523483,-17.71245337,4.37396203,-1.44087840,0.39924814,1.85861797

>  <Name>
P32804231

>  <RI>
0

>  <Rbt.Current_Directory>
/home/fstefaniak/projects/zuza/docking/adenine/1Y26

>  <Rbt.Executable>
rbdock ($Id: //depot/dev/client3/rdock/2013.1/src/exe/rbdock.cxx#4 $)

>  <Rbt.Library>
libRbt.so (2013.1, Build901 2013/11/27)

>  <Rbt.Parameter_File>
/home/fstefaniak/progs/rDock//data/scripts/dock_solv.prm

>  <Rbt.Receptor>
1y26.prm

>  <SCORE>
-41.8534

>  <SCORE.INTER>
-20.8685

>  <SCORE.INTER.CONST>
1

>  <SCORE.INTER.POLAR>
-2.11691

>  <SCORE.INTER.ROT>
0

>  <SCORE.INTER.SOLV>
9.69841

>  <SCORE.INTER.VDW>
-13.6888

>  <SCORE.INTER.norm>
-2.31872

>  <SCORE.INTRA>
0.152061

>  <SCORE.INTRA.DIHEDRAL>
0.41339

>  <SCORE.INTRA.DIHEDRAL.0>
0.136428

>  <SCORE.INTRA.POLAR>
0

>  <SCORE.INTRA.POLAR.0>
0

>  <SCORE.INTRA.REPUL>
0

>  <SCORE.INTRA.REPUL.0>
0

>  <SCORE.INTRA.SOLV>
0.0341118

>  <SCORE.INTRA.SOLV.lig_0>
-9.36961

>  <SCORE.INTRA.VDW>
-0.0716893

>  <SCORE.INTRA.VDW.0>
0.214767

>  <SCORE.INTRA.norm>
0.0168957

>  <SCORE.RESTR>
0

>  <SCORE.RESTR.CAVITY>
0

>  <SCORE.RESTR.norm>
0

>  <SCORE.SYSTEM>
-21.1369

>  <SCORE.SYSTEM.CONST>
0

>  <SCORE.SYSTEM.DIHEDRAL>
7.13045

>  <SCORE.SYSTEM.POLAR>
-3.65887

>  <SCORE.SYSTEM.SOLV>
0.585786

>  <SCORE.SYSTEM.VDW>
-4.46712

>  <SCORE.SYSTEM.norm>
-2.34855

>  <SCORE.heavy>
9

>  <SCORE.norm>
-4.65037

$$$$
P32822350
 OpenBabel12072022103D
libRbt.so/2013.1/901 2013/11/27
 15 15  0  0  0  0  0  0  0  0999 V2000
   22.3071  -13.3823    3.6404 C   0  0  0  0  0  0  0  0  0  0  0  0
   21.9490  -14.6850    4.3107 C   0  0  0  0  0  0  0  0  0  0  0  0
   22.6771  -15.1750    5.1659 O   0  0  0  0  0  0  0  0  0  0  0  0
   20.7454  -15.1883    3.8507 N   0  0  0  0  0  0  0  0  0  0  0  0
   20.1034  -16.3790    4.2490 C   0  0  0  0  0  0  0  0  0  0  0  0
   20.2787  -16.9821    5.4917 C   0  0  0  0  0  0  0  0  0  0  0  0
   19.6010  -18.1646    5.8047 C   0  0  0  0  0  0  0  0  0  0  0  0
   18.7428  -18.7581    4.8748 C   0  0  0  0  0  0  0  0  0  0  0  0
   18.5589  -18.1736    3.6191 C   0  0  0  0  0  0  0  0  0  0  0  0
   19.2408  -16.9825    3.3247 C   0  0  0  0  0  0  0  0  0  0  0  0
   17.7694  -18.6017    2.5857 O   0  0  0  0  0  0  0  0  0  0  0  0
   18.3555  -18.7098    1.2966 C   0  0  0  0  0  0  0  0  0  0  0  0
   18.0945  -19.9062    5.2339 O   0  0  0  0  0  0  0  0  0  0  0  0
   20.2631  -14.6412    3.1483 H   0  0  0  0  0  0  0  0  0  0  0  0
   17.9977  -19.9267    6.2002 H   0  0  0  0  0  0  0  0  0  0  0  0
  1  2  1  0  0  0  0
  2  3  2  0  0  0  0
  2  4  1  0  0  0  0
  4  5  1  0  0  0  0
  4 14  1  0  0  0  0
  5  6  2  0  0  0  0
  5 10  1  0  0  0  0
  6  7  1  0  0  0  0
  7  8  2  0  0  0  0
  8  9  1  0  0  0  0
  8 13  1  0  0  0  0
  9 10  2  0  0  0  0
  9 11  1  0  0  0  0
 11 12  1  0  0  0  0
 13 15  1  0  0  0  0
M  END
>  <CHROM.0>
-49.13479894,65.23019466,-57.48789034,-54.07599269,-54.56999831,-64.73653024
-58.01157623,-49.40087170,-166.39988921,161.60824821

>  <CHROM.1>
25.97399837,26.34631753,-129.20330060,19.86808438,-17.02254807,4.08699931
0.22952632,-0.84879490,-1.12586780

>  <Name>
P32822350

>  <RI>
0

>  <Rbt.Current_Directory>
/home/fstefaniak/projects/zuza/docking/adenine/1Y26

>  <Rbt.Executable>
rbdock ($Id: //depot/dev/client3/rdock/2013.1/src/exe/rbdock.cxx#4 $)

>  <Rbt.Library>
libRbt.so (2013.1, Build901 2013/11/27)

>  <Rbt.Parameter_File>
/home/fstefaniak/progs/rDock//data/scripts/dock_solv.prm

>  <Rbt.Receptor>
1y26.prm

>  <SCORE>
-49.0945

>  <SCORE.INTER>
-30.3375

>  <SCORE.INTER.CONST>
1

>  <SCORE.INTER.POLAR>
-3.71841

>  <SCORE.INTER.ROT>
2

>  <SCORE.INTER.SOLV>
13.814

>  <SCORE.INTER.VDW>
-17.3683

>  <SCORE.INTER.norm>
-2.33366

>  <SCORE.INTRA>
2.70909

>  <SCORE.INTRA.DIHEDRAL>
6.26716

>  <SCORE.INTRA.DIHEDRAL.0>
0.0807983

>  <SCORE.INTRA.POLAR>
0

>  <SCORE.INTRA.POLAR.0>
0

>  <SCORE.INTRA.REPUL>
0

>  <SCORE.INTRA.REPUL.0>
0

>  <SCORE.INTRA.SOLV>
-0.360339

>  <SCORE.INTRA.SOLV.lig_0>
-15.0872

>  <SCORE.INTRA.VDW>
-0.24432

>  <SCORE.INTRA.VDW.0>
2.57206

>  <SCORE.INTRA.norm>
0.208392

>  <SCORE.RESTR>
0

>  <SCORE.RESTR.CAVITY>
0

>  <SCORE.RESTR.norm>
0

>  <SCORE.SYSTEM>
-21.466

>  <SCORE.SYSTEM.CONST>
0

>  <SCORE.SYSTEM.DIHEDRAL>
5.96805

>  <SCORE.SYSTEM.POLAR>
-3.43724

>  <SCORE.SYSTEM.SOLV>
0.672899

>  <SCORE.SYSTEM.VDW>
-5.06685

>  <SCORE.SYSTEM.norm>
-1.65123

>  <SCORE.heavy>
13

>  <SCORE.norm>
-3.7765

$$$$
P32822350
 OpenBabel12072022103D
libRbt.so/2013.1/901 2013/11/27
 15 15  0  0  0  0  0  0  0  0999 V2000
   22.2928  -13.3560    3.6477 C   0  0  0  0  0  0  0  0  0  0  0  0
   21.9433  -14.6593    4.3213 C   0  0  0  0  0  0  0  0  0  0  0  0
   22.6716  -15.1392    5.1822 O   0  0  0  0  0  0  0  0  0  0  0  0
   20.7468  -15.1756    3.8573 N   0  0  0  0  0  0  0  0  0  0  0  0
   20.1138  -16.3705    4.2570 C   0  0  0  0  0  0  0  0  0  0  0  0
   20.3074  -16.9803    5.4939 C   0  0  0  0  0  0  0  0  0  0  0  0
   19.6375  -18.1668    5.8088 C   0  0  0  0  0  0  0  0  0  0  0  0
   18.7690  -18.7576    4.8869 C   0  0  0  0  0  0  0  0  0  0  0  0
   18.5666  -18.1664    3.6372 C   0  0  0  0  0  0  0  0  0  0  0  0
   19.2409  -16.9714    3.3407 C   0  0  0  0  0  0  0  0  0  0  0  0
   17.7648  -18.5909    2.6118 O   0  0  0  0  0  0  0  0  0  0  0  0
   18.3336  -18.6877    1.3141 C   0  0  0  0  0  0  0  0  0  0  0  0
   18.1290  -19.9098    5.2479 O   0  0  0  0  0  0  0  0  0  0  0  0
   20.2630  -14.6357    3.1503 H   0  0  0  0  0  0  0  0  0  0  0  0
   17.9756  -19.9002    6.2069 H   0  0  0  0  0  0  0  0  0  0  0  0
  1  2  1  0  0  0  0
  2  3  2  0  0  0  0
  2  4  1  0  0  0  0
  4  5  1  0  0  0  0
  4 14  1  0  0  0  0
  5  6  2  0  0  0  0
  5 10  1  0  0  0  0
  6  7  1  0  0  0  0
  7  8  2  0  0  0  0
  8  9  1  0  0  0  0
  8 13  1  0  0  0  0
  9 10  2  0  0  0  0
  9 11  1  0  0  0  0
 11 12  1  0  0  0  0
 13 15  1  0  0  0  0
M  END
>  <CHROM.0>
-48.35907666,63.84243767,-55.88202672,-51.75070785,-56.96357251,-178.15521428
-58.57844377,-53.25490868,-165.25564628,161.07437508

>  <CHROM.1>
24.73487183,31.26082747,-129.30005986,19.87446438,-17.01002642,4.09942962
0.24642394,-0.84917413,-1.10565130

>  <Name>
P32822350

>  <RI>
0

>  <Rbt.Current_Directory>
/home/fstefaniak/projects/zuza/docking/adenine/1Y26

>  <Rbt.Executable>
rbdock ($Id: //depot/dev/client3/rdock/2013.1/src/exe/rbdock.cxx#4 $)

>  <Rbt.Library>
libRbt.so (2013.1, Build901 2013/11/27)

>  <Rbt.Parameter_File>
/home/fstefaniak/progs/rDock//data/scripts/dock_solv.prm

>  <Rbt.Receptor>
1y26.prm

>  <SCORE>
-48.9027

>  <SCORE.INTER>
-30.2988

>  <SCORE.INTER.CONST>
1

>  <SCORE.INTER.POLAR>
-3.70813

>  <SCORE.INTER.ROT>
2

>  <SCORE.INTER.SOLV>
13.8178

>  <SCORE.INTER.VDW>
-17.3781

>  <SCORE.INTER.norm>
-2.33068

>  <SCORE.INTRA>
2.73829

>  <SCORE.INTRA.DIHEDRAL>
6.39269

>  <SCORE.INTRA.DIHEDRAL.0>
0.0807983

>  <SCORE.INTRA.POLAR>
0

>  <SCORE.INTRA.POLAR.0>
0

>  <SCORE.INTRA.REPUL>
0

>  <SCORE.INTRA.REPUL.0>
0

>  <SCORE.INTRA.SOLV>
-0.359013

>  <SCORE.INTRA.SOLV.lig_0>
-15.0872

>  <SCORE.INTRA.VDW>
-0.27855

>  <SCORE.INTRA.VDW.0>
2.57206

>  <SCORE.INTRA.norm>
0.210637

>  <SCORE.RESTR>
0

>  <SCORE.RESTR.CAVITY>
0

>  <SCORE.RESTR.norm>
0

>  <SCORE.SYSTEM>
-21.3422

>  <SCORE.SYSTEM.CONST>
0

>  <SCORE.SYSTEM.DIHEDRAL>
5.91379

>  <SCORE.SYSTEM.POLAR>
-3.50161

>  <SCORE.SYSTEM.SOLV>
0.549145

>  <SCORE.SYSTEM.VDW>
-4.71041

>  <SCORE.SYSTEM.norm>
-1.64171

>  <SCORE.heavy>
13

>  <SCORE.norm>
-3.76175

$$$$
P32822350
 OpenBabel12072022103D
libRbt.so/2013.1/901 2013/11/27
 15 15  0  0  0  0  0  0  0  0999 V2000
   22.1408  -13.1466    3.8447 C   0  0  0  0  0  0  0  0  0  0  0  0
   21.8914  -14.5140    4.4299 C   0  0  0  0  0  0  0  0  0  0  0  0
   22.6300  -14.9750    5.2923 O   0  0  0  0  0  0  0  0  0  0  0  0
   20.7664  -15.1097    3.8887 N   0  0  0  0  0  0  0  0  0  0  0  0
   20.2346  -16.3794    4.1949 C   0  0  0  0  0  0  0  0  0  0  0  0
   20.5738  -17.1150    5.3275 C   0  0  0  0  0  0  0  0  0  0  0  0
   19.9970  -18.3687    5.5540 C   0  0  0  0  0  0  0  0  0  0  0  0
   19.0767  -18.9009    4.6467 C   0  0  0  0  0  0  0  0  0  0  0  0
   18.7287  -18.1827    3.4999 C   0  0  0  0  0  0  0  0  0  0  0  0
   19.3111  -16.9225    3.2922 C   0  0  0  0  0  0  0  0  0  0  0  0
   17.8567  -18.5341    2.5045 O   0  0  0  0  0  0  0  0  0  0  0  0
   18.3743  -18.7122    1.1940 C   0  0  0  0  0  0  0  0  0  0  0  0
   18.5323  -20.1241    4.9203 O   0  0  0  0  0  0  0  0  0  0  0  0
   20.2598  -14.5757    3.1932 H   0  0  0  0  0  0  0  0  0  0  0  0
   19.2214  -20.8037    4.8373 H   0  0  0  0  0  0  0  0  0  0  0  0
  1  2  1  0  0  0  0
  2  3  2  0  0  0  0
  2  4  1  0  0  0  0
  4  5  1  0  0  0  0
  4 14  1  0  0  0  0
  5  6  2  0  0  0  0
  5 10  1  0  0  0  0
  6  7  1  0  0  0  0
  7  8  2  0  0  0  0
  8  9  1  0  0  0  0
  8 13  1  0  0  0  0
  9 10  2  0  0  0  0
  9 11  1  0  0  0  0
 11 12  1  0  0  0  0
 13 15  1  0  0  0  0
M  END
>  <CHROM.0>
61.76464130,55.52338430,-62.47899010,-52.19267998,-57.69595131,-176.97035731
-167.40629343,-177.68882193,-167.17670069,160.88385974

>  <CHROM.1>
16.24990063,-68.90556821,-116.57151449,19.99945675,-17.01591510,4.01649121
0.39198420,-0.88430885,-0.86428827

>  <Name>
P32822350

>  <RI>
0

>  <Rbt.Current_Directory>
/home/fstefaniak/projects/zuza/docking/adenine/1Y26

>  <Rbt.Executable>
rbdock ($Id: //depot/dev/client3/rdock/2013.1/src/exe/rbdock.cxx#4 $)

>  <Rbt.Library>
libRbt.so (2013.1, Build901 2013/11/27)

>  <Rbt.Parameter_File>
/home/fstefaniak/progs/rDock//data/scripts/dock_solv.prm

>  <Rbt.Receptor>
1y26.prm

>  <SCORE>
-48.6239

>  <SCORE.INTER>
-31.2507

>  <SCORE.INTER.CONST>
1

>  <SCORE.INTER.POLAR>
-3.79352

>  <SCORE.INTER.ROT>
2

>  <SCORE.INTER.SOLV>
14.138

>  <SCORE.INTER.VDW>
-17.8347

>  <SCORE.INTER.norm>
-2.4039

>  <SCORE.INTRA>
2.58173

>  <SCORE.INTRA.DIHEDRAL>
8.96591

>  <SCORE.INTRA.DIHEDRAL.0>
0.0807983

>  <SCORE.INTRA.POLAR>
0

>  <SCORE.INTRA.POLAR.0>
0

>  <SCORE.INTRA.REPUL>
0

>  <SCORE.INTRA.REPUL.0>
0

>  <SCORE.INTRA.SOLV>
-0.310449

>  <SCORE.INTRA.SOLV.lig_0>
-15.0872

>  <SCORE.INTRA.VDW>
-1.74599

>  <SCORE.INTRA.VDW.0>
2.57206

>  <SCORE.INTRA.norm>
0.198595

>  <SCORE.RESTR>
0

>  <SCORE.RESTR.CAVITY>
0

>  <SCORE.RESTR.norm>
0

>  <SCORE.SYSTEM>
-19.9549

>  <SCORE.SYSTEM.CONST>
0

>  <SCORE.SYSTEM.DIHEDRAL>
5.58925

>  <SCORE.SYSTEM.POLAR>
-3.19872

>  <SCORE.SYSTEM.SOLV>
0.286053

>  <SCORE.SYSTEM.VDW>
-4.5993

>  <SCORE.SYSTEM.norm>
-1.53499

>  <SCORE.heavy>
13

>  <SCORE.norm>
-3.7403

$$$$
P32833212
 OpenBabel12072022103D
libRbt.so/2013.1/901 2013/11/27
 16 17  0  0  0  0  0  0  0  0999 V2000
   20.1455  -18.3070    0.8994 C   0  0  0  0  0  0  0  0  0  0  0  0
   18.9711  -18.1787    1.8583 C   0  0  0  0  0  0  0  0  0  0  0  0
   18.9845  -16.8801    2.4532 O   0  0  0  0  0  0  0  0  0  0  0  0
   18.8173  -17.0691    3.8584 C   0  0  2  0  0  0  0  0  0  0  0  0
   20.0520  -16.7136    4.6884 C   0  0  1  0  0  0  0  0  0  0  0  0
   20.5915  -17.9482    5.2238 O   0  0  0  0  0  0  0  0  0  0  0  0
   19.5162  -18.8881    5.2618 C   0  0  2  0  0  0  0  0  0  0  0  0
   18.6203  -18.5459    4.0749 C   0  0  2  0  0  0  0  0  0  0  0  0
   19.0945  -19.1703    2.8757 O   0  0  0  0  0  0  0  0  0  0  0  0
   18.8423  -18.7517    6.5422 N   0  0  0  0  0  0  0  0  0  0  0  0
   21.1610  -15.9740    3.9500 C   0  0  0  0  0  0  0  0  0  0  0  0
   21.7630  -15.0187    4.8288 O   0  0  0  0  0  0  0  0  0  0  0  0
   17.6463  -18.3674    1.1225 C   0  0  0  0  0  0  0  0  0  0  0  0
   19.5610  -18.8322    7.2614 H   0  0  0  0  0  0  0  0  0  0  0  0
   18.2247  -19.5509    6.6752 H   0  0  0  0  0  0  0  0  0  0  0  0
   22.1438  -15.5456    5.5583 H   0  0  0  0  0  0  0  0  0  0  0  0
  1  2  1  0  0  0  0
  2  3  1  0  0  0  0
  2  9  1  0  0  0  0
  2 13  1  0  0  0  0
  4  3  1  6  0  0  0
  4  8  1  0  0  0  0
  5  4  1  0  0  0  0
  5  6  1  0  0  0  0
  5 11  1  6  0  0  0
  6  7  1  0  0  0  0
  7 10  1  1  0  0  0
  7  8  1  0  0  0  0
  8  9  1  6  0  0  0
 10 14  1  0  0  0  0
 10 15  1  0  0  0  0
 11 12  1  0  0  0  0
 12 16  1  0  0  0  0
M  END
>  <CHROM.0>
-50.36024539,176.44907016,-57.52864858,-52.43862580,-172.63430660,-59.01044818
-59.13639748,65.92095530,-167.05108916,160.71553160

>  <CHROM.1>
143.59709611,-52.92395019,62.00203407,19.58984331,-17.66389041,3.69074591
-2.32088931,0.88343272,1.78556653

>  <Name>
P32833212

>  <RI>
0

>  <Rbt.Current_Directory>
/home/fstefaniak/projects/zuza/docking/adenine/1Y26

>  <Rbt.Executable>
rbdock ($Id: //depot/dev/client3/rdock/2013.1/src/exe/rbdock.cxx#4 $)

>  <Rbt.Library>
libRbt.so (2013.1, Build901 2013/11/27)

>  <Rbt.Parameter_File>
/home/fstefaniak/progs/rDock//data/scripts/dock_solv.prm

>  <Rbt.Receptor>
1y26.prm

>  <SCORE>
-40.1753

>  <SCORE.INTER>
-20.2947

>  <SCORE.INTER.CONST>
1

>  <SCORE.INTER.POLAR>
-3.96369

>  <SCORE.INTER.ROT>
2

>  <SCORE.INTER.SOLV>
14.0077

>  <SCORE.INTER.VDW>
-9.92011

>  <SCORE.INTER.norm>
-1.56113

>  <SCORE.INTRA>
1.54366

>  <SCORE.INTRA.DIHEDRAL>
2.71608

>  <SCORE.INTRA.DIHEDRAL.0>
1.00794

>  <SCORE.INTRA.POLAR>
0.124289

>  <SCORE.INTRA.POLAR.0>
-0.124289

>  <SCORE.INTRA.REPUL>
0

>  <SCORE.INTRA.REPUL.0>
0

>  <SCORE.INTRA.SOLV>
-0.11647

>  <SCORE.INTRA.SOLV.lig_0>
-13.9775

>  <SCORE.INTRA.VDW>
-0.17873

>  <SCORE.INTRA.VDW.0>
-0.258406

>  <SCORE.INTRA.norm>
0.118743

>  <SCORE.RESTR>
0

>  <SCORE.RESTR.CAVITY>
0

>  <SCORE.RESTR.norm>
0

>  <SCORE.SYSTEM>
-21.4242

>  <SCORE.SYSTEM.CONST>
0

>  <SCORE.SYSTEM.DIHEDRAL>
5.58509

>  <SCORE.SYSTEM.POLAR>
-3.42595

>  <SCORE.SYSTEM.SOLV>
0.215202

>  <SCORE.SYSTEM.VDW>
-4.79643

>  <SCORE.SYSTEM.norm>
-1.64802

>  <SCORE.heavy>
13

>  <SCORE.norm>
-3.09041

$$$$
P32833212
 OpenBabel12072022103D
libRbt.so/2013.1/901 2013/11/27
 16 17  0  0  0  0  0  0  0  0999 V2000
   20.0269  -18.3359    0.8779 C   0  0  0  0  0  0  0  0  0  0  0  0
   18.8956  -18.1768    1.8829 C   0  0  0  0  0  0  0  0  0  0  0  0
   18.9916  -16.8948    2.5057 O   0  0  0  0  0  0  0  0  0  0  0  0
   18.8673  -17.1096    3.9117 C   0  0  2  0  0  0  0  0  0  0  0  0
   20.1468  -16.8313    4.7023 C   0  0  1  0  0  0  0  0  0  0  0  0
   20.6471  -18.1020    5.1893 O   0  0  0  0  0  0  0  0  0  0  0  0
   19.5310  -18.9920    5.2469 C   0  0  2  0  0  0  0  0  0  0  0  0
   18.6093  -18.5805    4.1024 C   0  0  2  0  0  0  0  0  0  0  0  0
   19.0095  -19.1972    2.8726 O   0  0  0  0  0  0  0  0  0  0  0  0
   18.9115  -18.8556    6.5544 N   0  0  0  0  0  0  0  0  0  0  0  0
   21.2615  -16.1260    3.9393 C   0  0  0  0  0  0  0  0  0  0  0  0
   22.5084  -16.3485    4.6049 O   0  0  0  0  0  0  0  0  0  0  0  0
   17.5374  -18.2865    1.1935 C   0  0  0  0  0  0  0  0  0  0  0  0
   18.6349  -17.8783    6.6468 H   0  0  0  0  0  0  0  0  0  0  0  0
   19.6182  -19.0138    7.2709 H   0  0  0  0  0  0  0  0  0  0  0  0
   22.3699  -16.0361    5.5203 H   0  0  0  0  0  0  0  0  0  0  0  0
  1  2  1  0  0  0  0
  2  3  1  0  0  0  0
  2  9  1  0  0  0  0
  2 13  1  0  0  0  0
  4  3  1  6  0  0  0
  4  8  1  0  0  0  0
  5  4  1  0  0  0  0
  5  6  1  0  0  0  0
  5 11  1  6  0  0  0
  6  7  1  0  0  0  0
  7 10  1  1  0  0  0
  7  8  1  0  0  0  0
  8  9  1  6  0  0  0
 10 14  1  0  0  0  0
 10 15  1  0  0  0  0
 11 12  1  0  0  0  0
 12 16  1  0  0  0  0
M  END
>  <CHROM.0>
-48.62120133,179.26462223,-55.89265361,-53.19647893,-177.42600786,-59.73720705
-58.77812902,65.38608745,-166.88272640,161.82103088

>  <CHROM.1>
-159.74871037,58.87679199,-55.75372260,19.65464343,-17.82266907,3.68386118
-2.24861201,0.64435658,1.78392779

>  <Name>
P32833212

>  <RI>
0

>  <Rbt.Current_Directory>
/home/fstefaniak/projects/zuza/docking/adenine/1Y26

>  <Rbt.Executable>
rbdock ($Id: //depot/dev/client3/rdock/2013.1/src/exe/rbdock.cxx#4 $)

>  <Rbt.Library>
libRbt.so (2013.1, Build901 2013/11/27)

>  <Rbt.Parameter_File>
/home/fstefaniak/progs/rDock//data/scripts/dock_solv.prm

>  <Rbt.Receptor>
1y26.prm

>  <SCORE>
-39.8268

>  <SCORE.INTER>
-19.2413

>  <SCORE.INTER.CONST>
1

>  <SCORE.INTER.POLAR>
-4.07275

>  <SCORE.INTER.ROT>
2

>  <SCORE.INTER.SOLV>
14.2139

>  <SCORE.INTER.VDW>
-8.92299

>  <SCORE.INTER.norm>
-1.4801

>  <SCORE.INTRA>
0.89335

>  <SCORE.INTRA.DIHEDRAL>
0.45816

>  <SCORE.INTRA.DIHEDRAL.0>
1.00794

>  <SCORE.INTRA.POLAR>
0.124289

>  <SCORE.INTRA.POLAR.0>
-0.124289

>  <SCORE.INTRA.REPUL>
0

>  <SCORE.INTRA.REPUL.0>
0

>  <SCORE.INTRA.SOLV>
0.237113

>  <SCORE.INTRA.SOLV.lig_0>
-13.9775

>  <SCORE.INTRA.VDW>
0.12313

>  <SCORE.INTRA.VDW.0>
-0.258406

>  <SCORE.INTRA.norm>
0.0687192

>  <SCORE.RESTR>
0

>  <SCORE.RESTR.CAVITY>
0

>  <SCORE.RESTR.norm>
0

>  <SCORE.SYSTEM>
-21.4788

>  <SCORE.SYSTEM.CONST>
0

>  <SCORE.SYSTEM.DIHEDRAL>
5.32189

>  <SCORE.SYSTEM.POLAR>
-3.41463

>  <SCORE.SYSTEM.SOLV>
0.215753

>  <SCORE.SYSTEM.VDW>
-4.78301

>  <SCORE.SYSTEM.norm>
-1.65222

>  <SCORE.heavy>
13

>  <SCORE.norm>
-3.0636

$$$$
P32833212
 OpenBabel12072022103D
libRbt.so/2013.1/901 2013/11/27
 16 17  0  0  0  0  0  0  0  0999 V2000
   20.1441  -18.3046    0.9287 C   0  0  0  0  0  0  0  0  0  0  0  0
   18.9664  -18.1871    1.8849 C   0  0  0  0  0  0  0  0  0  0  0  0
   18.9808  -16.8972    2.4986 O   0  0  0  0  0  0  0  0  0  0  0  0
   18.8079  -17.1060    3.9003 C   0  0  2  0  0  0  0  0  0  0  0  0
   20.0403  -16.7658    4.7399 C   0  0  1  0  0  0  0  0  0  0  0  0
   20.5747  -18.0095    5.2594 O   0  0  0  0  0  0  0  0  0  0  0  0
   19.4967  -18.9470    5.2799 C   0  0  2  0  0  0  0  0  0  0  0  0
   18.6063  -18.5853    4.0947 C   0  0  2  0  0  0  0  0  0  0  0  0
   19.0833  -19.1936    2.8883 O   0  0  0  0  0  0  0  0  0  0  0  0
   18.8184  -18.8274    6.5595 N   0  0  0  0  0  0  0  0  0  0  0  0
   21.1540  -16.0185    4.0165 C   0  0  0  0  0  0  0  0  0  0  0  0
   21.6956  -15.0167    4.8826 O   0  0  0  0  0  0  0  0  0  0  0  0
   17.6439  -18.3616    1.1415 C   0  0  0  0  0  0  0  0  0  0  0  0
   18.6501  -17.8327    6.7099 H   0  0  0  0  0  0  0  0  0  0  0  0
   19.4574  -19.1164    7.2984 H   0  0  0  0  0  0  0  0  0  0  0  0
   22.0962  -15.5091    5.6254 H   0  0  0  0  0  0  0  0  0  0  0  0
  1  2  1  0  0  0  0
  2  3  1  0  0  0  0
  2  9  1  0  0  0  0
  2 13  1  0  0  0  0
  4  3  1  6  0  0  0
  4  8  1  0  0  0  0
  5  4  1  0  0  0  0
  5  6  1  0  0  0  0
  5 11  1  6  0  0  0
  6  7  1  0  0  0  0
  7 10  1  1  0  0  0
  7  8  1  0  0  0  0
  8  9  1  6  0  0  0
 10 14  1  0  0  0  0
 10 15  1  0  0  0  0
 11 12  1  0  0  0  0
 12 16  1  0  0  0  0
M  END
>  <CHROM.0>
60.02948807,175.67482306,-53.34574970,-52.47024933,-175.01214172,-62.98399914
-47.88539926,-50.09155670,-164.21410832,160.48402070

>  <CHROM.1>
139.77661991,48.56472860,64.22143104,19.57628450,-17.68616155,3.72470043
-2.31246246,0.89385516,1.79077136

>  <Name>
P32833212

>  <RI>
0

>  <Rbt.Current_Directory>
/home/fstefaniak/projects/zuza/docking/adenine/1Y26

>  <Rbt.Executable>
rbdock ($Id: //depot/dev/client3/rdock/2013.1/src/exe/rbdock.cxx#4 $)

>  <Rbt.Library>
libRbt.so (2013.1, Build901 2013/11/27)

>  <Rbt.Parameter_File>
/home/fstefaniak/progs/rDock//data/scripts/dock_solv.prm

>  <Rbt.Receptor>
1y26.prm

>  <SCORE>
-39.5568

>  <SCORE.INTER>
-20.3975

>  <SCORE.INTER.CONST>
1

>  <SCORE.INTER.POLAR>
-4.17226

>  <SCORE.INTER.ROT>
2

>  <SCORE.INTER.SOLV>
14.0862

>  <SCORE.INTER.VDW>
-9.31956

>  <SCORE.INTER.norm>
-1.56904

>  <SCORE.INTRA>
1.84038

>  <SCORE.INTRA.DIHEDRAL>
3.20754

>  <SCORE.INTRA.DIHEDRAL.0>
1.00794

>  <SCORE.INTRA.POLAR>
0.124289

>  <SCORE.INTRA.POLAR.0>
-0.124289

>  <SCORE.INTRA.REPUL>
0

>  <SCORE.INTRA.REPUL.0>
0

>  <SCORE.INTRA.SOLV>
-0.0350093

>  <SCORE.INTRA.SOLV.lig_0>
-13.9775

>  <SCORE.INTRA.VDW>
-0.168472

>  <SCORE.INTRA.VDW.0>
-0.258406

>  <SCORE.INTRA.norm>
0.141567

>  <SCORE.RESTR>
0

>  <SCORE.RESTR.CAVITY>
0

>  <SCORE.RESTR.norm>
0

>  <SCORE.SYSTEM>
-20.9997

>  <SCORE.SYSTEM.CONST>
0

>  <SCORE.SYSTEM.DIHEDRAL>
6.58766

>  <SCORE.SYSTEM.POLAR>
-3.34928

>  <SCORE.SYSTEM.SOLV>
0.445622

>  <SCORE.SYSTEM.VDW>
-5.17995

>  <SCORE.SYSTEM.norm>
-1.61536

>  <SCORE.heavy>
13

>  <SCORE.norm>
-3.04283

$$$$
P33491762
 OpenBabel12072022103D
libRbt.so/2013.1/901 2013/11/27
 17 17  0  0  0  0  0  0  0  0999 V2000
   24.5008  -16.6271    4.7861 C   0  0  0  0  0  0  0  0  0  0  0  0
   23.7221  -15.6558    3.8949 C   0  0  0  0  0  0  0  0  0  0  0  0
   22.4336  -15.1771    4.5704 C   0  0  0  0  0  0  0  0  0  0  0  0
   22.6753  -14.1277    5.6625 C   0  0  0  0  0  0  0  0  0  0  0  0
   23.5423  -13.0031    5.2767 N   0  0  0  0  0  0  0  0  0  0  0  0
   24.7746  -13.4573    4.6289 C   0  0  0  0  0  0  0  0  0  0  0  0
   24.5725  -14.4495    3.4835 C   0  0  0  0  0  0  0  0  0  0  0  0
   22.8476  -11.7930    4.7371 C   0  0  0  0  0  0  0  0  0  0  0  0
   23.8152  -10.6064    4.5194 C   0  0  0  0  0  0  0  0  0  0  0  0
   22.0693  -12.0150    3.4299 C   0  0  0  0  0  0  0  0  0  0  0  0
   21.8437  -11.2952    5.8314 C   0  0  0  0  0  0  0  0  0  0  0  0
   20.7461  -10.7927    5.5910 O   0  0  0  0  0  0  0  0  0  0  0  0
   22.3399  -11.4235    7.1297 N   0  0  0  0  0  0  0  0  0  0  0  0
   21.4556  -11.2959    8.2255 N   0  0  0  0  0  0  0  0  0  0  0  0
   23.1762  -12.0048    7.2227 H   0  0  0  0  0  0  0  0  0  0  0  0
   20.7491  -12.0370    8.1238 H   0  0  0  0  0  0  0  0  0  0  0  0
   20.9159  -10.4382    8.0765 H   0  0  0  0  0  0  0  0  0  0  0  0
  1  2  1  0  0  0  0
  2  3  1  0  0  0  0
  2  7  1  0  0  0  0
  3  4  1  0  0  0  0
  4  5  1  0  0  0  0
  5  6  1  0  0  0  0
  5  8  1  0  0  0  0
  6  7  1  0  0  0  0
  8  9  1  0  0  0  0
  8 10  1  0  0  0  0
  8 11  1  0  0  0  0
 11 12  2  0  0  0  0
 11 13  1  0  0  0  0
 13 14  1  0  0  0  0
 13 15  1  0  0  0  0
 14 16  1  0  0  0  0
 14 17  1  0  0  0  0
M  END
>  <CHROM.0>
-51.30265774,-177.72435449,-65.80927564,-53.43998328,-56.14816448,-175.67064943
-171.50065781,-52.53348769,-167.23964711,160.90691803

>  <CHROM.1>
173.11323717,-144.93410588,-166.23174919,60.50874397,22.92686548,-12.95313665
5.16062498,0.56840903,-1.03242741,2.66428052

>  <Name>
P33491762

>  <RI>
0

>  <Rbt.Current_Directory>
/home/fstefaniak/projects/zuza/docking/adenine/1Y26

>  <Rbt.Executable>
rbdock ($Id: //depot/dev/client3/rdock/2013.1/src/exe/rbdock.cxx#4 $)

>  <Rbt.Library>
libRbt.so (2013.1, Build901 2013/11/27)

>  <Rbt.Parameter_File>
/home/fstefaniak/progs/rDock//data/scripts/dock_solv.prm

>  <Rbt.Receptor>
1y26.prm

>  <SCORE>
-33.4675

>  <SCORE.INTER>
-13.5458

>  <SCORE.INTER.CONST>
1

>  <SCORE.INTER.POLAR>
-1.70256

>  <SCORE.INTER.ROT>
4

>  <SCORE.INTER.SOLV>
8.44406

>  <SCORE.INTER.VDW>
-12.4367

>  <SCORE.INTER.norm>
-0.967558

>  <SCORE.INTRA>
-1.07954

>  <SCORE.INTRA.DIHEDRAL>
-0.572553

>  <SCORE.INTRA.DIHEDRAL.0>
2.84196

>  <SCORE.INTRA.POLAR>
-0.0559052

>  <SCORE.INTRA.POLAR.0>
-0.0983013

>  <SCORE.INTRA.REPUL>
0

>  <SCORE.INTRA.REPUL.0>
0

>  <SCORE.INTRA.SOLV>
0.194173

>  <SCORE.INTRA.SOLV.lig_0>
-13.5949

>  <SCORE.INTRA.VDW>
-0.700276

>  <SCORE.INTRA.VDW.0>
2.75756

>  <SCORE.INTRA.norm>
-0.0771102

>  <SCORE.RESTR>
2.44523

>  <SCORE.RESTR.CAVITY>
2.44523

>  <SCORE.RESTR.norm>
0.174659

>  <SCORE.SYSTEM>
-21.2873

>  <SCORE.SYSTEM.CONST>
0

>  <SCORE.SYSTEM.DIHEDRAL>
5.82448

>  <SCORE.SYSTEM.POLAR>
-3.38183

>  <SCORE.SYSTEM.SOLV>
0.40505

>  <SCORE.SYSTEM.VDW>
-4.99531

>  <SCORE.SYSTEM.norm>
-1.52052

>  <SCORE.heavy>
14

>  <SCORE.norm>
-2.39053

$$$$
P33491762
 OpenBabel12072022103D
libRbt.so/2013.1/901 2013/11/27
 17 17  0  0  0  0  0  0  0  0999 V2000
   22.6119   -9.7450    8.4552 C   0  0  0  0  0  0  0  0  0  0  0  0
   21.8056  -10.1044    7.2043 C   0  0  0  0  0  0  0  0  0  0  0  0
   22.6535   -9.9945    5.9337 C   0  0  0  0  0  0  0  0  0  0  0  0
   23.6301  -11.1633    5.7535 C   0  0  0  0  0  0  0  0  0  0  0  0
   23.0449  -12.5046    5.9077 N   0  0  0  0  0  0  0  0  0  0  0  0
   22.2320  -12.6125    7.1210 C   0  0  0  0  0  0  0  0  0  0  0  0
   21.1932  -11.5055    7.3011 C   0  0  0  0  0  0  0  0  0  0  0  0
   22.5576  -13.1570    4.6527 C   0  0  0  0  0  0  0  0  0  0  0  0
   21.6858  -14.4024    4.9365 C   0  0  0  0  0  0  0  0  0  0  0  0
   21.7748  -12.2384    3.7002 C   0  0  0  0  0  0  0  0  0  0  0  0
   23.8084  -13.7097    3.8891 C   0  0  0  0  0  0  0  0  0  0  0  0
   23.8702  -13.8537    2.6683 O   0  0  0  0  0  0  0  0  0  0  0  0
   24.8488  -14.0851    4.7405 N   0  0  0  0  0  0  0  0  0  0  0  0
   25.0611  -15.4562    5.0129 N   0  0  0  0  0  0  0  0  0  0  0  0
   25.6383  -13.4362    4.7790 H   0  0  0  0  0  0  0  0  0  0  0  0
   25.3251  -15.5237    6.0051 H   0  0  0  0  0  0  0  0  0  0  0  0
   25.9193  -15.7291    4.5250 H   0  0  0  0  0  0  0  0  0  0  0  0
  1  2  1  0  0  0  0
  2  3  1  0  0  0  0
  2  7  1  0  0  0  0
  3  4  1  0  0  0  0
  4  5  1  0  0  0  0
  5  6  1  0  0  0  0
  5  8  1  0  0  0  0
  6  7  1  0  0  0  0
  8  9  1  0  0  0  0
  8 10  1  0  0  0  0
  8 11  1  0  0  0  0
 11 12  2  0  0  0  0
 11 13  1  0  0  0  0
 13 14  1  0  0  0  0
 13 15  1  0  0  0  0
 14 16  1  0  0  0  0
 14 17  1  0  0  0  0
M  END
>  <CHROM.0>
-42.91345019,-54.94966167,-47.83060645,-48.78964450,-49.42524676,-50.60994248
-42.68076379,-171.31950106,-161.76435355,160.90687039

>  <CHROM.1>
-167.24945724,-152.20903874,102.65564569,-141.80190988,22.94961114,-12.50397800
5.50473519,-2.04427458,0.72359935,-2.11753239

>  <Name>
P33491762

>  <RI>
0

>  <Rbt.Current_Directory>
/home/fstefaniak/projects/zuza/docking/adenine/1Y26

>  <Rbt.Executable>
rbdock ($Id: //depot/dev/client3/rdock/2013.1/src/exe/rbdock.cxx#4 $)

>  <Rbt.Library>
libRbt.so (2013.1, Build901 2013/11/27)

>  <Rbt.Parameter_File>
/home/fstefaniak/progs/rDock//data/scripts/dock_solv.prm

>  <Rbt.Receptor>
1y26.prm

>  <SCORE>
-29.3921

>  <SCORE.INTER>
-14.2344

>  <SCORE.INTER.CONST>
1

>  <SCORE.INTER.POLAR>
-2.59629

>  <SCORE.INTER.ROT>
4

>  <SCORE.INTER.SOLV>
9.40691

>  <SCORE.INTER.VDW>
-10.2376

>  <SCORE.INTER.norm>
-1.01674

>  <SCORE.INTRA>
2.75271

>  <SCORE.INTRA.DIHEDRAL>
1.12334

>  <SCORE.INTRA.DIHEDRAL.0>
2.84196

>  <SCORE.INTRA.POLAR>
0.0983013

>  <SCORE.INTRA.POLAR.0>
-0.0983013

>  <SCORE.INTRA.REPUL>
0.25089

>  <SCORE.INTRA.REPUL.0>
0

>  <SCORE.INTRA.SOLV>
0.00649819

>  <SCORE.INTRA.SOLV.lig_0>
-13.5949

>  <SCORE.INTRA.VDW>
0.599122

>  <SCORE.INTRA.VDW.0>
2.75756

>  <SCORE.INTRA.norm>
0.196622

>  <SCORE.RESTR>
3.34228

>  <SCORE.RESTR.CAVITY>
3.34228

>  <SCORE.RESTR.norm>
0.238734

>  <SCORE.SYSTEM>
-21.2527

>  <SCORE.SYSTEM.CONST>
0

>  <SCORE.SYSTEM.DIHEDRAL>
10.2904

>  <SCORE.SYSTEM.POLAR>
-3.83937

>  <SCORE.SYSTEM.SOLV>
0.522803

>  <SCORE.SYSTEM.VDW>
-4.97496

>  <SCORE.SYSTEM.norm>
-1.51805

>  <SCORE.heavy>
14

>  <SCORE.norm>
-2.09944

$$$$
P33491762
 OpenBabel12072022103D
libRbt.so/2013.1/901 2013/11/27
 17 17  0  0  0  0  0  0  0  0999 V2000
   24.9722  -11.0905    2.6291 C   0  0  0  0  0  0  0  0  0  0  0  0
   24.4498  -11.7274    3.9196 C   0  0  0  0  0  0  0  0  0  0  0  0
   22.9337  -11.9388    3.8729 C   0  0  0  0  0  0  0  0  0  0  0  0
   22.5143  -13.1313    3.0044 C   0  0  0  0  0  0  0  0  0  0  0  0
   23.2349  -14.3873    3.2660 N   0  0  0  0  0  0  0  0  0  0  0  0
   24.6850  -14.1884    3.3131 C   0  0  0  0  0  0  0  0  0  0  0  0
   25.1505  -13.0548    4.2271 C   0  0  0  0  0  0  0  0  0  0  0  0
   22.6017  -15.3145    4.2547 C   0  0  0  0  0  0  0  0  0  0  0  0
   23.6463  -16.1445    5.0367 C   0  0  0  0  0  0  0  0  0  0  0  0
   21.6699  -14.6426    5.2767 C   0  0  0  0  0  0  0  0  0  0  0  0
   21.7721  -16.3713    3.4498 C   0  0  0  0  0  0  0  0  0  0  0  0
   22.1609  -17.5101    3.1913 O   0  0  0  0  0  0  0  0  0  0  0  0
   20.5492  -15.8765    2.9937 N   0  0  0  0  0  0  0  0  0  0  0  0
   19.3801  -16.6532    3.1641 N   0  0  0  0  0  0  0  0  0  0  0  0
   20.4756  -14.8570    2.9587 H   0  0  0  0  0  0  0  0  0  0  0  0
   18.6877  -16.0487    3.6267 H   0  0  0  0  0  0  0  0  0  0  0  0
   19.5892  -17.3562    3.8791 H   0  0  0  0  0  0  0  0  0  0  0  0
  1  2  1  0  0  0  0
  2  3  1  0  0  0  0
  2  7  1  0  0  0  0
  3  4  1  0  0  0  0
  4  5  1  0  0  0  0
  5  6  1  0  0  0  0
  5  8  1  0  0  0  0
  6  7  1  0  0  0  0
  8  9  1  0  0  0  0
  8 10  1  0  0  0  0
  8 11  1  0  0  0  0
 11 12  2  0  0  0  0
 11 13  1  0  0  0  0
 13 14  1  0  0  0  0
 13 15  1  0  0  0  0
 14 16  1  0  0  0  0
 14 17  1  0  0  0  0
M  END
>  <CHROM.0>
-51.97937243,-68.05111556,-17.57843644,-51.64181960,-173.20969451,-59.32227442
39.92876335,-52.17978907,-166.19500578,162.76727195

>  <CHROM.1>
-148.93427691,99.50588888,-133.73556590,127.64551875,22.79565616,-14.46401824
3.68291449,0.88155899,-0.23751341,-0.20064707

>  <Name>
P33491762

>  <RI>
0

>  <Rbt.Current_Directory>
/home/fstefaniak/projects/zuza/docking/adenine/1Y26

>  <Rbt.Executable>
rbdock ($Id: //depot/dev/client3/rdock/2013.1/src/exe/rbdock.cxx#4 $)

>  <Rbt.Library>
libRbt.so (2013.1, Build901 2013/11/27)

>  <Rbt.Parameter_File>
/home/fstefaniak/progs/rDock//data/scripts/dock_solv.prm

>  <Rbt.Receptor>
1y26.prm

>  <SCORE>
-22.4825

>  <SCORE.INTER>
-16.9825

>  <SCORE.INTER.CONST>
1

>  <SCORE.INTER.POLAR>
-4.1249

>  <SCORE.INTER.ROT>
4

>  <SCORE.INTER.SOLV>
11.4653

>  <SCORE.INTER.VDW>
-7.66043

>  <SCORE.INTER.norm>
-1.21304

>  <SCORE.INTRA>
6.0466

>  <SCORE.INTRA.DIHEDRAL>
1.72803

>  <SCORE.INTRA.DIHEDRAL.0>
2.84196

>  <SCORE.INTRA.POLAR>
0.0983013

>  <SCORE.INTRA.POLAR.0>
-0.0983013

>  <SCORE.INTRA.REPUL>
0

>  <SCORE.INTRA.REPUL.0>
0

>  <SCORE.INTRA.SOLV>
-0.308561

>  <SCORE.INTRA.SOLV.lig_0>
-13.5949

>  <SCORE.INTRA.VDW>
5.00264

>  <SCORE.INTRA.VDW.0>
2.75756

>  <SCORE.INTRA.norm>
0.4319

>  <SCORE.RESTR>
3.80955

>  <SCORE.RESTR.CAVITY>
3.80955

>  <SCORE.RESTR.norm>
0.27211

>  <SCORE.SYSTEM>
-15.3562

>  <SCORE.SYSTEM.CONST>
0

>  <SCORE.SYSTEM.DIHEDRAL>
12.8705

>  <SCORE.SYSTEM.POLAR>
-3.37917

>  <SCORE.SYSTEM.SOLV>
0.474679

>  <SCORE.SYSTEM.VDW>
-3.42194

>  <SCORE.SYSTEM.norm>
-1.09687

>  <SCORE.heavy>
14

>  <SCORE.norm>
-1.6059

$$$$
P38900066
 OpenBabel12072022103D
libRbt.so/2013.1/901 2013/11/27
 10 10  0  0  0  0  0  0  0  0999 V2000
   18.8432  -19.6158    4.4758 C   0  0  0  0  0  0  0  0  0  0  0  0
   18.3098  -19.1878    5.8386 C   0  0  0  0  0  0  0  0  0  0  0  0
   19.3863  -18.4718    6.6415 C   0  0  0  0  0  0  0  0  0  0  0  0
   20.1116  -17.5234    5.7944 N   0  3  0  0  0  0  0  0  0  0  0  0
   20.7373  -16.8075    6.2163 H   0  0  0  0  0  0  0  0  0  0  0  0
   20.1482  -17.4580    4.5100 C   0  0  0  0  0  0  0  0  0  0  0  0
   19.3065  -18.3911    3.6931 C   0  0  0  0  0  0  0  0  0  0  0  0
   21.0120  -16.3909    3.9318 C   0  0  0  0  0  0  0  0  0  0  0  0
   20.8392  -16.1170    2.7221 O   0  0  0  0  0  0  0  0  0  0  0  0
   21.7998  -15.9187    4.8038 O   0  5  0  0  0  0  0  0  0  0  0  0
  1  2  1  0  0  0  0
  1  7  1  0  0  0  0
  2  3  1  0  0  0  0
  3  4  1  0  0  0  0
  4  5  1  0  0  0  0
  4  6  2  0  0  0  0
  6  7  1  0  0  0  0
  6  8  1  0  0  0  0
  8  9  2  0  0  0  0
  8 10  1  0  0  0  0
M  CHG  2   4   1  10  -1
M  END
>  <CHROM.0>
-46.55462879,60.51370363,-56.78945663,-52.81892682,-55.19084858,-57.30443722
-63.03176232,-50.05497205,-166.87620354,161.09902860

>  <CHROM.1>
-164.70266239,20.00153241,-17.64046054,4.71023065,2.64353931,0.85958556,1.65384692

>  <Name>
P38900066

>  <RI>
0

>  <Rbt.Current_Directory>
/home/fstefaniak/projects/zuza/docking/adenine/1Y26

>  <Rbt.Executable>
rbdock ($Id: //depot/dev/client3/rdock/2013.1/src/exe/rbdock.cxx#4 $)

>  <Rbt.Library>
libRbt.so (2013.1, Build901 2013/11/27)

>  <Rbt.Parameter_File>
/home/fstefaniak/progs/rDock//data/scripts/dock_solv.prm

>  <Rbt.Receptor>
1y26.prm

>  <SCORE>
-38.4372

>  <SCORE.INTER>
-17.0319

>  <SCORE.INTER.CONST>
1

>  <SCORE.INTER.POLAR>
-2.97234

>  <SCORE.INTER.ROT>
1

>  <SCORE.INTER.SOLV>
24.1804

>  <SCORE.INTER.VDW>
-13.7736

>  <SCORE.INTER.norm>
-1.89243

>  <SCORE.INTRA>
0.211685

>  <SCORE.INTRA.DIHEDRAL>
0.644208

>  <SCORE.INTRA.DIHEDRAL.0>
0.0122702

>  <SCORE.INTRA.POLAR>
0

>  <SCORE.INTRA.POLAR.0>
0

>  <SCORE.INTRA.REPUL>
0

>  <SCORE.INTRA.REPUL.0>
0

>  <SCORE.INTRA.SOLV>
-0.0420773

>  <SCORE.INTRA.SOLV.lig_0>
-47.0325

>  <SCORE.INTRA.VDW>
-0.0893802

>  <SCORE.INTRA.VDW.0>
0.280464

>  <SCORE.INTRA.norm>
0.0235206

>  <SCORE.RESTR>
0

>  <SCORE.RESTR.CAVITY>
0

>  <SCORE.RESTR.norm>
0

>  <SCORE.SYSTEM>
-21.617

>  <SCORE.SYSTEM.CONST>
0

>  <SCORE.SYSTEM.DIHEDRAL>
6.10498

>  <SCORE.SYSTEM.POLAR>
-3.51689

>  <SCORE.SYSTEM.SOLV>
0.699818

>  <SCORE.SYSTEM.VDW>
-4.95663

>  <SCORE.SYSTEM.norm>
-2.40189

>  <SCORE.heavy>
9

>  <SCORE.norm>
-4.2708

$$$$
P38900066
 OpenBabel12072022103D
libRbt.so/2013.1/901 2013/11/27
 10 10  0  0  0  0  0  0  0  0999 V2000
   18.8629  -19.6271    4.4821 C   0  0  0  0  0  0  0  0  0  0  0  0
   18.3202  -19.1943    5.8398 C   0  0  0  0  0  0  0  0  0  0  0  0
   19.3878  -18.4648    6.6426 C   0  0  0  0  0  0  0  0  0  0  0  0
   20.1095  -17.5164    5.7924 N   0  3  0  0  0  0  0  0  0  0  0  0
   20.7278  -16.7929    6.2122 H   0  0  0  0  0  0  0  0  0  0  0  0
   20.1512  -17.4592    4.5077 C   0  0  0  0  0  0  0  0  0  0  0  0
   19.3202  -18.4040    3.6934 C   0  0  0  0  0  0  0  0  0  0  0  0
   21.0093  -16.3892    3.9263 C   0  0  0  0  0  0  0  0  0  0  0  0
   20.8416  -16.1265    2.7134 O   0  0  0  0  0  0  0  0  0  0  0  0
   21.7876  -15.9033    4.7992 O   0  5  0  0  0  0  0  0  0  0  0  0
  1  2  1  0  0  0  0
  1  7  1  0  0  0  0
  2  3  1  0  0  0  0
  3  4  1  0  0  0  0
  4  5  1  0  0  0  0
  4  6  2  0  0  0  0
  6  7  1  0  0  0  0
  6  8  1  0  0  0  0
  8  9  2  0  0  0  0
  8 10  1  0  0  0  0
M  CHG  2   4   1  10  -1
M  END
>  <CHROM.0>
-51.37214969,60.37065339,-55.02536463,-51.22342370,-57.09707268,-59.39363190
-59.71327910,-52.36961708,-166.93253698,160.91594552

>  <CHROM.1>
-164.84327976,20.00501887,-17.64140554,4.70852697,2.65009273,0.86794182,1.64184022

>  <Name>
P38900066

>  <RI>
0

>  <Rbt.Current_Directory>
/home/fstefaniak/projects/zuza/docking/adenine/1Y26

>  <Rbt.Executable>
rbdock ($Id: //depot/dev/client3/rdock/2013.1/src/exe/rbdock.cxx#4 $)

>  <Rbt.Library>
libRbt.so (2013.1, Build901 2013/11/27)

>  <Rbt.Parameter_File>
/home/fstefaniak/progs/rDock//data/scripts/dock_solv.prm

>  <Rbt.Receptor>
1y26.prm

>  <SCORE>
-38.3948

>  <SCORE.INTER>
-16.9235

>  <SCORE.INTER.CONST>
1

>  <SCORE.INTER.POLAR>
-2.92586

>  <SCORE.INTER.ROT>
1

>  <SCORE.INTER.SOLV>
24.1865

>  <SCORE.INTER.VDW>
-13.8583

>  <SCORE.INTER.norm>
-1.88039

>  <SCORE.INTRA>
0.207314

>  <SCORE.INTRA.DIHEDRAL>
0.631296

>  <SCORE.INTRA.DIHEDRAL.0>
0.0122702

>  <SCORE.INTRA.POLAR>
0

>  <SCORE.INTRA.POLAR.0>
0

>  <SCORE.INTRA.REPUL>
0

>  <SCORE.INTRA.REPUL.0>
0

>  <SCORE.INTRA.SOLV>
-0.0413091

>  <SCORE.INTRA.SOLV.lig_0>
-47.0325

>  <SCORE.INTRA.VDW>
-0.0876796

>  <SCORE.INTRA.VDW.0>
0.280464

>  <SCORE.INTRA.norm>
0.0230349

>  <SCORE.RESTR>
0

>  <SCORE.RESTR.CAVITY>
0

>  <SCORE.RESTR.norm>
0

>  <SCORE.SYSTEM>
-21.6786

>  <SCORE.SYSTEM.CONST>
0

>  <SCORE.SYSTEM.DIHEDRAL>
5.49228

>  <SCORE.SYSTEM.POLAR>
-3.47783

>  <SCORE.SYSTEM.SOLV>
0.702616

>  <SCORE.SYSTEM.VDW>
-4.92462

>  <SCORE.SYSTEM.norm>
-2.40874

>  <SCORE.heavy>
9

>  <SCORE.norm>
-4.26609

$$$$
P38900066
 OpenBabel12072022103D
libRbt.so/2013.1/901 2013/11/27
 10 10  0  0  0  0  0  0  0  0999 V2000
   18.8695  -19.6189    4.4427 C   0  0  0  0  0  0  0  0  0  0  0  0
   18.3206  -19.1932    5.8002 C   0  0  0  0  0  0  0  0  0  0  0  0
   19.3860  -18.4729    6.6139 C   0  0  0  0  0  0  0  0  0  0  0  0
   20.1159  -17.5213    5.7742 N   0  3  0  0  0  0  0  0  0  0  0  0
   20.7343  -16.8029    6.2024 H   0  0  0  0  0  0  0  0  0  0  0  0
   20.1652  -17.4557    4.4902 C   0  0  0  0  0  0  0  0  0  0  0  0
   19.3356  -18.3922    3.6648 C   0  0  0  0  0  0  0  0  0  0  0  0
   21.0303  -16.3849    3.9208 C   0  0  0  0  0  0  0  0  0  0  0  0
   20.8261  -16.0683    2.7266 O   0  0  0  0  0  0  0  0  0  0  0  0
   21.8525  -15.9555    4.7831 O   0  5  0  0  0  0  0  0  0  0  0  0
  1  2  1  0  0  0  0
  1  7  1  0  0  0  0
  2  3  1  0  0  0  0
  3  4  1  0  0  0  0
  4  5  1  0  0  0  0
  4  6  2  0  0  0  0
  6  7  1  0  0  0  0
  6  8  1  0  0  0  0
  8  9  2  0  0  0  0
  8 10  1  0  0  0  0
M  CHG  2   4   1  10  -1
M  END
>  <CHROM.0>
-51.05340482,60.60695290,-56.64487004,-53.46230022,-55.58773126,-61.48385291
-62.30596172,-51.58376915,-167.36924310,160.60996665

>  <CHROM.1>
-161.46341633,20.01756663,-17.63910054,4.68887806,2.64054553,0.85624807,1.66654675

>  <Name>
P38900066

>  <RI>
0

>  <Rbt.Current_Directory>
/home/fstefaniak/projects/zuza/docking/adenine/1Y26

>  <Rbt.Executable>
rbdock ($Id: //depot/dev/client3/rdock/2013.1/src/exe/rbdock.cxx#4 $)

>  <Rbt.Library>
libRbt.so (2013.1, Build901 2013/11/27)

>  <Rbt.Parameter_File>
/home/fstefaniak/progs/rDock//data/scripts/dock_solv.prm

>  <Rbt.Receptor>
1y26.prm

>  <SCORE>
-38.3603

>  <SCORE.INTER>
-16.9852

>  <SCORE.INTER.CONST>
1

>  <SCORE.INTER.POLAR>
-3.03069

>  <SCORE.INTER.ROT>
1

>  <SCORE.INTER.SOLV>
24.171

>  <SCORE.INTER.VDW>
-13.5448

>  <SCORE.INTER.norm>
-1.88725

>  <SCORE.INTRA>
0.324472

>  <SCORE.INTRA.DIHEDRAL>
0.974592

>  <SCORE.INTRA.DIHEDRAL.0>
0.0122702

>  <SCORE.INTRA.POLAR>
0

>  <SCORE.INTRA.POLAR.0>
0

>  <SCORE.INTRA.REPUL>
0

>  <SCORE.INTRA.REPUL.0>
0

>  <SCORE.INTRA.SOLV>
-0.0616359

>  <SCORE.INTRA.SOLV.lig_0>
-47.0325

>  <SCORE.INTRA.VDW>
-0.132006

>  <SCORE.INTRA.VDW.0>
0.280464

>  <SCORE.INTRA.norm>
0.0360525

>  <SCORE.RESTR>
0

>  <SCORE.RESTR.CAVITY>
0

>  <SCORE.RESTR.norm>
0

>  <SCORE.SYSTEM>
-21.6995

>  <SCORE.SYSTEM.CONST>
0

>  <SCORE.SYSTEM.DIHEDRAL>
5.4412

>  <SCORE.SYSTEM.POLAR>
-3.43609

>  <SCORE.SYSTEM.SOLV>
0.686649

>  <SCORE.SYSTEM.VDW>
-5.05534

>  <SCORE.SYSTEM.norm>
-2.41106

>  <SCORE.heavy>
9

>  <SCORE.norm>
-4.26225

$$$$
P41974730
 OpenBabel12072022103D
libRbt.so/2013.1/901 2013/11/27
 14 14  0  0  0  0  0  0  0  0999 V2000
   24.2914  -14.1649    4.0863 C   0  0  0  0  0  0  0  0  0  0  0  0
   23.7727  -15.3767    4.8724 C   0  0  0  0  0  0  0  0  0  0  0  0
   22.4544  -15.6766    4.1918 C   0  0  0  0  0  0  0  0  0  0  0  0
   21.7325  -16.7745    4.4473 C   0  0  0  0  0  0  0  0  0  0  0  0
   20.4101  -17.0331    3.8210 C   0  0  0  0  0  0  0  0  0  0  0  0
   19.9857  -16.4639    2.8203 O   0  0  0  0  0  0  0  0  0  0  0  0
   19.5179  -18.0718    4.5193 C   0  0  0  0  0  0  0  0  0  0  0  0
   18.6691  -18.7119    3.9209 O   0  0  0  0  0  0  0  0  0  0  0  0
   19.7654  -18.2143    5.8577 N   0  0  0  0  0  0  0  0  0  0  0  0
   22.1618  -14.6360    3.3437 N   0  0  0  0  0  0  0  0  0  0  0  0
   23.0310  -13.4968    3.5338 C   0  0  0  0  0  0  0  0  0  0  0  0
   20.4942  -17.6598    6.2943 H   0  0  0  0  0  0  0  0  0  0  0  0
   19.2361  -18.8818    6.3989 H   0  0  0  0  0  0  0  0  0  0  0  0
   21.1835  -14.5143    3.0772 H   0  0  0  0  0  0  0  0  0  0  0  0
  1  2  1  0  0  0  0
  1 11  1  0  0  0  0
  2  3  1  0  0  0  0
  3  4  2  0  0  0  0
  3 10  1  0  0  0  0
  4  5  1  0  0  0  0
  5  6  2  0  0  0  0
  5  7  1  0  0  0  0
  7  8  2  0  0  0  0
  7  9  1  0  0  0  0
  9 12  1  0  0  0  0
  9 13  1  0  0  0  0
 10 11  1  0  0  0  0
 10 14  1  0  0  0  0
M  END
>  <CHROM.0>
-50.44591777,-60.69338899,-49.79203791,-51.99868982,-57.13696573,-58.35017344
-60.42055269,-175.62183153,-166.28042257,160.56541790

>  <CHROM.1>
17.14850732,-153.92739921,21.38282360,-16.25749939,4.12717898,-0.53054958
0.56009886,2.28316513

>  <Name>
P41974730

>  <RI>
0

>  <Rbt.Current_Directory>
/home/fstefaniak/projects/zuza/docking/adenine/1Y26

>  <Rbt.Executable>
rbdock ($Id: //depot/dev/client3/rdock/2013.1/src/exe/rbdock.cxx#4 $)

>  <Rbt.Library>
libRbt.so (2013.1, Build901 2013/11/27)

>  <Rbt.Parameter_File>
/home/fstefaniak/progs/rDock//data/scripts/dock_solv.prm

>  <Rbt.Receptor>
1y26.prm

>  <SCORE>
-48.2672

>  <SCORE.INTER>
-27.5524

>  <SCORE.INTER.CONST>
1

>  <SCORE.INTER.POLAR>
-3.25652

>  <SCORE.INTER.ROT>
2

>  <SCORE.INTER.SOLV>
11.0939

>  <SCORE.INTER.VDW>
-16.1446

>  <SCORE.INTER.norm>
-2.50477

>  <SCORE.INTRA>
1.959

>  <SCORE.INTRA.DIHEDRAL>
3.20344

>  <SCORE.INTRA.DIHEDRAL.0>
0.161203

>  <SCORE.INTRA.POLAR>
0

>  <SCORE.INTRA.POLAR.0>
0

>  <SCORE.INTRA.REPUL>
0

>  <SCORE.INTRA.REPUL.0>
0

>  <SCORE.INTRA.SOLV>
-0.0323299

>  <SCORE.INTRA.SOLV.lig_0>
-17.802

>  <SCORE.INTRA.VDW>
0.373447

>  <SCORE.INTRA.VDW.0>
-0.434368

>  <SCORE.INTRA.norm>
0.178091

>  <SCORE.RESTR>
0

>  <SCORE.RESTR.CAVITY>
0

>  <SCORE.RESTR.norm>
0

>  <SCORE.SYSTEM>
-22.6738

>  <SCORE.SYSTEM.CONST>
0

>  <SCORE.SYSTEM.DIHEDRAL>
5.83558

>  <SCORE.SYSTEM.POLAR>
-3.51047

>  <SCORE.SYSTEM.SOLV>
0.46108

>  <SCORE.SYSTEM.VDW>
-5.51315

>  <SCORE.SYSTEM.norm>
-2.06125

>  <SCORE.heavy>
11

>  <SCORE.norm>
-4.38793

$$$$
P41974730
 OpenBabel12072022103D
libRbt.so/2013.1/901 2013/11/27
 14 14  0  0  0  0  0  0  0  0999 V2000
   24.3169  -14.0160    4.1540 C   0  0  0  0  0  0  0  0  0  0  0  0
   23.8154  -15.2371    4.9369 C   0  0  0  0  0  0  0  0  0  0  0  0
   22.5309  -15.5900    4.2181 C   0  0  0  0  0  0  0  0  0  0  0  0
   21.8396  -16.7097    4.4631 C   0  0  0  0  0  0  0  0  0  0  0  0
   20.5478  -17.0209    3.7980 C   0  0  0  0  0  0  0  0  0  0  0  0
   20.1155  -16.4460    2.8039 O   0  0  0  0  0  0  0  0  0  0  0  0
   19.6984  -18.1266    4.4448 C   0  0  0  0  0  0  0  0  0  0  0  0
   18.8671  -18.7628    3.8184 O   0  0  0  0  0  0  0  0  0  0  0  0
   19.9626  -18.3328    5.7717 N   0  0  0  0  0  0  0  0  0  0  0  0
   22.2299  -14.5690    3.3493 N   0  0  0  0  0  0  0  0  0  0  0  0
   23.0525  -13.3982    3.5540 C   0  0  0  0  0  0  0  0  0  0  0  0
   20.6755  -17.7775    6.2328 H   0  0  0  0  0  0  0  0  0  0  0  0
   19.4615  -19.0469    6.2794 H   0  0  0  0  0  0  0  0  0  0  0  0
   21.2570  -14.4843    3.0505 H   0  0  0  0  0  0  0  0  0  0  0  0
  1  2  1  0  0  0  0
  1 11  1  0  0  0  0
  2  3  1  0  0  0  0
  3  4  2  0  0  0  0
  3 10  1  0  0  0  0
  4  5  1  0  0  0  0
  5  6  2  0  0  0  0
  5  7  1  0  0  0  0
  7  8  2  0  0  0  0
  7  9  1  0  0  0  0
  9 12  1  0  0  0  0
  9 13  1  0  0  0  0
 10 11  1  0  0  0  0
 10 14  1  0  0  0  0
M  END
>  <CHROM.0>
-58.79178752,-61.43134252,-58.97065677,-51.75278225,-56.70107247,-53.82960810
-62.76359885,179.97024754,-166.59098298,159.97430993

>  <CHROM.1>
14.54969088,-156.49316422,21.49203759,-16.22314341,4.11584326,-0.55443998
0.59783437,2.31583875

>  <Name>
P41974730

>  <RI>
0

>  <Rbt.Current_Directory>
/home/fstefaniak/projects/zuza/docking/adenine/1Y26

>  <Rbt.Executable>
rbdock ($Id: //depot/dev/client3/rdock/2013.1/src/exe/rbdock.cxx#4 $)

>  <Rbt.Library>
libRbt.so (2013.1, Build901 2013/11/27)

>  <Rbt.Parameter_File>
/home/fstefaniak/progs/rDock//data/scripts/dock_solv.prm

>  <Rbt.Receptor>
1y26.prm

>  <SCORE>
-48.1534

>  <SCORE.INTER>
-27.3301

>  <SCORE.INTER.CONST>
1

>  <SCORE.INTER.POLAR>
-3.21754

>  <SCORE.INTER.ROT>
2

>  <SCORE.INTER.SOLV>
11.0859

>  <SCORE.INTER.VDW>
-16.1235

>  <SCORE.INTER.norm>
-2.48455

>  <SCORE.INTRA>
1.7432

>  <SCORE.INTRA.DIHEDRAL>
2.52651

>  <SCORE.INTRA.DIHEDRAL.0>
0.161203

>  <SCORE.INTRA.POLAR>
0

>  <SCORE.INTRA.POLAR.0>
0

>  <SCORE.INTRA.REPUL>
0

>  <SCORE.INTRA.REPUL.0>
0

>  <SCORE.INTRA.SOLV>
-0.0319574

>  <SCORE.INTRA.SOLV.lig_0>
-17.802

>  <SCORE.INTRA.VDW>
0.495925

>  <SCORE.INTRA.VDW.0>
-0.434368

>  <SCORE.INTRA.norm>
0.158473

>  <SCORE.RESTR>
0

>  <SCORE.RESTR.CAVITY>
0

>  <SCORE.RESTR.norm>
0

>  <SCORE.SYSTEM>
-22.5665

>  <SCORE.SYSTEM.CONST>
0

>  <SCORE.SYSTEM.DIHEDRAL>
5.12959

>  <SCORE.SYSTEM.POLAR>
-3.3885

>  <SCORE.SYSTEM.SOLV>
0.43667

>  <SCORE.SYSTEM.VDW>
-5.60475

>  <SCORE.SYSTEM.norm>
-2.0515

>  <SCORE.heavy>
11

>  <SCORE.norm>
-4.37758

$$$$
P41974730
 OpenBabel12072022103D
libRbt.so/2013.1/901 2013/11/27
 14 14  0  0  0  0  0  0  0  0999 V2000
   24.3797  -14.0911    4.1298 C   0  0  0  0  0  0  0  0  0  0  0  0
   23.8618  -15.2851    4.9433 C   0  0  0  0  0  0  0  0  0  0  0  0
   22.5539  -15.6147    4.2565 C   0  0  0  0  0  0  0  0  0  0  0  0
   21.8380  -16.7112    4.5342 C   0  0  0  0  0  0  0  0  0  0  0  0
   20.5249  -16.9981    3.9006 C   0  0  0  0  0  0  0  0  0  0  0  0
   20.1032  -16.4531    2.8853 O   0  0  0  0  0  0  0  0  0  0  0  0
   19.6389  -18.0344    4.6100 C   0  0  0  0  0  0  0  0  0  0  0  0
   18.7465  -18.6347    4.0343 O   0  0  0  0  0  0  0  0  0  0  0  0
   19.9445  -18.2233    5.9306 N   0  0  0  0  0  0  0  0  0  0  0  0
   22.2626  -14.6004    3.3767 N   0  0  0  0  0  0  0  0  0  0  0  0
   23.1204  -13.4491    3.5449 C   0  0  0  0  0  0  0  0  0  0  0  0
   20.7073  -17.7007    6.3480 H   0  0  0  0  0  0  0  0  0  0  0  0
   19.4234  -18.8932    6.4768 H   0  0  0  0  0  0  0  0  0  0  0  0
   21.2864  -14.4943    3.0960 H   0  0  0  0  0  0  0  0  0  0  0  0
  1  2  1  0  0  0  0
  1 11  1  0  0  0  0
  2  3  1  0  0  0  0
  3  4  2  0  0  0  0
  3 10  1  0  0  0  0
  4  5  1  0  0  0  0
  5  6  2  0  0  0  0
  5  7  1  0  0  0  0
  7  8  2  0  0  0  0
  7  9  1  0  0  0  0
  9 12  1  0  0  0  0
  9 13  1  0  0  0  0
 10 11  1  0  0  0  0
 10 14  1  0  0  0  0
M  END
>  <CHROM.0>
-48.99281539,-60.64842644,-56.67146333,-53.13802669,-55.69713871,-61.92465411
-55.95900184,-175.03652878,-166.56708193,159.63443302

>  <CHROM.1>
16.58391599,-158.71868906,21.49109202,-16.21097053,4.19337442,-0.54178603
0.56174381,2.28184573

>  <Name>
P41974730

>  <RI>
0

>  <Rbt.Current_Directory>
/home/fstefaniak/projects/zuza/docking/adenine/1Y26

>  <Rbt.Executable>
rbdock ($Id: //depot/dev/client3/rdock/2013.1/src/exe/rbdock.cxx#4 $)

>  <Rbt.Library>
libRbt.so (2013.1, Build901 2013/11/27)

>  <Rbt.Parameter_File>
/home/fstefaniak/progs/rDock//data/scripts/dock_solv.prm

>  <Rbt.Receptor>
1y26.prm

>  <SCORE>
-48.135

>  <SCORE.INTER>
-27.2931

>  <SCORE.INTER.CONST>
1

>  <SCORE.INTER.POLAR>
-3.20892

>  <SCORE.INTER.ROT>
2

>  <SCORE.INTER.SOLV>
11.1222

>  <SCORE.INTER.VDW>
-16.1398

>  <SCORE.INTER.norm>
-2.48119

>  <SCORE.INTRA>
1.78776

>  <SCORE.INTRA.DIHEDRAL>
2.42679

>  <SCORE.INTRA.DIHEDRAL.0>
0.161203

>  <SCORE.INTRA.POLAR>
0

>  <SCORE.INTRA.POLAR.0>
0

>  <SCORE.INTRA.REPUL>
0

>  <SCORE.INTRA.REPUL.0>
0

>  <SCORE.INTRA.SOLV>
-0.0297767

>  <SCORE.INTRA.SOLV.lig_0>
-17.802

>  <SCORE.INTRA.VDW>
0.589256

>  <SCORE.INTRA.VDW.0>
-0.434368

>  <SCORE.INTRA.norm>
0.162524

>  <SCORE.RESTR>
0

>  <SCORE.RESTR.CAVITY>
0

>  <SCORE.RESTR.norm>
0

>  <SCORE.SYSTEM>
-22.6297

>  <SCORE.SYSTEM.CONST>
0

>  <SCORE.SYSTEM.DIHEDRAL>
5.73189

>  <SCORE.SYSTEM.POLAR>
-3.46591

>  <SCORE.SYSTEM.SOLV>
0.454353

>  <SCORE.SYSTEM.VDW>
-5.59548

>  <SCORE.SYSTEM.norm>
-2.05724

>  <SCORE.heavy>
11

>  <SCORE.norm>
-4.37591

$$$$
P43850240
 OpenBabel12072022103D
libRbt.so/2013.1/901 2013/11/27
 16 16  0  0  0  0  0  0  0  0999 V2000
   23.4844  -15.5258    4.5648 C   0  0  0  0  0  0  0  0  0  0  0  0
   22.0059  -15.2600    4.6967 C   0  0  0  0  0  0  0  0  0  0  0  0
   21.6085  -14.1382    5.0135 O   0  0  0  0  0  0  0  0  0  0  0  0
   21.1390  -16.3197    4.4268 N   0  0  0  0  0  0  0  0  0  0  0  0
   20.7609  -16.5199    3.0294 C   0  0  0  0  0  0  0  0  0  0  0  0
   20.3947  -17.9690    2.7347 C   0  0  0  0  0  0  0  0  0  0  0  0
   19.3487  -18.4919    3.7132 C   0  0  0  0  0  0  0  0  0  0  0  0
   19.8333  -18.3184    5.1566 C   0  0  1  0  0  0  0  0  0  0  0  0
   20.2102  -16.8574    5.4280 C   0  0  0  0  0  0  0  0  0  0  0  0
   18.7776  -18.7722    6.1545 C   0  0  0  0  0  0  0  0  0  0  0  0
   19.0414  -19.1579    7.2916 O   0  0  0  0  0  0  0  0  0  0  0  0
   17.4795  -18.7313    5.6615 N   0  0  0  0  0  0  0  0  0  0  0  0
   16.4048  -19.0899    6.5005 N   0  0  0  0  0  0  0  0  0  0  0  0
   17.2754  -18.3906    4.7240 H   0  0  0  0  0  0  0  0  0  0  0  0
   16.2983  -18.3373    7.1936 H   0  0  0  0  0  0  0  0  0  0  0  0
   16.7112  -19.8847    7.0716 H   0  0  0  0  0  0  0  0  0  0  0  0
  1  2  1  0  0  0  0
  2  3  2  0  0  0  0
  2  4  1  0  0  0  0
  4  5  1  0  0  0  0
  4  9  1  0  0  0  0
  5  6  1  0  0  0  0
  6  7  1  0  0  0  0
  7  8  1  0  0  0  0
  8  9  1  0  0  0  0
  8 10  1  1  0  0  0
 10 11  2  0  0  0  0
 10 12  1  0  0  0  0
 12 13  1  0  0  0  0
 12 14  1  0  0  0  0
 13 15  1  0  0  0  0
 13 16  1  0  0  0  0
M  END
>  <CHROM.0>
-166.84502070,-61.45301045,-54.32178695,-52.37079759,-56.48380785,-177.01667744
-47.31242049,-50.34829444,-166.19832209,-61.29029739

>  <CHROM.1>
-85.65096321,154.73256178,71.34429247,20.00295809,-17.32155786,4.98604630
-0.13721144,0.74080749,1.29452933

>  <Name>
P43850240

>  <RI>
0

>  <Rbt.Current_Directory>
/home/fstefaniak/projects/zuza/docking/adenine/1Y26

>  <Rbt.Executable>
rbdock ($Id: //depot/dev/client3/rdock/2013.1/src/exe/rbdock.cxx#4 $)

>  <Rbt.Library>
libRbt.so (2013.1, Build901 2013/11/27)

>  <Rbt.Parameter_File>
/home/fstefaniak/progs/rDock//data/scripts/dock_solv.prm

>  <Rbt.Receptor>
1y26.prm

>  <SCORE>
-46.1419

>  <SCORE.INTER>
-28.5143

>  <SCORE.INTER.CONST>
1

>  <SCORE.INTER.POLAR>
-3.73968

>  <SCORE.INTER.ROT>
3

>  <SCORE.INTER.SOLV>
16.765

>  <SCORE.INTER.VDW>
-17.7322

>  <SCORE.INTER.norm>
-2.19341

>  <SCORE.INTRA>
-0.0914905

>  <SCORE.INTRA.DIHEDRAL>
2.2202

>  <SCORE.INTRA.DIHEDRAL.0>
1.53072

>  <SCORE.INTRA.POLAR>
0

>  <SCORE.INTRA.POLAR.0>
0

>  <SCORE.INTRA.REPUL>
0

>  <SCORE.INTRA.REPUL.0>
0

>  <SCORE.INTRA.SOLV>
0.194865

>  <SCORE.INTRA.SOLV.lig_0>
-21.8215

>  <SCORE.INTRA.VDW>
-1.29902

>  <SCORE.INTRA.VDW.0>
2.81377

>  <SCORE.INTRA.norm>
-0.00703773

>  <SCORE.RESTR>
0

>  <SCORE.RESTR.CAVITY>
0

>  <SCORE.RESTR.norm>
0

>  <SCORE.SYSTEM>
-17.5361

>  <SCORE.SYSTEM.CONST>
0

>  <SCORE.SYSTEM.DIHEDRAL>
5.46352

>  <SCORE.SYSTEM.POLAR>
-2.48458

>  <SCORE.SYSTEM.SOLV>
0.562993

>  <SCORE.SYSTEM.VDW>
-5.41764

>  <SCORE.SYSTEM.norm>
-1.34893

>  <SCORE.heavy>
13

>  <SCORE.norm>
-3.54938

$$$$
P43850240
 OpenBabel12072022103D
libRbt.so/2013.1/901 2013/11/27
 16 16  0  0  0  0  0  0  0  0999 V2000
   23.8351  -16.5444    4.2135 C   0  0  0  0  0  0  0  0  0  0  0  0
   22.4705  -15.9665    4.4932 C   0  0  0  0  0  0  0  0  0  0  0  0
   22.3651  -14.8126    4.9104 O   0  0  0  0  0  0  0  0  0  0  0  0
   21.3666  -16.7815    4.2399 N   0  0  0  0  0  0  0  0  0  0  0  0
   20.8127  -16.7364    2.8882 C   0  0  0  0  0  0  0  0  0  0  0  0
   20.1049  -18.0323    2.5132 C   0  0  0  0  0  0  0  0  0  0  0  0
   19.0743  -18.4312    3.5638 C   0  0  0  0  0  0  0  0  0  0  0  0
   19.7301  -18.5299    4.9452 C   0  0  1  0  0  0  0  0  0  0  0  0
   20.4486  -17.2221    5.2969 C   0  0  0  0  0  0  0  0  0  0  0  0
   18.7075  -18.8619    6.0224 C   0  0  0  0  0  0  0  0  0  0  0  0
   19.0118  -19.2231    7.1574 O   0  0  0  0  0  0  0  0  0  0  0  0
   17.3879  -18.7392    5.6056 N   0  0  0  0  0  0  0  0  0  0  0  0
   16.3437  -18.9810    6.5213 N   0  0  0  0  0  0  0  0  0  0  0  0
   17.1521  -18.4197    4.6682 H   0  0  0  0  0  0  0  0  0  0  0  0
   16.4047  -18.2553    7.2479 H   0  0  0  0  0  0  0  0  0  0  0  0
   16.5756  -19.8380    7.0346 H   0  0  0  0  0  0  0  0  0  0  0  0
  1  2  1  0  0  0  0
  2  3  2  0  0  0  0
  2  4  1  0  0  0  0
  4  5  1  0  0  0  0
  4  9  1  0  0  0  0
  5  6  1  0  0  0  0
  6  7  1  0  0  0  0
  7  8  1  0  0  0  0
  8  9  1  0  0  0  0
  8 10  1  1  0  0  0
 10 11  2  0  0  0  0
 10 12  1  0  0  0  0
 12 13  1  0  0  0  0
 12 14  1  0  0  0  0
 13 15  1  0  0  0  0
 13 16  1  0  0  0  0
M  END
>  <CHROM.0>
-170.52111228,31.22057707,-61.71368114,-52.54982228,-175.37916392,-64.07081999
-55.88919061,-52.06221399,-167.18314146,160.71485789

>  <CHROM.1>
-88.34784737,166.73914314,65.02569047,20.09662833,-17.60555377,4.83470738
-0.32294052,0.54767003,1.54224403

>  <Name>
P43850240

>  <RI>
0

>  <Rbt.Current_Directory>
/home/fstefaniak/projects/zuza/docking/adenine/1Y26

>  <Rbt.Executable>
rbdock ($Id: //depot/dev/client3/rdock/2013.1/src/exe/rbdock.cxx#4 $)

>  <Rbt.Library>
libRbt.so (2013.1, Build901 2013/11/27)

>  <Rbt.Parameter_File>
/home/fstefaniak/progs/rDock//data/scripts/dock_solv.prm

>  <Rbt.Receptor>
1y26.prm

>  <SCORE>
-46.0397

>  <SCORE.INTER>
-28.4979

>  <SCORE.INTER.CONST>
1

>  <SCORE.INTER.POLAR>
-4.00514

>  <SCORE.INTER.ROT>
3

>  <SCORE.INTER.SOLV>
16.0572

>  <SCORE.INTER.VDW>
-16.6006

>  <SCORE.INTER.norm>
-2.19215

>  <SCORE.INTRA>
1.83367

>  <SCORE.INTRA.DIHEDRAL>
3.01939

>  <SCORE.INTRA.DIHEDRAL.0>
1.53072

>  <SCORE.INTRA.POLAR>
0

>  <SCORE.INTRA.POLAR.0>
0

>  <SCORE.INTRA.REPUL>
0

>  <SCORE.INTRA.REPUL.0>
0

>  <SCORE.INTRA.SOLV>
0.18403

>  <SCORE.INTRA.SOLV.lig_0>
-21.8215

>  <SCORE.INTRA.VDW>
0.231963

>  <SCORE.INTRA.VDW.0>
2.81377

>  <SCORE.INTRA.norm>
0.141052

>  <SCORE.RESTR>
0

>  <SCORE.RESTR.CAVITY>
0

>  <SCORE.RESTR.norm>
0

>  <SCORE.SYSTEM>
-19.3754

>  <SCORE.SYSTEM.CONST>
0

>  <SCORE.SYSTEM.DIHEDRAL>
8.87029

>  <SCORE.SYSTEM.POLAR>
-3.42186

>  <SCORE.SYSTEM.SOLV>
0.561841

>  <SCORE.SYSTEM.VDW>
-4.65479

>  <SCORE.SYSTEM.norm>
-1.49042

>  <SCORE.heavy>
13

>  <SCORE.norm>
-3.54151

$$$$
P43850240
 OpenBabel12072022103D
libRbt.so/2013.1/901 2013/11/27
 16 16  0  0  0  0  0  0  0  0999 V2000
   22.1742  -14.4533    4.7396 C   0  0  0  0  0  0  0  0  0  0  0  0
   22.4471  -15.9244    4.5516 C   0  0  0  0  0  0  0  0  0  0  0  0
   23.5983  -16.3527    4.6415 O   0  0  0  0  0  0  0  0  0  0  0  0
   21.3517  -16.7509    4.2987 N   0  0  0  0  0  0  0  0  0  0  0  0
   20.7926  -16.7067    2.9492 C   0  0  0  0  0  0  0  0  0  0  0  0
   20.0984  -18.0090    2.5713 C   0  0  0  0  0  0  0  0  0  0  0  0
   19.0760  -18.4239    3.6238 C   0  0  0  0  0  0  0  0  0  0  0  0
   19.7377  -18.5208    5.0026 C   0  0  1  0  0  0  0  0  0  0  0  0
   20.4424  -17.2063    5.3571 C   0  0  0  0  0  0  0  0  0  0  0  0
   18.7227  -18.8687    6.0818 C   0  0  0  0  0  0  0  0  0  0  0  0
   19.0350  -19.2206    7.2176 O   0  0  0  0  0  0  0  0  0  0  0  0
   17.4006  -18.7725    5.6662 N   0  0  0  0  0  0  0  0  0  0  0  0
   16.3621  -19.0312    6.5837 N   0  0  0  0  0  0  0  0  0  0  0  0
   17.1578  -18.4604    4.7280 H   0  0  0  0  0  0  0  0  0  0  0  0
   16.4194  -18.3109    7.3160 H   0  0  0  0  0  0  0  0  0  0  0  0
   16.6037  -19.8903    7.0891 H   0  0  0  0  0  0  0  0  0  0  0  0
  1  2  1  0  0  0  0
  2  3  2  0  0  0  0
  2  4  1  0  0  0  0
  4  5  1  0  0  0  0
  4  9  1  0  0  0  0
  5  6  1  0  0  0  0
  6  7  1  0  0  0  0
  7  8  1  0  0  0  0
  8  9  1  0  0  0  0
  8 10  1  1  0  0  0
 10 11  2  0  0  0  0
 10 12  1  0  0  0  0
 12 13  1  0  0  0  0
 12 14  1  0  0  0  0
 13 15  1  0  0  0  0
 13 16  1  0  0  0  0
M  END
>  <CHROM.0>
-169.97074264,-60.23978893,-55.61598896,176.23250901,-56.81474426,-66.07065809
-61.84982537,-47.14473219,-166.53510466,162.06280674

>  <CHROM.1>
76.16758756,167.35239138,64.14954153,20.06947623,-17.56476437,4.90391199
-0.33458608,0.58071863,1.57681536

>  <Name>
P43850240

>  <RI>
0

>  <Rbt.Current_Directory>
/home/fstefaniak/projects/zuza/docking/adenine/1Y26

>  <Rbt.Executable>
rbdock ($Id: //depot/dev/client3/rdock/2013.1/src/exe/rbdock.cxx#4 $)

>  <Rbt.Library>
libRbt.so (2013.1, Build901 2013/11/27)

>  <Rbt.Parameter_File>
/home/fstefaniak/progs/rDock//data/scripts/dock_solv.prm

>  <Rbt.Receptor>
1y26.prm

>  <SCORE>
-45.7889

>  <SCORE.INTER>
-29.4107

>  <SCORE.INTER.CONST>
1

>  <SCORE.INTER.POLAR>
-3.88573

>  <SCORE.INTER.ROT>
3

>  <SCORE.INTER.SOLV>
16.4228

>  <SCORE.INTER.VDW>
-17.7289

>  <SCORE.INTER.norm>
-2.26236

>  <SCORE.INTRA>
2.36928

>  <SCORE.INTRA.DIHEDRAL>
3.04269

>  <SCORE.INTRA.DIHEDRAL.0>
1.53072

>  <SCORE.INTRA.POLAR>
0

>  <SCORE.INTRA.POLAR.0>
0

>  <SCORE.INTRA.REPUL>
0

>  <SCORE.INTRA.REPUL.0>
0

>  <SCORE.INTRA.SOLV>
0.171189

>  <SCORE.INTRA.SOLV.lig_0>
-21.8215

>  <SCORE.INTRA.VDW>
0.762336

>  <SCORE.INTRA.VDW.0>
2.81377

>  <SCORE.INTRA.norm>
0.182252

>  <SCORE.RESTR>
0

>  <SCORE.RESTR.CAVITY>
0

>  <SCORE.RESTR.norm>
0

>  <SCORE.SYSTEM>
-18.7474

>  <SCORE.SYSTEM.CONST>
0

>  <SCORE.SYSTEM.DIHEDRAL>
5.84903

>  <SCORE.SYSTEM.POLAR>
-2.68253

>  <SCORE.SYSTEM.SOLV>
0.397375

>  <SCORE.SYSTEM.VDW>
-5.63868

>  <SCORE.SYSTEM.norm>
-1.44211

>  <SCORE.heavy>
13

>  <SCORE.norm>
-3.52222

$$$$
P49788671
 OpenBabel12072022103D
libRbt.so/2013.1/901 2013/11/27
 16 16  0  0  0  0  0  0  0  0999 V2000
   21.9419  -15.9247    3.6853 C   0  0  0  0  0  0  0  0  0  0  0  0
   21.1598  -14.7726    4.3023 C   0  0  0  0  0  0  0  0  0  0  0  0
   21.8830  -13.4574    4.5968 C   0  0  0  0  0  0  0  0  0  0  0  0
   22.8532  -12.8997    3.5440 C   0  0  1  0  0  0  0  0  0  0  0  0
   24.3531  -13.1485    3.8178 C   0  0  2  0  0  0  0  0  0  0  0  0
   24.8478  -14.6154    3.7692 C   0  0  1  0  0  0  0  0  0  0  0  0
   24.2660  -15.5400    4.8719 C   0  0  1  0  0  0  0  0  0  0  0  0
   23.1191  -16.4757    4.4771 C   0  0  0  0  0  0  0  0  0  0  0  0
   25.2949  -16.4226    5.3718 O   0  0  0  0  0  0  0  0  0  0  0  0
   24.7115  -15.1797    2.4629 O   0  0  0  0  0  0  0  0  0  0  0  0
   24.7784  -12.4906    5.0177 O   0  0  0  0  0  0  0  0  0  0  0  0
   22.5221  -13.3369    2.2288 O   0  0  0  0  0  0  0  0  0  0  0  0
   25.5874  -16.1012    6.2412 H   0  0  0  0  0  0  0  0  0  0  0  0
   25.1361  -16.0626    2.4738 H   0  0  0  0  0  0  0  0  0  0  0  0
   25.7211  -12.6582    5.1755 H   0  0  0  0  0  0  0  0  0  0  0  0
   21.6440  -12.9712    2.0140 H   0  0  0  0  0  0  0  0  0  0  0  0
  1  2  1  0  0  0  0
  1  8  1  0  0  0  0
  2  3  1  0  0  0  0
  3  4  1  0  0  0  0
  4  5  1  0  0  0  0
  4 12  1  6  0  0  0
  5 11  1  1  0  0  0
  5  6  1  0  0  0  0
  6 10  1  6  0  0  0
  6  7  1  0  0  0  0
  7  8  1  0  0  0  0
  7  9  1  6  0  0  0
  9 13  1  0  0  0  0
 10 14  1  0  0  0  0
 11 15  1  0  0  0  0
 12 16  1  0  0  0  0
M  END
>  <CHROM.0>
-49.38377559,-178.09126602,-55.16256013,-52.24969054,-175.31871678,-174.51570481
-62.47163579,-54.83613051,-165.61319450,161.62845579

>  <CHROM.1>
63.65450947,179.89544701,173.39985866,104.01453031,23.52571716,-14.52369369
4.00073039,2.30433569,-0.24428297,-0.22341758

>  <Name>
P49788671

>  <RI>
0

>  <Rbt.Current_Directory>
/home/fstefaniak/projects/zuza/docking/adenine/1Y26

>  <Rbt.Executable>
rbdock ($Id: //depot/dev/client3/rdock/2013.1/src/exe/rbdock.cxx#4 $)

>  <Rbt.Library>
libRbt.so (2013.1, Build901 2013/11/27)

>  <Rbt.Parameter_File>
/home/fstefaniak/progs/rDock//data/scripts/dock_solv.prm

>  <Rbt.Receptor>
1y26.prm

>  <SCORE>
-38.5556

>  <SCORE.INTER>
-19.9202

>  <SCORE.INTER.CONST>
1

>  <SCORE.INTER.POLAR>
-3.7004

>  <SCORE.INTER.ROT>
0

>  <SCORE.INTER.SOLV>
12.8971

>  <SCORE.INTER.VDW>
-8.84451

>  <SCORE.INTER.norm>
-1.66002

>  <SCORE.INTRA>
2.82211

>  <SCORE.INTRA.DIHEDRAL>
0.438959

>  <SCORE.INTRA.DIHEDRAL.0>
6.94411

>  <SCORE.INTRA.POLAR>
0.890466

>  <SCORE.INTRA.POLAR.0>
-0.890466

>  <SCORE.INTRA.REPUL>
0.00158384

>  <SCORE.INTRA.REPUL.0>
0

>  <SCORE.INTRA.SOLV>
0.0642688

>  <SCORE.INTRA.SOLV.lig_0>
-17.6825

>  <SCORE.INTRA.VDW>
-0.465011

>  <SCORE.INTRA.VDW.0>
0.0281383

>  <SCORE.INTRA.norm>
0.235176

>  <SCORE.RESTR>
0.643975

>  <SCORE.RESTR.CAVITY>
0.643975

>  <SCORE.RESTR.norm>
0.0536646

>  <SCORE.SYSTEM>
-22.1015

>  <SCORE.SYSTEM.CONST>
0

>  <SCORE.SYSTEM.DIHEDRAL>
5.74001

>  <SCORE.SYSTEM.POLAR>
-3.45752

>  <SCORE.SYSTEM.SOLV>
0.293183

>  <SCORE.SYSTEM.VDW>
-5.22035

>  <SCORE.SYSTEM.norm>
-1.84179

>  <SCORE.heavy>
12

>  <SCORE.norm>
-3.21297

$$$$
P49788671
 OpenBabel12072022103D
libRbt.so/2013.1/901 2013/11/27
 16 16  0  0  0  0  0  0  0  0999 V2000
   22.0503  -15.9118    3.7947 C   0  0  0  0  0  0  0  0  0  0  0  0
   21.2480  -14.7745    4.4133 C   0  0  0  0  0  0  0  0  0  0  0  0
   21.9368  -13.4330    4.6689 C   0  0  0  0  0  0  0  0  0  0  0  0
   22.8627  -12.8629    3.5833 C   0  0  1  0  0  0  0  0  0  0  0  0
   24.3760  -13.0607    3.8230 C   0  0  2  0  0  0  0  0  0  0  0  0
   24.9149  -14.5122    3.7847 C   0  0  1  0  0  0  0  0  0  0  0  0
   24.3899  -15.4362    4.9161 C   0  0  1  0  0  0  0  0  0  0  0  0
   23.2634  -16.4132    4.5650 C   0  0  0  0  0  0  0  0  0  0  0  0
   25.4579  -16.2784    5.4035 O   0  0  0  0  0  0  0  0  0  0  0  0
   24.7640  -15.1018    2.4913 O   0  0  0  0  0  0  0  0  0  0  0  0
   24.8101  -12.3705    5.0013 O   0  0  0  0  0  0  0  0  0  0  0  0
   22.5130  -13.3315    2.2839 O   0  0  0  0  0  0  0  0  0  0  0  0
   26.0804  -15.7314    5.9114 H   0  0  0  0  0  0  0  0  0  0  0  0
   25.2602  -15.9466    2.4889 H   0  0  0  0  0  0  0  0  0  0  0  0
   24.4315  -12.7867    5.7920 H   0  0  0  0  0  0  0  0  0  0  0  0
   21.6306  -12.9732    2.0741 H   0  0  0  0  0  0  0  0  0  0  0  0
  1  2  1  0  0  0  0
  1  8  1  0  0  0  0
  2  3  1  0  0  0  0
  3  4  1  0  0  0  0
  4  5  1  0  0  0  0
  4 12  1  6  0  0  0
  5 11  1  1  0  0  0
  5  6  1  0  0  0  0
  6 10  1  6  0  0  0
  6  7  1  0  0  0  0
  7  8  1  0  0  0  0
  7  9  1  6  0  0  0
  9 13  1  0  0  0  0
 10 14  1  0  0  0  0
 11 15  1  0  0  0  0
 12 16  1  0  0  0  0
M  END
>  <CHROM.0>
-45.24854816,-60.98570933,-50.37895493,62.22297734,-173.91016330,-176.14947911
-54.52884329,-50.50655413,-166.58680175,160.62715530

>  <CHROM.1>
65.42077261,68.11173462,170.16030859,71.58591464,23.59133808,-14.45782525
4.04974548,2.33928148,-0.22438313,-0.22338413

>  <Name>
P49788671

>  <RI>
0

>  <Rbt.Current_Directory>
/home/fstefaniak/projects/zuza/docking/adenine/1Y26

>  <Rbt.Executable>
rbdock ($Id: //depot/dev/client3/rdock/2013.1/src/exe/rbdock.cxx#4 $)

>  <Rbt.Library>
libRbt.so (2013.1, Build901 2013/11/27)

>  <Rbt.Parameter_File>
/home/fstefaniak/progs/rDock//data/scripts/dock_solv.prm

>  <Rbt.Receptor>
1y26.prm

>  <SCORE>
-38.1671

>  <SCORE.INTER>
-20.2604

>  <SCORE.INTER.CONST>
1

>  <SCORE.INTER.POLAR>
-3.67457

>  <SCORE.INTER.ROT>
0

>  <SCORE.INTER.SOLV>
13.0913

>  <SCORE.INTER.VDW>
-9.2221

>  <SCORE.INTER.norm>
-1.68836

>  <SCORE.INTRA>
0.387289

>  <SCORE.INTRA.DIHEDRAL>
-4.12404

>  <SCORE.INTRA.DIHEDRAL.0>
6.94411

>  <SCORE.INTRA.POLAR>
0.890466

>  <SCORE.INTRA.POLAR.0>
-0.890466

>  <SCORE.INTRA.REPUL>
0.00661229

>  <SCORE.INTRA.REPUL.0>
0

>  <SCORE.INTRA.SOLV>
0.0105078

>  <SCORE.INTRA.SOLV.lig_0>
-17.6825

>  <SCORE.INTRA.VDW>
-0.616593

>  <SCORE.INTRA.VDW.0>
0.0281383

>  <SCORE.INTRA.norm>
0.0322741

>  <SCORE.RESTR>
0.814332

>  <SCORE.RESTR.CAVITY>
0.814332

>  <SCORE.RESTR.norm>
0.067861

>  <SCORE.SYSTEM>
-19.1084

>  <SCORE.SYSTEM.CONST>
0

>  <SCORE.SYSTEM.DIHEDRAL>
6.697

>  <SCORE.SYSTEM.POLAR>
-3.06089

>  <SCORE.SYSTEM.SOLV>
0.316049

>  <SCORE.SYSTEM.VDW>
-4.87363

>  <SCORE.SYSTEM.norm>
-1.59236

>  <SCORE.heavy>
12

>  <SCORE.norm>
-3.18059

$$$$
P49788671
 OpenBabel12072022103D
libRbt.so/2013.1/901 2013/11/27
 16 16  0  0  0  0  0  0  0  0999 V2000
   21.9602  -15.9384    3.7010 C   0  0  0  0  0  0  0  0  0  0  0  0
   21.1790  -14.7922    4.3301 C   0  0  0  0  0  0  0  0  0  0  0  0
   21.9016  -13.4784    4.6319 C   0  0  0  0  0  0  0  0  0  0  0  0
   22.8666  -12.9110    3.5795 C   0  0  1  0  0  0  0  0  0  0  0  0
   24.3680  -13.1598    3.8452 C   0  0  2  0  0  0  0  0  0  0  0  0
   24.8645  -14.6256    3.7831 C   0  0  1  0  0  0  0  0  0  0  0  0
   24.2886  -15.5596    4.8810 C   0  0  1  0  0  0  0  0  0  0  0  0
   23.1414  -16.4938    4.4836 C   0  0  0  0  0  0  0  0  0  0  0  0
   25.3207  -16.4447    5.3697 O   0  0  0  0  0  0  0  0  0  0  0  0
   24.7236  -15.1799    2.4730 O   0  0  0  0  0  0  0  0  0  0  0  0
   24.7974  -12.5108    5.0484 O   0  0  0  0  0  0  0  0  0  0  0  0
   22.5308  -13.3384    2.2623 O   0  0  0  0  0  0  0  0  0  0  0  0
   25.5924  -16.1495    6.2550 H   0  0  0  0  0  0  0  0  0  0  0  0
   25.1675  -16.0533    2.4695 H   0  0  0  0  0  0  0  0  0  0  0  0
   25.7254  -12.7264    5.2326 H   0  0  0  0  0  0  0  0  0  0  0  0
   21.6501  -12.9746    2.0551 H   0  0  0  0  0  0  0  0  0  0  0  0
  1  2  1  0  0  0  0
  1  8  1  0  0  0  0
  2  3  1  0  0  0  0
  3  4  1  0  0  0  0
  4  5  1  0  0  0  0
  4 12  1  6  0  0  0
  5 11  1  1  0  0  0
  5  6  1  0  0  0  0
  6 10  1  6  0  0  0
  6  7  1  0  0  0  0
  7  8  1  0  0  0  0
  7  9  1  6  0  0  0
  9 13  1  0  0  0  0
 10 14  1  0  0  0  0
 11 15  1  0  0  0  0
 12 16  1  0  0  0  0
M  END
>  <CHROM.0>
-49.51063605,-176.05585023,-55.64414015,-51.24555457,-56.94476062,58.64962142
-54.55562427,-50.25142813,-165.56568476,161.32934473

>  <CHROM.1>
63.48301882,176.15188115,172.11213642,106.15349695,23.54316727,-14.53798251
4.02104111,2.30671436,-0.24053722,-0.21548537

>  <Name>
P49788671

>  <RI>
0

>  <Rbt.Current_Directory>
/home/fstefaniak/projects/zuza/docking/adenine/1Y26

>  <Rbt.Executable>
rbdock ($Id: //depot/dev/client3/rdock/2013.1/src/exe/rbdock.cxx#4 $)

>  <Rbt.Library>
libRbt.so (2013.1, Build901 2013/11/27)

>  <Rbt.Parameter_File>
/home/fstefaniak/progs/rDock//data/scripts/dock_solv.prm

>  <Rbt.Receptor>
1y26.prm

>  <SCORE>
-37.9142

>  <SCORE.INTER>
-20.1514

>  <SCORE.INTER.CONST>
1

>  <SCORE.INTER.POLAR>
-3.75699

>  <SCORE.INTER.ROT>
0

>  <SCORE.INTER.SOLV>
12.9708

>  <SCORE.INTER.VDW>
-8.83453

>  <SCORE.INTER.norm>
-1.67928

>  <SCORE.INTRA>
3.03573

>  <SCORE.INTRA.DIHEDRAL>
0.847324

>  <SCORE.INTRA.DIHEDRAL.0>
6.94411

>  <SCORE.INTRA.POLAR>
0.890466

>  <SCORE.INTRA.POLAR.0>
-0.890466

>  <SCORE.INTRA.REPUL>
0.0034991

>  <SCORE.INTRA.REPUL.0>
0

>  <SCORE.INTRA.SOLV>
0.0621954

>  <SCORE.INTRA.SOLV.lig_0>
-17.6825

>  <SCORE.INTRA.VDW>
-0.46411

>  <SCORE.INTRA.VDW.0>
0.0281383

>  <SCORE.INTRA.norm>
0.252978

>  <SCORE.RESTR>
0.658276

>  <SCORE.RESTR.CAVITY>
0.658276

>  <SCORE.RESTR.norm>
0.0548563

>  <SCORE.SYSTEM>
-21.4568

>  <SCORE.SYSTEM.CONST>
0

>  <SCORE.SYSTEM.DIHEDRAL>
6.11944

>  <SCORE.SYSTEM.POLAR>
-3.51451

>  <SCORE.SYSTEM.SOLV>
0.459061

>  <SCORE.SYSTEM.VDW>
-4.78238

>  <SCORE.SYSTEM.norm>
-1.78807

>  <SCORE.heavy>
12

>  <SCORE.norm>
-3.15952

$$$$
P50742774
 OpenBabel12072022103D
libRbt.so/2013.1/901 2013/11/27
  9  9  0  0  0  0  0  0  0  0999 V2000
   20.0461  -17.5260    4.8469 C   0  0  0  0  0  0  0  0  0  0  0  0
   19.9500  -16.5711    3.6698 C   0  0  0  0  0  0  0  0  0  0  0  0
   19.7858  -17.3020    2.4594 O   0  0  0  0  0  0  0  0  0  0  0  0
   18.6340  -18.1320    2.5181 C   0  0  0  0  0  0  0  0  0  0  0  0
   18.7240  -19.0940    3.5615 O   0  0  0  0  0  0  0  0  0  0  0  0
   18.8367  -18.4608    4.8371 C   0  0  1  0  0  0  0  0  0  0  0  0
   18.9552  -19.5427    5.9148 C   0  0  0  0  0  0  0  0  0  0  0  0
   18.9813  -18.9742    7.2196 O   0  0  0  0  0  0  0  0  0  0  0  0
   18.2355  -18.3525    7.2789 H   0  0  0  0  0  0  0  0  0  0  0  0
  1  2  1  0  0  0  0
  1  6  1  0  0  0  0
  2  3  1  0  0  0  0
  3  4  1  0  0  0  0
  4  5  1  0  0  0  0
  5  6  1  0  0  0  0
  6  7  1  1  0  0  0
  7  8  1  0  0  0  0
  8  9  1  0  0  0  0
M  END
>  <CHROM.0>
-167.43337334,-62.40282218,-50.64151195,-50.90327912,-56.66323651,57.46763756
-60.70811117,-51.24971267,-167.16807952,159.94973287

>  <CHROM.1>
62.65867056,49.62207642,19.23022036,-18.21228567,4.40099898,-1.78819949,-0.99339192
-1.35214170

>  <Name>
P50742774

>  <RI>
0

>  <Rbt.Current_Directory>
/home/fstefaniak/projects/zuza/docking/adenine/1Y26

>  <Rbt.Executable>
rbdock ($Id: //depot/dev/client3/rdock/2013.1/src/exe/rbdock.cxx#4 $)

>  <Rbt.Library>
libRbt.so (2013.1, Build901 2013/11/27)

>  <Rbt.Parameter_File>
/home/fstefaniak/progs/rDock//data/scripts/dock_solv.prm

>  <Rbt.Receptor>
1y26.prm

>  <SCORE>
-53.4582

>  <SCORE.INTER>
-33.3594

>  <SCORE.INTER.CONST>
1

>  <SCORE.INTER.POLAR>
-4.28366

>  <SCORE.INTER.ROT>
1

>  <SCORE.INTER.SOLV>
9.43803

>  <SCORE.INTER.VDW>
-15.3734

>  <SCORE.INTER.norm>
-4.16992

>  <SCORE.INTRA>
-0.0936546

>  <SCORE.INTRA.DIHEDRAL>
-0.550709

>  <SCORE.INTRA.DIHEDRAL.0>
1.0974

>  <SCORE.INTRA.POLAR>
0

>  <SCORE.INTRA.POLAR.0>
0

>  <SCORE.INTRA.REPUL>
0

>  <SCORE.INTRA.REPUL.0>
0

>  <SCORE.INTRA.SOLV>
-0.00683497

>  <SCORE.INTRA.SOLV.lig_0>
-9.53581

>  <SCORE.INTRA.VDW>
0.185118

>  <SCORE.INTRA.VDW.0>
-0.158617

>  <SCORE.INTRA.norm>
-0.0117068

>  <SCORE.RESTR>
0

>  <SCORE.RESTR.CAVITY>
0

>  <SCORE.RESTR.norm>
0

>  <SCORE.SYSTEM>
-20.0052

>  <SCORE.SYSTEM.CONST>
0

>  <SCORE.SYSTEM.DIHEDRAL>
6.45629

>  <SCORE.SYSTEM.POLAR>
-3.33127

>  <SCORE.SYSTEM.SOLV>
0.453606

>  <SCORE.SYSTEM.VDW>
-4.53586

>  <SCORE.SYSTEM.norm>
-2.50065

>  <SCORE.heavy>
8

>  <SCORE.norm>
-6.68228

$$$$
P50742774
 OpenBabel12072022103D
libRbt.so/2013.1/901 2013/11/27
  9  9  0  0  0  0  0  0  0  0999 V2000
   20.0026  -17.8011    4.6965 C   0  0  0  0  0  0  0  0  0  0  0  0
   20.2419  -16.9446    3.4652 C   0  0  0  0  0  0  0  0  0  0  0  0
   19.8991  -17.6710    2.2901 O   0  0  0  0  0  0  0  0  0  0  0  0
   18.5467  -18.1044    2.3357 C   0  0  0  0  0  0  0  0  0  0  0  0
   18.3037  -18.9750    3.4337 O   0  0  0  0  0  0  0  0  0  0  0  0
   18.5653  -18.3212    4.6767 C   0  0  1  0  0  0  0  0  0  0  0  0
   18.3115  -19.3119    5.8168 C   0  0  0  0  0  0  0  0  0  0  0  0
   16.9196  -19.4586    6.0761 O   0  0  0  0  0  0  0  0  0  0  0  0
   16.8289  -20.0600    6.8353 H   0  0  0  0  0  0  0  0  0  0  0  0
  1  2  1  0  0  0  0
  1  6  1  0  0  0  0
  2  3  1  0  0  0  0
  3  4  1  0  0  0  0
  4  5  1  0  0  0  0
  5  6  1  0  0  0  0
  6  7  1  1  0  0  0
  7  8  1  0  0  0  0
  8  9  1  0  0  0  0
M  END
>  <CHROM.0>
-52.21981428,-61.92635953,-57.89856355,-53.85627190,-56.61343191,-61.43872066
-56.87219322,-177.16879504,-166.96927791,160.39160545

>  <CHROM.1>
160.87128860,-177.09058454,18.81020254,-18.35725366,4.10897704,-0.87791156
0.58782639,1.66881673

>  <Name>
P50742774

>  <RI>
0

>  <Rbt.Current_Directory>
/home/fstefaniak/projects/zuza/docking/adenine/1Y26

>  <Rbt.Executable>
rbdock ($Id: //depot/dev/client3/rdock/2013.1/src/exe/rbdock.cxx#4 $)

>  <Rbt.Library>
libRbt.so (2013.1, Build901 2013/11/27)

>  <Rbt.Parameter_File>
/home/fstefaniak/progs/rDock//data/scripts/dock_solv.prm

>  <Rbt.Receptor>
1y26.prm

>  <SCORE>
-50.5507

>  <SCORE.INTER>
-27.7712

>  <SCORE.INTER.CONST>
1

>  <SCORE.INTER.POLAR>
-3.67453

>  <SCORE.INTER.ROT>
1

>  <SCORE.INTER.SOLV>
9.15037

>  <SCORE.INTER.VDW>
-13.5825

>  <SCORE.INTER.norm>
-3.4714

>  <SCORE.INTRA>
-0.0806458

>  <SCORE.INTRA.DIHEDRAL>
0.169901

>  <SCORE.INTRA.DIHEDRAL.0>
1.0974

>  <SCORE.INTRA.POLAR>
0

>  <SCORE.INTRA.POLAR.0>
0

>  <SCORE.INTRA.REPUL>
0

>  <SCORE.INTRA.REPUL.0>
0

>  <SCORE.INTRA.SOLV>
0.0513644

>  <SCORE.INTRA.SOLV.lig_0>
-9.53581

>  <SCORE.INTRA.VDW>
-0.191278

>  <SCORE.INTRA.VDW.0>
-0.158617

>  <SCORE.INTRA.norm>
-0.0100807

>  <SCORE.RESTR>
0

>  <SCORE.RESTR.CAVITY>
0

>  <SCORE.RESTR.norm>
0

>  <SCORE.SYSTEM>
-22.6988

>  <SCORE.SYSTEM.CONST>
0

>  <SCORE.SYSTEM.DIHEDRAL>
5.08747

>  <SCORE.SYSTEM.POLAR>
-3.38357

>  <SCORE.SYSTEM.SOLV>
0.445858

>  <SCORE.SYSTEM.VDW>
-5.69842

>  <SCORE.SYSTEM.norm>
-2.83736

>  <SCORE.heavy>
8

>  <SCORE.norm>
-6.31884

$$$$
P50742774
 OpenBabel12072022103D
libRbt.so/2013.1/901 2013/11/27
  9  9  0  0  0  0  0  0  0  0999 V2000
   19.9463  -17.7476    4.7083 C   0  0  0  0  0  0  0  0  0  0  0  0
   20.1804  -16.8929    3.4748 C   0  0  0  0  0  0  0  0  0  0  0  0
   19.8869  -17.6401    2.2994 O   0  0  0  0  0  0  0  0  0  0  0  0
   18.5498  -18.1202    2.3218 C   0  0  0  0  0  0  0  0  0  0  0  0
   18.3151  -18.9901    3.4222 O   0  0  0  0  0  0  0  0  0  0  0  0
   18.5287  -18.3178    4.6644 C   0  0  1  0  0  0  0  0  0  0  0  0
   18.2867  -19.3078    5.8077 C   0  0  0  0  0  0  0  0  0  0  0  0
   16.8959  -19.4879    6.0520 O   0  0  0  0  0  0  0  0  0  0  0  0
   16.8111  -20.1135    6.7920 H   0  0  0  0  0  0  0  0  0  0  0  0
  1  2  1  0  0  0  0
  1  6  1  0  0  0  0
  2  3  1  0  0  0  0
  3  4  1  0  0  0  0
  4  5  1  0  0  0  0
  5  6  1  0  0  0  0
  6  7  1  1  0  0  0
  7  8  1  0  0  0  0
  8  9  1  0  0  0  0
M  END
>  <CHROM.0>
-50.77947426,-62.82884977,-56.83399232,-52.42449645,-174.43710489,-60.73169892
-59.34871198,-176.02052815,-166.49127969,160.92954306

>  <CHROM.1>
160.11406001,-179.21631077,18.78611791,-18.34805099,4.10349552,-0.85857332
0.62360932,1.64743341

>  <Name>
P50742774

>  <RI>
0

>  <Rbt.Current_Directory>
/home/fstefaniak/projects/zuza/docking/adenine/1Y26

>  <Rbt.Executable>
rbdock ($Id: //depot/dev/client3/rdock/2013.1/src/exe/rbdock.cxx#4 $)

>  <Rbt.Library>
libRbt.so (2013.1, Build901 2013/11/27)

>  <Rbt.Parameter_File>
/home/fstefaniak/progs/rDock//data/scripts/dock_solv.prm

>  <Rbt.Receptor>
1y26.prm

>  <SCORE>
-50.5394

>  <SCORE.INTER>
-27.8093

>  <SCORE.INTER.CONST>
1

>  <SCORE.INTER.POLAR>
-3.67625

>  <SCORE.INTER.ROT>
1

>  <SCORE.INTER.SOLV>
9.21433

>  <SCORE.INTER.VDW>
-13.6235

>  <SCORE.INTER.norm>
-3.47616

>  <SCORE.INTRA>
-0.0568881

>  <SCORE.INTRA.DIHEDRAL>
0.220537

>  <SCORE.INTRA.DIHEDRAL.0>
1.0974

>  <SCORE.INTRA.POLAR>
0

>  <SCORE.INTRA.POLAR.0>
0

>  <SCORE.INTRA.REPUL>
0

>  <SCORE.INTRA.REPUL.0>
0

>  <SCORE.INTRA.SOLV>
0.0480996

>  <SCORE.INTRA.SOLV.lig_0>
-9.53581

>  <SCORE.INTRA.VDW>
-0.191206

>  <SCORE.INTRA.VDW.0>
-0.158617

>  <SCORE.INTRA.norm>
-0.00711102

>  <SCORE.RESTR>
0

>  <SCORE.RESTR.CAVITY>
0

>  <SCORE.RESTR.norm>
0

>  <SCORE.SYSTEM>
-22.6732

>  <SCORE.SYSTEM.CONST>
0

>  <SCORE.SYSTEM.DIHEDRAL>
5.38354

>  <SCORE.SYSTEM.POLAR>
-3.42504

>  <SCORE.SYSTEM.SOLV>
0.28187

>  <SCORE.SYSTEM.VDW>
-5.58714

>  <SCORE.SYSTEM.norm>
-2.83415

>  <SCORE.heavy>
8

>  <SCORE.norm>
-6.31743

$$$$
P51215067
 OpenBabel12072022103D
libRbt.so/2013.1/901 2013/11/27
 12 12  0  0  0  0  0  0  0  0999 V2000
   19.7488  -18.0994    6.7557 C   0  0  0  0  0  0  0  0  0  0  0  0
   19.8554  -17.5777    5.3329 C   0  0  0  0  0  0  0  0  0  0  0  0
   18.8077  -18.3890    4.5882 C   0  0  2  0  0  0  0  0  0  0  0  0
   18.8543  -19.7265    5.2896 N   0  3  0  0  0  0  0  0  0  0  0  0
   17.9907  -20.2654    5.2232 H   0  0  0  0  0  0  0  0  0  0  0  0
   19.5084  -20.2390    4.6205 H   0  0  0  0  0  0  0  0  0  0  0  0
   19.5302  -19.5926    6.5918 C   0  0  0  0  0  0  0  0  0  0  0  0
   19.0838  -18.5128    3.0822 C   0  0  0  0  0  0  0  0  0  0  0  0
   18.5580  -19.4047    2.4152 O   0  0  0  0  0  0  0  0  0  0  0  0
   19.9723  -17.6163    2.5117 N   0  0  0  0  0  0  0  0  0  0  0  0
   21.1754  -18.0371    1.9753 O   0  5  0  0  0  0  0  0  0  0  0  0
   19.9784  -16.6762    2.9069 H   0  0  0  0  0  0  0  0  0  0  0  0
  1  2  1  0  0  0  0
  1  7  1  0  0  0  0
  2  3  1  0  0  0  0
  3  4  1  0  0  0  0
  3  8  1  6  0  0  0
  4  5  1  0  0  0  0
  4  6  1  0  0  0  0
  4  7  1  0  0  0  0
  8  9  2  0  0  0  0
  8 10  1  0  0  0  0
 10 11  1  0  0  0  0
 10 12  1  0  0  0  0
M  CHG  2   4   1  11  -1
M  END
>  <CHROM.0>
-51.87243143,-62.63770977,-59.35603872,-53.48704937,-176.10508499,-57.24895503
-60.72960117,-49.99242237,-167.98483300,161.12061920

>  <CHROM.1>
160.35792580,114.91360000,19.52431132,-18.56947433,4.23481142,-1.77517643
-0.81886681,-1.56873653

>  <Name>
P51215067

>  <RI>
0

>  <Rbt.Current_Directory>
/home/fstefaniak/projects/zuza/docking/adenine/1Y26

>  <Rbt.Executable>
rbdock ($Id: //depot/dev/client3/rdock/2013.1/src/exe/rbdock.cxx#4 $)

>  <Rbt.Library>
libRbt.so (2013.1, Build901 2013/11/27)

>  <Rbt.Parameter_File>
/home/fstefaniak/progs/rDock//data/scripts/dock_solv.prm

>  <Rbt.Receptor>
1y26.prm

>  <SCORE>
-53.7327

>  <SCORE.INTER>
-28.1784

>  <SCORE.INTER.CONST>
1

>  <SCORE.INTER.POLAR>
-5.37829

>  <SCORE.INTER.ROT>
2

>  <SCORE.INTER.SOLV>
27.9302

>  <SCORE.INTER.VDW>
-15.1014

>  <SCORE.INTER.norm>
-3.13093

>  <SCORE.INTRA>
-3.3363

>  <SCORE.INTRA.DIHEDRAL>
0.222379

>  <SCORE.INTRA.DIHEDRAL.0>
2.34042

>  <SCORE.INTRA.POLAR>
0

>  <SCORE.INTRA.POLAR.0>
0

>  <SCORE.INTRA.REPUL>
0

>  <SCORE.INTRA.REPUL.0>
0

>  <SCORE.INTRA.SOLV>
-7.64892

>  <SCORE.INTRA.SOLV.lig_0>
-47.5859

>  <SCORE.INTRA.VDW>
0.376967

>  <SCORE.INTRA.VDW.0>
-0.549349

>  <SCORE.INTRA.norm>
-0.3707

>  <SCORE.RESTR>
0

>  <SCORE.RESTR.CAVITY>
0

>  <SCORE.RESTR.norm>
0

>  <SCORE.SYSTEM>
-22.218

>  <SCORE.SYSTEM.CONST>
0

>  <SCORE.SYSTEM.DIHEDRAL>
5.32777

>  <SCORE.SYSTEM.POLAR>
-3.40329

>  <SCORE.SYSTEM.SOLV>
0.490542

>  <SCORE.SYSTEM.VDW>
-5.40716

>  <SCORE.SYSTEM.norm>
-2.46867

>  <SCORE.heavy>
9

>  <SCORE.norm>
-5.9703

$$$$
P51215067
 OpenBabel12072022103D
libRbt.so/2013.1/901 2013/11/27
 12 12  0  0  0  0  0  0  0  0999 V2000
   19.7565  -18.0979    6.7697 C   0  0  0  0  0  0  0  0  0  0  0  0
   19.8572  -17.5604    5.3524 C   0  0  0  0  0  0  0  0  0  0  0  0
   18.8189  -18.3759    4.5992 C   0  0  2  0  0  0  0  0  0  0  0  0
   18.8810  -19.7200    5.2868 N   0  3  0  0  0  0  0  0  0  0  0  0
   18.0236  -20.2681    5.2146 H   0  0  0  0  0  0  0  0  0  0  0  0
   19.5410  -20.2180    4.6125 H   0  0  0  0  0  0  0  0  0  0  0  0
   19.5552  -19.5918    6.5903 C   0  0  0  0  0  0  0  0  0  0  0  0
   19.0965  -18.4809    3.0921 C   0  0  0  0  0  0  0  0  0  0  0  0
   18.5473  -19.3451    2.4077 O   0  0  0  0  0  0  0  0  0  0  0  0
   20.0127  -17.6007    2.5402 N   0  0  0  0  0  0  0  0  0  0  0  0
   21.2411  -18.0359    2.0776 O   0  5  0  0  0  0  0  0  0  0  0  0
   19.9993  -16.6493    2.9071 H   0  0  0  0  0  0  0  0  0  0  0  0
  1  2  1  0  0  0  0
  1  7  1  0  0  0  0
  2  3  1  0  0  0  0
  3  4  1  0  0  0  0
  3  8  1  6  0  0  0
  4  5  1  0  0  0  0
  4  6  1  0  0  0  0
  4  7  1  0  0  0  0
  8  9  2  0  0  0  0
  8 10  1  0  0  0  0
 10 11  1  0  0  0  0
 10 12  1  0  0  0  0
M  CHG  2   4   1  11  -1
M  END
>  <CHROM.0>
-49.04136640,-59.58516201,-53.71323354,-48.84408128,-57.26157019,-57.40080015
-59.87835518,-52.34252934,-167.58959799,160.34142335

>  <CHROM.1>
162.73662575,110.72038074,19.54496194,-18.55292836,4.25457862,-1.77036515
-0.79436462,-1.55803792

>  <Name>
P51215067

>  <RI>
0

>  <Rbt.Current_Directory>
/home/fstefaniak/projects/zuza/docking/adenine/1Y26

>  <Rbt.Executable>
rbdock ($Id: //depot/dev/client3/rdock/2013.1/src/exe/rbdock.cxx#4 $)

>  <Rbt.Library>
libRbt.so (2013.1, Build901 2013/11/27)

>  <Rbt.Parameter_File>
/home/fstefaniak/progs/rDock//data/scripts/dock_solv.prm

>  <Rbt.Receptor>
1y26.prm

>  <SCORE>
-53.6457

>  <SCORE.INTER>
-28.2096

>  <SCORE.INTER.CONST>
1

>  <SCORE.INTER.POLAR>
-5.41268

>  <SCORE.INTER.ROT>
2

>  <SCORE.INTER.SOLV>
27.5178

>  <SCORE.INTER.VDW>
-14.8701

>  <SCORE.INTER.norm>
-3.1344

>  <SCORE.INTRA>
-3.2563

>  <SCORE.INTRA.DIHEDRAL>
0.307458

>  <SCORE.INTRA.DIHEDRAL.0>
2.34042

>  <SCORE.INTRA.POLAR>
0

>  <SCORE.INTRA.POLAR.0>
0

>  <SCORE.INTRA.REPUL>
0

>  <SCORE.INTRA.REPUL.0>
0

>  <SCORE.INTRA.SOLV>
-7.45737

>  <SCORE.INTRA.SOLV.lig_0>
-47.5859

>  <SCORE.INTRA.VDW>
0.318658

>  <SCORE.INTRA.VDW.0>
-0.549349

>  <SCORE.INTRA.norm>
-0.361811

>  <SCORE.RESTR>
0

>  <SCORE.RESTR.CAVITY>
0

>  <SCORE.RESTR.norm>
0

>  <SCORE.SYSTEM>
-22.1798

>  <SCORE.SYSTEM.CONST>
0

>  <SCORE.SYSTEM.DIHEDRAL>
6.01782

>  <SCORE.SYSTEM.POLAR>
-3.57549

>  <SCORE.SYSTEM.SOLV>
0.677072

>  <SCORE.SYSTEM.VDW>
-5.09987

>  <SCORE.SYSTEM.norm>
-2.46442

>  <SCORE.heavy>
9

>  <SCORE.norm>
-5.96064

$$$$
P51215067
 OpenBabel12072022103D
libRbt.so/2013.1/901 2013/11/27
 12 12  0  0  0  0  0  0  0  0999 V2000
   19.7691  -18.1034    6.7970 C   0  0  0  0  0  0  0  0  0  0  0  0
   19.8719  -17.5550    5.3841 C   0  0  0  0  0  0  0  0  0  0  0  0
   18.8229  -18.3527    4.6268 C   0  0  2  0  0  0  0  0  0  0  0  0
   18.8720  -19.7032    5.3029 N   0  3  0  0  0  0  0  0  0  0  0  0
   18.0085  -20.2412    5.2284 H   0  0  0  0  0  0  0  0  0  0  0  0
   19.5247  -20.2026    4.6226 H   0  0  0  0  0  0  0  0  0  0  0  0
   19.5509  -19.5934    6.6056 C   0  0  0  0  0  0  0  0  0  0  0  0
   19.0954  -18.4480    3.1181 C   0  0  0  0  0  0  0  0  0  0  0  0
   18.5313  -19.2973    2.4271 O   0  0  0  0  0  0  0  0  0  0  0  0
   20.0238  -17.5770    2.5722 N   0  0  0  0  0  0  0  0  0  0  0  0
   21.2641  -18.0186    2.1492 O   0  5  0  0  0  0  0  0  0  0  0  0
   19.9996  -16.6185    2.9198 H   0  0  0  0  0  0  0  0  0  0  0  0
  1  2  1  0  0  0  0
  1  7  1  0  0  0  0
  2  3  1  0  0  0  0
  3  4  1  0  0  0  0
  3  8  1  6  0  0  0
  4  5  1  0  0  0  0
  4  6  1  0  0  0  0
  4  7  1  0  0  0  0
  8  9  2  0  0  0  0
  8 10  1  0  0  0  0
 10 11  1  0  0  0  0
 10 12  1  0  0  0  0
M  CHG  2   4   1  11  -1
M  END
>  <CHROM.0>
-45.23879739,-65.77816348,-53.55305281,-52.71840465,-53.32135659,-64.08267723
-54.88090716,-50.81656595,-168.03132364,160.69333621

>  <CHROM.1>
162.99726970,108.23263661,19.54856665,-18.53481091,4.28438875,-1.76583036
-0.77500009,-1.54463862

>  <Name>
P51215067

>  <RI>
0

>  <Rbt.Current_Directory>
/home/fstefaniak/projects/zuza/docking/adenine/1Y26

>  <Rbt.Executable>
rbdock ($Id: //depot/dev/client3/rdock/2013.1/src/exe/rbdock.cxx#4 $)

>  <Rbt.Library>
libRbt.so (2013.1, Build901 2013/11/27)

>  <Rbt.Parameter_File>
/home/fstefaniak/progs/rDock//data/scripts/dock_solv.prm

>  <Rbt.Receptor>
1y26.prm

>  <SCORE>
-53.5443

>  <SCORE.INTER>
-28.2106

>  <SCORE.INTER.CONST>
1

>  <SCORE.INTER.POLAR>
-5.33754

>  <SCORE.INTER.ROT>
2

>  <SCORE.INTER.SOLV>
27.1815

>  <SCORE.INTER.VDW>
-15.0091

>  <SCORE.INTER.norm>
-3.13451

>  <SCORE.INTRA>
-3.25725

>  <SCORE.INTRA.DIHEDRAL>
0.316819

>  <SCORE.INTRA.DIHEDRAL.0>
2.34042

>  <SCORE.INTRA.POLAR>
0

>  <SCORE.INTRA.POLAR.0>
0

>  <SCORE.INTRA.REPUL>
0

>  <SCORE.INTRA.REPUL.0>
0

>  <SCORE.INTRA.SOLV>
-7.37545

>  <SCORE.INTRA.SOLV.lig_0>
-47.5859

>  <SCORE.INTRA.VDW>
0.272063

>  <SCORE.INTRA.VDW.0>
-0.549349

>  <SCORE.INTRA.norm>
-0.361917

>  <SCORE.RESTR>
0

>  <SCORE.RESTR.CAVITY>
0

>  <SCORE.RESTR.norm>
0

>  <SCORE.SYSTEM>
-22.0765

>  <SCORE.SYSTEM.CONST>
0

>  <SCORE.SYSTEM.DIHEDRAL>
6.6679

>  <SCORE.SYSTEM.POLAR>
-3.56381

>  <SCORE.SYSTEM.SOLV>
0.672551

>  <SCORE.SYSTEM.VDW>
-5.28509

>  <SCORE.SYSTEM.norm>
-2.45294

>  <SCORE.heavy>
9

>  <SCORE.norm>
-5.94937

$$$$
P51916455
 OpenBabel12072022103D
libRbt.so/2013.1/901 2013/11/27
 14 14  0  0  0  0  0  0  0  0999 V2000
   18.0655  -18.4636    1.3149 C   0  0  0  0  0  0  0  0  0  0  0  0
   19.1314  -18.3654    2.3966 C   0  0  2  0  0  0  0  0  0  0  0  0
   18.5049  -18.4239    3.7992 C   0  0  0  0  0  0  0  0  0  0  0  0
   19.5007  -18.1810    4.8469 N   0  0  0  0  0  0  0  0  0  0  0  0
   20.3490  -17.0082    4.5998 C   0  0  0  0  0  0  0  0  0  0  0  0
   20.8930  -16.9970    3.1686 C   0  0  0  0  0  0  0  0  0  0  0  0
   19.8366  -17.1246    2.2085 O   0  0  0  0  0  0  0  0  0  0  0  0
   19.1866  -18.6303    6.1223 C   0  0  0  0  0  0  0  0  0  0  0  0
   19.7432  -18.2243    7.1421 O   0  0  0  0  0  0  0  0  0  0  0  0
   18.1792  -19.5854    6.1742 N   0  0  0  0  0  0  0  0  0  0  0  0
   16.8480  -19.1437    6.4126 N   0  0  0  0  0  0  0  0  0  0  0  0
   18.2770  -20.3499    5.5129 H   0  0  0  0  0  0  0  0  0  0  0  0
   16.9249  -18.2978    6.9967 H   0  0  0  0  0  0  0  0  0  0  0  0
   16.4205  -19.8238    7.0481 H   0  0  0  0  0  0  0  0  0  0  0  0
  2  3  1  0  0  0  0
  2  7  1  0  0  0  0
  2  1  1  6  0  0  0
  3  4  1  0  0  0  0
  4  5  1  0  0  0  0
  4  8  1  0  0  0  0
  5  6  1  0  0  0  0
  6  7  1  0  0  0  0
  8  9  2  0  0  0  0
  8 10  1  0  0  0  0
 10 11  1  0  0  0  0
 10 12  1  0  0  0  0
 11 13  1  0  0  0  0
 11 14  1  0  0  0  0
M  END
>  <CHROM.0>
-48.40766717,-170.29550522,-62.12783237,-55.41766499,-175.96142550,-175.85661580
-169.70378274,-53.02038325,-168.31795114,160.36639226

>  <CHROM.1>
-161.45722285,-94.78679471,-30.56619883,19.08581825,-18.20173652,4.39900743
1.29709930,-0.55414699,-1.44244130

>  <Name>
P51916455

>  <RI>
0

>  <Rbt.Current_Directory>
/home/fstefaniak/projects/zuza/docking/adenine/1Y26

>  <Rbt.Executable>
rbdock ($Id: //depot/dev/client3/rdock/2013.1/src/exe/rbdock.cxx#4 $)

>  <Rbt.Library>
libRbt.so (2013.1, Build901 2013/11/27)

>  <Rbt.Parameter_File>
/home/fstefaniak/progs/rDock//data/scripts/dock_solv.prm

>  <Rbt.Receptor>
1y26.prm

>  <SCORE>
-58.3147

>  <SCORE.INTER>
-37.1728

>  <SCORE.INTER.CONST>
1

>  <SCORE.INTER.POLAR>
-5.36901

>  <SCORE.INTER.ROT>
3

>  <SCORE.INTER.SOLV>
15.297

>  <SCORE.INTER.VDW>
-17.5842

>  <SCORE.INTER.norm>
-3.37934

>  <SCORE.INTRA>
-0.0831032

>  <SCORE.INTRA.DIHEDRAL>
-0.660004

>  <SCORE.INTRA.DIHEDRAL.0>
2.21107

>  <SCORE.INTRA.POLAR>
0

>  <SCORE.INTRA.POLAR.0>
0

>  <SCORE.INTRA.REPUL>
0

>  <SCORE.INTRA.REPUL.0>
0

>  <SCORE.INTRA.SOLV>
0.239673

>  <SCORE.INTRA.SOLV.lig_0>
-18.6906

>  <SCORE.INTRA.VDW>
0.127062

>  <SCORE.INTRA.VDW.0>
0.76819

>  <SCORE.INTRA.norm>
-0.00755483

>  <SCORE.RESTR>
0

>  <SCORE.RESTR.CAVITY>
0

>  <SCORE.RESTR.norm>
0

>  <SCORE.SYSTEM>
-21.0588

>  <SCORE.SYSTEM.CONST>
0

>  <SCORE.SYSTEM.DIHEDRAL>
6.36948

>  <SCORE.SYSTEM.POLAR>
-3.39925

>  <SCORE.SYSTEM.SOLV>
0.234471

>  <SCORE.SYSTEM.VDW>
-4.90971

>  <SCORE.SYSTEM.norm>
-1.91444

>  <SCORE.heavy>
11

>  <SCORE.norm>
-5.30134

$$$$
P51916455
 OpenBabel12072022103D
libRbt.so/2013.1/901 2013/11/27
 14 14  0  0  0  0  0  0  0  0999 V2000
   21.4059  -15.3594    4.0045 C   0  0  0  0  0  0  0  0  0  0  0  0
   20.1488  -16.2167    4.0264 C   0  0  2  0  0  0  0  0  0  0  0  0
   20.2236  -17.2822    5.1320 C   0  0  0  0  0  0  0  0  0  0  0  0
   19.0892  -18.2080    5.0686 N   0  0  0  0  0  0  0  0  0  0  0  0
   18.8262  -18.7341    3.7231 C   0  0  0  0  0  0  0  0  0  0  0  0
   18.8170  -17.6195    2.6735 C   0  0  0  0  0  0  0  0  0  0  0  0
   20.0161  -16.8367    2.7340 O   0  0  0  0  0  0  0  0  0  0  0  0
   18.7958  -18.9155    6.2265 C   0  0  0  0  0  0  0  0  0  0  0  0
   19.4979  -18.8865    7.2369 O   0  0  0  0  0  0  0  0  0  0  0  0
   17.6317  -19.6715    6.1707 N   0  0  0  0  0  0  0  0  0  0  0  0
   16.4004  -19.0305    6.4820 N   0  0  0  0  0  0  0  0  0  0  0  0
   17.5956  -20.3503    5.4161 H   0  0  0  0  0  0  0  0  0  0  0  0
   16.6405  -18.2052    7.0509 H   0  0  0  0  0  0  0  0  0  0  0  0
   15.9129  -19.6358    7.1492 H   0  0  0  0  0  0  0  0  0  0  0  0
  2  3  1  0  0  0  0
  2  7  1  0  0  0  0
  2  1  1  6  0  0  0
  3  4  1  0  0  0  0
  4  5  1  0  0  0  0
  4  8  1  0  0  0  0
  5  6  1  0  0  0  0
  6  7  1  0  0  0  0
  8  9  2  0  0  0  0
  8 10  1  0  0  0  0
 10 11  1  0  0  0  0
 10 12  1  0  0  0  0
 11 13  1  0  0  0  0
 11 14  1  0  0  0  0
M  END
>  <CHROM.0>
-156.32962637,-59.79523675,-62.39739508,-54.66326300,-57.40327604,-60.26285313
-59.09926479,-52.37357142,-166.15193157,160.66683969

>  <CHROM.1>
-6.43088130,-85.51169847,-22.00329971,19.14966826,-17.89652161,4.87875690
-0.82556667,0.64188677,1.83124171

>  <Name>
P51916455

>  <RI>
0

>  <Rbt.Current_Directory>
/home/fstefaniak/projects/zuza/docking/adenine/1Y26

>  <Rbt.Executable>
rbdock ($Id: //depot/dev/client3/rdock/2013.1/src/exe/rbdock.cxx#4 $)

>  <Rbt.Library>
libRbt.so (2013.1, Build901 2013/11/27)

>  <Rbt.Parameter_File>
/home/fstefaniak/progs/rDock//data/scripts/dock_solv.prm

>  <Rbt.Receptor>
1y26.prm

>  <SCORE>
-55.5675

>  <SCORE.INTER>
-34.9162

>  <SCORE.INTER.CONST>
1

>  <SCORE.INTER.POLAR>
-5.20306

>  <SCORE.INTER.ROT>
3

>  <SCORE.INTER.SOLV>
15.3415

>  <SCORE.INTER.VDW>
-16.6478

>  <SCORE.INTER.norm>
-3.1742

>  <SCORE.INTRA>
-0.524926

>  <SCORE.INTRA.DIHEDRAL>
-0.373575

>  <SCORE.INTRA.DIHEDRAL.0>
2.21107

>  <SCORE.INTRA.POLAR>
0

>  <SCORE.INTRA.POLAR.0>
0

>  <SCORE.INTRA.REPUL>
0

>  <SCORE.INTRA.REPUL.0>
0

>  <SCORE.INTRA.SOLV>
0.118912

>  <SCORE.INTRA.SOLV.lig_0>
-18.6906

>  <SCORE.INTRA.VDW>
-0.397594

>  <SCORE.INTRA.VDW.0>
0.76819

>  <SCORE.INTRA.norm>
-0.0477205

>  <SCORE.RESTR>
0

>  <SCORE.RESTR.CAVITY>
0

>  <SCORE.RESTR.norm>
0

>  <SCORE.SYSTEM>
-20.1264

>  <SCORE.SYSTEM.CONST>
0

>  <SCORE.SYSTEM.DIHEDRAL>
7.35521

>  <SCORE.SYSTEM.POLAR>
-3.18403

>  <SCORE.SYSTEM.SOLV>
0.584895

>  <SCORE.SYSTEM.VDW>
-5.45085

>  <SCORE.SYSTEM.norm>
-1.82967

>  <SCORE.heavy>
11

>  <SCORE.norm>
-5.05159

$$$$
P51916455
 OpenBabel12072022103D
libRbt.so/2013.1/901 2013/11/27
 14 14  0  0  0  0  0  0  0  0999 V2000
   18.2933  -18.4264    1.4042 C   0  0  0  0  0  0  0  0  0  0  0  0
   19.3165  -18.2462    2.5161 C   0  0  2  0  0  0  0  0  0  0  0  0
   18.6813  -18.4769    3.8968 C   0  0  0  0  0  0  0  0  0  0  0  0
   19.6153  -18.1615    4.9814 N   0  0  0  0  0  0  0  0  0  0  0  0
   20.2938  -16.8688    4.8239 C   0  0  0  0  0  0  0  0  0  0  0  0
   20.8545  -16.6946    3.4098 C   0  0  0  0  0  0  0  0  0  0  0  0
   19.8427  -16.9099    2.4179 O   0  0  0  0  0  0  0  0  0  0  0  0
   19.3464  -18.7270    6.2204 C   0  0  0  0  0  0  0  0  0  0  0  0
   19.9963  -18.4795    7.2358 O   0  0  0  0  0  0  0  0  0  0  0  0
   18.2711  -19.6062    6.2410 N   0  0  0  0  0  0  0  0  0  0  0  0
   16.9635  -19.0632    6.3803 N   0  0  0  0  0  0  0  0  0  0  0  0
   18.3528  -20.4002    5.6131 H   0  0  0  0  0  0  0  0  0  0  0  0
   17.0611  -18.2237    6.9704 H   0  0  0  0  0  0  0  0  0  0  0  0
   16.4391  -19.7065    6.9804 H   0  0  0  0  0  0  0  0  0  0  0  0
  2  3  1  0  0  0  0
  2  7  1  0  0  0  0
  2  1  1  6  0  0  0
  3  4  1  0  0  0  0
  4  5  1  0  0  0  0
  4  8  1  0  0  0  0
  5  6  1  0  0  0  0
  6  7  1  0  0  0  0
  8  9  2  0  0  0  0
  8 10  1  0  0  0  0
 10 11  1  0  0  0  0
 10 12  1  0  0  0  0
 11 13  1  0  0  0  0
 11 14  1  0  0  0  0
M  END
>  <CHROM.0>
60.48308428,-63.02542629,-55.29102821,-51.37984244,-57.06450049,57.48106508
-60.54954445,-177.21934818,-166.84968693,161.58094629

>  <CHROM.1>
-175.19687754,-83.64690679,-32.74460518,19.19767195,-18.15771923,4.51958183
1.32066725,-0.60128517,-1.39053229

>  <Name>
P51916455

>  <RI>
0

>  <Rbt.Current_Directory>
/home/fstefaniak/projects/zuza/docking/adenine/1Y26

>  <Rbt.Executable>
rbdock ($Id: //depot/dev/client3/rdock/2013.1/src/exe/rbdock.cxx#4 $)

>  <Rbt.Library>
libRbt.so (2013.1, Build901 2013/11/27)

>  <Rbt.Parameter_File>
/home/fstefaniak/progs/rDock//data/scripts/dock_solv.prm

>  <Rbt.Receptor>
1y26.prm

>  <SCORE>
-54.1231

>  <SCORE.INTER>
-33.2998

>  <SCORE.INTER.CONST>
1

>  <SCORE.INTER.POLAR>
-4.25678

>  <SCORE.INTER.ROT>
3

>  <SCORE.INTER.SOLV>
15.3756

>  <SCORE.INTER.VDW>
-18.7358

>  <SCORE.INTER.norm>
-3.02725

>  <SCORE.INTRA>
0.104062

>  <SCORE.INTRA.DIHEDRAL>
-0.728373

>  <SCORE.INTRA.DIHEDRAL.0>
2.21107

>  <SCORE.INTRA.POLAR>
0

>  <SCORE.INTRA.POLAR.0>
0

>  <SCORE.INTRA.REPUL>
0

>  <SCORE.INTRA.REPUL.0>
0

>  <SCORE.INTRA.SOLV>
0.304606

>  <SCORE.INTRA.SOLV.lig_0>
-18.6906

>  <SCORE.INTRA.VDW>
0.315945

>  <SCORE.INTRA.VDW.0>
0.76819

>  <SCORE.INTRA.norm>
0.00946016

>  <SCORE.RESTR>
0

>  <SCORE.RESTR.CAVITY>
0

>  <SCORE.RESTR.norm>
0

>  <SCORE.SYSTEM>
-20.9274

>  <SCORE.SYSTEM.CONST>
0

>  <SCORE.SYSTEM.DIHEDRAL>
4.86997

>  <SCORE.SYSTEM.POLAR>
-3.21327

>  <SCORE.SYSTEM.SOLV>
0.267137

>  <SCORE.SYSTEM.VDW>
-4.95305

>  <SCORE.SYSTEM.norm>
-1.90249

>  <SCORE.heavy>
11

>  <SCORE.norm>
-4.92028

$$$$
P51916469
 OpenBabel12072022103D
libRbt.so/2013.1/901 2013/11/27
 17 17  0  0  0  0  0  0  0  0999 V2000
   24.0008  -11.5809    5.0616 C   0  0  0  0  0  0  0  0  0  0  0  0
   23.6785  -13.0752    5.1147 C   0  0  2  0  0  0  0  0  0  0  0  0
   24.9398  -13.9056    4.8285 C   0  0  0  0  0  0  0  0  0  0  0  0
   24.6666  -15.4044    4.9175 C   0  0  0  0  0  0  0  0  0  0  0  0
   23.4918  -15.8313    4.0441 C   0  0  0  0  0  0  0  0  0  0  0  0
   22.2369  -15.0034    4.3449 C   0  0  1  0  0  0  0  0  0  0  0  0
   22.4950  -13.4796    4.1947 C   0  0  2  0  0  0  0  0  0  0  0  0
   22.6974  -13.0561    2.7308 C   0  0  0  0  0  0  0  0  0  0  0  0
   21.1224  -15.4767    3.5351 N   0  0  0  0  0  0  0  0  0  0  0  0
   20.4853  -16.6601    3.8187 C   0  0  0  0  0  0  0  0  0  0  0  0
   20.3368  -17.1267    4.9420 O   0  0  0  0  0  0  0  0  0  0  0  0
   20.0280  -17.2811    2.6621 N   0  0  0  0  0  0  0  0  0  0  0  0
   18.6415  -17.2225    2.3676 N   0  0  0  0  0  0  0  0  0  0  0  0
   20.5563  -14.7812    3.0709 H   0  0  0  0  0  0  0  0  0  0  0  0
   20.5168  -18.1310    2.3942 H   0  0  0  0  0  0  0  0  0  0  0  0
   18.1480  -17.5702    3.1955 H   0  0  0  0  0  0  0  0  0  0  0  0
   18.4593  -17.9557    1.6675 H   0  0  0  0  0  0  0  0  0  0  0  0
  2  3  1  0  0  0  0
  2  7  1  0  0  0  0
  2  1  1  6  0  0  0
  3  4  1  0  0  0  0
  4  5  1  0  0  0  0
  5  6  1  0  0  0  0
  6  9  1  6  0  0  0
  6  7  1  0  0  0  0
  7  8  1  6  0  0  0
  9 10  1  0  0  0  0
  9 14  1  0  0  0  0
 10 11  2  0  0  0  0
 10 12  1  0  0  0  0
 12 13  1  0  0  0  0
 12 15  1  0  0  0  0
 13 16  1  0  0  0  0
 13 17  1  0  0  0  0
M  END
>  <CHROM.0>
-55.91891057,169.93758696,-63.70824658,-52.58858860,-58.29349717,-59.11105751
-166.61095580,-52.47169326,-166.72463672,160.74333548

>  <CHROM.1>
73.88163164,32.31443339,-104.20167182,-53.59523494,22.15842905,-15.04734742
4.01396046,0.61584491,-0.49670348,-0.22847875

>  <Name>
P51916469

>  <RI>
0

>  <Rbt.Current_Directory>
/home/fstefaniak/projects/zuza/docking/adenine/1Y26

>  <Rbt.Executable>
rbdock ($Id: //depot/dev/client3/rdock/2013.1/src/exe/rbdock.cxx#4 $)

>  <Rbt.Library>
libRbt.so (2013.1, Build901 2013/11/27)

>  <Rbt.Parameter_File>
/home/fstefaniak/progs/rDock//data/scripts/dock_solv.prm

>  <Rbt.Receptor>
1y26.prm

>  <SCORE>
-42.3854

>  <SCORE.INTER>
-22.0416

>  <SCORE.INTER.CONST>
1

>  <SCORE.INTER.POLAR>
-3.74808

>  <SCORE.INTER.ROT>
4

>  <SCORE.INTER.SOLV>
13.3432

>  <SCORE.INTER.VDW>
-12.9152

>  <SCORE.INTER.norm>
-1.69551

>  <SCORE.INTRA>
0.0598749

>  <SCORE.INTRA.DIHEDRAL>
0.229897

>  <SCORE.INTRA.DIHEDRAL.0>
2.54793

>  <SCORE.INTRA.POLAR>
0

>  <SCORE.INTRA.POLAR.0>
0

>  <SCORE.INTRA.REPUL>
0

>  <SCORE.INTRA.REPUL.0>
0

>  <SCORE.INTRA.SOLV>
-0.0886906

>  <SCORE.INTRA.SOLV.lig_0>
-15.8758

>  <SCORE.INTRA.VDW>
-0.0107285

>  <SCORE.INTRA.VDW.0>
-0.861439

>  <SCORE.INTRA.norm>
0.00460576

>  <SCORE.RESTR>
0.542496

>  <SCORE.RESTR.CAVITY>
0.542496

>  <SCORE.RESTR.norm>
0.0417305

>  <SCORE.SYSTEM>
-20.9461

>  <SCORE.SYSTEM.CONST>
0

>  <SCORE.SYSTEM.DIHEDRAL>
6.38862

>  <SCORE.SYSTEM.POLAR>
-3.36618

>  <SCORE.SYSTEM.SOLV>
0.554493

>  <SCORE.SYSTEM.VDW>
-5.05786

>  <SCORE.SYSTEM.norm>
-1.61124

>  <SCORE.heavy>
13

>  <SCORE.norm>
-3.26042

$$$$
P51916469
 OpenBabel12072022103D
libRbt.so/2013.1/901 2013/11/27
 17 17  0  0  0  0  0  0  0  0999 V2000
   18.8028  -18.8559    5.8593 C   0  0  0  0  0  0  0  0  0  0  0  0
   20.0224  -18.1933    5.2166 C   0  0  2  0  0  0  0  0  0  0  0  0
   19.9538  -16.6671    5.3856 C   0  0  0  0  0  0  0  0  0  0  0  0
   21.1785  -15.9737    4.7953 C   0  0  0  0  0  0  0  0  0  0  0  0
   21.4294  -16.3768    3.3462 C   0  0  0  0  0  0  0  0  0  0  0  0
   21.5058  -17.9003    3.1911 C   0  0  1  0  0  0  0  0  0  0  0  0
   20.2335  -18.6052    3.7346 C   0  0  2  0  0  0  0  0  0  0  0  0
   18.9972  -18.3522    2.8566 C   0  0  0  0  0  0  0  0  0  0  0  0
   21.8035  -18.2455    1.8077 N   0  0  0  0  0  0  0  0  0  0  0  0
   22.8422  -19.0858    1.4887 C   0  0  0  0  0  0  0  0  0  0  0  0
   23.5509  -19.6671    2.3019 O   0  0  0  0  0  0  0  0  0  0  0  0
   23.0032  -19.1953    0.1122 N   0  0  0  0  0  0  0  0  0  0  0  0
   21.9379  -19.7386   -0.6508 N   0  0  0  0  0  0  0  0  0  0  0  0
   21.0366  -18.2371    1.1507 H   0  0  0  0  0  0  0  0  0  0  0  0
   23.9458  -19.4012   -0.2072 H   0  0  0  0  0  0  0  0  0  0  0  0
   21.1693  -19.9212    0.0017 H   0  0  0  0  0  0  0  0  0  0  0  0
   22.2308  -20.6856   -0.9305 H   0  0  0  0  0  0  0  0  0  0  0  0
  2  3  1  0  0  0  0
  2  7  1  0  0  0  0
  2  1  1  6  0  0  0
  3  4  1  0  0  0  0
  4  5  1  0  0  0  0
  5  6  1  0  0  0  0
  6  9  1  6  0  0  0
  6  7  1  0  0  0  0
  7  8  1  6  0  0  0
  9 10  1  0  0  0  0
  9 14  1  0  0  0  0
 10 11  2  0  0  0  0
 10 12  1  0  0  0  0
 12 13  1  0  0  0  0
 12 15  1  0  0  0  0
 13 16  1  0  0  0  0
 13 17  1  0  0  0  0
M  END
>  <CHROM.0>
-47.05236196,-55.68816766,-63.95825012,-52.27868954,-173.78485774,-177.94379490
-63.44777260,63.80894901,-166.89421081,160.21222928

>  <CHROM.1>
127.73757788,4.09380775,-62.12843559,2.93603372,21.18563605,-18.25863307
2.97601596,2.19900654,0.53591609,0.82970361

>  <Name>
P51916469

>  <RI>
0

>  <Rbt.Current_Directory>
/home/fstefaniak/projects/zuza/docking/adenine/1Y26

>  <Rbt.Executable>
rbdock ($Id: //depot/dev/client3/rdock/2013.1/src/exe/rbdock.cxx#4 $)

>  <Rbt.Library>
libRbt.so (2013.1, Build901 2013/11/27)

>  <Rbt.Parameter_File>
/home/fstefaniak/progs/rDock//data/scripts/dock_solv.prm

>  <Rbt.Receptor>
1y26.prm

>  <SCORE>
-42.1986

>  <SCORE.INTER>
-21.9065

>  <SCORE.INTER.CONST>
1

>  <SCORE.INTER.POLAR>
-5.08171

>  <SCORE.INTER.ROT>
4

>  <SCORE.INTER.SOLV>
17.3559

>  <SCORE.INTER.VDW>
-9.71727

>  <SCORE.INTER.norm>
-1.68512

>  <SCORE.INTRA>
0.729635

>  <SCORE.INTRA.DIHEDRAL>
0.9389

>  <SCORE.INTRA.DIHEDRAL.0>
2.54793

>  <SCORE.INTRA.POLAR>
0

>  <SCORE.INTRA.POLAR.0>
0

>  <SCORE.INTRA.REPUL>
0

>  <SCORE.INTRA.REPUL.0>
0

>  <SCORE.INTRA.SOLV>
0.161002

>  <SCORE.INTRA.SOLV.lig_0>
-15.8758

>  <SCORE.INTRA.VDW>
0.179684

>  <SCORE.INTRA.VDW.0>
-0.861439

>  <SCORE.INTRA.norm>
0.0561258

>  <SCORE.RESTR>
0

>  <SCORE.RESTR.CAVITY>
0

>  <SCORE.RESTR.norm>
0

>  <SCORE.SYSTEM>
-21.0217

>  <SCORE.SYSTEM.CONST>
0

>  <SCORE.SYSTEM.DIHEDRAL>
6.0096

>  <SCORE.SYSTEM.POLAR>
-3.46635

>  <SCORE.SYSTEM.SOLV>
0.107776

>  <SCORE.SYSTEM.VDW>
-4.49905

>  <SCORE.SYSTEM.norm>
-1.61705

>  <SCORE.heavy>
13

>  <SCORE.norm>
-3.24604

$$$$
P51916469
 OpenBabel12072022103D
libRbt.so/2013.1/901 2013/11/27
 17 17  0  0  0  0  0  0  0  0999 V2000
   18.8206  -18.8135    5.8818 C   0  0  0  0  0  0  0  0  0  0  0  0
   20.0341  -18.1557    5.2227 C   0  0  2  0  0  0  0  0  0  0  0  0
   19.9592  -16.6273    5.3675 C   0  0  0  0  0  0  0  0  0  0  0  0
   21.1777  -15.9378    4.7604 C   0  0  0  0  0  0  0  0  0  0  0  0
   21.4237  -16.3630    3.3167 C   0  0  0  0  0  0  0  0  0  0  0  0
   21.5065  -17.8884    3.1857 C   0  0  1  0  0  0  0  0  0  0  0  0
   20.2401  -18.5904    3.7464 C   0  0  2  0  0  0  0  0  0  0  0  0
   18.9985  -18.3571    2.8705 C   0  0  0  0  0  0  0  0  0  0  0  0
   21.7992  -18.2543    1.8065 N   0  0  0  0  0  0  0  0  0  0  0  0
   22.8224  -19.1174    1.4982 C   0  0  0  0  0  0  0  0  0  0  0  0
   23.4972  -19.7287    2.3183 O   0  0  0  0  0  0  0  0  0  0  0  0
   23.0113  -19.2117    0.1242 N   0  0  0  0  0  0  0  0  0  0  0  0
   21.9750  -19.7773   -0.6623 N   0  0  0  0  0  0  0  0  0  0  0  0
   21.0334  -18.2389    1.1485 H   0  0  0  0  0  0  0  0  0  0  0  0
   23.9648  -19.3898   -0.1794 H   0  0  0  0  0  0  0  0  0  0  0  0
   21.2142  -20.0192   -0.0201 H   0  0  0  0  0  0  0  0  0  0  0  0
   22.3133  -20.6988   -0.9742 H   0  0  0  0  0  0  0  0  0  0  0  0
  2  3  1  0  0  0  0
  2  7  1  0  0  0  0
  2  1  1  6  0  0  0
  3  4  1  0  0  0  0
  4  5  1  0  0  0  0
  5  6  1  0  0  0  0
  6  9  1  6  0  0  0
  6  7  1  0  0  0  0
  7  8  1  6  0  0  0
  9 10  1  0  0  0  0
  9 14  1  0  0  0  0
 10 11  2  0  0  0  0
 10 12  1  0  0  0  0
 12 13  1  0  0  0  0
 12 15  1  0  0  0  0
 13 16  1  0  0  0  0
 13 17  1  0  0  0  0
M  END
>  <CHROM.0>
60.97448172,-62.05224702,-58.54570166,-53.03682165,-57.32092789,-172.73252279
-63.29168474,-56.94151659,-167.75695727,160.98818322

>  <CHROM.1>
129.14488008,6.03525315,-65.20854061,0.77010426,21.18640064,-18.25704907
2.97536874,2.20762013,0.56687477,0.79330473

>  <Name>
P51916469

>  <RI>
0

>  <Rbt.Current_Directory>
/home/fstefaniak/projects/zuza/docking/adenine/1Y26

>  <Rbt.Executable>
rbdock ($Id: //depot/dev/client3/rdock/2013.1/src/exe/rbdock.cxx#4 $)

>  <Rbt.Library>
libRbt.so (2013.1, Build901 2013/11/27)

>  <Rbt.Parameter_File>
/home/fstefaniak/progs/rDock//data/scripts/dock_solv.prm

>  <Rbt.Receptor>
1y26.prm

>  <SCORE>
-42.1755

>  <SCORE.INTER>
-21.7224

>  <SCORE.INTER.CONST>
1

>  <SCORE.INTER.POLAR>
-5.11073

>  <SCORE.INTER.ROT>
4

>  <SCORE.INTER.SOLV>
17.389

>  <SCORE.INTER.VDW>
-9.50883

>  <SCORE.INTER.norm>
-1.67095

>  <SCORE.INTRA>
0.635022

>  <SCORE.INTRA.DIHEDRAL>
0.942328

>  <SCORE.INTRA.DIHEDRAL.0>
2.54793

>  <SCORE.INTRA.POLAR>
0

>  <SCORE.INTRA.POLAR.0>
0

>  <SCORE.INTRA.REPUL>
0

>  <SCORE.INTRA.REPUL.0>
0

>  <SCORE.INTRA.SOLV>
0.132122

>  <SCORE.INTRA.SOLV.lig_0>
-15.8758

>  <SCORE.INTRA.VDW>
0.0977969

>  <SCORE.INTRA.VDW.0>
-0.861439

>  <SCORE.INTRA.norm>
0.0488478

>  <SCORE.RESTR>
0

>  <SCORE.RESTR.CAVITY>
0

>  <SCORE.RESTR.norm>
0

>  <SCORE.SYSTEM>
-21.0881

>  <SCORE.SYSTEM.CONST>
0

>  <SCORE.SYSTEM.DIHEDRAL>
4.88828

>  <SCORE.SYSTEM.POLAR>
-3.17886

>  <SCORE.SYSTEM.SOLV>
0.476556

>  <SCORE.SYSTEM.VDW>
-5.25084

>  <SCORE.SYSTEM.norm>
-1.62216

>  <SCORE.heavy>
13

>  <SCORE.norm>
-3.24427

$$$$
P52025934
 OpenBabel12072022103D
libRbt.so/2013.1/901 2013/11/27
 18 18  0  0  0  0  0  0  0  0999 V2000
   20.7247  -15.1265    4.0811 C   0  0  0  0  0  0  0  0  0  0  0  0
   21.7314  -14.2001    4.3710 C   0  0  0  0  0  0  0  0  0  0  0  0
   23.0586  -14.6347    4.5056 C   0  0  0  0  0  0  0  0  0  0  0  0
   23.3710  -15.9925    4.3457 C   0  0  0  0  0  0  0  0  0  0  0  0
   22.3594  -16.9136    4.0564 C   0  0  0  0  0  0  0  0  0  0  0  0
   21.0312  -16.4871    3.9327 C   0  0  0  0  0  0  0  0  0  0  0  0
   19.9221  -17.4265    3.6103 C   0  0  0  0  0  0  0  0  0  0  0  0
   19.1357  -17.1661    2.7031 O   0  0  0  0  0  0  0  0  0  0  0  0
   19.8171  -18.5656    4.3990 N   0  0  0  0  0  0  0  0  0  0  0  0
   18.7429  -19.4551    4.1769 N   0  0  0  0  0  0  0  0  0  0  0  0
   24.6259  -16.5307    4.4433 O   0  0  0  0  0  0  0  0  0  0  0  0
   24.0999  -13.6482    4.8056 N   0  3  0  0  0  0  0  0  0  0  0  0
   23.7605  -12.4662    4.9486 O   0  0  0  0  0  0  0  0  0  0  0  0
   25.2666  -14.0625    4.9001 O   0  5  0  0  0  0  0  0  0  0  0  0
   20.3557  -18.6705    5.2559 H   0  0  0  0  0  0  0  0  0  0  0  0
   18.0961  -19.3514    4.9658 H   0  0  0  0  0  0  0  0  0  0  0  0
   19.1123  -20.4065    4.3094 H   0  0  0  0  0  0  0  0  0  0  0  0
   25.3042  -15.8309    4.3254 H   0  0  0  0  0  0  0  0  0  0  0  0
  1  2  2  0  0  0  0
  1  6  1  0  0  0  0
  2  3  1  0  0  0  0
  3  4  2  0  0  0  0
  3 12  1  0  0  0  0
  4  5  1  0  0  0  0
  4 11  1  0  0  0  0
  5  6  2  0  0  0  0
  6  7  1  0  0  0  0
  7  8  2  0  0  0  0
  7  9  1  0  0  0  0
  9 10  1  0  0  0  0
  9 15  1  0  0  0  0
 10 16  1  0  0  0  0
 10 17  1  0  0  0  0
 11 18  1  0  0  0  0
 12 13  2  0  0  0  0
 12 14  1  0  0  0  0
M  CHG  2  12   1  14  -1
M  END
>  <CHROM.0>
-45.41330884,-175.01921762,-54.57310134,-54.89422652,-56.16802154,-175.56904664
-59.41318933,-50.91518977,-165.32156217,159.45055605

>  <CHROM.1>
-19.87391138,48.48441777,-108.01478382,22.00927292,-15.92353775,4.25110677
2.42083045,0.19257408,-3.14042179

>  <Name>
P52025934

>  <RI>
0

>  <Rbt.Current_Directory>
/home/fstefaniak/projects/zuza/docking/adenine/1Y26

>  <Rbt.Executable>
rbdock ($Id: //depot/dev/client3/rdock/2013.1/src/exe/rbdock.cxx#4 $)

>  <Rbt.Library>
libRbt.so (2013.1, Build901 2013/11/27)

>  <Rbt.Parameter_File>
/home/fstefaniak/progs/rDock//data/scripts/dock_solv.prm

>  <Rbt.Receptor>
1y26.prm

>  <SCORE>
-48.6409

>  <SCORE.INTER>
-28.9132

>  <SCORE.INTER.CONST>
1

>  <SCORE.INTER.POLAR>
-3.27047

>  <SCORE.INTER.ROT>
2

>  <SCORE.INTER.SOLV>
13.7999

>  <SCORE.INTER.VDW>
-17.9072

>  <SCORE.INTER.norm>
-2.06523

>  <SCORE.INTRA>
2.30522

>  <SCORE.INTRA.DIHEDRAL>
6.0707

>  <SCORE.INTRA.DIHEDRAL.0>
2.58036

>  <SCORE.INTRA.POLAR>
0

>  <SCORE.INTRA.POLAR.0>
0

>  <SCORE.INTRA.REPUL>
0

>  <SCORE.INTRA.REPUL.0>
0

>  <SCORE.INTRA.SOLV>
-0.266805

>  <SCORE.INTRA.SOLV.lig_0>
-22.7505

>  <SCORE.INTRA.VDW>
-0.596726

>  <SCORE.INTRA.VDW.0>
-0.191695

>  <SCORE.INTRA.norm>
0.164659

>  <SCORE.RESTR>
0

>  <SCORE.RESTR.CAVITY>
0

>  <SCORE.RESTR.norm>
0

>  <SCORE.SYSTEM>
-22.0329

>  <SCORE.SYSTEM.CONST>
0

>  <SCORE.SYSTEM.DIHEDRAL>
6.66629

>  <SCORE.SYSTEM.POLAR>
-3.53835

>  <SCORE.SYSTEM.SOLV>
0.464225

>  <SCORE.SYSTEM.VDW>
-5.27094

>  <SCORE.SYSTEM.norm>
-1.57378

>  <SCORE.heavy>
14

>  <SCORE.norm>
-3.47435

$$$$
P52025934
 OpenBabel12072022103D
libRbt.so/2013.1/901 2013/11/27
 18 18  0  0  0  0  0  0  0  0999 V2000
   20.7212  -15.1446    4.1074 C   0  0  0  0  0  0  0  0  0  0  0  0
   21.7324  -14.2222    4.3945 C   0  0  0  0  0  0  0  0  0  0  0  0
   23.0631  -14.6565    4.4900 C   0  0  0  0  0  0  0  0  0  0  0  0
   23.3744  -16.0098    4.2938 C   0  0  0  0  0  0  0  0  0  0  0  0
   22.3583  -16.9269    4.0074 C   0  0  0  0  0  0  0  0  0  0  0  0
   21.0268  -16.5009    3.9228 C   0  0  0  0  0  0  0  0  0  0  0  0
   19.9126  -17.4359    3.6051 C   0  0  0  0  0  0  0  0  0  0  0  0
   19.1162  -17.1665    2.7094 O   0  0  0  0  0  0  0  0  0  0  0  0
   19.8149  -18.5816    4.3852 N   0  0  0  0  0  0  0  0  0  0  0  0
   18.7367  -19.4675    4.1679 N   0  0  0  0  0  0  0  0  0  0  0  0
   24.6323  -16.5470    4.3517 O   0  0  0  0  0  0  0  0  0  0  0  0
   24.1090  -13.6742    4.7877 N   0  3  0  0  0  0  0  0  0  0  0  0
   23.7707  -12.4964    4.9637 O   0  0  0  0  0  0  0  0  0  0  0  0
   25.2783  -14.0877    4.8471 O   0  5  0  0  0  0  0  0  0  0  0  0
   20.3631  -18.6947    5.2348 H   0  0  0  0  0  0  0  0  0  0  0  0
   18.0793  -19.3403    4.9445 H   0  0  0  0  0  0  0  0  0  0  0  0
   19.0963  -20.4185    4.3278 H   0  0  0  0  0  0  0  0  0  0  0  0
   25.3067  -15.8388    4.2663 H   0  0  0  0  0  0  0  0  0  0  0  0
  1  2  2  0  0  0  0
  1  6  1  0  0  0  0
  2  3  1  0  0  0  0
  3  4  2  0  0  0  0
  3 12  1  0  0  0  0
  4  5  1  0  0  0  0
  4 11  1  0  0  0  0
  5  6  2  0  0  0  0
  6  7  1  0  0  0  0
  7  8  2  0  0  0  0
  7  9  1  0  0  0  0
  9 10  1  0  0  0  0
  9 15  1  0  0  0  0
 10 16  1  0  0  0  0
 10 17  1  0  0  0  0
 11 18  1  0  0  0  0
 12 13  2  0  0  0  0
 12 14  1  0  0  0  0
M  CHG  2  12   1  14  -1
M  END
>  <CHROM.0>
-46.14800557,-59.97736254,-52.57174628,-51.70171574,-54.26108763,-60.31321223
-58.19417536,67.44580185,-167.34923996,160.41905903

>  <CHROM.1>
-17.82605618,49.47589642,-105.62036503,22.00932019,-15.94073120,4.23281703
2.42046149,0.16971011,-3.11958150

>  <Name>
P52025934

>  <RI>
0

>  <Rbt.Current_Directory>
/home/fstefaniak/projects/zuza/docking/adenine/1Y26

>  <Rbt.Executable>
rbdock ($Id: //depot/dev/client3/rdock/2013.1/src/exe/rbdock.cxx#4 $)

>  <Rbt.Library>
libRbt.so (2013.1, Build901 2013/11/27)

>  <Rbt.Parameter_File>
/home/fstefaniak/progs/rDock//data/scripts/dock_solv.prm

>  <Rbt.Receptor>
1y26.prm

>  <SCORE>
-47.1515

>  <SCORE.INTER>
-28.1901

>  <SCORE.INTER.CONST>
1

>  <SCORE.INTER.POLAR>
-3.24038

>  <SCORE.INTER.ROT>
2

>  <SCORE.INTER.SOLV>
13.8132

>  <SCORE.INTER.VDW>
-17.5298

>  <SCORE.INTER.norm>
-2.01358

>  <SCORE.INTRA>
2.36205

>  <SCORE.INTRA.DIHEDRAL>
6.1989

>  <SCORE.INTRA.DIHEDRAL.0>
2.58036

>  <SCORE.INTRA.POLAR>
0

>  <SCORE.INTRA.POLAR.0>
0

>  <SCORE.INTRA.REPUL>
0

>  <SCORE.INTRA.REPUL.0>
0

>  <SCORE.INTRA.SOLV>
-0.26827

>  <SCORE.INTRA.SOLV.lig_0>
-22.7505

>  <SCORE.INTRA.VDW>
-0.603262

>  <SCORE.INTRA.VDW.0>
-0.191695

>  <SCORE.INTRA.norm>
0.168718

>  <SCORE.RESTR>
0

>  <SCORE.RESTR.CAVITY>
0

>  <SCORE.RESTR.norm>
0

>  <SCORE.SYSTEM>
-21.3235

>  <SCORE.SYSTEM.CONST>
0

>  <SCORE.SYSTEM.DIHEDRAL>
6.27259

>  <SCORE.SYSTEM.POLAR>
-3.54596

>  <SCORE.SYSTEM.SOLV>
0.446334

>  <SCORE.SYSTEM.VDW>
-4.63543

>  <SCORE.SYSTEM.norm>
-1.52311

>  <SCORE.heavy>
14

>  <SCORE.norm>
-3.36796

$$$$
P52025934
 OpenBabel12072022103D
libRbt.so/2013.1/901 2013/11/27
 18 18  0  0  0  0  0  0  0  0999 V2000
   20.7124  -15.1492    4.1105 C   0  0  0  0  0  0  0  0  0  0  0  0
   21.7160  -14.2166    4.3910 C   0  0  0  0  0  0  0  0  0  0  0  0
   23.0502  -14.6392    4.4899 C   0  0  0  0  0  0  0  0  0  0  0  0
   23.3726  -15.9914    4.3038 C   0  0  0  0  0  0  0  0  0  0  0  0
   22.3641  -16.9188    4.0241 C   0  0  0  0  0  0  0  0  0  0  0  0
   21.0292  -16.5044    3.9360 C   0  0  0  0  0  0  0  0  0  0  0  0
   19.9227  -17.4507    3.6250 C   0  0  0  0  0  0  0  0  0  0  0  0
   19.1185  -17.1897    2.7338 O   0  0  0  0  0  0  0  0  0  0  0  0
   19.8411  -18.5971    4.4060 N   0  0  0  0  0  0  0  0  0  0  0  0
   18.7707  -19.4939    4.1952 N   0  0  0  0  0  0  0  0  0  0  0  0
   24.6347  -16.5178    4.3659 O   0  0  0  0  0  0  0  0  0  0  0  0
   24.0880  -13.6463    4.7807 N   0  3  0  0  0  0  0  0  0  0  0  0
   23.7400  -12.4700    4.9479 O   0  0  0  0  0  0  0  0  0  0  0  0
   25.2606  -14.0498    4.8433 O   0  5  0  0  0  0  0  0  0  0  0  0
   20.3953  -18.7042    5.2526 H   0  0  0  0  0  0  0  0  0  0  0  0
   18.1265  -19.3876    4.9859 H   0  0  0  0  0  0  0  0  0  0  0  0
   19.1457  -20.4423    4.3335 H   0  0  0  0  0  0  0  0  0  0  0  0
   25.3031  -15.8101    4.2385 H   0  0  0  0  0  0  0  0  0  0  0  0
  1  2  2  0  0  0  0
  1  6  1  0  0  0  0
  2  3  1  0  0  0  0
  3  4  2  0  0  0  0
  3 12  1  0  0  0  0
  4  5  1  0  0  0  0
  4 11  1  0  0  0  0
  5  6  2  0  0  0  0
  6  7  1  0  0  0  0
  7  8  2  0  0  0  0
  7  9  1  0  0  0  0
  9 10  1  0  0  0  0
  9 15  1  0  0  0  0
 10 16  1  0  0  0  0
 10 17  1  0  0  0  0
 11 18  1  0  0  0  0
 12 13  2  0  0  0  0
 12 14  1  0  0  0  0
M  CHG  2  12   1  14  -1
M  END
>  <CHROM.0>
60.15875826,-175.55177502,-55.71385675,-53.49284190,-54.60278959,58.56947492
-53.46946023,-51.80441043,-166.57747835,160.83793751

>  <CHROM.1>
-20.14649295,48.93646528,-106.81521718,22.00778094,-15.93465100,4.24116420
2.41132777,0.16984637,-3.12488929

>  <Name>
P52025934

>  <RI>
0

>  <Rbt.Current_Directory>
/home/fstefaniak/projects/zuza/docking/adenine/1Y26

>  <Rbt.Executable>
rbdock ($Id: //depot/dev/client3/rdock/2013.1/src/exe/rbdock.cxx#4 $)

>  <Rbt.Library>
libRbt.so (2013.1, Build901 2013/11/27)

>  <Rbt.Parameter_File>
/home/fstefaniak/progs/rDock//data/scripts/dock_solv.prm

>  <Rbt.Receptor>
1y26.prm

>  <SCORE>
-47.0702

>  <SCORE.INTER>
-28.8802

>  <SCORE.INTER.CONST>
1

>  <SCORE.INTER.POLAR>
-3.25255

>  <SCORE.INTER.ROT>
2

>  <SCORE.INTER.SOLV>
13.8109

>  <SCORE.INTER.VDW>
-17.9486

>  <SCORE.INTER.norm>
-2.06287

>  <SCORE.INTRA>
2.36076

>  <SCORE.INTRA.DIHEDRAL>
6.19317

>  <SCORE.INTRA.DIHEDRAL.0>
2.58036

>  <SCORE.INTRA.POLAR>
0

>  <SCORE.INTRA.POLAR.0>
0

>  <SCORE.INTRA.REPUL>
0

>  <SCORE.INTRA.REPUL.0>
0

>  <SCORE.INTRA.SOLV>
-0.267335

>  <SCORE.INTRA.SOLV.lig_0>
-22.7505

>  <SCORE.INTRA.VDW>
-0.602158

>  <SCORE.INTRA.VDW.0>
-0.191695

>  <SCORE.INTRA.norm>
0.168626

>  <SCORE.RESTR>
0

>  <SCORE.RESTR.CAVITY>
0

>  <SCORE.RESTR.norm>
0

>  <SCORE.SYSTEM>
-20.5508

>  <SCORE.SYSTEM.CONST>
0

>  <SCORE.SYSTEM.DIHEDRAL>
5.44

>  <SCORE.SYSTEM.POLAR>
-3.24874

>  <SCORE.SYSTEM.SOLV>
0.433602

>  <SCORE.SYSTEM.VDW>
-4.82926

>  <SCORE.SYSTEM.norm>
-1.46791

>  <SCORE.heavy>
14

>  <SCORE.norm>
-3.36216

$$$$
P52893162
 OpenBabel12072022103D
libRbt.so/2013.1/901 2013/11/27
 17 17  0  0  0  0  0  0  0  0999 V2000
   19.7479  -18.3844    5.9983 C   0  0  0  0  0  0  0  0  0  0  0  0
   20.0533  -18.0635    4.5271 C   0  0  0  0  0  0  0  0  0  0  0  0
   18.7967  -18.3648    3.6987 C   0  0  0  0  0  0  0  0  0  0  0  0
   20.5312  -16.5917    4.3743 C   0  0  1  0  0  0  0  0  0  0  0  0
   22.0655  -16.5081    4.1135 C   0  0  0  0  0  0  0  0  0  0  0  0
   22.6071  -17.2746    3.3105 O   0  0  0  0  0  0  0  0  0  0  0  0
   22.7919  -15.5249    4.7833 N   0  0  0  0  0  0  0  0  0  0  0  0
   24.2131  -15.3763    4.4855 C   0  0  0  0  0  0  0  0  0  0  0  0
   24.4436  -14.1503    3.6009 C   0  0  0  0  0  0  0  0  0  0  0  0
   23.8430  -12.8940    4.2347 C   0  0  0  0  0  0  0  0  0  0  0  0
   22.3707  -13.0981    4.6117 C   0  0  1  0  0  0  0  0  0  0  0  0
   22.2026  -14.3677    5.4614 C   0  0  0  0  0  0  0  0  0  0  0  0
   21.9146  -11.9637    5.3456 O   0  0  0  0  0  0  0  0  0  0  0  0
   19.8634  -15.9111    3.2410 N   0  0  0  0  0  0  0  0  0  0  0  0
   22.4927  -11.8749    6.1233 H   0  0  0  0  0  0  0  0  0  0  0  0
   20.4105  -15.1011    2.9577 H   0  0  0  0  0  0  0  0  0  0  0  0
   18.9689  -15.5467    3.5747 H   0  0  0  0  0  0  0  0  0  0  0  0
  1  2  1  0  0  0  0
  2  3  1  0  0  0  0
  4  2  1  6  0  0  0
  4  5  1  0  0  0  0
  4 14  1  0  0  0  0
  5  6  2  0  0  0  0
  5  7  1  0  0  0  0
  7  8  1  0  0  0  0
  7 12  1  0  0  0  0
  8  9  1  0  0  0  0
  9 10  1  0  0  0  0
 10 11  1  0  0  0  0
 11 12  1  0  0  0  0
 11 13  1  1  0  0  0
 13 15  1  0  0  0  0
 14 16  1  0  0  0  0
 14 17  1  0  0  0  0
M  END
>  <CHROM.0>
-59.66933942,-63.57312835,-53.48905231,-54.16572421,-57.76190197,-62.09819978
-56.41223153,-55.09997592,-165.53683286,160.52593051

>  <CHROM.1>
105.79349081,43.97740688,-159.87445783,-57.71652723,21.79273632,-15.57823243
4.41480722,2.23787527,-0.23426584,-2.91418253

>  <Name>
P52893162

>  <RI>
0

>  <Rbt.Current_Directory>
/home/fstefaniak/projects/zuza/docking/adenine/1Y26

>  <Rbt.Executable>
rbdock ($Id: //depot/dev/client3/rdock/2013.1/src/exe/rbdock.cxx#4 $)

>  <Rbt.Library>
libRbt.so (2013.1, Build901 2013/11/27)

>  <Rbt.Parameter_File>
/home/fstefaniak/progs/rDock//data/scripts/dock_solv.prm

>  <Rbt.Receptor>
1y26.prm

>  <SCORE>
-53.8208

>  <SCORE.INTER>
-35.0922

>  <SCORE.INTER.CONST>
1

>  <SCORE.INTER.POLAR>
-3.47777

>  <SCORE.INTER.ROT>
3

>  <SCORE.INTER.SOLV>
11.5984

>  <SCORE.INTER.VDW>
-21.2684

>  <SCORE.INTER.norm>
-2.50659

>  <SCORE.INTRA>
3.19221

>  <SCORE.INTRA.DIHEDRAL>
5.20292

>  <SCORE.INTRA.DIHEDRAL.0>
1.61973

>  <SCORE.INTRA.POLAR>
0

>  <SCORE.INTRA.POLAR.0>
0

>  <SCORE.INTRA.REPUL>
0

>  <SCORE.INTRA.REPUL.0>
0

>  <SCORE.INTRA.SOLV>
-0.110671

>  <SCORE.INTRA.SOLV.lig_0>
-13.328

>  <SCORE.INTRA.VDW>
0.646088

>  <SCORE.INTRA.VDW.0>
-0.33077

>  <SCORE.INTRA.norm>
0.228015

>  <SCORE.RESTR>
0.223476

>  <SCORE.RESTR.CAVITY>
0.223476

>  <SCORE.RESTR.norm>
0.0159626

>  <SCORE.SYSTEM>
-22.1442

>  <SCORE.SYSTEM.CONST>
0

>  <SCORE.SYSTEM.DIHEDRAL>
5.2148

>  <SCORE.SYSTEM.POLAR>
-3.36501

>  <SCORE.SYSTEM.SOLV>
0.644206

>  <SCORE.SYSTEM.VDW>
-5.49912

>  <SCORE.SYSTEM.norm>
-1.58173

>  <SCORE.heavy>
14

>  <SCORE.norm>
-3.84434

$$$$
P52893162
 OpenBabel12072022103D
libRbt.so/2013.1/901 2013/11/27
 17 17  0  0  0  0  0  0  0  0999 V2000
   19.7899  -18.3730    6.0617 C   0  0  0  0  0  0  0  0  0  0  0  0
   20.0133  -18.0489    4.5764 C   0  0  0  0  0  0  0  0  0  0  0  0
   18.7052  -18.3245    3.8223 C   0  0  0  0  0  0  0  0  0  0  0  0
   20.5063  -16.5843    4.4027 C   0  0  1  0  0  0  0  0  0  0  0  0
   22.0448  -16.5188    4.1627 C   0  0  0  0  0  0  0  0  0  0  0  0
   22.5925  -17.3105    3.3887 O   0  0  0  0  0  0  0  0  0  0  0  0
   22.7687  -15.5231    4.8167 N   0  0  0  0  0  0  0  0  0  0  0  0
   24.1952  -15.3927    4.5362 C   0  0  0  0  0  0  0  0  0  0  0  0
   24.4480  -14.1927    3.6226 C   0  0  0  0  0  0  0  0  0  0  0  0
   23.8477  -12.9155    4.2135 C   0  0  0  0  0  0  0  0  0  0  0  0
   22.3684  -13.0989    4.5738 C   0  0  1  0  0  0  0  0  0  0  0  0
   22.1783  -14.3440    5.4546 C   0  0  0  0  0  0  0  0  0  0  0  0
   21.9102  -11.9419    5.2701 O   0  0  0  0  0  0  0  0  0  0  0  0
   19.8608  -15.9199    3.2470 N   0  0  0  0  0  0  0  0  0  0  0  0
   22.5016  -11.8137    6.0320 H   0  0  0  0  0  0  0  0  0  0  0  0
   20.4231  -15.1249    2.9513 H   0  0  0  0  0  0  0  0  0  0  0  0
   18.9685  -15.5348    3.5626 H   0  0  0  0  0  0  0  0  0  0  0  0
  1  2  1  0  0  0  0
  2  3  1  0  0  0  0
  4  2  1  6  0  0  0
  4  5  1  0  0  0  0
  4 14  1  0  0  0  0
  5  6  2  0  0  0  0
  5  7  1  0  0  0  0
  7  8  1  0  0  0  0
  7 12  1  0  0  0  0
  8  9  1  0  0  0  0
  9 10  1  0  0  0  0
 10 11  1  0  0  0  0
 11 12  1  0  0  0  0
 11 13  1  1  0  0  0
 13 15  1  0  0  0  0
 14 16  1  0  0  0  0
 14 17  1  0  0  0  0
M  END
>  <CHROM.0>
-54.19738437,-62.96899181,-52.00763523,-47.76423438,-49.64158514,62.46385790
-53.60495120,-51.58331269,-167.73009891,160.56000358

>  <CHROM.1>
101.33402785,43.52573092,-159.39979302,-55.27493646,21.77787238,-15.57895523
4.43989275,2.23860189,-0.20460909,-2.95572899

>  <Name>
P52893162

>  <RI>
0

>  <Rbt.Current_Directory>
/home/fstefaniak/projects/zuza/docking/adenine/1Y26

>  <Rbt.Executable>
rbdock ($Id: //depot/dev/client3/rdock/2013.1/src/exe/rbdock.cxx#4 $)

>  <Rbt.Library>
libRbt.so (2013.1, Build901 2013/11/27)

>  <Rbt.Parameter_File>
/home/fstefaniak/progs/rDock//data/scripts/dock_solv.prm

>  <Rbt.Receptor>
1y26.prm

>  <SCORE>
-52.4048

>  <SCORE.INTER>
-34.6456

>  <SCORE.INTER.CONST>
1

>  <SCORE.INTER.POLAR>
-3.42364

>  <SCORE.INTER.ROT>
3

>  <SCORE.INTER.SOLV>
11.6054

>  <SCORE.INTER.VDW>
-21.1534

>  <SCORE.INTER.norm>
-2.47469

>  <SCORE.INTRA>
2.95355

>  <SCORE.INTRA.DIHEDRAL>
4.89896

>  <SCORE.INTRA.DIHEDRAL.0>
1.61973

>  <SCORE.INTRA.POLAR>
0

>  <SCORE.INTRA.POLAR.0>
0

>  <SCORE.INTRA.REPUL>
0

>  <SCORE.INTRA.REPUL.0>
0

>  <SCORE.INTRA.SOLV>
-0.109466

>  <SCORE.INTRA.SOLV.lig_0>
-13.328

>  <SCORE.INTRA.VDW>
0.558807

>  <SCORE.INTRA.VDW.0>
-0.33077

>  <SCORE.INTRA.norm>
0.210968

>  <SCORE.RESTR>
0.218045

>  <SCORE.RESTR.CAVITY>
0.218045

>  <SCORE.RESTR.norm>
0.0155747

>  <SCORE.SYSTEM>
-20.9308

>  <SCORE.SYSTEM.CONST>
0

>  <SCORE.SYSTEM.DIHEDRAL>
6.50772

>  <SCORE.SYSTEM.POLAR>
-3.55957

>  <SCORE.SYSTEM.SOLV>
0.526728

>  <SCORE.SYSTEM.VDW>
-4.43349

>  <SCORE.SYSTEM.norm>
-1.49506

>  <SCORE.heavy>
14

>  <SCORE.norm>
-3.7432

$$$$
P52893162
 OpenBabel12072022103D
libRbt.so/2013.1/901 2013/11/27
 17 17  0  0  0  0  0  0  0  0999 V2000
   19.7624  -18.5063    5.9293 C   0  0  0  0  0  0  0  0  0  0  0  0
   19.9209  -18.0645    4.4662 C   0  0  0  0  0  0  0  0  0  0  0  0
   18.5700  -18.2457    3.7604 C   0  0  0  0  0  0  0  0  0  0  0  0
   20.4446  -16.6024    4.3884 C   0  0  1  0  0  0  0  0  0  0  0  0
   21.9927  -16.5532    4.2148 C   0  0  0  0  0  0  0  0  0  0  0  0
   22.5719  -17.3923    3.5174 O   0  0  0  0  0  0  0  0  0  0  0  0
   22.6899  -15.5191    4.8373 N   0  0  0  0  0  0  0  0  0  0  0  0
   24.1280  -15.4076    4.6142 C   0  0  0  0  0  0  0  0  0  0  0  0
   24.4262  -14.2674    3.6398 C   0  0  0  0  0  0  0  0  0  0  0  0
   23.8044  -12.9552    4.1218 C   0  0  0  0  0  0  0  0  0  0  0  0
   22.3097  -13.1145    4.4254 C   0  0  1  0  0  0  0  0  0  0  0  0
   22.0755  -14.3018    5.3729 C   0  0  0  0  0  0  0  0  0  0  0  0
   21.8247  -11.9158    5.0265 O   0  0  0  0  0  0  0  0  0  0  0  0
   19.8587  -15.8682    3.2433 N   0  0  0  0  0  0  0  0  0  0  0  0
   22.0036  -11.1905    4.4030 H   0  0  0  0  0  0  0  0  0  0  0  0
   20.4690  -15.0966    2.9829 H   0  0  0  0  0  0  0  0  0  0  0  0
   18.9828  -15.4444    3.5553 H   0  0  0  0  0  0  0  0  0  0  0  0
  1  2  1  0  0  0  0
  2  3  1  0  0  0  0
  4  2  1  6  0  0  0
  4  5  1  0  0  0  0
  4 14  1  0  0  0  0
  5  6  2  0  0  0  0
  5  7  1  0  0  0  0
  7  8  1  0  0  0  0
  7 12  1  0  0  0  0
  8  9  1  0  0  0  0
  9 10  1  0  0  0  0
 10 11  1  0  0  0  0
 11 12  1  0  0  0  0
 11 13  1  1  0  0  0
 13 15  1  0  0  0  0
 14 16  1  0  0  0  0
 14 17  1  0  0  0  0
M  END
>  <CHROM.0>
60.80049413,-65.05922954,-56.29496603,-57.76552812,-62.17977023,62.31397032
-55.12202941,-56.30037599,-166.59433496,161.33135671

>  <CHROM.1>
95.75737170,36.93654069,-156.64815519,57.90520775,21.71590253,-15.59123153
4.38915980,-2.21985327,0.09338778,0.08039268

>  <Name>
P52893162

>  <RI>
0

>  <Rbt.Current_Directory>
/home/fstefaniak/projects/zuza/docking/adenine/1Y26

>  <Rbt.Executable>
rbdock ($Id: //depot/dev/client3/rdock/2013.1/src/exe/rbdock.cxx#4 $)

>  <Rbt.Library>
libRbt.so (2013.1, Build901 2013/11/27)

>  <Rbt.Parameter_File>
/home/fstefaniak/progs/rDock//data/scripts/dock_solv.prm

>  <Rbt.Receptor>
1y26.prm

>  <SCORE>
-50.6312

>  <SCORE.INTER>
-32.8637

>  <SCORE.INTER.CONST>
1

>  <SCORE.INTER.POLAR>
-3.25569

>  <SCORE.INTER.ROT>
3

>  <SCORE.INTER.SOLV>
11.6452

>  <SCORE.INTER.VDW>
-20.5386

>  <SCORE.INTER.norm>
-2.34741

>  <SCORE.INTRA>
2.23527

>  <SCORE.INTRA.DIHEDRAL>
4.13275

>  <SCORE.INTRA.DIHEDRAL.0>
1.61973

>  <SCORE.INTRA.POLAR>
0

>  <SCORE.INTRA.POLAR.0>
0

>  <SCORE.INTRA.REPUL>
0

>  <SCORE.INTRA.REPUL.0>
0

>  <SCORE.INTRA.SOLV>
-0.0255236

>  <SCORE.INTRA.SOLV.lig_0>
-13.328

>  <SCORE.INTRA.VDW>
0.181653

>  <SCORE.INTRA.VDW.0>
-0.33077

>  <SCORE.INTRA.norm>
0.159662

>  <SCORE.RESTR>
0.206327

>  <SCORE.RESTR.CAVITY>
0.206327

>  <SCORE.RESTR.norm>
0.0147376

>  <SCORE.SYSTEM>
-20.2091

>  <SCORE.SYSTEM.CONST>
0

>  <SCORE.SYSTEM.DIHEDRAL>
4.78383

>  <SCORE.SYSTEM.POLAR>
-3.1137

>  <SCORE.SYSTEM.SOLV>
0.463205

>  <SCORE.SYSTEM.VDW>
-4.84273

>  <SCORE.SYSTEM.norm>
-1.4435

>  <SCORE.heavy>
14

>  <SCORE.norm>
-3.61651

$$$$
P53118001
 OpenBabel12072022103D
libRbt.so/2013.1/901 2013/11/27
 15 15  0  0  0  0  0  0  0  0999 V2000
   21.7886  -16.3953    4.3671 C   0  0  0  0  0  0  0  0  0  0  0  0
   20.3076  -16.3233    4.7366 C   0  0  1  0  0  0  0  0  0  0  0  0
   19.3911  -16.7190    3.5682 C   0  0  0  0  0  0  0  0  0  0  0  0
   19.3301  -18.1683    3.3544 N   0  0  0  0  0  0  0  0  0  0  0  0
   19.1418  -18.9705    4.5824 C   0  0  1  0  0  0  0  0  0  0  0  0
   20.0970  -18.5020    5.6952 C   0  0  0  0  0  0  0  0  0  0  0  0
   20.0214  -17.0901    5.9187 O   0  0  0  0  0  0  0  0  0  0  0  0
   17.6828  -18.9169    5.0513 C   0  0  0  0  0  0  0  0  0  0  0  0
   18.9188  -18.5920    2.0965 C   0  0  0  0  0  0  0  0  0  0  0  0
   18.0149  -19.4073    1.9151 O   0  0  0  0  0  0  0  0  0  0  0  0
   19.6108  -18.0273    1.0322 N   0  0  0  0  0  0  0  0  0  0  0  0
   21.0169  -18.2342    0.9613 N   0  0  0  0  0  0  0  0  0  0  0  0
   19.1201  -18.0436    0.1434 H   0  0  0  0  0  0  0  0  0  0  0  0
   21.3173  -17.8615    0.0482 H   0  0  0  0  0  0  0  0  0  0  0  0
   21.1633  -19.2427    0.8597 H   0  0  0  0  0  0  0  0  0  0  0  0
  2  1  1  6  0  0  0
  2  3  1  0  0  0  0
  2  7  1  0  0  0  0
  3  4  1  0  0  0  0
  4  5  1  0  0  0  0
  4  9  1  0  0  0  0
  5  6  1  0  0  0  0
  5  8  1  1  0  0  0
  6  7  1  0  0  0  0
  9 10  2  0  0  0  0
  9 11  1  0  0  0  0
 11 12  1  0  0  0  0
 11 13  1  0  0  0  0
 12 14  1  0  0  0  0
 12 15  1  0  0  0  0
M  END
>  <CHROM.0>
-50.70810896,-158.93827023,-58.68806109,-53.02925067,57.85097258,-62.76857112
-56.94317646,-177.93943469,-166.92949406,161.37830282

>  <CHROM.1>
-128.12357215,59.82370278,172.07092219,19.62084095,-17.95256365,3.57558199
-1.36529733,-0.65902632,-1.74717599

>  <Name>
P53118001

>  <RI>
0

>  <Rbt.Current_Directory>
/home/fstefaniak/projects/zuza/docking/adenine/1Y26

>  <Rbt.Executable>
rbdock ($Id: //depot/dev/client3/rdock/2013.1/src/exe/rbdock.cxx#4 $)

>  <Rbt.Library>
libRbt.so (2013.1, Build901 2013/11/27)

>  <Rbt.Parameter_File>
/home/fstefaniak/progs/rDock//data/scripts/dock_solv.prm

>  <Rbt.Receptor>
1y26.prm

>  <SCORE>
-51.5271

>  <SCORE.INTER>
-29.5012

>  <SCORE.INTER.CONST>
1

>  <SCORE.INTER.POLAR>
-5.40227

>  <SCORE.INTER.ROT>
3

>  <SCORE.INTER.SOLV>
16.4241

>  <SCORE.INTER.VDW>
-12.7347

>  <SCORE.INTER.norm>
-2.45844

>  <SCORE.INTRA>
-1.45338

>  <SCORE.INTRA.DIHEDRAL>
-0.999619

>  <SCORE.INTRA.DIHEDRAL.0>
2.27256

>  <SCORE.INTRA.POLAR>
0

>  <SCORE.INTRA.POLAR.0>
0

>  <SCORE.INTRA.REPUL>
0

>  <SCORE.INTRA.REPUL.0>
0

>  <SCORE.INTRA.SOLV>
0.2796

>  <SCORE.INTRA.SOLV.lig_0>
-17.6506

>  <SCORE.INTRA.VDW>
-1.09337

>  <SCORE.INTRA.VDW.0>
0.232713

>  <SCORE.INTRA.norm>
-0.121115

>  <SCORE.RESTR>
0

>  <SCORE.RESTR.CAVITY>
0

>  <SCORE.RESTR.norm>
0

>  <SCORE.SYSTEM>
-20.5725

>  <SCORE.SYSTEM.CONST>
0

>  <SCORE.SYSTEM.DIHEDRAL>
6.98129

>  <SCORE.SYSTEM.POLAR>
-3.38861

>  <SCORE.SYSTEM.SOLV>
0.183045

>  <SCORE.SYSTEM.VDW>
-4.80773

>  <SCORE.SYSTEM.norm>
-1.71437

>  <SCORE.heavy>
12

>  <SCORE.norm>
-4.29392

$$$$
P53118001
 OpenBabel12072022103D
libRbt.so/2013.1/901 2013/11/27
 15 15  0  0  0  0  0  0  0  0999 V2000
   21.7442  -16.3469    4.3608 C   0  0  0  0  0  0  0  0  0  0  0  0
   20.2625  -16.2978    4.7313 C   0  0  1  0  0  0  0  0  0  0  0  0
   19.3516  -16.7095    3.5641 C   0  0  0  0  0  0  0  0  0  0  0  0
   19.3132  -18.1599    3.3524 N   0  0  0  0  0  0  0  0  0  0  0  0
   19.1385  -18.9632    4.5817 C   0  0  1  0  0  0  0  0  0  0  0  0
   20.0870  -18.4781    5.6931 C   0  0  0  0  0  0  0  0  0  0  0  0
   19.9893  -17.0672    5.9146 O   0  0  0  0  0  0  0  0  0  0  0  0
   17.6791  -18.9319    5.0516 C   0  0  0  0  0  0  0  0  0  0  0  0
   18.9078  -18.5918    2.0954 C   0  0  0  0  0  0  0  0  0  0  0  0
   18.0118  -19.4162    1.9156 O   0  0  0  0  0  0  0  0  0  0  0  0
   19.5961  -18.0245    1.0301 N   0  0  0  0  0  0  0  0  0  0  0  0
   21.0030  -18.2253    0.9577 N   0  0  0  0  0  0  0  0  0  0  0  0
   19.1044  -18.0432    0.1420 H   0  0  0  0  0  0  0  0  0  0  0  0
   21.3081  -17.8075    0.0659 H   0  0  0  0  0  0  0  0  0  0  0  0
   21.1519  -19.2273    0.8072 H   0  0  0  0  0  0  0  0  0  0  0  0
  2  1  1  6  0  0  0
  2  3  1  0  0  0  0
  2  7  1  0  0  0  0
  3  4  1  0  0  0  0
  4  5  1  0  0  0  0
  4  9  1  0  0  0  0
  5  6  1  0  0  0  0
  5  8  1  1  0  0  0
  6  7  1  0  0  0  0
  9 10  2  0  0  0  0
  9 11  1  0  0  0  0
 11 12  1  0  0  0  0
 11 13  1  0  0  0  0
 12 14  1  0  0  0  0
 12 15  1  0  0  0  0
M  END
>  <CHROM.0>
-45.01800366,-156.00857601,-51.09278567,62.28843613,-59.02569559,-52.75158571
-51.83114866,-172.41622176,-167.61998301,161.93646409

>  <CHROM.1>
-127.71528644,60.19527908,174.95312712,19.60111961,-17.94117141,3.57287204
-1.36934514,-0.67256157,-1.75301165

>  <Name>
P53118001

>  <RI>
0

>  <Rbt.Current_Directory>
/home/fstefaniak/projects/zuza/docking/adenine/1Y26

>  <Rbt.Executable>
rbdock ($Id: //depot/dev/client3/rdock/2013.1/src/exe/rbdock.cxx#4 $)

>  <Rbt.Library>
libRbt.so (2013.1, Build901 2013/11/27)

>  <Rbt.Parameter_File>
/home/fstefaniak/progs/rDock//data/scripts/dock_solv.prm

>  <Rbt.Receptor>
1y26.prm

>  <SCORE>
-49.7886

>  <SCORE.INTER>
-29.589

>  <SCORE.INTER.CONST>
1

>  <SCORE.INTER.POLAR>
-5.3098

>  <SCORE.INTER.ROT>
3

>  <SCORE.INTER.SOLV>
16.4795

>  <SCORE.INTER.VDW>
-13.1199

>  <SCORE.INTER.norm>
-2.46575

>  <SCORE.INTRA>
-1.50675

>  <SCORE.INTRA.DIHEDRAL>
-1.05786

>  <SCORE.INTRA.DIHEDRAL.0>
2.27256

>  <SCORE.INTRA.POLAR>
0

>  <SCORE.INTRA.POLAR.0>
0

>  <SCORE.INTRA.REPUL>
0

>  <SCORE.INTRA.REPUL.0>
0

>  <SCORE.INTRA.SOLV>
0.266248

>  <SCORE.INTRA.SOLV.lig_0>
-17.6506

>  <SCORE.INTRA.VDW>
-1.11095

>  <SCORE.INTRA.VDW.0>
0.232713

>  <SCORE.INTRA.norm>
-0.125563

>  <SCORE.RESTR>
0

>  <SCORE.RESTR.CAVITY>
0

>  <SCORE.RESTR.norm>
0

>  <SCORE.SYSTEM>
-18.6928

>  <SCORE.SYSTEM.CONST>
0

>  <SCORE.SYSTEM.DIHEDRAL>
8.81229

>  <SCORE.SYSTEM.POLAR>
-3.00787

>  <SCORE.SYSTEM.SOLV>
0.366521

>  <SCORE.SYSTEM.VDW>
-5.49521

>  <SCORE.SYSTEM.norm>
-1.55773

>  <SCORE.heavy>
12

>  <SCORE.norm>
-4.14905

$$$$
P53118001
 OpenBabel12072022103D
libRbt.so/2013.1/901 2013/11/27
 15 15  0  0  0  0  0  0  0  0999 V2000
   21.7552  -16.1027    4.2898 C   0  0  0  0  0  0  0  0  0  0  0  0
   20.2733  -16.1172    4.6626 C   0  0  1  0  0  0  0  0  0  0  0  0
   19.3855  -16.6348    3.5200 C   0  0  0  0  0  0  0  0  0  0  0  0
   19.4270  -18.0937    3.3791 N   0  0  0  0  0  0  0  0  0  0  0  0
   19.2979  -18.8446    4.6466 C   0  0  1  0  0  0  0  0  0  0  0  0
   20.2191  -18.2545    5.7298 C   0  0  0  0  0  0  0  0  0  0  0  0
   20.0439  -16.8420    5.8829 O   0  0  0  0  0  0  0  0  0  0  0  0
   17.8394  -18.8709    5.1195 C   0  0  0  0  0  0  0  0  0  0  0  0
   19.0451  -18.6080    2.1460 C   0  0  0  0  0  0  0  0  0  0  0  0
   18.1951  -19.4876    2.0096 O   0  0  0  0  0  0  0  0  0  0  0  0
   19.7008  -18.0569    1.0522 N   0  0  0  0  0  0  0  0  0  0  0  0
   21.1009  -18.2788    0.9280 N   0  0  0  0  0  0  0  0  0  0  0  0
   19.1758  -18.0732    0.1832 H   0  0  0  0  0  0  0  0  0  0  0  0
   21.3763  -17.8799    0.0181 H   0  0  0  0  0  0  0  0  0  0  0  0
   21.2302  -19.2852    0.7886 H   0  0  0  0  0  0  0  0  0  0  0  0
  2  1  1  6  0  0  0
  2  3  1  0  0  0  0
  2  7  1  0  0  0  0
  3  4  1  0  0  0  0
  4  5  1  0  0  0  0
  4  9  1  0  0  0  0
  5  6  1  0  0  0  0
  5  8  1  1  0  0  0
  6  7  1  0  0  0  0
  9 10  2  0  0  0  0
  9 11  1  0  0  0  0
 11 12  1  0  0  0  0
 11 13  1  0  0  0  0
 12 14  1  0  0  0  0
 12 15  1  0  0  0  0
M  END
>  <CHROM.0>
-50.39847683,-60.56262470,-50.71321051,58.40976208,-175.24130797,61.79365653
-60.24710899,-176.27259186,-167.96412725,159.38141320

>  <CHROM.1>
-127.66963359,65.29064192,174.34085901,19.70056022,-17.85747064,3.58240207
-1.38886870,-0.72573859,-1.81751131

>  <Name>
P53118001

>  <RI>
0

>  <Rbt.Current_Directory>
/home/fstefaniak/projects/zuza/docking/adenine/1Y26

>  <Rbt.Executable>
rbdock ($Id: //depot/dev/client3/rdock/2013.1/src/exe/rbdock.cxx#4 $)

>  <Rbt.Library>
libRbt.so (2013.1, Build901 2013/11/27)

>  <Rbt.Parameter_File>
/home/fstefaniak/progs/rDock//data/scripts/dock_solv.prm

>  <Rbt.Receptor>
1y26.prm

>  <SCORE>
-49.6816

>  <SCORE.INTER>
-29.2875

>  <SCORE.INTER.CONST>
1

>  <SCORE.INTER.POLAR>
-4.66975

>  <SCORE.INTER.ROT>
3

>  <SCORE.INTER.SOLV>
16.5904

>  <SCORE.INTER.VDW>
-15.0893

>  <SCORE.INTER.norm>
-2.44063

>  <SCORE.INTRA>
-1.50366

>  <SCORE.INTRA.DIHEDRAL>
-1.0461

>  <SCORE.INTRA.DIHEDRAL.0>
2.27256

>  <SCORE.INTRA.POLAR>
0

>  <SCORE.INTRA.POLAR.0>
0

>  <SCORE.INTRA.REPUL>
0

>  <SCORE.INTRA.REPUL.0>
0

>  <SCORE.INTRA.SOLV>
0.199975

>  <SCORE.INTRA.SOLV.lig_0>
-17.6506

>  <SCORE.INTRA.VDW>
-1.0806

>  <SCORE.INTRA.VDW.0>
0.232713

>  <SCORE.INTRA.norm>
-0.125305

>  <SCORE.RESTR>
0

>  <SCORE.RESTR.CAVITY>
0

>  <SCORE.RESTR.norm>
0

>  <SCORE.SYSTEM>
-18.8904

>  <SCORE.SYSTEM.CONST>
0

>  <SCORE.SYSTEM.DIHEDRAL>
5.51601

>  <SCORE.SYSTEM.POLAR>
-2.9304

>  <SCORE.SYSTEM.SOLV>
0.0779667

>  <SCORE.SYSTEM.VDW>
-4.69027

>  <SCORE.SYSTEM.norm>
-1.5742

>  <SCORE.heavy>
12

>  <SCORE.norm>
-4.14014

$$$$
P53484841
 OpenBabel12072022103D
libRbt.so/2013.1/901 2013/11/27
 18 18  0  0  0  0  0  0  0  0999 V2000
   19.9949  -16.2513    3.4042 C   0  0  0  0  0  0  0  0  0  0  0  0
   18.8485  -17.0454    3.2787 C   0  0  0  0  0  0  0  0  0  0  0  0
   18.6410  -18.1047    4.1597 C   0  0  0  0  0  0  0  0  0  0  0  0
   19.5926  -18.3634    5.1478 C   0  0  0  0  0  0  0  0  0  0  0  0
   20.7397  -17.5708    5.2944 C   0  0  0  0  0  0  0  0  0  0  0  0
   20.9336  -16.4988    4.4190 C   0  0  0  0  0  0  0  0  0  0  0  0
   22.1319  -15.6211    4.5005 C   0  0  0  0  0  0  0  0  0  0  0  0
   22.0057  -14.3998    4.4942 O   0  0  0  0  0  0  0  0  0  0  0  0
   23.3611  -16.2591    4.6157 N   0  0  0  0  0  0  0  0  0  0  0  0
   24.5228  -15.4737    4.7844 N   0  0  0  0  0  0  0  0  0  0  0  0
   19.4189  -19.4770    6.0593 N   0  3  0  0  0  0  0  0  0  0  0  0
   19.3610  -20.6140    5.5738 O   0  0  0  0  0  0  0  0  0  0  0  0
   19.4280  -19.2077    7.2694 O   0  5  0  0  0  0  0  0  0  0  0  0
   17.5080  -18.8556    4.0635 O   0  0  0  0  0  0  0  0  0  0  0  0
   23.4216  -17.2505    4.8390 H   0  0  0  0  0  0  0  0  0  0  0  0
   25.2750  -15.9357    4.2538 H   0  0  0  0  0  0  0  0  0  0  0  0
   24.8273  -15.5802    5.7572 H   0  0  0  0  0  0  0  0  0  0  0  0
   17.3485  -19.3319    4.8968 H   0  0  0  0  0  0  0  0  0  0  0  0
  1  2  2  0  0  0  0
  1  6  1  0  0  0  0
  2  3  1  0  0  0  0
  3  4  2  0  0  0  0
  3 14  1  0  0  0  0
  4  5  1  0  0  0  0
  4 11  1  0  0  0  0
  5  6  2  0  0  0  0
  6  7  1  0  0  0  0
  7  8  2  0  0  0  0
  7  9  1  0  0  0  0
  9 10  1  0  0  0  0
  9 15  1  0  0  0  0
 10 16  1  0  0  0  0
 10 17  1  0  0  0  0
 11 12  2  0  0  0  0
 11 13  1  0  0  0  0
 14 18  1  0  0  0  0
M  CHG  2  11   1  13  -1
M  END
>  <CHROM.0>
-49.14929768,-62.36114175,-59.26168661,-53.71035498,-57.82243121,-58.79388983
-60.04359530,-175.98528385,-166.94199841,160.74935592

>  <CHROM.1>
-160.28888965,50.22694093,-142.98450225,20.48829777,-17.45450541,4.83740906
0.63474391,-0.40953312,-0.68976774

>  <Name>
P53484841

>  <RI>
0

>  <Rbt.Current_Directory>
/home/fstefaniak/projects/zuza/docking/adenine/1Y26

>  <Rbt.Executable>
rbdock ($Id: //depot/dev/client3/rdock/2013.1/src/exe/rbdock.cxx#4 $)

>  <Rbt.Library>
libRbt.so (2013.1, Build901 2013/11/27)

>  <Rbt.Parameter_File>
/home/fstefaniak/progs/rDock//data/scripts/dock_solv.prm

>  <Rbt.Receptor>
1y26.prm

>  <SCORE>
-52.0817

>  <SCORE.INTER>
-30.977

>  <SCORE.INTER.CONST>
1

>  <SCORE.INTER.POLAR>
-3.11234

>  <SCORE.INTER.ROT>
2

>  <SCORE.INTER.SOLV>
16.3556

>  <SCORE.INTER.VDW>
-20.6621

>  <SCORE.INTER.norm>
-2.21264

>  <SCORE.INTRA>
1.65004

>  <SCORE.INTRA.DIHEDRAL>
5.13577

>  <SCORE.INTRA.DIHEDRAL.0>
3.15569

>  <SCORE.INTRA.POLAR>
0

>  <SCORE.INTRA.POLAR.0>
0

>  <SCORE.INTRA.REPUL>
0

>  <SCORE.INTRA.REPUL.0>
0

>  <SCORE.INTRA.SOLV>
-0.206876

>  <SCORE.INTRA.SOLV.lig_0>
-22.6992

>  <SCORE.INTRA.VDW>
-0.81441

>  <SCORE.INTRA.VDW.0>
0.169747

>  <SCORE.INTRA.norm>
0.11786

>  <SCORE.RESTR>
0

>  <SCORE.RESTR.CAVITY>
0

>  <SCORE.RESTR.norm>
0

>  <SCORE.SYSTEM>
-22.7547

>  <SCORE.SYSTEM.CONST>
0

>  <SCORE.SYSTEM.DIHEDRAL>
5.26283

>  <SCORE.SYSTEM.POLAR>
-3.41697

>  <SCORE.SYSTEM.SOLV>
0.4432

>  <SCORE.SYSTEM.VDW>
-5.68192

>  <SCORE.SYSTEM.norm>
-1.62534

>  <SCORE.heavy>
14

>  <SCORE.norm>
-3.72012

$$$$
P53484841
 OpenBabel12072022103D
libRbt.so/2013.1/901 2013/11/27
 18 18  0  0  0  0  0  0  0  0999 V2000
   19.9756  -16.2627    3.4116 C   0  0  0  0  0  0  0  0  0  0  0  0
   18.8240  -17.0504    3.2935 C   0  0  0  0  0  0  0  0  0  0  0  0
   18.6205  -18.1138    4.1704 C   0  0  0  0  0  0  0  0  0  0  0  0
   19.5811  -18.3831    5.1468 C   0  0  0  0  0  0  0  0  0  0  0  0
   20.7337  -17.5971    5.2860 C   0  0  0  0  0  0  0  0  0  0  0  0
   20.9237  -16.5209    4.4149 C   0  0  0  0  0  0  0  0  0  0  0  0
   22.1272  -15.6497    4.4890 C   0  0  0  0  0  0  0  0  0  0  0  0
   22.0147  -14.4304    4.3980 O   0  0  0  0  0  0  0  0  0  0  0  0
   23.3436  -16.2888    4.6964 N   0  0  0  0  0  0  0  0  0  0  0  0
   24.5059  -15.5037    4.8619 N   0  0  0  0  0  0  0  0  0  0  0  0
   19.4115  -19.5013    6.0535 N   0  3  0  0  0  0  0  0  0  0  0  0
   19.3428  -20.6351    5.5619 O   0  0  0  0  0  0  0  0  0  0  0  0
   19.4347  -19.2393    7.2650 O   0  5  0  0  0  0  0  0  0  0  0  0
   17.4828  -18.8586    4.0817 O   0  0  0  0  0  0  0  0  0  0  0  0
   23.3841  -17.2639    4.9860 H   0  0  0  0  0  0  0  0  0  0  0  0
   25.2657  -15.9863    4.3614 H   0  0  0  0  0  0  0  0  0  0  0  0
   24.7911  -15.5795    5.8434 H   0  0  0  0  0  0  0  0  0  0  0  0
   17.3699  -19.3969    4.8844 H   0  0  0  0  0  0  0  0  0  0  0  0
  1  2  2  0  0  0  0
  1  6  1  0  0  0  0
  2  3  1  0  0  0  0
  3  4  2  0  0  0  0
  3 14  1  0  0  0  0
  4  5  1  0  0  0  0
  4 11  1  0  0  0  0
  5  6  2  0  0  0  0
  6  7  1  0  0  0  0
  7  8  2  0  0  0  0
  7  9  1  0  0  0  0
  9 10  1  0  0  0  0
  9 15  1  0  0  0  0
 10 16  1  0  0  0  0
 10 17  1  0  0  0  0
 11 12  2  0  0  0  0
 11 13  1  0  0  0  0
 14 18  1  0  0  0  0
M  CHG  2  11   1  13  -1
M  END
>  <CHROM.0>
-51.05359759,-63.34744724,-57.51778492,-53.93683429,-55.66015889,-57.32498309
-60.66655894,-177.80138835,-167.60213174,160.28517534

>  <CHROM.1>
-165.07942609,45.17119143,-140.71932645,20.47664975,-17.47580075,4.84283083
0.63254877,-0.40887123,-0.68585658

>  <Name>
P53484841

>  <RI>
0

>  <Rbt.Current_Directory>
/home/fstefaniak/projects/zuza/docking/adenine/1Y26

>  <Rbt.Executable>
rbdock ($Id: //depot/dev/client3/rdock/2013.1/src/exe/rbdock.cxx#4 $)

>  <Rbt.Library>
libRbt.so (2013.1, Build901 2013/11/27)

>  <Rbt.Parameter_File>
/home/fstefaniak/progs/rDock//data/scripts/dock_solv.prm

>  <Rbt.Receptor>
1y26.prm

>  <SCORE>
-52.0325

>  <SCORE.INTER>
-30.4071

>  <SCORE.INTER.CONST>
1

>  <SCORE.INTER.POLAR>
-3.02565

>  <SCORE.INTER.ROT>
2

>  <SCORE.INTER.SOLV>
16.5839

>  <SCORE.INTER.VDW>
-20.6472

>  <SCORE.INTER.norm>
-2.17194

>  <SCORE.INTRA>
1.06925

>  <SCORE.INTRA.DIHEDRAL>
3.76792

>  <SCORE.INTRA.DIHEDRAL.0>
3.15569

>  <SCORE.INTRA.POLAR>
0

>  <SCORE.INTRA.POLAR.0>
0

>  <SCORE.INTRA.REPUL>
0

>  <SCORE.INTRA.REPUL.0>
0

>  <SCORE.INTRA.SOLV>
-0.196119

>  <SCORE.INTRA.SOLV.lig_0>
-22.6992

>  <SCORE.INTRA.VDW>
-0.716649

>  <SCORE.INTRA.VDW.0>
0.169747

>  <SCORE.INTRA.norm>
0.0763751

>  <SCORE.RESTR>
0

>  <SCORE.RESTR.CAVITY>
0

>  <SCORE.RESTR.norm>
0

>  <SCORE.SYSTEM>
-22.6946

>  <SCORE.SYSTEM.CONST>
0

>  <SCORE.SYSTEM.DIHEDRAL>
5.16255

>  <SCORE.SYSTEM.POLAR>
-3.39601

>  <SCORE.SYSTEM.SOLV>
0.446548

>  <SCORE.SYSTEM.VDW>
-5.6794

>  <SCORE.SYSTEM.norm>
-1.62104

>  <SCORE.heavy>
14

>  <SCORE.norm>
-3.7166

$$$$
P53484841
 OpenBabel12072022103D
libRbt.so/2013.1/901 2013/11/27
 18 18  0  0  0  0  0  0  0  0999 V2000
   20.0514  -16.1974    3.4046 C   0  0  0  0  0  0  0  0  0  0  0  0
   18.8993  -16.9771    3.2454 C   0  0  0  0  0  0  0  0  0  0  0  0
   18.6631  -18.0462    4.1071 C   0  0  0  0  0  0  0  0  0  0  0  0
   19.5921  -18.3291    5.1098 C   0  0  0  0  0  0  0  0  0  0  0  0
   20.7445  -17.5513    5.2901 C   0  0  0  0  0  0  0  0  0  0  0  0
   20.9672  -16.4694    4.4340 C   0  0  0  0  0  0  0  0  0  0  0  0
   22.1730  -15.6062    4.5515 C   0  0  0  0  0  0  0  0  0  0  0  0
   22.0592  -14.3837    4.5688 O   0  0  0  0  0  0  0  0  0  0  0  0
   23.3938  -16.2591    4.6714 N   0  0  0  0  0  0  0  0  0  0  0  0
   24.5607  -15.4896    4.8736 N   0  0  0  0  0  0  0  0  0  0  0  0
   19.3886  -19.4534    6.0018 N   0  3  0  0  0  0  0  0  0  0  0  0
   19.3282  -20.5829    5.4992 O   0  0  0  0  0  0  0  0  0  0  0  0
   19.3766  -19.2013    7.2156 O   0  5  0  0  0  0  0  0  0  0  0  0
   17.5242  -18.7833    3.9779 O   0  0  0  0  0  0  0  0  0  0  0  0
   23.4409  -17.2555    4.8748 H   0  0  0  0  0  0  0  0  0  0  0  0
   25.3258  -15.9731    4.3820 H   0  0  0  0  0  0  0  0  0  0  0  0
   24.8239  -15.5835    5.8596 H   0  0  0  0  0  0  0  0  0  0  0  0
   16.9313  -18.3741    3.3238 H   0  0  0  0  0  0  0  0  0  0  0  0
  1  2  2  0  0  0  0
  1  6  1  0  0  0  0
  2  3  1  0  0  0  0
  3  4  2  0  0  0  0
  3 14  1  0  0  0  0
  4  5  1  0  0  0  0
  4 11  1  0  0  0  0
  5  6  2  0  0  0  0
  6  7  1  0  0  0  0
  7  8  2  0  0  0  0
  7  9  1  0  0  0  0
  9 10  1  0  0  0  0
  9 15  1  0  0  0  0
 10 16  1  0  0  0  0
 10 17  1  0  0  0  0
 11 12  2  0  0  0  0
 11 13  1  0  0  0  0
 14 18  1  0  0  0  0
M  CHG  2  11   1  13  -1
M  END
>  <CHROM.0>
-51.09711240,-61.82085052,-57.10127201,-52.19535010,-56.16028635,-59.02739767
-58.58581237,-176.30729206,-166.95675360,160.76409364

>  <CHROM.1>
-7.25245942,50.70177670,-145.65382454,20.50145205,-17.42138125,4.82166878
0.60613978,-0.41927930,-0.68578716

>  <Name>
P53484841

>  <RI>
0

>  <Rbt.Current_Directory>
/home/fstefaniak/projects/zuza/docking/adenine/1Y26

>  <Rbt.Executable>
rbdock ($Id: //depot/dev/client3/rdock/2013.1/src/exe/rbdock.cxx#4 $)

>  <Rbt.Library>
libRbt.so (2013.1, Build901 2013/11/27)

>  <Rbt.Parameter_File>
/home/fstefaniak/progs/rDock//data/scripts/dock_solv.prm

>  <Rbt.Receptor>
1y26.prm

>  <SCORE>
-51.9541

>  <SCORE.INTER>
-31.028

>  <SCORE.INTER.CONST>
1

>  <SCORE.INTER.POLAR>
-3.15922

>  <SCORE.INTER.ROT>
2

>  <SCORE.INTER.SOLV>
16.4765

>  <SCORE.INTER.VDW>
-20.5801

>  <SCORE.INTER.norm>
-2.21629

>  <SCORE.INTRA>
1.77557

>  <SCORE.INTRA.DIHEDRAL>
4.83947

>  <SCORE.INTRA.DIHEDRAL.0>
3.15569

>  <SCORE.INTRA.POLAR>
0

>  <SCORE.INTRA.POLAR.0>
0

>  <SCORE.INTRA.REPUL>
0

>  <SCORE.INTRA.REPUL.0>
0

>  <SCORE.INTRA.SOLV>
-0.232546

>  <SCORE.INTRA.SOLV.lig_0>
-22.6992

>  <SCORE.INTRA.VDW>
-0.52789

>  <SCORE.INTRA.VDW.0>
0.169747

>  <SCORE.INTRA.norm>
0.126827

>  <SCORE.RESTR>
0

>  <SCORE.RESTR.CAVITY>
0

>  <SCORE.RESTR.norm>
0

>  <SCORE.SYSTEM>
-22.7016

>  <SCORE.SYSTEM.CONST>
0

>  <SCORE.SYSTEM.DIHEDRAL>
5.24082

>  <SCORE.SYSTEM.POLAR>
-3.42344

>  <SCORE.SYSTEM.SOLV>
0.452971

>  <SCORE.SYSTEM.VDW>
-5.6209

>  <SCORE.SYSTEM.norm>
-1.62155

>  <SCORE.heavy>
14

>  <SCORE.norm>
-3.71101

$$$$
P53731179
 OpenBabel12072022103D
libRbt.so/2013.1/901 2013/11/27
 15 15  0  0  0  0  0  0  0  0999 V2000
   22.4089  -11.8055    6.3622 C   0  0  0  0  0  0  0  0  0  0  0  0
   23.2804  -12.4092    5.2703 C   0  0  0  0  0  0  0  0  0  0  0  0
   23.3213  -13.9483    5.2892 C   0  0  2  0  0  0  0  0  0  0  0  0
   24.6237  -14.5045    4.6950 C   0  0  0  0  0  0  0  0  0  0  0  0
   24.5886  -16.0285    4.6505 C   0  0  0  0  0  0  0  0  0  0  0  0
   23.3682  -16.5345    3.8941 C   0  0  0  0  0  0  0  0  0  0  0  0
   22.1291  -15.9686    4.4184 N   0  0  0  0  0  0  0  0  0  0  0  0
   22.1043  -14.5070    4.5310 C   0  0  0  0  0  0  0  0  0  0  0  0
   20.9718  -16.7100    4.1807 C   0  0  0  0  0  0  0  0  0  0  0  0
   20.6515  -17.7058    4.8298 O   0  0  0  0  0  0  0  0  0  0  0  0
   20.1788  -16.2361    3.1422 N   0  0  0  0  0  0  0  0  0  0  0  0
   18.8814  -16.7983    2.9795 N   0  0  0  0  0  0  0  0  0  0  0  0
   20.2519  -15.2364    2.9760 H   0  0  0  0  0  0  0  0  0  0  0  0
   18.2981  -16.3942    3.7271 H   0  0  0  0  0  0  0  0  0  0  0  0
   18.9515  -17.7836    3.2499 H   0  0  0  0  0  0  0  0  0  0  0  0
  1  2  1  0  0  0  0
  3  4  1  0  0  0  0
  3  8  1  0  0  0  0
  3  2  1  6  0  0  0
  4  5  1  0  0  0  0
  5  6  1  0  0  0  0
  6  7  1  0  0  0  0
  7  8  1  0  0  0  0
  7  9  1  0  0  0  0
  9 10  2  0  0  0  0
  9 11  1  0  0  0  0
 11 12  1  0  0  0  0
 11 13  1  0  0  0  0
 12 14  1  0  0  0  0
 12 15  1  0  0  0  0
M  END
>  <CHROM.0>
-49.32130913,75.19003537,-67.77990721,-56.71907642,-57.78383640,56.50325590
-171.66291827,-56.04412981,-165.76208557,160.46217335

>  <CHROM.1>
-152.91722438,78.71024657,-169.82394963,75.21871173,22.14717807,-15.28249556
4.51324282,0.87793785,-0.12914860,0.32787656

>  <Name>
P53731179

>  <RI>
0

>  <Rbt.Current_Directory>
/home/fstefaniak/projects/zuza/docking/adenine/1Y26

>  <Rbt.Executable>
rbdock ($Id: //depot/dev/client3/rdock/2013.1/src/exe/rbdock.cxx#4 $)

>  <Rbt.Library>
libRbt.so (2013.1, Build901 2013/11/27)

>  <Rbt.Parameter_File>
/home/fstefaniak/progs/rDock//data/scripts/dock_solv.prm

>  <Rbt.Receptor>
1y26.prm

>  <SCORE>
-50.4995

>  <SCORE.INTER>
-30.9793

>  <SCORE.INTER.CONST>
1

>  <SCORE.INTER.POLAR>
-4.55202

>  <SCORE.INTER.ROT>
4

>  <SCORE.INTER.SOLV>
13.1629

>  <SCORE.INTER.VDW>
-16.1338

>  <SCORE.INTER.norm>
-2.58161

>  <SCORE.INTRA>
-0.660887

>  <SCORE.INTRA.DIHEDRAL>
1.63098

>  <SCORE.INTRA.DIHEDRAL.0>
2.27848

>  <SCORE.INTRA.POLAR>
0

>  <SCORE.INTRA.POLAR.0>
0

>  <SCORE.INTRA.REPUL>
0

>  <SCORE.INTRA.REPUL.0>
0

>  <SCORE.INTRA.SOLV>
0.0454939

>  <SCORE.INTRA.SOLV.lig_0>
-15.8719

>  <SCORE.INTRA.VDW>
-1.49913

>  <SCORE.INTRA.VDW.0>
1.37703

>  <SCORE.INTRA.norm>
-0.0550739

>  <SCORE.RESTR>
0.221835

>  <SCORE.RESTR.CAVITY>
0.221835

>  <SCORE.RESTR.norm>
0.0184862

>  <SCORE.SYSTEM>
-19.0811

>  <SCORE.SYSTEM.CONST>
0

>  <SCORE.SYSTEM.DIHEDRAL>
6.96931

>  <SCORE.SYSTEM.POLAR>
-3.34066

>  <SCORE.SYSTEM.SOLV>
0.425795

>  <SCORE.SYSTEM.VDW>
-4.05023

>  <SCORE.SYSTEM.norm>
-1.59009

>  <SCORE.heavy>
12

>  <SCORE.norm>
-4.20829

$$$$
P53731179
 OpenBabel12072022103D
libRbt.so/2013.1/901 2013/11/27
 15 15  0  0  0  0  0  0  0  0999 V2000
   22.9203  -14.6502    4.6650 C   0  0  0  0  0  0  0  0  0  0  0  0
   21.5133  -15.0936    5.0390 C   0  0  0  0  0  0  0  0  0  0  0  0
   21.1319  -16.4793    4.4863 C   0  0  2  0  0  0  0  0  0  0  0  0
   20.9218  -16.4628    2.9652 C   0  0  0  0  0  0  0  0  0  0  0  0
   20.4605  -17.8294    2.4696 C   0  0  0  0  0  0  0  0  0  0  0  0
   19.2087  -18.2927    3.2019 C   0  0  0  0  0  0  0  0  0  0  0  0
   19.3819  -18.2602    4.6509 N   0  0  0  0  0  0  0  0  0  0  0  0
   19.8658  -16.9887    5.1973 C   0  0  0  0  0  0  0  0  0  0  0  0
   18.5533  -19.1103    5.3830 C   0  0  0  0  0  0  0  0  0  0  0  0
   18.9679  -20.0294    6.0892 O   0  0  0  0  0  0  0  0  0  0  0  0
   17.1944  -18.8417    5.2676 N   0  0  0  0  0  0  0  0  0  0  0  0
   16.3901  -18.9398    6.4376 N   0  0  0  0  0  0  0  0  0  0  0  0
   16.9658  -18.0793    4.6360 H   0  0  0  0  0  0  0  0  0  0  0  0
   16.6788  -18.1624    7.0499 H   0  0  0  0  0  0  0  0  0  0  0  0
   16.7130  -19.7666    6.9484 H   0  0  0  0  0  0  0  0  0  0  0  0
  1  2  1  0  0  0  0
  3  4  1  0  0  0  0
  3  8  1  0  0  0  0
  3  2  1  1  0  0  0
  4  5  1  0  0  0  0
  5  6  1  0  0  0  0
  6  7  1  0  0  0  0
  7  8  1  0  0  0  0
  7  9  1  0  0  0  0
  9 10  2  0  0  0  0
  9 11  1  0  0  0  0
 11 12  1  0  0  0  0
 11 13  1  0  0  0  0
 12 14  1  0  0  0  0
 12 15  1  0  0  0  0
M  END
>  <CHROM.0>
-49.35794068,-61.55262169,-55.47887917,-51.89115842,-57.50604304,-58.95458635
-56.85549499,-53.38964479,-167.41678621,-60.77270277

>  <CHROM.1>
-71.18274189,117.89754345,-139.81315547,68.66601057,19.67386006,-17.59977759
4.69059462,-0.01217981,0.75196314,1.18200451

>  <Name>
P53731179

>  <RI>
0

>  <Rbt.Current_Directory>
/home/fstefaniak/projects/zuza/docking/adenine/1Y26

>  <Rbt.Executable>
rbdock ($Id: //depot/dev/client3/rdock/2013.1/src/exe/rbdock.cxx#4 $)

>  <Rbt.Library>
libRbt.so (2013.1, Build901 2013/11/27)

>  <Rbt.Parameter_File>
/home/fstefaniak/progs/rDock//data/scripts/dock_solv.prm

>  <Rbt.Receptor>
1y26.prm

>  <SCORE>
-49.1426

>  <SCORE.INTER>
-27.7241

>  <SCORE.INTER.CONST>
1

>  <SCORE.INTER.POLAR>
-4.6288

>  <SCORE.INTER.ROT>
4

>  <SCORE.INTER.SOLV>
15.1086

>  <SCORE.INTER.VDW>
-14.3563

>  <SCORE.INTER.norm>
-2.31035

>  <SCORE.INTRA>
-2.0284

>  <SCORE.INTRA.DIHEDRAL>
-0.579659

>  <SCORE.INTRA.DIHEDRAL.0>
2.27848

>  <SCORE.INTRA.POLAR>
0

>  <SCORE.INTRA.POLAR.0>
0

>  <SCORE.INTRA.REPUL>
0

>  <SCORE.INTRA.REPUL.0>
0

>  <SCORE.INTRA.SOLV>
0.101362

>  <SCORE.INTRA.SOLV.lig_0>
-15.8719

>  <SCORE.INTRA.VDW>
-1.78925

>  <SCORE.INTRA.VDW.0>
1.37703

>  <SCORE.INTRA.norm>
-0.169033

>  <SCORE.RESTR>
0

>  <SCORE.RESTR.CAVITY>
0

>  <SCORE.RESTR.norm>
0

>  <SCORE.SYSTEM>
-19.39

>  <SCORE.SYSTEM.CONST>
0

>  <SCORE.SYSTEM.DIHEDRAL>
4.04396

>  <SCORE.SYSTEM.POLAR>
-2.63385

>  <SCORE.SYSTEM.SOLV>
0.74194

>  <SCORE.SYSTEM.VDW>
-5.74248

>  <SCORE.SYSTEM.norm>
-1.61584

>  <SCORE.heavy>
12

>  <SCORE.norm>
-4.09522

$$$$
P53731179
 OpenBabel12072022103D
libRbt.so/2013.1/901 2013/11/27
 15 15  0  0  0  0  0  0  0  0999 V2000
   22.9354  -11.8842    3.5676 C   0  0  0  0  0  0  0  0  0  0  0  0
   22.8204  -12.3938    4.9970 C   0  0  0  0  0  0  0  0  0  0  0  0
   22.8909  -13.9273    5.1166 C   0  0  2  0  0  0  0  0  0  0  0  0
   24.2031  -14.4962    4.5573 C   0  0  0  0  0  0  0  0  0  0  0  0
   24.1973  -16.0203    4.6129 C   0  0  0  0  0  0  0  0  0  0  0  0
   22.9861  -16.5980    3.8939 C   0  0  0  0  0  0  0  0  0  0  0  0
   21.7368  -16.0227    4.3827 N   0  0  0  0  0  0  0  0  0  0  0  0
   21.6841  -14.5577    4.3994 C   0  0  0  0  0  0  0  0  0  0  0  0
   20.5938  -16.8001    4.1967 C   0  0  0  0  0  0  0  0  0  0  0  0
   20.3729  -17.8485    4.8030 O   0  0  0  0  0  0  0  0  0  0  0  0
   19.6930  -16.2987    3.2646 N   0  0  0  0  0  0  0  0  0  0  0  0
   19.1538  -17.1983    2.3024 N   0  0  0  0  0  0  0  0  0  0  0  0
   19.0485  -15.6033    3.6302 H   0  0  0  0  0  0  0  0  0  0  0  0
   18.4446  -17.7578    2.7990 H   0  0  0  0  0  0  0  0  0  0  0  0
   19.8861  -17.8844    2.0981 H   0  0  0  0  0  0  0  0  0  0  0  0
  1  2  1  0  0  0  0
  3  4  1  0  0  0  0
  3  8  1  0  0  0  0
  3  2  1  6  0  0  0
  4  5  1  0  0  0  0
  5  6  1  0  0  0  0
  6  7  1  0  0  0  0
  7  8  1  0  0  0  0
  7  9  1  0  0  0  0
  9 10  2  0  0  0  0
  9 11  1  0  0  0  0
 11 12  1  0  0  0  0
 11 13  1  0  0  0  0
 12 14  1  0  0  0  0
 12 15  1  0  0  0  0
M  END
>  <CHROM.0>
-51.64409172,73.34948414,-55.97620176,-52.58272154,-56.00460613,-60.51341347
-58.78569564,61.89184772,-167.34987041,161.98313850

>  <CHROM.1>
59.02959141,69.63255126,133.90492874,76.07833077,21.88796342,-15.36722480
4.14915078,0.82105874,-0.36828835,-0.08604039

>  <Name>
P53731179

>  <RI>
0

>  <Rbt.Current_Directory>
/home/fstefaniak/projects/zuza/docking/adenine/1Y26

>  <Rbt.Executable>
rbdock ($Id: //depot/dev/client3/rdock/2013.1/src/exe/rbdock.cxx#4 $)

>  <Rbt.Library>
libRbt.so (2013.1, Build901 2013/11/27)

>  <Rbt.Parameter_File>
/home/fstefaniak/progs/rDock//data/scripts/dock_solv.prm

>  <Rbt.Receptor>
1y26.prm

>  <SCORE>
-49.1089

>  <SCORE.INTER>
-28.3616

>  <SCORE.INTER.CONST>
1

>  <SCORE.INTER.POLAR>
-3.60696

>  <SCORE.INTER.ROT>
4

>  <SCORE.INTER.SOLV>
12.3961

>  <SCORE.INTER.VDW>
-17.2832

>  <SCORE.INTER.norm>
-2.36347

>  <SCORE.INTRA>
-0.492403

>  <SCORE.INTRA.DIHEDRAL>
-1.03582

>  <SCORE.INTRA.DIHEDRAL.0>
2.27848

>  <SCORE.INTRA.POLAR>
0

>  <SCORE.INTRA.POLAR.0>
0

>  <SCORE.INTRA.REPUL>
0

>  <SCORE.INTRA.REPUL.0>
0

>  <SCORE.INTRA.SOLV>
0.144569

>  <SCORE.INTRA.SOLV.lig_0>
-15.8719

>  <SCORE.INTRA.VDW>
-0.0467798

>  <SCORE.INTRA.VDW.0>
1.37703

>  <SCORE.INTRA.norm>
-0.0410336

>  <SCORE.RESTR>
0.00290136

>  <SCORE.RESTR.CAVITY>
0.00290136

>  <SCORE.RESTR.norm>
0.00024178

>  <SCORE.SYSTEM>
-20.2578

>  <SCORE.SYSTEM.CONST>
0

>  <SCORE.SYSTEM.DIHEDRAL>
5.74759

>  <SCORE.SYSTEM.POLAR>
-3.37269

>  <SCORE.SYSTEM.SOLV>
0.426617

>  <SCORE.SYSTEM.VDW>
-4.321

>  <SCORE.SYSTEM.norm>
-1.68815

>  <SCORE.heavy>
12

>  <SCORE.norm>
-4.09241

$$$$
P53888216
 OpenBabel12072022103D
libRbt.so/2013.1/901 2013/11/27
 12 12  0  0  0  0  0  0  0  0999 V2000
   22.0307  -14.6625    3.9236 C   0  0  0  0  0  0  0  0  0  0  0  0
   21.6709  -15.8028    4.7039 O   0  0  0  0  0  0  0  0  0  0  0  0
   20.6277  -16.5078    4.1968 C   0  0  0  0  0  0  0  0  0  0  0  0
   20.1389  -16.3442    3.0886 O   0  0  0  0  0  0  0  0  0  0  0  0
   20.2103  -17.4165    5.1263 N   0  0  0  0  0  0  0  0  0  0  0  0
   19.0672  -18.2486    4.9501 C   0  0  1  0  0  0  0  0  0  0  0  0
   19.1861  -19.7476    4.9701 C   0  0  0  0  0  0  0  0  0  0  0  0
   18.5087  -19.0447    6.1063 C   0  0  2  0  0  0  0  0  0  0  0  0
   17.0625  -19.1621    6.2816 N   0  0  0  0  0  0  0  0  0  0  0  0
   20.6710  -17.3723    6.0247 H   0  0  0  0  0  0  0  0  0  0  0  0
   16.6806  -18.3099    6.6920 H   0  0  0  0  0  0  0  0  0  0  0  0
   16.8224  -19.9128    6.9289 H   0  0  0  0  0  0  0  0  0  0  0  0
  1  2  1  0  0  0  0
  2  3  1  0  0  0  0
  3  4  2  0  0  0  0
  3  5  1  0  0  0  0
  5 10  1  0  0  0  0
  6  5  1  1  0  0  0
  6  7  1  0  0  0  0
  6  8  1  0  0  0  0
  7  8  1  0  0  0  0
  8  9  1  6  0  0  0
  9 11  1  0  0  0  0
  9 12  1  0  0  0  0
M  END
>  <CHROM.0>
-52.27602508,65.75066471,-56.84099900,-50.89366653,-58.44444706,-58.90806507
-55.87635970,-176.95203390,-166.41606992,160.85868126

>  <CHROM.1>
10.49550951,120.60739952,-77.92649648,19.84618151,-17.39539537,4.82009939
-0.39878771,0.81323632,1.63653889

>  <Name>
P53888216

>  <RI>
0

>  <Rbt.Current_Directory>
/home/fstefaniak/projects/zuza/docking/adenine/1Y26

>  <Rbt.Executable>
rbdock ($Id: //depot/dev/client3/rdock/2013.1/src/exe/rbdock.cxx#4 $)

>  <Rbt.Library>
libRbt.so (2013.1, Build901 2013/11/27)

>  <Rbt.Parameter_File>
/home/fstefaniak/progs/rDock//data/scripts/dock_solv.prm

>  <Rbt.Receptor>
1y26.prm

>  <SCORE>
-56.6635

>  <SCORE.INTER>
-35.0316

>  <SCORE.INTER.CONST>
1

>  <SCORE.INTER.POLAR>
-5.33401

>  <SCORE.INTER.ROT>
3

>  <SCORE.INTER.SOLV>
11.0233

>  <SCORE.INTER.VDW>
-14.8488

>  <SCORE.INTER.norm>
-3.8924

>  <SCORE.INTRA>
0.260675

>  <SCORE.INTRA.DIHEDRAL>
0.991631

>  <SCORE.INTRA.DIHEDRAL.0>
2.37912

>  <SCORE.INTRA.POLAR>
0

>  <SCORE.INTRA.POLAR.0>
0

>  <SCORE.INTRA.REPUL>
0

>  <SCORE.INTRA.REPUL.0>
0

>  <SCORE.INTRA.SOLV>
-0.0934613

>  <SCORE.INTRA.SOLV.lig_0>
-13.6375

>  <SCORE.INTRA.VDW>
-0.18841

>  <SCORE.INTRA.VDW.0>
1.24314

>  <SCORE.INTRA.norm>
0.0289639

>  <SCORE.RESTR>
0

>  <SCORE.RESTR.CAVITY>
0

>  <SCORE.RESTR.norm>
0

>  <SCORE.SYSTEM>
-21.8926

>  <SCORE.SYSTEM.CONST>
0

>  <SCORE.SYSTEM.DIHEDRAL>
5.43883

>  <SCORE.SYSTEM.POLAR>
-3.44162

>  <SCORE.SYSTEM.SOLV>
0.475119

>  <SCORE.SYSTEM.VDW>
-5.09434

>  <SCORE.SYSTEM.norm>
-2.43251

>  <SCORE.heavy>
9

>  <SCORE.norm>
-6.29595

$$$$
P53888216
 OpenBabel12072022103D
libRbt.so/2013.1/901 2013/11/27
 12 12  0  0  0  0  0  0  0  0999 V2000
   22.0273  -14.6658    3.8694 C   0  0  0  0  0  0  0  0  0  0  0  0
   21.6263  -15.7521    4.7048 O   0  0  0  0  0  0  0  0  0  0  0  0
   20.5916  -16.4753    4.2059 C   0  0  0  0  0  0  0  0  0  0  0  0
   20.0930  -16.3219    3.1005 O   0  0  0  0  0  0  0  0  0  0  0  0
   20.1954  -17.3889    5.1397 N   0  0  0  0  0  0  0  0  0  0  0  0
   19.0650  -18.2401    4.9725 C   0  0  1  0  0  0  0  0  0  0  0  0
   19.1991  -19.7357    5.0546 C   0  0  0  0  0  0  0  0  0  0  0  0
   18.4900  -18.9962    6.1473 C   0  0  2  0  0  0  0  0  0  0  0  0
   17.0416  -19.1229    6.2964 N   0  0  0  0  0  0  0  0  0  0  0  0
   20.6611  -17.3353    6.0350 H   0  0  0  0  0  0  0  0  0  0  0  0
   16.6470  -18.2734    6.7005 H   0  0  0  0  0  0  0  0  0  0  0  0
   16.7947  -19.8756    6.9388 H   0  0  0  0  0  0  0  0  0  0  0  0
  1  2  1  0  0  0  0
  2  3  1  0  0  0  0
  3  4  2  0  0  0  0
  3  5  1  0  0  0  0
  5 10  1  0  0  0  0
  6  5  1  1  0  0  0
  6  7  1  0  0  0  0
  6  8  1  0  0  0  0
  7  8  1  0  0  0  0
  8  9  1  6  0  0  0
  9 11  1  0  0  0  0
  9 12  1  0  0  0  0
M  END
>  <CHROM.0>
-51.15804745,63.27030142,-57.55458562,-49.09978657,-54.64786627,-57.75354359
-60.62025589,-175.63064823,-166.49006791,160.82614467

>  <CHROM.1>
6.06552616,123.31391019,-80.25983855,19.82622216,-17.36877720,4.83496013
-0.49488212,0.77310662,1.75594296

>  <Name>
P53888216

>  <RI>
0

>  <Rbt.Current_Directory>
/home/fstefaniak/projects/zuza/docking/adenine/1Y26

>  <Rbt.Executable>
rbdock ($Id: //depot/dev/client3/rdock/2013.1/src/exe/rbdock.cxx#4 $)

>  <Rbt.Library>
libRbt.so (2013.1, Build901 2013/11/27)

>  <Rbt.Parameter_File>
/home/fstefaniak/progs/rDock//data/scripts/dock_solv.prm

>  <Rbt.Receptor>
1y26.prm

>  <SCORE>
-56.6268

>  <SCORE.INTER>
-34.7172

>  <SCORE.INTER.CONST>
1

>  <SCORE.INTER.POLAR>
-5.26438

>  <SCORE.INTER.ROT>
3

>  <SCORE.INTER.SOLV>
11.0625

>  <SCORE.INTER.VDW>
-14.8844

>  <SCORE.INTER.norm>
-3.85747

>  <SCORE.INTRA>
0.0547266

>  <SCORE.INTRA.DIHEDRAL>
0.448794

>  <SCORE.INTRA.DIHEDRAL.0>
2.37912

>  <SCORE.INTRA.POLAR>
0

>  <SCORE.INTRA.POLAR.0>
0

>  <SCORE.INTRA.REPUL>
0

>  <SCORE.INTRA.REPUL.0>
0

>  <SCORE.INTRA.SOLV>
-0.0982105

>  <SCORE.INTRA.SOLV.lig_0>
-13.6375

>  <SCORE.INTRA.VDW>
-0.120565

>  <SCORE.INTRA.VDW.0>
1.24314

>  <SCORE.INTRA.norm>
0.00608074

>  <SCORE.RESTR>
0

>  <SCORE.RESTR.CAVITY>
0

>  <SCORE.RESTR.norm>
0

>  <SCORE.SYSTEM>
-21.9643

>  <SCORE.SYSTEM.CONST>
0

>  <SCORE.SYSTEM.DIHEDRAL>
5.65311

>  <SCORE.SYSTEM.POLAR>
-3.48555

>  <SCORE.SYSTEM.SOLV>
0.48229

>  <SCORE.SYSTEM.VDW>
-5.06952

>  <SCORE.SYSTEM.norm>
-2.44048

>  <SCORE.heavy>
9

>  <SCORE.norm>
-6.29187

$$$$
P53888216
 OpenBabel12072022103D
libRbt.so/2013.1/901 2013/11/27
 12 12  0  0  0  0  0  0  0  0999 V2000
   22.0602  -14.6807    3.8691 C   0  0  0  0  0  0  0  0  0  0  0  0
   21.6244  -15.7406    4.7207 O   0  0  0  0  0  0  0  0  0  0  0  0
   20.5991  -16.4689    4.2098 C   0  0  0  0  0  0  0  0  0  0  0  0
   20.1333  -16.3390    3.0873 O   0  0  0  0  0  0  0  0  0  0  0  0
   20.1699  -17.3570    5.1536 N   0  0  0  0  0  0  0  0  0  0  0  0
   19.0386  -18.2047    4.9746 C   0  0  1  0  0  0  0  0  0  0  0  0
   19.1791  -19.7019    4.9874 C   0  0  0  0  0  0  0  0  0  0  0  0
   18.4929  -19.0141    6.1276 C   0  0  2  0  0  0  0  0  0  0  0  0
   17.0486  -19.1532    6.3037 N   0  0  0  0  0  0  0  0  0  0  0  0
   20.6103  -17.2849    6.0603 H   0  0  0  0  0  0  0  0  0  0  0  0
   16.6555  -18.3100    6.7220 H   0  0  0  0  0  0  0  0  0  0  0  0
   16.8200  -19.9127    6.9448 H   0  0  0  0  0  0  0  0  0  0  0  0
  1  2  1  0  0  0  0
  2  3  1  0  0  0  0
  3  4  2  0  0  0  0
  3  5  1  0  0  0  0
  5 10  1  0  0  0  0
  6  5  1  1  0  0  0
  6  7  1  0  0  0  0
  6  8  1  0  0  0  0
  7  8  1  0  0  0  0
  8  9  1  6  0  0  0
  9 11  1  0  0  0  0
  9 12  1  0  0  0  0
M  END
>  <CHROM.0>
-45.99717176,68.23988973,-51.32553193,-53.72535953,-55.03021038,-59.59600356
-61.74665631,-177.72328550,-165.16430212,159.86025365

>  <CHROM.1>
5.83732582,118.38567096,-78.15366313,19.82880065,-17.36520353,4.82929035
-0.38423059,0.81783334,1.60678345

>  <Name>
P53888216

>  <RI>
0

>  <Rbt.Current_Directory>
/home/fstefaniak/projects/zuza/docking/adenine/1Y26

>  <Rbt.Executable>
rbdock ($Id: //depot/dev/client3/rdock/2013.1/src/exe/rbdock.cxx#4 $)

>  <Rbt.Library>
libRbt.so (2013.1, Build901 2013/11/27)

>  <Rbt.Parameter_File>
/home/fstefaniak/progs/rDock//data/scripts/dock_solv.prm

>  <Rbt.Receptor>
1y26.prm

>  <SCORE>
-56.5658

>  <SCORE.INTER>
-34.8938

>  <SCORE.INTER.CONST>
1

>  <SCORE.INTER.POLAR>
-5.33373

>  <SCORE.INTER.ROT>
3

>  <SCORE.INTER.SOLV>
11.0269

>  <SCORE.INTER.VDW>
-14.759

>  <SCORE.INTER.norm>
-3.87709

>  <SCORE.INTRA>
0.0481373

>  <SCORE.INTRA.DIHEDRAL>
0.436388

>  <SCORE.INTRA.DIHEDRAL.0>
2.37912

>  <SCORE.INTRA.POLAR>
0

>  <SCORE.INTRA.POLAR.0>
0

>  <SCORE.INTRA.REPUL>
0

>  <SCORE.INTRA.REPUL.0>
0

>  <SCORE.INTRA.SOLV>
-0.0907873

>  <SCORE.INTRA.SOLV.lig_0>
-13.6375

>  <SCORE.INTRA.VDW>
-0.124663

>  <SCORE.INTRA.VDW.0>
1.24314

>  <SCORE.INTRA.norm>
0.00534859

>  <SCORE.RESTR>
0

>  <SCORE.RESTR.CAVITY>
0

>  <SCORE.RESTR.norm>
0

>  <SCORE.SYSTEM>
-21.7201

>  <SCORE.SYSTEM.CONST>
0

>  <SCORE.SYSTEM.DIHEDRAL>
6.64176

>  <SCORE.SYSTEM.POLAR>
-3.53941

>  <SCORE.SYSTEM.SOLV>
0.461138

>  <SCORE.SYSTEM.VDW>
-5.0497

>  <SCORE.SYSTEM.norm>
-2.41335

>  <SCORE.heavy>
9

>  <SCORE.norm>
-6.28509

$$$$
P53976880
 OpenBabel12072022103D
libRbt.so/2013.1/901 2013/11/27
 15 15  0  0  0  0  0  0  0  0999 V2000
   19.9343  -17.7399    6.1164 C   0  0  0  0  0  0  0  0  0  0  0  0
   19.5144  -18.0972    4.7644 N   0  0  0  0  0  0  0  0  0  0  0  0
   20.1075  -17.3895    3.6022 C   0  0  0  0  0  0  0  0  0  0  0  0
   19.8614  -15.8728    3.6309 C   0  0  0  0  0  0  0  0  0  0  0  0
   20.9496  -15.1097    4.3674 C   0  0  0  0  0  0  0  0  0  0  0  0
   22.2377  -15.4437    3.8572 O   0  0  0  0  0  0  0  0  0  0  0  0
   22.5577  -16.8165    4.0550 C   0  0  0  0  0  0  0  0  0  0  0  0
   21.5802  -17.7181    3.3152 C   0  0  0  0  0  0  0  0  0  0  0  0
   18.4124  -18.9143    4.5040 C   0  0  0  0  0  0  0  0  0  0  0  0
   17.8538  -18.9749    3.4083 O   0  0  0  0  0  0  0  0  0  0  0  0
   17.9762  -19.6812    5.5774 N   0  0  0  0  0  0  0  0  0  0  0  0
   16.8696  -19.2061    6.3360 N   0  0  0  0  0  0  0  0  0  0  0  0
   18.0038  -20.6855    5.4273 H   0  0  0  0  0  0  0  0  0  0  0  0
   17.2099  -18.3862    6.8596 H   0  0  0  0  0  0  0  0  0  0  0  0
   16.7016  -19.8955    7.0747 H   0  0  0  0  0  0  0  0  0  0  0  0
  1  2  1  0  0  0  0
  2  3  1  0  0  0  0
  2  9  1  0  0  0  0
  3  4  1  0  0  0  0
  3  8  1  0  0  0  0
  4  5  1  0  0  0  0
  5  6  1  0  0  0  0
  6  7  1  0  0  0  0
  7  8  1  0  0  0  0
  9 10  2  0  0  0  0
  9 11  1  0  0  0  0
 11 12  1  0  0  0  0
 11 13  1  0  0  0  0
 12 14  1  0  0  0  0
 12 15  1  0  0  0  0
M  END
>  <CHROM.0>
-48.91279879,-56.69204081,-57.26915753,-51.87807854,-54.87787080,-53.93769164
-51.08344645,-173.53485064,-165.07425778,161.43296252

>  <CHROM.1>
-59.49446489,98.49001735,-70.53981794,19.79841451,-17.59413591,4.49086384
-3.05266565,-0.71556540,-1.86858532

>  <Name>
P53976880

>  <RI>
0

>  <Rbt.Current_Directory>
/home/fstefaniak/projects/zuza/docking/adenine/1Y26

>  <Rbt.Executable>
rbdock ($Id: //depot/dev/client3/rdock/2013.1/src/exe/rbdock.cxx#4 $)

>  <Rbt.Library>
libRbt.so (2013.1, Build901 2013/11/27)

>  <Rbt.Parameter_File>
/home/fstefaniak/progs/rDock//data/scripts/dock_solv.prm

>  <Rbt.Receptor>
1y26.prm

>  <SCORE>
-49.2183

>  <SCORE.INTER>
-25.2722

>  <SCORE.INTER.CONST>
1

>  <SCORE.INTER.POLAR>
-4.78145

>  <SCORE.INTER.ROT>
3

>  <SCORE.INTER.SOLV>
14.7652

>  <SCORE.INTER.VDW>
-11.4317

>  <SCORE.INTER.norm>
-2.10602

>  <SCORE.INTRA>
-1.69051

>  <SCORE.INTRA.DIHEDRAL>
-0.61984

>  <SCORE.INTRA.DIHEDRAL.0>
2.59116

>  <SCORE.INTRA.POLAR>
0

>  <SCORE.INTRA.POLAR.0>
0

>  <SCORE.INTRA.REPUL>
0

>  <SCORE.INTRA.REPUL.0>
0

>  <SCORE.INTRA.SOLV>
-0.112566

>  <SCORE.INTRA.SOLV.lig_0>
-16.7261

>  <SCORE.INTRA.VDW>
-1.3243

>  <SCORE.INTRA.VDW.0>
1.29032

>  <SCORE.INTRA.norm>
-0.140876

>  <SCORE.RESTR>
0

>  <SCORE.RESTR.CAVITY>
0

>  <SCORE.RESTR.norm>
0

>  <SCORE.SYSTEM>
-22.2556

>  <SCORE.SYSTEM.CONST>
0

>  <SCORE.SYSTEM.DIHEDRAL>
6.33237

>  <SCORE.SYSTEM.POLAR>
-3.49978

>  <SCORE.SYSTEM.SOLV>
0.482659

>  <SCORE.SYSTEM.VDW>
-5.44279

>  <SCORE.SYSTEM.norm>
-1.85463

>  <SCORE.heavy>
12

>  <SCORE.norm>
-4.10152

$$$$
P53976880
 OpenBabel12072022103D
libRbt.so/2013.1/901 2013/11/27
 15 15  0  0  0  0  0  0  0  0999 V2000
   19.9230  -17.6953    6.1080 C   0  0  0  0  0  0  0  0  0  0  0  0
   19.5199  -18.0711    4.7559 N   0  0  0  0  0  0  0  0  0  0  0  0
   20.1098  -17.3629    3.5923 C   0  0  0  0  0  0  0  0  0  0  0  0
   19.8850  -15.8433    3.6349 C   0  0  0  0  0  0  0  0  0  0  0  0
   20.9918  -15.1007    4.3647 C   0  0  0  0  0  0  0  0  0  0  0  0
   22.2694  -15.4486    3.8377 O   0  0  0  0  0  0  0  0  0  0  0  0
   22.5725  -16.8271    4.0218 C   0  0  0  0  0  0  0  0  0  0  0  0
   21.5745  -17.7096    3.2864 C   0  0  0  0  0  0  0  0  0  0  0  0
   18.4341  -18.9091    4.4941 C   0  0  0  0  0  0  0  0  0  0  0  0
   17.8852  -18.9885    3.3947 O   0  0  0  0  0  0  0  0  0  0  0  0
   18.0028  -19.6745    5.5706 N   0  0  0  0  0  0  0  0  0  0  0  0
   16.9150  -19.1865    6.3480 N   0  0  0  0  0  0  0  0  0  0  0  0
   18.0131  -20.6783    5.4156 H   0  0  0  0  0  0  0  0  0  0  0  0
   17.2802  -18.3856    6.8841 H   0  0  0  0  0  0  0  0  0  0  0  0
   16.7360  -19.8856    7.0750 H   0  0  0  0  0  0  0  0  0  0  0  0
  1  2  1  0  0  0  0
  2  3  1  0  0  0  0
  2  9  1  0  0  0  0
  3  4  1  0  0  0  0
  3  8  1  0  0  0  0
  4  5  1  0  0  0  0
  5  6  1  0  0  0  0
  6  7  1  0  0  0  0
  7  8  1  0  0  0  0
  9 10  2  0  0  0  0
  9 11  1  0  0  0  0
 11 12  1  0  0  0  0
 11 13  1  0  0  0  0
 12 14  1  0  0  0  0
 12 15  1  0  0  0  0
M  END
>  <CHROM.0>
-49.74484908,49.76717575,-58.08940003,-51.10995008,-52.74477344,-59.64452092
-60.86906714,-52.87007053,-166.94850844,162.11540808

>  <CHROM.1>
-57.22752029,96.11370942,-71.62496748,19.81789944,-17.58231119,4.48054006
-3.08583554,-0.72065533,-1.92316652

>  <Name>
P53976880

>  <RI>
0

>  <Rbt.Current_Directory>
/home/fstefaniak/projects/zuza/docking/adenine/1Y26

>  <Rbt.Executable>
rbdock ($Id: //depot/dev/client3/rdock/2013.1/src/exe/rbdock.cxx#4 $)

>  <Rbt.Library>
libRbt.so (2013.1, Build901 2013/11/27)

>  <Rbt.Parameter_File>
/home/fstefaniak/progs/rDock//data/scripts/dock_solv.prm

>  <Rbt.Receptor>
1y26.prm

>  <SCORE>
-48.67

>  <SCORE.INTER>
-25.5921

>  <SCORE.INTER.CONST>
1

>  <SCORE.INTER.POLAR>
-4.8798

>  <SCORE.INTER.ROT>
3

>  <SCORE.INTER.SOLV>
14.6793

>  <SCORE.INTER.VDW>
-11.2885

>  <SCORE.INTER.norm>
-2.13267

>  <SCORE.INTRA>
-1.56445

>  <SCORE.INTRA.DIHEDRAL>
-0.557124

>  <SCORE.INTRA.DIHEDRAL.0>
2.59116

>  <SCORE.INTRA.POLAR>
0

>  <SCORE.INTRA.POLAR.0>
0

>  <SCORE.INTRA.REPUL>
0

>  <SCORE.INTRA.REPUL.0>
0

>  <SCORE.INTRA.SOLV>
-0.105975

>  <SCORE.INTRA.SOLV.lig_0>
-16.7261

>  <SCORE.INTRA.VDW>
-1.2329

>  <SCORE.INTRA.VDW.0>
1.29032

>  <SCORE.INTRA.norm>
-0.130371

>  <SCORE.RESTR>
0

>  <SCORE.RESTR.CAVITY>
0

>  <SCORE.RESTR.norm>
0

>  <SCORE.SYSTEM>
-21.5135

>  <SCORE.SYSTEM.CONST>
0

>  <SCORE.SYSTEM.DIHEDRAL>
6.03013

>  <SCORE.SYSTEM.POLAR>
-3.49583

>  <SCORE.SYSTEM.SOLV>
0.738427

>  <SCORE.SYSTEM.VDW>
-4.94575

>  <SCORE.SYSTEM.norm>
-1.79279

>  <SCORE.heavy>
12

>  <SCORE.norm>
-4.05584

$$$$
P53976880
 OpenBabel12072022103D
libRbt.so/2013.1/901 2013/11/27
 15 15  0  0  0  0  0  0  0  0999 V2000
   19.9395  -17.7350    6.1202 C   0  0  0  0  0  0  0  0  0  0  0  0
   19.5145  -18.0852    4.7679 N   0  0  0  0  0  0  0  0  0  0  0  0
   20.1040  -17.3718    3.6072 C   0  0  0  0  0  0  0  0  0  0  0  0
   19.8580  -15.8553    3.6441 C   0  0  0  0  0  0  0  0  0  0  0  0
   20.9485  -15.0958    4.3807 C   0  0  0  0  0  0  0  0  0  0  0  0
   22.2349  -15.4273    3.8649 O   0  0  0  0  0  0  0  0  0  0  0  0
   22.5555  -16.8010    4.0551 C   0  0  0  0  0  0  0  0  0  0  0  0
   21.5757  -17.6990    3.3140 C   0  0  0  0  0  0  0  0  0  0  0  0
   18.4110  -18.9001    4.5073 C   0  0  0  0  0  0  0  0  0  0  0  0
   17.8485  -18.9547    3.4133 O   0  0  0  0  0  0  0  0  0  0  0  0
   17.9781  -19.6723    5.5783 N   0  0  0  0  0  0  0  0  0  0  0  0
   16.8658  -19.2072    6.3348 N   0  0  0  0  0  0  0  0  0  0  0  0
   18.0140  -20.6760    5.4266 H   0  0  0  0  0  0  0  0  0  0  0  0
   17.1996  -18.3883    6.8643 H   0  0  0  0  0  0  0  0  0  0  0  0
   16.6985  -19.9015    7.0691 H   0  0  0  0  0  0  0  0  0  0  0  0
  1  2  1  0  0  0  0
  2  3  1  0  0  0  0
  2  9  1  0  0  0  0
  3  4  1  0  0  0  0
  3  8  1  0  0  0  0
  4  5  1  0  0  0  0
  5  6  1  0  0  0  0
  6  7  1  0  0  0  0
  7  8  1  0  0  0  0
  9 10  2  0  0  0  0
  9 11  1  0  0  0  0
 11 12  1  0  0  0  0
 11 13  1  0  0  0  0
 12 14  1  0  0  0  0
 12 15  1  0  0  0  0
M  END
>  <CHROM.0>
-44.59793714,-58.60628413,-52.83620023,-50.43297211,-171.66879241,-54.30108490
-51.52391384,-50.22252561,-164.72303105,159.46714910

>  <CHROM.1>
-59.54443867,99.12671051,-70.81582744,19.79668232,-17.58106159,4.49528652
-3.04791565,-0.71586572,-1.85926605

>  <Name>
P53976880

>  <RI>
0

>  <Rbt.Current_Directory>
/home/fstefaniak/projects/zuza/docking/adenine/1Y26

>  <Rbt.Executable>
rbdock ($Id: //depot/dev/client3/rdock/2013.1/src/exe/rbdock.cxx#4 $)

>  <Rbt.Library>
libRbt.so (2013.1, Build901 2013/11/27)

>  <Rbt.Parameter_File>
/home/fstefaniak/progs/rDock//data/scripts/dock_solv.prm

>  <Rbt.Receptor>
1y26.prm

>  <SCORE>
-48.5476

>  <SCORE.INTER>
-25.1535

>  <SCORE.INTER.CONST>
1

>  <SCORE.INTER.POLAR>
-4.74237

>  <SCORE.INTER.ROT>
3

>  <SCORE.INTER.SOLV>
14.7496

>  <SCORE.INTER.VDW>
-11.4776

>  <SCORE.INTER.norm>
-2.09612

>  <SCORE.INTRA>
-1.6969

>  <SCORE.INTRA.DIHEDRAL>
-0.61347

>  <SCORE.INTRA.DIHEDRAL.0>
2.59116

>  <SCORE.INTRA.POLAR>
0

>  <SCORE.INTRA.POLAR.0>
0

>  <SCORE.INTRA.REPUL>
0

>  <SCORE.INTRA.REPUL.0>
0

>  <SCORE.INTRA.SOLV>
-0.115494

>  <SCORE.INTRA.SOLV.lig_0>
-16.7261

>  <SCORE.INTRA.VDW>
-1.33242

>  <SCORE.INTRA.VDW.0>
1.29032

>  <SCORE.INTRA.norm>
-0.141408

>  <SCORE.RESTR>
0

>  <SCORE.RESTR.CAVITY>
0

>  <SCORE.RESTR.norm>
0

>  <SCORE.SYSTEM>
-21.6972

>  <SCORE.SYSTEM.CONST>
0

>  <SCORE.SYSTEM.DIHEDRAL>
7.82325

>  <SCORE.SYSTEM.POLAR>
-3.7014

>  <SCORE.SYSTEM.SOLV>
0.537971

>  <SCORE.SYSTEM.VDW>
-4.91391

>  <SCORE.SYSTEM.norm>
-1.8081

>  <SCORE.heavy>
12

>  <SCORE.norm>
-4.04564

$$$$
P54000040
 OpenBabel12072022103D
libRbt.so/2013.1/901 2013/11/27
 12 12  0  0  0  0  0  0  0  0999 V2000
   18.5247  -18.1950    3.7305 C   0  0  0  0  0  0  0  0  0  0  0  0
   19.1812  -17.0652    3.4379 C   0  0  0  0  0  0  0  0  0  0  0  0
   20.3394  -16.6368    4.2627 C   0  0  0  0  0  0  0  0  0  0  0  0
   20.6787  -17.2156    5.2851 O   0  0  0  0  0  0  0  0  0  0  0  0
   20.9796  -15.5288    3.7606 N   0  0  0  0  0  0  0  0  0  0  0  0
   22.2134  -14.9814    4.3885 C   0  0  0  0  0  0  0  0  0  0  0  0
   22.6556  -13.6378    3.7263 C   0  0  0  0  0  0  0  0  0  0  0  0
   22.9564  -13.0961    5.1363 C   0  0  0  0  0  0  0  0  0  0  0  0
   21.9775  -14.1514    5.6847 C   0  0  0  0  0  0  0  0  0  0  0  0
   23.2633  -15.9918    4.4552 C   0  0  0  0  0  0  0  0  0  0  0  0
   24.1164  -16.7797    4.4657 N   0  0  0  0  0  0  0  0  0  0  0  0
   20.6660  -15.1501    2.8766 H   0  0  0  0  0  0  0  0  0  0  0  0
  1  2  2  0  0  0  0
  2  3  1  0  0  0  0
  3  4  2  0  0  0  0
  3  5  1  0  0  0  0
  5  6  1  0  0  0  0
  5 12  1  0  0  0  0
  6  7  1  0  0  0  0
  6  9  1  0  0  0  0
  6 10  1  0  0  0  0
  7  8  1  0  0  0  0
  8  9  1  0  0  0  0
 10 11  3  0  0  0  0
M  END
>  <CHROM.0>
-45.99638007,168.57113287,-55.71622196,-53.93323416,-57.56164726,-60.34111953
-60.45217887,63.65367409,-166.54074773,160.21733108

>  <CHROM.1>
-5.93326505,-173.84730010,21.51730075,-15.75420927,4.40297744,2.40983797
0.16682383,-3.10006639

>  <Name>
P54000040

>  <RI>
0

>  <Rbt.Current_Directory>
/home/fstefaniak/projects/zuza/docking/adenine/1Y26

>  <Rbt.Executable>
rbdock ($Id: //depot/dev/client3/rdock/2013.1/src/exe/rbdock.cxx#4 $)

>  <Rbt.Library>
libRbt.so (2013.1, Build901 2013/11/27)

>  <Rbt.Parameter_File>
/home/fstefaniak/progs/rDock//data/scripts/dock_solv.prm

>  <Rbt.Receptor>
1y26.prm

>  <SCORE>
-43.42

>  <SCORE.INTER>
-22.4094

>  <SCORE.INTER.CONST>
1

>  <SCORE.INTER.POLAR>
-1.81487

>  <SCORE.INTER.ROT>
2

>  <SCORE.INTER.SOLV>
9.55808

>  <SCORE.INTER.VDW>
-17.0094

>  <SCORE.INTER.norm>
-2.03722

>  <SCORE.INTRA>
0.0997512

>  <SCORE.INTRA.DIHEDRAL>
0.313768

>  <SCORE.INTRA.DIHEDRAL.0>
1.01218

>  <SCORE.INTRA.POLAR>
0

>  <SCORE.INTRA.POLAR.0>
0

>  <SCORE.INTRA.REPUL>
0

>  <SCORE.INTRA.REPUL.0>
0

>  <SCORE.INTRA.SOLV>
0.124785

>  <SCORE.INTRA.SOLV.lig_0>
-11.3427

>  <SCORE.INTRA.VDW>
-0.119525

>  <SCORE.INTRA.VDW.0>
-0.437131

>  <SCORE.INTRA.norm>
0.00906829

>  <SCORE.RESTR>
0

>  <SCORE.RESTR.CAVITY>
0

>  <SCORE.RESTR.norm>
0

>  <SCORE.SYSTEM>
-21.1104

>  <SCORE.SYSTEM.CONST>
0

>  <SCORE.SYSTEM.DIHEDRAL>
6.37995

>  <SCORE.SYSTEM.POLAR>
-3.49071

>  <SCORE.SYSTEM.SOLV>
0.388946

>  <SCORE.SYSTEM.VDW>
-4.69415

>  <SCORE.SYSTEM.norm>
-1.91912

>  <SCORE.heavy>
11

>  <SCORE.norm>
-3.94728

$$$$
P54000040
 OpenBabel12072022103D
libRbt.so/2013.1/901 2013/11/27
 12 12  0  0  0  0  0  0  0  0999 V2000
   19.4620  -18.8898    7.3382 C   0  0  0  0  0  0  0  0  0  0  0  0
   19.2437  -19.3540    6.1015 C   0  0  0  0  0  0  0  0  0  0  0  0
   19.7133  -18.5871    4.9197 C   0  0  0  0  0  0  0  0  0  0  0  0
   19.2698  -18.7622    3.7935 O   0  0  0  0  0  0  0  0  0  0  0  0
   20.6927  -17.6718    5.2240 N   0  0  0  0  0  0  0  0  0  0  0  0
   21.2460  -16.7425    4.2012 C   0  0  0  0  0  0  0  0  0  0  0  0
   21.0805  -15.2480    4.6235 C   0  0  0  0  0  0  0  0  0  0  0  0
   22.5100  -14.9933    4.1100 C   0  0  0  0  0  0  0  0  0  0  0  0
   22.7808  -16.4979    4.2983 C   0  0  0  0  0  0  0  0  0  0  0  0
   20.7279  -17.0519    2.8732 C   0  0  0  0  0  0  0  0  0  0  0  0
   20.2800  -17.2653    1.8232 N   0  0  0  0  0  0  0  0  0  0  0  0
   20.9572  -17.5532    6.1932 H   0  0  0  0  0  0  0  0  0  0  0  0
  1  2  2  0  0  0  0
  2  3  1  0  0  0  0
  3  4  2  0  0  0  0
  3  5  1  0  0  0  0
  5  6  1  0  0  0  0
  5 12  1  0  0  0  0
  6  7  1  0  0  0  0
  6  9  1  0  0  0  0
  6 10  1  0  0  0  0
  7  8  1  0  0  0  0
  8  9  1  0  0  0  0
 10 11  3  0  0  0  0
M  END
>  <CHROM.0>
-50.45056150,-61.90185139,-53.97032686,-53.36889622,-56.56677762,-174.78445360
-60.36025082,-174.71021477,-167.69278751,160.50736631

>  <CHROM.1>
-160.98366506,122.62560657,20.63354145,-17.37195553,4.49371744,-2.51118864
-0.84947892,-1.42602271

>  <Name>
P54000040

>  <RI>
0

>  <Rbt.Current_Directory>
/home/fstefaniak/projects/zuza/docking/adenine/1Y26

>  <Rbt.Executable>
rbdock ($Id: //depot/dev/client3/rdock/2013.1/src/exe/rbdock.cxx#4 $)

>  <Rbt.Library>
libRbt.so (2013.1, Build901 2013/11/27)

>  <Rbt.Parameter_File>
/home/fstefaniak/progs/rDock//data/scripts/dock_solv.prm

>  <Rbt.Receptor>
1y26.prm

>  <SCORE>
-39.9949

>  <SCORE.INTER>
-22.9119

>  <SCORE.INTER.CONST>
1

>  <SCORE.INTER.POLAR>
-1.78402

>  <SCORE.INTER.ROT>
2

>  <SCORE.INTER.SOLV>
10.5449

>  <SCORE.INTER.VDW>
-17.7762

>  <SCORE.INTER.norm>
-2.0829

>  <SCORE.INTRA>
5.38277

>  <SCORE.INTRA.DIHEDRAL>
1.36224

>  <SCORE.INTRA.DIHEDRAL.0>
1.01218

>  <SCORE.INTRA.POLAR>
0

>  <SCORE.INTRA.POLAR.0>
0

>  <SCORE.INTRA.REPUL>
0

>  <SCORE.INTRA.REPUL.0>
0

>  <SCORE.INTRA.SOLV>
0.476178

>  <SCORE.INTRA.SOLV.lig_0>
-11.3427

>  <SCORE.INTRA.VDW>
4.46356

>  <SCORE.INTRA.VDW.0>
-0.437131

>  <SCORE.INTRA.norm>
0.489343

>  <SCORE.RESTR>
0

>  <SCORE.RESTR.CAVITY>
0

>  <SCORE.RESTR.norm>
0

>  <SCORE.SYSTEM>
-22.4657

>  <SCORE.SYSTEM.CONST>
0

>  <SCORE.SYSTEM.DIHEDRAL>
5.47217

>  <SCORE.SYSTEM.POLAR>
-3.43327

>  <SCORE.SYSTEM.SOLV>
0.309143

>  <SCORE.SYSTEM.VDW>
-5.46001

>  <SCORE.SYSTEM.norm>
-2.04234

>  <SCORE.heavy>
11

>  <SCORE.norm>
-3.6359

$$$$
P54000040
 OpenBabel12072022103D
libRbt.so/2013.1/901 2013/11/27
 12 12  0  0  0  0  0  0  0  0999 V2000
   22.8024  -13.1180    4.9938 C   0  0  0  0  0  0  0  0  0  0  0  0
   22.1583  -14.2292    5.3722 C   0  0  0  0  0  0  0  0  0  0  0  0
   21.6337  -15.1745    4.3541 C   0  0  0  0  0  0  0  0  0  0  0  0
   21.8271  -15.0354    3.1546 O   0  0  0  0  0  0  0  0  0  0  0  0
   20.9114  -16.2093    4.8991 N   0  0  0  0  0  0  0  0  0  0  0  0
   20.3644  -17.3128    4.0630 C   0  0  0  0  0  0  0  0  0  0  0  0
   19.7287  -18.4422    4.9345 C   0  0  0  0  0  0  0  0  0  0  0  0
   18.5707  -18.5077    3.9212 C   0  0  0  0  0  0  0  0  0  0  0  0
   18.9299  -17.0677    3.5091 C   0  0  0  0  0  0  0  0  0  0  0  0
   21.3532  -17.7830    3.0991 C   0  0  0  0  0  0  0  0  0  0  0  0
   22.1538  -18.1917    2.3639 N   0  0  0  0  0  0  0  0  0  0  0  0
   20.8521  -16.2776    5.9067 H   0  0  0  0  0  0  0  0  0  0  0  0
  1  2  2  0  0  0  0
  2  3  1  0  0  0  0
  3  4  2  0  0  0  0
  3  5  1  0  0  0  0
  5  6  1  0  0  0  0
  5 12  1  0  0  0  0
  6  7  1  0  0  0  0
  6  9  1  0  0  0  0
  6 10  1  0  0  0  0
  7  8  1  0  0  0  0
  8  9  1  0  0  0  0
 10 11  3  0  0  0  0
M  END
>  <CHROM.0>
-47.70749348,-56.74664105,-55.45697606,-52.97543073,-174.29126481,-59.33764384
-60.40889702,-176.60311790,-166.61699300,160.35009721

>  <CHROM.1>
4.49892552,173.43900668,20.94434905,-16.44395877,4.06115276,0.88459786,0.56964407
0.63220010

>  <Name>
P54000040

>  <RI>
0

>  <Rbt.Current_Directory>
/home/fstefaniak/projects/zuza/docking/adenine/1Y26

>  <Rbt.Executable>
rbdock ($Id: //depot/dev/client3/rdock/2013.1/src/exe/rbdock.cxx#4 $)

>  <Rbt.Library>
libRbt.so (2013.1, Build901 2013/11/27)

>  <Rbt.Parameter_File>
/home/fstefaniak/progs/rDock//data/scripts/dock_solv.prm

>  <Rbt.Receptor>
1y26.prm

>  <SCORE>
-39.9558

>  <SCORE.INTER>
-17.7895

>  <SCORE.INTER.CONST>
1

>  <SCORE.INTER.POLAR>
-1.56284

>  <SCORE.INTER.ROT>
2

>  <SCORE.INTER.SOLV>
9.76798

>  <SCORE.INTER.VDW>
-14.8395

>  <SCORE.INTER.norm>
-1.61722

>  <SCORE.INTRA>
0.436182

>  <SCORE.INTRA.DIHEDRAL>
0.398235

>  <SCORE.INTRA.DIHEDRAL.0>
1.01218

>  <SCORE.INTRA.POLAR>
0

>  <SCORE.INTRA.POLAR.0>
0

>  <SCORE.INTRA.REPUL>
0

>  <SCORE.INTRA.REPUL.0>
0

>  <SCORE.INTRA.SOLV>
0.205611

>  <SCORE.INTRA.SOLV.lig_0>
-11.3427

>  <SCORE.INTRA.VDW>
0.134259

>  <SCORE.INTRA.VDW.0>
-0.437131

>  <SCORE.INTRA.norm>
0.0396529

>  <SCORE.RESTR>
0

>  <SCORE.RESTR.CAVITY>
0

>  <SCORE.RESTR.norm>
0

>  <SCORE.SYSTEM>
-22.6025

>  <SCORE.SYSTEM.CONST>
0

>  <SCORE.SYSTEM.DIHEDRAL>
5.77108

>  <SCORE.SYSTEM.POLAR>
-3.4832

>  <SCORE.SYSTEM.SOLV>
0.291306

>  <SCORE.SYSTEM.VDW>
-5.47845

>  <SCORE.SYSTEM.norm>
-2.05477

>  <SCORE.heavy>
11

>  <SCORE.norm>
-3.63234

$$$$
P54927197
 OpenBabel12072022103D
libRbt.so/2013.1/901 2013/11/27
 14 14  0  0  0  0  0  0  0  0999 V2000
   24.5659  -13.6752    3.3874 C   0  0  0  0  0  0  0  0  0  0  0  0
   24.2167  -14.2789    4.7492 C   0  0  0  0  0  0  0  0  0  0  0  0
   22.7647  -13.9913    5.1491 C   0  0  0  0  0  0  0  0  0  0  0  0
   21.7563  -14.8043    4.3413 C   0  0  0  0  0  0  0  0  0  0  0  0
   22.0641  -16.2326    4.3454 N   0  0  0  0  0  0  0  0  0  0  0  0
   23.4403  -16.5850    3.9868 C   0  0  0  0  0  0  0  0  0  0  0  0
   24.4685  -15.7911    4.7891 C   0  0  0  0  0  0  0  0  0  0  0  0
   20.9942  -17.0883    4.0849 C   0  0  0  0  0  0  0  0  0  0  0  0
   20.6171  -17.9685    4.8585 O   0  0  0  0  0  0  0  0  0  0  0  0
   20.3683  -16.8811    2.8612 N   0  0  0  0  0  0  0  0  0  0  0  0
   18.9924  -16.5174    2.8641 N   0  0  0  0  0  0  0  0  0  0  0  0
   20.6549  -17.5209    2.1257 H   0  0  0  0  0  0  0  0  0  0  0  0
   18.8674  -15.8429    3.6244 H   0  0  0  0  0  0  0  0  0  0  0  0
   18.4779  -17.3448    3.2004 H   0  0  0  0  0  0  0  0  0  0  0  0
  1  2  1  0  0  0  0
  2  3  1  0  0  0  0
  2  7  1  0  0  0  0
  3  4  1  0  0  0  0
  4  5  1  0  0  0  0
  5  6  1  0  0  0  0
  5  8  1  0  0  0  0
  6  7  1  0  0  0  0
  8  9  2  0  0  0  0
  8 10  1  0  0  0  0
 10 11  1  0  0  0  0
 10 12  1  0  0  0  0
 11 13  1  0  0  0  0
 11 14  1  0  0  0  0
M  END
>  <CHROM.0>
-44.25565380,85.23785207,-54.84711306,-51.74244469,-173.18028201,60.92736626
-55.25789239,-50.53439567,-165.77239073,159.47707547

>  <CHROM.1>
-121.70882020,-118.91010405,41.11345387,22.14768068,-15.82899374,4.10807310
0.49003468,-0.34475763,-0.27885717

>  <Name>
P54927197

>  <RI>
0

>  <Rbt.Current_Directory>
/home/fstefaniak/projects/zuza/docking/adenine/1Y26

>  <Rbt.Executable>
rbdock ($Id: //depot/dev/client3/rdock/2013.1/src/exe/rbdock.cxx#4 $)

>  <Rbt.Library>
libRbt.so (2013.1, Build901 2013/11/27)

>  <Rbt.Parameter_File>
/home/fstefaniak/progs/rDock//data/scripts/dock_solv.prm

>  <Rbt.Receptor>
1y26.prm

>  <SCORE>
-52.4781

>  <SCORE.INTER>
-31.8321

>  <SCORE.INTER.CONST>
1

>  <SCORE.INTER.POLAR>
-4.05697

>  <SCORE.INTER.ROT>
3

>  <SCORE.INTER.SOLV>
12.4215

>  <SCORE.INTER.VDW>
-17.4387

>  <SCORE.INTER.norm>
-2.89383

>  <SCORE.INTRA>
-2.14047

>  <SCORE.INTRA.DIHEDRAL>
-1.09951

>  <SCORE.INTRA.DIHEDRAL.0>
2.21904

>  <SCORE.INTRA.POLAR>
0

>  <SCORE.INTRA.POLAR.0>
0

>  <SCORE.INTRA.REPUL>
0

>  <SCORE.INTRA.REPUL.0>
0

>  <SCORE.INTRA.SOLV>
0.147905

>  <SCORE.INTRA.SOLV.lig_0>
-15.9386

>  <SCORE.INTRA.VDW>
-1.66467

>  <SCORE.INTRA.VDW.0>
0.844764

>  <SCORE.INTRA.norm>
-0.194588

>  <SCORE.RESTR>
0.329221

>  <SCORE.RESTR.CAVITY>
0.329221

>  <SCORE.RESTR.norm>
0.0299292

>  <SCORE.SYSTEM>
-18.8348

>  <SCORE.SYSTEM.CONST>
0

>  <SCORE.SYSTEM.DIHEDRAL>
9.64075

>  <SCORE.SYSTEM.POLAR>
-3.62074

>  <SCORE.SYSTEM.SOLV>
0.354432

>  <SCORE.SYSTEM.VDW>
-3.81908

>  <SCORE.SYSTEM.norm>
-1.71225

>  <SCORE.heavy>
11

>  <SCORE.norm>
-4.77074

$$$$
P54927197
 OpenBabel12072022103D
libRbt.so/2013.1/901 2013/11/27
 14 14  0  0  0  0  0  0  0  0999 V2000
   24.6914  -13.4100    3.4566 C   0  0  0  0  0  0  0  0  0  0  0  0
   24.2545  -14.0107    4.7942 C   0  0  0  0  0  0  0  0  0  0  0  0
   22.7526  -13.8268    5.0426 C   0  0  0  0  0  0  0  0  0  0  0  0
   21.8923  -14.7309    4.1633 C   0  0  0  0  0  0  0  0  0  0  0  0
   22.3031  -16.1310    4.2372 N   0  0  0  0  0  0  0  0  0  0  0  0
   23.7305  -16.3844    4.0243 C   0  0  0  0  0  0  0  0  0  0  0  0
   24.6124  -15.4980    4.9004 C   0  0  0  0  0  0  0  0  0  0  0  0
   21.3307  -17.0712    3.8976 C   0  0  0  0  0  0  0  0  0  0  0  0
   20.2805  -17.2260    4.5208 O   0  0  0  0  0  0  0  0  0  0  0  0
   21.6344  -17.8458    2.7841 N   0  0  0  0  0  0  0  0  0  0  0  0
   20.7307  -17.8247    1.6850 N   0  0  0  0  0  0  0  0  0  0  0  0
   22.0503  -18.7481    2.9972 H   0  0  0  0  0  0  0  0  0  0  0  0
   19.7861  -17.8109    2.0803 H   0  0  0  0  0  0  0  0  0  0  0  0
   20.7868  -18.7574    1.2497 H   0  0  0  0  0  0  0  0  0  0  0  0
  1  2  1  0  0  0  0
  2  3  1  0  0  0  0
  2  7  1  0  0  0  0
  3  4  1  0  0  0  0
  4  5  1  0  0  0  0
  5  6  1  0  0  0  0
  5  8  1  0  0  0  0
  6  7  1  0  0  0  0
  8  9  2  0  0  0  0
  8 10  1  0  0  0  0
 10 11  1  0  0  0  0
 10 12  1  0  0  0  0
 11 13  1  0  0  0  0
 11 14  1  0  0  0  0
M  END
>  <CHROM.0>
-50.50509749,76.10997905,-51.04365712,-51.08113855,-57.34694376,-175.85865489
-60.83566092,-52.49331814,-166.77712563,160.91643393

>  <CHROM.1>
-63.15676267,-121.92169165,-39.24143486,22.52266161,-15.86216938,3.91924461
-0.80231907,-0.36941930,-2.41823845

>  <Name>
P54927197

>  <RI>
0

>  <Rbt.Current_Directory>
/home/fstefaniak/projects/zuza/docking/adenine/1Y26

>  <Rbt.Executable>
rbdock ($Id: //depot/dev/client3/rdock/2013.1/src/exe/rbdock.cxx#4 $)

>  <Rbt.Library>
libRbt.so (2013.1, Build901 2013/11/27)

>  <Rbt.Parameter_File>
/home/fstefaniak/progs/rDock//data/scripts/dock_solv.prm

>  <Rbt.Receptor>
1y26.prm

>  <SCORE>
-51.4751

>  <SCORE.INTER>
-30.0401

>  <SCORE.INTER.CONST>
1

>  <SCORE.INTER.POLAR>
-4.19355

>  <SCORE.INTER.ROT>
3

>  <SCORE.INTER.SOLV>
11.6734

>  <SCORE.INTER.VDW>
-15.5394

>  <SCORE.INTER.norm>
-2.73092

>  <SCORE.INTRA>
-1.30826

>  <SCORE.INTRA.DIHEDRAL>
-0.231834

>  <SCORE.INTRA.DIHEDRAL.0>
2.21904

>  <SCORE.INTRA.POLAR>
0

>  <SCORE.INTRA.POLAR.0>
0

>  <SCORE.INTRA.REPUL>
0

>  <SCORE.INTRA.REPUL.0>
0

>  <SCORE.INTRA.SOLV>
0.00726123

>  <SCORE.INTRA.SOLV.lig_0>
-15.9386

>  <SCORE.INTRA.VDW>
-1.19598

>  <SCORE.INTRA.VDW.0>
0.844764

>  <SCORE.INTRA.norm>
-0.118933

>  <SCORE.RESTR>
0.546228

>  <SCORE.RESTR.CAVITY>
0.546228

>  <SCORE.RESTR.norm>
0.0496571

>  <SCORE.SYSTEM>
-20.6729

>  <SCORE.SYSTEM.CONST>
0

>  <SCORE.SYSTEM.DIHEDRAL>
7.08193

>  <SCORE.SYSTEM.POLAR>
-3.52663

>  <SCORE.SYSTEM.SOLV>
0.524393

>  <SCORE.SYSTEM.VDW>
-4.56194

>  <SCORE.SYSTEM.norm>
-1.87935

>  <SCORE.heavy>
11

>  <SCORE.norm>
-4.67955

$$$$
P54927197
 OpenBabel12072022103D
libRbt.so/2013.1/901 2013/11/27
 14 14  0  0  0  0  0  0  0  0999 V2000
   24.1113  -13.5045    3.7888 C   0  0  0  0  0  0  0  0  0  0  0  0
   23.6831  -14.3130    5.0151 C   0  0  0  0  0  0  0  0  0  0  0  0
   22.1606  -14.3160    5.1976 C   0  0  0  0  0  0  0  0  0  0  0  0
   21.4427  -15.1824    4.1659 C   0  0  0  0  0  0  0  0  0  0  0  0
   21.9986  -16.5315    4.0906 N   0  0  0  0  0  0  0  0  0  0  0  0
   23.4529  -16.6093    3.9305 C   0  0  0  0  0  0  0  0  0  0  0  0
   24.1944  -15.7576    4.9582 C   0  0  0  0  0  0  0  0  0  0  0  0
   21.1493  -17.5141    3.5828 C   0  0  0  0  0  0  0  0  0  0  0  0
   20.2127  -18.0032    4.2145 O   0  0  0  0  0  0  0  0  0  0  0  0
   21.4396  -17.9199    2.2854 N   0  0  0  0  0  0  0  0  0  0  0  0
   20.3882  -17.9053    1.3264 N   0  0  0  0  0  0  0  0  0  0  0  0
   22.0857  -18.7015    2.2212 H   0  0  0  0  0  0  0  0  0  0  0  0
   20.0509  -18.8687    1.2442 H   0  0  0  0  0  0  0  0  0  0  0  0
   20.8355  -17.7370    0.4131 H   0  0  0  0  0  0  0  0  0  0  0  0
  1  2  1  0  0  0  0
  2  3  1  0  0  0  0
  2  7  1  0  0  0  0
  3  4  1  0  0  0  0
  4  5  1  0  0  0  0
  5  6  1  0  0  0  0
  5  8  1  0  0  0  0
  6  7  1  0  0  0  0
  8  9  2  0  0  0  0
  8 10  1  0  0  0  0
 10 11  1  0  0  0  0
 10 12  1  0  0  0  0
 11 13  1  0  0  0  0
 11 14  1  0  0  0  0
M  END
>  <CHROM.0>
-46.06240203,-61.47761761,62.76977355,-52.22763222,-174.67297756,-175.54488068
79.11072270,58.18361708,-168.15223108,160.69280383

>  <CHROM.1>
-75.05727331,-127.78546894,-99.88842721,22.17135930,-16.18573020,3.81979925
-0.81697130,-0.56456856,-2.15202925

>  <Name>
P54927197

>  <RI>
0

>  <Rbt.Current_Directory>
/home/fstefaniak/projects/zuza/docking/adenine/1Y26

>  <Rbt.Executable>
rbdock ($Id: //depot/dev/client3/rdock/2013.1/src/exe/rbdock.cxx#4 $)

>  <Rbt.Library>
libRbt.so (2013.1, Build901 2013/11/27)

>  <Rbt.Parameter_File>
/home/fstefaniak/progs/rDock//data/scripts/dock_solv.prm

>  <Rbt.Receptor>
1y26.prm

>  <SCORE>
-50.0071

>  <SCORE.INTER>
-28.2979

>  <SCORE.INTER.CONST>
1

>  <SCORE.INTER.POLAR>
-3.71456

>  <SCORE.INTER.ROT>
3

>  <SCORE.INTER.SOLV>
12.4944

>  <SCORE.INTER.VDW>
-16.2482

>  <SCORE.INTER.norm>
-2.57254

>  <SCORE.INTRA>
-2.00967

>  <SCORE.INTRA.DIHEDRAL>
-0.665757

>  <SCORE.INTRA.DIHEDRAL.0>
2.21904

>  <SCORE.INTRA.POLAR>
0

>  <SCORE.INTRA.POLAR.0>
0

>  <SCORE.INTRA.REPUL>
0

>  <SCORE.INTRA.REPUL.0>
0

>  <SCORE.INTRA.SOLV>
-0.143473

>  <SCORE.INTRA.SOLV.lig_0>
-15.9386

>  <SCORE.INTRA.VDW>
-1.60506

>  <SCORE.INTRA.VDW.0>
0.844764

>  <SCORE.INTRA.norm>
-0.182698

>  <SCORE.RESTR>
0.0103278

>  <SCORE.RESTR.CAVITY>
0.0103278

>  <SCORE.RESTR.norm>
0.000938886

>  <SCORE.SYSTEM>
-19.7098

>  <SCORE.SYSTEM.CONST>
0

>  <SCORE.SYSTEM.DIHEDRAL>
7.35063

>  <SCORE.SYSTEM.POLAR>
-3.84701

>  <SCORE.SYSTEM.SOLV>
-0.0480563

>  <SCORE.SYSTEM.VDW>
-2.7507

>  <SCORE.SYSTEM.norm>
-1.7918

>  <SCORE.heavy>
11

>  <SCORE.norm>
-4.5461

$$$$
P54927198
 OpenBabel12072022103D
libRbt.so/2013.1/901 2013/11/27
 12 12  0  0  0  0  0  0  0  0999 V2000
   19.7452  -17.7757    2.9679 C   0  0  0  0  0  0  0  0  0  0  0  0
   20.5290  -16.9401    3.9710 C   0  0  0  0  0  0  0  0  0  0  0  0
   20.3470  -17.7091    5.2717 C   0  0  0  0  0  0  0  0  0  0  0  0
   19.0496  -18.3490    5.1411 N   0  0  0  0  0  0  0  0  0  0  0  0
   18.5473  -18.2475    3.7798 C   0  0  0  0  0  0  0  0  0  0  0  0
   18.4128  -18.8664    6.2425 C   0  0  0  0  0  0  0  0  0  0  0  0
   18.8971  -18.8352    7.3738 O   0  0  0  0  0  0  0  0  0  0  0  0
   17.1597  -19.4089    5.9987 N   0  0  0  0  0  0  0  0  0  0  0  0
   16.0927  -19.0783    6.8758 N   0  0  0  0  0  0  0  0  0  0  0  0
   17.1223  -20.3202    5.5571 H   0  0  0  0  0  0  0  0  0  0  0  0
   16.2586  -18.1168    7.1886 H   0  0  0  0  0  0  0  0  0  0  0  0
   16.2467  -19.6261    7.7346 H   0  0  0  0  0  0  0  0  0  0  0  0
  1  2  1  0  0  0  0
  1  5  1  0  0  0  0
  2  3  1  0  0  0  0
  3  4  1  0  0  0  0
  4  5  1  0  0  0  0
  4  6  1  0  0  0  0
  6  7  2  0  0  0  0
  6  8  1  0  0  0  0
  8  9  1  0  0  0  0
  8 10  1  0  0  0  0
  9 11  1  0  0  0  0
  9 12  1  0  0  0  0
M  END
>  <CHROM.0>
-166.60402138,58.64383156,-55.21012643,-50.79888205,-175.13160193,-177.06792126
-58.75319218,-52.08587455,-167.78575469,160.56421349

>  <CHROM.1>
-134.03180890,33.23814888,18.70975259,-18.37911588,5.34396045,0.80121632
-0.36198121,-1.40311652

>  <Name>
P54927198

>  <RI>
0

>  <Rbt.Current_Directory>
/home/fstefaniak/projects/zuza/docking/adenine/1Y26

>  <Rbt.Executable>
rbdock ($Id: //depot/dev/client3/rdock/2013.1/src/exe/rbdock.cxx#4 $)

>  <Rbt.Library>
libRbt.so (2013.1, Build901 2013/11/27)

>  <Rbt.Parameter_File>
/home/fstefaniak/progs/rDock//data/scripts/dock_solv.prm

>  <Rbt.Receptor>
1y26.prm

>  <SCORE>
-57.8334

>  <SCORE.INTER>
-36.8313

>  <SCORE.INTER.CONST>
1

>  <SCORE.INTER.POLAR>
-4.98265

>  <SCORE.INTER.ROT>
2

>  <SCORE.INTER.SOLV>
13.0002

>  <SCORE.INTER.VDW>
-17.2121

>  <SCORE.INTER.norm>
-4.09236

>  <SCORE.INTRA>
-1.04027

>  <SCORE.INTRA.DIHEDRAL>
-0.91557

>  <SCORE.INTRA.DIHEDRAL.0>
1.66949

>  <SCORE.INTRA.POLAR>
0

>  <SCORE.INTRA.POLAR.0>
0

>  <SCORE.INTRA.REPUL>
0

>  <SCORE.INTRA.REPUL.0>
0

>  <SCORE.INTRA.SOLV>
0.0362507

>  <SCORE.INTRA.SOLV.lig_0>
-15.2558

>  <SCORE.INTRA.VDW>
-0.60061

>  <SCORE.INTRA.VDW.0>
0.11491

>  <SCORE.INTRA.norm>
-0.115586

>  <SCORE.RESTR>
0

>  <SCORE.RESTR.CAVITY>
0

>  <SCORE.RESTR.norm>
0

>  <SCORE.SYSTEM>
-19.9619

>  <SCORE.SYSTEM.CONST>
0

>  <SCORE.SYSTEM.DIHEDRAL>
6.10051

>  <SCORE.SYSTEM.POLAR>
-3.27493

>  <SCORE.SYSTEM.SOLV>
0.351993

>  <SCORE.SYSTEM.VDW>
-4.54233

>  <SCORE.SYSTEM.norm>
-2.21799

>  <SCORE.heavy>
9

>  <SCORE.norm>
-6.42593

$$$$
P54927198
 OpenBabel12072022103D
libRbt.so/2013.1/901 2013/11/27
 12 12  0  0  0  0  0  0  0  0999 V2000
   18.6585  -18.9572    6.5995 C   0  0  0  0  0  0  0  0  0  0  0  0
   20.0515  -18.3458    6.5354 C   0  0  0  0  0  0  0  0  0  0  0  0
   19.9801  -17.4627    5.2980 C   0  0  0  0  0  0  0  0  0  0  0  0
   19.0233  -18.1256    4.4291 N   0  0  0  0  0  0  0  0  0  0  0  0
   18.3189  -19.1856    5.1334 C   0  0  0  0  0  0  0  0  0  0  0  0
   18.9400  -17.7914    3.0995 C   0  0  0  0  0  0  0  0  0  0  0  0
   19.6403  -16.9218    2.5812 O   0  0  0  0  0  0  0  0  0  0  0  0
   18.0227  -18.5263    2.3629 N   0  0  0  0  0  0  0  0  0  0  0  0
   18.3743  -18.9314    1.0479 N   0  0  0  0  0  0  0  0  0  0  0  0
   17.0391  -18.3616    2.5425 H   0  0  0  0  0  0  0  0  0  0  0  0
   18.3451  -18.0892    0.4650 H   0  0  0  0  0  0  0  0  0  0  0  0
   17.5776  -19.4802    0.6938 H   0  0  0  0  0  0  0  0  0  0  0  0
  1  2  1  0  0  0  0
  1  5  1  0  0  0  0
  2  3  1  0  0  0  0
  3  4  1  0  0  0  0
  4  5  1  0  0  0  0
  4  6  1  0  0  0  0
  6  7  2  0  0  0  0
  6  8  1  0  0  0  0
  8  9  1  0  0  0  0
  8 10  1  0  0  0  0
  9 11  1  0  0  0  0
  9 12  1  0  0  0  0
M  END
>  <CHROM.0>
-52.65145173,-62.73055070,-57.26279162,-53.32657272,-57.77725321,-62.26223620
-57.59444507,-52.81320811,-167.48364592,160.44317140

>  <CHROM.1>
-139.96050529,-72.62426462,18.98048804,-18.24571978,4.04629103,1.29970282
0.82373888,1.81476182

>  <Name>
P54927198

>  <RI>
0

>  <Rbt.Current_Directory>
/home/fstefaniak/projects/zuza/docking/adenine/1Y26

>  <Rbt.Executable>
rbdock ($Id: //depot/dev/client3/rdock/2013.1/src/exe/rbdock.cxx#4 $)

>  <Rbt.Library>
libRbt.so (2013.1, Build901 2013/11/27)

>  <Rbt.Parameter_File>
/home/fstefaniak/progs/rDock//data/scripts/dock_solv.prm

>  <Rbt.Receptor>
1y26.prm

>  <SCORE>
-57.6981

>  <SCORE.INTER>
-34.2

>  <SCORE.INTER.CONST>
1

>  <SCORE.INTER.POLAR>
-4.33935

>  <SCORE.INTER.ROT>
2

>  <SCORE.INTER.SOLV>
13.1355

>  <SCORE.INTER.VDW>
-17.6474

>  <SCORE.INTER.norm>
-3.8

>  <SCORE.INTRA>
-1.21235

>  <SCORE.INTRA.DIHEDRAL>
-0.900022

>  <SCORE.INTRA.DIHEDRAL.0>
1.66949

>  <SCORE.INTRA.POLAR>
0

>  <SCORE.INTRA.POLAR.0>
0

>  <SCORE.INTRA.REPUL>
0

>  <SCORE.INTRA.REPUL.0>
0

>  <SCORE.INTRA.SOLV>
-0.140569

>  <SCORE.INTRA.SOLV.lig_0>
-15.2558

>  <SCORE.INTRA.VDW>
-0.692051

>  <SCORE.INTRA.VDW.0>
0.11491

>  <SCORE.INTRA.norm>
-0.134705

>  <SCORE.RESTR>
0

>  <SCORE.RESTR.CAVITY>
0

>  <SCORE.RESTR.norm>
0

>  <SCORE.SYSTEM>
-22.2857

>  <SCORE.SYSTEM.CONST>
0

>  <SCORE.SYSTEM.DIHEDRAL>
5.21872

>  <SCORE.SYSTEM.POLAR>
-3.40692

>  <SCORE.SYSTEM.SOLV>
0.652428

>  <SCORE.SYSTEM.VDW>
-5.45779

>  <SCORE.SYSTEM.norm>
-2.47619

>  <SCORE.heavy>
9

>  <SCORE.norm>
-6.4109

$$$$
P54927198
 OpenBabel12072022103D
libRbt.so/2013.1/901 2013/11/27
 12 12  0  0  0  0  0  0  0  0999 V2000
   18.6299  -18.9257    6.6040 C   0  0  0  0  0  0  0  0  0  0  0  0
   20.0322  -18.3352    6.5455 C   0  0  0  0  0  0  0  0  0  0  0  0
   19.9852  -17.4673    5.2963 C   0  0  0  0  0  0  0  0  0  0  0  0
   19.0271  -18.1275    4.4268 N   0  0  0  0  0  0  0  0  0  0  0  0
   18.3009  -19.1681    5.1378 C   0  0  0  0  0  0  0  0  0  0  0  0
   18.9611  -17.8093    3.0924 C   0  0  0  0  0  0  0  0  0  0  0  0
   19.6787  -16.9565    2.5697 O   0  0  0  0  0  0  0  0  0  0  0  0
   18.0402  -18.5404    2.3565 N   0  0  0  0  0  0  0  0  0  0  0  0
   18.3963  -18.9631    1.0482 N   0  0  0  0  0  0  0  0  0  0  0  0
   17.0574  -18.3620    2.5271 H   0  0  0  0  0  0  0  0  0  0  0  0
   18.4249  -18.1202    0.4663 H   0  0  0  0  0  0  0  0  0  0  0  0
   17.5785  -19.4675    0.6768 H   0  0  0  0  0  0  0  0  0  0  0  0
  1  2  1  0  0  0  0
  1  5  1  0  0  0  0
  2  3  1  0  0  0  0
  3  4  1  0  0  0  0
  4  5  1  0  0  0  0
  4  6  1  0  0  0  0
  6  7  2  0  0  0  0
  6  8  1  0  0  0  0
  8  9  1  0  0  0  0
  8 10  1  0  0  0  0
  9 11  1  0  0  0  0
  9 12  1  0  0  0  0
M  END
>  <CHROM.0>
-50.77575029,-61.02738313,-50.42607611,-51.12689688,-56.60677844,-176.50037972
-59.26345883,-52.34462043,-167.92461034,159.79732088

>  <CHROM.1>
-140.19386939,-70.01077495,18.98605541,-18.25103812,4.04494128,1.31845746
0.81066450,1.78882078

>  <Name>
P54927198

>  <RI>
0

>  <Rbt.Current_Directory>
/home/fstefaniak/projects/zuza/docking/adenine/1Y26

>  <Rbt.Executable>
rbdock ($Id: //depot/dev/client3/rdock/2013.1/src/exe/rbdock.cxx#4 $)

>  <Rbt.Library>
libRbt.so (2013.1, Build901 2013/11/27)

>  <Rbt.Parameter_File>
/home/fstefaniak/progs/rDock//data/scripts/dock_solv.prm

>  <Rbt.Receptor>
1y26.prm

>  <SCORE>
-57.326

>  <SCORE.INTER>
-34.1615

>  <SCORE.INTER.CONST>
1

>  <SCORE.INTER.POLAR>
-4.33491

>  <SCORE.INTER.ROT>
2

>  <SCORE.INTER.SOLV>
13.0922

>  <SCORE.INTER.VDW>
-17.6221

>  <SCORE.INTER.norm>
-3.79573

>  <SCORE.INTRA>
-1.18518

>  <SCORE.INTRA.DIHEDRAL>
-0.865815

>  <SCORE.INTRA.DIHEDRAL.0>
1.66949

>  <SCORE.INTRA.POLAR>
0

>  <SCORE.INTRA.POLAR.0>
0

>  <SCORE.INTRA.REPUL>
0

>  <SCORE.INTRA.REPUL.0>
0

>  <SCORE.INTRA.SOLV>
-0.135952

>  <SCORE.INTRA.SOLV.lig_0>
-15.2558

>  <SCORE.INTRA.VDW>
-0.684295

>  <SCORE.INTRA.VDW.0>
0.11491

>  <SCORE.INTRA.norm>
-0.131687

>  <SCORE.RESTR>
0

>  <SCORE.RESTR.CAVITY>
0

>  <SCORE.RESTR.norm>
0

>  <SCORE.SYSTEM>
-21.9793

>  <SCORE.SYSTEM.CONST>
0

>  <SCORE.SYSTEM.DIHEDRAL>
5.98805

>  <SCORE.SYSTEM.POLAR>
-3.5326

>  <SCORE.SYSTEM.SOLV>
0.532153

>  <SCORE.SYSTEM.VDW>
-5.05092

>  <SCORE.SYSTEM.norm>
-2.44214

>  <SCORE.heavy>
9

>  <SCORE.norm>
-6.36955

$$$$
P54927225
 OpenBabel12072022103D
libRbt.so/2013.1/901 2013/11/27
 14 14  0  0  0  0  0  0  0  0999 V2000
   22.2951  -13.5619    6.2895 C   0  0  0  0  0  0  0  0  0  0  0  0
   22.6805  -13.6797    4.8120 C   0  0  1  0  0  0  0  0  0  0  0  0
   24.0744  -14.2953    4.6304 C   0  0  0  0  0  0  0  0  0  0  0  0
   24.0872  -15.7883    4.9467 C   0  0  0  0  0  0  0  0  0  0  0  0
   23.0054  -16.5348    4.1731 C   0  0  0  0  0  0  0  0  0  0  0  0
   21.6905  -15.9184    4.3322 N   0  0  0  0  0  0  0  0  0  0  0  0
   21.6312  -14.4841    4.0347 C   0  0  0  0  0  0  0  0  0  0  0  0
   20.5888  -16.7563    4.1738 C   0  0  0  0  0  0  0  0  0  0  0  0
   20.4300  -17.8050    4.7983 O   0  0  0  0  0  0  0  0  0  0  0  0
   19.6514  -16.3140    3.2474 N   0  0  0  0  0  0  0  0  0  0  0  0
   19.1219  -17.2579    2.3243 N   0  0  0  0  0  0  0  0  0  0  0  0
   18.9940  -15.6273    3.6063 H   0  0  0  0  0  0  0  0  0  0  0  0
   18.4517  -17.8337    2.8550 H   0  0  0  0  0  0  0  0  0  0  0  0
   19.8765  -17.9182    2.1150 H   0  0  0  0  0  0  0  0  0  0  0  0
  2  1  1  1  0  0  0
  2  3  1  0  0  0  0
  2  7  1  0  0  0  0
  3  4  1  0  0  0  0
  4  5  1  0  0  0  0
  5  6  1  0  0  0  0
  6  7  1  0  0  0  0
  6  8  1  0  0  0  0
  8  9  2  0  0  0  0
  8 10  1  0  0  0  0
 10 11  1  0  0  0  0
 10 12  1  0  0  0  0
 11 13  1  0  0  0  0
 11 14  1  0  0  0  0
M  END
>  <CHROM.0>
-49.57804805,-65.40185322,-54.99848086,-52.30625103,-56.22766637,-55.68859124
-58.52192982,-51.98317925,-166.61363575,161.69837308

>  <CHROM.1>
54.08188661,135.37646705,75.35257713,21.69619758,-15.71208882,4.33126950
0.70337912,-0.29695149,0.23517230

>  <Name>
P54927225

>  <RI>
0

>  <Rbt.Current_Directory>
/home/fstefaniak/projects/zuza/docking/adenine/1Y26

>  <Rbt.Executable>
rbdock ($Id: //depot/dev/client3/rdock/2013.1/src/exe/rbdock.cxx#4 $)

>  <Rbt.Library>
libRbt.so (2013.1, Build901 2013/11/27)

>  <Rbt.Parameter_File>
/home/fstefaniak/progs/rDock//data/scripts/dock_solv.prm

>  <Rbt.Receptor>
1y26.prm

>  <SCORE>
-49.1691

>  <SCORE.INTER>
-25.6661

>  <SCORE.INTER.CONST>
1

>  <SCORE.INTER.POLAR>
-3.04053

>  <SCORE.INTER.ROT>
3

>  <SCORE.INTER.SOLV>
12.8392

>  <SCORE.INTER.VDW>
-16.8554

>  <SCORE.INTER.norm>
-2.33328

>  <SCORE.INTRA>
-1.33604

>  <SCORE.INTRA.DIHEDRAL>
-0.97993

>  <SCORE.INTRA.DIHEDRAL.0>
2.17921

>  <SCORE.INTRA.POLAR>
0

>  <SCORE.INTRA.POLAR.0>
0

>  <SCORE.INTRA.REPUL>
0

>  <SCORE.INTRA.REPUL.0>
0

>  <SCORE.INTRA.SOLV>
-0.00384287

>  <SCORE.INTRA.SOLV.lig_0>
-15.7169

>  <SCORE.INTRA.VDW>
-0.844151

>  <SCORE.INTRA.VDW.0>
0.6324

>  <SCORE.INTRA.norm>
-0.121458

>  <SCORE.RESTR>
0

>  <SCORE.RESTR.CAVITY>
0

>  <SCORE.RESTR.norm>
0

>  <SCORE.SYSTEM>
-22.167

>  <SCORE.SYSTEM.CONST>
0

>  <SCORE.SYSTEM.DIHEDRAL>
5.78388

>  <SCORE.SYSTEM.POLAR>
-3.47711

>  <SCORE.SYSTEM.SOLV>
0.671334

>  <SCORE.SYSTEM.VDW>
-5.33938

>  <SCORE.SYSTEM.norm>
-2.01518

>  <SCORE.heavy>
11

>  <SCORE.norm>
-4.46992

$$$$
P54927225
 OpenBabel12072022103D
libRbt.so/2013.1/901 2013/11/27
 14 14  0  0  0  0  0  0  0  0999 V2000
   22.2878  -13.6697    6.1676 C   0  0  0  0  0  0  0  0  0  0  0  0
   22.8334  -13.7139    4.7372 C   0  0  1  0  0  0  0  0  0  0  0  0
   24.2802  -14.2233    4.6911 C   0  0  0  0  0  0  0  0  0  0  0  0
   24.3699  -15.7207    4.9719 C   0  0  0  0  0  0  0  0  0  0  0  0
   23.4331  -16.5176    4.0701 C   0  0  0  0  0  0  0  0  0  0  0  0
   22.0669  -16.0012    4.1024 N   0  0  0  0  0  0  0  0  0  0  0  0
   21.9334  -14.5662    3.8338 C   0  0  0  0  0  0  0  0  0  0  0  0
   21.0527  -16.9098    3.8079 C   0  0  0  0  0  0  0  0  0  0  0  0
   20.4277  -16.9192    2.7475 O   0  0  0  0  0  0  0  0  0  0  0  0
   20.7928  -17.8353    4.8121 N   0  0  0  0  0  0  0  0  0  0  0  0
   19.7894  -17.5225    5.7707 N   0  0  0  0  0  0  0  0  0  0  0  0
   20.8342  -18.8057    4.5135 H   0  0  0  0  0  0  0  0  0  0  0  0
   18.9249  -17.9759    5.4399 H   0  0  0  0  0  0  0  0  0  0  0  0
   19.5815  -16.5254    5.6626 H   0  0  0  0  0  0  0  0  0  0  0  0
  2  1  1  1  0  0  0
  2  3  1  0  0  0  0
  2  7  1  0  0  0  0
  3  4  1  0  0  0  0
  4  5  1  0  0  0  0
  5  6  1  0  0  0  0
  6  7  1  0  0  0  0
  6  8  1  0  0  0  0
  8  9  2  0  0  0  0
  8 10  1  0  0  0  0
 10 11  1  0  0  0  0
 10 12  1  0  0  0  0
 11 13  1  0  0  0  0
 11 14  1  0  0  0  0
M  END
>  <CHROM.0>
-47.34467906,166.99819566,-56.96500936,-53.45303457,-179.01393535,-61.97010786
-56.08170510,-53.85390252,-167.17169461,160.29731738

>  <CHROM.1>
-106.00361472,92.17531557,95.84817916,22.05971572,-15.81900490,4.52842362
0.68509234,0.43383973,0.66575010

>  <Name>
P54927225

>  <RI>
0

>  <Rbt.Current_Directory>
/home/fstefaniak/projects/zuza/docking/adenine/1Y26

>  <Rbt.Executable>
rbdock ($Id: //depot/dev/client3/rdock/2013.1/src/exe/rbdock.cxx#4 $)

>  <Rbt.Library>
libRbt.so (2013.1, Build901 2013/11/27)

>  <Rbt.Parameter_File>
/home/fstefaniak/progs/rDock//data/scripts/dock_solv.prm

>  <Rbt.Receptor>
1y26.prm

>  <SCORE>
-46.9092

>  <SCORE.INTER>
-23.6394

>  <SCORE.INTER.CONST>
1

>  <SCORE.INTER.POLAR>
-3.0865

>  <SCORE.INTER.ROT>
3

>  <SCORE.INTER.SOLV>
12.5573

>  <SCORE.INTER.VDW>
-15.257

>  <SCORE.INTER.norm>
-2.14904

>  <SCORE.INTRA>
-1.63238

>  <SCORE.INTRA.DIHEDRAL>
-0.406545

>  <SCORE.INTRA.DIHEDRAL.0>
2.17921

>  <SCORE.INTRA.POLAR>
0

>  <SCORE.INTRA.POLAR.0>
0

>  <SCORE.INTRA.REPUL>
0

>  <SCORE.INTRA.REPUL.0>
0

>  <SCORE.INTRA.SOLV>
0.0545556

>  <SCORE.INTRA.SOLV.lig_0>
-15.7169

>  <SCORE.INTRA.VDW>
-1.45639

>  <SCORE.INTRA.VDW.0>
0.6324

>  <SCORE.INTRA.norm>
-0.148398

>  <SCORE.RESTR>
0

>  <SCORE.RESTR.CAVITY>
0

>  <SCORE.RESTR.norm>
0

>  <SCORE.SYSTEM>
-21.6374

>  <SCORE.SYSTEM.CONST>
0

>  <SCORE.SYSTEM.DIHEDRAL>
6.47077

>  <SCORE.SYSTEM.POLAR>
-3.48591

>  <SCORE.SYSTEM.SOLV>
0.463723

>  <SCORE.SYSTEM.VDW>
-5.11673

>  <SCORE.SYSTEM.norm>
-1.96704

>  <SCORE.heavy>
11

>  <SCORE.norm>
-4.26447

$$$$
P54927225
 OpenBabel12072022103D
libRbt.so/2013.1/901 2013/11/27
 14 14  0  0  0  0  0  0  0  0999 V2000
   22.3282  -13.5375    6.2615 C   0  0  0  0  0  0  0  0  0  0  0  0
   22.6742  -13.6588    4.7745 C   0  0  1  0  0  0  0  0  0  0  0  0
   24.0649  -14.2701    4.5575 C   0  0  0  0  0  0  0  0  0  0  0  0
   24.0916  -15.7620    4.8781 C   0  0  0  0  0  0  0  0  0  0  0  0
   22.9921  -16.5148    4.1363 C   0  0  0  0  0  0  0  0  0  0  0  0
   21.6797  -15.9026    4.3287 N   0  0  0  0  0  0  0  0  0  0  0  0
   21.6072  -14.4695    4.0282 C   0  0  0  0  0  0  0  0  0  0  0  0
   20.5772  -16.7449    4.2026 C   0  0  0  0  0  0  0  0  0  0  0  0
   20.4110  -17.7616    4.8762 O   0  0  0  0  0  0  0  0  0  0  0  0
   19.6482  -16.3462    3.2484 N   0  0  0  0  0  0  0  0  0  0  0  0
   19.2102  -17.3065    2.2947 N   0  0  0  0  0  0  0  0  0  0  0  0
   18.9378  -15.7059    3.5919 H   0  0  0  0  0  0  0  0  0  0  0  0
   18.1869  -17.2015    2.2305 H   0  0  0  0  0  0  0  0  0  0  0  0
   19.3196  -18.2258    2.7330 H   0  0  0  0  0  0  0  0  0  0  0  0
  2  1  1  1  0  0  0
  2  3  1  0  0  0  0
  2  7  1  0  0  0  0
  3  4  1  0  0  0  0
  4  5  1  0  0  0  0
  5  6  1  0  0  0  0
  6  7  1  0  0  0  0
  6  8  1  0  0  0  0
  8  9  2  0  0  0  0
  8 10  1  0  0  0  0
 10 11  1  0  0  0  0
 10 12  1  0  0  0  0
 11 13  1  0  0  0  0
 11 14  1  0  0  0  0
M  END
>  <CHROM.0>
-46.97957218,-66.22574463,-54.38955295,61.05011034,-174.36256386,-57.91871084
-57.09819317,-176.02871457,-167.42291016,160.81185702

>  <CHROM.1>
57.37481200,130.03768684,135.50864581,21.69324040,-15.69927405,4.31611300
0.70872553,-0.28267045,0.23460390

>  <Name>
P54927225

>  <RI>
0

>  <Rbt.Current_Directory>
/home/fstefaniak/projects/zuza/docking/adenine/1Y26

>  <Rbt.Executable>
rbdock ($Id: //depot/dev/client3/rdock/2013.1/src/exe/rbdock.cxx#4 $)

>  <Rbt.Library>
libRbt.so (2013.1, Build901 2013/11/27)

>  <Rbt.Parameter_File>
/home/fstefaniak/progs/rDock//data/scripts/dock_solv.prm

>  <Rbt.Receptor>
1y26.prm

>  <SCORE>
-46.1242

>  <SCORE.INTER>
-25.5298

>  <SCORE.INTER.CONST>
1

>  <SCORE.INTER.POLAR>
-3.04485

>  <SCORE.INTER.ROT>
3

>  <SCORE.INTER.SOLV>
12.8741

>  <SCORE.INTER.VDW>
-16.7617

>  <SCORE.INTER.norm>
-2.32089

>  <SCORE.INTRA>
-0.821639

>  <SCORE.INTRA.DIHEDRAL>
0.143363

>  <SCORE.INTRA.DIHEDRAL.0>
2.17921

>  <SCORE.INTRA.POLAR>
0

>  <SCORE.INTRA.POLAR.0>
0

>  <SCORE.INTRA.REPUL>
0

>  <SCORE.INTRA.REPUL.0>
0

>  <SCORE.INTRA.SOLV>
-0.0775784

>  <SCORE.INTRA.SOLV.lig_0>
-15.7169

>  <SCORE.INTRA.VDW>
-0.854531

>  <SCORE.INTRA.VDW.0>
0.6324

>  <SCORE.INTRA.norm>
-0.0746944

>  <SCORE.RESTR>
0

>  <SCORE.RESTR.CAVITY>
0

>  <SCORE.RESTR.norm>
0

>  <SCORE.SYSTEM>
-19.7729

>  <SCORE.SYSTEM.CONST>
0

>  <SCORE.SYSTEM.DIHEDRAL>
5.73879

>  <SCORE.SYSTEM.POLAR>
-2.93945

>  <SCORE.SYSTEM.SOLV>
0.235295

>  <SCORE.SYSTEM.VDW>
-5.3751

>  <SCORE.SYSTEM.norm>
-1.79753

>  <SCORE.heavy>
11

>  <SCORE.norm>
-4.19311

$$$$
P55398921
 OpenBabel12072022103D
libRbt.so/2013.1/901 2013/11/27
 16 16  0  0  0  0  0  0  0  0999 V2000
   19.1488  -19.0422    6.6096 C   0  0  0  0  0  0  0  0  0  0  0  0
   19.2034  -18.1828    5.3479 C   0  0  2  0  0  0  0  0  0  0  0  0
   19.1195  -19.0589    4.0913 C   0  0  0  0  0  0  0  0  0  0  0  0
   19.2313  -18.2293    2.8146 C   0  0  0  0  0  0  0  0  0  0  0  0
   20.4907  -17.3674    2.8073 C   0  0  0  0  0  0  0  0  0  0  0  0
   20.5713  -16.4801    4.0562 C   0  0  1  0  0  0  0  0  0  0  0  0
   20.4758  -17.3251    5.3319 C   0  0  0  0  0  0  0  0  0  0  0  0
   21.7993  -15.6977    4.0682 N   0  0  0  0  0  0  0  0  0  0  0  0
   23.0285  -16.3117    4.0960 C   0  0  0  0  0  0  0  0  0  0  0  0
   23.3616  -17.2494    3.3806 O   0  0  0  0  0  0  0  0  0  0  0  0
   23.8655  -15.7321    5.0418 N   0  0  0  0  0  0  0  0  0  0  0  0
   25.1025  -16.3653    5.3260 N   0  0  0  0  0  0  0  0  0  0  0  0
   21.7636  -14.7926    4.5147 H   0  0  0  0  0  0  0  0  0  0  0  0
   23.8513  -14.7165    5.0794 H   0  0  0  0  0  0  0  0  0  0  0  0
   25.4136  -16.0026    6.2383 H   0  0  0  0  0  0  0  0  0  0  0  0
   25.7920  -15.9730    4.6773 H   0  0  0  0  0  0  0  0  0  0  0  0
  2  3  1  0  0  0  0
  2  7  1  0  0  0  0
  2  1  1  1  0  0  0
  3  4  1  0  0  0  0
  4  5  1  0  0  0  0
  5  6  1  0  0  0  0
  6  7  1  0  0  0  0
  6  8  1  1  0  0  0
  8  9  1  0  0  0  0
  8 13  1  0  0  0  0
  9 10  2  0  0  0  0
  9 11  1  0  0  0  0
 11 12  1  0  0  0  0
 11 14  1  0  0  0  0
 12 15  1  0  0  0  0
 12 16  1  0  0  0  0
M  END
>  <CHROM.0>
-46.26231076,49.69889426,-54.93280662,-52.63801228,-173.33300512,-65.42661216
-62.15336961,-172.24012977,-167.15352074,160.47961676

>  <CHROM.1>
-61.53328658,46.74479836,171.39949614,-160.84041072,21.35844653,-17.23029102
4.43230326,-3.04940216,-0.44190863,-1.36582036

>  <Name>
P55398921

>  <RI>
0

>  <Rbt.Current_Directory>
/home/fstefaniak/projects/zuza/docking/adenine/1Y26

>  <Rbt.Executable>
rbdock ($Id: //depot/dev/client3/rdock/2013.1/src/exe/rbdock.cxx#4 $)

>  <Rbt.Library>
libRbt.so (2013.1, Build901 2013/11/27)

>  <Rbt.Parameter_File>
/home/fstefaniak/progs/rDock//data/scripts/dock_solv.prm

>  <Rbt.Receptor>
1y26.prm

>  <SCORE>
-53.6932

>  <SCORE.INTER>
-31.7038

>  <SCORE.INTER.CONST>
1

>  <SCORE.INTER.POLAR>
-3.55695

>  <SCORE.INTER.ROT>
4

>  <SCORE.INTER.SOLV>
15.1964

>  <SCORE.INTER.VDW>
-20.6115

>  <SCORE.INTER.norm>
-2.64199

>  <SCORE.INTRA>
-0.0849586

>  <SCORE.INTRA.DIHEDRAL>
-0.57338

>  <SCORE.INTRA.DIHEDRAL.0>
2.47612

>  <SCORE.INTRA.POLAR>
0

>  <SCORE.INTRA.POLAR.0>
0

>  <SCORE.INTRA.REPUL>
0

>  <SCORE.INTRA.REPUL.0>
0

>  <SCORE.INTRA.SOLV>
0.285498

>  <SCORE.INTRA.SOLV.lig_0>
-16.4729

>  <SCORE.INTRA.VDW>
0.0589825

>  <SCORE.INTRA.VDW.0>
-0.530937

>  <SCORE.INTRA.norm>
-0.00707988

>  <SCORE.RESTR>
0

>  <SCORE.RESTR.CAVITY>
0

>  <SCORE.RESTR.norm>
0

>  <SCORE.SYSTEM>
-21.9044

>  <SCORE.SYSTEM.CONST>
0

>  <SCORE.SYSTEM.DIHEDRAL>
6.77753

>  <SCORE.SYSTEM.POLAR>
-3.55854

>  <SCORE.SYSTEM.SOLV>
0.349232

>  <SCORE.SYSTEM.VDW>
-5.11671

>  <SCORE.SYSTEM.norm>
-1.82537

>  <SCORE.heavy>
12

>  <SCORE.norm>
-4.47443

$$$$
P55398921
 OpenBabel12072022103D
libRbt.so/2013.1/901 2013/11/27
 16 16  0  0  0  0  0  0  0  0999 V2000
   24.4844  -17.2730    4.2475 C   0  0  0  0  0  0  0  0  0  0  0  0
   23.3598  -16.3561    3.7700 C   0  0  2  0  0  0  0  0  0  0  0  0
   23.3771  -15.0301    4.5415 C   0  0  0  0  0  0  0  0  0  0  0  0
   22.2262  -14.1179    4.1247 C   0  0  0  0  0  0  0  0  0  0  0  0
   20.8751  -14.8161    4.2512 C   0  0  0  0  0  0  0  0  0  0  0  0
   20.8498  -16.1362    3.4699 C   0  0  1  0  0  0  0  0  0  0  0  0
   21.9988  -17.0513    3.9090 C   0  0  0  0  0  0  0  0  0  0  0  0
   19.5761  -16.8221    3.6357 N   0  0  0  0  0  0  0  0  0  0  0  0
   19.2820  -17.9521    2.9110 C   0  0  0  0  0  0  0  0  0  0  0  0
   18.7916  -18.9755    3.3739 O   0  0  0  0  0  0  0  0  0  0  0  0
   19.6058  -17.7946    1.5688 N   0  0  0  0  0  0  0  0  0  0  0  0
   20.9360  -18.0681    1.1594 N   0  0  0  0  0  0  0  0  0  0  0  0
   18.7783  -16.2563    3.8873 H   0  0  0  0  0  0  0  0  0  0  0  0
   18.8673  -18.0204    0.9080 H   0  0  0  0  0  0  0  0  0  0  0  0
   21.0681  -17.5899    0.2569 H   0  0  0  0  0  0  0  0  0  0  0  0
   20.9682  -19.0588    0.8997 H   0  0  0  0  0  0  0  0  0  0  0  0
  2  3  1  0  0  0  0
  2  7  1  0  0  0  0
  2  1  1  1  0  0  0
  3  4  1  0  0  0  0
  4  5  1  0  0  0  0
  5  6  1  0  0  0  0
  6  7  1  0  0  0  0
  6  8  1  1  0  0  0
  8  9  1  0  0  0  0
  8 13  1  0  0  0  0
  9 10  2  0  0  0  0
  9 11  1  0  0  0  0
 11 12  1  0  0  0  0
 11 14  1  0  0  0  0
 12 15  1  0  0  0  0
 12 16  1  0  0  0  0
M  END
>  <CHROM.0>
63.16721784,-173.91799929,-52.38212693,-48.42091148,-52.61686625,-51.14064392
-49.68339677,-49.71580531,-166.49619381,161.37960560

>  <CHROM.1>
173.01269572,134.38334554,85.51517669,-160.26708642,21.25264677,-16.74359417
3.37659586,-0.69321441,0.10264043,-2.65491564

>  <Name>
P55398921

>  <RI>
0

>  <Rbt.Current_Directory>
/home/fstefaniak/projects/zuza/docking/adenine/1Y26

>  <Rbt.Executable>
rbdock ($Id: //depot/dev/client3/rdock/2013.1/src/exe/rbdock.cxx#4 $)

>  <Rbt.Library>
libRbt.so (2013.1, Build901 2013/11/27)

>  <Rbt.Parameter_File>
/home/fstefaniak/progs/rDock//data/scripts/dock_solv.prm

>  <Rbt.Receptor>
1y26.prm

>  <SCORE>
-52.297

>  <SCORE.INTER>
-31.3048

>  <SCORE.INTER.CONST>
1

>  <SCORE.INTER.POLAR>
-5.32829

>  <SCORE.INTER.ROT>
4

>  <SCORE.INTER.SOLV>
14.2999

>  <SCORE.INTER.VDW>
-14.1422

>  <SCORE.INTER.norm>
-2.60873

>  <SCORE.INTRA>
-0.0205222

>  <SCORE.INTRA.DIHEDRAL>
-0.358509

>  <SCORE.INTRA.DIHEDRAL.0>
2.47612

>  <SCORE.INTRA.POLAR>
0

>  <SCORE.INTRA.POLAR.0>
0

>  <SCORE.INTRA.REPUL>
0

>  <SCORE.INTRA.REPUL.0>
0

>  <SCORE.INTRA.SOLV>
0.858499

>  <SCORE.INTRA.SOLV.lig_0>
-16.4729

>  <SCORE.INTRA.VDW>
-0.270517

>  <SCORE.INTRA.VDW.0>
-0.530937

>  <SCORE.INTRA.norm>
-0.00171018

>  <SCORE.RESTR>
0

>  <SCORE.RESTR.CAVITY>
0

>  <SCORE.RESTR.norm>
0

>  <SCORE.SYSTEM>
-20.9717

>  <SCORE.SYSTEM.CONST>
0

>  <SCORE.SYSTEM.DIHEDRAL>
7.00618

>  <SCORE.SYSTEM.POLAR>
-3.43064

>  <SCORE.SYSTEM.SOLV>
0.624659

>  <SCORE.SYSTEM.VDW>
-5.08929

>  <SCORE.SYSTEM.norm>
-1.74764

>  <SCORE.heavy>
12

>  <SCORE.norm>
-4.35808

$$$$
P55398921
 OpenBabel12072022103D
libRbt.so/2013.1/901 2013/11/27
 16 16  0  0  0  0  0  0  0  0999 V2000
   18.3265  -18.4497    1.6338 C   0  0  0  0  0  0  0  0  0  0  0  0
   19.2333  -18.5180    2.8612 C   0  0  2  0  0  0  0  0  0  0  0  0
   18.4063  -18.4396    4.1510 C   0  0  0  0  0  0  0  0  0  0  0  0
   19.2936  -18.4464    5.3933 C   0  0  0  0  0  0  0  0  0  0  0  0
   20.3484  -17.3446    5.3424 C   0  0  0  0  0  0  0  0  0  0  0  0
   21.1861  -17.4280    4.0599 C   0  0  1  0  0  0  0  0  0  0  0  0
   20.2863  -17.4025    2.8188 C   0  0  0  0  0  0  0  0  0  0  0  0
   22.1566  -16.3444    3.9933 N   0  0  0  0  0  0  0  0  0  0  0  0
   23.5062  -16.6035    3.9857 C   0  0  0  0  0  0  0  0  0  0  0  0
   24.1658  -16.8637    2.9860 O   0  0  0  0  0  0  0  0  0  0  0  0
   24.0459  -16.5296    5.2641 N   0  0  0  0  0  0  0  0  0  0  0  0
   25.4563  -16.5795    5.4047 N   0  0  0  0  0  0  0  0  0  0  0  0
   21.8929  -15.4644    4.4126 H   0  0  0  0  0  0  0  0  0  0  0  0
   23.5401  -15.9433    5.9225 H   0  0  0  0  0  0  0  0  0  0  0  0
   25.6708  -16.1960    6.3361 H   0  0  0  0  0  0  0  0  0  0  0  0
   25.8423  -15.8717    4.7721 H   0  0  0  0  0  0  0  0  0  0  0  0
  2  3  1  0  0  0  0
  2  7  1  0  0  0  0
  2  1  1  6  0  0  0
  3  4  1  0  0  0  0
  4  5  1  0  0  0  0
  5  6  1  0  0  0  0
  6  7  1  0  0  0  0
  6  8  1  6  0  0  0
  8  9  1  0  0  0  0
  8 13  1  0  0  0  0
  9 10  2  0  0  0  0
  9 11  1  0  0  0  0
 11 12  1  0  0  0  0
 11 14  1  0  0  0  0
 12 15  1  0  0  0  0
 12 16  1  0  0  0  0
M  END
>  <CHROM.0>
-51.18397347,-68.55275389,-55.84341193,-50.19734236,-172.24509689,-56.53256078
-53.86890508,-50.42810114,-167.57877369,160.96228169

>  <CHROM.1>
117.16818852,85.36612916,-171.00879507,161.05009396,21.43707195,-17.37915952
4.00395859,-2.91199153,0.30630948,1.56203281

>  <Name>
P55398921

>  <RI>
0

>  <Rbt.Current_Directory>
/home/fstefaniak/projects/zuza/docking/adenine/1Y26

>  <Rbt.Executable>
rbdock ($Id: //depot/dev/client3/rdock/2013.1/src/exe/rbdock.cxx#4 $)

>  <Rbt.Library>
libRbt.so (2013.1, Build901 2013/11/27)

>  <Rbt.Parameter_File>
/home/fstefaniak/progs/rDock//data/scripts/dock_solv.prm

>  <Rbt.Receptor>
1y26.prm

>  <SCORE>
-50.9244

>  <SCORE.INTER>
-28.9176

>  <SCORE.INTER.CONST>
1

>  <SCORE.INTER.POLAR>
-3.38587

>  <SCORE.INTER.ROT>
4

>  <SCORE.INTER.SOLV>
16.5868

>  <SCORE.INTER.VDW>
-19.7878

>  <SCORE.INTER.norm>
-2.4098

>  <SCORE.INTRA>
-0.0871721

>  <SCORE.INTRA.DIHEDRAL>
0.88577

>  <SCORE.INTRA.DIHEDRAL.0>
2.47612

>  <SCORE.INTRA.POLAR>
0

>  <SCORE.INTRA.POLAR.0>
0

>  <SCORE.INTRA.REPUL>
0

>  <SCORE.INTRA.REPUL.0>
0

>  <SCORE.INTRA.SOLV>
-0.0499028

>  <SCORE.INTRA.SOLV.lig_0>
-16.4729

>  <SCORE.INTRA.VDW>
-0.505106

>  <SCORE.INTRA.VDW.0>
-0.530937

>  <SCORE.INTRA.norm>
-0.00726434

>  <SCORE.RESTR>
0

>  <SCORE.RESTR.CAVITY>
0

>  <SCORE.RESTR.norm>
0

>  <SCORE.SYSTEM>
-21.9195

>  <SCORE.SYSTEM.CONST>
0

>  <SCORE.SYSTEM.DIHEDRAL>
6.43266

>  <SCORE.SYSTEM.POLAR>
-3.51593

>  <SCORE.SYSTEM.SOLV>
0.513422

>  <SCORE.SYSTEM.VDW>
-5.20863

>  <SCORE.SYSTEM.norm>
-1.82663

>  <SCORE.heavy>
12

>  <SCORE.norm>
-4.2437

$$$$
P55709751
 OpenBabel12072022103D
libRbt.so/2013.1/901 2013/11/27
 14 14  0  0  0  0  0  0  0  0999 V2000
   23.9452  -14.5079    4.2361 C   0  0  0  0  0  0  0  0  0  0  0  0
   23.6760  -15.9997    4.0535 C   0  0  0  0  0  0  0  0  0  0  0  0
   24.8181  -16.8291    4.6321 C   0  0  0  0  0  0  0  0  0  0  0  0
   22.4182  -16.3704    4.6821 N   0  0  0  0  0  0  0  0  0  0  0  0
   21.4516  -17.0878    4.0227 C   0  0  0  0  0  0  0  0  0  0  0  0
   21.5860  -17.5188    2.8845 O   0  0  0  0  0  0  0  0  0  0  0  0
   20.1657  -17.3387    4.7320 C   0  0  2  0  0  0  0  0  0  0  0  0
   19.6537  -18.7199    5.0544 C   0  0  0  0  0  0  0  0  0  0  0  0
   18.9115  -17.8554    4.0603 C   0  0  2  0  0  0  0  0  0  0  0  0
   18.8751  -18.2161    2.6326 C   0  0  0  0  0  0  0  0  0  0  0  0
   19.2963  -17.5086    1.7316 O   0  0  0  0  0  0  0  0  0  0  0  0
   18.3130  -19.4152    2.4065 O   0  0  0  0  0  0  0  0  0  0  0  0
   22.2544  -16.0666    5.6376 H   0  0  0  0  0  0  0  0  0  0  0  0
   18.3983  -19.5497    1.4401 H   0  0  0  0  0  0  0  0  0  0  0  0
  1  2  1  0  0  0  0
  2  3  1  0  0  0  0
  2  4  1  0  0  0  0
  4  5  1  0  0  0  0
  4 13  1  0  0  0  0
  5  6  2  0  0  0  0
  7  8  1  0  0  0  0
  7  9  1  0  0  0  0
  7  5  1  6  0  0  0
  8  9  1  0  0  0  0
  9 10  1  6  0  0  0
 10 11  2  0  0  0  0
 10 12  1  0  0  0  0
 12 14  1  0  0  0  0
M  END
>  <CHROM.0>
-51.51324546,-62.50343966,-55.24073585,-52.77528375,-59.40241575,-59.62986723
-58.96107689,-52.67592950,-167.20766754,161.00431284

>  <CHROM.1>
129.65341762,-119.03266617,-48.95410356,-176.94131581,21.10002126,-17.29301339
3.71780035,-0.14582920,-0.52416257,-1.35237459

>  <Name>
P55709751

>  <RI>
0

>  <Rbt.Current_Directory>
/home/fstefaniak/projects/zuza/docking/adenine/1Y26

>  <Rbt.Executable>
rbdock ($Id: //depot/dev/client3/rdock/2013.1/src/exe/rbdock.cxx#4 $)

>  <Rbt.Library>
libRbt.so (2013.1, Build901 2013/11/27)

>  <Rbt.Parameter_File>
/home/fstefaniak/progs/rDock//data/scripts/dock_solv.prm

>  <Rbt.Receptor>
1y26.prm

>  <SCORE>
-56.8944

>  <SCORE.INTER>
-34.9673

>  <SCORE.INTER.CONST>
1

>  <SCORE.INTER.POLAR>
-3.8317

>  <SCORE.INTER.ROT>
3

>  <SCORE.INTER.SOLV>
12.0728

>  <SCORE.INTER.VDW>
-20.1635

>  <SCORE.INTER.norm>
-2.91394

>  <SCORE.INTRA>
0.355704

>  <SCORE.INTRA.DIHEDRAL>
0.679842

>  <SCORE.INTRA.DIHEDRAL.0>
5.04993

>  <SCORE.INTRA.POLAR>
0.0315301

>  <SCORE.INTRA.POLAR.0>
-0.0315301

>  <SCORE.INTRA.REPUL>
0

>  <SCORE.INTRA.REPUL.0>
0

>  <SCORE.INTRA.SOLV>
-0.908483

>  <SCORE.INTRA.SOLV.lig_0>
-12.8999

>  <SCORE.INTRA.VDW>
0.362822

>  <SCORE.INTRA.VDW.0>
-1.33916

>  <SCORE.INTRA.norm>
0.029642

>  <SCORE.RESTR>
0

>  <SCORE.RESTR.CAVITY>
0

>  <SCORE.RESTR.norm>
0

>  <SCORE.SYSTEM>
-22.2828

>  <SCORE.SYSTEM.CONST>
0

>  <SCORE.SYSTEM.DIHEDRAL>
5.29502

>  <SCORE.SYSTEM.POLAR>
-3.43687

>  <SCORE.SYSTEM.SOLV>
0.659011

>  <SCORE.SYSTEM.VDW>
-5.38365

>  <SCORE.SYSTEM.norm>
-1.8569

>  <SCORE.heavy>
12

>  <SCORE.norm>
-4.7412

$$$$
P55709751
 OpenBabel12072022103D
libRbt.so/2013.1/901 2013/11/27
 14 14  0  0  0  0  0  0  0  0999 V2000
   23.9050  -14.5729    4.2285 C   0  0  0  0  0  0  0  0  0  0  0  0
   23.6336  -16.0638    4.0421 C   0  0  0  0  0  0  0  0  0  0  0  0
   24.7809  -16.8961    4.6060 C   0  0  0  0  0  0  0  0  0  0  0  0
   22.3817  -16.4368    4.6811 N   0  0  0  0  0  0  0  0  0  0  0  0
   21.4001  -17.1336    4.0217 C   0  0  0  0  0  0  0  0  0  0  0  0
   21.5151  -17.5434    2.8735 O   0  0  0  0  0  0  0  0  0  0  0  0
   20.1224  -17.3882    4.7441 C   0  0  2  0  0  0  0  0  0  0  0  0
   19.6007  -18.7714    5.0416 C   0  0  0  0  0  0  0  0  0  0  0  0
   18.8530  -17.8761    4.0794 C   0  0  2  0  0  0  0  0  0  0  0  0
   18.7917  -18.2025    2.6444 C   0  0  0  0  0  0  0  0  0  0  0  0
   19.1153  -17.4388    1.7489 O   0  0  0  0  0  0  0  0  0  0  0  0
   18.3256  -19.4397    2.4050 O   0  0  0  0  0  0  0  0  0  0  0  0
   22.2337  -16.1505    5.6445 H   0  0  0  0  0  0  0  0  0  0  0  0
   18.3582  -19.5316    1.4304 H   0  0  0  0  0  0  0  0  0  0  0  0
  1  2  1  0  0  0  0
  2  3  1  0  0  0  0
  2  4  1  0  0  0  0
  4  5  1  0  0  0  0
  4 13  1  0  0  0  0
  5  6  2  0  0  0  0
  7  8  1  0  0  0  0
  7  9  1  0  0  0  0
  7  5  1  6  0  0  0
  8  9  1  0  0  0  0
  9 10  1  6  0  0  0
 10 11  2  0  0  0  0
 10 12  1  0  0  0  0
 12 14  1  0  0  0  0
M  END
>  <CHROM.0>
-47.45935403,-62.23822353,-50.10337868,-53.89370073,-57.09026924,-56.84095991
-57.99687160,-53.31597936,-167.27428841,160.50133311

>  <CHROM.1>
128.64790828,-119.30905404,-54.63394957,-178.63090714,21.04272391,-17.32519847
3.71640562,-0.11406944,-0.51824206,-1.28626530

>  <Name>
P55709751

>  <RI>
0

>  <Rbt.Current_Directory>
/home/fstefaniak/projects/zuza/docking/adenine/1Y26

>  <Rbt.Executable>
rbdock ($Id: //depot/dev/client3/rdock/2013.1/src/exe/rbdock.cxx#4 $)

>  <Rbt.Library>
libRbt.so (2013.1, Build901 2013/11/27)

>  <Rbt.Parameter_File>
/home/fstefaniak/progs/rDock//data/scripts/dock_solv.prm

>  <Rbt.Receptor>
1y26.prm

>  <SCORE>
-56.6099

>  <SCORE.INTER>
-34.6508

>  <SCORE.INTER.CONST>
1

>  <SCORE.INTER.POLAR>
-3.83045

>  <SCORE.INTER.ROT>
3

>  <SCORE.INTER.SOLV>
12.1302

>  <SCORE.INTER.VDW>
-19.9758

>  <SCORE.INTER.norm>
-2.88757

>  <SCORE.INTRA>
0.235435

>  <SCORE.INTRA.DIHEDRAL>
0.769102

>  <SCORE.INTRA.DIHEDRAL.0>
5.04993

>  <SCORE.INTRA.POLAR>
0.0315301

>  <SCORE.INTRA.POLAR.0>
-0.0315301

>  <SCORE.INTRA.REPUL>
0

>  <SCORE.INTRA.REPUL.0>
0

>  <SCORE.INTRA.SOLV>
-0.91498

>  <SCORE.INTRA.SOLV.lig_0>
-12.8999

>  <SCORE.INTRA.VDW>
0.201171

>  <SCORE.INTRA.VDW.0>
-1.33916

>  <SCORE.INTRA.norm>
0.0196196

>  <SCORE.RESTR>
0

>  <SCORE.RESTR.CAVITY>
0

>  <SCORE.RESTR.norm>
0

>  <SCORE.SYSTEM>
-22.1945

>  <SCORE.SYSTEM.CONST>
0

>  <SCORE.SYSTEM.DIHEDRAL>
6.08126

>  <SCORE.SYSTEM.POLAR>
-3.53521

>  <SCORE.SYSTEM.SOLV>
0.67772

>  <SCORE.SYSTEM.VDW>
-5.26527

>  <SCORE.SYSTEM.norm>
-1.84954

>  <SCORE.heavy>
12

>  <SCORE.norm>
-4.71749

$$$$
P55709751
 OpenBabel12072022103D
libRbt.so/2013.1/901 2013/11/27
 14 14  0  0  0  0  0  0  0  0999 V2000
   23.9854  -14.5704    4.2347 C   0  0  0  0  0  0  0  0  0  0  0  0
   23.7091  -16.0658    4.0994 C   0  0  0  0  0  0  0  0  0  0  0  0
   24.8272  -16.8817    4.7406 C   0  0  0  0  0  0  0  0  0  0  0  0
   22.4308  -16.4038    4.7048 N   0  0  0  0  0  0  0  0  0  0  0  0
   21.4459  -17.0681    4.0174 C   0  0  0  0  0  0  0  0  0  0  0  0
   21.5777  -17.4764    2.8705 O   0  0  0  0  0  0  0  0  0  0  0  0
   20.1432  -17.2873    4.7061 C   0  0  2  0  0  0  0  0  0  0  0  0
   19.6143  -18.6539    5.0619 C   0  0  0  0  0  0  0  0  0  0  0  0
   18.9001  -17.8174    4.0242 C   0  0  2  0  0  0  0  0  0  0  0  0
   18.8921  -18.2244    2.6086 C   0  0  0  0  0  0  0  0  0  0  0  0
   19.2993  -17.5319    1.6896 O   0  0  0  0  0  0  0  0  0  0  0  0
   18.3735  -19.4486    2.4153 O   0  0  0  0  0  0  0  0  0  0  0  0
   22.2671  -16.1171    5.6656 H   0  0  0  0  0  0  0  0  0  0  0  0
   18.4886  -19.6172    1.4574 H   0  0  0  0  0  0  0  0  0  0  0  0
  1  2  1  0  0  0  0
  2  3  1  0  0  0  0
  2  4  1  0  0  0  0
  4  5  1  0  0  0  0
  4 13  1  0  0  0  0
  5  6  2  0  0  0  0
  7  8  1  0  0  0  0
  7  9  1  0  0  0  0
  7  5  1  6  0  0  0
  8  9  1  0  0  0  0
  9 10  1  6  0  0  0
 10 11  2  0  0  0  0
 10 12  1  0  0  0  0
 12 14  1  0  0  0  0
M  END
>  <CHROM.0>
-42.99136372,-58.54790003,-50.76998591,-51.07652828,-55.25842001,-53.95598369
-49.38024910,-51.61706155,-165.53216059,161.88840052

>  <CHROM.1>
125.63620951,-115.27919343,-51.38350202,-175.97264656,21.10865258,-17.29990794
3.72226688,-0.17109738,-0.51340369,-1.37547733

>  <Name>
P55709751

>  <RI>
0

>  <Rbt.Current_Directory>
/home/fstefaniak/projects/zuza/docking/adenine/1Y26

>  <Rbt.Executable>
rbdock ($Id: //depot/dev/client3/rdock/2013.1/src/exe/rbdock.cxx#4 $)

>  <Rbt.Library>
libRbt.so (2013.1, Build901 2013/11/27)

>  <Rbt.Parameter_File>
/home/fstefaniak/progs/rDock//data/scripts/dock_solv.prm

>  <Rbt.Receptor>
1y26.prm

>  <SCORE>
-56.3387

>  <SCORE.INTER>
-34.906

>  <SCORE.INTER.CONST>
1

>  <SCORE.INTER.POLAR>
-3.83588

>  <SCORE.INTER.ROT>
3

>  <SCORE.INTER.SOLV>
12.1879

>  <SCORE.INTER.VDW>
-20.1471

>  <SCORE.INTER.norm>
-2.90884

>  <SCORE.INTRA>
0.336848

>  <SCORE.INTRA.DIHEDRAL>
0.670212

>  <SCORE.INTRA.DIHEDRAL.0>
5.04993

>  <SCORE.INTRA.POLAR>
0.0315301

>  <SCORE.INTRA.POLAR.0>
-0.0315301

>  <SCORE.INTRA.REPUL>
0

>  <SCORE.INTRA.REPUL.0>
0

>  <SCORE.INTRA.SOLV>
-0.903733

>  <SCORE.INTRA.SOLV.lig_0>
-12.8999

>  <SCORE.INTRA.VDW>
0.346406

>  <SCORE.INTRA.VDW.0>
-1.33916

>  <SCORE.INTRA.norm>
0.0280706

>  <SCORE.RESTR>
0

>  <SCORE.RESTR.CAVITY>
0

>  <SCORE.RESTR.norm>
0

>  <SCORE.SYSTEM>
-21.7695

>  <SCORE.SYSTEM.CONST>
0

>  <SCORE.SYSTEM.DIHEDRAL>
7.58971

>  <SCORE.SYSTEM.POLAR>
-3.68408

>  <SCORE.SYSTEM.SOLV>
0.713642

>  <SCORE.SYSTEM.VDW>
-5.00048

>  <SCORE.SYSTEM.norm>
-1.81412

>  <SCORE.heavy>
12

>  <SCORE.norm>
-4.69489

$$$$
P56031139
 OpenBabel12072022103D
libRbt.so/2013.1/901 2013/11/27
 14 14  0  0  0  0  0  0  0  0999 V2000
   18.8612  -19.1953    5.3031 C   0  0  0  0  0  0  0  0  0  0  0  0
   19.5939  -18.1782    4.5177 C   0  0  0  0  0  0  0  0  0  0  0  0
   19.4019  -17.8166    3.1651 C   0  0  0  0  0  0  0  0  0  0  0  0
   20.2270  -16.8447    2.7673 N   0  0  0  0  0  0  0  0  0  0  0  0
   20.9678  -16.5894    3.8684 N   0  0  0  0  0  0  0  0  0  0  0  0
   20.6215  -17.3613    4.9399 C   0  0  0  0  0  0  0  0  0  0  0  0
   21.9952  -15.5661    3.8263 C   0  0  0  0  0  0  0  0  0  0  0  0
   23.3466  -16.1679    4.1626 C   0  0  0  0  0  0  0  0  0  0  0  0
   24.0368  -15.6227    5.1234 N   0  0  0  0  0  0  0  0  0  0  0  0
   25.2726  -16.2732    5.2749 O   0  0  0  0  0  0  0  0  0  0  0  0
   23.7858  -17.2446    3.4232 N   0  0  0  0  0  0  0  0  0  0  0  0
   25.5111  -16.0499    6.1939 H   0  0  0  0  0  0  0  0  0  0  0  0
   24.6155  -17.0452    2.8618 H   0  0  0  0  0  0  0  0  0  0  0  0
   23.8927  -18.0664    4.0110 H   0  0  0  0  0  0  0  0  0  0  0  0
  1  2  1  0  0  0  0
  2  3  1  0  0  0  0
  2  6  2  0  0  0  0
  3  4  2  0  0  0  0
  4  5  1  0  0  0  0
  5  6  1  0  0  0  0
  5  7  1  0  0  0  0
  7  8  1  0  0  0  0
  8  9  2  0  0  0  0
  8 11  1  0  0  0  0
  9 10  1  0  0  0  0
 10 12  1  0  0  0  0
 11 13  1  0  0  0  0
 11 14  1  0  0  0  0
M  END
>  <CHROM.0>
60.50247854,48.77090785,-65.55749915,-51.42746612,-179.29682678,-174.13958008
-171.07006400,-174.66150314,-166.55801014,160.31772279

>  <CHROM.1>
-121.25554611,-126.01176630,114.45424639,-157.63733457,21.75961548,-16.98135279
4.23813670,-3.00466738,-0.36142703,-0.96872115

>  <Name>
P56031139

>  <RI>
0

>  <Rbt.Current_Directory>
/home/fstefaniak/projects/zuza/docking/adenine/1Y26

>  <Rbt.Executable>
rbdock ($Id: //depot/dev/client3/rdock/2013.1/src/exe/rbdock.cxx#4 $)

>  <Rbt.Library>
libRbt.so (2013.1, Build901 2013/11/27)

>  <Rbt.Parameter_File>
/home/fstefaniak/progs/rDock//data/scripts/dock_solv.prm

>  <Rbt.Receptor>
1y26.prm

>  <SCORE>
-62.105

>  <SCORE.INTER>
-42.9917

>  <SCORE.INTER.CONST>
1

>  <SCORE.INTER.POLAR>
-5.27645

>  <SCORE.INTER.ROT>
3

>  <SCORE.INTER.SOLV>
10.5919

>  <SCORE.INTER.VDW>
-20.2036

>  <SCORE.INTER.norm>
-3.90834

>  <SCORE.INTRA>
0.720592

>  <SCORE.INTRA.DIHEDRAL>
-0.306352

>  <SCORE.INTRA.DIHEDRAL.0>
6.22911

>  <SCORE.INTRA.POLAR>
0.281449

>  <SCORE.INTRA.POLAR.0>
-0.281449

>  <SCORE.INTRA.REPUL>
0

>  <SCORE.INTRA.REPUL.0>
0

>  <SCORE.INTRA.SOLV>
-0.0230132

>  <SCORE.INTRA.SOLV.lig_0>
-10.5997

>  <SCORE.INTRA.VDW>
-0.0716513

>  <SCORE.INTRA.VDW.0>
-0.93

>  <SCORE.INTRA.norm>
0.0655084

>  <SCORE.RESTR>
0

>  <SCORE.RESTR.CAVITY>
0

>  <SCORE.RESTR.norm>
0

>  <SCORE.SYSTEM>
-19.8339

>  <SCORE.SYSTEM.CONST>
0

>  <SCORE.SYSTEM.DIHEDRAL>
6.22432

>  <SCORE.SYSTEM.POLAR>
-3.26412

>  <SCORE.SYSTEM.SOLV>
0.145606

>  <SCORE.SYSTEM.VDW>
-4.46552

>  <SCORE.SYSTEM.norm>
-1.80308

>  <SCORE.heavy>
11

>  <SCORE.norm>
-5.64591

$$$$
P56031139
 OpenBabel12072022103D
libRbt.so/2013.1/901 2013/11/27
 14 14  0  0  0  0  0  0  0  0999 V2000
   18.4044  -18.8286    4.9031 C   0  0  0  0  0  0  0  0  0  0  0  0
   19.4048  -17.9891    4.2084 C   0  0  0  0  0  0  0  0  0  0  0  0
   19.7300  -17.9786    2.8332 C   0  0  0  0  0  0  0  0  0  0  0  0
   20.6739  -17.0833    2.5315 N   0  0  0  0  0  0  0  0  0  0  0  0
   20.9709  -16.5236    3.7253 N   0  0  0  0  0  0  0  0  0  0  0  0
   20.2339  -17.0326    4.7556 C   0  0  0  0  0  0  0  0  0  0  0  0
   21.9752  -15.4798    3.8037 C   0  0  0  0  0  0  0  0  0  0  0  0
   23.3304  -16.0814    4.1252 C   0  0  0  0  0  0  0  0  0  0  0  0
   24.0221  -15.5486    5.0917 N   0  0  0  0  0  0  0  0  0  0  0  0
   25.2611  -16.1963    5.2282 O   0  0  0  0  0  0  0  0  0  0  0  0
   23.7710  -17.1445    3.3672 N   0  0  0  0  0  0  0  0  0  0  0  0
   25.5043  -15.9833    6.1484 H   0  0  0  0  0  0  0  0  0  0  0  0
   24.6157  -16.9423    2.8295 H   0  0  0  0  0  0  0  0  0  0  0  0
   23.8534  -17.9829    3.9351 H   0  0  0  0  0  0  0  0  0  0  0  0
  1  2  1  0  0  0  0
  2  3  1  0  0  0  0
  2  6  2  0  0  0  0
  3  4  2  0  0  0  0
  4  5  1  0  0  0  0
  5  6  1  0  0  0  0
  5  7  1  0  0  0  0
  7  8  1  0  0  0  0
  8  9  2  0  0  0  0
  8 11  1  0  0  0  0
  9 10  1  0  0  0  0
 10 12  1  0  0  0  0
 11 13  1  0  0  0  0
 11 14  1  0  0  0  0
M  END
>  <CHROM.0>
-46.07454377,51.56483156,-57.07503788,-52.44072276,-174.22799864,-50.74462072
-50.67468702,70.50876458,-166.41086541,-58.49678461

>  <CHROM.1>
-93.36468325,-130.68283936,116.37138173,-157.88564079,21.72893594,-16.89245257
4.07821570,3.07342056,-0.37721004,-1.43006595

>  <Name>
P56031139

>  <RI>
0

>  <Rbt.Current_Directory>
/home/fstefaniak/projects/zuza/docking/adenine/1Y26

>  <Rbt.Executable>
rbdock ($Id: //depot/dev/client3/rdock/2013.1/src/exe/rbdock.cxx#4 $)

>  <Rbt.Library>
libRbt.so (2013.1, Build901 2013/11/27)

>  <Rbt.Parameter_File>
/home/fstefaniak/progs/rDock//data/scripts/dock_solv.prm

>  <Rbt.Receptor>
1y26.prm

>  <SCORE>
-58.5335

>  <SCORE.INTER>
-41.7798

>  <SCORE.INTER.CONST>
1

>  <SCORE.INTER.POLAR>
-5.39126

>  <SCORE.INTER.ROT>
3

>  <SCORE.INTER.SOLV>
10.4766

>  <SCORE.INTER.VDW>
-18.9745

>  <SCORE.INTER.norm>
-3.79816

>  <SCORE.INTRA>
0.639739

>  <SCORE.INTRA.DIHEDRAL>
-0.362637

>  <SCORE.INTRA.DIHEDRAL.0>
6.22911

>  <SCORE.INTRA.POLAR>
0.281449

>  <SCORE.INTRA.POLAR.0>
-0.281449

>  <SCORE.INTRA.REPUL>
0

>  <SCORE.INTRA.REPUL.0>
0

>  <SCORE.INTRA.SOLV>
0.0408071

>  <SCORE.INTRA.SOLV.lig_0>
-10.5997

>  <SCORE.INTRA.VDW>
-0.156273

>  <SCORE.INTRA.VDW.0>
-0.93

>  <SCORE.INTRA.norm>
0.0581581

>  <SCORE.RESTR>
0

>  <SCORE.RESTR.CAVITY>
0

>  <SCORE.RESTR.norm>
0

>  <SCORE.SYSTEM>
-17.3935

>  <SCORE.SYSTEM.CONST>
0

>  <SCORE.SYSTEM.DIHEDRAL>
5.9187

>  <SCORE.SYSTEM.POLAR>
-2.76032

>  <SCORE.SYSTEM.SOLV>
0.444428

>  <SCORE.SYSTEM.VDW>
-4.51563

>  <SCORE.SYSTEM.norm>
-1.58123

>  <SCORE.heavy>
11

>  <SCORE.norm>
-5.32123

$$$$
P56031139
 OpenBabel12072022103D
libRbt.so/2013.1/901 2013/11/27
 14 14  0  0  0  0  0  0  0  0999 V2000
   22.4755  -13.8668    5.2759 C   0  0  0  0  0  0  0  0  0  0  0  0
   22.0969  -15.1313    4.6080 C   0  0  0  0  0  0  0  0  0  0  0  0
   22.9444  -16.0786    3.9905 C   0  0  0  0  0  0  0  0  0  0  0  0
   22.2772  -17.1233    3.4935 N   0  0  0  0  0  0  0  0  0  0  0  0
   20.9872  -16.8385    3.7790 N   0  0  0  0  0  0  0  0  0  0  0  0
   20.8328  -15.6584    4.4478 C   0  0  0  0  0  0  0  0  0  0  0  0
   19.9401  -17.7637    3.3893 C   0  0  0  0  0  0  0  0  0  0  0  0
   19.3943  -18.4799    4.6103 C   0  0  0  0  0  0  0  0  0  0  0  0
   19.7074  -18.0118    5.7847 N   0  0  0  0  0  0  0  0  0  0  0  0
   19.1567  -18.8125    6.7990 O   0  0  0  0  0  0  0  0  0  0  0  0
   18.6145  -19.5997    4.4180 N   0  0  0  0  0  0  0  0  0  0  0  0
   18.4600  -18.2344    7.1620 H   0  0  0  0  0  0  0  0  0  0  0  0
   19.1385  -20.4757    4.4567 H   0  0  0  0  0  0  0  0  0  0  0  0
   17.8106  -19.5906    5.0393 H   0  0  0  0  0  0  0  0  0  0  0  0
  1  2  1  0  0  0  0
  2  3  1  0  0  0  0
  2  6  2  0  0  0  0
  3  4  2  0  0  0  0
  4  5  1  0  0  0  0
  5  6  1  0  0  0  0
  5  7  1  0  0  0  0
  7  8  1  0  0  0  0
  8  9  2  0  0  0  0
  8 11  1  0  0  0  0
  9 10  1  0  0  0  0
 10 12  1  0  0  0  0
 11 13  1  0  0  0  0
 11 14  1  0  0  0  0
M  END
>  <CHROM.0>
-51.48105170,-175.69621005,-58.85278140,-52.37169823,-57.86819036,-59.71697946
-61.61791219,-56.27247256,-166.77436464,160.58267020

>  <CHROM.1>
107.31854091,13.25112929,94.28126259,-109.31495488,20.69767120,-17.10302056
4.65575314,0.25007457,0.84286676,1.03659779

>  <Name>
P56031139

>  <RI>
0

>  <Rbt.Current_Directory>
/home/fstefaniak/projects/zuza/docking/adenine/1Y26

>  <Rbt.Executable>
rbdock ($Id: //depot/dev/client3/rdock/2013.1/src/exe/rbdock.cxx#4 $)

>  <Rbt.Library>
libRbt.so (2013.1, Build901 2013/11/27)

>  <Rbt.Parameter_File>
/home/fstefaniak/progs/rDock//data/scripts/dock_solv.prm

>  <Rbt.Receptor>
1y26.prm

>  <SCORE>
-56.6574

>  <SCORE.INTER>
-34.376

>  <SCORE.INTER.CONST>
1

>  <SCORE.INTER.POLAR>
-3.91974

>  <SCORE.INTER.ROT>
3

>  <SCORE.INTER.SOLV>
10.8191

>  <SCORE.INTER.VDW>
-19.0579

>  <SCORE.INTER.norm>
-3.12509

>  <SCORE.INTRA>
0.192005

>  <SCORE.INTRA.DIHEDRAL>
-1.73459

>  <SCORE.INTRA.DIHEDRAL.0>
6.22911

>  <SCORE.INTRA.POLAR>
0.281449

>  <SCORE.INTRA.POLAR.0>
-0.281449

>  <SCORE.INTRA.REPUL>
0

>  <SCORE.INTRA.REPUL.0>
0

>  <SCORE.INTRA.SOLV>
-0.290989

>  <SCORE.INTRA.SOLV.lig_0>
-10.5997

>  <SCORE.INTRA.VDW>
0.247868

>  <SCORE.INTRA.VDW.0>
-0.93

>  <SCORE.INTRA.norm>
0.017455

>  <SCORE.RESTR>
0

>  <SCORE.RESTR.CAVITY>
0

>  <SCORE.RESTR.norm>
0

>  <SCORE.SYSTEM>
-22.4734

>  <SCORE.SYSTEM.CONST>
0

>  <SCORE.SYSTEM.DIHEDRAL>
5.23766

>  <SCORE.SYSTEM.POLAR>
-3.42872

>  <SCORE.SYSTEM.SOLV>
0.587743

>  <SCORE.SYSTEM.VDW>
-5.49502

>  <SCORE.SYSTEM.norm>
-2.04304

>  <SCORE.heavy>
11

>  <SCORE.norm>
-5.15067

$$$$
P56076031
 OpenBabel12072022103D
libRbt.so/2013.1/901 2013/11/27
 15 15  0  0  0  0  0  0  0  0999 V2000
   20.1292  -18.2421    5.7854 C   0  0  0  0  0  0  0  0  0  0  0  0
   18.9657  -18.7339    6.3825 C   0  0  0  0  0  0  0  0  0  0  0  0
   17.8111  -18.8664    5.6180 C   0  0  0  0  0  0  0  0  0  0  0  0
   17.7987  -18.5107    4.2735 C   0  0  0  0  0  0  0  0  0  0  0  0
   18.9607  -18.0196    3.6736 C   0  0  0  0  0  0  0  0  0  0  0  0
   20.1357  -17.8955    4.4269 C   0  0  0  0  0  0  0  0  0  0  0  0
   21.4000  -17.3774    3.8362 C   0  0  0  0  0  0  0  0  0  0  0  0
   21.6355  -17.5162    2.6418 O   0  0  0  0  0  0  0  0  0  0  0  0
   22.2527  -16.7131    4.6890 N   0  0  0  0  0  0  0  0  0  0  0  0
   23.4615  -16.1020    4.1652 C   0  0  0  0  0  0  0  0  0  0  0  0
   24.6555  -16.5191    4.9147 C   0  0  0  0  0  0  0  0  0  0  0  0
   25.5779  -16.8576    5.5337 N   0  0  0  0  0  0  0  0  0  0  0  0
   16.6524  -19.3400    6.1569 O   0  0  0  0  0  0  0  0  0  0  0  0
   21.9194  -16.4197    5.5987 H   0  0  0  0  0  0  0  0  0  0  0  0
   16.8620  -19.8356    6.9658 H   0  0  0  0  0  0  0  0  0  0  0  0
  1  2  2  0  0  0  0
  1  6  1  0  0  0  0
  2  3  1  0  0  0  0
  3  4  2  0  0  0  0
  3 13  1  0  0  0  0
  4  5  1  0  0  0  0
  5  6  2  0  0  0  0
  6  7  1  0  0  0  0
  7  8  2  0  0  0  0
  7  9  1  0  0  0  0
  9 10  1  0  0  0  0
  9 14  1  0  0  0  0
 10 11  1  0  0  0  0
 11 12  3  0  0  0  0
 13 15  1  0  0  0  0
M  END
>  <CHROM.0>
-52.42519682,-63.98340752,-56.52314368,-52.62803171,-56.52412438,-60.19477691
-59.35217947,-52.23206167,-167.67771074,161.98222038

>  <CHROM.1>
-20.47399327,153.13072769,-128.09091572,20.70222294,-17.75481123,4.78320953
-2.95060047,-0.30342273,-1.35730358

>  <Name>
P56076031

>  <RI>
0

>  <Rbt.Current_Directory>
/home/fstefaniak/projects/zuza/docking/adenine/1Y26

>  <Rbt.Executable>
rbdock ($Id: //depot/dev/client3/rdock/2013.1/src/exe/rbdock.cxx#4 $)

>  <Rbt.Library>
libRbt.so (2013.1, Build901 2013/11/27)

>  <Rbt.Parameter_File>
/home/fstefaniak/progs/rDock//data/scripts/dock_solv.prm

>  <Rbt.Receptor>
1y26.prm

>  <SCORE>
-59.6166

>  <SCORE.INTER>
-37.8404

>  <SCORE.INTER.CONST>
1

>  <SCORE.INTER.POLAR>
-4.03343

>  <SCORE.INTER.ROT>
2

>  <SCORE.INTER.SOLV>
15.8165

>  <SCORE.INTER.VDW>
-21.9876

>  <SCORE.INTER.norm>
-2.9108

>  <SCORE.INTRA>
0.453602

>  <SCORE.INTRA.DIHEDRAL>
1.22008

>  <SCORE.INTRA.DIHEDRAL.0>
3.46659

>  <SCORE.INTRA.POLAR>
0

>  <SCORE.INTRA.POLAR.0>
0

>  <SCORE.INTRA.REPUL>
0

>  <SCORE.INTRA.REPUL.0>
0

>  <SCORE.INTRA.SOLV>
0.0164267

>  <SCORE.INTRA.SOLV.lig_0>
-19.1899

>  <SCORE.INTRA.VDW>
-0.164649

>  <SCORE.INTRA.VDW.0>
-0.0507619

>  <SCORE.INTRA.norm>
0.0348925

>  <SCORE.RESTR>
0

>  <SCORE.RESTR.CAVITY>
0

>  <SCORE.RESTR.norm>
0

>  <SCORE.SYSTEM>
-22.2298

>  <SCORE.SYSTEM.CONST>
0

>  <SCORE.SYSTEM.DIHEDRAL>
5.12255

>  <SCORE.SYSTEM.POLAR>
-3.38153

>  <SCORE.SYSTEM.SOLV>
0.657018

>  <SCORE.SYSTEM.VDW>
-5.47467

>  <SCORE.SYSTEM.norm>
-1.70999

>  <SCORE.heavy>
13

>  <SCORE.norm>
-4.58589

$$$$
P56076031
 OpenBabel12072022103D
libRbt.so/2013.1/901 2013/11/27
 15 15  0  0  0  0  0  0  0  0999 V2000
   20.1284  -18.2378    5.7897 C   0  0  0  0  0  0  0  0  0  0  0  0
   18.9680  -18.7324    6.3906 C   0  0  0  0  0  0  0  0  0  0  0  0
   17.8111  -18.8670    5.6301 C   0  0  0  0  0  0  0  0  0  0  0  0
   17.7932  -18.5106    4.2858 C   0  0  0  0  0  0  0  0  0  0  0  0
   18.9520  -18.0167    3.6821 C   0  0  0  0  0  0  0  0  0  0  0  0
   20.1294  -17.8905    4.4313 C   0  0  0  0  0  0  0  0  0  0  0  0
   21.3905  -17.3693    3.8365 C   0  0  0  0  0  0  0  0  0  0  0  0
   21.6293  -17.5209    2.6443 O   0  0  0  0  0  0  0  0  0  0  0  0
   22.2362  -16.6875    4.6826 N   0  0  0  0  0  0  0  0  0  0  0  0
   23.4409  -16.0731    4.1534 C   0  0  0  0  0  0  0  0  0  0  0  0
   24.6472  -16.5433    4.8497 C   0  0  0  0  0  0  0  0  0  0  0  0
   25.5799  -16.9247    5.4269 N   0  0  0  0  0  0  0  0  0  0  0  0
   16.6553  -19.3433    6.1727 O   0  0  0  0  0  0  0  0  0  0  0  0
   21.8987  -16.3856    5.5880 H   0  0  0  0  0  0  0  0  0  0  0  0
   16.8663  -19.8175    6.9941 H   0  0  0  0  0  0  0  0  0  0  0  0
  1  2  2  0  0  0  0
  1  6  1  0  0  0  0
  2  3  1  0  0  0  0
  3  4  2  0  0  0  0
  3 13  1  0  0  0  0
  4  5  1  0  0  0  0
  5  6  2  0  0  0  0
  6  7  1  0  0  0  0
  7  8  2  0  0  0  0
  7  9  1  0  0  0  0
  9 10  1  0  0  0  0
  9 14  1  0  0  0  0
 10 11  1  0  0  0  0
 11 12  3  0  0  0  0
 13 15  1  0  0  0  0
M  END
>  <CHROM.0>
-47.93383609,-62.21021115,-55.00879883,-53.14236046,-58.19496425,-57.19302529
-57.64911547,-53.39701754,-167.41792098,160.18109047

>  <CHROM.1>
-18.88800930,152.25836999,-124.10846460,20.69644075,-17.75637105,4.77420371
-2.93738206,-0.29729956,-1.34724026

>  <Name>
P56076031

>  <RI>
0

>  <Rbt.Current_Directory>
/home/fstefaniak/projects/zuza/docking/adenine/1Y26

>  <Rbt.Executable>
rbdock ($Id: //depot/dev/client3/rdock/2013.1/src/exe/rbdock.cxx#4 $)

>  <Rbt.Library>
libRbt.so (2013.1, Build901 2013/11/27)

>  <Rbt.Parameter_File>
/home/fstefaniak/progs/rDock//data/scripts/dock_solv.prm

>  <Rbt.Receptor>
1y26.prm

>  <SCORE>
-59.5548

>  <SCORE.INTER>
-37.8444

>  <SCORE.INTER.CONST>
1

>  <SCORE.INTER.POLAR>
-4.03443

>  <SCORE.INTER.ROT>
2

>  <SCORE.INTER.SOLV>
15.6578

>  <SCORE.INTER.VDW>
-21.9341

>  <SCORE.INTER.norm>
-2.91111

>  <SCORE.INTRA>
0.53027

>  <SCORE.INTRA.DIHEDRAL>
1.4107

>  <SCORE.INTRA.DIHEDRAL.0>
3.46659

>  <SCORE.INTRA.POLAR>
0

>  <SCORE.INTRA.POLAR.0>
0

>  <SCORE.INTRA.REPUL>
0

>  <SCORE.INTRA.REPUL.0>
0

>  <SCORE.INTRA.SOLV>
0.0170557

>  <SCORE.INTRA.SOLV.lig_0>
-19.1899

>  <SCORE.INTRA.VDW>
-0.183608

>  <SCORE.INTRA.VDW.0>
-0.0507619

>  <SCORE.INTRA.norm>
0.04079

>  <SCORE.RESTR>
0

>  <SCORE.RESTR.CAVITY>
0

>  <SCORE.RESTR.norm>
0

>  <SCORE.SYSTEM>
-22.2407

>  <SCORE.SYSTEM.CONST>
0

>  <SCORE.SYSTEM.DIHEDRAL>
5.73903

>  <SCORE.SYSTEM.POLAR>
-3.50169

>  <SCORE.SYSTEM.SOLV>
0.670384

>  <SCORE.SYSTEM.VDW>
-5.29129

>  <SCORE.SYSTEM.norm>
-1.71082

>  <SCORE.heavy>
13

>  <SCORE.norm>
-4.58114

$$$$
P56076031
 OpenBabel12072022103D
libRbt.so/2013.1/901 2013/11/27
 15 15  0  0  0  0  0  0  0  0999 V2000
   19.0557  -18.0363    3.6965 C   0  0  0  0  0  0  0  0  0  0  0  0
   17.8560  -18.5009    4.2413 C   0  0  0  0  0  0  0  0  0  0  0  0
   17.8045  -18.8350    5.5906 C   0  0  0  0  0  0  0  0  0  0  0  0
   18.9299  -18.7191    6.3997 C   0  0  0  0  0  0  0  0  0  0  0  0
   20.1305  -18.2541    5.8580 C   0  0  0  0  0  0  0  0  0  0  0  0
   20.1935  -17.8984    4.5041 C   0  0  0  0  0  0  0  0  0  0  0  0
   21.4479  -17.3983    3.8778 C   0  0  0  0  0  0  0  0  0  0  0  0
   21.6657  -17.5760    2.6851 O   0  0  0  0  0  0  0  0  0  0  0  0
   22.3120  -16.7051    4.6953 N   0  0  0  0  0  0  0  0  0  0  0  0
   23.5117  -16.1100    4.1336 C   0  0  0  0  0  0  0  0  0  0  0  0
   24.7218  -16.5322    4.8538 C   0  0  0  0  0  0  0  0  0  0  0  0
   25.6575  -16.8743    5.4504 N   0  0  0  0  0  0  0  0  0  0  0  0
   16.6574  -19.2937    6.1660 O   0  0  0  0  0  0  0  0  0  0  0  0
   21.9918  -16.3823    5.5998 H   0  0  0  0  0  0  0  0  0  0  0  0
   16.8886  -19.8359    6.9383 H   0  0  0  0  0  0  0  0  0  0  0  0
  1  2  2  0  0  0  0
  1  6  1  0  0  0  0
  2  3  1  0  0  0  0
  3  4  2  0  0  0  0
  3 13  1  0  0  0  0
  4  5  1  0  0  0  0
  5  6  2  0  0  0  0
  6  7  1  0  0  0  0
  7  8  2  0  0  0  0
  7  9  1  0  0  0  0
  9 10  1  0  0  0  0
  9 14  1  0  0  0  0
 10 11  1  0  0  0  0
 11 12  3  0  0  0  0
 13 15  1  0  0  0  0
M  END
>  <CHROM.0>
-49.64200194,-58.99018829,-58.31001731,-52.62980770,-56.38902806,-61.18469607
-60.88363831,-52.04056564,-166.61318220,160.23881393

>  <CHROM.1>
154.33669223,-27.24331880,-126.39747577,20.74099622,-17.75781583,4.78721381
2.94985607,0.29797227,1.76757780

>  <Name>
P56076031

>  <RI>
0

>  <Rbt.Current_Directory>
/home/fstefaniak/projects/zuza/docking/adenine/1Y26

>  <Rbt.Executable>
rbdock ($Id: //depot/dev/client3/rdock/2013.1/src/exe/rbdock.cxx#4 $)

>  <Rbt.Library>
libRbt.so (2013.1, Build901 2013/11/27)

>  <Rbt.Parameter_File>
/home/fstefaniak/progs/rDock//data/scripts/dock_solv.prm

>  <Rbt.Receptor>
1y26.prm

>  <SCORE>
-59.1876

>  <SCORE.INTER>
-37.6135

>  <SCORE.INTER.CONST>
1

>  <SCORE.INTER.POLAR>
-4.06944

>  <SCORE.INTER.ROT>
2

>  <SCORE.INTER.SOLV>
15.7856

>  <SCORE.INTER.VDW>
-21.7061

>  <SCORE.INTER.norm>
-2.89335

>  <SCORE.INTRA>
0.748249

>  <SCORE.INTRA.DIHEDRAL>
1.64826

>  <SCORE.INTRA.DIHEDRAL.0>
3.46659

>  <SCORE.INTRA.POLAR>
0

>  <SCORE.INTRA.POLAR.0>
0

>  <SCORE.INTRA.REPUL>
0

>  <SCORE.INTRA.REPUL.0>
0

>  <SCORE.INTRA.SOLV>
-0.00474681

>  <SCORE.INTRA.SOLV.lig_0>
-19.1899

>  <SCORE.INTRA.VDW>
-0.0735103

>  <SCORE.INTRA.VDW.0>
-0.0507619

>  <SCORE.INTRA.norm>
0.0575576

>  <SCORE.RESTR>
0

>  <SCORE.RESTR.CAVITY>
0

>  <SCORE.RESTR.norm>
0

>  <SCORE.SYSTEM>
-22.3223

>  <SCORE.SYSTEM.CONST>
0

>  <SCORE.SYSTEM.DIHEDRAL>
5.6343

>  <SCORE.SYSTEM.POLAR>
-3.47676

>  <SCORE.SYSTEM.SOLV>
0.654089

>  <SCORE.SYSTEM.VDW>
-5.38846

>  <SCORE.SYSTEM.norm>
-1.7171

>  <SCORE.heavy>
13

>  <SCORE.norm>
-4.55289

$$$$
P56550642
 OpenBabel12072022103D
libRbt.so/2013.1/901 2013/11/27
 14 13  0  0  0  0  0  0  0  0999 V2000
   18.7883  -18.4951    2.2210 C   0  0  0  0  0  0  0  0  0  0  0  0
   18.4109  -17.9758    3.6019 C   0  0  0  0  0  0  0  0  0  0  0  0
   19.6230  -17.6424    4.4371 C   0  0  0  0  0  0  0  0  0  0  0  0
   19.9346  -18.2111    5.6204 C   0  0  0  0  0  0  0  0  0  0  0  0
   19.1576  -19.2766    6.3298 C   0  0  0  0  0  0  0  0  0  0  0  0
   20.4988  -16.5645    3.8614 C   0  0  0  0  0  0  0  0  0  0  0  0
   20.4310  -16.2707    2.6708 O   0  0  0  0  0  0  0  0  0  0  0  0
   21.4265  -16.0493    4.7431 N   0  0  0  0  0  0  0  0  0  0  0  0
   22.3256  -15.0445    4.5319 C   0  0  0  0  0  0  0  0  0  0  0  0
   23.1173  -14.7068    5.4056 O   0  0  0  0  0  0  0  0  0  0  0  0
   22.2920  -14.4311    3.3312 N   0  0  0  0  0  0  0  0  0  0  0  0
   21.4972  -16.4448    5.6673 H   0  0  0  0  0  0  0  0  0  0  0  0
   22.9447  -13.6741    3.1443 H   0  0  0  0  0  0  0  0  0  0  0  0
   21.4379  -14.4776    2.7954 H   0  0  0  0  0  0  0  0  0  0  0  0
  1  2  1  0  0  0  0
  2  3  1  0  0  0  0
  3  4  2  0  0  0  0
  3  6  1  0  0  0  0
  4  5  1  0  0  0  0
  6  7  2  0  0  0  0
  6  8  1  0  0  0  0
  8  9  1  0  0  0  0
  8 12  1  0  0  0  0
  9 10  2  0  0  0  0
  9 11  1  0  0  0  0
 11 13  1  0  0  0  0
 11 14  1  0  0  0  0
M  END
>  <CHROM.0>
-46.82478878,-60.03901735,-59.42799829,-55.69447104,-172.36340242,-62.20072926
-59.46626139,-171.15354485,-167.82976204,161.24592155

>  <CHROM.1>
-119.82687027,-19.10635045,179.59207363,20.57722570,-16.75061005,4.22815962
2.85855391,0.77547773,1.98044147

>  <Name>
P56550642

>  <RI>
0

>  <Rbt.Current_Directory>
/home/fstefaniak/projects/zuza/docking/adenine/1Y26

>  <Rbt.Executable>
rbdock ($Id: //depot/dev/client3/rdock/2013.1/src/exe/rbdock.cxx#4 $)

>  <Rbt.Library>
libRbt.so (2013.1, Build901 2013/11/27)

>  <Rbt.Parameter_File>
/home/fstefaniak/progs/rDock//data/scripts/dock_solv.prm

>  <Rbt.Receptor>
1y26.prm

>  <SCORE>
-49.5691

>  <SCORE.INTER>
-27.6363

>  <SCORE.INTER.CONST>
1

>  <SCORE.INTER.POLAR>
-3.01005

>  <SCORE.INTER.ROT>
3

>  <SCORE.INTER.SOLV>
11.8985

>  <SCORE.INTER.VDW>
-17.9568

>  <SCORE.INTER.norm>
-2.51239

>  <SCORE.INTRA>
0.544483

>  <SCORE.INTRA.DIHEDRAL>
-3.33921

>  <SCORE.INTRA.DIHEDRAL.0>
6.03137

>  <SCORE.INTRA.POLAR>
0

>  <SCORE.INTRA.POLAR.0>
0

>  <SCORE.INTRA.REPUL>
0

>  <SCORE.INTRA.REPUL.0>
0

>  <SCORE.INTRA.SOLV>
0.163936

>  <SCORE.INTRA.SOLV.lig_0>
-16.2901

>  <SCORE.INTRA.VDW>
2.13212

>  <SCORE.INTRA.VDW.0>
-0.228239

>  <SCORE.INTRA.norm>
0.0494984

>  <SCORE.RESTR>
0

>  <SCORE.RESTR.CAVITY>
0

>  <SCORE.RESTR.norm>
0

>  <SCORE.SYSTEM>
-22.4773

>  <SCORE.SYSTEM.CONST>
0

>  <SCORE.SYSTEM.DIHEDRAL>
5.76335

>  <SCORE.SYSTEM.POLAR>
-3.3824

>  <SCORE.SYSTEM.SOLV>
0.273375

>  <SCORE.SYSTEM.VDW>
-5.72248

>  <SCORE.SYSTEM.norm>
-2.04339

>  <SCORE.heavy>
11

>  <SCORE.norm>
-4.50628

$$$$
P56550642
 OpenBabel12072022103D
libRbt.so/2013.1/901 2013/11/27
 14 13  0  0  0  0  0  0  0  0999 V2000
   18.8149  -18.4663    2.2011 C   0  0  0  0  0  0  0  0  0  0  0  0
   18.4302  -18.0022    3.5995 C   0  0  0  0  0  0  0  0  0  0  0  0
   19.6364  -17.6556    4.4378 C   0  0  0  0  0  0  0  0  0  0  0  0
   19.9478  -18.2166    5.6248 C   0  0  0  0  0  0  0  0  0  0  0  0
   19.1764  -19.2852    6.3359 C   0  0  0  0  0  0  0  0  0  0  0  0
   20.5059  -16.5734    3.8607 C   0  0  0  0  0  0  0  0  0  0  0  0
   20.4116  -16.2573    2.6777 O   0  0  0  0  0  0  0  0  0  0  0  0
   21.4583  -16.0809    4.7288 N   0  0  0  0  0  0  0  0  0  0  0  0
   22.3594  -15.0786    4.5142 C   0  0  0  0  0  0  0  0  0  0  0  0
   23.1744  -14.7625    5.3744 O   0  0  0  0  0  0  0  0  0  0  0  0
   22.3014  -14.4431    3.3260 N   0  0  0  0  0  0  0  0  0  0  0  0
   21.5485  -16.4937    5.6437 H   0  0  0  0  0  0  0  0  0  0  0  0
   22.9322  -13.6652    3.1501 H   0  0  0  0  0  0  0  0  0  0  0  0
   21.4453  -14.5022    2.7946 H   0  0  0  0  0  0  0  0  0  0  0  0
  1  2  1  0  0  0  0
  2  3  1  0  0  0  0
  3  4  2  0  0  0  0
  3  6  1  0  0  0  0
  4  5  1  0  0  0  0
  6  7  2  0  0  0  0
  6  8  1  0  0  0  0
  8  9  1  0  0  0  0
  8 12  1  0  0  0  0
  9 10  2  0  0  0  0
  9 11  1  0  0  0  0
 11 13  1  0  0  0  0
 11 14  1  0  0  0  0
M  END
>  <CHROM.0>
-49.67212663,-57.08935437,-60.37999997,-52.42707500,-59.13114278,-61.74894653
-62.71140045,-51.42077045,-167.28991851,160.31636918

>  <CHROM.1>
-122.34852065,-16.86836059,177.38422990,20.59646927,-16.76446072,4.22124679
2.84757081,0.76559197,1.99220214

>  <Name>
P56550642

>  <RI>
0

>  <Rbt.Current_Directory>
/home/fstefaniak/projects/zuza/docking/adenine/1Y26

>  <Rbt.Executable>
rbdock ($Id: //depot/dev/client3/rdock/2013.1/src/exe/rbdock.cxx#4 $)

>  <Rbt.Library>
libRbt.so (2013.1, Build901 2013/11/27)

>  <Rbt.Parameter_File>
/home/fstefaniak/progs/rDock//data/scripts/dock_solv.prm

>  <Rbt.Receptor>
1y26.prm

>  <SCORE>
-49.381

>  <SCORE.INTER>
-27.9405

>  <SCORE.INTER.CONST>
1

>  <SCORE.INTER.POLAR>
-3.01323

>  <SCORE.INTER.ROT>
3

>  <SCORE.INTER.SOLV>
11.8907

>  <SCORE.INTER.VDW>
-18.1465

>  <SCORE.INTER.norm>
-2.54005

>  <SCORE.INTRA>
0.797557

>  <SCORE.INTRA.DIHEDRAL>
-3.55228

>  <SCORE.INTRA.DIHEDRAL.0>
6.03137

>  <SCORE.INTRA.POLAR>
0

>  <SCORE.INTRA.POLAR.0>
0

>  <SCORE.INTRA.REPUL>
0

>  <SCORE.INTRA.REPUL.0>
0

>  <SCORE.INTRA.SOLV>
0.179264

>  <SCORE.INTRA.SOLV.lig_0>
-16.2901

>  <SCORE.INTRA.VDW>
2.48407

>  <SCORE.INTRA.VDW.0>
-0.228239

>  <SCORE.INTRA.norm>
0.0725052

>  <SCORE.RESTR>
0

>  <SCORE.RESTR.CAVITY>
0

>  <SCORE.RESTR.norm>
0

>  <SCORE.SYSTEM>
-22.2381

>  <SCORE.SYSTEM.CONST>
0

>  <SCORE.SYSTEM.DIHEDRAL>
5.61107

>  <SCORE.SYSTEM.POLAR>
-3.46761

>  <SCORE.SYSTEM.SOLV>
0.644765

>  <SCORE.SYSTEM.VDW>
-5.35195

>  <SCORE.SYSTEM.norm>
-2.02164

>  <SCORE.heavy>
11

>  <SCORE.norm>
-4.48919

$$$$
P56550642
 OpenBabel12072022103D
libRbt.so/2013.1/901 2013/11/27
 14 13  0  0  0  0  0  0  0  0999 V2000
   22.1925  -13.8794    5.5291 C   0  0  0  0  0  0  0  0  0  0  0  0
   21.6189  -14.4898    4.2574 C   0  0  0  0  0  0  0  0  0  0  0  0
   21.8056  -15.9867    4.2084 C   0  0  0  0  0  0  0  0  0  0  0  0
   22.9862  -16.6292    4.3271 C   0  0  0  0  0  0  0  0  0  0  0  0
   24.3280  -15.9978    4.5358 C   0  0  0  0  0  0  0  0  0  0  0  0
   20.5397  -16.7652    3.9810 C   0  0  0  0  0  0  0  0  0  0  0  0
   19.8934  -16.6232    2.9463 O   0  0  0  0  0  0  0  0  0  0  0  0
   20.1365  -17.5286    5.0571 N   0  0  0  0  0  0  0  0  0  0  0  0
   19.0625  -18.3664    5.1434 C   0  0  0  0  0  0  0  0  0  0  0  0
   18.8062  -18.9652    6.1826 O   0  0  0  0  0  0  0  0  0  0  0  0
   18.3102  -18.5187    4.0344 N   0  0  0  0  0  0  0  0  0  0  0  0
   20.6614  -17.4818    5.9160 H   0  0  0  0  0  0  0  0  0  0  0  0
   18.7616  -18.7872    3.1638 H   0  0  0  0  0  0  0  0  0  0  0  0
   17.4207  -18.0436    3.9924 H   0  0  0  0  0  0  0  0  0  0  0  0
  1  2  1  0  0  0  0
  2  3  1  0  0  0  0
  3  4  2  0  0  0  0
  3  6  1  0  0  0  0
  4  5  1  0  0  0  0
  6  7  2  0  0  0  0
  6  8  1  0  0  0  0
  8  9  1  0  0  0  0
  8 12  1  0  0  0  0
  9 10  2  0  0  0  0
  9 11  1  0  0  0  0
 11 13  1  0  0  0  0
 11 14  1  0  0  0  0
M  END
>  <CHROM.0>
-50.81549558,-62.27531890,-62.09686481,-52.21837214,-54.23273227,-59.22386647
-62.64352083,69.28350043,-165.90115012,160.97059587

>  <CHROM.1>
-55.26338064,62.28506331,53.42949415,20.83737274,-16.72359250,4.57211401
0.57377134,-0.38428078,-0.60619905

>  <Name>
P56550642

>  <RI>
0

>  <Rbt.Current_Directory>
/home/fstefaniak/projects/zuza/docking/adenine/1Y26

>  <Rbt.Executable>
rbdock ($Id: //depot/dev/client3/rdock/2013.1/src/exe/rbdock.cxx#4 $)

>  <Rbt.Library>
libRbt.so (2013.1, Build901 2013/11/27)

>  <Rbt.Parameter_File>
/home/fstefaniak/progs/rDock//data/scripts/dock_solv.prm

>  <Rbt.Receptor>
1y26.prm

>  <SCORE>
-47.2973

>  <SCORE.INTER>
-29.0903

>  <SCORE.INTER.CONST>
1

>  <SCORE.INTER.POLAR>
-3.02343

>  <SCORE.INTER.ROT>
3

>  <SCORE.INTER.SOLV>
12.0717

>  <SCORE.INTER.VDW>
-18.9393

>  <SCORE.INTER.norm>
-2.64457

>  <SCORE.INTRA>
3.11262

>  <SCORE.INTRA.DIHEDRAL>
5.21594

>  <SCORE.INTRA.DIHEDRAL.0>
6.03137

>  <SCORE.INTRA.POLAR>
0

>  <SCORE.INTRA.POLAR.0>
0

>  <SCORE.INTRA.REPUL>
0

>  <SCORE.INTRA.REPUL.0>
0

>  <SCORE.INTRA.SOLV>
-0.0683129

>  <SCORE.INTRA.SOLV.lig_0>
-16.2901

>  <SCORE.INTRA.VDW>
0.538808

>  <SCORE.INTRA.VDW.0>
-0.228239

>  <SCORE.INTRA.norm>
0.282966

>  <SCORE.RESTR>
0

>  <SCORE.RESTR.CAVITY>
0

>  <SCORE.RESTR.norm>
0

>  <SCORE.SYSTEM>
-21.3197

>  <SCORE.SYSTEM.CONST>
0

>  <SCORE.SYSTEM.DIHEDRAL>
5.77579

>  <SCORE.SYSTEM.POLAR>
-3.41346

>  <SCORE.SYSTEM.SOLV>
0.413285

>  <SCORE.SYSTEM.VDW>
-4.89793

>  <SCORE.SYSTEM.norm>
-1.93815

>  <SCORE.heavy>
11

>  <SCORE.norm>
-4.29976

$$$$
P59171232
 OpenBabel12072022103D
libRbt.so/2013.1/901 2013/11/27
 16 16  0  0  0  0  0  0  0  0999 V2000
   19.8536  -18.2023    0.8348 H   0  0  0  0  0  0  0  0  0  0  0  0
   19.7035  -18.4196    1.8333 N   0  0  0  0  0  0  0  0  0  0  0  0
   18.4271  -18.4700    2.0435 C   0  0  0  0  0  0  0  0  0  0  0  0
   17.5081  -18.2599    1.0838 N   0  0  0  0  0  0  0  0  0  0  0  0
   17.8978  -18.7112    3.2737 N   0  0  0  0  0  0  0  0  0  0  0  0
   18.6580  -18.5712    4.4424 C   0  0  0  0  0  0  0  0  0  0  0  0
   19.5008  -17.4740    4.6878 C   0  0  0  0  0  0  0  0  0  0  0  0
   20.1713  -17.4047    5.9178 C   0  0  0  0  0  0  0  0  0  0  0  0
   19.9863  -18.3965    6.8771 C   0  0  0  0  0  0  0  0  0  0  0  0
   19.1234  -19.4432    6.5969 C   0  0  0  0  0  0  0  0  0  0  0  0
   18.5002  -19.4836    5.4180 N   0  3  0  0  0  0  0  0  0  0  0  0
   17.8358  -20.2432    5.1883 H   0  0  0  0  0  0  0  0  0  0  0  0
   19.6862  -16.3785    3.6759 C   0  0  0  0  0  0  0  0  0  0  0  0
   17.8497  -18.0304    0.1548 H   0  0  0  0  0  0  0  0  0  0  0  0
   16.7566  -18.9414    1.0187 H   0  0  0  0  0  0  0  0  0  0  0  0
   16.9309  -18.4248    3.3760 H   0  0  0  0  0  0  0  0  0  0  0  0
  1  2  1  0  0  0  0
  2  3  2  0  0  0  0
  3  4  1  0  0  0  0
  3  5  1  0  0  0  0
  4 14  1  0  0  0  0
  4 15  1  0  0  0  0
  5  6  1  0  0  0  0
  5 16  1  0  0  0  0
  6  7  2  0  0  0  0
  6 11  1  0  0  0  0
  7  8  1  0  0  0  0
  7 13  1  0  0  0  0
  8  9  2  0  0  0  0
  9 10  1  0  0  0  0
 10 11  2  0  0  0  0
 11 12  1  0  0  0  0
M  CHG  1  11   1
M  END
>  <CHROM.0>
-49.15904451,-61.06871928,-53.98508943,-51.59930634,-57.79712959,-59.93331081
-61.31448711,-50.30051920,-169.21667329,159.25477921

>  <CHROM.1>
-1.39249123,17.22049755,45.06321996,18.97180740,-18.27874842,4.06896014,-1.99156396
0.87197215,1.95226814

>  <Name>
P59171232

>  <RI>
0

>  <Rbt.Current_Directory>
/home/fstefaniak/projects/zuza/docking/adenine/1Y26

>  <Rbt.Executable>
rbdock ($Id: //depot/dev/client3/rdock/2013.1/src/exe/rbdock.cxx#4 $)

>  <Rbt.Library>
libRbt.so (2013.1, Build901 2013/11/27)

>  <Rbt.Parameter_File>
/home/fstefaniak/progs/rDock//data/scripts/dock_solv.prm

>  <Rbt.Receptor>
1y26.prm

>  <SCORE>
-53.2998

>  <SCORE.INTER>
-31.6227

>  <SCORE.INTER.CONST>
1

>  <SCORE.INTER.POLAR>
-4.67378

>  <SCORE.INTER.ROT>
3

>  <SCORE.INTER.SOLV>
23.679

>  <SCORE.INTER.VDW>
-18.9955

>  <SCORE.INTER.norm>
-2.87479

>  <SCORE.INTRA>
0.485401

>  <SCORE.INTRA.DIHEDRAL>
0.00279612

>  <SCORE.INTRA.DIHEDRAL.0>
1.47642

>  <SCORE.INTRA.POLAR>
0.830087

>  <SCORE.INTRA.POLAR.0>
-0.830087

>  <SCORE.INTRA.REPUL>
0

>  <SCORE.INTRA.REPUL.0>
0

>  <SCORE.INTRA.SOLV>
-5.19698

>  <SCORE.INTRA.SOLV.lig_0>
-27.9088

>  <SCORE.INTRA.VDW>
0.260198

>  <SCORE.INTRA.VDW.0>
0.900282

>  <SCORE.INTRA.norm>
0.0441274

>  <SCORE.RESTR>
0

>  <SCORE.RESTR.CAVITY>
0

>  <SCORE.RESTR.norm>
0

>  <SCORE.SYSTEM>
-22.1626

>  <SCORE.SYSTEM.CONST>
0

>  <SCORE.SYSTEM.DIHEDRAL>
5.88288

>  <SCORE.SYSTEM.POLAR>
-3.51478

>  <SCORE.SYSTEM.SOLV>
0.664097

>  <SCORE.SYSTEM.VDW>
-5.24144

>  <SCORE.SYSTEM.norm>
-2.01478

>  <SCORE.heavy>
11

>  <SCORE.norm>
-4.84544

$$$$
P59171232
 OpenBabel12072022103D
libRbt.so/2013.1/901 2013/11/27
 16 16  0  0  0  0  0  0  0  0999 V2000
   19.8457  -18.2653    0.8495 H   0  0  0  0  0  0  0  0  0  0  0  0
   19.6891  -18.4872    1.8460 N   0  0  0  0  0  0  0  0  0  0  0  0
   18.4123  -18.4810    2.0605 C   0  0  0  0  0  0  0  0  0  0  0  0
   17.5010  -18.2174    1.1068 N   0  0  0  0  0  0  0  0  0  0  0  0
   17.8765  -18.7121    3.2898 N   0  0  0  0  0  0  0  0  0  0  0  0
   18.6362  -18.5826    4.4599 C   0  0  0  0  0  0  0  0  0  0  0  0
   19.4984  -17.5004    4.7044 C   0  0  0  0  0  0  0  0  0  0  0  0
   20.1670  -17.4398    5.9359 C   0  0  0  0  0  0  0  0  0  0  0  0
   19.9613  -18.4252    6.8976 C   0  0  0  0  0  0  0  0  0  0  0  0
   19.0800  -19.4567    6.6182 C   0  0  0  0  0  0  0  0  0  0  0  0
   18.4592  -19.4891    5.4377 N   0  3  0  0  0  0  0  0  0  0  0  0
   17.7815  -20.2371    5.2085 H   0  0  0  0  0  0  0  0  0  0  0  0
   19.7064  -16.4115    3.6898 C   0  0  0  0  0  0  0  0  0  0  0  0
   17.8495  -18.0032    0.1766 H   0  0  0  0  0  0  0  0  0  0  0  0
   16.7129  -18.8565    1.0435 H   0  0  0  0  0  0  0  0  0  0  0  0
   16.9141  -18.4101    3.3894 H   0  0  0  0  0  0  0  0  0  0  0  0
  1  2  1  0  0  0  0
  2  3  2  0  0  0  0
  3  4  1  0  0  0  0
  3  5  1  0  0  0  0
  4 14  1  0  0  0  0
  4 15  1  0  0  0  0
  5  6  1  0  0  0  0
  5 16  1  0  0  0  0
  6  7  2  0  0  0  0
  6 11  1  0  0  0  0
  7  8  1  0  0  0  0
  7 13  1  0  0  0  0
  8  9  2  0  0  0  0
  9 10  1  0  0  0  0
 10 11  2  0  0  0  0
 11 12  1  0  0  0  0
M  CHG  1  11   1
M  END
>  <CHROM.0>
-52.09970166,-61.15901780,-58.22429775,-51.22423070,-58.06951190,-177.61545613
-55.46150635,-52.80247181,-166.91621165,161.20282874

>  <CHROM.1>
-0.71747424,19.14071285,44.89881506,18.95585965,-18.29500349,4.08680814,-1.97724340
0.85640571,1.94204884

>  <Name>
P59171232

>  <RI>
0

>  <Rbt.Current_Directory>
/home/fstefaniak/projects/zuza/docking/adenine/1Y26

>  <Rbt.Executable>
rbdock ($Id: //depot/dev/client3/rdock/2013.1/src/exe/rbdock.cxx#4 $)

>  <Rbt.Library>
libRbt.so (2013.1, Build901 2013/11/27)

>  <Rbt.Parameter_File>
/home/fstefaniak/progs/rDock//data/scripts/dock_solv.prm

>  <Rbt.Receptor>
1y26.prm

>  <SCORE>
-53.0584

>  <SCORE.INTER>
-31.3683

>  <SCORE.INTER.CONST>
1

>  <SCORE.INTER.POLAR>
-4.67499

>  <SCORE.INTER.ROT>
3

>  <SCORE.INTER.SOLV>
23.7089

>  <SCORE.INTER.VDW>
-18.8319

>  <SCORE.INTER.norm>
-2.85167

>  <SCORE.INTRA>
0.301925

>  <SCORE.INTRA.DIHEDRAL>
0.00346105

>  <SCORE.INTRA.DIHEDRAL.0>
1.47642

>  <SCORE.INTRA.POLAR>
0.830087

>  <SCORE.INTRA.POLAR.0>
-0.830087

>  <SCORE.INTRA.REPUL>
0

>  <SCORE.INTRA.REPUL.0>
0

>  <SCORE.INTRA.SOLV>
-5.19104

>  <SCORE.INTRA.SOLV.lig_0>
-27.9088

>  <SCORE.INTRA.VDW>
0.0734169

>  <SCORE.INTRA.VDW.0>
0.900282

>  <SCORE.INTRA.norm>
0.0274478

>  <SCORE.RESTR>
0

>  <SCORE.RESTR.CAVITY>
0

>  <SCORE.RESTR.norm>
0

>  <SCORE.SYSTEM>
-21.992

>  <SCORE.SYSTEM.CONST>
0

>  <SCORE.SYSTEM.DIHEDRAL>
5.3742

>  <SCORE.SYSTEM.POLAR>
-3.44267

>  <SCORE.SYSTEM.SOLV>
0.52537

>  <SCORE.SYSTEM.VDW>
-5.15227

>  <SCORE.SYSTEM.norm>
-1.99927

>  <SCORE.heavy>
11

>  <SCORE.norm>
-4.82349

$$$$
P59171232
 OpenBabel12072022103D
libRbt.so/2013.1/901 2013/11/27
 16 16  0  0  0  0  0  0  0  0999 V2000
   19.1571  -16.6587    3.3836 H   0  0  0  0  0  0  0  0  0  0  0  0
   20.1227  -16.4130    3.1115 N   0  0  0  0  0  0  0  0  0  0  0  0
   20.9317  -17.0120    3.9256 C   0  0  0  0  0  0  0  0  0  0  0  0
   20.5198  -17.8003    4.9348 N   0  0  0  0  0  0  0  0  0  0  0  0
   22.2829  -16.8698    3.8501 N   0  0  0  0  0  0  0  0  0  0  0  0
   22.9092  -15.6428    4.1061 C   0  0  0  0  0  0  0  0  0  0  0  0
   24.2105  -15.5341    4.6250 C   0  0  0  0  0  0  0  0  0  0  0  0
   24.7636  -14.2554    4.7873 C   0  0  0  0  0  0  0  0  0  0  0  0
   24.0394  -13.1238    4.4225 C   0  0  0  0  0  0  0  0  0  0  0  0
   22.7710  -13.2862    3.8900 C   0  0  0  0  0  0  0  0  0  0  0  0
   22.2700  -14.5146    3.7485 N   0  3  0  0  0  0  0  0  0  0  0  0
   21.3330  -14.6675    3.3364 H   0  0  0  0  0  0  0  0  0  0  0  0
   25.0179  -16.7469    4.9931 C   0  0  0  0  0  0  0  0  0  0  0  0
   19.7079  -17.4935    5.4633 H   0  0  0  0  0  0  0  0  0  0  0  0
   20.4475  -18.7942    4.7335 H   0  0  0  0  0  0  0  0  0  0  0  0
   22.8065  -17.6741    4.1761 H   0  0  0  0  0  0  0  0  0  0  0  0
  1  2  1  0  0  0  0
  2  3  2  0  0  0  0
  3  4  1  0  0  0  0
  3  5  1  0  0  0  0
  4 14  1  0  0  0  0
  4 15  1  0  0  0  0
  5  6  1  0  0  0  0
  5 16  1  0  0  0  0
  6  7  2  0  0  0  0
  6 11  1  0  0  0  0
  7  8  1  0  0  0  0
  7 13  1  0  0  0  0
  8  9  2  0  0  0  0
  9 10  1  0  0  0  0
 10 11  2  0  0  0  0
 11 12  1  0  0  0  0
M  CHG  1  11   1
M  END
>  <CHROM.0>
-51.23148410,171.35601647,-53.85588852,-52.15355237,-57.08049177,-173.96524167
-60.42355525,-172.49851598,-165.90551178,159.86206784

>  <CHROM.1>
-40.42429819,65.89480594,150.46380853,22.63956271,-15.64098498,4.22001005
2.50956489,0.29197189,2.92647020

>  <Name>
P59171232

>  <RI>
0

>  <Rbt.Current_Directory>
/home/fstefaniak/projects/zuza/docking/adenine/1Y26

>  <Rbt.Executable>
rbdock ($Id: //depot/dev/client3/rdock/2013.1/src/exe/rbdock.cxx#4 $)

>  <Rbt.Library>
libRbt.so (2013.1, Build901 2013/11/27)

>  <Rbt.Parameter_File>
/home/fstefaniak/progs/rDock//data/scripts/dock_solv.prm

>  <Rbt.Receptor>
1y26.prm

>  <SCORE>
-52.3099

>  <SCORE.INTER>
-27.9521

>  <SCORE.INTER.CONST>
1

>  <SCORE.INTER.POLAR>
-3.67276

>  <SCORE.INTER.ROT>
3

>  <SCORE.INTER.SOLV>
15.2523

>  <SCORE.INTER.VDW>
-17.0763

>  <SCORE.INTER.norm>
-2.5411

>  <SCORE.INTRA>
-2.18727

>  <SCORE.INTRA.DIHEDRAL>
-0.00322572

>  <SCORE.INTRA.DIHEDRAL.0>
1.47642

>  <SCORE.INTRA.POLAR>
-0.112873

>  <SCORE.INTRA.POLAR.0>
-0.830087

>  <SCORE.INTRA.REPUL>
0

>  <SCORE.INTRA.REPUL.0>
0

>  <SCORE.INTRA.SOLV>
-1.34412

>  <SCORE.INTRA.SOLV.lig_0>
-27.9088

>  <SCORE.INTRA.VDW>
-1.12983

>  <SCORE.INTRA.VDW.0>
0.900282

>  <SCORE.INTRA.norm>
-0.198843

>  <SCORE.RESTR>
0

>  <SCORE.RESTR.CAVITY>
0

>  <SCORE.RESTR.norm>
0

>  <SCORE.SYSTEM>
-22.1705

>  <SCORE.SYSTEM.CONST>
0

>  <SCORE.SYSTEM.DIHEDRAL>
6.27314

>  <SCORE.SYSTEM.POLAR>
-3.47042

>  <SCORE.SYSTEM.SOLV>
0.265996

>  <SCORE.SYSTEM.VDW>
-5.39196

>  <SCORE.SYSTEM.norm>
-2.0155

>  <SCORE.heavy>
11

>  <SCORE.norm>
-4.75544

$$$$
P59176407
 OpenBabel12072022103D
libRbt.so/2013.1/901 2013/11/27
 12 13  0  0  0  0  0  0  0  0999 V2000
   18.7911  -19.7033    5.9611 C   0  0  0  0  0  0  0  0  0  0  0  0
   19.0096  -19.5856    4.4378 C   0  0  0  0  0  0  0  0  0  0  0  0
   18.9553  -18.0845    4.1775 C   0  0  2  0  0  0  0  0  0  0  0  0
   19.8913  -17.4659    3.1431 C   0  0  0  0  0  0  0  0  0  0  0  0
   20.4221  -16.2055    3.8379 C   0  0  1  0  0  0  0  0  0  0  0  0
   20.2864  -16.5899    5.2717 N   0  3  0  0  0  0  0  0  0  0  0  0
   21.0286  -16.2334    5.8977 H   0  0  0  0  0  0  0  0  0  0  0  0
   19.5872  -17.6336    5.4365 C   0  0  0  0  0  0  0  0  0  0  0  0
   19.5743  -18.5394    6.5929 C   0  0  0  0  0  0  0  0  0  0  0  0
   21.9156  -15.8842    3.6903 C   0  0  0  0  0  0  0  0  0  0  0  0
   22.1496  -14.6361    3.7630 O   0  0  0  0  0  0  0  0  0  0  0  0
   22.6834  -16.8675    3.5883 O   0  5  0  0  0  0  0  0  0  0  0  0
  1  2  1  0  0  0  0
  1  9  1  0  0  0  0
  3  2  1  1  0  0  0
  3  4  1  0  0  0  0
  3  8  1  0  0  0  0
  4  5  1  0  0  0  0
  5  6  1  0  0  0  0
  5 10  1  6  0  0  0
  6  7  1  0  0  0  0
  6  8  2  0  0  0  0
  8  9  1  0  0  0  0
 10 11  2  0  0  0  0
 10 12  1  0  0  0  0
M  CHG  2   6   1  12  -1
M  END
>  <CHROM.0>
-49.38969382,-61.53353640,-56.74412346,-53.14482501,-56.96959264,-59.87766817
-60.66092904,-178.30033736,-168.04656205,161.74263882

>  <CHROM.1>
151.44051812,20.35235661,-17.35147338,4.52930457,-2.85846159,-0.88554957
-1.68593686

>  <Name>
P59176407

>  <RI>
0

>  <Rbt.Current_Directory>
/home/fstefaniak/projects/zuza/docking/adenine/1Y26

>  <Rbt.Executable>
rbdock ($Id: //depot/dev/client3/rdock/2013.1/src/exe/rbdock.cxx#4 $)

>  <Rbt.Library>
libRbt.so (2013.1, Build901 2013/11/27)

>  <Rbt.Parameter_File>
/home/fstefaniak/progs/rDock//data/scripts/dock_solv.prm

>  <Rbt.Receptor>
1y26.prm

>  <SCORE>
-40.6488

>  <SCORE.INTER>
-16.7955

>  <SCORE.INTER.CONST>
1

>  <SCORE.INTER.POLAR>
-1.68898

>  <SCORE.INTER.ROT>
1

>  <SCORE.INTER.SOLV>
21.7194

>  <SCORE.INTER.VDW>
-17.0735

>  <SCORE.INTER.norm>
-1.52686

>  <SCORE.INTRA>
-1.182

>  <SCORE.INTRA.DIHEDRAL>
-0.0541484

>  <SCORE.INTRA.DIHEDRAL.0>
1.04839

>  <SCORE.INTRA.POLAR>
0

>  <SCORE.INTRA.POLAR.0>
0

>  <SCORE.INTRA.REPUL>
0

>  <SCORE.INTRA.REPUL.0>
0

>  <SCORE.INTRA.SOLV>
-0.577924

>  <SCORE.INTRA.SOLV.lig_0>
-44.9961

>  <SCORE.INTRA.VDW>
-0.86596

>  <SCORE.INTRA.VDW.0>
0.527518

>  <SCORE.INTRA.norm>
-0.107454

>  <SCORE.RESTR>
0

>  <SCORE.RESTR.CAVITY>
0

>  <SCORE.RESTR.norm>
0

>  <SCORE.SYSTEM>
-22.6713

>  <SCORE.SYSTEM.CONST>
0

>  <SCORE.SYSTEM.DIHEDRAL>
4.99928

>  <SCORE.SYSTEM.POLAR>
-3.38424

>  <SCORE.SYSTEM.SOLV>
0.448427

>  <SCORE.SYSTEM.VDW>
-5.64933

>  <SCORE.SYSTEM.norm>
-2.06103

>  <SCORE.heavy>
11

>  <SCORE.norm>
-3.69535

$$$$
P59176407
 OpenBabel12072022103D
libRbt.so/2013.1/901 2013/11/27
 12 13  0  0  0  0  0  0  0  0999 V2000
   18.8170  -19.7500    5.9936 C   0  0  0  0  0  0  0  0  0  0  0  0
   19.0139  -19.6305    4.4675 C   0  0  0  0  0  0  0  0  0  0  0  0
   18.9412  -18.1302    4.2078 C   0  0  2  0  0  0  0  0  0  0  0  0
   19.8572  -17.5026    3.1608 C   0  0  0  0  0  0  0  0  0  0  0  0
   20.3848  -16.2368    3.8483 C   0  0  1  0  0  0  0  0  0  0  0  0
   20.2721  -16.6222    5.2838 N   0  3  0  0  0  0  0  0  0  0  0  0
   21.0190  -16.2582    5.8998 H   0  0  0  0  0  0  0  0  0  0  0  0
   19.5855  -17.6727    5.4581 C   0  0  0  0  0  0  0  0  0  0  0  0
   19.5971  -18.5782    6.6147 C   0  0  0  0  0  0  0  0  0  0  0  0
   21.8729  -15.9008    3.6807 C   0  0  0  0  0  0  0  0  0  0  0  0
   22.0974  -14.6517    3.7649 O   0  0  0  0  0  0  0  0  0  0  0  0
   22.6473  -16.8761    3.5542 O   0  5  0  0  0  0  0  0  0  0  0  0
  1  2  1  0  0  0  0
  1  9  1  0  0  0  0
  3  2  1  1  0  0  0
  3  4  1  0  0  0  0
  3  8  1  0  0  0  0
  4  5  1  0  0  0  0
  5  6  1  0  0  0  0
  5 10  1  6  0  0  0
  6  7  1  0  0  0  0
  6  8  2  0  0  0  0
  8  9  1  0  0  0  0
 10 11  2  0  0  0  0
 10 12  1  0  0  0  0
M  CHG  2   6   1  12  -1
M  END
>  <CHROM.0>
-49.94872897,-54.30772480,-52.03555808,-52.76275356,-55.08026119,-62.19692187
-57.85795994,-176.72069459,-167.25975117,160.07815482

>  <CHROM.1>
152.17194238,20.33564720,-17.38334025,4.54076147,-2.84840934,-0.89862761
-1.68255597

>  <Name>
P59176407

>  <RI>
0

>  <Rbt.Current_Directory>
/home/fstefaniak/projects/zuza/docking/adenine/1Y26

>  <Rbt.Executable>
rbdock ($Id: //depot/dev/client3/rdock/2013.1/src/exe/rbdock.cxx#4 $)

>  <Rbt.Library>
libRbt.so (2013.1, Build901 2013/11/27)

>  <Rbt.Parameter_File>
/home/fstefaniak/progs/rDock//data/scripts/dock_solv.prm

>  <Rbt.Receptor>
1y26.prm

>  <SCORE>
-40.5367

>  <SCORE.INTER>
-16.8845

>  <SCORE.INTER.CONST>
1

>  <SCORE.INTER.POLAR>
-1.69604

>  <SCORE.INTER.ROT>
1

>  <SCORE.INTER.SOLV>
21.8459

>  <SCORE.INTER.VDW>
-17.1515

>  <SCORE.INTER.norm>
-1.53495

>  <SCORE.INTRA>
-1.17486

>  <SCORE.INTRA.DIHEDRAL>
-0.0528878

>  <SCORE.INTRA.DIHEDRAL.0>
1.04839

>  <SCORE.INTRA.POLAR>
0

>  <SCORE.INTRA.POLAR.0>
0

>  <SCORE.INTRA.REPUL>
0

>  <SCORE.INTRA.REPUL.0>
0

>  <SCORE.INTRA.SOLV>
-0.580219

>  <SCORE.INTRA.SOLV.lig_0>
-44.9961

>  <SCORE.INTRA.VDW>
-0.858311

>  <SCORE.INTRA.VDW.0>
0.527518

>  <SCORE.INTRA.norm>
-0.106806

>  <SCORE.RESTR>
0

>  <SCORE.RESTR.CAVITY>
0

>  <SCORE.RESTR.norm>
0

>  <SCORE.SYSTEM>
-22.4774

>  <SCORE.SYSTEM.CONST>
0

>  <SCORE.SYSTEM.DIHEDRAL>
5.82267

>  <SCORE.SYSTEM.POLAR>
-3.47964

>  <SCORE.SYSTEM.SOLV>
0.463213

>  <SCORE.SYSTEM.VDW>
-5.48143

>  <SCORE.SYSTEM.norm>
-2.0434

>  <SCORE.heavy>
11

>  <SCORE.norm>
-3.68516

$$$$
P59176407
 OpenBabel12072022103D
libRbt.so/2013.1/901 2013/11/27
 12 13  0  0  0  0  0  0  0  0999 V2000
   18.7555  -19.6448    6.0319 C   0  0  0  0  0  0  0  0  0  0  0  0
   19.0265  -19.6019    4.5131 C   0  0  0  0  0  0  0  0  0  0  0  0
   19.0065  -18.1141    4.1819 C   0  0  2  0  0  0  0  0  0  0  0  0
   19.9868  -17.5591    3.1524 C   0  0  0  0  0  0  0  0  0  0  0  0
   20.5156  -16.2758    3.8059 C   0  0  1  0  0  0  0  0  0  0  0  0
   20.3257  -16.5906    5.2504 N   0  3  0  0  0  0  0  0  0  0  0  0
   21.0526  -16.2167    5.8842 H   0  0  0  0  0  0  0  0  0  0  0  0
   19.6037  -17.6145    5.4394 C   0  0  0  0  0  0  0  0  0  0  0  0
   19.5369  -18.4648    6.6354 C   0  0  0  0  0  0  0  0  0  0  0  0
   22.0184  -15.9849    3.6945 C   0  0  0  0  0  0  0  0  0  0  0  0
   22.2912  -14.7639    3.9233 O   0  0  0  0  0  0  0  0  0  0  0  0
   22.7552  -16.9708    3.4664 O   0  5  0  0  0  0  0  0  0  0  0  0
  1  2  1  0  0  0  0
  1  9  1  0  0  0  0
  3  2  1  1  0  0  0
  3  4  1  0  0  0  0
  3  8  1  0  0  0  0
  4  5  1  0  0  0  0
  5  6  1  0  0  0  0
  5 10  1  1  0  0  0
  6  7  1  0  0  0  0
  6  8  2  0  0  0  0
  8  9  1  0  0  0  0
 10 11  2  0  0  0  0
 10 12  1  0  0  0  0
M  CHG  2   6   1  12  -1
M  END
>  <CHROM.0>
-49.24439892,-57.66282107,-58.91049743,-52.33277118,-56.75290503,-62.02345794
-63.29756935,-176.63992122,-166.54615745,161.20936447

>  <CHROM.1>
161.60238278,20.40365619,-17.38830482,4.54762525,-3.00050107,-0.87244190
-1.88743328

>  <Name>
P59176407

>  <RI>
0

>  <Rbt.Current_Directory>
/home/fstefaniak/projects/zuza/docking/adenine/1Y26

>  <Rbt.Executable>
rbdock ($Id: //depot/dev/client3/rdock/2013.1/src/exe/rbdock.cxx#4 $)

>  <Rbt.Library>
libRbt.so (2013.1, Build901 2013/11/27)

>  <Rbt.Parameter_File>
/home/fstefaniak/progs/rDock//data/scripts/dock_solv.prm

>  <Rbt.Receptor>
1y26.prm

>  <SCORE>
-40.511

>  <SCORE.INTER>
-16.7392

>  <SCORE.INTER.CONST>
1

>  <SCORE.INTER.POLAR>
-1.64176

>  <SCORE.INTER.ROT>
1

>  <SCORE.INTER.SOLV>
21.3191

>  <SCORE.INTER.VDW>
-17.06

>  <SCORE.INTER.norm>
-1.52174

>  <SCORE.INTRA>
-1.0708

>  <SCORE.INTRA.DIHEDRAL>
-0.0315642

>  <SCORE.INTRA.DIHEDRAL.0>
1.04839

>  <SCORE.INTRA.POLAR>
0

>  <SCORE.INTRA.POLAR.0>
0

>  <SCORE.INTRA.REPUL>
0

>  <SCORE.INTRA.REPUL.0>
0

>  <SCORE.INTRA.SOLV>
-0.604621

>  <SCORE.INTRA.SOLV.lig_0>
-44.9961

>  <SCORE.INTRA.VDW>
-0.75271

>  <SCORE.INTRA.VDW.0>
0.527518

>  <SCORE.INTRA.norm>
-0.0973457

>  <SCORE.RESTR>
0

>  <SCORE.RESTR.CAVITY>
0

>  <SCORE.RESTR.norm>
0

>  <SCORE.SYSTEM>
-22.701

>  <SCORE.SYSTEM.CONST>
0

>  <SCORE.SYSTEM.DIHEDRAL>
5.38804

>  <SCORE.SYSTEM.POLAR>
-3.43179

>  <SCORE.SYSTEM.SOLV>
0.43695

>  <SCORE.SYSTEM.VDW>
-5.63641

>  <SCORE.SYSTEM.norm>
-2.06373

>  <SCORE.heavy>
11

>  <SCORE.norm>
-3.68282

$$$$
P59177695
 OpenBabel12072022103D
libRbt.so/2013.1/901 2013/11/27
 13 13  0  0  0  0  0  0  0  0999 V2000
   23.2868  -16.1179    4.0832 C   0  0  0  0  0  0  0  0  0  0  0  0
   21.8923  -16.6720    4.3051 C   0  0  2  0  0  0  0  0  0  0  0  0
   21.4659  -17.6930    3.2673 C   0  0  0  0  0  0  0  0  0  0  0  0
   19.9455  -17.6895    3.3782 C   0  0  2  0  0  0  0  0  0  0  0  0
   19.5672  -16.2620    3.7739 C   0  0  0  0  0  0  0  0  0  0  0  0
   20.8818  -15.5761    4.1100 N   0  3  0  0  0  0  0  0  0  0  0  0
   20.7711  -15.0342    4.9753 H   0  0  0  0  0  0  0  0  0  0  0  0
   21.1443  -14.9403    3.3508 H   0  0  0  0  0  0  0  0  0  0  0  0
   19.3734  -18.4720    4.5906 C   0  0  0  0  0  0  0  0  0  0  0  0
   18.3873  -19.2161    4.3459 O   0  0  0  0  0  0  0  0  0  0  0  0
   19.8723  -18.1321    5.7018 O   0  5  0  0  0  0  0  0  0  0  0  0
   19.3415  -18.0779    2.1331 O   0  0  0  0  0  0  0  0  0  0  0  0
   19.6632  -18.9468    1.8517 H   0  0  0  0  0  0  0  0  0  0  0  0
  2  1  1  6  0  0  0
  2  3  1  0  0  0  0
  2  6  1  0  0  0  0
  3  4  1  0  0  0  0
  4  5  1  0  0  0  0
  4 12  1  6  0  0  0
  4  9  1  0  0  0  0
  5  6  1  0  0  0  0
  6  7  1  0  0  0  0
  6  8  1  0  0  0  0
  9 10  2  0  0  0  0
  9 11  1  0  0  0  0
 12 13  1  0  0  0  0
M  CHG  2   6   1  11  -1
M  END
>  <CHROM.0>
-51.92782106,173.76856511,59.43907775,-54.28839458,-52.72842515,-62.59678515
75.83462588,-51.61857607,-166.88483068,159.81201278

>  <CHROM.1>
56.64001204,-135.45030478,20.38525845,-17.38973474,3.95863528,-0.08766902
0.64024792,1.72790685

>  <Name>
P59177695

>  <RI>
0

>  <Rbt.Current_Directory>
/home/fstefaniak/projects/zuza/docking/adenine/1Y26

>  <Rbt.Executable>
rbdock ($Id: //depot/dev/client3/rdock/2013.1/src/exe/rbdock.cxx#4 $)

>  <Rbt.Library>
libRbt.so (2013.1, Build901 2013/11/27)

>  <Rbt.Parameter_File>
/home/fstefaniak/progs/rDock//data/scripts/dock_solv.prm

>  <Rbt.Receptor>
1y26.prm

>  <SCORE>
-43.8832

>  <SCORE.INTER>
-21.9217

>  <SCORE.INTER.CONST>
1

>  <SCORE.INTER.POLAR>
-4.12045

>  <SCORE.INTER.ROT>
1

>  <SCORE.INTER.SOLV>
22.2435

>  <SCORE.INTER.VDW>
-12.5608

>  <SCORE.INTER.norm>
-2.19217

>  <SCORE.INTRA>
-1.16463

>  <SCORE.INTRA.DIHEDRAL>
-2.10799

>  <SCORE.INTRA.DIHEDRAL.0>
3.19685

>  <SCORE.INTRA.POLAR>
0

>  <SCORE.INTRA.POLAR.0>
0

>  <SCORE.INTRA.REPUL>
0

>  <SCORE.INTRA.REPUL.0>
0

>  <SCORE.INTRA.SOLV>
0.844323

>  <SCORE.INTRA.SOLV.lig_0>
-47.9083

>  <SCORE.INTRA.VDW>
-0.532792

>  <SCORE.INTRA.VDW.0>
1.3151

>  <SCORE.INTRA.norm>
-0.116463

>  <SCORE.RESTR>
0

>  <SCORE.RESTR.CAVITY>
0

>  <SCORE.RESTR.norm>
0

>  <SCORE.SYSTEM>
-20.7969

>  <SCORE.SYSTEM.CONST>
0

>  <SCORE.SYSTEM.DIHEDRAL>
6.91024

>  <SCORE.SYSTEM.POLAR>
-3.70662

>  <SCORE.SYSTEM.SOLV>
0.431479

>  <SCORE.SYSTEM.VDW>
-3.95646

>  <SCORE.SYSTEM.norm>
-2.07969

>  <SCORE.heavy>
10

>  <SCORE.norm>
-4.38832

$$$$
P59177695
 OpenBabel12072022103D
libRbt.so/2013.1/901 2013/11/27
 13 13  0  0  0  0  0  0  0  0999 V2000
   19.3395  -18.8034    7.1665 C   0  0  0  0  0  0  0  0  0  0  0  0
   20.0443  -18.5142    5.8548 C   0  0  2  0  0  0  0  0  0  0  0  0
   19.9615  -17.0629    5.4212 C   0  0  0  0  0  0  0  0  0  0  0  0
   20.2437  -17.1290    3.9246 C   0  0  2  0  0  0  0  0  0  0  0  0
   19.6856  -18.4752    3.4619 C   0  0  0  0  0  0  0  0  0  0  0  0
   19.3315  -19.2235    4.7371 N   0  3  0  0  0  0  0  0  0  0  0  0
   19.6589  -20.1941    4.6639 H   0  0  0  0  0  0  0  0  0  0  0  0
   18.3153  -19.2241    4.8669 H   0  0  0  0  0  0  0  0  0  0  0  0
   21.7384  -17.3056    3.5450 C   0  0  0  0  0  0  0  0  0  0  0  0
   22.5697  -16.8025    4.3462 O   0  0  0  0  0  0  0  0  0  0  0  0
   21.9206  -17.7912    2.3917 O   0  5  0  0  0  0  0  0  0  0  0  0
   19.6240  -16.0283    3.2386 O   0  0  0  0  0  0  0  0  0  0  0  0
   18.7710  -15.8092    3.6414 H   0  0  0  0  0  0  0  0  0  0  0  0
  2  1  1  1  0  0  0
  2  3  1  0  0  0  0
  2  6  1  0  0  0  0
  3  4  1  0  0  0  0
  4  5  1  0  0  0  0
  4 12  1  6  0  0  0
  4  9  1  0  0  0  0
  5  6  1  0  0  0  0
  6  7  1  0  0  0  0
  6  8  1  0  0  0  0
  9 10  2  0  0  0  0
  9 11  1  0  0  0  0
 12 13  1  0  0  0  0
M  CHG  2   6   1  11  -1
M  END
>  <CHROM.0>
-49.98879154,78.85333225,-58.50728799,-50.85761149,-55.64454203,-58.60135630
-58.62934593,-49.46890873,-166.08637699,160.71317350

>  <CHROM.1>
-35.98740238,-30.41151843,20.43184796,-17.70942104,4.39199602,-2.14851506
-0.28160756,-1.24566670

>  <Name>
P59177695

>  <RI>
0

>  <Rbt.Current_Directory>
/home/fstefaniak/projects/zuza/docking/adenine/1Y26

>  <Rbt.Executable>
rbdock ($Id: //depot/dev/client3/rdock/2013.1/src/exe/rbdock.cxx#4 $)

>  <Rbt.Library>
libRbt.so (2013.1, Build901 2013/11/27)

>  <Rbt.Parameter_File>
/home/fstefaniak/progs/rDock//data/scripts/dock_solv.prm

>  <Rbt.Receptor>
1y26.prm

>  <SCORE>
-43.2236

>  <SCORE.INTER>
-22.937

>  <SCORE.INTER.CONST>
1

>  <SCORE.INTER.POLAR>
-4.39339

>  <SCORE.INTER.ROT>
1

>  <SCORE.INTER.SOLV>
23.5021

>  <SCORE.INTER.VDW>
-12.7474

>  <SCORE.INTER.norm>
-2.2937

>  <SCORE.INTRA>
0.317375

>  <SCORE.INTRA.DIHEDRAL>
-0.709703

>  <SCORE.INTRA.DIHEDRAL.0>
3.19685

>  <SCORE.INTRA.POLAR>
0

>  <SCORE.INTRA.POLAR.0>
0

>  <SCORE.INTRA.REPUL>
0

>  <SCORE.INTRA.REPUL.0>
0

>  <SCORE.INTRA.SOLV>
-0.354988

>  <SCORE.INTRA.SOLV.lig_0>
-47.9083

>  <SCORE.INTRA.VDW>
0.84972

>  <SCORE.INTRA.VDW.0>
1.3151

>  <SCORE.INTRA.norm>
0.0317375

>  <SCORE.RESTR>
0

>  <SCORE.RESTR.CAVITY>
0

>  <SCORE.RESTR.norm>
0

>  <SCORE.SYSTEM>
-20.6039

>  <SCORE.SYSTEM.CONST>
0

>  <SCORE.SYSTEM.DIHEDRAL>
7.52548

>  <SCORE.SYSTEM.POLAR>
-3.51373

>  <SCORE.SYSTEM.SOLV>
0.665429

>  <SCORE.SYSTEM.VDW>
-4.75383

>  <SCORE.SYSTEM.norm>
-2.06039

>  <SCORE.heavy>
10

>  <SCORE.norm>
-4.32236

$$$$
P59177695
 OpenBabel12072022103D
libRbt.so/2013.1/901 2013/11/27
 13 13  0  0  0  0  0  0  0  0999 V2000
   19.4069  -18.8016    7.1606 C   0  0  0  0  0  0  0  0  0  0  0  0
   20.0377  -18.4749    5.8203 C   0  0  2  0  0  0  0  0  0  0  0  0
   19.8629  -17.0288    5.3966 C   0  0  0  0  0  0  0  0  0  0  0  0
   20.0818  -17.0780    3.8887 C   0  0  2  0  0  0  0  0  0  0  0  0
   19.5724  -18.4498    3.4456 C   0  0  0  0  0  0  0  0  0  0  0  0
   19.3130  -19.2172    4.7322 N   0  3  0  0  0  0  0  0  0  0  0  0
   19.6852  -20.1699    4.6409 H   0  0  0  0  0  0  0  0  0  0  0  0
   18.3048  -19.2694    4.9066 H   0  0  0  0  0  0  0  0  0  0  0  0
   21.5653  -17.1782    3.4431 C   0  0  0  0  0  0  0  0  0  0  0  0
   21.7709  -17.7806    2.3564 O   0  0  0  0  0  0  0  0  0  0  0  0
   22.3907  -16.7830    4.3160 O   0  5  0  0  0  0  0  0  0  0  0  0
   19.3779  -16.0088    3.2351 O   0  0  0  0  0  0  0  0  0  0  0  0
   19.8522  -15.1710    3.3400 H   0  0  0  0  0  0  0  0  0  0  0  0
  2  1  1  1  0  0  0
  2  3  1  0  0  0  0
  2  6  1  0  0  0  0
  3  4  1  0  0  0  0
  4  5  1  0  0  0  0
  4 12  1  6  0  0  0
  4  9  1  0  0  0  0
  5  6  1  0  0  0  0
  6  7  1  0  0  0  0
  6  8  1  0  0  0  0
  9 10  2  0  0  0  0
  9 11  1  0  0  0  0
 12 13  1  0  0  0  0
M  CHG  2   6   1  11  -1
M  END
>  <CHROM.0>
-43.52513383,82.03503765,-46.92549731,-52.37963440,-53.92065270,-55.70623145
-47.73670219,-51.69939271,-167.69337058,160.26639169

>  <CHROM.1>
77.39548759,150.25082261,20.33252867,-17.67484699,4.36288413,-2.07132219
-0.22322146,-1.18202616

>  <Name>
P59177695

>  <RI>
0

>  <Rbt.Current_Directory>
/home/fstefaniak/projects/zuza/docking/adenine/1Y26

>  <Rbt.Executable>
rbdock ($Id: //depot/dev/client3/rdock/2013.1/src/exe/rbdock.cxx#4 $)

>  <Rbt.Library>
libRbt.so (2013.1, Build901 2013/11/27)

>  <Rbt.Parameter_File>
/home/fstefaniak/progs/rDock//data/scripts/dock_solv.prm

>  <Rbt.Receptor>
1y26.prm

>  <SCORE>
-42.385

>  <SCORE.INTER>
-23.1036

>  <SCORE.INTER.CONST>
1

>  <SCORE.INTER.POLAR>
-4.01075

>  <SCORE.INTER.ROT>
1

>  <SCORE.INTER.SOLV>
23.5228

>  <SCORE.INTER.VDW>
-14.1409

>  <SCORE.INTER.norm>
-2.31036

>  <SCORE.INTRA>
0.452266

>  <SCORE.INTRA.DIHEDRAL>
-1.50955

>  <SCORE.INTRA.DIHEDRAL.0>
3.19685

>  <SCORE.INTRA.POLAR>
0

>  <SCORE.INTRA.POLAR.0>
0

>  <SCORE.INTRA.REPUL>
0

>  <SCORE.INTRA.REPUL.0>
0

>  <SCORE.INTRA.SOLV>
0.283959

>  <SCORE.INTRA.SOLV.lig_0>
-47.9083

>  <SCORE.INTRA.VDW>
1.06506

>  <SCORE.INTRA.VDW.0>
1.3151

>  <SCORE.INTRA.norm>
0.0452266

>  <SCORE.RESTR>
0

>  <SCORE.RESTR.CAVITY>
0

>  <SCORE.RESTR.norm>
0

>  <SCORE.SYSTEM>
-19.7336

>  <SCORE.SYSTEM.CONST>
0

>  <SCORE.SYSTEM.DIHEDRAL>
9.99795

>  <SCORE.SYSTEM.POLAR>
-3.71443

>  <SCORE.SYSTEM.SOLV>
0.713991

>  <SCORE.SYSTEM.VDW>
-4.34494

>  <SCORE.SYSTEM.norm>
-1.97336

>  <SCORE.heavy>
10

>  <SCORE.norm>
-4.2385

$$$$
P59177859
 OpenBabel12072022103D
libRbt.so/2013.1/901 2013/11/27
 11 11  0  0  0  0  0  0  0  0999 V2000
   20.1742  -17.9666    5.5500 C   0  0  0  0  0  0  0  0  0  0  0  0
   19.1099  -18.8369    6.2149 C   0  0  0  0  0  0  0  0  0  0  0  0
   17.7839  -18.7477    5.4600 C   0  0  1  0  0  0  0  0  0  0  0  0
   17.9595  -19.1063    4.0940 O   0  0  0  0  0  0  0  0  0  0  0  0
   18.8551  -18.2135    3.4176 C   0  0  0  0  0  0  0  0  0  0  0  0
   20.2347  -18.2746    4.0553 C   0  0  1  0  0  0  0  0  0  0  0  0
   21.1310  -17.2899    3.3663 N   0  3  0  0  0  0  0  0  0  0  0  0
   22.1666  -17.7212    2.8432 O   0  0  0  0  0  0  0  0  0  0  0  0
   20.7660  -16.1084    3.3680 O   0  5  0  0  0  0  0  0  0  0  0  0
   16.8480  -19.6378    6.0301 O   0  0  0  0  0  0  0  0  0  0  0  0
   17.2036  -20.5261    5.8635 H   0  0  0  0  0  0  0  0  0  0  0  0
  1  2  1  0  0  0  0
  1  6  1  0  0  0  0
  2  3  1  0  0  0  0
  3  4  1  0  0  0  0
  3 10  1  1  0  0  0
  4  5  1  0  0  0  0
  5  6  1  0  0  0  0
  6  7  1  6  0  0  0
  7  8  2  0  0  0  0
  7  9  1  0  0  0  0
 10 11  1  0  0  0  0
M  CHG  2   7   1   9  -1
M  END
>  <CHROM.0>
-52.21978530,-62.71539267,-54.89851872,-51.22950003,-56.59198498,-59.09952394
-58.34245516,-177.30900548,-166.35749333,160.48290859

>  <CHROM.1>
-65.51140147,115.50631207,19.49004584,-18.19948391,4.42639132,-0.58108027
0.41367096,1.74432660

>  <Name>
P59177859

>  <RI>
0

>  <Rbt.Current_Directory>
/home/fstefaniak/projects/zuza/docking/adenine/1Y26

>  <Rbt.Executable>
rbdock ($Id: //depot/dev/client3/rdock/2013.1/src/exe/rbdock.cxx#4 $)

>  <Rbt.Library>
libRbt.so (2013.1, Build901 2013/11/27)

>  <Rbt.Parameter_File>
/home/fstefaniak/progs/rDock//data/scripts/dock_solv.prm

>  <Rbt.Receptor>
1y26.prm

>  <SCORE>
-44.6458

>  <SCORE.INTER>
-21.9654

>  <SCORE.INTER.CONST>
1

>  <SCORE.INTER.POLAR>
-2.60888

>  <SCORE.INTER.ROT>
1

>  <SCORE.INTER.SOLV>
10.1556

>  <SCORE.INTER.VDW>
-13.5992

>  <SCORE.INTER.norm>
-2.19654

>  <SCORE.INTRA>
0.0288256

>  <SCORE.INTRA.DIHEDRAL>
-0.175451

>  <SCORE.INTRA.DIHEDRAL.0>
2.72381

>  <SCORE.INTRA.POLAR>
0

>  <SCORE.INTRA.POLAR.0>
0

>  <SCORE.INTRA.REPUL>
0

>  <SCORE.INTRA.REPUL.0>
0

>  <SCORE.INTRA.SOLV>
0.000565914

>  <SCORE.INTRA.SOLV.lig_0>
-10.8276

>  <SCORE.INTRA.VDW>
0.116268

>  <SCORE.INTRA.VDW.0>
0.156365

>  <SCORE.INTRA.norm>
0.00288256

>  <SCORE.RESTR>
0

>  <SCORE.RESTR.CAVITY>
0

>  <SCORE.RESTR.norm>
0

>  <SCORE.SYSTEM>
-22.7092

>  <SCORE.SYSTEM.CONST>
0

>  <SCORE.SYSTEM.DIHEDRAL>
5.39212

>  <SCORE.SYSTEM.POLAR>
-3.45849

>  <SCORE.SYSTEM.SOLV>
0.455905

>  <SCORE.SYSTEM.VDW>
-5.56052

>  <SCORE.SYSTEM.norm>
-2.27092

>  <SCORE.heavy>
10

>  <SCORE.norm>
-4.46458

$$$$
P59177859
 OpenBabel12072022103D
libRbt.so/2013.1/901 2013/11/27
 11 11  0  0  0  0  0  0  0  0999 V2000
   20.1914  -17.9900    5.6477 C   0  0  0  0  0  0  0  0  0  0  0  0
   19.1075  -18.8536    6.2893 C   0  0  0  0  0  0  0  0  0  0  0  0
   17.7979  -18.7539    5.5075 C   0  0  1  0  0  0  0  0  0  0  0  0
   17.9989  -19.1119    4.1449 O   0  0  0  0  0  0  0  0  0  0  0  0
   18.9146  -18.2246    3.4883 C   0  0  0  0  0  0  0  0  0  0  0  0
   20.2803  -18.2964    4.1540 C   0  0  1  0  0  0  0  0  0  0  0  0
   21.1976  -17.3172    3.4850 N   0  3  0  0  0  0  0  0  0  0  0  0
   20.9919  -16.1118    3.6761 O   0  0  0  0  0  0  0  0  0  0  0  0
   22.1028  -17.7892    2.7871 O   0  5  0  0  0  0  0  0  0  0  0  0
   16.8442  -19.6380    6.0570 O   0  0  0  0  0  0  0  0  0  0  0  0
   17.1887  -20.5290    5.8817 H   0  0  0  0  0  0  0  0  0  0  0  0
  1  2  1  0  0  0  0
  1  6  1  0  0  0  0
  2  3  1  0  0  0  0
  3  4  1  0  0  0  0
  3 10  1  1  0  0  0
  4  5  1  0  0  0  0
  5  6  1  0  0  0  0
  6  7  1  6  0  0  0
  7  8  2  0  0  0  0
  7  9  1  0  0  0  0
 10 11  1  0  0  0  0
M  CHG  2   7   1   9  -1
M  END
>  <CHROM.0>
-50.69053171,-64.11970715,-54.48983743,-52.10949762,-57.24264719,-58.30726415
-60.04405527,-175.74212657,-166.07192832,160.53028274

>  <CHROM.1>
-66.54074751,-51.77643295,19.53012116,-18.21788087,4.50974613,-0.49179678
0.49423312,1.57736925

>  <Name>
P59177859

>  <RI>
0

>  <Rbt.Current_Directory>
/home/fstefaniak/projects/zuza/docking/adenine/1Y26

>  <Rbt.Executable>
rbdock ($Id: //depot/dev/client3/rdock/2013.1/src/exe/rbdock.cxx#4 $)

>  <Rbt.Library>
libRbt.so (2013.1, Build901 2013/11/27)

>  <Rbt.Parameter_File>
/home/fstefaniak/progs/rDock//data/scripts/dock_solv.prm

>  <Rbt.Receptor>
1y26.prm

>  <SCORE>
-44.5666

>  <SCORE.INTER>
-21.8427

>  <SCORE.INTER.CONST>
1

>  <SCORE.INTER.POLAR>
-2.62245

>  <SCORE.INTER.ROT>
1

>  <SCORE.INTER.SOLV>
10.1182

>  <SCORE.INTER.VDW>
-13.4597

>  <SCORE.INTER.norm>
-2.18427

>  <SCORE.INTRA>
-0.0231046

>  <SCORE.INTRA.DIHEDRAL>
-0.117047

>  <SCORE.INTRA.DIHEDRAL.0>
2.72381

>  <SCORE.INTRA.POLAR>
0

>  <SCORE.INTRA.POLAR.0>
0

>  <SCORE.INTRA.REPUL>
0

>  <SCORE.INTRA.REPUL.0>
0

>  <SCORE.INTRA.SOLV>
-0.00240465

>  <SCORE.INTRA.SOLV.lig_0>
-10.8276

>  <SCORE.INTRA.VDW>
0.0366215

>  <SCORE.INTRA.VDW.0>
0.156365

>  <SCORE.INTRA.norm>
-0.00231046

>  <SCORE.RESTR>
0

>  <SCORE.RESTR.CAVITY>
0

>  <SCORE.RESTR.norm>
0

>  <SCORE.SYSTEM>
-22.7008

>  <SCORE.SYSTEM.CONST>
0

>  <SCORE.SYSTEM.DIHEDRAL>
5.57107

>  <SCORE.SYSTEM.POLAR>
-3.4683

>  <SCORE.SYSTEM.SOLV>
0.451672

>  <SCORE.SYSTEM.VDW>
-5.58048

>  <SCORE.SYSTEM.norm>
-2.27008

>  <SCORE.heavy>
10

>  <SCORE.norm>
-4.45666

$$$$
P59177859
 OpenBabel12072022103D
libRbt.so/2013.1/901 2013/11/27
 11 11  0  0  0  0  0  0  0  0999 V2000
   20.2033  -17.9978    5.5030 C   0  0  0  0  0  0  0  0  0  0  0  0
   19.1477  -18.8757    6.1719 C   0  0  0  0  0  0  0  0  0  0  0  0
   17.8003  -18.7435    5.4625 C   0  0  1  0  0  0  0  0  0  0  0  0
   17.9283  -19.0584    4.0805 O   0  0  0  0  0  0  0  0  0  0  0  0
   18.8152  -18.1555    3.4062 C   0  0  0  0  0  0  0  0  0  0  0  0
   20.2129  -18.2563    3.9978 C   0  0  1  0  0  0  0  0  0  0  0  0
   21.1015  -17.2611    3.3138 N   0  3  0  0  0  0  0  0  0  0  0  0
   22.1624  -17.6741    2.8281 O   0  0  0  0  0  0  0  0  0  0  0  0
   20.7051  -16.0902    3.2815 O   0  5  0  0  0  0  0  0  0  0  0  0
   16.8698  -19.6396    6.0320 O   0  0  0  0  0  0  0  0  0  0  0  0
   17.2327  -20.5255    5.8681 H   0  0  0  0  0  0  0  0  0  0  0  0
  1  2  1  0  0  0  0
  1  6  1  0  0  0  0
  2  3  1  0  0  0  0
  3  4  1  0  0  0  0
  3 10  1  1  0  0  0
  4  5  1  0  0  0  0
  5  6  1  0  0  0  0
  6  7  1  6  0  0  0
  7  8  2  0  0  0  0
  7  9  1  0  0  0  0
 10 11  1  0  0  0  0
M  CHG  2   7   1   9  -1
M  END
>  <CHROM.0>
-48.42083176,-62.83078704,-53.89638105,-53.88216188,-54.71527932,-59.99470618
-58.22294619,-175.92556377,-167.59298023,160.77317014

>  <CHROM.1>
-62.45494830,110.38632049,19.48143081,-18.18380953,4.39457553,-0.63174924
0.35444191,1.84907919

>  <Name>
P59177859

>  <RI>
0

>  <Rbt.Current_Directory>
/home/fstefaniak/projects/zuza/docking/adenine/1Y26

>  <Rbt.Executable>
rbdock ($Id: //depot/dev/client3/rdock/2013.1/src/exe/rbdock.cxx#4 $)

>  <Rbt.Library>
libRbt.so (2013.1, Build901 2013/11/27)

>  <Rbt.Parameter_File>
/home/fstefaniak/progs/rDock//data/scripts/dock_solv.prm

>  <Rbt.Receptor>
1y26.prm

>  <SCORE>
-44.5597

>  <SCORE.INTER>
-22.0025

>  <SCORE.INTER.CONST>
1

>  <SCORE.INTER.POLAR>
-2.62098

>  <SCORE.INTER.ROT>
1

>  <SCORE.INTER.SOLV>
10.1547

>  <SCORE.INTER.VDW>
-13.5833

>  <SCORE.INTER.norm>
-2.20025

>  <SCORE.INTRA>
0.0881879

>  <SCORE.INTRA.DIHEDRAL>
-0.297038

>  <SCORE.INTRA.DIHEDRAL.0>
2.72381

>  <SCORE.INTRA.POLAR>
0

>  <SCORE.INTRA.POLAR.0>
0

>  <SCORE.INTRA.REPUL>
0

>  <SCORE.INTRA.REPUL.0>
0

>  <SCORE.INTRA.SOLV>
0.00104429

>  <SCORE.INTRA.SOLV.lig_0>
-10.8276

>  <SCORE.INTRA.VDW>
0.236185

>  <SCORE.INTRA.VDW.0>
0.156365

>  <SCORE.INTRA.norm>
0.00881879

>  <SCORE.RESTR>
0

>  <SCORE.RESTR.CAVITY>
0

>  <SCORE.RESTR.norm>
0

>  <SCORE.SYSTEM>
-22.6454

>  <SCORE.SYSTEM.CONST>
0

>  <SCORE.SYSTEM.DIHEDRAL>
5.55094

>  <SCORE.SYSTEM.POLAR>
-3.44767

>  <SCORE.SYSTEM.SOLV>
0.457328

>  <SCORE.SYSTEM.VDW>
-5.60746

>  <SCORE.SYSTEM.norm>
-2.26454

>  <SCORE.heavy>
10

>  <SCORE.norm>
-4.45597

$$$$
P59177909
 OpenBabel12072022103D
libRbt.so/2013.1/901 2013/11/27
 11 11  0  0  0  0  0  0  0  0999 V2000
   19.8971  -15.6965    3.6445 C   0  0  0  0  0  0  0  0  0  0  0  0
   20.0470  -17.1830    3.9895 C   0  0  2  0  0  0  0  0  0  0  0  0
   18.9780  -18.0041    3.1710 C   0  0  2  0  0  0  0  0  0  0  0  0
   18.9175  -19.3734    3.5871 O   0  0  0  0  0  0  0  0  0  0  0  0
   18.6657  -19.4469    4.9926 C   0  0  0  0  0  0  0  0  0  0  0  0
   19.7571  -18.7191    5.7719 C   0  0  0  0  0  0  0  0  0  0  0  0
   19.8175  -17.3350    5.4019 O   0  0  0  0  0  0  0  0  0  0  0  0
   19.2753  -17.9891    1.7791 O   0  0  0  0  0  0  0  0  0  0  0  0
   21.3495  -17.6687    3.6010 O   0  0  0  0  0  0  0  0  0  0  0  0
   22.4397  -16.8769    4.0508 C   0  0  0  0  0  0  0  0  0  0  0  0
   19.9204  -18.7146    1.6792 H   0  0  0  0  0  0  0  0  0  0  0  0
  2  3  1  0  0  0  0
  2  7  1  0  0  0  0
  2  9  1  0  0  0  0
  2  1  1  6  0  0  0
  3  4  1  0  0  0  0
  3  8  1  6  0  0  0
  4  5  1  0  0  0  0
  5  6  1  0  0  0  0
  6  7  1  0  0  0  0
  8 11  1  0  0  0  0
  9 10  1  0  0  0  0
M  END
>  <CHROM.0>
-46.26763975,-178.66618619,-55.57585411,-51.14444920,-56.77059602,-54.91113594
-56.96951378,-175.39779272,-166.14358822,161.13124618

>  <CHROM.1>
50.26661089,84.25371047,19.93215105,-17.83588296,3.96520739,0.33162251,-0.73478356
-1.27521231

>  <Name>
P59177909

>  <RI>
0

>  <Rbt.Current_Directory>
/home/fstefaniak/projects/zuza/docking/adenine/1Y26

>  <Rbt.Executable>
rbdock ($Id: //depot/dev/client3/rdock/2013.1/src/exe/rbdock.cxx#4 $)

>  <Rbt.Library>
libRbt.so (2013.1, Build901 2013/11/27)

>  <Rbt.Parameter_File>
/home/fstefaniak/progs/rDock//data/scripts/dock_solv.prm

>  <Rbt.Receptor>
1y26.prm

>  <SCORE>
-40.3815

>  <SCORE.INTER>
-21.0796

>  <SCORE.INTER.CONST>
1

>  <SCORE.INTER.POLAR>
-3.54374

>  <SCORE.INTER.ROT>
1

>  <SCORE.INTER.SOLV>
9.39687

>  <SCORE.INTER.VDW>
-9.63956

>  <SCORE.INTER.norm>
-2.10796

>  <SCORE.INTRA>
3.3755

>  <SCORE.INTRA.DIHEDRAL>
2.36472

>  <SCORE.INTRA.DIHEDRAL.0>
0.69592

>  <SCORE.INTRA.POLAR>
0.212985

>  <SCORE.INTRA.POLAR.0>
-0.212985

>  <SCORE.INTRA.REPUL>
0

>  <SCORE.INTRA.REPUL.0>
0

>  <SCORE.INTRA.SOLV>
0.035726

>  <SCORE.INTRA.SOLV.lig_0>
-9.12406

>  <SCORE.INTRA.VDW>
1.45113

>  <SCORE.INTRA.VDW.0>
3.19282

>  <SCORE.INTRA.norm>
0.33755

>  <SCORE.RESTR>
0

>  <SCORE.RESTR.CAVITY>
0

>  <SCORE.RESTR.norm>
0

>  <SCORE.SYSTEM>
-22.6774

>  <SCORE.SYSTEM.CONST>
0

>  <SCORE.SYSTEM.DIHEDRAL>
6.06716

>  <SCORE.SYSTEM.POLAR>
-3.5361

>  <SCORE.SYSTEM.SOLV>
0.417445

>  <SCORE.SYSTEM.VDW>
-5.49283

>  <SCORE.SYSTEM.norm>
-2.26774

>  <SCORE.heavy>
10

>  <SCORE.norm>
-4.03815

$$$$
P59177909
 OpenBabel12072022103D
libRbt.so/2013.1/901 2013/11/27
 11 11  0  0  0  0  0  0  0  0999 V2000
   19.8907  -15.6768    3.6698 C   0  0  0  0  0  0  0  0  0  0  0  0
   20.0331  -17.1646    4.0123 C   0  0  2  0  0  0  0  0  0  0  0  0
   18.9329  -17.9742    3.2244 C   0  0  2  0  0  0  0  0  0  0  0  0
   18.8683  -19.3424    3.6436 O   0  0  0  0  0  0  0  0  0  0  0  0
   18.6543  -19.4119    5.0556 C   0  0  0  0  0  0  0  0  0  0  0  0
   19.7748  -18.6958    5.8038 C   0  0  0  0  0  0  0  0  0  0  0  0
   19.8407  -17.3128    5.4306 O   0  0  0  0  0  0  0  0  0  0  0  0
   19.1920  -17.9638    1.8249 O   0  0  0  0  0  0  0  0  0  0  0  0
   21.3189  -17.6654    3.5888 O   0  0  0  0  0  0  0  0  0  0  0  0
   22.4291  -16.8794    3.9979 C   0  0  0  0  0  0  0  0  0  0  0  0
   19.7901  -18.7250    1.7013 H   0  0  0  0  0  0  0  0  0  0  0  0
  2  3  1  0  0  0  0
  2  7  1  0  0  0  0
  2  9  1  0  0  0  0
  2  1  1  6  0  0  0
  3  4  1  0  0  0  0
  3  8  1  6  0  0  0
  4  5  1  0  0  0  0
  5  6  1  0  0  0  0
  6  7  1  0  0  0  0
  8 11  1  0  0  0  0
  9 10  1  0  0  0  0
M  END
>  <CHROM.0>
-51.81167490,-178.82344286,-58.20861727,-49.84427662,-56.33585749,-58.92435938
-60.77826767,-176.66966940,-167.37626512,161.26254178

>  <CHROM.1>
49.74882912,87.03438875,19.90993697,-17.81573496,3.99089934,0.36326369,-0.71661785
-1.25789107

>  <Name>
P59177909

>  <RI>
0

>  <Rbt.Current_Directory>
/home/fstefaniak/projects/zuza/docking/adenine/1Y26

>  <Rbt.Executable>
rbdock ($Id: //depot/dev/client3/rdock/2013.1/src/exe/rbdock.cxx#4 $)

>  <Rbt.Library>
libRbt.so (2013.1, Build901 2013/11/27)

>  <Rbt.Parameter_File>
/home/fstefaniak/progs/rDock//data/scripts/dock_solv.prm

>  <Rbt.Receptor>
1y26.prm

>  <SCORE>
-40.3274

>  <SCORE.INTER>
-21.2927

>  <SCORE.INTER.CONST>
1

>  <SCORE.INTER.POLAR>
-3.53545

>  <SCORE.INTER.ROT>
1

>  <SCORE.INTER.SOLV>
9.36109

>  <SCORE.INTER.VDW>
-9.79735

>  <SCORE.INTER.norm>
-2.12927

>  <SCORE.INTRA>
3.7587

>  <SCORE.INTRA.DIHEDRAL>
2.922

>  <SCORE.INTRA.DIHEDRAL.0>
0.69592

>  <SCORE.INTRA.POLAR>
0.212985

>  <SCORE.INTRA.POLAR.0>
-0.212985

>  <SCORE.INTRA.REPUL>
0

>  <SCORE.INTRA.REPUL.0>
0

>  <SCORE.INTRA.SOLV>
0.0384821

>  <SCORE.INTRA.SOLV.lig_0>
-9.12406

>  <SCORE.INTRA.VDW>
1.55431

>  <SCORE.INTRA.VDW.0>
3.19282

>  <SCORE.INTRA.norm>
0.37587

>  <SCORE.RESTR>
0

>  <SCORE.RESTR.CAVITY>
0

>  <SCORE.RESTR.norm>
0

>  <SCORE.SYSTEM>
-22.7934

>  <SCORE.SYSTEM.CONST>
0

>  <SCORE.SYSTEM.DIHEDRAL>
5.19372

>  <SCORE.SYSTEM.POLAR>
-3.43121

>  <SCORE.SYSTEM.SOLV>
0.395412

>  <SCORE.SYSTEM.VDW>
-5.62127

>  <SCORE.SYSTEM.norm>
-2.27934

>  <SCORE.heavy>
10

>  <SCORE.norm>
-4.03274

$$$$
P59177909
 OpenBabel12072022103D
libRbt.so/2013.1/901 2013/11/27
 11 11  0  0  0  0  0  0  0  0999 V2000
   19.9192  -15.6724    3.6400 C   0  0  0  0  0  0  0  0  0  0  0  0
   20.0520  -17.1561    4.0034 C   0  0  2  0  0  0  0  0  0  0  0  0
   18.9690  -17.9741    3.2003 C   0  0  2  0  0  0  0  0  0  0  0  0
   18.8932  -19.3371    3.6342 O   0  0  0  0  0  0  0  0  0  0  0  0
   18.6471  -19.3895    5.0416 C   0  0  0  0  0  0  0  0  0  0  0  0
   19.7511  -18.6656    5.8066 C   0  0  0  0  0  0  0  0  0  0  0  0
   19.8271  -17.2872    5.4186 O   0  0  0  0  0  0  0  0  0  0  0  0
   19.2599  -17.9806    1.8070 O   0  0  0  0  0  0  0  0  0  0  0  0
   21.3464  -17.6632    3.6153 O   0  0  0  0  0  0  0  0  0  0  0  0
   22.4470  -16.8628    4.0227 C   0  0  0  0  0  0  0  0  0  0  0  0
   19.8619  -18.7422    1.7067 H   0  0  0  0  0  0  0  0  0  0  0  0
  2  3  1  0  0  0  0
  2  7  1  0  0  0  0
  2  9  1  0  0  0  0
  2  1  1  6  0  0  0
  3  4  1  0  0  0  0
  3  8  1  6  0  0  0
  4  5  1  0  0  0  0
  5  6  1  0  0  0  0
  6  7  1  0  0  0  0
  8 11  1  0  0  0  0
  9 10  1  0  0  0  0
M  END
>  <CHROM.0>
-177.40782282,-177.97870270,-56.18854780,-53.34424351,-56.07253483,-59.52731929
-59.66987198,-52.18226816,-166.52610205,160.56907891

>  <CHROM.1>
48.83965951,86.86873245,19.92843277,-17.80629609,3.98514938,0.33808805,-0.72329909
-1.29243644

>  <Name>
P59177909

>  <RI>
0

>  <Rbt.Current_Directory>
/home/fstefaniak/projects/zuza/docking/adenine/1Y26

>  <Rbt.Executable>
rbdock ($Id: //depot/dev/client3/rdock/2013.1/src/exe/rbdock.cxx#4 $)

>  <Rbt.Library>
libRbt.so (2013.1, Build901 2013/11/27)

>  <Rbt.Parameter_File>
/home/fstefaniak/progs/rDock//data/scripts/dock_solv.prm

>  <Rbt.Receptor>
1y26.prm

>  <SCORE>
-39.2207

>  <SCORE.INTER>
-21.8104

>  <SCORE.INTER.CONST>
1

>  <SCORE.INTER.POLAR>
-3.58137

>  <SCORE.INTER.ROT>
1

>  <SCORE.INTER.SOLV>
9.33271

>  <SCORE.INTER.VDW>
-9.9799

>  <SCORE.INTER.norm>
-2.18104

>  <SCORE.INTRA>
3.97692

>  <SCORE.INTRA.DIHEDRAL>
2.98721

>  <SCORE.INTRA.DIHEDRAL.0>
0.69592

>  <SCORE.INTRA.POLAR>
0.212985

>  <SCORE.INTRA.POLAR.0>
-0.212985

>  <SCORE.INTRA.REPUL>
0

>  <SCORE.INTRA.REPUL.0>
0

>  <SCORE.INTRA.SOLV>
0.0388349

>  <SCORE.INTRA.SOLV.lig_0>
-9.12406

>  <SCORE.INTRA.VDW>
1.73975

>  <SCORE.INTRA.VDW.0>
3.19282

>  <SCORE.INTRA.norm>
0.397692

>  <SCORE.RESTR>
0

>  <SCORE.RESTR.CAVITY>
0

>  <SCORE.RESTR.norm>
0

>  <SCORE.SYSTEM>
-21.3873

>  <SCORE.SYSTEM.CONST>
0

>  <SCORE.SYSTEM.DIHEDRAL>
5.13379

>  <SCORE.SYSTEM.POLAR>
-3.23685

>  <SCORE.SYSTEM.SOLV>
0.555364

>  <SCORE.SYSTEM.VDW>
-5.36505

>  <SCORE.SYSTEM.norm>
-2.13873

>  <SCORE.heavy>
10

>  <SCORE.norm>
-3.92207

$$$$
P59178709
 OpenBabel12072022103D
libRbt.so/2013.1/901 2013/11/27
 12 12  0  0  0  0  0  0  0  0999 V2000
   17.9853  -18.3895    0.5292 H   0  0  0  0  0  0  0  0  0  0  0  0
   17.5704  -18.6508    1.4254 N   0  0  0  0  0  0  0  0  0  0  0  0
   18.3892  -18.3656    2.3582 C   0  0  0  0  0  0  0  0  0  0  0  0
   19.6271  -17.8177    2.2327 N   0  0  0  0  0  0  0  0  0  0  0  0
   20.3301  -17.7785    3.5129 C   0  0  0  0  0  0  0  0  0  0  0  0
   19.1679  -17.9096    4.5183 C   0  0  1  0  0  0  0  0  0  0  0  0
   18.1533  -18.5515    3.6805 N   0  0  0  0  0  0  0  0  0  0  0  0
   19.5848  -18.7150    5.7377 C   0  0  0  0  0  0  0  0  0  0  0  0
   20.1493  -18.1895    6.6965 O   0  0  0  0  0  0  0  0  0  0  0  0
   19.0464  -20.3740    5.6910 Cl  0  0  0  0  0  0  0  0  0  0  0  0
   20.1515  -17.9930    1.3860 H   0  0  0  0  0  0  0  0  0  0  0  0
   17.1864  -18.6232    3.9711 H   0  0  0  0  0  0  0  0  0  0  0  0
  1  2  1  0  0  0  0
  2  3  2  0  0  0  0
  3  4  1  0  0  0  0
  3  7  1  0  0  0  0
  4  5  1  0  0  0  0
  4 11  1  0  0  0  0
  5  6  1  0  0  0  0
  6  7  1  0  0  0  0
  6  8  1  1  0  0  0
  7 12  1  0  0  0  0
  8  9  2  0  0  0  0
  8 10  1  0  0  0  0
M  END
>  <CHROM.0>
-49.63863862,-169.50552413,-54.77168004,-52.87060598,-56.79101354,-60.95999278
-61.26533568,-53.13614928,-168.29005790,159.76722166

>  <CHROM.1>
85.39863701,19.10689414,-18.75352164,4.22166448,1.91882276,-0.83589451,-1.02854435

>  <Name>
P59178709

>  <RI>
0

>  <Rbt.Current_Directory>
/home/fstefaniak/projects/zuza/docking/adenine/1Y26

>  <Rbt.Executable>
rbdock ($Id: //depot/dev/client3/rdock/2013.1/src/exe/rbdock.cxx#4 $)

>  <Rbt.Library>
libRbt.so (2013.1, Build901 2013/11/27)

>  <Rbt.Parameter_File>
/home/fstefaniak/progs/rDock//data/scripts/dock_solv.prm

>  <Rbt.Receptor>
1y26.prm

>  <SCORE>
-57.0152

>  <SCORE.INTER>
-34.5665

>  <SCORE.INTER.CONST>
1

>  <SCORE.INTER.POLAR>
-4.34236

>  <SCORE.INTER.ROT>
1

>  <SCORE.INTER.SOLV>
13.5745

>  <SCORE.INTER.VDW>
-17.3613

>  <SCORE.INTER.norm>
-3.84073

>  <SCORE.INTRA>
-0.165277

>  <SCORE.INTRA.DIHEDRAL>
0.426165

>  <SCORE.INTRA.DIHEDRAL.0>
1.47355

>  <SCORE.INTRA.POLAR>
0

>  <SCORE.INTRA.POLAR.0>
0

>  <SCORE.INTRA.REPUL>
0

>  <SCORE.INTRA.REPUL.0>
0

>  <SCORE.INTRA.SOLV>
0.0118961

>  <SCORE.INTRA.SOLV.lig_0>
-16.4933

>  <SCORE.INTRA.VDW>
-0.384308

>  <SCORE.INTRA.VDW.0>
-0.167551

>  <SCORE.INTRA.norm>
-0.0183641

>  <SCORE.RESTR>
0

>  <SCORE.RESTR.CAVITY>
0

>  <SCORE.RESTR.norm>
0

>  <SCORE.SYSTEM>
-22.2834

>  <SCORE.SYSTEM.CONST>
0

>  <SCORE.SYSTEM.DIHEDRAL>
6.04842

>  <SCORE.SYSTEM.POLAR>
-3.47145

>  <SCORE.SYSTEM.SOLV>
0.59231

>  <SCORE.SYSTEM.VDW>
-5.49766

>  <SCORE.SYSTEM.norm>
-2.47593

>  <SCORE.heavy>
9

>  <SCORE.norm>
-6.33502

$$$$
P59178709
 OpenBabel12072022103D
libRbt.so/2013.1/901 2013/11/27
 12 12  0  0  0  0  0  0  0  0999 V2000
   18.0799  -18.3732    0.5201 H   0  0  0  0  0  0  0  0  0  0  0  0
   17.6503  -18.6473    1.4055 N   0  0  0  0  0  0  0  0  0  0  0  0
   18.4507  -18.3691    2.3562 C   0  0  0  0  0  0  0  0  0  0  0  0
   19.6878  -17.8135    2.2596 N   0  0  0  0  0  0  0  0  0  0  0  0
   20.3674  -17.7860    3.5527 C   0  0  0  0  0  0  0  0  0  0  0  0
   19.1880  -17.9349    4.5353 C   0  0  1  0  0  0  0  0  0  0  0  0
   18.1919  -18.5718    3.6718 N   0  0  0  0  0  0  0  0  0  0  0  0
   19.5870  -18.7526    5.7525 C   0  0  0  0  0  0  0  0  0  0  0  0
   20.1431  -18.2379    6.7220 O   0  0  0  0  0  0  0  0  0  0  0  0
   19.0412  -20.4084    5.6856 Cl  0  0  0  0  0  0  0  0  0  0  0  0
   20.2282  -17.9761    1.4205 H   0  0  0  0  0  0  0  0  0  0  0  0
   17.2204  -18.6518    3.9440 H   0  0  0  0  0  0  0  0  0  0  0  0
  1  2  1  0  0  0  0
  2  3  2  0  0  0  0
  3  4  1  0  0  0  0
  3  7  1  0  0  0  0
  4  5  1  0  0  0  0
  4 11  1  0  0  0  0
  5  6  1  0  0  0  0
  6  7  1  0  0  0  0
  6  8  1  1  0  0  0
  7 12  1  0  0  0  0
  8  9  2  0  0  0  0
  8 10  1  0  0  0  0
M  END
>  <CHROM.0>
-46.89660138,-168.90200009,-54.57758322,-52.22228339,-55.95410751,-60.34985620
-60.48426837,-49.35609960,-166.23081968,160.57993821

>  <CHROM.1>
84.68261944,19.13387533,-18.77447550,4.22926742,1.89415510,-0.84272927,-1.03691412

>  <Name>
P59178709

>  <RI>
0

>  <Rbt.Current_Directory>
/home/fstefaniak/projects/zuza/docking/adenine/1Y26

>  <Rbt.Executable>
rbdock ($Id: //depot/dev/client3/rdock/2013.1/src/exe/rbdock.cxx#4 $)

>  <Rbt.Library>
libRbt.so (2013.1, Build901 2013/11/27)

>  <Rbt.Parameter_File>
/home/fstefaniak/progs/rDock//data/scripts/dock_solv.prm

>  <Rbt.Receptor>
1y26.prm

>  <SCORE>
-56.9389

>  <SCORE.INTER>
-34.5255

>  <SCORE.INTER.CONST>
1

>  <SCORE.INTER.POLAR>
-4.30871

>  <SCORE.INTER.ROT>
1

>  <SCORE.INTER.SOLV>
13.5518

>  <SCORE.INTER.VDW>
-17.4385

>  <SCORE.INTER.norm>
-3.83616

>  <SCORE.INTRA>
-0.143937

>  <SCORE.INTRA.DIHEDRAL>
0.456252

>  <SCORE.INTRA.DIHEDRAL.0>
1.47355

>  <SCORE.INTRA.POLAR>
0

>  <SCORE.INTRA.POLAR.0>
0

>  <SCORE.INTRA.REPUL>
0

>  <SCORE.INTRA.REPUL.0>
0

>  <SCORE.INTRA.SOLV>
0.0112614

>  <SCORE.INTRA.SOLV.lig_0>
-16.4933

>  <SCORE.INTRA.VDW>
-0.377694

>  <SCORE.INTRA.VDW.0>
-0.167551

>  <SCORE.INTRA.norm>
-0.015993

>  <SCORE.RESTR>
0

>  <SCORE.RESTR.CAVITY>
0

>  <SCORE.RESTR.norm>
0

>  <SCORE.SYSTEM>
-22.2695

>  <SCORE.SYSTEM.CONST>
0

>  <SCORE.SYSTEM.DIHEDRAL>
6.86942

>  <SCORE.SYSTEM.POLAR>
-3.56114

>  <SCORE.SYSTEM.SOLV>
0.602115

>  <SCORE.SYSTEM.VDW>
-5.46637

>  <SCORE.SYSTEM.norm>
-2.47439

>  <SCORE.heavy>
9

>  <SCORE.norm>
-6.32654

$$$$
P59178709
 OpenBabel12072022103D
libRbt.so/2013.1/901 2013/11/27
 12 12  0  0  0  0  0  0  0  0999 V2000
   18.1055  -18.3793    0.5352 H   0  0  0  0  0  0  0  0  0  0  0  0
   17.6723  -18.6614    1.4163 N   0  0  0  0  0  0  0  0  0  0  0  0
   18.4575  -18.3679    2.3750 C   0  0  0  0  0  0  0  0  0  0  0  0
   19.6847  -17.7887    2.2907 N   0  0  0  0  0  0  0  0  0  0  0  0
   20.3504  -17.7481    3.5907 C   0  0  0  0  0  0  0  0  0  0  0  0
   19.1642  -17.9194    4.5613 C   0  0  1  0  0  0  0  0  0  0  0  0
   18.1893  -18.5753    3.6879 N   0  0  0  0  0  0  0  0  0  0  0  0
   19.5664  -18.7292    5.7827 C   0  0  0  0  0  0  0  0  0  0  0  0
   20.1210  -18.2074    6.7494 O   0  0  0  0  0  0  0  0  0  0  0  0
   19.0262  -20.3872    5.7249 Cl  0  0  0  0  0  0  0  0  0  0  0  0
   20.2366  -17.9411    1.4573 H   0  0  0  0  0  0  0  0  0  0  0  0
   17.2167  -18.6738    3.9503 H   0  0  0  0  0  0  0  0  0  0  0  0
  1  2  1  0  0  0  0
  2  3  2  0  0  0  0
  3  4  1  0  0  0  0
  3  7  1  0  0  0  0
  4  5  1  0  0  0  0
  4 11  1  0  0  0  0
  5  6  1  0  0  0  0
  6  7  1  0  0  0  0
  6  8  1  1  0  0  0
  7 12  1  0  0  0  0
  8  9  2  0  0  0  0
  8 10  1  0  0  0  0
M  END
>  <CHROM.0>
-177.94714875,-165.98957127,-56.01915861,-52.46649917,-55.87268030,-57.83059284
-58.18929950,-52.02246292,-166.79935521,161.68571799

>  <CHROM.1>
83.56378198,19.12479763,-18.75838281,4.25746989,1.88712488,-0.85372032,-1.04505575

>  <Name>
P59178709

>  <RI>
0

>  <Rbt.Current_Directory>
/home/fstefaniak/projects/zuza/docking/adenine/1Y26

>  <Rbt.Executable>
rbdock ($Id: //depot/dev/client3/rdock/2013.1/src/exe/rbdock.cxx#4 $)

>  <Rbt.Library>
libRbt.so (2013.1, Build901 2013/11/27)

>  <Rbt.Parameter_File>
/home/fstefaniak/progs/rDock//data/scripts/dock_solv.prm

>  <Rbt.Receptor>
1y26.prm

>  <SCORE>
-55.9223

>  <SCORE.INTER>
-34.7826

>  <SCORE.INTER.CONST>
1

>  <SCORE.INTER.POLAR>
-4.33621

>  <SCORE.INTER.ROT>
1

>  <SCORE.INTER.SOLV>
13.5405

>  <SCORE.INTER.VDW>
-17.5146

>  <SCORE.INTER.norm>
-3.86474

>  <SCORE.INTRA>
-0.111117

>  <SCORE.INTRA.DIHEDRAL>
0.50236

>  <SCORE.INTRA.DIHEDRAL.0>
1.47355

>  <SCORE.INTRA.POLAR>
0

>  <SCORE.INTRA.POLAR.0>
0

>  <SCORE.INTRA.REPUL>
0

>  <SCORE.INTRA.REPUL.0>
0

>  <SCORE.INTRA.SOLV>
0.0102281

>  <SCORE.INTRA.SOLV.lig_0>
-16.4933

>  <SCORE.INTRA.VDW>
-0.367411

>  <SCORE.INTRA.VDW.0>
-0.167551

>  <SCORE.INTRA.norm>
-0.0123464

>  <SCORE.RESTR>
0

>  <SCORE.RESTR.CAVITY>
0

>  <SCORE.RESTR.norm>
0

>  <SCORE.SYSTEM>
-21.0285

>  <SCORE.SYSTEM.CONST>
0

>  <SCORE.SYSTEM.DIHEDRAL>
5.92543

>  <SCORE.SYSTEM.POLAR>
-3.21977

>  <SCORE.SYSTEM.SOLV>
0.55609

>  <SCORE.SYSTEM.VDW>
-5.44697

>  <SCORE.SYSTEM.norm>
-2.3365

>  <SCORE.heavy>
9

>  <SCORE.norm>
-6.21359

$$$$
P59182810
 OpenBabel12072022103D
libRbt.so/2013.1/901 2013/11/27
 13 13  0  0  0  0  0  0  0  0999 V2000
   19.2233  -18.5263    5.7886 C   0  0  0  0  0  0  0  0  0  0  0  0
   20.3101  -17.6668    5.6280 C   0  0  0  0  0  0  0  0  0  0  0  0
   20.7240  -17.2659    4.3493 C   0  0  0  0  0  0  0  0  0  0  0  0
   20.0248  -17.7537    3.2312 C   0  0  0  0  0  0  0  0  0  0  0  0
   18.9270  -18.6313    3.3762 C   0  0  0  0  0  0  0  0  0  0  0  0
   18.5361  -19.0014    4.6697 C   0  0  0  0  0  0  0  0  0  0  0  0
   18.1764  -19.1191    2.3202 N   0  0  0  0  0  0  0  0  0  0  0  0
   18.6337  -18.8294    1.2080 O   0  0  0  0  0  0  0  0  0  0  0  0
   20.4550  -17.3101    1.9986 O   0  0  0  0  0  0  0  0  0  0  0  0
   21.9112  -16.3492    4.1986 C   0  0  0  0  0  0  0  0  0  0  0  0
   22.9803  -17.0081    3.5338 O   0  0  0  0  0  0  0  0  0  0  0  0
   20.2154  -17.9910    1.3380 H   0  0  0  0  0  0  0  0  0  0  0  0
   23.2336  -17.7463    4.1216 H   0  0  0  0  0  0  0  0  0  0  0  0
  1  2  2  0  0  0  0
  1  6  1  0  0  0  0
  2  3  1  0  0  0  0
  3  4  2  0  0  0  0
  3 10  1  0  0  0  0
  4  5  1  0  0  0  0
  4  9  1  0  0  0  0
  5  6  2  0  0  0  0
  5  7  1  0  0  0  0
  7  8  2  0  0  0  0
  9 12  1  0  0  0  0
 10 11  1  0  0  0  0
 11 13  1  0  0  0  0
M  END
>  <CHROM.0>
-48.13174845,-60.33533043,-54.33392694,-53.77984392,-57.32804510,-56.84354386
-57.81849117,-176.28317852,-168.07336954,161.92631744

>  <CHROM.1>
114.67594915,153.69797609,7.08126450,-62.94514376,20.05758729,-17.93453469
3.56387952,2.74308529,-0.51569212,-1.56712261

>  <Name>
P59182810

>  <RI>
0

>  <Rbt.Current_Directory>
/home/fstefaniak/projects/zuza/docking/adenine/1Y26

>  <Rbt.Executable>
rbdock ($Id: //depot/dev/client3/rdock/2013.1/src/exe/rbdock.cxx#4 $)

>  <Rbt.Library>
libRbt.so (2013.1, Build901 2013/11/27)

>  <Rbt.Parameter_File>
/home/fstefaniak/progs/rDock//data/scripts/dock_solv.prm

>  <Rbt.Receptor>
1y26.prm

>  <SCORE>
-51.3571

>  <SCORE.INTER>
-30.7164

>  <SCORE.INTER.CONST>
1

>  <SCORE.INTER.POLAR>
-3.31669

>  <SCORE.INTER.ROT>
2

>  <SCORE.INTER.SOLV>
10.1026

>  <SCORE.INTER.VDW>
-17.7228

>  <SCORE.INTER.norm>
-2.7924

>  <SCORE.INTRA>
1.90441

>  <SCORE.INTRA.DIHEDRAL>
-1.52454

>  <SCORE.INTRA.DIHEDRAL.0>
3.34367

>  <SCORE.INTRA.POLAR>
0.691028

>  <SCORE.INTRA.POLAR.0>
-0.691028

>  <SCORE.INTRA.REPUL>
0

>  <SCORE.INTRA.REPUL.0>
0

>  <SCORE.INTRA.SOLV>
-0.127714

>  <SCORE.INTRA.SOLV.lig_0>
-10.199

>  <SCORE.INTRA.VDW>
0.381042

>  <SCORE.INTRA.VDW.0>
-0.343007

>  <SCORE.INTRA.norm>
0.173128

>  <SCORE.RESTR>
0

>  <SCORE.RESTR.CAVITY>
0

>  <SCORE.RESTR.norm>
0

>  <SCORE.SYSTEM>
-22.5451

>  <SCORE.SYSTEM.CONST>
0

>  <SCORE.SYSTEM.DIHEDRAL>
5.26036

>  <SCORE.SYSTEM.POLAR>
-3.41193

>  <SCORE.SYSTEM.SOLV>
0.464726

>  <SCORE.SYSTEM.VDW>
-5.56534

>  <SCORE.SYSTEM.norm>
-2.04956

>  <SCORE.heavy>
11

>  <SCORE.norm>
-4.66883

$$$$
P59182810
 OpenBabel12072022103D
libRbt.so/2013.1/901 2013/11/27
 13 13  0  0  0  0  0  0  0  0999 V2000
   19.2132  -18.5611    5.7673 C   0  0  0  0  0  0  0  0  0  0  0  0
   20.2997  -17.7001    5.6130 C   0  0  0  0  0  0  0  0  0  0  0  0
   20.7195  -17.2975    4.3367 C   0  0  0  0  0  0  0  0  0  0  0  0
   20.0264  -17.7853    3.2147 C   0  0  0  0  0  0  0  0  0  0  0  0
   18.9291  -18.6644    3.3534 C   0  0  0  0  0  0  0  0  0  0  0  0
   18.5322  -19.0361    4.6446 C   0  0  0  0  0  0  0  0  0  0  0  0
   18.1844  -19.1522    2.2933 N   0  0  0  0  0  0  0  0  0  0  0  0
   18.6525  -18.8696    1.1837 O   0  0  0  0  0  0  0  0  0  0  0  0
   20.4623  -17.3400    1.9846 O   0  0  0  0  0  0  0  0  0  0  0  0
   21.9062  -16.3792    4.1927 C   0  0  0  0  0  0  0  0  0  0  0  0
   22.9783  -17.0351    3.5299 O   0  0  0  0  0  0  0  0  0  0  0  0
   20.2430  -18.0287    1.3250 H   0  0  0  0  0  0  0  0  0  0  0  0
   23.2369  -17.7686    4.1212 H   0  0  0  0  0  0  0  0  0  0  0  0
  1  2  2  0  0  0  0
  1  6  1  0  0  0  0
  2  3  1  0  0  0  0
  3  4  2  0  0  0  0
  3 10  1  0  0  0  0
  4  5  1  0  0  0  0
  4  9  1  0  0  0  0
  5  6  2  0  0  0  0
  5  7  1  0  0  0  0
  7  8  2  0  0  0  0
  9 12  1  0  0  0  0
 10 11  1  0  0  0  0
 11 13  1  0  0  0  0
M  END
>  <CHROM.0>
-49.56896522,-60.07537124,-52.46223342,-51.05852041,-173.39324398,-57.78512106
-57.22173724,-175.86979400,-167.24840141,160.29898094

>  <CHROM.1>
114.81346959,152.57264055,7.60168368,-63.55637100,20.05844840,-17.96715200
3.54707795,2.73713256,-0.51754251,-1.57071158

>  <Name>
P59182810

>  <RI>
0

>  <Rbt.Current_Directory>
/home/fstefaniak/projects/zuza/docking/adenine/1Y26

>  <Rbt.Executable>
rbdock ($Id: //depot/dev/client3/rdock/2013.1/src/exe/rbdock.cxx#4 $)

>  <Rbt.Library>
libRbt.so (2013.1, Build901 2013/11/27)

>  <Rbt.Parameter_File>
/home/fstefaniak/progs/rDock//data/scripts/dock_solv.prm

>  <Rbt.Receptor>
1y26.prm

>  <SCORE>
-51.3219

>  <SCORE.INTER>
-30.7285

>  <SCORE.INTER.CONST>
1

>  <SCORE.INTER.POLAR>
-3.31544

>  <SCORE.INTER.ROT>
2

>  <SCORE.INTER.SOLV>
10.1106

>  <SCORE.INTER.VDW>
-17.7377

>  <SCORE.INTER.norm>
-2.7935

>  <SCORE.INTRA>
1.94667

>  <SCORE.INTRA.DIHEDRAL>
-1.41561

>  <SCORE.INTRA.DIHEDRAL.0>
3.34367

>  <SCORE.INTRA.POLAR>
0.691028

>  <SCORE.INTRA.POLAR.0>
-0.691028

>  <SCORE.INTRA.REPUL>
0

>  <SCORE.INTRA.REPUL.0>
0

>  <SCORE.INTRA.SOLV>
-0.12414

>  <SCORE.INTRA.SOLV.lig_0>
-10.199

>  <SCORE.INTRA.VDW>
0.367055

>  <SCORE.INTRA.VDW.0>
-0.343007

>  <SCORE.INTRA.norm>
0.17697

>  <SCORE.RESTR>
0

>  <SCORE.RESTR.CAVITY>
0

>  <SCORE.RESTR.norm>
0

>  <SCORE.SYSTEM>
-22.5401

>  <SCORE.SYSTEM.CONST>
0

>  <SCORE.SYSTEM.DIHEDRAL>
5.89546

>  <SCORE.SYSTEM.POLAR>
-3.51361

>  <SCORE.SYSTEM.SOLV>
0.305127

>  <SCORE.SYSTEM.VDW>
-5.38152

>  <SCORE.SYSTEM.norm>
-2.0491

>  <SCORE.heavy>
11

>  <SCORE.norm>
-4.66563

$$$$
P59182810
 OpenBabel12072022103D
libRbt.so/2013.1/901 2013/11/27
 13 13  0  0  0  0  0  0  0  0999 V2000
   20.6166  -16.5591    5.0131 C   0  0  0  0  0  0  0  0  0  0  0  0
   19.9026  -17.5350    5.7083 C   0  0  0  0  0  0  0  0  0  0  0  0
   19.2044  -18.5384    5.0206 C   0  0  0  0  0  0  0  0  0  0  0  0
   19.2334  -18.5366    3.6148 C   0  0  0  0  0  0  0  0  0  0  0  0
   19.9452  -17.5506    2.8955 C   0  0  0  0  0  0  0  0  0  0  0  0
   20.6391  -16.5704    3.6170 C   0  0  0  0  0  0  0  0  0  0  0  0
   20.0416  -17.5128    1.5150 N   0  0  0  0  0  0  0  0  0  0  0  0
   19.4254  -18.4227    0.9472 O   0  0  0  0  0  0  0  0  0  0  0  0
   18.5525  -19.5582    2.9871 O   0  0  0  0  0  0  0  0  0  0  0  0
   18.4262  -19.5736    5.7919 C   0  0  0  0  0  0  0  0  0  0  0  0
   17.1136  -19.1118    6.0797 O   0  0  0  0  0  0  0  0  0  0  0  0
   18.6989  -19.4645    2.0241 H   0  0  0  0  0  0  0  0  0  0  0  0
   17.2315  -18.3793    6.7153 H   0  0  0  0  0  0  0  0  0  0  0  0
  1  2  2  0  0  0  0
  1  6  1  0  0  0  0
  2  3  1  0  0  0  0
  3  4  2  0  0  0  0
  3 10  1  0  0  0  0
  4  5  1  0  0  0  0
  4  9  1  0  0  0  0
  5  6  2  0  0  0  0
  5  7  1  0  0  0  0
  7  8  2  0  0  0  0
  9 12  1  0  0  0  0
 10 11  1  0  0  0  0
 11 13  1  0  0  0  0
M  END
>  <CHROM.0>
-50.90802773,-59.16686083,-65.03446149,-52.12293464,-56.57089407,-176.79272702
-170.26901332,-52.23834588,-165.83250397,161.53644244

>  <CHROM.1>
86.47696219,-176.75447933,0.93418348,-67.91755755,19.29167349,-18.20033141
3.89621687,-2.13737973,-0.81360695,-1.74007630

>  <Name>
P59182810

>  <RI>
0

>  <Rbt.Current_Directory>
/home/fstefaniak/projects/zuza/docking/adenine/1Y26

>  <Rbt.Executable>
rbdock ($Id: //depot/dev/client3/rdock/2013.1/src/exe/rbdock.cxx#4 $)

>  <Rbt.Library>
libRbt.so (2013.1, Build901 2013/11/27)

>  <Rbt.Parameter_File>
/home/fstefaniak/progs/rDock//data/scripts/dock_solv.prm

>  <Rbt.Receptor>
1y26.prm

>  <SCORE>
-51.1089

>  <SCORE.INTER>
-31.5549

>  <SCORE.INTER.CONST>
1

>  <SCORE.INTER.POLAR>
-4.13097

>  <SCORE.INTER.ROT>
2

>  <SCORE.INTER.SOLV>
11.7999

>  <SCORE.INTER.VDW>
-16.1333

>  <SCORE.INTER.norm>
-2.86863

>  <SCORE.INTRA>
1.52445

>  <SCORE.INTRA.DIHEDRAL>
-2.28538

>  <SCORE.INTRA.DIHEDRAL.0>
3.34367

>  <SCORE.INTRA.POLAR>
0.691028

>  <SCORE.INTRA.POLAR.0>
-0.691028

>  <SCORE.INTRA.REPUL>
0

>  <SCORE.INTRA.REPUL.0>
0

>  <SCORE.INTRA.SOLV>
-0.349242

>  <SCORE.INTRA.SOLV.lig_0>
-10.199

>  <SCORE.INTRA.VDW>
0.492272

>  <SCORE.INTRA.VDW.0>
-0.343007

>  <SCORE.INTRA.norm>
0.138587

>  <SCORE.RESTR>
0

>  <SCORE.RESTR.CAVITY>
0

>  <SCORE.RESTR.norm>
0

>  <SCORE.SYSTEM>
-21.0785

>  <SCORE.SYSTEM.CONST>
0

>  <SCORE.SYSTEM.DIHEDRAL>
6.02491

>  <SCORE.SYSTEM.POLAR>
-3.40835

>  <SCORE.SYSTEM.SOLV>
0.465017

>  <SCORE.SYSTEM.VDW>
-4.85445

>  <SCORE.SYSTEM.norm>
-1.91622

>  <SCORE.heavy>
11

>  <SCORE.norm>
-4.64627

$$$$
P59185642
 OpenBabel12072022103D
libRbt.so/2013.1/901 2013/11/27
 13 13  0  0  0  0  0  0  0  0999 V2000
   22.2004  -15.2393    3.8545 C   0  0  0  0  0  0  0  0  0  0  0  0
   21.0424  -15.9829    4.4296 C   0  0  1  0  0  0  0  0  0  0  0  0
   19.7267  -16.0010    3.7046 C   0  0  0  0  0  0  0  0  0  0  0  0
   20.5351  -17.2768    3.8174 C   0  0  1  0  0  0  0  0  0  0  0  0
   21.2161  -17.8726    2.6263 C   0  0  0  0  0  0  0  0  0  0  0  0
   22.3507  -18.3270    2.6863 O   0  0  0  0  0  0  0  0  0  0  0  0
   20.4666  -17.9227    1.4871 N   0  0  0  0  0  0  0  0  0  0  0  0
   20.0652  -18.2450    4.7885 O   0  0  0  0  0  0  0  0  0  0  0  0
   18.9085  -18.9046    4.5032 C   0  0  0  0  0  0  0  0  0  0  0  0
   18.3682  -18.9433    3.4041 O   0  0  0  0  0  0  0  0  0  0  0  0
   18.3452  -19.5318    5.7413 C   0  0  0  0  0  0  0  0  0  0  0  0
   19.9699  -18.7871    1.2823 H   0  0  0  0  0  0  0  0  0  0  0  0
   20.8109  -17.3905    0.7002 H   0  0  0  0  0  0  0  0  0  0  0  0
  2  1  1  6  0  0  0
  2  3  1  0  0  0  0
  2  4  1  0  0  0  0
  3  4  1  0  0  0  0
  4  5  1  6  0  0  0
  4  8  1  0  0  0  0
  5  6  2  0  0  0  0
  5  7  1  0  0  0  0
  7 12  1  0  0  0  0
  7 13  1  0  0  0  0
  8  9  1  0  0  0  0
  9 10  2  0  0  0  0
  9 11  1  0  0  0  0
M  END
>  <CHROM.0>
-174.90142578,-61.55949342,-54.22187071,-51.79171605,-56.52751994,-58.26058923
-56.89542230,-53.40992763,-164.64655850,160.91717269

>  <CHROM.1>
67.18592204,137.05207410,-95.43923717,14.64753858,20.29097670,-17.68959914
3.70473916,0.15550174,0.77293487,0.84340891

>  <Name>
P59185642

>  <RI>
0

>  <Rbt.Current_Directory>
/home/fstefaniak/projects/zuza/docking/adenine/1Y26

>  <Rbt.Executable>
rbdock ($Id: //depot/dev/client3/rdock/2013.1/src/exe/rbdock.cxx#4 $)

>  <Rbt.Library>
libRbt.so (2013.1, Build901 2013/11/27)

>  <Rbt.Parameter_File>
/home/fstefaniak/progs/rDock//data/scripts/dock_solv.prm

>  <Rbt.Receptor>
1y26.prm

>  <SCORE>
-38.7869

>  <SCORE.INTER>
-20.6625

>  <SCORE.INTER.CONST>
1

>  <SCORE.INTER.POLAR>
-3.42405

>  <SCORE.INTER.ROT>
4

>  <SCORE.INTER.SOLV>
11.2242

>  <SCORE.INTER.VDW>
-12.3696

>  <SCORE.INTER.norm>
-1.87841

>  <SCORE.INTRA>
2.91398

>  <SCORE.INTRA.DIHEDRAL>
2.47696

>  <SCORE.INTRA.DIHEDRAL.0>
4.59859

>  <SCORE.INTRA.POLAR>
0.5561

>  <SCORE.INTRA.POLAR.0>
-0.5561

>  <SCORE.INTRA.REPUL>
0

>  <SCORE.INTRA.REPUL.0>
0

>  <SCORE.INTRA.SOLV>
-0.212015

>  <SCORE.INTRA.SOLV.lig_0>
-9.29848

>  <SCORE.INTRA.VDW>
-0.109229

>  <SCORE.INTRA.VDW.0>
-1.69037

>  <SCORE.INTRA.norm>
0.264908

>  <SCORE.RESTR>
0

>  <SCORE.RESTR.CAVITY>
0

>  <SCORE.RESTR.norm>
0

>  <SCORE.SYSTEM>
-21.0383

>  <SCORE.SYSTEM.CONST>
0

>  <SCORE.SYSTEM.DIHEDRAL>
5.54909

>  <SCORE.SYSTEM.POLAR>
-3.27183

>  <SCORE.SYSTEM.SOLV>
0.621676

>  <SCORE.SYSTEM.VDW>
-5.1764

>  <SCORE.SYSTEM.norm>
-1.91258

>  <SCORE.heavy>
11

>  <SCORE.norm>
-3.52608

$$$$
P59185642
 OpenBabel12072022103D
libRbt.so/2013.1/901 2013/11/27
 13 13  0  0  0  0  0  0  0  0999 V2000
   22.0140  -15.0924    3.7421 C   0  0  0  0  0  0  0  0  0  0  0  0
   20.9337  -15.9087    4.3677 C   0  0  1  0  0  0  0  0  0  0  0  0
   19.6105  -16.0620    3.6730 C   0  0  0  0  0  0  0  0  0  0  0  0
   20.5251  -17.2614    3.8114 C   0  0  1  0  0  0  0  0  0  0  0  0
   21.2307  -17.8408    2.6267 C   0  0  0  0  0  0  0  0  0  0  0  0
   22.3764  -18.2652    2.6962 O   0  0  0  0  0  0  0  0  0  0  0  0
   20.4916  -17.9124    1.4817 N   0  0  0  0  0  0  0  0  0  0  0  0
   20.1568  -18.2298    4.8252 O   0  0  0  0  0  0  0  0  0  0  0  0
   19.1544  -19.1004    4.5222 C   0  0  0  0  0  0  0  0  0  0  0  0
   18.5776  -19.1681    3.4431 O   0  0  0  0  0  0  0  0  0  0  0  0
   18.8044  -19.9317    5.7180 C   0  0  0  0  0  0  0  0  0  0  0  0
   19.9954  -18.7799    1.2895 H   0  0  0  0  0  0  0  0  0  0  0  0
   20.8441  -17.3963    0.6877 H   0  0  0  0  0  0  0  0  0  0  0  0
  2  1  1  6  0  0  0
  2  3  1  0  0  0  0
  2  4  1  0  0  0  0
  3  4  1  0  0  0  0
  4  5  1  6  0  0  0
  4  8  1  0  0  0  0
  5  6  2  0  0  0  0
  5  7  1  0  0  0  0
  7 12  1  0  0  0  0
  7 13  1  0  0  0  0
  8  9  1  0  0  0  0
  9 10  2  0  0  0  0
  9 11  1  0  0  0  0
M  END
>  <CHROM.0>
-49.95573209,54.23303275,-58.86630702,-53.76889186,-61.32493964,61.22307743
-62.01758877,-52.27189749,-167.74634026,160.38906971

>  <CHROM.1>
71.32253288,144.68162371,-93.53209762,3.24886212,20.35270562,-17.73856500
3.69303180,0.30227473,0.89517173,0.74761169

>  <Name>
P59185642

>  <RI>
0

>  <Rbt.Current_Directory>
/home/fstefaniak/projects/zuza/docking/adenine/1Y26

>  <Rbt.Executable>
rbdock ($Id: //depot/dev/client3/rdock/2013.1/src/exe/rbdock.cxx#4 $)

>  <Rbt.Library>
libRbt.so (2013.1, Build901 2013/11/27)

>  <Rbt.Parameter_File>
/home/fstefaniak/progs/rDock//data/scripts/dock_solv.prm

>  <Rbt.Receptor>
1y26.prm

>  <SCORE>
-38.5459

>  <SCORE.INTER>
-19.7158

>  <SCORE.INTER.CONST>
1

>  <SCORE.INTER.POLAR>
-3.51458

>  <SCORE.INTER.ROT>
4

>  <SCORE.INTER.SOLV>
11.4025

>  <SCORE.INTER.VDW>
-11.4961

>  <SCORE.INTER.norm>
-1.79234

>  <SCORE.INTRA>
1.94947

>  <SCORE.INTRA.DIHEDRAL>
0.522203

>  <SCORE.INTRA.DIHEDRAL.0>
4.59859

>  <SCORE.INTRA.POLAR>
0.5561

>  <SCORE.INTRA.POLAR.0>
-0.5561

>  <SCORE.INTRA.REPUL>
0

>  <SCORE.INTRA.REPUL.0>
0

>  <SCORE.INTRA.SOLV>
-0.128658

>  <SCORE.INTRA.SOLV.lig_0>
-9.29848

>  <SCORE.INTRA.VDW>
-0.138039

>  <SCORE.INTRA.VDW.0>
-1.69037

>  <SCORE.INTRA.norm>
0.177225

>  <SCORE.RESTR>
0

>  <SCORE.RESTR.CAVITY>
0

>  <SCORE.RESTR.norm>
0

>  <SCORE.SYSTEM>
-20.7796

>  <SCORE.SYSTEM.CONST>
0

>  <SCORE.SYSTEM.DIHEDRAL>
5.48494

>  <SCORE.SYSTEM.POLAR>
-3.45185

>  <SCORE.SYSTEM.SOLV>
0.544976

>  <SCORE.SYSTEM.VDW>
-4.35689

>  <SCORE.SYSTEM.norm>
-1.88906

>  <SCORE.heavy>
11

>  <SCORE.norm>
-3.50417

$$$$
P59185642
 OpenBabel12072022103D
libRbt.so/2013.1/901 2013/11/27
 13 13  0  0  0  0  0  0  0  0999 V2000
   22.7057  -15.5874    3.9785 C   0  0  0  0  0  0  0  0  0  0  0  0
   21.4716  -16.0933    4.6461 C   0  0  1  0  0  0  0  0  0  0  0  0
   20.1211  -15.7677    4.0742 C   0  0  0  0  0  0  0  0  0  0  0  0
   20.6237  -17.1960    4.0368 C   0  0  1  0  0  0  0  0  0  0  0  0
   21.0283  -17.8435    2.7506 C   0  0  0  0  0  0  0  0  0  0  0  0
   22.1614  -18.2665    2.5644 O   0  0  0  0  0  0  0  0  0  0  0  0
   20.0352  -17.9776    1.8243 N   0  0  0  0  0  0  0  0  0  0  0  0
   20.0441  -18.1009    5.0096 O   0  0  0  0  0  0  0  0  0  0  0  0
   18.9025  -18.7525    4.6538 C   0  0  0  0  0  0  0  0  0  0  0  0
   18.4238  -18.7776    3.5261 O   0  0  0  0  0  0  0  0  0  0  0  0
   18.2691  -19.3901    5.8521 C   0  0  0  0  0  0  0  0  0  0  0  0
   19.0956  -17.6905    2.0895 H   0  0  0  0  0  0  0  0  0  0  0  0
   20.1172  -18.7593    1.1892 H   0  0  0  0  0  0  0  0  0  0  0  0
  2  1  1  6  0  0  0
  2  3  1  0  0  0  0
  2  4  1  0  0  0  0
  3  4  1  0  0  0  0
  4  5  1  6  0  0  0
  4  8  1  0  0  0  0
  5  6  2  0  0  0  0
  5  7  1  0  0  0  0
  7 12  1  0  0  0  0
  7 13  1  0  0  0  0
  8  9  1  0  0  0  0
  9 10  2  0  0  0  0
  9 11  1  0  0  0  0
M  END
>  <CHROM.0>
-53.20923885,-60.57603786,-55.73261895,-50.36066265,-55.90859612,-175.82987949
-58.59862727,-52.43167476,-166.44983499,158.69529624

>  <CHROM.1>
49.40733022,154.67334909,-3.87645583,10.32491560,20.33046926,-17.64657441
3.87676911,0.04006707,0.69983854,1.07182280

>  <Name>
P59185642

>  <RI>
0

>  <Rbt.Current_Directory>
/home/fstefaniak/projects/zuza/docking/adenine/1Y26

>  <Rbt.Executable>
rbdock ($Id: //depot/dev/client3/rdock/2013.1/src/exe/rbdock.cxx#4 $)

>  <Rbt.Library>
libRbt.so (2013.1, Build901 2013/11/27)

>  <Rbt.Parameter_File>
/home/fstefaniak/progs/rDock//data/scripts/dock_solv.prm

>  <Rbt.Receptor>
1y26.prm

>  <SCORE>
-38.4709

>  <SCORE.INTER>
-18.9639

>  <SCORE.INTER.CONST>
1

>  <SCORE.INTER.POLAR>
-2.78254

>  <SCORE.INTER.ROT>
4

>  <SCORE.INTER.SOLV>
10.1648

>  <SCORE.INTER.VDW>
-13.0224

>  <SCORE.INTER.norm>
-1.72399

>  <SCORE.INTRA>
2.42414

>  <SCORE.INTRA.DIHEDRAL>
0.601608

>  <SCORE.INTRA.DIHEDRAL.0>
4.59859

>  <SCORE.INTRA.POLAR>
0.336732

>  <SCORE.INTRA.POLAR.0>
-0.5561

>  <SCORE.INTRA.REPUL>
0

>  <SCORE.INTRA.REPUL.0>
0

>  <SCORE.INTRA.SOLV>
0.262113

>  <SCORE.INTRA.SOLV.lig_0>
-9.29848

>  <SCORE.INTRA.VDW>
0.847388

>  <SCORE.INTRA.VDW.0>
-1.69037

>  <SCORE.INTRA.norm>
0.220376

>  <SCORE.RESTR>
0

>  <SCORE.RESTR.CAVITY>
0

>  <SCORE.RESTR.norm>
0

>  <SCORE.SYSTEM>
-21.9311

>  <SCORE.SYSTEM.CONST>
0

>  <SCORE.SYSTEM.DIHEDRAL>
5.90114

>  <SCORE.SYSTEM.POLAR>
-3.50256

>  <SCORE.SYSTEM.SOLV>
0.523051

>  <SCORE.SYSTEM.VDW>
-5.08693

>  <SCORE.SYSTEM.norm>
-1.99374

>  <SCORE.heavy>
11

>  <SCORE.norm>
-3.49735

$$$$
P59188741
 OpenBabel12072022103D
libRbt.so/2013.1/901 2013/11/27
 12 12  0  0  0  0  0  0  0  0999 V2000
   23.0383  -16.6956    3.9255 C   0  0  0  0  0  0  0  0  0  0  0  0
   24.2044  -16.8662    4.8919 C   0  0  2  0  0  0  0  0  0  0  0  0
   24.7176  -15.5395    5.1782 N   0  3  0  0  0  0  0  0  0  0  0  0
   25.3726  -15.4667    5.9533 H   0  0  0  0  0  0  0  0  0  0  0  0
   25.2720  -15.2361    4.3387 H   0  0  0  0  0  0  0  0  0  0  0  0
   23.6585  -14.4563    5.1738 C   0  0  2  0  0  0  0  0  0  0  0  0
   22.1504  -15.2911    4.6128 S   0  0  0  0  0  0  0  0  0  0  0  0
   24.0211  -13.3839    4.0901 C   0  0  0  0  0  0  0  0  0  0  0  0
   23.7151  -13.6166    2.9001 O   0  0  0  0  0  0  0  0  0  0  0  0
   24.5050  -12.3492    4.6672 O   0  5  0  0  0  0  0  0  0  0  0  0
   25.2164  -17.6937    4.3770 O   0  0  0  0  0  0  0  0  0  0  0  0
   25.8326  -17.8996    5.1017 H   0  0  0  0  0  0  0  0  0  0  0  0
  1  2  1  0  0  0  0
  1  7  1  0  0  0  0
  2  3  1  0  0  0  0
  2 11  1  6  0  0  0
  3  4  1  0  0  0  0
  3  5  1  0  0  0  0
  3  6  1  0  0  0  0
  6  7  1  0  0  0  0
  6  8  1  6  0  0  0
  8  9  2  0  0  0  0
  8 10  1  0  0  0  0
 11 12  1  0  0  0  0
M  CHG  2   3   1  10  -1
M  END
>  <CHROM.0>
-48.57331112,-60.14024302,-58.00253970,-52.75594463,-57.40599621,-60.42090073
-61.45845403,-51.48269419,-167.45672003,160.41920294

>  <CHROM.1>
-168.90830027,82.02220716,23.75349249,-15.13852837,4.43984500,1.47786668
0.11029039,3.05278261

>  <Name>
P59188741

>  <RI>
0

>  <Rbt.Current_Directory>
/home/fstefaniak/projects/zuza/docking/adenine/1Y26

>  <Rbt.Executable>
rbdock ($Id: //depot/dev/client3/rdock/2013.1/src/exe/rbdock.cxx#4 $)

>  <Rbt.Library>
libRbt.so (2013.1, Build901 2013/11/27)

>  <Rbt.Parameter_File>
/home/fstefaniak/progs/rDock//data/scripts/dock_solv.prm

>  <Rbt.Receptor>
1y26.prm

>  <SCORE>
-47.4845

>  <SCORE.INTER>
-25.1476

>  <SCORE.INTER.CONST>
1

>  <SCORE.INTER.POLAR>
-4.51359

>  <SCORE.INTER.ROT>
1

>  <SCORE.INTER.SOLV>
17.7227

>  <SCORE.INTER.VDW>
-11.894

>  <SCORE.INTER.norm>
-2.79418

>  <SCORE.INTRA>
-0.414213

>  <SCORE.INTRA.DIHEDRAL>
0.447956

>  <SCORE.INTRA.DIHEDRAL.0>
1.15482

>  <SCORE.INTRA.POLAR>
0

>  <SCORE.INTRA.POLAR.0>
0

>  <SCORE.INTRA.REPUL>
0

>  <SCORE.INTRA.REPUL.0>
0

>  <SCORE.INTRA.SOLV>
-0.370272

>  <SCORE.INTRA.SOLV.lig_0>
-48.7836

>  <SCORE.INTRA.VDW>
-0.453055

>  <SCORE.INTRA.VDW.0>
-0.120055

>  <SCORE.INTRA.norm>
-0.0460237

>  <SCORE.RESTR>
0.40339

>  <SCORE.RESTR.CAVITY>
0.40339

>  <SCORE.RESTR.norm>
0.0448211

>  <SCORE.SYSTEM>
-22.3261

>  <SCORE.SYSTEM.CONST>
0

>  <SCORE.SYSTEM.DIHEDRAL>
5.62855

>  <SCORE.SYSTEM.POLAR>
-3.47913

>  <SCORE.SYSTEM.SOLV>
0.65469

>  <SCORE.SYSTEM.VDW>
-5.38139

>  <SCORE.SYSTEM.norm>
-2.48068

>  <SCORE.heavy>
9

>  <SCORE.norm>
-5.27606

$$$$
P59188741
 OpenBabel12072022103D
libRbt.so/2013.1/901 2013/11/27
 12 12  0  0  0  0  0  0  0  0999 V2000
   23.0573  -16.7004    3.9067 C   0  0  0  0  0  0  0  0  0  0  0  0
   24.2088  -16.8671    4.8912 C   0  0  2  0  0  0  0  0  0  0  0  0
   24.7074  -15.5380    5.1919 N   0  3  0  0  0  0  0  0  0  0  0  0
   25.3491  -15.4641    5.9780 H   0  0  0  0  0  0  0  0  0  0  0  0
   25.2731  -15.2266    4.3630 H   0  0  0  0  0  0  0  0  0  0  0  0
   23.6405  -14.4626    5.1753 C   0  0  2  0  0  0  0  0  0  0  0  0
   22.1479  -15.3057    4.5859 S   0  0  0  0  0  0  0  0  0  0  0  0
   24.0128  -13.3824    4.1027 C   0  0  0  0  0  0  0  0  0  0  0  0
   23.7918  -13.6411    2.8993 O   0  0  0  0  0  0  0  0  0  0  0  0
   24.4072  -12.3191    4.6954 O   0  5  0  0  0  0  0  0  0  0  0  0
   25.2351  -17.6847    4.3890 O   0  0  0  0  0  0  0  0  0  0  0  0
   25.8195  -17.9211    5.1305 H   0  0  0  0  0  0  0  0  0  0  0  0
  1  2  1  0  0  0  0
  1  7  1  0  0  0  0
  2  3  1  0  0  0  0
  2 11  1  6  0  0  0
  3  4  1  0  0  0  0
  3  5  1  0  0  0  0
  3  6  1  0  0  0  0
  6  7  1  0  0  0  0
  6  8  1  6  0  0  0
  8  9  2  0  0  0  0
  8 10  1  0  0  0  0
 11 12  1  0  0  0  0
M  CHG  2   3   1  10  -1
M  END
>  <CHROM.0>
-51.75546100,-59.58164303,-55.17772204,-51.47256415,-56.65155324,-58.04266455
-55.63227433,-54.22999201,-166.24059291,160.80783639

>  <CHROM.1>
-166.49739893,78.34486791,23.75143220,-15.14098403,4.43940709,1.46840073
0.11103206,3.05988596

>  <Name>
P59188741

>  <RI>
0

>  <Rbt.Current_Directory>
/home/fstefaniak/projects/zuza/docking/adenine/1Y26

>  <Rbt.Executable>
rbdock ($Id: //depot/dev/client3/rdock/2013.1/src/exe/rbdock.cxx#4 $)

>  <Rbt.Library>
libRbt.so (2013.1, Build901 2013/11/27)

>  <Rbt.Parameter_File>
/home/fstefaniak/progs/rDock//data/scripts/dock_solv.prm

>  <Rbt.Receptor>
1y26.prm

>  <SCORE>
-47.4743

>  <SCORE.INTER>
-25.3077

>  <SCORE.INTER.CONST>
1

>  <SCORE.INTER.POLAR>
-4.60981

>  <SCORE.INTER.ROT>
1

>  <SCORE.INTER.SOLV>
17.7419

>  <SCORE.INTER.VDW>
-11.6864

>  <SCORE.INTER.norm>
-2.81197

>  <SCORE.INTRA>
-0.374636

>  <SCORE.INTRA.DIHEDRAL>
0.713774

>  <SCORE.INTRA.DIHEDRAL.0>
1.15482

>  <SCORE.INTRA.POLAR>
0

>  <SCORE.INTRA.POLAR.0>
0

>  <SCORE.INTRA.REPUL>
0

>  <SCORE.INTRA.REPUL.0>
0

>  <SCORE.INTRA.SOLV>
-0.392144

>  <SCORE.INTRA.SOLV.lig_0>
-48.7836

>  <SCORE.INTRA.VDW>
-0.535451

>  <SCORE.INTRA.VDW.0>
-0.120055

>  <SCORE.INTRA.norm>
-0.0416262

>  <SCORE.RESTR>
0.433178

>  <SCORE.RESTR.CAVITY>
0.433178

>  <SCORE.RESTR.norm>
0.0481309

>  <SCORE.SYSTEM>
-22.2251

>  <SCORE.SYSTEM.CONST>
0

>  <SCORE.SYSTEM.DIHEDRAL>
5.53734

>  <SCORE.SYSTEM.POLAR>
-3.47773

>  <SCORE.SYSTEM.SOLV>
0.674783

>  <SCORE.SYSTEM.VDW>
-5.29501

>  <SCORE.SYSTEM.norm>
-2.46946

>  <SCORE.heavy>
9

>  <SCORE.norm>
-5.27492

$$$$
P59188741
 OpenBabel12072022103D
libRbt.so/2013.1/901 2013/11/27
 12 12  0  0  0  0  0  0  0  0999 V2000
   18.8917  -19.3632    4.8343 C   0  0  0  0  0  0  0  0  0  0  0  0
   19.1279  -18.6428    6.1564 C   0  0  2  0  0  0  0  0  0  0  0  0
   20.0789  -17.5781    5.8971 N   0  3  0  0  0  0  0  0  0  0  0  0
   20.1946  -16.8870    6.6347 H   0  0  0  0  0  0  0  0  0  0  0  0
   21.0254  -18.0257    5.8081 H   0  0  0  0  0  0  0  0  0  0  0  0
   19.9645  -16.9752    4.5120 C   0  0  2  0  0  0  0  0  0  0  0  0
   18.7423  -18.0087    3.6610 S   0  0  0  0  0  0  0  0  0  0  0  0
   21.3255  -17.1553    3.7564 C   0  0  0  0  0  0  0  0  0  0  0  0
   21.2979  -17.5614    2.5740 O   0  0  0  0  0  0  0  0  0  0  0  0
   22.2780  -16.7298    4.4976 O   0  5  0  0  0  0  0  0  0  0  0  0
   19.6005  -19.5018    7.1628 O   0  0  0  0  0  0  0  0  0  0  0  0
   19.5759  -19.0168    8.0063 H   0  0  0  0  0  0  0  0  0  0  0  0
  1  2  1  0  0  0  0
  1  7  1  0  0  0  0
  2  3  1  0  0  0  0
  2 11  1  1  0  0  0
  3  4  1  0  0  0  0
  3  5  1  0  0  0  0
  3  6  1  0  0  0  0
  6  7  1  0  0  0  0
  6  8  1  6  0  0  0
  8  9  2  0  0  0  0
  8 10  1  0  0  0  0
 11 12  1  0  0  0  0
M  CHG  2   3   1  10  -1
M  END
>  <CHROM.0>
65.39810271,84.26660189,-59.35883483,-51.54353866,-57.84569047,-61.88967347
-57.76981540,-51.60050622,-166.62323476,160.84080525

>  <CHROM.1>
-170.04717408,134.31595615,20.00649190,-17.96640533,4.69377715,2.19651817
0.46738728,1.84832272

>  <Name>
P59188741

>  <RI>
0

>  <Rbt.Current_Directory>
/home/fstefaniak/projects/zuza/docking/adenine/1Y26

>  <Rbt.Executable>
rbdock ($Id: //depot/dev/client3/rdock/2013.1/src/exe/rbdock.cxx#4 $)

>  <Rbt.Library>
libRbt.so (2013.1, Build901 2013/11/27)

>  <Rbt.Parameter_File>
/home/fstefaniak/progs/rDock//data/scripts/dock_solv.prm

>  <Rbt.Receptor>
1y26.prm

>  <SCORE>
-47.1267

>  <SCORE.INTER>
-28.0492

>  <SCORE.INTER.CONST>
1

>  <SCORE.INTER.POLAR>
-3.7352

>  <SCORE.INTER.ROT>
1

>  <SCORE.INTER.SOLV>
25.313

>  <SCORE.INTER.VDW>
-18.9531

>  <SCORE.INTER.norm>
-3.11657

>  <SCORE.INTRA>
0.0618103

>  <SCORE.INTRA.DIHEDRAL>
0.379855

>  <SCORE.INTRA.DIHEDRAL.0>
1.15482

>  <SCORE.INTRA.POLAR>
0

>  <SCORE.INTRA.POLAR.0>
0

>  <SCORE.INTRA.REPUL>
0

>  <SCORE.INTRA.REPUL.0>
0

>  <SCORE.INTRA.SOLV>
0.0500802

>  <SCORE.INTRA.SOLV.lig_0>
-48.7836

>  <SCORE.INTRA.VDW>
-0.153157

>  <SCORE.INTRA.VDW.0>
-0.120055

>  <SCORE.INTRA.norm>
0.00686781

>  <SCORE.RESTR>
0

>  <SCORE.RESTR.CAVITY>
0

>  <SCORE.RESTR.norm>
0

>  <SCORE.SYSTEM>
-19.1393

>  <SCORE.SYSTEM.CONST>
0

>  <SCORE.SYSTEM.DIHEDRAL>
7.718

>  <SCORE.SYSTEM.POLAR>
-3.24886

>  <SCORE.SYSTEM.SOLV>
0.626321

>  <SCORE.SYSTEM.VDW>
-4.71146

>  <SCORE.SYSTEM.norm>
-2.12659

>  <SCORE.heavy>
9

>  <SCORE.norm>
-5.2363

$$$$
P59189263
 OpenBabel12072022103D
libRbt.so/2013.1/901 2013/11/27
 14 14  0  0  0  0  0  0  0  0999 V2000
   19.9993  -17.4436    5.4193 C   0  0  0  0  0  0  0  0  0  0  0  0
   19.9265  -18.8507    4.8283 C   0  0  0  0  0  0  0  0  0  0  0  0
   18.9936  -18.9090    3.6159 C   0  0  2  0  0  0  0  0  0  0  0  0
   19.2760  -17.7771    2.6077 C   0  0  1  0  0  0  0  0  0  0  0  0
   19.3568  -16.4230    3.2395 N   0  0  0  0  0  0  0  0  0  0  0  0
   20.3152  -16.4024    4.3497 C   0  0  0  0  0  0  0  0  0  0  0  0
   20.5368  -18.0517    1.7652 C   0  0  0  0  0  0  0  0  0  0  0  0
   21.6883  -17.9757    2.1769 O   0  0  0  0  0  0  0  0  0  0  0  0
   20.2707  -18.4526    0.4822 N   0  0  0  0  0  0  0  0  0  0  0  0
   17.6300  -18.8299    4.0623 O   0  0  0  0  0  0  0  0  0  0  0  0
   18.4294  -16.1895    3.5941 H   0  0  0  0  0  0  0  0  0  0  0  0
   20.6172  -17.8572   -0.2633 H   0  0  0  0  0  0  0  0  0  0  0  0
   20.1844  -19.4450    0.3144 H   0  0  0  0  0  0  0  0  0  0  0  0
   17.3952  -17.8935    4.1602 H   0  0  0  0  0  0  0  0  0  0  0  0
  1  2  1  0  0  0  0
  1  6  1  0  0  0  0
  2  3  1  0  0  0  0
  3 10  1  1  0  0  0
  3  4  1  0  0  0  0
  4  5  1  0  0  0  0
  4  7  1  1  0  0  0
  5  6  1  0  0  0  0
  5 11  1  0  0  0  0
  7  8  2  0  0  0  0
  7  9  1  0  0  0  0
  9 12  1  0  0  0  0
  9 13  1  0  0  0  0
 10 14  1  0  0  0  0
M  END
>  <CHROM.0>
-48.84775979,-59.52396887,-51.93996650,-53.65286514,-54.96156752,179.23006548
-59.24773950,-177.08213651,-166.42660077,160.27047638

>  <CHROM.1>
85.33321416,-73.27710833,118.85167642,19.77648340,-17.91535387,3.23776177
-2.08231182,-0.58923936,-1.93104330

>  <Name>
P59189263

>  <RI>
0

>  <Rbt.Current_Directory>
/home/fstefaniak/projects/zuza/docking/adenine/1Y26

>  <Rbt.Executable>
rbdock ($Id: //depot/dev/client3/rdock/2013.1/src/exe/rbdock.cxx#4 $)

>  <Rbt.Library>
libRbt.so (2013.1, Build901 2013/11/27)

>  <Rbt.Parameter_File>
/home/fstefaniak/progs/rDock//data/scripts/dock_solv.prm

>  <Rbt.Receptor>
1y26.prm

>  <SCORE>
-53.2147

>  <SCORE.INTER>
-32.5425

>  <SCORE.INTER.CONST>
1

>  <SCORE.INTER.POLAR>
-5.1226

>  <SCORE.INTER.ROT>
2

>  <SCORE.INTER.SOLV>
15.1644

>  <SCORE.INTER.VDW>
-14.6078

>  <SCORE.INTER.norm>
-3.25425

>  <SCORE.INTRA>
1.7297

>  <SCORE.INTRA.DIHEDRAL>
3.9009

>  <SCORE.INTRA.DIHEDRAL.0>
1.54121

>  <SCORE.INTRA.POLAR>
0.073828

>  <SCORE.INTRA.POLAR.0>
-0.073828

>  <SCORE.INTRA.REPUL>
0

>  <SCORE.INTRA.REPUL.0>
0

>  <SCORE.INTRA.SOLV>
-0.336886

>  <SCORE.INTRA.SOLV.lig_0>
-15.9899

>  <SCORE.INTRA.VDW>
-0.303325

>  <SCORE.INTRA.VDW.0>
-0.353284

>  <SCORE.INTRA.norm>
0.17297

>  <SCORE.RESTR>
0

>  <SCORE.RESTR.CAVITY>
0

>  <SCORE.RESTR.norm>
0

>  <SCORE.SYSTEM>
-22.4019

>  <SCORE.SYSTEM.CONST>
0

>  <SCORE.SYSTEM.DIHEDRAL>
5.75258

>  <SCORE.SYSTEM.POLAR>
-3.48764

>  <SCORE.SYSTEM.SOLV>
0.318967

>  <SCORE.SYSTEM.VDW>
-5.33298

>  <SCORE.SYSTEM.norm>
-2.24019

>  <SCORE.heavy>
10

>  <SCORE.norm>
-5.32147

$$$$
P59189263
 OpenBabel12072022103D
libRbt.so/2013.1/901 2013/11/27
 14 14  0  0  0  0  0  0  0  0999 V2000
   20.0106  -17.3964    5.4338 C   0  0  0  0  0  0  0  0  0  0  0  0
   19.9546  -18.8141    4.8667 C   0  0  0  0  0  0  0  0  0  0  0  0
   19.0179  -18.9053    3.6593 C   0  0  2  0  0  0  0  0  0  0  0  0
   19.2809  -17.7867    2.6312 C   0  0  1  0  0  0  0  0  0  0  0  0
   19.3459  -16.4213    3.2399 N   0  0  0  0  0  0  0  0  0  0  0  0
   20.3082  -16.3691    4.3457 C   0  0  0  0  0  0  0  0  0  0  0  0
   20.5420  -18.0583    1.7881 C   0  0  0  0  0  0  0  0  0  0  0  0
   21.6928  -17.9992    2.2046 O   0  0  0  0  0  0  0  0  0  0  0  0
   20.2767  -18.4357    0.4979 N   0  0  0  0  0  0  0  0  0  0  0  0
   17.6551  -18.8372    4.1100 O   0  0  0  0  0  0  0  0  0  0  0  0
   18.4167  -16.1944    3.5944 H   0  0  0  0  0  0  0  0  0  0  0  0
   20.6461  -17.8407   -0.2369 H   0  0  0  0  0  0  0  0  0  0  0  0
   20.1647  -19.4231    0.3167 H   0  0  0  0  0  0  0  0  0  0  0  0
   17.4051  -17.9025    4.1847 H   0  0  0  0  0  0  0  0  0  0  0  0
  1  2  1  0  0  0  0
  1  6  1  0  0  0  0
  2  3  1  0  0  0  0
  3 10  1  1  0  0  0
  3  4  1  0  0  0  0
  4  5  1  0  0  0  0
  4  7  1  1  0  0  0
  5  6  1  0  0  0  0
  5 11  1  0  0  0  0
  7  8  2  0  0  0  0
  7  9  1  0  0  0  0
  9 12  1  0  0  0  0
  9 13  1  0  0  0  0
 10 14  1  0  0  0  0
M  END
>  <CHROM.0>
-57.06014822,63.74848213,-55.19957237,-51.73716071,-55.89984281,-58.17604725
-55.79302663,-50.68383567,-167.71178491,161.32945374

>  <CHROM.1>
85.89114862,-70.94913043,120.00239468,19.78556271,-17.90644645,3.26077427
-2.07998876,-0.59772410,-1.93891975

>  <Name>
P59189263

>  <RI>
0

>  <Rbt.Current_Directory>
/home/fstefaniak/projects/zuza/docking/adenine/1Y26

>  <Rbt.Executable>
rbdock ($Id: //depot/dev/client3/rdock/2013.1/src/exe/rbdock.cxx#4 $)

>  <Rbt.Library>
libRbt.so (2013.1, Build901 2013/11/27)

>  <Rbt.Parameter_File>
/home/fstefaniak/progs/rDock//data/scripts/dock_solv.prm

>  <Rbt.Receptor>
1y26.prm

>  <SCORE>
-52.1105

>  <SCORE.INTER>
-32.4462

>  <SCORE.INTER.CONST>
1

>  <SCORE.INTER.POLAR>
-5.09684

>  <SCORE.INTER.ROT>
2

>  <SCORE.INTER.SOLV>
15.1109

>  <SCORE.INTER.VDW>
-14.6117

>  <SCORE.INTER.norm>
-3.24462

>  <SCORE.INTRA>
1.81102

>  <SCORE.INTRA.DIHEDRAL>
4.06443

>  <SCORE.INTRA.DIHEDRAL.0>
1.54121

>  <SCORE.INTRA.POLAR>
0.073828

>  <SCORE.INTRA.POLAR.0>
-0.073828

>  <SCORE.INTRA.REPUL>
0

>  <SCORE.INTRA.REPUL.0>
0

>  <SCORE.INTRA.SOLV>
-0.338343

>  <SCORE.INTRA.SOLV.lig_0>
-15.9899

>  <SCORE.INTRA.VDW>
-0.303043

>  <SCORE.INTRA.VDW.0>
-0.353284

>  <SCORE.INTRA.norm>
0.181102

>  <SCORE.RESTR>
0

>  <SCORE.RESTR.CAVITY>
0

>  <SCORE.RESTR.norm>
0

>  <SCORE.SYSTEM>
-21.4752

>  <SCORE.SYSTEM.CONST>
0

>  <SCORE.SYSTEM.DIHEDRAL>
5.3162

>  <SCORE.SYSTEM.POLAR>
-3.39833

>  <SCORE.SYSTEM.SOLV>
0.694064

>  <SCORE.SYSTEM.VDW>
-4.99246

>  <SCORE.SYSTEM.norm>
-2.14752

>  <SCORE.heavy>
10

>  <SCORE.norm>
-5.21105

$$$$
P59189263
 OpenBabel12072022103D
libRbt.so/2013.1/901 2013/11/27
 14 14  0  0  0  0  0  0  0  0999 V2000
   20.6434  -17.4620    4.8554 C   0  0  0  0  0  0  0  0  0  0  0  0
   20.0527  -18.8414    4.5679 C   0  0  0  0  0  0  0  0  0  0  0  0
   18.6598  -18.7424    3.9407 C   0  0  2  0  0  0  0  0  0  0  0  0
   18.6179  -17.7425    2.7678 C   0  0  1  0  0  0  0  0  0  0  0  0
   19.2258  -16.4148    3.0948 N   0  0  0  0  0  0  0  0  0  0  0  0
   20.5853  -16.5603    3.6260 C   0  0  0  0  0  0  0  0  0  0  0  0
   19.2523  -18.3219    1.4884 C   0  0  0  0  0  0  0  0  0  0  0  0
   18.6859  -19.0673    0.6978 O   0  0  0  0  0  0  0  0  0  0  0  0
   20.5317  -17.8891    1.2579 N   0  0  0  0  0  0  0  0  0  0  0  0
   17.7133  -18.3470    4.9472 O   0  0  0  0  0  0  0  0  0  0  0  0
   18.6379  -15.9686    3.7989 H   0  0  0  0  0  0  0  0  0  0  0  0
   21.2548  -18.2559    1.8686 H   0  0  0  0  0  0  0  0  0  0  0  0
   20.7737  -17.6399    0.3094 H   0  0  0  0  0  0  0  0  0  0  0  0
   16.9209  -18.0057    4.5031 H   0  0  0  0  0  0  0  0  0  0  0  0
  1  2  1  0  0  0  0
  1  6  1  0  0  0  0
  2  3  1  0  0  0  0
  3 10  1  1  0  0  0
  3  4  1  0  0  0  0
  4  5  1  0  0  0  0
  4  7  1  6  0  0  0
  5  6  1  0  0  0  0
  5 11  1  0  0  0  0
  7  8  2  0  0  0  0
  7  9  1  0  0  0  0
  9 12  1  0  0  0  0
  9 13  1  0  0  0  0
 10 14  1  0  0  0  0
M  END
>  <CHROM.0>
-46.88019950,-60.87393580,-49.91249066,-53.25647113,-172.73486317,-57.68014134
-51.98251328,-176.07785684,-166.96269081,160.74155876

>  <CHROM.1>
161.45706832,81.86920181,71.98327870,19.37653238,-17.93732098,3.12195101
-1.59622349,-0.59576988,-1.72520697

>  <Name>
P59189263

>  <RI>
0

>  <Rbt.Current_Directory>
/home/fstefaniak/projects/zuza/docking/adenine/1Y26

>  <Rbt.Executable>
rbdock ($Id: //depot/dev/client3/rdock/2013.1/src/exe/rbdock.cxx#4 $)

>  <Rbt.Library>
libRbt.so (2013.1, Build901 2013/11/27)

>  <Rbt.Parameter_File>
/home/fstefaniak/progs/rDock//data/scripts/dock_solv.prm

>  <Rbt.Receptor>
1y26.prm

>  <SCORE>
-52.0886

>  <SCORE.INTER>
-32.1334

>  <SCORE.INTER.CONST>
1

>  <SCORE.INTER.POLAR>
-5.0513

>  <SCORE.INTER.ROT>
2

>  <SCORE.INTER.SOLV>
14.7499

>  <SCORE.INTER.VDW>
-14.4346

>  <SCORE.INTER.norm>
-3.21334

>  <SCORE.INTRA>
2.47728

>  <SCORE.INTRA.DIHEDRAL>
2.48416

>  <SCORE.INTRA.DIHEDRAL.0>
1.54121

>  <SCORE.INTRA.POLAR>
0.073828

>  <SCORE.INTRA.POLAR.0>
-0.073828

>  <SCORE.INTRA.REPUL>
0

>  <SCORE.INTRA.REPUL.0>
0

>  <SCORE.INTRA.SOLV>
0.343028

>  <SCORE.INTRA.SOLV.lig_0>
-15.9899

>  <SCORE.INTRA.VDW>
0.81267

>  <SCORE.INTRA.VDW.0>
-0.353284

>  <SCORE.INTRA.norm>
0.247728

>  <SCORE.RESTR>
0

>  <SCORE.RESTR.CAVITY>
0

>  <SCORE.RESTR.norm>
0

>  <SCORE.SYSTEM>
-22.4325

>  <SCORE.SYSTEM.CONST>
0

>  <SCORE.SYSTEM.DIHEDRAL>
6.51038

>  <SCORE.SYSTEM.POLAR>
-3.55297

>  <SCORE.SYSTEM.SOLV>
0.317873

>  <SCORE.SYSTEM.VDW>
-5.38786

>  <SCORE.SYSTEM.norm>
-2.24325

>  <SCORE.heavy>
10

>  <SCORE.norm>
-5.20886

$$$$
P59189804
 OpenBabel12072022103D
libRbt.so/2013.1/901 2013/11/27
 13 13  0  0  0  0  0  0  0  0999 V2000
   20.7959  -17.7326    2.7297 C   0  0  0  0  0  0  0  0  0  0  0  0
   21.1683  -16.9595    4.0085 C   0  0  0  0  0  0  0  0  0  0  0  0
   19.7221  -17.2444    4.5168 C   0  0  1  0  0  0  0  0  0  0  0  0
   19.3279  -17.3303    3.0029 C   0  0  2  0  0  0  0  0  0  0  0  0
   18.1758  -18.2631    2.6274 C   0  0  0  0  0  0  0  0  0  0  0  0
   17.5093  -18.8746    3.4673 O   0  0  0  0  0  0  0  0  0  0  0  0
   17.9125  -18.4069    1.2980 N   0  0  0  0  0  0  0  0  0  0  0  0
   19.5614  -18.4855    5.4465 C   0  0  0  0  0  0  0  0  0  0  0  0
   19.2966  -19.6217    5.0612 O   0  0  0  0  0  0  0  0  0  0  0  0
   19.7753  -18.2577    6.7689 O   0  0  0  0  0  0  0  0  0  0  0  0
   18.4407  -17.9428    0.5716 H   0  0  0  0  0  0  0  0  0  0  0  0
   17.1672  -19.0349    1.0229 H   0  0  0  0  0  0  0  0  0  0  0  0
   19.7107  -19.0566    7.3458 H   0  0  0  0  0  0  0  0  0  0  0  0
  1  2  1  0  0  0  0
  1  4  1  0  0  0  0
  2  3  1  0  0  0  0
  3  8  1  1  0  0  0
  3  4  1  0  0  0  0
  4  5  1  1  0  0  0
  5  6  2  0  0  0  0
  5  7  1  0  0  0  0
  7 11  1  0  0  0  0
  7 12  1  0  0  0  0
  8  9  2  0  0  0  0
  8 10  1  0  0  0  0
 10 13  1  0  0  0  0
M  END
>  <CHROM.0>
-49.16246420,-173.79211038,-58.15226027,-54.41403187,-56.24812672,-59.19805387
-58.74623191,-52.02130747,-167.94370809,160.85203922

>  <CHROM.1>
-91.38314093,108.24962950,-177.42271052,19.29683213,-18.16699480,3.92150204
-2.07010810,0.56221333,1.85075363

>  <Name>
P59189804

>  <RI>
0

>  <Rbt.Current_Directory>
/home/fstefaniak/projects/zuza/docking/adenine/1Y26

>  <Rbt.Executable>
rbdock ($Id: //depot/dev/client3/rdock/2013.1/src/exe/rbdock.cxx#4 $)

>  <Rbt.Library>
libRbt.so (2013.1, Build901 2013/11/27)

>  <Rbt.Parameter_File>
/home/fstefaniak/progs/rDock//data/scripts/dock_solv.prm

>  <Rbt.Receptor>
1y26.prm

>  <SCORE>
-53.0454

>  <SCORE.INTER>
-30.7958

>  <SCORE.INTER.CONST>
1

>  <SCORE.INTER.POLAR>
-3.83052

>  <SCORE.INTER.ROT>
2

>  <SCORE.INTER.SOLV>
12.7256

>  <SCORE.INTER.VDW>
-16.9373

>  <SCORE.INTER.norm>
-3.07958

>  <SCORE.INTRA>
0.160156

>  <SCORE.INTRA.DIHEDRAL>
-1.67959

>  <SCORE.INTRA.DIHEDRAL.0>
3.79962

>  <SCORE.INTRA.POLAR>
0.357849

>  <SCORE.INTRA.POLAR.0>
-0.357849

>  <SCORE.INTRA.REPUL>
0

>  <SCORE.INTRA.REPUL.0>
0

>  <SCORE.INTRA.SOLV>
-0.0309926

>  <SCORE.INTRA.SOLV.lig_0>
-13.5001

>  <SCORE.INTRA.VDW>
-0.20124

>  <SCORE.INTRA.VDW.0>
-0.644389

>  <SCORE.INTRA.norm>
0.0160156

>  <SCORE.RESTR>
0

>  <SCORE.RESTR.CAVITY>
0

>  <SCORE.RESTR.norm>
0

>  <SCORE.SYSTEM>
-22.4098

>  <SCORE.SYSTEM.CONST>
0

>  <SCORE.SYSTEM.DIHEDRAL>
5.53182

>  <SCORE.SYSTEM.POLAR>
-3.41825

>  <SCORE.SYSTEM.SOLV>
0.599565

>  <SCORE.SYSTEM.VDW>
-5.58949

>  <SCORE.SYSTEM.norm>
-2.24098

>  <SCORE.heavy>
10

>  <SCORE.norm>
-5.30454

$$$$
P59189804
 OpenBabel12072022103D
libRbt.so/2013.1/901 2013/11/27
 13 13  0  0  0  0  0  0  0  0999 V2000
   20.7809  -17.7624    2.6956 C   0  0  0  0  0  0  0  0  0  0  0  0
   21.1751  -17.0160    3.9837 C   0  0  0  0  0  0  0  0  0  0  0  0
   19.7340  -17.3020    4.5059 C   0  0  1  0  0  0  0  0  0  0  0  0
   19.3192  -17.3568    2.9960 C   0  0  2  0  0  0  0  0  0  0  0  0
   18.1566  -18.2755    2.6184 C   0  0  0  0  0  0  0  0  0  0  0  0
   17.4859  -18.8847    3.4568 O   0  0  0  0  0  0  0  0  0  0  0  0
   17.8883  -18.4092    1.2890 N   0  0  0  0  0  0  0  0  0  0  0  0
   19.5782  -18.5596    5.4140 C   0  0  0  0  0  0  0  0  0  0  0  0
   19.1853  -19.6586    5.0299 O   0  0  0  0  0  0  0  0  0  0  0  0
   19.9508  -18.3952    6.7104 O   0  0  0  0  0  0  0  0  0  0  0  0
   18.4194  -17.9466    0.5638 H   0  0  0  0  0  0  0  0  0  0  0  0
   17.1358  -19.0278    1.0124 H   0  0  0  0  0  0  0  0  0  0  0  0
   20.3544  -17.5187    6.9206 H   0  0  0  0  0  0  0  0  0  0  0  0
  1  2  1  0  0  0  0
  1  4  1  0  0  0  0
  2  3  1  0  0  0  0
  3  8  1  6  0  0  0
  3  4  1  0  0  0  0
  4  5  1  1  0  0  0
  5  6  2  0  0  0  0
  5  7  1  0  0  0  0
  7 11  1  0  0  0  0
  7 12  1  0  0  0  0
  8  9  2  0  0  0  0
  8 10  1  0  0  0  0
 10 13  1  0  0  0  0
M  END
>  <CHROM.0>
-46.33159608,62.41289443,-50.15537653,-49.38297735,-55.88720548,-50.91787921
-54.53094699,-171.01522551,-167.33158720,162.41127593

>  <CHROM.1>
-98.25910607,109.26659984,-5.07389701,19.30247594,-18.20033515,3.89540947
-2.12176516,0.55510040,1.87560267

>  <Name>
P59189804

>  <RI>
0

>  <Rbt.Current_Directory>
/home/fstefaniak/projects/zuza/docking/adenine/1Y26

>  <Rbt.Executable>
rbdock ($Id: //depot/dev/client3/rdock/2013.1/src/exe/rbdock.cxx#4 $)

>  <Rbt.Library>
libRbt.so (2013.1, Build901 2013/11/27)

>  <Rbt.Parameter_File>
/home/fstefaniak/progs/rDock//data/scripts/dock_solv.prm

>  <Rbt.Receptor>
1y26.prm

>  <SCORE>
-51.7215

>  <SCORE.INTER>
-30.7123

>  <SCORE.INTER.CONST>
1

>  <SCORE.INTER.POLAR>
-3.88704

>  <SCORE.INTER.ROT>
2

>  <SCORE.INTER.SOLV>
12.7627

>  <SCORE.INTER.VDW>
-16.7056

>  <SCORE.INTER.norm>
-3.07123

>  <SCORE.INTRA>
0.534514

>  <SCORE.INTRA.DIHEDRAL>
-1.84196

>  <SCORE.INTRA.DIHEDRAL.0>
3.79962

>  <SCORE.INTRA.POLAR>
0.357849

>  <SCORE.INTRA.POLAR.0>
-0.357849

>  <SCORE.INTRA.REPUL>
0

>  <SCORE.INTRA.REPUL.0>
0

>  <SCORE.INTRA.SOLV>
-0.10467

>  <SCORE.INTRA.SOLV.lig_0>
-13.5001

>  <SCORE.INTRA.VDW>
0.291141

>  <SCORE.INTRA.VDW.0>
-0.644389

>  <SCORE.INTRA.norm>
0.0534514

>  <SCORE.RESTR>
0

>  <SCORE.RESTR.CAVITY>
0

>  <SCORE.RESTR.norm>
0

>  <SCORE.SYSTEM>
-21.5438

>  <SCORE.SYSTEM.CONST>
0

>  <SCORE.SYSTEM.DIHEDRAL>
6.91552

>  <SCORE.SYSTEM.POLAR>
-3.59323

>  <SCORE.SYSTEM.SOLV>
0.524267

>  <SCORE.SYSTEM.VDW>
-4.86501

>  <SCORE.SYSTEM.norm>
-2.15438

>  <SCORE.heavy>
10

>  <SCORE.norm>
-5.17215

$$$$
P59189804
 OpenBabel12072022103D
libRbt.so/2013.1/901 2013/11/27
 13 13  0  0  0  0  0  0  0  0999 V2000
   20.7781  -17.7361    2.7271 C   0  0  0  0  0  0  0  0  0  0  0  0
   21.1456  -16.9841    4.0199 C   0  0  0  0  0  0  0  0  0  0  0  0
   19.7074  -17.3036    4.5304 C   0  0  1  0  0  0  0  0  0  0  0  0
   19.3054  -17.3642    3.0173 C   0  0  2  0  0  0  0  0  0  0  0  0
   18.1666  -18.3078    2.6289 C   0  0  0  0  0  0  0  0  0  0  0  0
   17.5072  -18.9384    3.4605 O   0  0  0  0  0  0  0  0  0  0  0  0
   17.9070  -18.4392    1.2975 N   0  0  0  0  0  0  0  0  0  0  0  0
   19.5730  -18.5665    5.4346 C   0  0  0  0  0  0  0  0  0  0  0  0
   19.1773  -19.6650    5.0520 O   0  0  0  0  0  0  0  0  0  0  0  0
   19.9688  -18.4073    6.7248 O   0  0  0  0  0  0  0  0  0  0  0  0
   18.4299  -17.9593    0.5775 H   0  0  0  0  0  0  0  0  0  0  0  0
   17.1706  -19.0738    1.0138 H   0  0  0  0  0  0  0  0  0  0  0  0
   20.3663  -17.5279    6.9339 H   0  0  0  0  0  0  0  0  0  0  0  0
  1  2  1  0  0  0  0
  1  4  1  0  0  0  0
  2  3  1  0  0  0  0
  3  8  1  6  0  0  0
  3  4  1  0  0  0  0
  4  5  1  1  0  0  0
  5  6  2  0  0  0  0
  5  7  1  0  0  0  0
  7 11  1  0  0  0  0
  7 12  1  0  0  0  0
  8  9  2  0  0  0  0
  8 10  1  0  0  0  0
 10 13  1  0  0  0  0
M  END
>  <CHROM.0>
-44.37713513,65.25043926,-55.61395887,-52.30521724,-173.66555181,-61.61469959
-57.54706649,-52.48964480,-167.68071900,161.21678060

>  <CHROM.1>
-100.09537549,108.94449804,-4.61202125,19.30177101,-18.21024085,3.91433196
-2.12780790,0.57839171,1.88185993

>  <Name>
P59189804

>  <RI>
0

>  <Rbt.Current_Directory>
/home/fstefaniak/projects/zuza/docking/adenine/1Y26

>  <Rbt.Executable>
rbdock ($Id: //depot/dev/client3/rdock/2013.1/src/exe/rbdock.cxx#4 $)

>  <Rbt.Library>
libRbt.so (2013.1, Build901 2013/11/27)

>  <Rbt.Parameter_File>
/home/fstefaniak/progs/rDock//data/scripts/dock_solv.prm

>  <Rbt.Receptor>
1y26.prm

>  <SCORE>
-51.5761

>  <SCORE.INTER>
-30.7964

>  <SCORE.INTER.CONST>
1

>  <SCORE.INTER.POLAR>
-3.86165

>  <SCORE.INTER.ROT>
2

>  <SCORE.INTER.SOLV>
12.7677

>  <SCORE.INTER.VDW>
-16.848

>  <SCORE.INTER.norm>
-3.07964

>  <SCORE.INTRA>
0.632007

>  <SCORE.INTRA.DIHEDRAL>
-1.95324

>  <SCORE.INTRA.DIHEDRAL.0>
3.79962

>  <SCORE.INTRA.POLAR>
0.357849

>  <SCORE.INTRA.POLAR.0>
-0.357849

>  <SCORE.INTRA.REPUL>
0

>  <SCORE.INTRA.REPUL.0>
0

>  <SCORE.INTRA.SOLV>
-0.101244

>  <SCORE.INTRA.SOLV.lig_0>
-13.5001

>  <SCORE.INTRA.VDW>
0.442565

>  <SCORE.INTRA.VDW.0>
-0.644389

>  <SCORE.INTRA.norm>
0.0632007

>  <SCORE.RESTR>
0

>  <SCORE.RESTR.CAVITY>
0

>  <SCORE.RESTR.norm>
0

>  <SCORE.SYSTEM>
-21.4117

>  <SCORE.SYSTEM.CONST>
0

>  <SCORE.SYSTEM.DIHEDRAL>
6.3365

>  <SCORE.SYSTEM.POLAR>
-3.53262

>  <SCORE.SYSTEM.SOLV>
0.524343

>  <SCORE.SYSTEM.VDW>
-4.78603

>  <SCORE.SYSTEM.norm>
-2.14117

>  <SCORE.heavy>
10

>  <SCORE.norm>
-5.15761

$$$$
P59190002
 OpenBabel12072022103D
libRbt.so/2013.1/901 2013/11/27
 12 13  0  0  0  0  0  0  0  0999 V2000
   21.5618  -16.9094    4.1900 C   0  0  0  0  0  0  0  0  0  0  0  0
   21.2017  -17.8334    3.0058 C   0  0  0  0  0  0  0  0  0  0  0  0
   19.6651  -17.9551    3.1074 C   0  0  2  0  0  0  0  0  0  0  0  0
   19.2720  -16.5570    3.6090 C   0  0  0  0  0  0  0  0  0  0  0  0
   20.1985  -16.6053    4.8205 C   0  0  1  0  0  0  0  0  0  0  0  0
   19.7219  -17.9068    5.4291 C   0  0  0  0  0  0  0  0  0  0  0  0
   19.7269  -18.1701    6.6203 O   0  0  0  0  0  0  0  0  0  0  0  0
   19.2983  -18.8453    4.3245 C   0  0  0  0  0  0  0  0  0  0  0  0
   18.9801  -18.4022    1.8381 C   0  0  0  0  0  0  0  0  0  0  0  0
   19.5538  -18.5281    0.7671 O   0  0  0  0  0  0  0  0  0  0  0  0
   17.6567  -18.6325    1.9653 O   0  0  0  0  0  0  0  0  0  0  0  0
   17.1941  -18.9123    1.1547 H   0  0  0  0  0  0  0  0  0  0  0  0
  1  2  1  0  0  0  0
  2  3  1  0  0  0  0
  3  4  1  0  0  0  0
  3  8  1  0  0  0  0
  3  9  1  6  0  0  0
  4  5  1  0  0  0  0
  5  1  1  6  0  0  0
  5  6  1  0  0  0  0
  6  8  1  0  0  0  0
  6  7  2  0  0  0  0
  9 10  2  0  0  0  0
  9 11  1  0  0  0  0
 11 12  1  0  0  0  0
M  END
>  <CHROM.0>
-46.23944481,-60.87759210,-48.54121721,-50.60884507,-56.82508367,-57.31782290
-62.72477336,-50.50303797,-165.75921079,160.98754174

>  <CHROM.1>
-7.40547476,179.33354129,19.67471462,-17.87809728,3.57008379,-1.21444971
-0.49541185,-1.61766870

>  <Name>
P59190002

>  <RI>
0

>  <Rbt.Current_Directory>
/home/fstefaniak/projects/zuza/docking/adenine/1Y26

>  <Rbt.Executable>
rbdock ($Id: //depot/dev/client3/rdock/2013.1/src/exe/rbdock.cxx#4 $)

>  <Rbt.Library>
libRbt.so (2013.1, Build901 2013/11/27)

>  <Rbt.Parameter_File>
/home/fstefaniak/progs/rDock//data/scripts/dock_solv.prm

>  <Rbt.Receptor>
1y26.prm

>  <SCORE>
-40.8891

>  <SCORE.INTER>
-18.6405

>  <SCORE.INTER.CONST>
1

>  <SCORE.INTER.POLAR>
-1.33829

>  <SCORE.INTER.ROT>
1

>  <SCORE.INTER.SOLV>
11.1344

>  <SCORE.INTER.VDW>
-15.9442

>  <SCORE.INTER.norm>
-1.69459

>  <SCORE.INTRA>
-0.130966

>  <SCORE.INTRA.DIHEDRAL>
0.0175479

>  <SCORE.INTRA.DIHEDRAL.0>
0.328475

>  <SCORE.INTRA.POLAR>
0

>  <SCORE.INTRA.POLAR.0>
0

>  <SCORE.INTRA.REPUL>
0

>  <SCORE.INTRA.REPUL.0>
0

>  <SCORE.INTRA.SOLV>
0.175181

>  <SCORE.INTRA.SOLV.lig_0>
-9.35988

>  <SCORE.INTRA.VDW>
-0.227331

>  <SCORE.INTRA.VDW.0>
0.0780325

>  <SCORE.INTRA.norm>
-0.011906

>  <SCORE.RESTR>
0

>  <SCORE.RESTR.CAVITY>
0

>  <SCORE.RESTR.norm>
0

>  <SCORE.SYSTEM>
-22.1176

>  <SCORE.SYSTEM.CONST>
0

>  <SCORE.SYSTEM.DIHEDRAL>
6.89519

>  <SCORE.SYSTEM.POLAR>
-3.63522

>  <SCORE.SYSTEM.SOLV>
0.677078

>  <SCORE.SYSTEM.VDW>
-5.15174

>  <SCORE.SYSTEM.norm>
-2.01069

>  <SCORE.heavy>
11

>  <SCORE.norm>
-3.71719

$$$$
P59190002
 OpenBabel12072022103D
libRbt.so/2013.1/901 2013/11/27
 12 13  0  0  0  0  0  0  0  0999 V2000
   21.7335  -16.8393    4.2902 C   0  0  0  0  0  0  0  0  0  0  0  0
   21.3006  -17.8634    3.2180 C   0  0  0  0  0  0  0  0  0  0  0  0
   19.7636  -17.9025    3.3671 C   0  0  2  0  0  0  0  0  0  0  0  0
   19.4461  -16.4431    3.7282 C   0  0  0  0  0  0  0  0  0  0  0  0
   20.4028  -16.4084    4.9165 C   0  0  1  0  0  0  0  0  0  0  0  0
   19.8867  -17.6163    5.6691 C   0  0  0  0  0  0  0  0  0  0  0  0
   19.9132  -17.7545    6.8809 O   0  0  0  0  0  0  0  0  0  0  0  0
   19.3921  -18.6436    4.6790 C   0  0  0  0  0  0  0  0  0  0  0  0
   19.0248  -18.4466    2.1679 C   0  0  0  0  0  0  0  0  0  0  0  0
   18.1043  -19.2459    2.2448 O   0  0  0  0  0  0  0  0  0  0  0  0
   19.4786  -17.9996    0.9783 O   0  0  0  0  0  0  0  0  0  0  0  0
   18.9295  -18.2195    0.2041 H   0  0  0  0  0  0  0  0  0  0  0  0
  1  2  1  0  0  0  0
  2  3  1  0  0  0  0
  3  4  1  0  0  0  0
  3  8  1  0  0  0  0
  3  9  1  6  0  0  0
  4  5  1  0  0  0  0
  5  1  1  6  0  0  0
  5  6  1  0  0  0  0
  6  8  1  0  0  0  0
  6  7  2  0  0  0  0
  9 10  2  0  0  0  0
  9 11  1  0  0  0  0
 11 12  1  0  0  0  0
M  END
>  <CHROM.0>
-48.22215501,46.65272359,-58.46152570,-50.33220407,-58.92927245,-62.56779524
-61.04370754,-51.91576469,-167.42960714,160.21912925

>  <CHROM.1>
135.61574955,-170.35286770,19.83429024,-17.76697370,3.78611161,-1.18852615
-0.65850505,-1.60537147

>  <Name>
P59190002

>  <RI>
0

>  <Rbt.Current_Directory>
/home/fstefaniak/projects/zuza/docking/adenine/1Y26

>  <Rbt.Executable>
rbdock ($Id: //depot/dev/client3/rdock/2013.1/src/exe/rbdock.cxx#4 $)

>  <Rbt.Library>
libRbt.so (2013.1, Build901 2013/11/27)

>  <Rbt.Parameter_File>
/home/fstefaniak/progs/rDock//data/scripts/dock_solv.prm

>  <Rbt.Receptor>
1y26.prm

>  <SCORE>
-40.478

>  <SCORE.INTER>
-19.384

>  <SCORE.INTER.CONST>
1

>  <SCORE.INTER.POLAR>
-1.94712

>  <SCORE.INTER.ROT>
1

>  <SCORE.INTER.SOLV>
11.5175

>  <SCORE.INTER.VDW>
-14.5381

>  <SCORE.INTER.norm>
-1.76218

>  <SCORE.INTRA>
0.437864

>  <SCORE.INTRA.DIHEDRAL>
0.990803

>  <SCORE.INTRA.DIHEDRAL.0>
0.328475

>  <SCORE.INTRA.POLAR>
0

>  <SCORE.INTRA.POLAR.0>
0

>  <SCORE.INTRA.REPUL>
0

>  <SCORE.INTRA.REPUL.0>
0

>  <SCORE.INTRA.SOLV>
0.16783

>  <SCORE.INTRA.SOLV.lig_0>
-9.35988

>  <SCORE.INTRA.VDW>
-0.141452

>  <SCORE.INTRA.VDW.0>
0.0780325

>  <SCORE.INTRA.norm>
0.0398058

>  <SCORE.RESTR>
0

>  <SCORE.RESTR.CAVITY>
0

>  <SCORE.RESTR.norm>
0

>  <SCORE.SYSTEM>
-21.5319

>  <SCORE.SYSTEM.CONST>
0

>  <SCORE.SYSTEM.DIHEDRAL>
6.6558

>  <SCORE.SYSTEM.POLAR>
-3.60457

>  <SCORE.SYSTEM.SOLV>
0.738625

>  <SCORE.SYSTEM.VDW>
-4.80416

>  <SCORE.SYSTEM.norm>
-1.95745

>  <SCORE.heavy>
11

>  <SCORE.norm>
-3.67982

$$$$
P59190002
 OpenBabel12072022103D
libRbt.so/2013.1/901 2013/11/27
 12 13  0  0  0  0  0  0  0  0999 V2000
   21.7346  -16.8527    4.3266 C   0  0  0  0  0  0  0  0  0  0  0  0
   21.3112  -17.8797    3.2535 C   0  0  0  0  0  0  0  0  0  0  0  0
   19.7729  -17.9185    3.3892 C   0  0  2  0  0  0  0  0  0  0  0  0
   19.4522  -16.4582    3.7434 C   0  0  0  0  0  0  0  0  0  0  0  0
   20.3984  -16.4202    4.9400 C   0  0  1  0  0  0  0  0  0  0  0  0
   19.8758  -17.6259    5.6913 C   0  0  0  0  0  0  0  0  0  0  0  0
   19.8916  -17.7608    6.9037 O   0  0  0  0  0  0  0  0  0  0  0  0
   19.3899  -18.6560    4.6998 C   0  0  0  0  0  0  0  0  0  0  0  0
   19.0448  -18.4659    2.1849 C   0  0  0  0  0  0  0  0  0  0  0  0
   18.1254  -19.2671    2.2558 O   0  0  0  0  0  0  0  0  0  0  0  0
   19.5069  -18.0197    0.9983 O   0  0  0  0  0  0  0  0  0  0  0  0
   18.9620  -18.2379    0.2207 H   0  0  0  0  0  0  0  0  0  0  0  0
  1  2  1  0  0  0  0
  2  3  1  0  0  0  0
  3  4  1  0  0  0  0
  3  8  1  0  0  0  0
  3  9  1  6  0  0  0
  4  5  1  0  0  0  0
  5  1  1  6  0  0  0
  5  6  1  0  0  0  0
  6  8  1  0  0  0  0
  6  7  2  0  0  0  0
  9 10  2  0  0  0  0
  9 11  1  0  0  0  0
 11 12  1  0  0  0  0
M  END
>  <CHROM.0>
-47.34200197,45.25223946,-58.44486950,-52.76074203,-57.74296394,-59.91393418
-60.52926906,-51.85749546,-168.26811896,160.21779628

>  <CHROM.1>
135.46437399,-170.04286416,19.83986673,-17.78174153,3.80837363,-1.19927026
-0.65897231,-1.61433980

>  <Name>
P59190002

>  <RI>
0

>  <Rbt.Current_Directory>
/home/fstefaniak/projects/zuza/docking/adenine/1Y26

>  <Rbt.Executable>
rbdock ($Id: //depot/dev/client3/rdock/2013.1/src/exe/rbdock.cxx#4 $)

>  <Rbt.Library>
libRbt.so (2013.1, Build901 2013/11/27)

>  <Rbt.Parameter_File>
/home/fstefaniak/progs/rDock//data/scripts/dock_solv.prm

>  <Rbt.Receptor>
1y26.prm

>  <SCORE>
-40.4415

>  <SCORE.INTER>
-19.3907

>  <SCORE.INTER.CONST>
1

>  <SCORE.INTER.POLAR>
-1.97211

>  <SCORE.INTER.ROT>
1

>  <SCORE.INTER.SOLV>
11.5314

>  <SCORE.INTER.VDW>
-14.4639

>  <SCORE.INTER.norm>
-1.7628

>  <SCORE.INTRA>
0.452887

>  <SCORE.INTRA.DIHEDRAL>
1.02318

>  <SCORE.INTRA.DIHEDRAL.0>
0.328475

>  <SCORE.INTRA.POLAR>
0

>  <SCORE.INTRA.POLAR.0>
0

>  <SCORE.INTRA.REPUL>
0

>  <SCORE.INTRA.REPUL.0>
0

>  <SCORE.INTRA.SOLV>
0.167743

>  <SCORE.INTRA.SOLV.lig_0>
-9.35988

>  <SCORE.INTRA.VDW>
-0.142572

>  <SCORE.INTRA.VDW.0>
0.0780325

>  <SCORE.INTRA.norm>
0.0411715

>  <SCORE.RESTR>
0

>  <SCORE.RESTR.CAVITY>
0

>  <SCORE.RESTR.norm>
0

>  <SCORE.SYSTEM>
-21.5036

>  <SCORE.SYSTEM.CONST>
0

>  <SCORE.SYSTEM.DIHEDRAL>
6.6463

>  <SCORE.SYSTEM.POLAR>
-3.57305

>  <SCORE.SYSTEM.SOLV>
0.748076

>  <SCORE.SYSTEM.VDW>
-4.89038

>  <SCORE.SYSTEM.norm>
-1.95488

>  <SCORE.heavy>
11

>  <SCORE.norm>
-3.6765

$$$$
P59191345
 OpenBabel12072022103D
libRbt.so/2013.1/901 2013/11/27
 11 10  0  0  0  0  0  0  0  0999 V2000
   19.5761  -18.6056    6.2336 C   0  0  0  0  0  0  0  0  0  0  0  0
   19.2078  -18.4121    4.7819 C   0  0  0  0  0  0  0  0  0  0  0  0
   18.3893  -19.1700    4.2484 O   0  0  0  0  0  0  0  0  0  0  0  0
   19.9237  -17.2435    4.0275 C   0  0  2  0  0  0  0  0  0  0  0  0
   21.1818  -17.7528    3.3310 C   0  0  0  0  0  0  0  0  0  0  0  0
   20.3047  -16.1911    4.9777 N   0  0  0  0  0  0  0  0  0  0  0  0
   21.1304  -15.2355    4.2461 O   0  0  0  0  0  0  0  0  0  0  0  0
   19.0718  -16.6640    3.0651 O   0  0  0  0  0  0  0  0  0  0  0  0
   20.9598  -16.5801    5.6587 H   0  0  0  0  0  0  0  0  0  0  0  0
   20.5079  -14.9473    3.5416 H   0  0  0  0  0  0  0  0  0  0  0  0
   18.3791  -16.2547    3.6180 H   0  0  0  0  0  0  0  0  0  0  0  0
  1  2  1  0  0  0  0
  2  3  2  0  0  0  0
  4  6  1  0  0  0  0
  4  8  1  0  0  0  0
  4  5  1  6  0  0  0
  4  2  1  0  0  0  0
  6  7  1  0  0  0  0
  6  9  1  0  0  0  0
  7 10  1  0  0  0  0
  8 11  1  0  0  0  0
M  END
>  <CHROM.0>
-43.97139576,-63.39168813,-55.56020483,-52.77175978,-58.31999966,-58.91802763
-60.69487480,-50.85939226,-166.41520630,161.29954768

>  <CHROM.1>
171.94661952,66.60864050,92.67454234,59.65484572,19.85343688,-17.35158034
4.34182085,-2.52089276,-0.90980728,-1.12573328

>  <Name>
P59191345

>  <RI>
0

>  <Rbt.Current_Directory>
/home/fstefaniak/projects/zuza/docking/adenine/1Y26

>  <Rbt.Executable>
rbdock ($Id: //depot/dev/client3/rdock/2013.1/src/exe/rbdock.cxx#4 $)

>  <Rbt.Library>
libRbt.so (2013.1, Build901 2013/11/27)

>  <Rbt.Parameter_File>
/home/fstefaniak/progs/rDock//data/scripts/dock_solv.prm

>  <Rbt.Receptor>
1y26.prm

>  <SCORE>
-50.2882

>  <SCORE.INTER>
-30.3304

>  <SCORE.INTER.CONST>
1

>  <SCORE.INTER.POLAR>
-5.08972

>  <SCORE.INTER.ROT>
2

>  <SCORE.INTER.SOLV>
11.6527

>  <SCORE.INTER.VDW>
-12.072

>  <SCORE.INTER.norm>
-3.79129

>  <SCORE.INTRA>
2.24542

>  <SCORE.INTRA.DIHEDRAL>
-1.62487

>  <SCORE.INTRA.DIHEDRAL.0>
3.39686

>  <SCORE.INTRA.POLAR>
0.278763

>  <SCORE.INTRA.POLAR.0>
-0.278763

>  <SCORE.INTRA.REPUL>
0

>  <SCORE.INTRA.REPUL.0>
0

>  <SCORE.INTRA.SOLV>
-0.617591

>  <SCORE.INTRA.SOLV.lig_0>
-16.9221

>  <SCORE.INTRA.VDW>
2.41886

>  <SCORE.INTRA.VDW.0>
0.64514

>  <SCORE.INTRA.norm>
0.280678

>  <SCORE.RESTR>
0

>  <SCORE.RESTR.CAVITY>
0

>  <SCORE.RESTR.norm>
0

>  <SCORE.SYSTEM>
-22.2033

>  <SCORE.SYSTEM.CONST>
0

>  <SCORE.SYSTEM.DIHEDRAL>
6.33698

>  <SCORE.SYSTEM.POLAR>
-3.55321

>  <SCORE.SYSTEM.SOLV>
0.664799

>  <SCORE.SYSTEM.VDW>
-5.29211

>  <SCORE.SYSTEM.norm>
-2.77541

>  <SCORE.heavy>
8

>  <SCORE.norm>
-6.28603

$$$$
P59191345
 OpenBabel12072022103D
libRbt.so/2013.1/901 2013/11/27
 11 10  0  0  0  0  0  0  0  0999 V2000
   19.5941  -18.6697    6.1540 C   0  0  0  0  0  0  0  0  0  0  0  0
   19.1382  -18.3576    4.7486 C   0  0  0  0  0  0  0  0  0  0  0  0
   18.2159  -19.0073    4.2422 O   0  0  0  0  0  0  0  0  0  0  0  0
   19.9006  -17.2130    4.0030 C   0  0  2  0  0  0  0  0  0  0  0  0
   21.1558  -17.7608    3.3310 C   0  0  0  0  0  0  0  0  0  0  0  0
   20.2944  -16.1680    4.9560 N   0  0  0  0  0  0  0  0  0  0  0  0
   21.1116  -15.2077    4.2212 O   0  0  0  0  0  0  0  0  0  0  0  0
   19.0829  -16.6135    3.0234 O   0  0  0  0  0  0  0  0  0  0  0  0
   20.9576  -16.5625    5.6258 H   0  0  0  0  0  0  0  0  0  0  0  0
   20.4848  -14.9234    3.5190 H   0  0  0  0  0  0  0  0  0  0  0  0
   18.4092  -16.1577    3.5633 H   0  0  0  0  0  0  0  0  0  0  0  0
  1  2  1  0  0  0  0
  2  3  2  0  0  0  0
  4  6  1  0  0  0  0
  4  8  1  0  0  0  0
  4  5  1  6  0  0  0
  4  2  1  0  0  0  0
  6  7  1  0  0  0  0
  6  9  1  0  0  0  0
  7 10  1  0  0  0  0
  8 11  1  0  0  0  0
M  END
>  <CHROM.0>
-52.87199469,-63.47306358,-55.78114234,-54.24183941,-58.54969783,58.23226057
-61.39954496,-51.60972870,-165.04810359,160.66071574

>  <CHROM.1>
174.39607870,68.40274376,85.30707638,58.87435126,19.81757610,-17.31585914
4.31270131,-2.45015715,-0.83555448,-1.02655207

>  <Name>
P59191345

>  <RI>
0

>  <Rbt.Current_Directory>
/home/fstefaniak/projects/zuza/docking/adenine/1Y26

>  <Rbt.Executable>
rbdock ($Id: //depot/dev/client3/rdock/2013.1/src/exe/rbdock.cxx#4 $)

>  <Rbt.Library>
libRbt.so (2013.1, Build901 2013/11/27)

>  <Rbt.Parameter_File>
/home/fstefaniak/progs/rDock//data/scripts/dock_solv.prm

>  <Rbt.Receptor>
1y26.prm

>  <SCORE>
-49.4314

>  <SCORE.INTER>
-29.7528

>  <SCORE.INTER.CONST>
1

>  <SCORE.INTER.POLAR>
-5.08665

>  <SCORE.INTER.ROT>
2

>  <SCORE.INTER.SOLV>
11.763

>  <SCORE.INTER.VDW>
-11.734

>  <SCORE.INTER.norm>
-3.7191

>  <SCORE.INTRA>
1.71219

>  <SCORE.INTRA.DIHEDRAL>
-1.81784

>  <SCORE.INTRA.DIHEDRAL.0>
3.39686

>  <SCORE.INTRA.POLAR>
0.278763

>  <SCORE.INTRA.POLAR.0>
-0.278763

>  <SCORE.INTRA.REPUL>
0

>  <SCORE.INTRA.REPUL.0>
0

>  <SCORE.INTRA.SOLV>
-0.61756

>  <SCORE.INTRA.SOLV.lig_0>
-16.9221

>  <SCORE.INTRA.VDW>
1.98209

>  <SCORE.INTRA.VDW.0>
0.64514

>  <SCORE.INTRA.norm>
0.214023

>  <SCORE.RESTR>
0

>  <SCORE.RESTR.CAVITY>
0

>  <SCORE.RESTR.norm>
0

>  <SCORE.SYSTEM>
-21.3908

>  <SCORE.SYSTEM.CONST>
0

>  <SCORE.SYSTEM.DIHEDRAL>
5.51654

>  <SCORE.SYSTEM.POLAR>
-3.41564

>  <SCORE.SYSTEM.SOLV>
0.48613

>  <SCORE.SYSTEM.VDW>
-4.876

>  <SCORE.SYSTEM.norm>
-2.67386

>  <SCORE.heavy>
8

>  <SCORE.norm>
-6.17893

$$$$
P59191345
 OpenBabel12072022103D
libRbt.so/2013.1/901 2013/11/27
 11 10  0  0  0  0  0  0  0  0999 V2000
   18.4510  -18.4816    1.4326 C   0  0  0  0  0  0  0  0  0  0  0  0
   18.8992  -18.6077    2.8691 C   0  0  0  0  0  0  0  0  0  0  0  0
   18.3715  -19.4482    3.6069 O   0  0  0  0  0  0  0  0  0  0  0  0
   20.0194  -17.6236    3.3422 C   0  0  2  0  0  0  0  0  0  0  0  0
   20.3119  -17.8254    4.8258 C   0  0  0  0  0  0  0  0  0  0  0  0
   19.5905  -16.2354    3.1313 N   0  0  0  0  0  0  0  0  0  0  0  0
   20.5948  -15.3800    3.7553 O   0  0  0  0  0  0  0  0  0  0  0  0
   21.2090  -17.8204    2.6115 O   0  0  0  0  0  0  0  0  0  0  0  0
   18.7584  -16.0556    3.6965 H   0  0  0  0  0  0  0  0  0  0  0  0
   20.4963  -14.5560    3.2280 H   0  0  0  0  0  0  0  0  0  0  0  0
   20.9120  -17.6940    1.6901 H   0  0  0  0  0  0  0  0  0  0  0  0
  1  2  1  0  0  0  0
  2  3  2  0  0  0  0
  4  6  1  0  0  0  0
  4  8  1  0  0  0  0
  4  5  1  1  0  0  0
  4  2  1  0  0  0  0
  6  7  1  0  0  0  0
  6  9  1  0  0  0  0
  7 10  1  0  0  0  0
  8 11  1  0  0  0  0
M  END
>  <CHROM.0>
-44.06201530,-57.89661258,-65.36899418,-52.54058810,-56.43803578,-59.95834309
-172.58777134,-176.99397507,-166.73203261,161.20390277

>  <CHROM.1>
172.47679649,56.80860958,177.13162081,153.84574442,19.71161307,-17.62487189
3.19687266,2.91481788,0.98416894,2.16536570

>  <Name>
P59191345

>  <RI>
0

>  <Rbt.Current_Directory>
/home/fstefaniak/projects/zuza/docking/adenine/1Y26

>  <Rbt.Executable>
rbdock ($Id: //depot/dev/client3/rdock/2013.1/src/exe/rbdock.cxx#4 $)

>  <Rbt.Library>
libRbt.so (2013.1, Build901 2013/11/27)

>  <Rbt.Parameter_File>
/home/fstefaniak/progs/rDock//data/scripts/dock_solv.prm

>  <Rbt.Receptor>
1y26.prm

>  <SCORE>
-48.7734

>  <SCORE.INTER>
-28.5245

>  <SCORE.INTER.CONST>
1

>  <SCORE.INTER.POLAR>
-4.66697

>  <SCORE.INTER.ROT>
2

>  <SCORE.INTER.SOLV>
12.7148

>  <SCORE.INTER.VDW>
-12.6313

>  <SCORE.INTER.norm>
-3.56556

>  <SCORE.INTRA>
1.41414

>  <SCORE.INTRA.DIHEDRAL>
-2.44423

>  <SCORE.INTRA.DIHEDRAL.0>
3.39686

>  <SCORE.INTRA.POLAR>
0.278763

>  <SCORE.INTRA.POLAR.0>
-0.278763

>  <SCORE.INTRA.REPUL>
0

>  <SCORE.INTRA.REPUL.0>
0

>  <SCORE.INTRA.SOLV>
-0.753936

>  <SCORE.INTRA.SOLV.lig_0>
-16.9221

>  <SCORE.INTRA.VDW>
2.06542

>  <SCORE.INTRA.VDW.0>
0.64514

>  <SCORE.INTRA.norm>
0.176767

>  <SCORE.RESTR>
0

>  <SCORE.RESTR.CAVITY>
0

>  <SCORE.RESTR.norm>
0

>  <SCORE.SYSTEM>
-21.663

>  <SCORE.SYSTEM.CONST>
0

>  <SCORE.SYSTEM.DIHEDRAL>
6.28837

>  <SCORE.SYSTEM.POLAR>
-3.47513

>  <SCORE.SYSTEM.SOLV>
0.405351

>  <SCORE.SYSTEM.VDW>
-5.08947

>  <SCORE.SYSTEM.norm>
-2.70788

>  <SCORE.heavy>
8

>  <SCORE.norm>
-6.09667

$$$$
P59192640
 OpenBabel12072022103D
libRbt.so/2013.1/901 2013/11/27
 11 11  0  0  0  0  0  0  0  0999 V2000
   22.6557  -16.3503    3.8926 C   0  0  0  0  0  0  0  0  0  0  0  0
   21.4252  -17.2350    3.7752 C   0  0  1  0  0  0  0  0  0  0  0  0
   20.3021  -16.8399    4.7054 C   0  0  0  0  0  0  0  0  0  0  0  0
   19.0949  -17.4674    4.0357 C   0  0  1  0  0  0  0  0  0  0  0  0
   19.4530  -17.6998    2.6739 O   0  0  0  0  0  0  0  0  0  0  0  0
   20.7738  -17.1138    2.4645 N   0  0  0  0  0  0  0  0  0  0  0  0
   21.5156  -17.9921    1.5800 O   0  0  0  0  0  0  0  0  0  0  0  0
   18.6766  -18.7613    4.7245 C   0  0  0  0  0  0  0  0  0  0  0  0
   18.1976  -19.6969    4.0770 O   0  0  0  0  0  0  0  0  0  0  0  0
   18.7791  -18.8415    6.2261 C   0  0  0  0  0  0  0  0  0  0  0  0
   20.8765  -18.7213    1.4791 H   0  0  0  0  0  0  0  0  0  0  0  0
  2  1  1  6  0  0  0
  2  3  1  0  0  0  0
  2  6  1  0  0  0  0
  3  4  1  0  0  0  0
  4  5  1  0  0  0  0
  4  8  1  1  0  0  0
  5  6  1  0  0  0  0
  6  7  1  0  0  0  0
  7 11  1  0  0  0  0
  8  9  2  0  0  0  0
  8 10  1  0  0  0  0
M  END
>  <CHROM.0>
-48.15001777,-63.23578515,-56.91580213,-52.96913474,-56.58381636,-61.37603549
-60.91902877,-176.43505019,-166.95804062,159.68375255

>  <CHROM.1>
-146.40614026,106.74901783,20.10380222,-17.82338183,3.76052187,-0.41476875
0.62112334,1.36904831

>  <Name>
P59192640

>  <RI>
0

>  <Rbt.Current_Directory>
/home/fstefaniak/projects/zuza/docking/adenine/1Y26

>  <Rbt.Executable>
rbdock ($Id: //depot/dev/client3/rdock/2013.1/src/exe/rbdock.cxx#4 $)

>  <Rbt.Library>
libRbt.so (2013.1, Build901 2013/11/27)

>  <Rbt.Parameter_File>
/home/fstefaniak/progs/rDock//data/scripts/dock_solv.prm

>  <Rbt.Receptor>
1y26.prm

>  <SCORE>
-46.6327

>  <SCORE.INTER>
-24.6661

>  <SCORE.INTER.CONST>
1

>  <SCORE.INTER.POLAR>
-3.84797

>  <SCORE.INTER.ROT>
1

>  <SCORE.INTER.SOLV>
12.5589

>  <SCORE.INTER.VDW>
-12.0705

>  <SCORE.INTER.norm>
-2.46661

>  <SCORE.INTRA>
0.738092

>  <SCORE.INTRA.DIHEDRAL>
-0.552416

>  <SCORE.INTRA.DIHEDRAL.0>
2.70884

>  <SCORE.INTRA.POLAR>
0

>  <SCORE.INTRA.POLAR.0>
0

>  <SCORE.INTRA.REPUL>
0

>  <SCORE.INTRA.REPUL.0>
0

>  <SCORE.INTRA.SOLV>
-0.266371

>  <SCORE.INTRA.SOLV.lig_0>
-16.511

>  <SCORE.INTRA.VDW>
1.14749

>  <SCORE.INTRA.VDW.0>
0.150243

>  <SCORE.INTRA.norm>
0.0738092

>  <SCORE.RESTR>
0

>  <SCORE.RESTR.CAVITY>
0

>  <SCORE.RESTR.norm>
0

>  <SCORE.SYSTEM>
-22.7046

>  <SCORE.SYSTEM.CONST>
0

>  <SCORE.SYSTEM.DIHEDRAL>
5.65266

>  <SCORE.SYSTEM.POLAR>
-3.46806

>  <SCORE.SYSTEM.SOLV>
0.442375

>  <SCORE.SYSTEM.VDW>
-5.6079

>  <SCORE.SYSTEM.norm>
-2.27046

>  <SCORE.heavy>
10

>  <SCORE.norm>
-4.66327

$$$$
P59192640
 OpenBabel12072022103D
libRbt.so/2013.1/901 2013/11/27
 11 11  0  0  0  0  0  0  0  0999 V2000
   22.5177  -16.3706    3.9883 C   0  0  0  0  0  0  0  0  0  0  0  0
   21.2593  -17.1930    3.7628 C   0  0  1  0  0  0  0  0  0  0  0  0
   20.0484  -16.6636    4.4949 C   0  0  0  0  0  0  0  0  0  0  0  0
   18.9051  -17.2755    3.7088 C   0  0  1  0  0  0  0  0  0  0  0  0
   19.4292  -17.6356    2.4311 O   0  0  0  0  0  0  0  0  0  0  0  0
   20.8017  -17.1417    2.3682 N   0  0  0  0  0  0  0  0  0  0  0  0
   21.5979  -18.1274    1.6622 O   0  0  0  0  0  0  0  0  0  0  0  0
   18.3131  -18.4851    4.4229 C   0  0  0  0  0  0  0  0  0  0  0  0
   17.0928  -18.5975    4.5721 O   0  0  0  0  0  0  0  0  0  0  0  0
   19.2550  -19.4987    5.0206 C   0  0  0  0  0  0  0  0  0  0  0  0
   20.9193  -18.8024    1.4773 H   0  0  0  0  0  0  0  0  0  0  0  0
  2  1  1  6  0  0  0
  2  3  1  0  0  0  0
  2  6  1  0  0  0  0
  3  4  1  0  0  0  0
  4  5  1  0  0  0  0
  4  8  1  1  0  0  0
  5  6  1  0  0  0  0
  6  7  1  0  0  0  0
  7 11  1  0  0  0  0
  8  9  2  0  0  0  0
  8 10  1  0  0  0  0
M  END
>  <CHROM.0>
-48.06367067,-62.81477274,-55.74308046,-53.21718711,-57.80537850,-63.09180019
-61.14354434,-52.42222012,-164.83590934,160.01806541

>  <CHROM.1>
131.60110899,110.01755210,19.93996621,-17.72261227,3.59741448,-0.28518578
0.46745556,1.31870579

>  <Name>
P59192640

>  <RI>
0

>  <Rbt.Current_Directory>
/home/fstefaniak/projects/zuza/docking/adenine/1Y26

>  <Rbt.Executable>
rbdock ($Id: //depot/dev/client3/rdock/2013.1/src/exe/rbdock.cxx#4 $)

>  <Rbt.Library>
libRbt.so (2013.1, Build901 2013/11/27)

>  <Rbt.Parameter_File>
/home/fstefaniak/progs/rDock//data/scripts/dock_solv.prm

>  <Rbt.Receptor>
1y26.prm

>  <SCORE>
-46.378

>  <SCORE.INTER>
-24.2744

>  <SCORE.INTER.CONST>
1

>  <SCORE.INTER.POLAR>
-3.66444

>  <SCORE.INTER.ROT>
1

>  <SCORE.INTER.SOLV>
12.98

>  <SCORE.INTER.VDW>
-12.5614

>  <SCORE.INTER.norm>
-2.42744

>  <SCORE.INTRA>
0.157593

>  <SCORE.INTRA.DIHEDRAL>
-0.961065

>  <SCORE.INTRA.DIHEDRAL.0>
2.70884

>  <SCORE.INTRA.POLAR>
0

>  <SCORE.INTRA.POLAR.0>
0

>  <SCORE.INTRA.REPUL>
0

>  <SCORE.INTRA.REPUL.0>
0

>  <SCORE.INTRA.SOLV>
-0.181402

>  <SCORE.INTRA.SOLV.lig_0>
-16.511

>  <SCORE.INTRA.VDW>
0.728826

>  <SCORE.INTRA.VDW.0>
0.150243

>  <SCORE.INTRA.norm>
0.0157593

>  <SCORE.RESTR>
0

>  <SCORE.RESTR.CAVITY>
0

>  <SCORE.RESTR.norm>
0

>  <SCORE.SYSTEM>
-22.2612

>  <SCORE.SYSTEM.CONST>
0

>  <SCORE.SYSTEM.DIHEDRAL>
6.08489

>  <SCORE.SYSTEM.POLAR>
-3.50744

>  <SCORE.SYSTEM.SOLV>
0.647865

>  <SCORE.SYSTEM.VDW>
-5.3936

>  <SCORE.SYSTEM.norm>
-2.22612

>  <SCORE.heavy>
10

>  <SCORE.norm>
-4.6378

$$$$
P59192640
 OpenBabel12072022103D
libRbt.so/2013.1/901 2013/11/27
 11 11  0  0  0  0  0  0  0  0999 V2000
   22.4512  -16.2502    3.9769 C   0  0  0  0  0  0  0  0  0  0  0  0
   21.2274  -17.1271    3.7669 C   0  0  1  0  0  0  0  0  0  0  0  0
   19.9851  -16.6110    4.4547 C   0  0  0  0  0  0  0  0  0  0  0  0
   18.8791  -17.2980    3.6774 C   0  0  1  0  0  0  0  0  0  0  0  0
   19.4390  -17.6939    2.4258 O   0  0  0  0  0  0  0  0  0  0  0  0
   20.7938  -17.1533    2.3640 N   0  0  0  0  0  0  0  0  0  0  0  0
   21.6375  -18.1390    1.7156 O   0  0  0  0  0  0  0  0  0  0  0  0
   18.3179  -18.4962    4.4343 C   0  0  0  0  0  0  0  0  0  0  0  0
   17.1032  -18.6153    4.6199 O   0  0  0  0  0  0  0  0  0  0  0  0
   19.2850  -19.4884    5.0277 C   0  0  0  0  0  0  0  0  0  0  0  0
   20.9731  -18.8125    1.4807 H   0  0  0  0  0  0  0  0  0  0  0  0
  2  1  1  6  0  0  0
  2  3  1  0  0  0  0
  2  6  1  0  0  0  0
  3  4  1  0  0  0  0
  4  5  1  0  0  0  0
  4  8  1  1  0  0  0
  5  6  1  0  0  0  0
  6  7  1  0  0  0  0
  7 11  1  0  0  0  0
  8  9  2  0  0  0  0
  8 10  1  0  0  0  0
M  END
>  <CHROM.0>
-53.05450433,-61.59910633,-56.03351153,-53.66723422,-58.03400165,-60.25131788
-60.59019638,-51.83350738,-165.63410433,161.01804172

>  <CHROM.1>
128.31741582,114.65927900,19.93147025,-17.71184802,3.60174605,-0.24191830
0.50421562,1.22696900

>  <Name>
P59192640

>  <RI>
0

>  <Rbt.Current_Directory>
/home/fstefaniak/projects/zuza/docking/adenine/1Y26

>  <Rbt.Executable>
rbdock ($Id: //depot/dev/client3/rdock/2013.1/src/exe/rbdock.cxx#4 $)

>  <Rbt.Library>
libRbt.so (2013.1, Build901 2013/11/27)

>  <Rbt.Parameter_File>
/home/fstefaniak/progs/rDock//data/scripts/dock_solv.prm

>  <Rbt.Receptor>
1y26.prm

>  <SCORE>
-46.3509

>  <SCORE.INTER>
-24.0379

>  <SCORE.INTER.CONST>
1

>  <SCORE.INTER.POLAR>
-3.64431

>  <SCORE.INTER.ROT>
1

>  <SCORE.INTER.SOLV>
12.9235

>  <SCORE.INTER.VDW>
-12.4521

>  <SCORE.INTER.norm>
-2.40379

>  <SCORE.INTRA>
-0.050738

>  <SCORE.INTRA.DIHEDRAL>
-1.02477

>  <SCORE.INTRA.DIHEDRAL.0>
2.70884

>  <SCORE.INTRA.POLAR>
0

>  <SCORE.INTRA.POLAR.0>
0

>  <SCORE.INTRA.REPUL>
0

>  <SCORE.INTRA.REPUL.0>
0

>  <SCORE.INTRA.SOLV>
-0.161017

>  <SCORE.INTRA.SOLV.lig_0>
-16.511

>  <SCORE.INTRA.VDW>
0.542155

>  <SCORE.INTRA.VDW.0>
0.150243

>  <SCORE.INTRA.norm>
-0.0050738

>  <SCORE.RESTR>
0

>  <SCORE.RESTR.CAVITY>
0

>  <SCORE.RESTR.norm>
0

>  <SCORE.SYSTEM>
-22.2623

>  <SCORE.SYSTEM.CONST>
0

>  <SCORE.SYSTEM.DIHEDRAL>
5.32712

>  <SCORE.SYSTEM.POLAR>
-3.40834

>  <SCORE.SYSTEM.SOLV>
0.650658

>  <SCORE.SYSTEM.VDW>
-5.47302

>  <SCORE.SYSTEM.norm>
-2.22623

>  <SCORE.heavy>
10

>  <SCORE.norm>
-4.63509

$$$$
P59196469
 OpenBabel12072022103D
libRbt.so/2013.1/901 2013/11/27
 10 10  0  0  0  0  0  0  0  0999 V2000
   20.9651  -16.0299    3.7610 C   0  0  0  0  0  0  0  0  0  0  0  0
   20.0870  -17.1617    4.2235 C   0  0  0  0  0  0  0  0  0  0  0  0
   19.9906  -17.4068    5.4979 N   0  0  0  0  0  0  0  0  0  0  0  0
   19.1727  -18.4463    5.8245 N   0  0  0  0  0  0  0  0  0  0  0  0
   18.9507  -19.5208    4.8522 C   0  0  0  0  0  0  0  0  0  0  0  0
   18.4913  -18.9930    3.6121 O   0  0  0  0  0  0  0  0  0  0  0  0
   19.3863  -18.0107    3.1445 C   0  0  1  0  0  0  0  0  0  0  0  0
   18.6688  -17.1809    2.2509 O   0  0  0  0  0  0  0  0  0  0  0  0
   19.3740  -18.9944    7.1651 C   0  0  0  0  0  0  0  0  0  0  0  0
   18.2461  -17.8098    1.6404 H   0  0  0  0  0  0  0  0  0  0  0  0
  1  2  1  0  0  0  0
  2  3  2  0  0  0  0
  2  7  1  0  0  0  0
  3  4  1  0  0  0  0
  4  5  1  0  0  0  0
  4  9  1  0  0  0  0
  5  6  1  0  0  0  0
  6  7  1  0  0  0  0
  7  8  1  6  0  0  0
  8 10  1  0  0  0  0
M  END
>  <CHROM.0>
-51.04512278,178.48947595,-50.85906126,-53.31827488,-57.24477492,-60.76870615
-60.91747149,-52.16444600,-167.29291308,160.64694757

>  <CHROM.1>
-178.05759897,19.41995868,-17.97899833,4.44150925,-1.49055823,0.88493856
1.98688857

>  <Name>
P59196469

>  <RI>
0

>  <Rbt.Current_Directory>
/home/fstefaniak/projects/zuza/docking/adenine/1Y26

>  <Rbt.Executable>
rbdock ($Id: //depot/dev/client3/rdock/2013.1/src/exe/rbdock.cxx#4 $)

>  <Rbt.Library>
libRbt.so (2013.1, Build901 2013/11/27)

>  <Rbt.Parameter_File>
/home/fstefaniak/progs/rDock//data/scripts/dock_solv.prm

>  <Rbt.Receptor>
1y26.prm

>  <SCORE>
-51.9897

>  <SCORE.INTER>
-29.3255

>  <SCORE.INTER.CONST>
1

>  <SCORE.INTER.POLAR>
-3.05311

>  <SCORE.INTER.ROT>
0

>  <SCORE.INTER.SOLV>
10.7711

>  <SCORE.INTER.VDW>
-16.5637

>  <SCORE.INTER.norm>
-3.25839

>  <SCORE.INTRA>
-0.261648

>  <SCORE.INTRA.DIHEDRAL>
-0.541623

>  <SCORE.INTRA.DIHEDRAL.0>
0.739456

>  <SCORE.INTRA.POLAR>
0

>  <SCORE.INTRA.POLAR.0>
0

>  <SCORE.INTRA.REPUL>
0

>  <SCORE.INTRA.REPUL.0>
0

>  <SCORE.INTRA.SOLV>
0.0025615

>  <SCORE.INTRA.SOLV.lig_0>
-12.3365

>  <SCORE.INTRA.VDW>
0.00788227

>  <SCORE.INTRA.VDW.0>
-0.132811

>  <SCORE.INTRA.norm>
-0.0290721

>  <SCORE.RESTR>
0

>  <SCORE.RESTR.CAVITY>
0

>  <SCORE.RESTR.norm>
0

>  <SCORE.SYSTEM>
-22.4025

>  <SCORE.SYSTEM.CONST>
0

>  <SCORE.SYSTEM.DIHEDRAL>
5.66982

>  <SCORE.SYSTEM.POLAR>
-3.48266

>  <SCORE.SYSTEM.SOLV>
0.610015

>  <SCORE.SYSTEM.VDW>
-5.41941

>  <SCORE.SYSTEM.norm>
-2.48917

>  <SCORE.heavy>
9

>  <SCORE.norm>
-5.77663

$$$$
P59196469
 OpenBabel12072022103D
libRbt.so/2013.1/901 2013/11/27
 10 10  0  0  0  0  0  0  0  0999 V2000
   21.1313  -16.0644    3.8617 C   0  0  0  0  0  0  0  0  0  0  0  0
   20.2261  -17.1895    4.2869 C   0  0  0  0  0  0  0  0  0  0  0  0
   20.0587  -17.4208    5.5565 N   0  0  0  0  0  0  0  0  0  0  0  0
   19.2214  -18.4552    5.8483 N   0  0  0  0  0  0  0  0  0  0  0  0
   19.0510  -19.5396    4.8766 C   0  0  0  0  0  0  0  0  0  0  0  0
   18.6622  -19.0242    3.6075 O   0  0  0  0  0  0  0  0  0  0  0  0
   19.5841  -18.0487    3.1798 C   0  0  1  0  0  0  0  0  0  0  0  0
   18.9192  -17.2271    2.2391 O   0  0  0  0  0  0  0  0  0  0  0  0
   19.3469  -18.9893    7.2037 C   0  0  0  0  0  0  0  0  0  0  0  0
   18.2818  -16.7275    2.7785 H   0  0  0  0  0  0  0  0  0  0  0  0
  1  2  1  0  0  0  0
  2  3  2  0  0  0  0
  2  7  1  0  0  0  0
  3  4  1  0  0  0  0
  4  5  1  0  0  0  0
  4  9  1  0  0  0  0
  5  6  1  0  0  0  0
  6  7  1  0  0  0  0
  7  8  1  6  0  0  0
  8 10  1  0  0  0  0
M  END
>  <CHROM.0>
-48.23128539,176.85034588,-58.88835825,-51.41598603,-56.22315871,-61.62081273
-65.77803250,-51.14589790,-166.65684191,160.75142735

>  <CHROM.1>
-57.08589348,19.54410346,-17.99439703,4.48527064,-1.39602614,0.90192311,1.92209589

>  <Name>
P59196469

>  <RI>
0

>  <Rbt.Current_Directory>
/home/fstefaniak/projects/zuza/docking/adenine/1Y26

>  <Rbt.Executable>
rbdock ($Id: //depot/dev/client3/rdock/2013.1/src/exe/rbdock.cxx#4 $)

>  <Rbt.Library>
libRbt.so (2013.1, Build901 2013/11/27)

>  <Rbt.Parameter_File>
/home/fstefaniak/progs/rDock//data/scripts/dock_solv.prm

>  <Rbt.Receptor>
1y26.prm

>  <SCORE>
-51.3439

>  <SCORE.INTER>
-28.8212

>  <SCORE.INTER.CONST>
1

>  <SCORE.INTER.POLAR>
-3.0781

>  <SCORE.INTER.ROT>
0

>  <SCORE.INTER.SOLV>
10.533

>  <SCORE.INTER.VDW>
-16.0648

>  <SCORE.INTER.norm>
-3.20235

>  <SCORE.INTRA>
-0.172136

>  <SCORE.INTRA.DIHEDRAL>
-0.519563

>  <SCORE.INTRA.DIHEDRAL.0>
0.739456

>  <SCORE.INTRA.POLAR>
0

>  <SCORE.INTRA.POLAR.0>
0

>  <SCORE.INTRA.REPUL>
0

>  <SCORE.INTRA.REPUL.0>
0

>  <SCORE.INTRA.SOLV>
-0.00599802

>  <SCORE.INTRA.SOLV.lig_0>
-12.3365

>  <SCORE.INTRA.VDW>
0.0906444

>  <SCORE.INTRA.VDW.0>
-0.132811

>  <SCORE.INTRA.norm>
-0.0191262

>  <SCORE.RESTR>
0

>  <SCORE.RESTR.CAVITY>
0

>  <SCORE.RESTR.norm>
0

>  <SCORE.SYSTEM>
-22.3506

>  <SCORE.SYSTEM.CONST>
0

>  <SCORE.SYSTEM.DIHEDRAL>
6.05343

>  <SCORE.SYSTEM.POLAR>
-3.51224

>  <SCORE.SYSTEM.SOLV>
0.592262

>  <SCORE.SYSTEM.VDW>
-5.40816

>  <SCORE.SYSTEM.norm>
-2.4834

>  <SCORE.heavy>
9

>  <SCORE.norm>
-5.70488

$$$$
P59196469
 OpenBabel12072022103D
libRbt.so/2013.1/901 2013/11/27
 10 10  0  0  0  0  0  0  0  0999 V2000
   21.1458  -16.0815    3.8022 C   0  0  0  0  0  0  0  0  0  0  0  0
   20.2281  -17.1949    4.2311 C   0  0  0  0  0  0  0  0  0  0  0  0
   20.0607  -17.4223    5.5014 N   0  0  0  0  0  0  0  0  0  0  0  0
   19.2117  -18.4461    5.7965 N   0  0  0  0  0  0  0  0  0  0  0  0
   19.0260  -19.5298    4.8269 C   0  0  0  0  0  0  0  0  0  0  0  0
   18.6406  -19.0116    3.5578 O   0  0  0  0  0  0  0  0  0  0  0  0
   19.5733  -18.0479    3.1266 C   0  0  1  0  0  0  0  0  0  0  0  0
   18.9163  -17.2198    2.1862 O   0  0  0  0  0  0  0  0  0  0  0  0
   19.3337  -18.9797    7.1525 C   0  0  0  0  0  0  0  0  0  0  0  0
   18.2764  -16.7217    2.7242 H   0  0  0  0  0  0  0  0  0  0  0  0
  1  2  1  0  0  0  0
  2  3  2  0  0  0  0
  2  7  1  0  0  0  0
  3  4  1  0  0  0  0
  4  5  1  0  0  0  0
  4  9  1  0  0  0  0
  5  6  1  0  0  0  0
  6  7  1  0  0  0  0
  7  8  1  6  0  0  0
  8 10  1  0  0  0  0
M  END
>  <CHROM.0>
-51.44038966,176.34377231,-50.63802074,-53.40410694,-58.94050341,-59.33145645
-62.37342598,-53.27484766,-167.30496452,160.73472167

>  <CHROM.1>
-57.94182320,19.53677587,-17.99130006,4.43212426,-1.39290813,0.88970369,1.91807018

>  <Name>
P59196469

>  <RI>
0

>  <Rbt.Current_Directory>
/home/fstefaniak/projects/zuza/docking/adenine/1Y26

>  <Rbt.Executable>
rbdock ($Id: //depot/dev/client3/rdock/2013.1/src/exe/rbdock.cxx#4 $)

>  <Rbt.Library>
libRbt.so (2013.1, Build901 2013/11/27)

>  <Rbt.Parameter_File>
/home/fstefaniak/progs/rDock//data/scripts/dock_solv.prm

>  <Rbt.Receptor>
1y26.prm

>  <SCORE>
-51.3261

>  <SCORE.INTER>
-28.8402

>  <SCORE.INTER.CONST>
1

>  <SCORE.INTER.POLAR>
-3.07219

>  <SCORE.INTER.ROT>
0

>  <SCORE.INTER.SOLV>
10.5054

>  <SCORE.INTER.VDW>
-16.088

>  <SCORE.INTER.norm>
-3.20447

>  <SCORE.INTRA>
-0.189956

>  <SCORE.INTRA.DIHEDRAL>
-0.539456

>  <SCORE.INTRA.DIHEDRAL.0>
0.739456

>  <SCORE.INTRA.POLAR>
0

>  <SCORE.INTRA.POLAR.0>
0

>  <SCORE.INTRA.REPUL>
0

>  <SCORE.INTRA.REPUL.0>
0

>  <SCORE.INTRA.SOLV>
-0.00549189

>  <SCORE.INTRA.SOLV.lig_0>
-12.3365

>  <SCORE.INTRA.VDW>
0.0825174

>  <SCORE.INTRA.VDW.0>
-0.132811

>  <SCORE.INTRA.norm>
-0.0211063

>  <SCORE.RESTR>
0

>  <SCORE.RESTR.CAVITY>
0

>  <SCORE.RESTR.norm>
0

>  <SCORE.SYSTEM>
-22.2959

>  <SCORE.SYSTEM.CONST>
0

>  <SCORE.SYSTEM.DIHEDRAL>
5.61019

>  <SCORE.SYSTEM.POLAR>
-3.46863

>  <SCORE.SYSTEM.SOLV>
0.60856

>  <SCORE.SYSTEM.VDW>
-5.37479

>  <SCORE.SYSTEM.norm>
-2.47733

>  <SCORE.heavy>
9

>  <SCORE.norm>
-5.7029

$$$$
P59198805
 OpenBabel12072022103D
libRbt.so/2013.1/901 2013/11/27
 14 14  0  0  0  0  0  0  0  0999 V2000
   22.1795  -16.4229    4.3917 C   0  0  0  0  0  0  0  0  0  0  0  0
   21.2140  -17.2845    3.6187 C   0  0  0  0  0  0  0  0  0  0  0  0
   21.3717  -17.4814    2.4144 O   0  0  0  0  0  0  0  0  0  0  0  0
   20.1626  -17.8267    4.3234 N   0  0  0  0  0  0  0  0  0  0  0  0
   20.0169  -17.7886    5.7736 C   0  0  0  0  0  0  0  0  0  0  0  0
   19.0851  -18.9643    6.0984 C   0  0  2  0  0  0  0  0  0  0  0  0
   18.1854  -19.0050    4.8659 C   0  0  0  0  0  0  0  0  0  0  0  0
   19.1630  -18.7255    3.7154 C   0  0  1  0  0  0  0  0  0  0  0  0
   18.4219  -18.1429    2.5001 C   0  0  0  0  0  0  0  0  0  0  0  0
   19.2602  -18.0767    1.3508 O   0  0  0  0  0  0  0  0  0  0  0  0
   18.3266  -18.8392    7.3358 N   0  0  0  0  0  0  0  0  0  0  0  0
   19.4648  -19.0055    1.0980 H   0  0  0  0  0  0  0  0  0  0  0  0
   18.0626  -17.8677    7.4988 H   0  0  0  0  0  0  0  0  0  0  0  0
   18.9011  -19.1177    8.1307 H   0  0  0  0  0  0  0  0  0  0  0  0
  1  2  1  0  0  0  0
  2  3  2  0  0  0  0
  2  4  1  0  0  0  0
  4  5  1  0  0  0  0
  4  8  1  0  0  0  0
  5  6  1  0  0  0  0
  6  7  1  0  0  0  0
  6 11  1  1  0  0  0
  7  8  1  0  0  0  0
  8  9  1  6  0  0  0
  9 10  1  0  0  0  0
 10 12  1  0  0  0  0
 11 13  1  0  0  0  0
 11 14  1  0  0  0  0
M  END
>  <CHROM.0>
-36.04021216,-63.49701619,-62.00568133,-51.06970840,-57.36309329,-60.46468669
-58.91815517,-51.53253825,-166.63848044,161.18112316

>  <CHROM.1>
35.21282039,72.64655775,66.06420369,19.76320296,-18.04483169,4.18439300,-1.10117216
0.50143585,1.61714637

>  <Name>
P59198805

>  <RI>
0

>  <Rbt.Current_Directory>
/home/fstefaniak/projects/zuza/docking/adenine/1Y26

>  <Rbt.Executable>
rbdock ($Id: //depot/dev/client3/rdock/2013.1/src/exe/rbdock.cxx#4 $)

>  <Rbt.Library>
libRbt.so (2013.1, Build901 2013/11/27)

>  <Rbt.Parameter_File>
/home/fstefaniak/progs/rDock//data/scripts/dock_solv.prm

>  <Rbt.Receptor>
1y26.prm

>  <SCORE>
-52.5294

>  <SCORE.INTER>
-34.3558

>  <SCORE.INTER.CONST>
1

>  <SCORE.INTER.POLAR>
-4.53046

>  <SCORE.INTER.ROT>
2

>  <SCORE.INTER.SOLV>
12.9869

>  <SCORE.INTER.VDW>
-17.0646

>  <SCORE.INTER.norm>
-3.12325

>  <SCORE.INTRA>
3.61664

>  <SCORE.INTRA.DIHEDRAL>
-0.75145

>  <SCORE.INTRA.DIHEDRAL.0>
2.32319

>  <SCORE.INTRA.POLAR>
1

>  <SCORE.INTRA.POLAR.0>
-1

>  <SCORE.INTRA.REPUL>
0

>  <SCORE.INTRA.REPUL.0>
0

>  <SCORE.INTRA.SOLV>
0.149487

>  <SCORE.INTRA.SOLV.lig_0>
-14.8997

>  <SCORE.INTRA.VDW>
0.517617

>  <SCORE.INTRA.VDW.0>
-0.276693

>  <SCORE.INTRA.norm>
0.328785

>  <SCORE.RESTR>
0

>  <SCORE.RESTR.CAVITY>
0

>  <SCORE.RESTR.norm>
0

>  <SCORE.SYSTEM>
-21.7903

>  <SCORE.SYSTEM.CONST>
0

>  <SCORE.SYSTEM.DIHEDRAL>
7.61772

>  <SCORE.SYSTEM.POLAR>
-3.66317

>  <SCORE.SYSTEM.SOLV>
0.664389

>  <SCORE.SYSTEM.VDW>
-5.077

>  <SCORE.SYSTEM.norm>
-1.98094

>  <SCORE.heavy>
11

>  <SCORE.norm>
-4.7754

$$$$
P59198805
 OpenBabel12072022103D
libRbt.so/2013.1/901 2013/11/27
 14 14  0  0  0  0  0  0  0  0999 V2000
   22.1758  -16.4391    4.3986 C   0  0  0  0  0  0  0  0  0  0  0  0
   21.2042  -17.2887    3.6199 C   0  0  0  0  0  0  0  0  0  0  0  0
   21.3583  -17.4754    2.4135 O   0  0  0  0  0  0  0  0  0  0  0  0
   20.1516  -17.8319    4.3220 N   0  0  0  0  0  0  0  0  0  0  0  0
   20.0091  -17.8062    5.7728 C   0  0  0  0  0  0  0  0  0  0  0  0
   19.0721  -18.9800    6.0890 C   0  0  2  0  0  0  0  0  0  0  0  0
   18.1695  -19.0049    4.8581 C   0  0  0  0  0  0  0  0  0  0  0  0
   19.1461  -18.7199    3.7080 C   0  0  1  0  0  0  0  0  0  0  0  0
   18.4053  -18.1225    2.4998 C   0  0  0  0  0  0  0  0  0  0  0  0
   19.2290  -18.0872    1.3386 O   0  0  0  0  0  0  0  0  0  0  0  0
   18.3168  -18.8623    7.3291 N   0  0  0  0  0  0  0  0  0  0  0  0
   19.4323  -19.0223    1.1094 H   0  0  0  0  0  0  0  0  0  0  0  0
   17.9957  -17.9040    7.4646 H   0  0  0  0  0  0  0  0  0  0  0  0
   18.9133  -19.0806    8.1267 H   0  0  0  0  0  0  0  0  0  0  0  0
  1  2  1  0  0  0  0
  2  3  2  0  0  0  0
  2  4  1  0  0  0  0
  4  5  1  0  0  0  0
  4  8  1  0  0  0  0
  5  6  1  0  0  0  0
  6  7  1  0  0  0  0
  6 11  1  1  0  0  0
  7  8  1  0  0  0  0
  8  9  1  6  0  0  0
  9 10  1  0  0  0  0
 10 12  1  0  0  0  0
 11 13  1  0  0  0  0
 11 14  1  0  0  0  0
M  END
>  <CHROM.0>
-28.02371253,-61.72549244,-56.37972714,-52.64829068,-57.18162845,-63.74701040
-58.68111264,-52.53720957,-164.08582233,160.60812668

>  <CHROM.1>
39.64458996,74.39990418,63.86440393,19.74916209,-18.05034208,4.18076435,-1.10462846
0.49750329,1.62339232

>  <Name>
P59198805

>  <RI>
0

>  <Rbt.Current_Directory>
/home/fstefaniak/projects/zuza/docking/adenine/1Y26

>  <Rbt.Executable>
rbdock ($Id: //depot/dev/client3/rdock/2013.1/src/exe/rbdock.cxx#4 $)

>  <Rbt.Library>
libRbt.so (2013.1, Build901 2013/11/27)

>  <Rbt.Parameter_File>
/home/fstefaniak/progs/rDock//data/scripts/dock_solv.prm

>  <Rbt.Receptor>
1y26.prm

>  <SCORE>
-52.4704

>  <SCORE.INTER>
-34.7219

>  <SCORE.INTER.CONST>
1

>  <SCORE.INTER.POLAR>
-4.64289

>  <SCORE.INTER.ROT>
2

>  <SCORE.INTER.SOLV>
12.9876

>  <SCORE.INTER.VDW>
-16.9342

>  <SCORE.INTER.norm>
-3.15653

>  <SCORE.INTRA>
3.36498

>  <SCORE.INTRA.DIHEDRAL>
-0.946024

>  <SCORE.INTRA.DIHEDRAL.0>
2.32319

>  <SCORE.INTRA.POLAR>
1

>  <SCORE.INTRA.POLAR.0>
-1

>  <SCORE.INTRA.REPUL>
0

>  <SCORE.INTRA.REPUL.0>
0

>  <SCORE.INTRA.SOLV>
0.119201

>  <SCORE.INTRA.SOLV.lig_0>
-14.8997

>  <SCORE.INTRA.VDW>
0.378388

>  <SCORE.INTRA.VDW.0>
-0.276693

>  <SCORE.INTRA.norm>
0.305907

>  <SCORE.RESTR>
0

>  <SCORE.RESTR.CAVITY>
0

>  <SCORE.RESTR.norm>
0

>  <SCORE.SYSTEM>
-21.1135

>  <SCORE.SYSTEM.CONST>
0

>  <SCORE.SYSTEM.DIHEDRAL>
9.37181

>  <SCORE.SYSTEM.POLAR>
-3.74478

>  <SCORE.SYSTEM.SOLV>
0.66636

>  <SCORE.SYSTEM.VDW>
-4.93912

>  <SCORE.SYSTEM.norm>
-1.91941

>  <SCORE.heavy>
11

>  <SCORE.norm>
-4.77004

$$$$
P59198805
 OpenBabel12072022103D
libRbt.so/2013.1/901 2013/11/27
 14 14  0  0  0  0  0  0  0  0999 V2000
   22.2281  -16.4493    4.3849 C   0  0  0  0  0  0  0  0  0  0  0  0
   21.2559  -17.2970    3.6050 C   0  0  0  0  0  0  0  0  0  0  0  0
   21.4098  -17.4820    2.3983 O   0  0  0  0  0  0  0  0  0  0  0  0
   20.2028  -17.8404    4.3063 N   0  0  0  0  0  0  0  0  0  0  0  0
   20.0604  -17.8167    5.7571 C   0  0  0  0  0  0  0  0  0  0  0  0
   19.1224  -18.9902    6.0716 C   0  0  2  0  0  0  0  0  0  0  0  0
   18.2198  -19.0125    4.8408 C   0  0  0  0  0  0  0  0  0  0  0  0
   19.1966  -18.7267    3.6911 C   0  0  1  0  0  0  0  0  0  0  0  0
   18.4563  -18.1269    2.4837 C   0  0  0  0  0  0  0  0  0  0  0  0
   19.2812  -18.0871    1.3235 O   0  0  0  0  0  0  0  0  0  0  0  0
   18.3673  -18.8737    7.3119 N   0  0  0  0  0  0  0  0  0  0  0  0
   19.4743  -19.0216    1.0835 H   0  0  0  0  0  0  0  0  0  0  0  0
   18.0024  -17.9279    7.4229 H   0  0  0  0  0  0  0  0  0  0  0  0
   18.9763  -19.0421    8.1121 H   0  0  0  0  0  0  0  0  0  0  0  0
  1  2  1  0  0  0  0
  2  3  2  0  0  0  0
  2  4  1  0  0  0  0
  4  5  1  0  0  0  0
  4  8  1  0  0  0  0
  5  6  1  0  0  0  0
  6  7  1  0  0  0  0
  6 11  1  1  0  0  0
  7  8  1  0  0  0  0
  8  9  1  6  0  0  0
  9 10  1  0  0  0  0
 10 12  1  0  0  0  0
 11 13  1  0  0  0  0
 11 14  1  0  0  0  0
M  END
>  <CHROM.0>
60.36121141,-61.70871989,-64.34235955,-53.83704255,-177.33155797,-178.57509949
-172.71817703,-172.72006113,-166.75363513,160.60414854

>  <CHROM.1>
42.82971962,74.23521589,64.74300452,19.80008426,-18.05764287,4.16464880,-1.10414134
0.49626363,1.62488126

>  <Name>
P59198805

>  <RI>
0

>  <Rbt.Current_Directory>
/home/fstefaniak/projects/zuza/docking/adenine/1Y26

>  <Rbt.Executable>
rbdock ($Id: //depot/dev/client3/rdock/2013.1/src/exe/rbdock.cxx#4 $)

>  <Rbt.Library>
libRbt.so (2013.1, Build901 2013/11/27)

>  <Rbt.Parameter_File>
/home/fstefaniak/progs/rDock//data/scripts/dock_solv.prm

>  <Rbt.Receptor>
1y26.prm

>  <SCORE>
-52.0762

>  <SCORE.INTER>
-34.8298

>  <SCORE.INTER.CONST>
1

>  <SCORE.INTER.POLAR>
-4.65876

>  <SCORE.INTER.ROT>
2

>  <SCORE.INTER.SOLV>
13.0168

>  <SCORE.INTER.VDW>
-16.9629

>  <SCORE.INTER.norm>
-3.16634

>  <SCORE.INTRA>
3.29865

>  <SCORE.INTRA.DIHEDRAL>
-1.08038

>  <SCORE.INTRA.DIHEDRAL.0>
2.32319

>  <SCORE.INTRA.POLAR>
1

>  <SCORE.INTRA.POLAR.0>
-1

>  <SCORE.INTRA.REPUL>
0

>  <SCORE.INTRA.REPUL.0>
0

>  <SCORE.INTRA.SOLV>
0.122089

>  <SCORE.INTRA.SOLV.lig_0>
-14.8997

>  <SCORE.INTRA.VDW>
0.377793

>  <SCORE.INTRA.VDW.0>
-0.276693

>  <SCORE.INTRA.norm>
0.299877

>  <SCORE.RESTR>
0

>  <SCORE.RESTR.CAVITY>
0

>  <SCORE.RESTR.norm>
0

>  <SCORE.SYSTEM>
-20.5451

>  <SCORE.SYSTEM.CONST>
0

>  <SCORE.SYSTEM.DIHEDRAL>
5.24428

>  <SCORE.SYSTEM.POLAR>
-3.15963

>  <SCORE.SYSTEM.SOLV>
0.0644851

>  <SCORE.SYSTEM.VDW>
-4.93423

>  <SCORE.SYSTEM.norm>
-1.86774

>  <SCORE.heavy>
11

>  <SCORE.norm>
-4.7342

$$$$
P59199259
 OpenBabel12072022103D
libRbt.so/2013.1/901 2013/11/27
 10 10  0  0  0  0  0  0  0  0999 V2000
   20.8571  -15.6983    4.1279 C   0  0  0  0  0  0  0  0  0  0  0  0
   20.1562  -16.9905    3.8296 C   0  0  0  0  0  0  0  0  0  0  0  0
   19.3971  -17.1475    2.8788 O   0  0  0  0  0  0  0  0  0  0  0  0
   20.3880  -18.1073    4.7806 C   0  0  1  0  0  0  0  0  0  0  0  0
   19.8822  -18.0027    6.2027 C   0  0  0  0  0  0  0  0  0  0  0  0
   19.2758  -19.0131    5.2611 C   0  0  1  0  0  0  0  0  0  0  0  0
   17.8502  -18.9534    4.8400 C   0  0  0  0  0  0  0  0  0  0  0  0
   16.9652  -19.0141    5.6793 O   0  0  0  0  0  0  0  0  0  0  0  0
   17.5920  -18.7921    3.5256 O   0  0  0  0  0  0  0  0  0  0  0  0
   18.3430  -18.4453    2.9897 H   0  0  0  0  0  0  0  0  0  0  0  0
  1  2  1  0  0  0  0
  2  3  2  0  0  0  0
  4  2  1  6  0  0  0
  4  5  1  0  0  0  0
  4  6  1  0  0  0  0
  5  6  1  0  0  0  0
  6  7  1  6  0  0  0
  7  8  2  0  0  0  0
  7  9  1  0  0  0  0
  9 10  1  0  0  0  0
M  END
>  <CHROM.0>
-50.48748091,-61.19527378,-55.81614411,-53.21145158,-56.38209057,-57.25724631
-55.44400611,-174.74224439,-166.87545660,159.23050638

>  <CHROM.1>
66.19185295,-134.07563144,-18.56723536,19.09866088,-17.96138285,4.52885505
-0.51741142,0.56351741,1.98439791

>  <Name>
P59199259

>  <RI>
0

>  <Rbt.Current_Directory>
/home/fstefaniak/projects/zuza/docking/adenine/1Y26

>  <Rbt.Executable>
rbdock ($Id: //depot/dev/client3/rdock/2013.1/src/exe/rbdock.cxx#4 $)

>  <Rbt.Library>
libRbt.so (2013.1, Build901 2013/11/27)

>  <Rbt.Parameter_File>
/home/fstefaniak/progs/rDock//data/scripts/dock_solv.prm

>  <Rbt.Receptor>
1y26.prm

>  <SCORE>
-47.7562

>  <SCORE.INTER>
-25.0515

>  <SCORE.INTER.CONST>
1

>  <SCORE.INTER.POLAR>
-2.92948

>  <SCORE.INTER.ROT>
2

>  <SCORE.INTER.SOLV>
9.52556

>  <SCORE.INTER.VDW>
-15.0446

>  <SCORE.INTER.norm>
-2.7835

>  <SCORE.INTRA>
-0.118591

>  <SCORE.INTRA.DIHEDRAL>
1.80048

>  <SCORE.INTRA.DIHEDRAL.0>
5.08957

>  <SCORE.INTRA.POLAR>
-0.221701

>  <SCORE.INTRA.POLAR.0>
-0.46549

>  <SCORE.INTRA.REPUL>
0

>  <SCORE.INTRA.REPUL.0>
0

>  <SCORE.INTRA.SOLV>
-0.000997333

>  <SCORE.INTRA.SOLV.lig_0>
-9.25289

>  <SCORE.INTRA.VDW>
-0.264549

>  <SCORE.INTRA.VDW.0>
0.104697

>  <SCORE.INTRA.norm>
-0.0131767

>  <SCORE.RESTR>
0

>  <SCORE.RESTR.CAVITY>
0

>  <SCORE.RESTR.norm>
0

>  <SCORE.SYSTEM>
-22.5861

>  <SCORE.SYSTEM.CONST>
0

>  <SCORE.SYSTEM.DIHEDRAL>
5.67336

>  <SCORE.SYSTEM.POLAR>
-3.45897

>  <SCORE.SYSTEM.SOLV>
0.462693

>  <SCORE.SYSTEM.VDW>
-5.57285

>  <SCORE.SYSTEM.norm>
-2.50957

>  <SCORE.heavy>
9

>  <SCORE.norm>
-5.30624

$$$$
P59199259
 OpenBabel12072022103D
libRbt.so/2013.1/901 2013/11/27
 10 10  0  0  0  0  0  0  0  0999 V2000
   20.8046  -15.7940    4.0000 C   0  0  0  0  0  0  0  0  0  0  0  0
   20.0892  -17.0850    3.7332 C   0  0  0  0  0  0  0  0  0  0  0  0
   19.3154  -17.2515    2.7958 O   0  0  0  0  0  0  0  0  0  0  0  0
   20.3252  -18.1878    4.6994 C   0  0  1  0  0  0  0  0  0  0  0  0
   19.8744  -18.0398    6.1360 C   0  0  0  0  0  0  0  0  0  0  0  0
   19.2073  -19.0524    5.2389 C   0  0  1  0  0  0  0  0  0  0  0  0
   17.7695  -18.9622    4.8678 C   0  0  0  0  0  0  0  0  0  0  0  0
   17.4537  -18.7072    3.7161 O   0  0  0  0  0  0  0  0  0  0  0  0
   16.8577  -19.2099    5.8310 O   0  0  0  0  0  0  0  0  0  0  0  0
   17.2281  -19.5213    6.6897 H   0  0  0  0  0  0  0  0  0  0  0  0
  1  2  1  0  0  0  0
  2  3  2  0  0  0  0
  4  2  1  6  0  0  0
  4  5  1  0  0  0  0
  4  6  1  0  0  0  0
  5  6  1  0  0  0  0
  6  7  1  6  0  0  0
  7  8  2  0  0  0  0
  7  9  1  0  0  0  0
  9 10  1  0  0  0  0
M  END
>  <CHROM.0>
-50.79271162,61.40519940,-59.63026232,-53.76419802,-58.37255029,-174.96909077
-62.11378925,-54.26787138,-165.58382131,160.41927248

>  <CHROM.1>
64.50624972,37.02932922,-5.86157166,19.01479870,-18.03382528,4.55111547,-0.60392137
0.50611389,2.00115064

>  <Name>
P59199259

>  <RI>
0

>  <Rbt.Current_Directory>
/home/fstefaniak/projects/zuza/docking/adenine/1Y26

>  <Rbt.Executable>
rbdock ($Id: //depot/dev/client3/rdock/2013.1/src/exe/rbdock.cxx#4 $)

>  <Rbt.Library>
libRbt.so (2013.1, Build901 2013/11/27)

>  <Rbt.Parameter_File>
/home/fstefaniak/progs/rDock//data/scripts/dock_solv.prm

>  <Rbt.Receptor>
1y26.prm

>  <SCORE>
-46.5112

>  <SCORE.INTER>
-25.8121

>  <SCORE.INTER.CONST>
1

>  <SCORE.INTER.POLAR>
-3.08721

>  <SCORE.INTER.ROT>
2

>  <SCORE.INTER.SOLV>
9.59431

>  <SCORE.INTER.VDW>
-15.0488

>  <SCORE.INTER.norm>
-2.86801

>  <SCORE.INTRA>
0.707249

>  <SCORE.INTRA.DIHEDRAL>
-1.06198

>  <SCORE.INTRA.DIHEDRAL.0>
5.08957

>  <SCORE.INTRA.POLAR>
0.46549

>  <SCORE.INTRA.POLAR.0>
-0.46549

>  <SCORE.INTRA.REPUL>
0

>  <SCORE.INTRA.REPUL.0>
0

>  <SCORE.INTRA.SOLV>
-0.0550365

>  <SCORE.INTRA.SOLV.lig_0>
-9.25289

>  <SCORE.INTRA.VDW>
-0.316909

>  <SCORE.INTRA.VDW.0>
0.104697

>  <SCORE.INTRA.norm>
0.0785833

>  <SCORE.RESTR>
0

>  <SCORE.RESTR.CAVITY>
0

>  <SCORE.RESTR.norm>
0

>  <SCORE.SYSTEM>
-21.4064

>  <SCORE.SYSTEM.CONST>
0

>  <SCORE.SYSTEM.DIHEDRAL>
5.48824

>  <SCORE.SYSTEM.POLAR>
-3.4262

>  <SCORE.SYSTEM.SOLV>
0.534718

>  <SCORE.SYSTEM.VDW>
-4.85788

>  <SCORE.SYSTEM.norm>
-2.37848

>  <SCORE.heavy>
9

>  <SCORE.norm>
-5.16791

$$$$
P59199259
 OpenBabel12072022103D
libRbt.so/2013.1/901 2013/11/27
 10 10  0  0  0  0  0  0  0  0999 V2000
   20.6593  -15.8234    4.0876 C   0  0  0  0  0  0  0  0  0  0  0  0
   20.0317  -17.1377    3.7291 C   0  0  0  0  0  0  0  0  0  0  0  0
   19.3070  -17.3003    2.7527 O   0  0  0  0  0  0  0  0  0  0  0  0
   20.2931  -18.2725    4.6506 C   0  0  1  0  0  0  0  0  0  0  0  0
   19.9253  -18.1548    6.1135 C   0  0  0  0  0  0  0  0  0  0  0  0
   19.1856  -19.1261    5.2276 C   0  0  1  0  0  0  0  0  0  0  0  0
   17.7322  -18.9924    4.9392 C   0  0  0  0  0  0  0  0  0  0  0  0
   17.3598  -18.7077    3.8116 O   0  0  0  0  0  0  0  0  0  0  0  0
   16.8691  -19.2350    5.9474 O   0  0  0  0  0  0  0  0  0  0  0  0
   17.2724  -19.6116    6.7640 H   0  0  0  0  0  0  0  0  0  0  0  0
  1  2  1  0  0  0  0
  2  3  2  0  0  0  0
  4  2  1  6  0  0  0
  4  5  1  0  0  0  0
  4  6  1  0  0  0  0
  5  6  1  0  0  0  0
  6  7  1  6  0  0  0
  7  8  2  0  0  0  0
  7  9  1  0  0  0  0
  9 10  1  0  0  0  0
M  END
>  <CHROM.0>
-48.91629485,60.11777276,-64.64655990,-50.87311444,-57.22235068,-59.63685430
-170.97937840,-52.14208272,-167.57383693,160.82302117

>  <CHROM.1>
57.18471435,37.58772516,-8.60496697,18.97795336,-18.08374212,4.58076132,-0.64489687
0.48406451,2.02401099

>  <Name>
P59199259

>  <RI>
0

>  <Rbt.Current_Directory>
/home/fstefaniak/projects/zuza/docking/adenine/1Y26

>  <Rbt.Executable>
rbdock ($Id: //depot/dev/client3/rdock/2013.1/src/exe/rbdock.cxx#4 $)

>  <Rbt.Library>
libRbt.so (2013.1, Build901 2013/11/27)

>  <Rbt.Parameter_File>
/home/fstefaniak/progs/rDock//data/scripts/dock_solv.prm

>  <Rbt.Receptor>
1y26.prm

>  <SCORE>
-45.911

>  <SCORE.INTER>
-26.0472

>  <SCORE.INTER.CONST>
1

>  <SCORE.INTER.POLAR>
-3.16519

>  <SCORE.INTER.ROT>
2

>  <SCORE.INTER.SOLV>
9.67196

>  <SCORE.INTER.VDW>
-14.9715

>  <SCORE.INTER.norm>
-2.89413

>  <SCORE.INTRA>
0.861009

>  <SCORE.INTRA.DIHEDRAL>
-0.575783

>  <SCORE.INTRA.DIHEDRAL.0>
5.08957

>  <SCORE.INTRA.POLAR>
0.46549

>  <SCORE.INTRA.POLAR.0>
-0.46549

>  <SCORE.INTRA.REPUL>
0

>  <SCORE.INTRA.REPUL.0>
0

>  <SCORE.INTRA.SOLV>
-0.0851541

>  <SCORE.INTRA.SOLV.lig_0>
-9.25289

>  <SCORE.INTRA.VDW>
-0.391187

>  <SCORE.INTRA.VDW.0>
0.104697

>  <SCORE.INTRA.norm>
0.0956676

>  <SCORE.RESTR>
0

>  <SCORE.RESTR.CAVITY>
0

>  <SCORE.RESTR.norm>
0

>  <SCORE.SYSTEM>
-20.7248

>  <SCORE.SYSTEM.CONST>
0

>  <SCORE.SYSTEM.DIHEDRAL>
6.07096

>  <SCORE.SYSTEM.POLAR>
-3.46916

>  <SCORE.SYSTEM.SOLV>
0.649423

>  <SCORE.SYSTEM.VDW>
-4.49276

>  <SCORE.SYSTEM.norm>
-2.30275

>  <SCORE.heavy>
9

>  <SCORE.norm>
-5.10122

$$$$
P59204138
 OpenBabel12072022103D
libRbt.so/2013.1/901 2013/11/27
 10 10  0  0  0  0  0  0  0  0999 V2000
   22.5743  -16.0658    4.3823 C   0  0  0  0  0  0  0  0  0  0  0  0
   21.6040  -17.0966    4.5617 O   0  0  0  0  0  0  0  0  0  0  0  0
   20.7001  -17.1904    3.5501 C   0  0  0  0  0  0  0  0  0  0  0  0
   20.6315  -16.4166    2.6023 O   0  0  0  0  0  0  0  0  0  0  0  0
   19.8693  -18.2795    3.7644 N   0  0  0  0  0  0  0  0  0  0  0  0
   18.5669  -18.3425    3.1548 C   0  0  0  0  0  0  0  0  0  0  0  0
   18.7240  -18.1579    4.6230 C   0  0  1  0  0  0  0  0  0  0  0  0
   18.4308  -19.2492    5.5989 C   0  0  0  0  0  0  0  0  0  0  0  0
   17.0785  -19.2030    6.0401 O   0  0  0  0  0  0  0  0  0  0  0  0
   16.9771  -19.9345    6.6768 H   0  0  0  0  0  0  0  0  0  0  0  0
  1  2  1  0  0  0  0
  2  3  1  0  0  0  0
  3  4  2  0  0  0  0
  3  5  1  0  0  0  0
  5  6  1  0  0  0  0
  5  7  1  0  0  0  0
  6  7  1  0  0  0  0
  7  8  1  1  0  0  0
  8  9  1  0  0  0  0
  9 10  1  0  0  0  0
M  END
>  <CHROM.0>
61.20108797,162.73628112,-55.39417471,-52.90477621,-56.28471764,-61.46174663
-60.13519839,-175.96607303,-167.30839572,160.22565515

>  <CHROM.1>
-5.16871853,157.41055993,-160.71613246,-179.25724796,19.79053923,-17.77810878
4.28741182,-0.46890586,0.48394760,1.82460762

>  <Name>
P59204138

>  <RI>
0

>  <Rbt.Current_Directory>
/home/fstefaniak/projects/zuza/docking/adenine/1Y26

>  <Rbt.Executable>
rbdock ($Id: //depot/dev/client3/rdock/2013.1/src/exe/rbdock.cxx#4 $)

>  <Rbt.Library>
libRbt.so (2013.1, Build901 2013/11/27)

>  <Rbt.Parameter_File>
/home/fstefaniak/progs/rDock//data/scripts/dock_solv.prm

>  <Rbt.Receptor>
1y26.prm

>  <SCORE>
-45.137

>  <SCORE.INTER>
-23.3827

>  <SCORE.INTER.CONST>
1

>  <SCORE.INTER.POLAR>
-3.48588

>  <SCORE.INTER.ROT>
3

>  <SCORE.INTER.SOLV>
9.93591

>  <SCORE.INTER.VDW>
-12.8809

>  <SCORE.INTER.norm>
-2.59808

>  <SCORE.INTRA>
-0.839342

>  <SCORE.INTRA.DIHEDRAL>
-0.385549

>  <SCORE.INTRA.DIHEDRAL.0>
4.1172

>  <SCORE.INTRA.POLAR>
0.109623

>  <SCORE.INTRA.POLAR.0>
-0.109623

>  <SCORE.INTRA.REPUL>
0

>  <SCORE.INTRA.REPUL.0>
0

>  <SCORE.INTRA.SOLV>
-0.854643

>  <SCORE.INTRA.SOLV.lig_0>
-13.1019

>  <SCORE.INTRA.VDW>
-0.591963

>  <SCORE.INTRA.VDW.0>
1.99582

>  <SCORE.INTRA.norm>
-0.0932603

>  <SCORE.RESTR>
0

>  <SCORE.RESTR.CAVITY>
0

>  <SCORE.RESTR.norm>
0

>  <SCORE.SYSTEM>
-20.915

>  <SCORE.SYSTEM.CONST>
0

>  <SCORE.SYSTEM.DIHEDRAL>
6.23947

>  <SCORE.SYSTEM.POLAR>
-3.2158

>  <SCORE.SYSTEM.SOLV>
0.392103

>  <SCORE.SYSTEM.VDW>
-5.4345

>  <SCORE.SYSTEM.norm>
-2.32388

>  <SCORE.heavy>
9

>  <SCORE.norm>
-5.01523

$$$$
P59204138
 OpenBabel12072022103D
libRbt.so/2013.1/901 2013/11/27
 10 10  0  0  0  0  0  0  0  0999 V2000
   18.1085  -18.4674    1.2876 C   0  0  0  0  0  0  0  0  0  0  0  0
   19.1721  -17.8651    2.0241 O   0  0  0  0  0  0  0  0  0  0  0  0
   19.2379  -18.2564    3.3247 C   0  0  0  0  0  0  0  0  0  0  0  0
   18.4564  -19.0344    3.8593 O   0  0  0  0  0  0  0  0  0  0  0  0
   20.3086  -17.6333    3.9472 N   0  0  0  0  0  0  0  0  0  0  0  0
   20.1985  -17.1610    5.3024 C   0  0  0  0  0  0  0  0  0  0  0  0
   20.2950  -16.2126    4.1598 C   0  0  1  0  0  0  0  0  0  0  0  0
   21.5329  -15.4260    3.8799 C   0  0  0  0  0  0  0  0  0  0  0  0
   21.9283  -14.6584    5.0112 O   0  0  0  0  0  0  0  0  0  0  0  0
   22.1863  -15.3017    5.6971 H   0  0  0  0  0  0  0  0  0  0  0  0
  1  2  1  0  0  0  0
  2  3  1  0  0  0  0
  3  4  2  0  0  0  0
  3  5  1  0  0  0  0
  5  6  1  0  0  0  0
  5  7  1  0  0  0  0
  6  7  1  0  0  0  0
  7  8  1  1  0  0  0
  8  9  1  0  0  0  0
  9 10  1  0  0  0  0
M  END
>  <CHROM.0>
-50.37225662,-62.05196321,-50.61378866,-51.51029203,-58.11228971,-57.11680254
-54.71401172,-50.86701698,-165.77933750,160.49582555

>  <CHROM.1>
-1.36461729,141.13290977,-125.36673175,66.18379419,19.92351394,-17.17665077
3.64202217,-2.89036228,0.90699459,1.88974105

>  <Name>
P59204138

>  <RI>
0

>  <Rbt.Current_Directory>
/home/fstefaniak/projects/zuza/docking/adenine/1Y26

>  <Rbt.Executable>
rbdock ($Id: //depot/dev/client3/rdock/2013.1/src/exe/rbdock.cxx#4 $)

>  <Rbt.Library>
libRbt.so (2013.1, Build901 2013/11/27)

>  <Rbt.Parameter_File>
/home/fstefaniak/progs/rDock//data/scripts/dock_solv.prm

>  <Rbt.Receptor>
1y26.prm

>  <SCORE>
-45.1135

>  <SCORE.INTER>
-21.81

>  <SCORE.INTER.CONST>
1

>  <SCORE.INTER.POLAR>
-3.15117

>  <SCORE.INTER.ROT>
3

>  <SCORE.INTER.SOLV>
9.14681

>  <SCORE.INTER.VDW>
-12.6851

>  <SCORE.INTER.norm>
-2.42334

>  <SCORE.INTRA>
-1.14613

>  <SCORE.INTRA.DIHEDRAL>
-1.4932

>  <SCORE.INTRA.DIHEDRAL.0>
4.1172

>  <SCORE.INTRA.POLAR>
0.109623

>  <SCORE.INTRA.POLAR.0>
-0.109623

>  <SCORE.INTRA.REPUL>
0

>  <SCORE.INTRA.REPUL.0>
0

>  <SCORE.INTRA.SOLV>
-0.739766

>  <SCORE.INTRA.SOLV.lig_0>
-13.1019

>  <SCORE.INTRA.VDW>
-0.402362

>  <SCORE.INTRA.VDW.0>
1.99582

>  <SCORE.INTRA.norm>
-0.127348

>  <SCORE.RESTR>
0

>  <SCORE.RESTR.CAVITY>
0

>  <SCORE.RESTR.norm>
0

>  <SCORE.SYSTEM>
-22.1573

>  <SCORE.SYSTEM.CONST>
0

>  <SCORE.SYSTEM.DIHEDRAL>
6.31877

>  <SCORE.SYSTEM.POLAR>
-3.56759

>  <SCORE.SYSTEM.SOLV>
0.685166

>  <SCORE.SYSTEM.VDW>
-5.2142

>  <SCORE.SYSTEM.norm>
-2.46192

>  <SCORE.heavy>
9

>  <SCORE.norm>
-5.01261

$$$$
P59204138
 OpenBabel12072022103D
libRbt.so/2013.1/901 2013/11/27
 10 10  0  0  0  0  0  0  0  0999 V2000
   18.2905  -18.6745    1.2782 C   0  0  0  0  0  0  0  0  0  0  0  0
   18.3778  -18.6838    2.7024 O   0  0  0  0  0  0  0  0  0  0  0  0
   18.8185  -17.5148    3.2393 C   0  0  0  0  0  0  0  0  0  0  0  0
   19.0393  -16.4931    2.5996 O   0  0  0  0  0  0  0  0  0  0  0  0
   18.9893  -17.6630    4.6072 N   0  0  0  0  0  0  0  0  0  0  0  0
   20.2600  -17.3867    5.2242 C   0  0  0  0  0  0  0  0  0  0  0  0
   19.7350  -18.7756    5.1267 C   0  0  1  0  0  0  0  0  0  0  0  0
   19.2057  -19.5121    6.3129 C   0  0  0  0  0  0  0  0  0  0  0  0
   19.1201  -20.9103    6.0611 O   0  0  0  0  0  0  0  0  0  0  0  0
   18.3622  -21.0303    5.4595 H   0  0  0  0  0  0  0  0  0  0  0  0
  1  2  1  0  0  0  0
  2  3  1  0  0  0  0
  3  4  2  0  0  0  0
  3  5  1  0  0  0  0
  5  6  1  0  0  0  0
  5  7  1  0  0  0  0
  6  7  1  0  0  0  0
  7  8  1  1  0  0  0
  8  9  1  0  0  0  0
  9 10  1  0  0  0  0
M  END
>  <CHROM.0>
-53.10017321,-61.70748711,-62.03194985,-49.93216347,-56.87568839,-61.26576708
-61.08498538,-52.50725774,-167.56162965,161.22401273

>  <CHROM.1>
5.04049747,123.61603541,126.86518490,-73.43277150,19.06927667,-18.44799321
4.10684084,1.95826423,-1.13758620,-0.69956490

>  <Name>
P59204138

>  <RI>
0

>  <Rbt.Current_Directory>
/home/fstefaniak/projects/zuza/docking/adenine/1Y26

>  <Rbt.Executable>
rbdock ($Id: //depot/dev/client3/rdock/2013.1/src/exe/rbdock.cxx#4 $)

>  <Rbt.Library>
libRbt.so (2013.1, Build901 2013/11/27)

>  <Rbt.Parameter_File>
/home/fstefaniak/progs/rDock//data/scripts/dock_solv.prm

>  <Rbt.Receptor>
1y26.prm

>  <SCORE>
-45.0192

>  <SCORE.INTER>
-21.8319

>  <SCORE.INTER.CONST>
1

>  <SCORE.INTER.POLAR>
-3.10939

>  <SCORE.INTER.ROT>
3

>  <SCORE.INTER.SOLV>
13.376

>  <SCORE.INTER.VDW>
-14.2486

>  <SCORE.INTER.norm>
-2.42576

>  <SCORE.INTRA>
-0.958299

>  <SCORE.INTRA.DIHEDRAL>
-0.653201

>  <SCORE.INTRA.DIHEDRAL.0>
4.1172

>  <SCORE.INTRA.POLAR>
0.109623

>  <SCORE.INTRA.POLAR.0>
-0.109623

>  <SCORE.INTRA.REPUL>
0

>  <SCORE.INTRA.REPUL.0>
0

>  <SCORE.INTRA.SOLV>
-0.938073

>  <SCORE.INTRA.SOLV.lig_0>
-13.1019

>  <SCORE.INTRA.VDW>
-0.535378

>  <SCORE.INTRA.VDW.0>
1.99582

>  <SCORE.INTRA.norm>
-0.106478

>  <SCORE.RESTR>
0

>  <SCORE.RESTR.CAVITY>
0

>  <SCORE.RESTR.norm>
0

>  <SCORE.SYSTEM>
-22.229

>  <SCORE.SYSTEM.CONST>
0

>  <SCORE.SYSTEM.DIHEDRAL>
5.28319

>  <SCORE.SYSTEM.POLAR>
-3.42747

>  <SCORE.SYSTEM.SOLV>
0.645675

>  <SCORE.SYSTEM.VDW>
-5.37075

>  <SCORE.SYSTEM.norm>
-2.46989

>  <SCORE.heavy>
9

>  <SCORE.norm>
-5.00213

$$$$
P59204206
 OpenBabel12072022103D
libRbt.so/2013.1/901 2013/11/27
 10 10  0  0  0  0  0  0  0  0999 V2000
   19.0044  -19.6300    5.2429 C   0  0  0  0  0  0  0  0  0  0  0  0
   19.4586  -18.3278    5.7892 C   0  0  0  0  0  0  0  0  0  0  0  0
   19.6547  -18.6621    4.4068 N   0  0  0  0  0  0  0  0  0  0  0  0
   18.9366  -17.9935    3.4155 C   0  0  0  0  0  0  0  0  0  0  0  0
   18.0293  -18.4741    2.7453 O   0  0  0  0  0  0  0  0  0  0  0  0
   19.3802  -16.6980    3.2789 N   0  0  0  0  0  0  0  0  0  0  0  0
   20.7971  -16.3923    3.2419 C   0  0  0  0  0  0  0  0  0  0  0  0
   21.2664  -15.6305    4.4747 C   0  0  0  0  0  0  0  0  0  0  0  0
   22.6068  -15.4031    4.3683 F   0  0  0  0  0  0  0  0  0  0  0  0
   18.7433  -15.9931    3.6263 H   0  0  0  0  0  0  0  0  0  0  0  0
  1  2  1  0  0  0  0
  1  3  1  0  0  0  0
  2  3  1  0  0  0  0
  3  4  1  0  0  0  0
  4  5  2  0  0  0  0
  4  6  1  0  0  0  0
  6  7  1  0  0  0  0
  6 10  1  0  0  0  0
  7  8  1  0  0  0  0
  8  9  1  0  0  0  0
M  END
>  <CHROM.0>
-53.19405032,-61.37220041,-57.12429418,-53.37945125,-56.23596041,-58.18730047
-58.76272401,-52.13974279,-167.14211245,160.89053553

>  <CHROM.1>
-35.14021622,44.84934753,-111.58328960,179.08015098,19.98349602,-17.38593180
4.10352206,-2.69812397,-0.68060075,-0.91787873

>  <Name>
P59204206

>  <RI>
0

>  <Rbt.Current_Directory>
/home/fstefaniak/projects/zuza/docking/adenine/1Y26

>  <Rbt.Executable>
rbdock ($Id: //depot/dev/client3/rdock/2013.1/src/exe/rbdock.cxx#4 $)

>  <Rbt.Library>
libRbt.so (2013.1, Build901 2013/11/27)

>  <Rbt.Parameter_File>
/home/fstefaniak/progs/rDock//data/scripts/dock_solv.prm

>  <Rbt.Receptor>
1y26.prm

>  <SCORE>
-44.2552

>  <SCORE.INTER>
-22.4341

>  <SCORE.INTER.CONST>
1

>  <SCORE.INTER.POLAR>
-2.78673

>  <SCORE.INTER.ROT>
4

>  <SCORE.INTER.SOLV>
10.2418

>  <SCORE.INTER.VDW>
-15.3476

>  <SCORE.INTER.norm>
-2.49268

>  <SCORE.INTRA>
0.446836

>  <SCORE.INTRA.DIHEDRAL>
0.934203

>  <SCORE.INTRA.DIHEDRAL.0>
1.45854

>  <SCORE.INTRA.POLAR>
0

>  <SCORE.INTRA.POLAR.0>
0

>  <SCORE.INTRA.REPUL>
0

>  <SCORE.INTRA.REPUL.0>
0

>  <SCORE.INTRA.SOLV>
-0.00987716

>  <SCORE.INTRA.SOLV.lig_0>
-12.7666

>  <SCORE.INTRA.VDW>
-0.0153265

>  <SCORE.INTRA.VDW.0>
-0.17083

>  <SCORE.INTRA.norm>
0.0496485

>  <SCORE.RESTR>
0

>  <SCORE.RESTR.CAVITY>
0

>  <SCORE.RESTR.norm>
0

>  <SCORE.SYSTEM>
-22.2679

>  <SCORE.SYSTEM.CONST>
0

>  <SCORE.SYSTEM.DIHEDRAL>
5.18609

>  <SCORE.SYSTEM.POLAR>
-3.39935

>  <SCORE.SYSTEM.SOLV>
0.660132

>  <SCORE.SYSTEM.VDW>
-5.46285

>  <SCORE.SYSTEM.norm>
-2.47421

>  <SCORE.heavy>
9

>  <SCORE.norm>
-4.91724

$$$$
P59204206
 OpenBabel12072022103D
libRbt.so/2013.1/901 2013/11/27
 10 10  0  0  0  0  0  0  0  0999 V2000
   18.9565  -19.6661    5.1745 C   0  0  0  0  0  0  0  0  0  0  0  0
   19.3858  -18.3604    5.7324 C   0  0  0  0  0  0  0  0  0  0  0  0
   19.6278  -18.6960    4.3577 N   0  0  0  0  0  0  0  0  0  0  0  0
   18.9381  -18.0333    3.3426 C   0  0  0  0  0  0  0  0  0  0  0  0
   18.0885  -18.5333    2.6136 O   0  0  0  0  0  0  0  0  0  0  0  0
   19.3360  -16.7186    3.2578 N   0  0  0  0  0  0  0  0  0  0  0  0
   20.7412  -16.3614    3.2485 C   0  0  0  0  0  0  0  0  0  0  0  0
   21.1574  -15.5806    4.4885 C   0  0  0  0  0  0  0  0  0  0  0  0
   22.4782  -15.2580    4.3833 F   0  0  0  0  0  0  0  0  0  0  0  0
   18.6705  -16.0500    3.6226 H   0  0  0  0  0  0  0  0  0  0  0  0
  1  2  1  0  0  0  0
  1  3  1  0  0  0  0
  2  3  1  0  0  0  0
  3  4  1  0  0  0  0
  4  5  2  0  0  0  0
  4  6  1  0  0  0  0
  6  7  1  0  0  0  0
  6 10  1  0  0  0  0
  7  8  1  0  0  0  0
  8  9  1  0  0  0  0
M  END
>  <CHROM.0>
-51.57719845,-61.21620709,-57.98912790,-51.69224808,-176.85088532,-57.25906868
-60.17064872,-52.92376282,-166.73253639,161.21468211

>  <CHROM.1>
-37.85474402,47.47117997,-113.83441451,-178.50779250,19.93392129,-17.38080196
4.06450053,-2.70529907,-0.73574097,-0.93332752

>  <Name>
P59204206

>  <RI>
0

>  <Rbt.Current_Directory>
/home/fstefaniak/projects/zuza/docking/adenine/1Y26

>  <Rbt.Executable>
rbdock ($Id: //depot/dev/client3/rdock/2013.1/src/exe/rbdock.cxx#4 $)

>  <Rbt.Library>
libRbt.so (2013.1, Build901 2013/11/27)

>  <Rbt.Parameter_File>
/home/fstefaniak/progs/rDock//data/scripts/dock_solv.prm

>  <Rbt.Receptor>
1y26.prm

>  <SCORE>
-44.2202

>  <SCORE.INTER>
-22.4281

>  <SCORE.INTER.CONST>
1

>  <SCORE.INTER.POLAR>
-2.82646

>  <SCORE.INTER.ROT>
4

>  <SCORE.INTER.SOLV>
10.2971

>  <SCORE.INTER.VDW>
-15.2295

>  <SCORE.INTER.norm>
-2.49201

>  <SCORE.INTRA>
0.438246

>  <SCORE.INTRA.DIHEDRAL>
1.02808

>  <SCORE.INTRA.DIHEDRAL.0>
1.45854

>  <SCORE.INTRA.POLAR>
0

>  <SCORE.INTRA.POLAR.0>
0

>  <SCORE.INTRA.REPUL>
0

>  <SCORE.INTRA.REPUL.0>
0

>  <SCORE.INTRA.SOLV>
-0.016091

>  <SCORE.INTRA.SOLV.lig_0>
-12.7666

>  <SCORE.INTRA.VDW>
-0.0677455

>  <SCORE.INTRA.VDW.0>
-0.17083

>  <SCORE.INTRA.norm>
0.0486941

>  <SCORE.RESTR>
0

>  <SCORE.RESTR.CAVITY>
0

>  <SCORE.RESTR.norm>
0

>  <SCORE.SYSTEM>
-22.2303

>  <SCORE.SYSTEM.CONST>
0

>  <SCORE.SYSTEM.DIHEDRAL>
5.3326

>  <SCORE.SYSTEM.POLAR>
-3.44226

>  <SCORE.SYSTEM.SOLV>
0.496642

>  <SCORE.SYSTEM.VDW>
-5.28912

>  <SCORE.SYSTEM.norm>
-2.47004

>  <SCORE.heavy>
9

>  <SCORE.norm>
-4.91335

$$$$
P59204206
 OpenBabel12072022103D
libRbt.so/2013.1/901 2013/11/27
 10 10  0  0  0  0  0  0  0  0999 V2000
   19.7424  -18.4508    5.7006 C   0  0  0  0  0  0  0  0  0  0  0  0
   18.8042  -19.5585    5.3951 C   0  0  0  0  0  0  0  0  0  0  0  0
   18.5905  -18.2388    4.8717 N   0  0  0  0  0  0  0  0  0  0  0  0
   18.7417  -17.9932    3.5071 C   0  0  0  0  0  0  0  0  0  0  0  0
   18.4318  -18.7638    2.6052 O   0  0  0  0  0  0  0  0  0  0  0  0
   19.2931  -16.7510    3.2913 N   0  0  0  0  0  0  0  0  0  0  0  0
   20.7299  -16.5744    3.2082 C   0  0  0  0  0  0  0  0  0  0  0  0
   21.2645  -15.6060    4.2555 C   0  0  0  0  0  0  0  0  0  0  0  0
   22.6164  -15.5017    4.1097 F   0  0  0  0  0  0  0  0  0  0  0  0
   18.7293  -15.9753    3.6131 H   0  0  0  0  0  0  0  0  0  0  0  0
  1  2  1  0  0  0  0
  1  3  1  0  0  0  0
  2  3  1  0  0  0  0
  3  4  1  0  0  0  0
  4  5  2  0  0  0  0
  4  6  1  0  0  0  0
  6  7  1  0  0  0  0
  6 10  1  0  0  0  0
  7  8  1  0  0  0  0
  8  9  1  0  0  0  0
M  END
>  <CHROM.0>
-58.53028917,-60.05129486,-53.73798474,-52.06376405,-178.24688380,-62.51836408
-62.63884680,-52.29443538,-167.78996240,160.83340196

>  <CHROM.1>
110.12855187,90.09289367,-121.04433777,179.81999401,19.89530620,-17.41798313
4.08811400,-2.73635601,-0.68080955,-1.08906631

>  <Name>
P59204206

>  <RI>
0

>  <Rbt.Current_Directory>
/home/fstefaniak/projects/zuza/docking/adenine/1Y26

>  <Rbt.Executable>
rbdock ($Id: //depot/dev/client3/rdock/2013.1/src/exe/rbdock.cxx#4 $)

>  <Rbt.Library>
libRbt.so (2013.1, Build901 2013/11/27)

>  <Rbt.Parameter_File>
/home/fstefaniak/progs/rDock//data/scripts/dock_solv.prm

>  <Rbt.Receptor>
1y26.prm

>  <SCORE>
-43.8951

>  <SCORE.INTER>
-21.9678

>  <SCORE.INTER.CONST>
1

>  <SCORE.INTER.POLAR>
-2.69829

>  <SCORE.INTER.ROT>
4

>  <SCORE.INTER.SOLV>
10.2476

>  <SCORE.INTER.VDW>
-15.3334

>  <SCORE.INTER.norm>
-2.44086

>  <SCORE.INTRA>
0.22447

>  <SCORE.INTRA.DIHEDRAL>
1.26806

>  <SCORE.INTRA.DIHEDRAL.0>
1.45854

>  <SCORE.INTRA.POLAR>
0

>  <SCORE.INTRA.POLAR.0>
0

>  <SCORE.INTRA.REPUL>
0

>  <SCORE.INTRA.REPUL.0>
0

>  <SCORE.INTRA.SOLV>
-0.112239

>  <SCORE.INTRA.SOLV.lig_0>
-12.7666

>  <SCORE.INTRA.VDW>
-0.353443

>  <SCORE.INTRA.VDW.0>
-0.17083

>  <SCORE.INTRA.norm>
0.0249411

>  <SCORE.RESTR>
0

>  <SCORE.RESTR.CAVITY>
0

>  <SCORE.RESTR.norm>
0

>  <SCORE.SYSTEM>
-22.1518

>  <SCORE.SYSTEM.CONST>
0

>  <SCORE.SYSTEM.DIHEDRAL>
5.11023

>  <SCORE.SYSTEM.POLAR>
-3.39133

>  <SCORE.SYSTEM.SOLV>
0.478086

>  <SCORE.SYSTEM.VDW>
-5.32622

>  <SCORE.SYSTEM.norm>
-2.46131

>  <SCORE.heavy>
9

>  <SCORE.norm>
-4.87723

$$$$
P59205821
 OpenBabel12072022103D
libRbt.so/2013.1/901 2013/11/27
 11 11  0  0  0  0  0  0  0  0999 V2000
   18.2234  -18.2091    2.1799 C   0  0  0  0  0  0  0  0  0  0  0  0
   19.2319  -18.6592    3.2218 C   0  0  1  0  0  0  0  0  0  0  0  0
   19.3330  -17.7194    4.4141 C   0  0  1  0  0  0  0  0  0  0  0  0
   19.6214  -18.6569    5.4704 N   0  0  0  0  0  0  0  0  0  0  0  0
   19.1298  -19.8966    5.1232 C   0  0  0  0  0  0  0  0  0  0  0  0
   18.9685  -20.8522    5.8629 O   0  0  0  0  0  0  0  0  0  0  0  0
   18.7971  -19.9029    3.7946 O   0  0  0  0  0  0  0  0  0  0  0  0
   19.7807  -18.2548    6.8497 C   0  0  0  0  0  0  0  0  0  0  0  0
   20.3739  -16.6162    4.2085 C   0  0  0  0  0  0  0  0  0  0  0  0
   19.9332  -15.6535    3.2520 O   0  0  0  0  0  0  0  0  0  0  0  0
   19.1616  -15.1897    3.6198 H   0  0  0  0  0  0  0  0  0  0  0  0
  2  1  1  6  0  0  0
  2  3  1  0  0  0  0
  2  7  1  0  0  0  0
  3  4  1  0  0  0  0
  3  9  1  6  0  0  0
  4  5  1  0  0  0  0
  4  8  1  0  0  0  0
  5  6  2  0  0  0  0
  5  7  1  0  0  0  0
  9 10  1  0  0  0  0
 10 11  1  0  0  0  0
M  END
>  <CHROM.0>
-48.31600626,-60.80855239,-50.07339479,-52.81162766,-55.97541153,-63.04755306
-58.93279680,-51.06991452,-166.39953196,161.48531449

>  <CHROM.1>
71.66381909,65.85922374,19.33270342,-18.41458576,4.42654639,1.29539089,-1.13340826
-0.83668956

>  <Name>
P59205821

>  <RI>
0

>  <Rbt.Current_Directory>
/home/fstefaniak/projects/zuza/docking/adenine/1Y26

>  <Rbt.Executable>
rbdock ($Id: //depot/dev/client3/rdock/2013.1/src/exe/rbdock.cxx#4 $)

>  <Rbt.Library>
libRbt.so (2013.1, Build901 2013/11/27)

>  <Rbt.Parameter_File>
/home/fstefaniak/progs/rDock//data/scripts/dock_solv.prm

>  <Rbt.Receptor>
1y26.prm

>  <SCORE>
-43.7599

>  <SCORE.INTER>
-21.5631

>  <SCORE.INTER.CONST>
1

>  <SCORE.INTER.POLAR>
-2.49692

>  <SCORE.INTER.ROT>
1

>  <SCORE.INTER.SOLV>
13.5185

>  <SCORE.INTER.VDW>
-14.8251

>  <SCORE.INTER.norm>
-2.15631

>  <SCORE.INTRA>
0.0176681

>  <SCORE.INTRA.DIHEDRAL>
0.340164

>  <SCORE.INTRA.DIHEDRAL.0>
0.373337

>  <SCORE.INTRA.POLAR>
0

>  <SCORE.INTRA.POLAR.0>
0

>  <SCORE.INTRA.REPUL>
0

>  <SCORE.INTRA.REPUL.0>
0

>  <SCORE.INTRA.SOLV>
-0.124021

>  <SCORE.INTRA.SOLV.lig_0>
-12.361

>  <SCORE.INTRA.VDW>
-0.0904037

>  <SCORE.INTRA.VDW.0>
-0.312399

>  <SCORE.INTRA.norm>
0.00176681

>  <SCORE.RESTR>
0

>  <SCORE.RESTR.CAVITY>
0

>  <SCORE.RESTR.norm>
0

>  <SCORE.SYSTEM>
-22.2145

>  <SCORE.SYSTEM.CONST>
0

>  <SCORE.SYSTEM.DIHEDRAL>
6.16365

>  <SCORE.SYSTEM.POLAR>
-3.52657

>  <SCORE.SYSTEM.SOLV>
0.668766

>  <SCORE.SYSTEM.VDW>
-5.3319

>  <SCORE.SYSTEM.norm>
-2.22145

>  <SCORE.heavy>
10

>  <SCORE.norm>
-4.37599

$$$$
P59205821
 OpenBabel12072022103D
libRbt.so/2013.1/901 2013/11/27
 11 11  0  0  0  0  0  0  0  0999 V2000
   18.2134  -18.1858    2.1855 C   0  0  0  0  0  0  0  0  0  0  0  0
   19.2179  -18.6445    3.2275 C   0  0  1  0  0  0  0  0  0  0  0  0
   19.3262  -17.7062    4.4202 C   0  0  1  0  0  0  0  0  0  0  0  0
   19.6068  -18.6465    5.4761 N   0  0  0  0  0  0  0  0  0  0  0  0
   19.1053  -19.8821    5.1281 C   0  0  0  0  0  0  0  0  0  0  0  0
   18.9362  -20.8368    5.8673 O   0  0  0  0  0  0  0  0  0  0  0  0
   18.7730  -19.8850    3.7994 O   0  0  0  0  0  0  0  0  0  0  0  0
   19.7689  -18.2465    6.8557 C   0  0  0  0  0  0  0  0  0  0  0  0
   20.3760  -16.6113    4.2155 C   0  0  0  0  0  0  0  0  0  0  0  0
   19.9439  -15.6454    3.2583 O   0  0  0  0  0  0  0  0  0  0  0  0
   19.1608  -15.1921    3.6149 H   0  0  0  0  0  0  0  0  0  0  0  0
  2  1  1  6  0  0  0
  2  3  1  0  0  0  0
  2  7  1  0  0  0  0
  3  4  1  0  0  0  0
  3  9  1  6  0  0  0
  4  5  1  0  0  0  0
  4  8  1  0  0  0  0
  5  6  2  0  0  0  0
  5  7  1  0  0  0  0
  9 10  1  0  0  0  0
 10 11  1  0  0  0  0
M  END
>  <CHROM.0>
-48.14150537,61.15960789,-54.68639637,-51.04934648,-55.57645607,-175.50051578
-55.31456351,-51.43917300,-167.31323986,159.33992917

>  <CHROM.1>
71.59811132,64.34057577,19.32029432,-18.40155763,4.43213734,1.28279909,-1.12745236
-0.84813604

>  <Name>
P59205821

>  <RI>
0

>  <Rbt.Current_Directory>
/home/fstefaniak/projects/zuza/docking/adenine/1Y26

>  <Rbt.Executable>
rbdock ($Id: //depot/dev/client3/rdock/2013.1/src/exe/rbdock.cxx#4 $)

>  <Rbt.Library>
libRbt.so (2013.1, Build901 2013/11/27)

>  <Rbt.Parameter_File>
/home/fstefaniak/progs/rDock//data/scripts/dock_solv.prm

>  <Rbt.Receptor>
1y26.prm

>  <SCORE>
-42.9664

>  <SCORE.INTER>
-21.6763

>  <SCORE.INTER.CONST>
1

>  <SCORE.INTER.POLAR>
-2.48572

>  <SCORE.INTER.ROT>
1

>  <SCORE.INTER.SOLV>
13.4604

>  <SCORE.INTER.VDW>
-14.9186

>  <SCORE.INTER.norm>
-2.16763

>  <SCORE.INTRA>
-0.0168595

>  <SCORE.INTRA.DIHEDRAL>
0.259487

>  <SCORE.INTRA.DIHEDRAL.0>
0.373337

>  <SCORE.INTRA.POLAR>
0

>  <SCORE.INTRA.POLAR.0>
0

>  <SCORE.INTRA.REPUL>
0

>  <SCORE.INTRA.REPUL.0>
0

>  <SCORE.INTRA.SOLV>
-0.125428

>  <SCORE.INTRA.SOLV.lig_0>
-12.361

>  <SCORE.INTRA.VDW>
-0.0838889

>  <SCORE.INTRA.VDW.0>
-0.312399

>  <SCORE.INTRA.norm>
-0.00168595

>  <SCORE.RESTR>
0

>  <SCORE.RESTR.CAVITY>
0

>  <SCORE.RESTR.norm>
0

>  <SCORE.SYSTEM>
-21.2733

>  <SCORE.SYSTEM.CONST>
0

>  <SCORE.SYSTEM.DIHEDRAL>
6.33785

>  <SCORE.SYSTEM.POLAR>
-3.5629

>  <SCORE.SYSTEM.SOLV>
0.573206

>  <SCORE.SYSTEM.VDW>
-4.60954

>  <SCORE.SYSTEM.norm>
-2.12733

>  <SCORE.heavy>
10

>  <SCORE.norm>
-4.29664

$$$$
P59205821
 OpenBabel12072022103D
libRbt.so/2013.1/901 2013/11/27
 11 11  0  0  0  0  0  0  0  0999 V2000
   18.2208  -18.1962    2.1915 C   0  0  0  0  0  0  0  0  0  0  0  0
   19.2205  -18.6582    3.2367 C   0  0  1  0  0  0  0  0  0  0  0  0
   19.3265  -17.7212    4.4308 C   0  0  1  0  0  0  0  0  0  0  0  0
   19.6012  -18.6632    5.4867 N   0  0  0  0  0  0  0  0  0  0  0  0
   19.0984  -19.8973    5.1357 C   0  0  0  0  0  0  0  0  0  0  0  0
   18.9245  -20.8524    5.8733 O   0  0  0  0  0  0  0  0  0  0  0  0
   18.7708  -19.8982    3.8058 O   0  0  0  0  0  0  0  0  0  0  0  0
   19.7592  -18.2650    6.8673 C   0  0  0  0  0  0  0  0  0  0  0  0
   20.3794  -16.6284    4.2310 C   0  0  0  0  0  0  0  0  0  0  0  0
   19.9536  -15.6617    3.2717 O   0  0  0  0  0  0  0  0  0  0  0  0
   19.1632  -15.2146    3.6198 H   0  0  0  0  0  0  0  0  0  0  0  0
  2  1  1  6  0  0  0
  2  3  1  0  0  0  0
  2  7  1  0  0  0  0
  3  4  1  0  0  0  0
  3  9  1  6  0  0  0
  4  5  1  0  0  0  0
  4  8  1  0  0  0  0
  5  6  2  0  0  0  0
  5  7  1  0  0  0  0
  9 10  1  0  0  0  0
 10 11  1  0  0  0  0
M  END
>  <CHROM.0>
-52.40395182,-62.94096947,-64.56689114,-53.15373148,-59.28382861,-60.05498739
-170.53849423,-51.34768433,-168.43536275,160.42136673

>  <CHROM.1>
71.51252030,63.64318278,19.31908716,-18.41678929,4.44176185,1.27335499,-1.12804809
-0.85615473

>  <Name>
P59205821

>  <RI>
0

>  <Rbt.Current_Directory>
/home/fstefaniak/projects/zuza/docking/adenine/1Y26

>  <Rbt.Executable>
rbdock ($Id: //depot/dev/client3/rdock/2013.1/src/exe/rbdock.cxx#4 $)

>  <Rbt.Library>
libRbt.so (2013.1, Build901 2013/11/27)

>  <Rbt.Parameter_File>
/home/fstefaniak/progs/rDock//data/scripts/dock_solv.prm

>  <Rbt.Receptor>
1y26.prm

>  <SCORE>
-42.9291

>  <SCORE.INTER>
-21.5724

>  <SCORE.INTER.CONST>
1

>  <SCORE.INTER.POLAR>
-2.46305

>  <SCORE.INTER.ROT>
1

>  <SCORE.INTER.SOLV>
13.4605

>  <SCORE.INTER.VDW>
-14.925

>  <SCORE.INTER.norm>
-2.15724

>  <SCORE.INTRA>
-0.0305399

>  <SCORE.INTRA.DIHEDRAL>
0.225525

>  <SCORE.INTRA.DIHEDRAL.0>
0.373337

>  <SCORE.INTRA.POLAR>
0

>  <SCORE.INTRA.POLAR.0>
0

>  <SCORE.INTRA.REPUL>
0

>  <SCORE.INTRA.REPUL.0>
0

>  <SCORE.INTRA.SOLV>
-0.125939

>  <SCORE.INTRA.SOLV.lig_0>
-12.361

>  <SCORE.INTRA.VDW>
-0.080333

>  <SCORE.INTRA.VDW.0>
-0.312399

>  <SCORE.INTRA.norm>
-0.00305399

>  <SCORE.RESTR>
0

>  <SCORE.RESTR.CAVITY>
0

>  <SCORE.RESTR.norm>
0

>  <SCORE.SYSTEM>
-21.3262

>  <SCORE.SYSTEM.CONST>
0

>  <SCORE.SYSTEM.DIHEDRAL>
5.67541

>  <SCORE.SYSTEM.POLAR>
-3.38173

>  <SCORE.SYSTEM.SOLV>
0.598454

>  <SCORE.SYSTEM.VDW>
-5.03632

>  <SCORE.SYSTEM.norm>
-2.13262

>  <SCORE.heavy>
10

>  <SCORE.norm>
-4.29291

$$$$
P59226121
 OpenBabel12072022103D
libRbt.so/2013.1/901 2013/11/27
 13 13  0  0  0  0  0  0  0  0999 V2000
   20.9854  -15.7500    4.5184 C   0  0  0  0  0  0  0  0  0  0  0  0
   21.4259  -14.3159    4.2629 C   0  0  2  0  0  0  0  0  0  0  0  0
   22.7869  -14.2032    3.5842 C   0  0  0  0  0  0  0  0  0  0  0  0
   23.7475  -13.9595    4.7385 C   0  0  2  0  0  0  0  0  0  0  0  0
   22.8588  -13.1328    5.6713 C   0  0  0  0  0  0  0  0  0  0  0  0
   21.5177  -13.6313    5.5225 O   0  0  0  0  0  0  0  0  0  0  0  0
   25.0131  -13.1889    4.3703 C   0  0  0  0  0  0  0  0  0  0  0  0
   24.0749  -15.1771    5.4545 O   0  0  0  0  0  0  0  0  0  0  0  0
   24.7008  -16.1826    4.8110 C   0  0  0  0  0  0  0  0  0  0  0  0
   24.5310  -16.5349    3.6566 O   0  0  0  0  0  0  0  0  0  0  0  0
   25.5704  -16.7847    5.6507 N   0  0  0  0  0  0  0  0  0  0  0  0
   25.6248  -16.4871    6.6123 H   0  0  0  0  0  0  0  0  0  0  0  0
   26.0850  -17.5899    5.3285 H   0  0  0  0  0  0  0  0  0  0  0  0
  2  3  1  0  0  0  0
  2  6  1  0  0  0  0
  2  1  1  1  0  0  0
  3  4  1  0  0  0  0
  4  5  1  0  0  0  0
  4  7  1  6  0  0  0
  4  8  1  0  0  0  0
  5  6  1  0  0  0  0
  8  9  1  0  0  0  0
  9 10  2  0  0  0  0
  9 11  1  0  0  0  0
 11 12  1  0  0  0  0
 11 13  1  0  0  0  0
M  END
>  <CHROM.0>
-49.81081232,48.68614241,-53.17623005,-51.62962612,-56.43821182,-57.89089006
-56.90434733,64.25453530,-167.43878872,161.22784141

>  <CHROM.1>
61.87584686,-36.72496791,23.39988755,-14.83715915,4.76788391,2.57061378,-0.10005155
0.13227193

>  <Name>
P59226121

>  <RI>
0

>  <Rbt.Current_Directory>
/home/fstefaniak/projects/zuza/docking/adenine/1Y26

>  <Rbt.Executable>
rbdock ($Id: //depot/dev/client3/rdock/2013.1/src/exe/rbdock.cxx#4 $)

>  <Rbt.Library>
libRbt.so (2013.1, Build901 2013/11/27)

>  <Rbt.Parameter_File>
/home/fstefaniak/progs/rDock//data/scripts/dock_solv.prm

>  <Rbt.Receptor>
1y26.prm

>  <SCORE>
-41.4826

>  <SCORE.INTER>
-25.0713

>  <SCORE.INTER.CONST>
1

>  <SCORE.INTER.POLAR>
-3.50159

>  <SCORE.INTER.ROT>
2

>  <SCORE.INTER.SOLV>
11.623

>  <SCORE.INTER.VDW>
-13.8499

>  <SCORE.INTER.norm>
-2.27921

>  <SCORE.INTRA>
3.98283

>  <SCORE.INTRA.DIHEDRAL>
8.28282

>  <SCORE.INTRA.DIHEDRAL.0>
0.14723

>  <SCORE.INTRA.POLAR>
0

>  <SCORE.INTRA.POLAR.0>
0

>  <SCORE.INTRA.REPUL>
0

>  <SCORE.INTRA.REPUL.0>
0

>  <SCORE.INTRA.SOLV>
0.0705479

>  <SCORE.INTRA.SOLV.lig_0>
-9.19001

>  <SCORE.INTRA.VDW>
-0.193851

>  <SCORE.INTRA.VDW.0>
-0.00896957

>  <SCORE.INTRA.norm>
0.362076

>  <SCORE.RESTR>
0.29351

>  <SCORE.RESTR.CAVITY>
0.29351

>  <SCORE.RESTR.norm>
0.0266827

>  <SCORE.SYSTEM>
-20.6877

>  <SCORE.SYSTEM.CONST>
0

>  <SCORE.SYSTEM.DIHEDRAL>
6.09633

>  <SCORE.SYSTEM.POLAR>
-3.52713

>  <SCORE.SYSTEM.SOLV>
0.526609

>  <SCORE.SYSTEM.VDW>
-4.24234

>  <SCORE.SYSTEM.norm>
-1.8807

>  <SCORE.heavy>
11

>  <SCORE.norm>
-3.77115

$$$$
P59226121
 OpenBabel12072022103D
libRbt.so/2013.1/901 2013/11/27
 13 13  0  0  0  0  0  0  0  0999 V2000
   20.9636  -15.7377    4.5099 C   0  0  0  0  0  0  0  0  0  0  0  0
   21.4162  -14.3039    4.2743 C   0  0  2  0  0  0  0  0  0  0  0  0
   22.7792  -14.1934    3.5990 C   0  0  0  0  0  0  0  0  0  0  0  0
   23.7400  -13.9731    4.7578 C   0  0  2  0  0  0  0  0  0  0  0  0
   22.8568  -13.1517    5.7004 C   0  0  0  0  0  0  0  0  0  0  0  0
   21.5118  -13.6370    5.5430 O   0  0  0  0  0  0  0  0  0  0  0  0
   25.0124  -13.2081    4.4018 C   0  0  0  0  0  0  0  0  0  0  0  0
   24.0563  -15.2028    5.4579 O   0  0  0  0  0  0  0  0  0  0  0  0
   24.6914  -16.1976    4.8068 C   0  0  0  0  0  0  0  0  0  0  0  0
   24.5176  -16.5494    3.6529 O   0  0  0  0  0  0  0  0  0  0  0  0
   25.5762  -16.7894    5.6380 N   0  0  0  0  0  0  0  0  0  0  0  0
   25.6339  -16.4935    6.5999 H   0  0  0  0  0  0  0  0  0  0  0  0
   26.0996  -17.5863    5.3097 H   0  0  0  0  0  0  0  0  0  0  0  0
  2  3  1  0  0  0  0
  2  6  1  0  0  0  0
  2  1  1  1  0  0  0
  3  4  1  0  0  0  0
  4  5  1  0  0  0  0
  4  7  1  6  0  0  0
  4  8  1  0  0  0  0
  5  6  1  0  0  0  0
  8  9  1  0  0  0  0
  9 10  2  0  0  0  0
  9 11  1  0  0  0  0
 11 12  1  0  0  0  0
 11 13  1  0  0  0  0
M  END
>  <CHROM.0>
-45.74160909,48.19161778,-62.54083737,-51.74440067,59.81294545,-57.42200061
-168.25292793,60.60243337,-167.76504848,160.61752207

>  <CHROM.1>
62.79120656,-38.48533115,23.39168887,-14.84484719,4.77670237,2.57292830,-0.10579725
0.14984542

>  <Name>
P59226121

>  <RI>
0

>  <Rbt.Current_Directory>
/home/fstefaniak/projects/zuza/docking/adenine/1Y26

>  <Rbt.Executable>
rbdock ($Id: //depot/dev/client3/rdock/2013.1/src/exe/rbdock.cxx#4 $)

>  <Rbt.Library>
libRbt.so (2013.1, Build901 2013/11/27)

>  <Rbt.Parameter_File>
/home/fstefaniak/progs/rDock//data/scripts/dock_solv.prm

>  <Rbt.Receptor>
1y26.prm

>  <SCORE>
-38.795

>  <SCORE.INTER>
-25.169

>  <SCORE.INTER.CONST>
1

>  <SCORE.INTER.POLAR>
-3.46773

>  <SCORE.INTER.ROT>
2

>  <SCORE.INTER.SOLV>
11.6681

>  <SCORE.INTER.VDW>
-14.0429

>  <SCORE.INTER.norm>
-2.28809

>  <SCORE.INTRA>
4.29331

>  <SCORE.INTRA.DIHEDRAL>
8.92918

>  <SCORE.INTRA.DIHEDRAL.0>
0.14723

>  <SCORE.INTRA.POLAR>
0

>  <SCORE.INTRA.POLAR.0>
0

>  <SCORE.INTRA.REPUL>
0

>  <SCORE.INTRA.REPUL.0>
0

>  <SCORE.INTRA.SOLV>
0.0660793

>  <SCORE.INTRA.SOLV.lig_0>
-9.19001

>  <SCORE.INTRA.VDW>
-0.20432

>  <SCORE.INTRA.VDW.0>
-0.00896957

>  <SCORE.INTRA.norm>
0.390301

>  <SCORE.RESTR>
0.256533

>  <SCORE.RESTR.CAVITY>
0.256533

>  <SCORE.RESTR.norm>
0.0233212

>  <SCORE.SYSTEM>
-18.1758

>  <SCORE.SYSTEM.CONST>
0

>  <SCORE.SYSTEM.DIHEDRAL>
6.93085

>  <SCORE.SYSTEM.POLAR>
-3.55377

>  <SCORE.SYSTEM.SOLV>
0.263484

>  <SCORE.SYSTEM.VDW>
-2.66942

>  <SCORE.SYSTEM.norm>
-1.65235

>  <SCORE.heavy>
11

>  <SCORE.norm>
-3.52682

$$$$
P59226121
 OpenBabel12072022103D
libRbt.so/2013.1/901 2013/11/27
 13 13  0  0  0  0  0  0  0  0999 V2000
   21.8957  -14.9923    4.8777 C   0  0  0  0  0  0  0  0  0  0  0  0
   21.4117  -15.6313    3.5841 C   0  0  2  0  0  0  0  0  0  0  0  0
   19.9047  -15.8616    3.5393 C   0  0  0  0  0  0  0  0  0  0  0  0
   19.7493  -17.3187    3.9479 C   0  0  2  0  0  0  0  0  0  0  0  0
   21.0198  -17.9166    3.3381 C   0  0  0  0  0  0  0  0  0  0  0  0
   22.0449  -16.9124    3.4384 O   0  0  0  0  0  0  0  0  0  0  0  0
   18.5050  -18.0117    3.3979 C   0  0  0  0  0  0  0  0  0  0  0  0
   19.8532  -17.5071    5.3818 O   0  0  0  0  0  0  0  0  0  0  0  0
   19.6557  -18.7311    5.9106 C   0  0  0  0  0  0  0  0  0  0  0  0
   19.6850  -19.7989    5.3238 O   0  0  0  0  0  0  0  0  0  0  0  0
   19.3973  -18.6166    7.2313 N   0  0  0  0  0  0  0  0  0  0  0  0
   19.3276  -17.7023    7.6499 H   0  0  0  0  0  0  0  0  0  0  0  0
   19.1811  -19.4464    7.7620 H   0  0  0  0  0  0  0  0  0  0  0  0
  2  3  1  0  0  0  0
  2  6  1  0  0  0  0
  2  1  1  1  0  0  0
  3  4  1  0  0  0  0
  4  5  1  0  0  0  0
  4  7  1  6  0  0  0
  4  8  1  0  0  0  0
  5  6  1  0  0  0  0
  8  9  1  0  0  0  0
  9 10  2  0  0  0  0
  9 11  1  0  0  0  0
 11 12  1  0  0  0  0
 11 13  1  0  0  0  0
M  END
>  <CHROM.0>
-50.81238788,177.83465175,-52.78045366,-52.89445367,-174.54873428,-59.41018277
-58.78836631,-49.50582290,-167.27393463,161.13035788

>  <CHROM.1>
175.95292419,17.86156942,20.28651861,-17.41478491,4.58007314,-0.68613556
0.91623354,1.75315763

>  <Name>
P59226121

>  <RI>
0

>  <Rbt.Current_Directory>
/home/fstefaniak/projects/zuza/docking/adenine/1Y26

>  <Rbt.Executable>
rbdock ($Id: //depot/dev/client3/rdock/2013.1/src/exe/rbdock.cxx#4 $)

>  <Rbt.Library>
libRbt.so (2013.1, Build901 2013/11/27)

>  <Rbt.Parameter_File>
/home/fstefaniak/progs/rDock//data/scripts/dock_solv.prm

>  <Rbt.Receptor>
1y26.prm

>  <SCORE>
-37.3707

>  <SCORE.INTER>
-17.9016

>  <SCORE.INTER.CONST>
1

>  <SCORE.INTER.POLAR>
-1.45294

>  <SCORE.INTER.ROT>
2

>  <SCORE.INTER.SOLV>
11.9591

>  <SCORE.INTER.VDW>
-16.011

>  <SCORE.INTER.norm>
-1.62742

>  <SCORE.INTRA>
2.77506

>  <SCORE.INTRA.DIHEDRAL>
2.79746

>  <SCORE.INTRA.DIHEDRAL.0>
0.14723

>  <SCORE.INTRA.POLAR>
0

>  <SCORE.INTRA.POLAR.0>
0

>  <SCORE.INTRA.REPUL>
0

>  <SCORE.INTRA.REPUL.0>
0

>  <SCORE.INTRA.SOLV>
-0.128954

>  <SCORE.INTRA.SOLV.lig_0>
-9.19001

>  <SCORE.INTRA.VDW>
1.44081

>  <SCORE.INTRA.VDW.0>
-0.00896957

>  <SCORE.INTRA.norm>
0.252278

>  <SCORE.RESTR>
0

>  <SCORE.RESTR.CAVITY>
0

>  <SCORE.RESTR.norm>
0

>  <SCORE.SYSTEM>
-22.2442

>  <SCORE.SYSTEM.CONST>
0

>  <SCORE.SYSTEM.DIHEDRAL>
5.83309

>  <SCORE.SYSTEM.POLAR>
-3.47697

>  <SCORE.SYSTEM.SOLV>
0.454564

>  <SCORE.SYSTEM.VDW>
-5.33545

>  <SCORE.SYSTEM.norm>
-2.0222

>  <SCORE.heavy>
11

>  <SCORE.norm>
-3.39734

$$$$
P59255515
 OpenBabel12072022103D
libRbt.so/2013.1/901 2013/11/27
 12 13  0  0  0  0  0  0  0  0999 V2000
   19.8806  -18.3264    4.7432 C   0  0  0  0  0  0  0  0  0  0  0  0
   20.3283  -17.0692    4.8639 C   0  0  0  0  0  0  0  0  0  0  0  0
   21.3334  -16.4212    3.9576 C   0  0  0  0  0  0  0  0  0  0  0  0
   22.4419  -15.8257    4.7603 N   0  3  2  0  0  0  0  0  0  0  0  0
   22.1378  -15.7333    5.7289 H   0  0  0  0  0  0  0  0  0  0  0  0
   22.9938  -14.4998    4.2261 C   0  0  0  0  0  0  0  0  0  0  0  0
   24.4922  -14.8167    4.0345 C   0  0  1  0  0  0  0  0  0  0  0  0
   24.7780  -15.7465    5.1992 C   0  0  0  0  0  0  0  0  0  0  0  0
   23.7061  -16.7095    4.7395 C   0  0  2  0  0  0  0  0  0  0  0  0
   24.1572  -16.8440    3.2714 C   0  0  0  0  0  0  0  0  0  0  0  0
   24.6305  -15.6999    2.8381 N   0  0  0  0  0  0  0  0  0  0  0  0
   23.9733  -17.9111    2.6692 O   0  5  0  0  0  0  0  0  0  0  0  0
  1  2  2  0  0  0  0
  2  3  1  0  0  0  0
  3  4  1  0  0  0  0
  4  5  1  1  0  0  0
  4  6  1  0  0  0  0
  4  9  1  0  0  0  0
  7  6  1  1  0  0  0
  7  8  1  0  0  0  0
  7 11  1  0  0  0  0
  9  8  1  1  0  0  0
  9 10  1  0  0  0  0
 10 11  2  0  0  0  0
 10 12  1  0  0  0  0
M  CHG  2   4   1  12  -1
M  END
>  <CHROM.0>
-52.08140524,-65.17203385,-57.62125281,-53.23878155,-57.69499087,-177.19850775
-61.33366219,-178.76986477,-167.46477531,160.80074524

>  <CHROM.1>
-127.98035134,-17.39262912,22.96831726,-16.36462013,4.11314122,-2.88764041
0.37322008,0.50786974

>  <Name>
P59255515

>  <RI>
0

>  <Rbt.Current_Directory>
/home/fstefaniak/projects/zuza/docking/adenine/1Y26

>  <Rbt.Executable>
rbdock ($Id: //depot/dev/client3/rdock/2013.1/src/exe/rbdock.cxx#4 $)

>  <Rbt.Library>
libRbt.so (2013.1, Build901 2013/11/27)

>  <Rbt.Parameter_File>
/home/fstefaniak/progs/rDock//data/scripts/dock_solv.prm

>  <Rbt.Receptor>
1y26.prm

>  <SCORE>
-36.354

>  <SCORE.INTER>
-14.4794

>  <SCORE.INTER.CONST>
1

>  <SCORE.INTER.POLAR>
-1.98076

>  <SCORE.INTER.ROT>
2

>  <SCORE.INTER.SOLV>
21.3729

>  <SCORE.INTER.VDW>
-15.108

>  <SCORE.INTER.norm>
-1.31631

>  <SCORE.INTRA>
0.615253

>  <SCORE.INTRA.DIHEDRAL>
1.1063

>  <SCORE.INTRA.DIHEDRAL.0>
1.7566

>  <SCORE.INTRA.POLAR>
0

>  <SCORE.INTRA.POLAR.0>
0

>  <SCORE.INTRA.REPUL>
0

>  <SCORE.INTRA.REPUL.0>
0

>  <SCORE.INTRA.SOLV>
0.0550176

>  <SCORE.INTRA.SOLV.lig_0>
-41.4675

>  <SCORE.INTRA.VDW>
0.0345941

>  <SCORE.INTRA.VDW.0>
-0.355475

>  <SCORE.INTRA.norm>
0.0559321

>  <SCORE.RESTR>
0

>  <SCORE.RESTR.CAVITY>
0

>  <SCORE.RESTR.norm>
0

>  <SCORE.SYSTEM>
-22.4898

>  <SCORE.SYSTEM.CONST>
0

>  <SCORE.SYSTEM.DIHEDRAL>
5.06543

>  <SCORE.SYSTEM.POLAR>
-3.37867

>  <SCORE.SYSTEM.SOLV>
0.296697

>  <SCORE.SYSTEM.VDW>
-5.51834

>  <SCORE.SYSTEM.norm>
-2.04453

>  <SCORE.heavy>
11

>  <SCORE.norm>
-3.30491

$$$$
P59255515
 OpenBabel12072022103D
libRbt.so/2013.1/901 2013/11/27
 12 13  0  0  0  0  0  0  0  0999 V2000
   19.2458  -17.9709    4.0059 C   0  0  0  0  0  0  0  0  0  0  0  0
   20.0991  -17.0111    3.6236 C   0  0  0  0  0  0  0  0  0  0  0  0
   21.5723  -17.0037    3.9087 C   0  0  0  0  0  0  0  0  0  0  0  0
   21.9420  -15.7777    4.6756 N   0  3  2  0  0  0  0  0  0  0  0  0
   21.4334  -15.7727    5.5590 H   0  0  0  0  0  0  0  0  0  0  0  0
   21.7535  -14.4565    3.9226 C   0  0  0  0  0  0  0  0  0  0  0  0
   23.1675  -13.8399    3.9743 C   0  0  1  0  0  0  0  0  0  0  0  0
   23.6605  -14.2746    5.3421 C   0  0  0  0  0  0  0  0  0  0  0  0
   23.4509  -15.7315    4.9937 C   0  0  2  0  0  0  0  0  0  0  0  0
   24.2109  -15.7404    3.6524 C   0  0  0  0  0  0  0  0  0  0  0  0
   24.0397  -14.5990    3.0291 N   0  0  0  0  0  0  0  0  0  0  0  0
   24.7985  -16.7686    3.2879 O   0  5  0  0  0  0  0  0  0  0  0  0
  1  2  2  0  0  0  0
  2  3  1  0  0  0  0
  3  4  1  0  0  0  0
  4  5  1  1  0  0  0
  4  6  1  0  0  0  0
  4  9  1  0  0  0  0
  7  6  1  6  0  0  0
  7  8  1  0  0  0  0
  7 11  1  0  0  0  0
  9  8  1  6  0  0  0
  9 10  1  0  0  0  0
 10 11  2  0  0  0  0
 10 12  1  0  0  0  0
M  CHG  2   4   1  12  -1
M  END
>  <CHROM.0>
-47.92188208,-59.43452768,-53.89444346,-52.73541737,-55.99535237,-60.63074892
-60.37186363,-51.06554895,-167.62041779,160.66260792

>  <CHROM.1>
-121.49389011,60.46500180,22.54573918,-15.76103710,4.04014714,-2.63325866
0.17330542,0.31180435

>  <Name>
P59255515

>  <RI>
0

>  <Rbt.Current_Directory>
/home/fstefaniak/projects/zuza/docking/adenine/1Y26

>  <Rbt.Executable>
rbdock ($Id: //depot/dev/client3/rdock/2013.1/src/exe/rbdock.cxx#4 $)

>  <Rbt.Library>
libRbt.so (2013.1, Build901 2013/11/27)

>  <Rbt.Parameter_File>
/home/fstefaniak/progs/rDock//data/scripts/dock_solv.prm

>  <Rbt.Receptor>
1y26.prm

>  <SCORE>
-35.1871

>  <SCORE.INTER>
-12.0102

>  <SCORE.INTER.CONST>
1

>  <SCORE.INTER.POLAR>
-1.96085

>  <SCORE.INTER.ROT>
2

>  <SCORE.INTER.SOLV>
20.4197

>  <SCORE.INTER.VDW>
-13.2105

>  <SCORE.INTER.norm>
-1.09184

>  <SCORE.INTRA>
-0.911736

>  <SCORE.INTRA.DIHEDRAL>
-1.72985

>  <SCORE.INTRA.DIHEDRAL.0>
1.7566

>  <SCORE.INTRA.POLAR>
0

>  <SCORE.INTRA.POLAR.0>
0

>  <SCORE.INTRA.REPUL>
0

>  <SCORE.INTRA.REPUL.0>
0

>  <SCORE.INTRA.SOLV>
-0.474624

>  <SCORE.INTRA.SOLV.lig_0>
-41.4675

>  <SCORE.INTRA.VDW>
0.1905

>  <SCORE.INTRA.VDW.0>
-0.355475

>  <SCORE.INTRA.norm>
-0.0828851

>  <SCORE.RESTR>
0

>  <SCORE.RESTR.CAVITY>
0

>  <SCORE.RESTR.norm>
0

>  <SCORE.SYSTEM>
-22.2652

>  <SCORE.SYSTEM.CONST>
0

>  <SCORE.SYSTEM.DIHEDRAL>
5.86856

>  <SCORE.SYSTEM.POLAR>
-3.51419

>  <SCORE.SYSTEM.SOLV>
0.666815

>  <SCORE.SYSTEM.VDW>
-5.30793

>  <SCORE.SYSTEM.norm>
-2.02411

>  <SCORE.heavy>
11

>  <SCORE.norm>
-3.19883

$$$$
P59255515
 OpenBabel12072022103D
libRbt.so/2013.1/901 2013/11/27
 12 13  0  0  0  0  0  0  0  0999 V2000
   19.9229  -18.2866    4.4540 C   0  0  0  0  0  0  0  0  0  0  0  0
   20.3274  -17.0273    4.6690 C   0  0  0  0  0  0  0  0  0  0  0  0
   21.3264  -16.2874    3.8287 C   0  0  0  0  0  0  0  0  0  0  0  0
   22.4304  -15.7618    4.6847 N   0  3  2  0  0  0  0  0  0  0  0  0
   22.0905  -15.6615    5.6404 H   0  0  0  0  0  0  0  0  0  0  0  0
   23.0772  -14.4639    4.1896 C   0  0  0  0  0  0  0  0  0  0  0  0
   24.5627  -14.8620    4.0583 C   0  0  1  0  0  0  0  0  0  0  0  0
   24.7463  -15.8167    5.2234 C   0  0  0  0  0  0  0  0  0  0  0  0
   23.6437  -16.7144    4.7075 C   0  0  2  0  0  0  0  0  0  0  0  0
   24.1495  -16.8604    3.2585 C   0  0  0  0  0  0  0  0  0  0  0  0
   24.7035  -15.7405    2.8588 N   0  0  0  0  0  0  0  0  0  0  0  0
   23.9331  -17.9101    2.6367 O   0  5  0  0  0  0  0  0  0  0  0  0
  1  2  2  0  0  0  0
  2  3  1  0  0  0  0
  3  4  1  0  0  0  0
  4  5  1  1  0  0  0
  4  6  1  0  0  0  0
  4  9  1  0  0  0  0
  7  6  1  1  0  0  0
  7  8  1  0  0  0  0
  7 11  1  0  0  0  0
  9  8  1  1  0  0  0
  9 10  1  0  0  0  0
 10 11  2  0  0  0  0
 10 12  1  0  0  0  0
M  CHG  2   4   1  12  -1
M  END
>  <CHROM.0>
-47.64724342,-168.70580100,-57.62444902,-50.47721977,60.34425022,-60.76010158
-61.42785420,-176.90300371,-167.59784222,160.04235276

>  <CHROM.1>
-125.67775313,-23.97697561,22.97748254,-16.35105311,4.04602291,-2.86338037
0.32058462,0.51617656

>  <Name>
P59255515

>  <RI>
0

>  <Rbt.Current_Directory>
/home/fstefaniak/projects/zuza/docking/adenine/1Y26

>  <Rbt.Executable>
rbdock ($Id: //depot/dev/client3/rdock/2013.1/src/exe/rbdock.cxx#4 $)

>  <Rbt.Library>
libRbt.so (2013.1, Build901 2013/11/27)

>  <Rbt.Parameter_File>
/home/fstefaniak/progs/rDock//data/scripts/dock_solv.prm

>  <Rbt.Receptor>
1y26.prm

>  <SCORE>
-34.0735

>  <SCORE.INTER>
-13.2534

>  <SCORE.INTER.CONST>
1

>  <SCORE.INTER.POLAR>
-1.83619

>  <SCORE.INTER.ROT>
2

>  <SCORE.INTER.SOLV>
20.8947

>  <SCORE.INTER.VDW>
-14.6132

>  <SCORE.INTER.norm>
-1.20486

>  <SCORE.INTRA>
0.295873

>  <SCORE.INTRA.DIHEDRAL>
0.474614

>  <SCORE.INTRA.DIHEDRAL.0>
1.7566

>  <SCORE.INTRA.POLAR>
0

>  <SCORE.INTRA.POLAR.0>
0

>  <SCORE.INTRA.REPUL>
0

>  <SCORE.INTRA.REPUL.0>
0

>  <SCORE.INTRA.SOLV>
0.226853

>  <SCORE.INTRA.SOLV.lig_0>
-41.4675

>  <SCORE.INTRA.VDW>
-0.0548604

>  <SCORE.INTRA.VDW.0>
-0.355475

>  <SCORE.INTRA.norm>
0.0268976

>  <SCORE.RESTR>
0

>  <SCORE.RESTR.CAVITY>
0

>  <SCORE.RESTR.norm>
0

>  <SCORE.SYSTEM>
-21.1159

>  <SCORE.SYSTEM.CONST>
0

>  <SCORE.SYSTEM.DIHEDRAL>
6.22535

>  <SCORE.SYSTEM.POLAR>
-3.50379

>  <SCORE.SYSTEM.SOLV>
0.18163

>  <SCORE.SYSTEM.VDW>
-4.53364

>  <SCORE.SYSTEM.norm>
-1.91963

>  <SCORE.heavy>
11

>  <SCORE.norm>
-3.09759

$$$$
P59273005
 OpenBabel12072022103D
libRbt.so/2013.1/901 2013/11/27
 18 19  0  0  0  0  0  0  0  0999 V2000
   24.0292  -16.4616    4.0372 C   0  0  0  0  0  0  0  0  0  0  0  0
   22.5253  -16.7116    4.0980 C   0  0  0  0  0  0  0  0  0  0  0  0
   21.7654  -15.4008    3.9172 C   0  0  0  0  0  0  0  0  0  0  0  0
   22.1131  -17.5761    3.0319 O   0  0  0  0  0  0  0  0  0  0  0  0
   20.7970  -18.0060    3.2516 N   0  0  0  0  0  0  0  0  0  0  0  0
   19.8411  -18.2028    2.2499 C   0  0  0  0  0  0  0  0  0  0  0  0
   18.6408  -18.5464    2.8725 C   0  0  0  0  0  0  0  0  0  0  0  0
   18.9020  -18.5060    4.2297 C   0  0  0  0  0  0  0  0  0  0  0  0
   20.1812  -18.1720    4.4445 C   0  0  0  0  0  0  0  0  0  0  0  0
   20.4710  -18.1231    5.7569 O   0  0  0  0  0  0  0  0  0  0  0  0
   19.2757  -18.4472    6.3714 C   0  0  0  0  0  0  0  0  0  0  0  0
   18.2678  -18.6960    5.4413 C   0  0  0  0  0  0  0  0  0  0  0  0
   17.4901  -18.8430    2.2417 N   0  0  0  0  0  0  0  0  0  0  0  0
   20.1408  -18.0431    0.9331 N   0  0  0  0  0  0  0  0  0  0  0  0
   16.6340  -18.3887    2.5451 H   0  0  0  0  0  0  0  0  0  0  0  0
   17.4931  -19.0603    1.2502 H   0  0  0  0  0  0  0  0  0  0  0  0
   20.1759  -18.8814    0.3536 H   0  0  0  0  0  0  0  0  0  0  0  0
   20.8755  -17.3816    0.6970 H   0  0  0  0  0  0  0  0  0  0  0  0
  1  2  1  0  0  0  0
  2  3  1  0  0  0  0
  2  4  1  0  0  0  0
  4  5  1  0  0  0  0
  5  6  1  0  0  0  0
  5  9  1  0  0  0  0
  6  7  2  0  0  0  0
  6 14  1  0  0  0  0
  7  8  1  0  0  0  0
  7 13  1  0  0  0  0
  8  9  2  0  0  0  0
  8 12  1  0  0  0  0
  9 10  1  0  0  0  0
 10 11  1  0  0  0  0
 11 12  2  0  0  0  0
 13 15  1  0  0  0  0
 13 16  1  0  0  0  0
 14 17  1  0  0  0  0
 14 18  1  0  0  0  0
M  END
>  <CHROM.0>
-50.44675652,-174.82245330,-54.96110602,176.14837292,-55.14862457,-59.98061311
-59.45014876,-172.80347947,-167.66685031,160.72085211

>  <CHROM.1>
168.38652891,143.54182882,109.86092692,-131.04303485,20.37513683,-17.80766884
3.72887996,0.07499604,0.44823306,1.57716962

>  <Name>
P59273005

>  <RI>
0

>  <Rbt.Current_Directory>
/home/fstefaniak/projects/zuza/docking/adenine/1Y26

>  <Rbt.Executable>
rbdock ($Id: //depot/dev/client3/rdock/2013.1/src/exe/rbdock.cxx#4 $)

>  <Rbt.Library>
libRbt.so (2013.1, Build901 2013/11/27)

>  <Rbt.Parameter_File>
/home/fstefaniak/progs/rDock//data/scripts/dock_solv.prm

>  <Rbt.Receptor>
1y26.prm

>  <SCORE>
-59.902

>  <SCORE.INTER>
-38.7196

>  <SCORE.INTER.CONST>
1

>  <SCORE.INTER.POLAR>
-4.68161

>  <SCORE.INTER.ROT>
4

>  <SCORE.INTER.SOLV>
15.785

>  <SCORE.INTER.VDW>
-21.736

>  <SCORE.INTER.norm>
-2.76569

>  <SCORE.INTRA>
-0.575725

>  <SCORE.INTRA.DIHEDRAL>
-3.80447

>  <SCORE.INTRA.DIHEDRAL.0>
6.58378

>  <SCORE.INTRA.POLAR>
0

>  <SCORE.INTRA.POLAR.0>
0

>  <SCORE.INTRA.REPUL>
0

>  <SCORE.INTRA.REPUL.0>
0

>  <SCORE.INTRA.SOLV>
-0.01235

>  <SCORE.INTRA.SOLV.lig_0>
-15.0499

>  <SCORE.INTRA.VDW>
1.33268

>  <SCORE.INTRA.VDW.0>
-1.72639

>  <SCORE.INTRA.norm>
-0.0411232

>  <SCORE.RESTR>
0

>  <SCORE.RESTR.CAVITY>
0

>  <SCORE.RESTR.norm>
0

>  <SCORE.SYSTEM>
-20.6067

>  <SCORE.SYSTEM.CONST>
0

>  <SCORE.SYSTEM.DIHEDRAL>
5.41114

>  <SCORE.SYSTEM.POLAR>
-2.88168

>  <SCORE.SYSTEM.SOLV>
0.200544

>  <SCORE.SYSTEM.VDW>
-6.00275

>  <SCORE.SYSTEM.norm>
-1.47191

>  <SCORE.heavy>
14

>  <SCORE.norm>
-4.27871

$$$$
P59273005
 OpenBabel12072022103D
libRbt.so/2013.1/901 2013/11/27
 18 19  0  0  0  0  0  0  0  0999 V2000
   24.0499  -16.4985    4.0856 C   0  0  0  0  0  0  0  0  0  0  0  0
   22.5454  -16.7448    4.1439 C   0  0  0  0  0  0  0  0  0  0  0  0
   21.7903  -15.4236    4.0325 C   0  0  0  0  0  0  0  0  0  0  0  0
   22.1226  -17.5544    3.0395 O   0  0  0  0  0  0  0  0  0  0  0  0
   20.8119  -18.0030    3.2544 N   0  0  0  0  0  0  0  0  0  0  0  0
   19.8612  -18.2090    2.2497 C   0  0  0  0  0  0  0  0  0  0  0  0
   18.6642  -18.5712    2.8681 C   0  0  0  0  0  0  0  0  0  0  0  0
   18.9215  -18.5322    4.2260 C   0  0  0  0  0  0  0  0  0  0  0  0
   20.1956  -18.1817    4.4452 C   0  0  0  0  0  0  0  0  0  0  0  0
   20.4815  -18.1336    5.7585 O   0  0  0  0  0  0  0  0  0  0  0  0
   19.2892  -18.4762    6.3688 C   0  0  0  0  0  0  0  0  0  0  0  0
   18.2870  -18.7352    5.4354 C   0  0  0  0  0  0  0  0  0  0  0  0
   17.5192  -18.8811    2.2333 N   0  0  0  0  0  0  0  0  0  0  0  0
   20.1619  -18.0405    0.9342 N   0  0  0  0  0  0  0  0  0  0  0  0
   16.6654  -18.4006    2.5007 H   0  0  0  0  0  0  0  0  0  0  0  0
   17.5344  -19.1455    1.2535 H   0  0  0  0  0  0  0  0  0  0  0  0
   20.1962  -18.8747    0.3488 H   0  0  0  0  0  0  0  0  0  0  0  0
   20.8977  -17.3783    0.7032 H   0  0  0  0  0  0  0  0  0  0  0  0
  1  2  1  0  0  0  0
  2  3  1  0  0  0  0
  2  4  1  0  0  0  0
  4  5  1  0  0  0  0
  5  6  1  0  0  0  0
  5  9  1  0  0  0  0
  6  7  2  0  0  0  0
  6 14  1  0  0  0  0
  7  8  1  0  0  0  0
  7 13  1  0  0  0  0
  8  9  2  0  0  0  0
  8 12  1  0  0  0  0
  9 10  1  0  0  0  0
 10 11  1  0  0  0  0
 11 12  2  0  0  0  0
 13 15  1  0  0  0  0
 13 16  1  0  0  0  0
 14 17  1  0  0  0  0
 14 18  1  0  0  0  0
M  END
>  <CHROM.0>
67.36057223,-175.83890664,-43.08989336,-47.34701181,-171.56915799,-50.81511472
-46.48869460,-46.07368850,-165.90900831,161.68658645

>  <CHROM.1>
167.64673199,146.54445869,110.74657381,-127.59494390,20.39383632,-17.82500671
3.74374340,-0.09960761,-0.45027183,-1.56701571

>  <Name>
P59273005

>  <RI>
0

>  <Rbt.Current_Directory>
/home/fstefaniak/projects/zuza/docking/adenine/1Y26

>  <Rbt.Executable>
rbdock ($Id: //depot/dev/client3/rdock/2013.1/src/exe/rbdock.cxx#4 $)

>  <Rbt.Library>
libRbt.so (2013.1, Build901 2013/11/27)

>  <Rbt.Parameter_File>
/home/fstefaniak/progs/rDock//data/scripts/dock_solv.prm

>  <Rbt.Receptor>
1y26.prm

>  <SCORE>
-59.537

>  <SCORE.INTER>
-38.8636

>  <SCORE.INTER.CONST>
1

>  <SCORE.INTER.POLAR>
-4.62052

>  <SCORE.INTER.ROT>
4

>  <SCORE.INTER.SOLV>
15.8379

>  <SCORE.INTER.VDW>
-22.0534

>  <SCORE.INTER.norm>
-2.77597

>  <SCORE.INTRA>
-0.537265

>  <SCORE.INTRA.DIHEDRAL>
-3.90647

>  <SCORE.INTRA.DIHEDRAL.0>
6.58378

>  <SCORE.INTRA.POLAR>
0

>  <SCORE.INTRA.POLAR.0>
0

>  <SCORE.INTRA.REPUL>
0

>  <SCORE.INTRA.REPUL.0>
0

>  <SCORE.INTRA.SOLV>
-0.0178418

>  <SCORE.INTRA.SOLV.lig_0>
-15.0499

>  <SCORE.INTRA.VDW>
1.42489

>  <SCORE.INTRA.VDW.0>
-1.72639

>  <SCORE.INTRA.norm>
-0.0383761

>  <SCORE.RESTR>
0

>  <SCORE.RESTR.CAVITY>
0

>  <SCORE.RESTR.norm>
0

>  <SCORE.SYSTEM>
-20.1361

>  <SCORE.SYSTEM.CONST>
0

>  <SCORE.SYSTEM.DIHEDRAL>
9.06803

>  <SCORE.SYSTEM.POLAR>
-3.5493

>  <SCORE.SYSTEM.SOLV>
0.469853

>  <SCORE.SYSTEM.VDW>
-4.77233

>  <SCORE.SYSTEM.norm>
-1.43829

>  <SCORE.heavy>
14

>  <SCORE.norm>
-4.25264

$$$$
P59273005
 OpenBabel12072022103D
libRbt.so/2013.1/901 2013/11/27
 18 19  0  0  0  0  0  0  0  0999 V2000
   24.0169  -16.4735    3.9892 C   0  0  0  0  0  0  0  0  0  0  0  0
   22.5129  -16.7236    4.0453 C   0  0  0  0  0  0  0  0  0  0  0  0
   21.7532  -15.4162    3.8406 C   0  0  0  0  0  0  0  0  0  0  0  0
   22.1072  -17.6043    2.9900 O   0  0  0  0  0  0  0  0  0  0  0  0
   20.7900  -18.0314    3.2085 N   0  0  0  0  0  0  0  0  0  0  0  0
   19.8346  -18.2257    2.2059 C   0  0  0  0  0  0  0  0  0  0  0  0
   18.6330  -18.5669    2.8273 C   0  0  0  0  0  0  0  0  0  0  0  0
   18.8930  -18.5273    4.1847 C   0  0  0  0  0  0  0  0  0  0  0  0
   20.1728  -18.1963    4.4007 C   0  0  0  0  0  0  0  0  0  0  0  0
   20.4614  -18.1483    5.7134 O   0  0  0  0  0  0  0  0  0  0  0  0
   19.2648  -18.4699    6.3268 C   0  0  0  0  0  0  0  0  0  0  0  0
   18.2572  -18.7162    5.3957 C   0  0  0  0  0  0  0  0  0  0  0  0
   17.4822  -18.8607    2.1953 N   0  0  0  0  0  0  0  0  0  0  0  0
   20.1358  -18.0664    0.8893 N   0  0  0  0  0  0  0  0  0  0  0  0
   16.6370  -18.3641    2.4607 H   0  0  0  0  0  0  0  0  0  0  0  0
   17.4919  -19.1311    1.2171 H   0  0  0  0  0  0  0  0  0  0  0  0
   20.8347  -17.3641    0.6483 H   0  0  0  0  0  0  0  0  0  0  0  0
   19.3650  -18.0847    0.2271 H   0  0  0  0  0  0  0  0  0  0  0  0
  1  2  1  0  0  0  0
  2  3  1  0  0  0  0
  2  4  1  0  0  0  0
  4  5  1  0  0  0  0
  5  6  1  0  0  0  0
  5  9  1  0  0  0  0
  6  7  2  0  0  0  0
  6 14  1  0  0  0  0
  7  8  1  0  0  0  0
  7 13  1  0  0  0  0
  8  9  2  0  0  0  0
  8 12  1  0  0  0  0
  9 10  1  0  0  0  0
 10 11  1  0  0  0  0
 11 12  2  0  0  0  0
 13 15  1  0  0  0  0
 13 16  1  0  0  0  0
 14 17  1  0  0  0  0
 14 18  1  0  0  0  0
M  END
>  <CHROM.0>
-49.04593900,-179.58569633,-56.47962088,-51.07738684,-55.68504754,-53.56605774
-54.33974218,-52.55491802,-165.90185719,161.44709053

>  <CHROM.1>
168.41422760,142.60122175,-32.34077039,-127.43129578,20.36195927,-17.82407081
3.68073398,0.06854154,0.44873464,1.59030754

>  <Name>
P59273005

>  <RI>
0

>  <Rbt.Current_Directory>
/home/fstefaniak/projects/zuza/docking/adenine/1Y26

>  <Rbt.Executable>
rbdock ($Id: //depot/dev/client3/rdock/2013.1/src/exe/rbdock.cxx#4 $)

>  <Rbt.Library>
libRbt.so (2013.1, Build901 2013/11/27)

>  <Rbt.Parameter_File>
/home/fstefaniak/progs/rDock//data/scripts/dock_solv.prm

>  <Rbt.Receptor>
1y26.prm

>  <SCORE>
-59.4404

>  <SCORE.INTER>
-36.6669

>  <SCORE.INTER.CONST>
1

>  <SCORE.INTER.POLAR>
-4.32734

>  <SCORE.INTER.ROT>
4

>  <SCORE.INTER.SOLV>
15.7881

>  <SCORE.INTER.VDW>
-21.5495

>  <SCORE.INTER.norm>
-2.61907

>  <SCORE.INTRA>
-0.569463

>  <SCORE.INTRA.DIHEDRAL>
-3.74663

>  <SCORE.INTRA.DIHEDRAL.0>
6.58378

>  <SCORE.INTRA.POLAR>
0

>  <SCORE.INTRA.POLAR.0>
0

>  <SCORE.INTRA.REPUL>
0

>  <SCORE.INTRA.REPUL.0>
0

>  <SCORE.INTRA.SOLV>
0.035948

>  <SCORE.INTRA.SOLV.lig_0>
-15.0499

>  <SCORE.INTRA.VDW>
1.28588

>  <SCORE.INTRA.VDW.0>
-1.72639

>  <SCORE.INTRA.norm>
-0.0406759

>  <SCORE.RESTR>
0

>  <SCORE.RESTR.CAVITY>
0

>  <SCORE.RESTR.norm>
0

>  <SCORE.SYSTEM>
-22.204

>  <SCORE.SYSTEM.CONST>
0

>  <SCORE.SYSTEM.DIHEDRAL>
6.07296

>  <SCORE.SYSTEM.POLAR>
-3.52659

>  <SCORE.SYSTEM.SOLV>
0.632985

>  <SCORE.SYSTEM.VDW>
-5.28273

>  <SCORE.SYSTEM.norm>
-1.586

>  <SCORE.heavy>
14

>  <SCORE.norm>
-4.24575

$$$$
P59283247
 OpenBabel12072022103D
libRbt.so/2013.1/901 2013/11/27
 14 14  0  0  0  0  0  0  0  0999 V2000
   18.9537  -17.9304    4.1001 C   0  0  0  0  0  0  0  0  0  0  0  0
   20.4379  -17.9183    4.4538 C   0  0  0  0  0  0  0  0  0  0  0  0
   21.1988  -16.6818    3.9377 C   0  0  1  0  0  0  0  0  0  0  0  0
   20.9579  -15.4669    4.8307 C   0  0  0  0  0  0  0  0  0  0  0  0
   22.2919  -14.7302    4.8084 C   0  0  1  0  0  0  0  0  0  0  0  0
   23.2340  -15.8511    4.7832 N   0  0  0  0  0  0  0  0  0  0  0  0
   22.6519  -16.8643    3.9172 N   0  0  0  0  0  0  0  0  0  0  0  0
   24.5668  -15.5111    4.2890 C   0  0  0  0  0  0  0  0  0  0  0  0
   22.3688  -13.7092    3.6688 C   0  0  0  0  0  0  0  0  0  0  0  0
   22.4418  -14.0282    6.0320 O   0  0  0  0  0  0  0  0  0  0  0  0
   20.7565  -16.3827    2.6202 O   0  0  0  0  0  0  0  0  0  0  0  0
   22.9015  -17.8011    4.2338 H   0  0  0  0  0  0  0  0  0  0  0  0
   22.6506  -14.7357    6.6661 H   0  0  0  0  0  0  0  0  0  0  0  0
   20.8454  -17.1907    2.0900 H   0  0  0  0  0  0  0  0  0  0  0  0
  1  2  1  0  0  0  0
  3  2  1  1  0  0  0
  3  4  1  0  0  0  0
  3  7  1  0  0  0  0
  3 11  1  0  0  0  0
  4  5  1  0  0  0  0
  5  6  1  0  0  0  0
  5 10  1  0  0  0  0
  5  9  1  6  0  0  0
  6  7  1  0  0  0  0
  6  8  1  0  0  0  0
  7 12  1  0  0  0  0
 10 13  1  0  0  0  0
 11 14  1  0  0  0  0
M  END
>  <CHROM.0>
-50.02689803,-82.20546760,-54.50047606,-52.07217729,-57.13066226,-56.98746988
-60.65607665,178.99138608,-166.58653913,160.25734145

>  <CHROM.1>
79.09907620,-53.31360066,74.61822420,21.81073347,-15.91222364,4.30642030
2.39796859,-0.11759536,-2.70077259

>  <Name>
P59283247

>  <RI>
0

>  <Rbt.Current_Directory>
/home/fstefaniak/projects/zuza/docking/adenine/1Y26

>  <Rbt.Executable>
rbdock ($Id: //depot/dev/client3/rdock/2013.1/src/exe/rbdock.cxx#4 $)

>  <Rbt.Library>
libRbt.so (2013.1, Build901 2013/11/27)

>  <Rbt.Parameter_File>
/home/fstefaniak/progs/rDock//data/scripts/dock_solv.prm

>  <Rbt.Receptor>
1y26.prm

>  <SCORE>
-44.7275

>  <SCORE.INTER>
-22.7682

>  <SCORE.INTER.CONST>
1

>  <SCORE.INTER.POLAR>
-2.86223

>  <SCORE.INTER.ROT>
1

>  <SCORE.INTER.SOLV>
12.1707

>  <SCORE.INTER.VDW>
-13.9615

>  <SCORE.INTER.norm>
-2.06983

>  <SCORE.INTRA>
-0.167702

>  <SCORE.INTRA.DIHEDRAL>
-1.71493

>  <SCORE.INTRA.DIHEDRAL.0>
4.89001

>  <SCORE.INTRA.POLAR>
0

>  <SCORE.INTRA.POLAR.0>
0

>  <SCORE.INTRA.REPUL>
0

>  <SCORE.INTRA.REPUL.0>
0

>  <SCORE.INTRA.SOLV>
-0.103608

>  <SCORE.INTRA.SOLV.lig_0>
-14.1239

>  <SCORE.INTRA.VDW>
0.741566

>  <SCORE.INTRA.VDW.0>
0.411473

>  <SCORE.INTRA.norm>
-0.0152456

>  <SCORE.RESTR>
0

>  <SCORE.RESTR.CAVITY>
0

>  <SCORE.RESTR.norm>
0

>  <SCORE.SYSTEM>
-21.7917

>  <SCORE.SYSTEM.CONST>
0

>  <SCORE.SYSTEM.DIHEDRAL>
7.59259

>  <SCORE.SYSTEM.POLAR>
-3.48401

>  <SCORE.SYSTEM.SOLV>
0.438264

>  <SCORE.SYSTEM.VDW>
-5.59136

>  <SCORE.SYSTEM.norm>
-1.98106

>  <SCORE.heavy>
11

>  <SCORE.norm>
-4.06614

$$$$
P59283247
 OpenBabel12072022103D
libRbt.so/2013.1/901 2013/11/27
 14 14  0  0  0  0  0  0  0  0999 V2000
   19.0249  -17.8935    4.0334 C   0  0  0  0  0  0  0  0  0  0  0  0
   20.5100  -17.8522    4.3810 C   0  0  0  0  0  0  0  0  0  0  0  0
   21.2268  -16.5644    3.9314 C   0  0  1  0  0  0  0  0  0  0  0  0
   20.9443  -15.4073    4.8869 C   0  0  0  0  0  0  0  0  0  0  0  0
   22.2518  -14.6244    4.9048 C   0  0  1  0  0  0  0  0  0  0  0  0
   23.2324  -15.7088    4.8217 N   0  0  0  0  0  0  0  0  0  0  0  0
   22.6855  -16.6947    3.9030 N   0  0  0  0  0  0  0  0  0  0  0  0
   24.5522  -15.2969    4.3475 C   0  0  0  0  0  0  0  0  0  0  0  0
   22.2921  -13.5428    3.8206 C   0  0  0  0  0  0  0  0  0  0  0  0
   22.3779  -13.9829    6.1639 O   0  0  0  0  0  0  0  0  0  0  0  0
   20.7734  -16.2120    2.6311 O   0  0  0  0  0  0  0  0  0  0  0  0
   22.9679  -17.6376    4.1700 H   0  0  0  0  0  0  0  0  0  0  0  0
   22.6102  -14.7153    6.7604 H   0  0  0  0  0  0  0  0  0  0  0  0
   21.0933  -15.3157    2.4412 H   0  0  0  0  0  0  0  0  0  0  0  0
  1  2  1  0  0  0  0
  3  2  1  1  0  0  0
  3  4  1  0  0  0  0
  3  7  1  0  0  0  0
  3 11  1  0  0  0  0
  4  5  1  0  0  0  0
  5  6  1  0  0  0  0
  5 10  1  0  0  0  0
  5  9  1  6  0  0  0
  6  7  1  0  0  0  0
  6  8  1  0  0  0  0
  7 12  1  0  0  0  0
 10 13  1  0  0  0  0
 11 14  1  0  0  0  0
M  END
>  <CHROM.0>
62.54131639,-85.67973533,-56.55687537,-50.72736609,-172.57169619,-62.47535438
-54.06396199,-49.78713491,-166.66431506,161.77445823

>  <CHROM.1>
78.72377620,168.72961436,74.51438274,21.81291429,-15.78350994,4.34397620
2.36920690,-0.11364796,-2.67925915

>  <Name>
P59283247

>  <RI>
0

>  <Rbt.Current_Directory>
/home/fstefaniak/projects/zuza/docking/adenine/1Y26

>  <Rbt.Executable>
rbdock ($Id: //depot/dev/client3/rdock/2013.1/src/exe/rbdock.cxx#4 $)

>  <Rbt.Library>
libRbt.so (2013.1, Build901 2013/11/27)

>  <Rbt.Parameter_File>
/home/fstefaniak/progs/rDock//data/scripts/dock_solv.prm

>  <Rbt.Receptor>
1y26.prm

>  <SCORE>
-43.7281

>  <SCORE.INTER>
-24.2515

>  <SCORE.INTER.CONST>
1

>  <SCORE.INTER.POLAR>
-3.07244

>  <SCORE.INTER.ROT>
1

>  <SCORE.INTER.SOLV>
12.3118

>  <SCORE.INTER.VDW>
-14.2968

>  <SCORE.INTER.norm>
-2.20468

>  <SCORE.INTRA>
0.565819

>  <SCORE.INTRA.DIHEDRAL>
-1.50866

>  <SCORE.INTRA.DIHEDRAL.0>
4.89001

>  <SCORE.INTRA.POLAR>
0

>  <SCORE.INTRA.POLAR.0>
0

>  <SCORE.INTRA.REPUL>
0

>  <SCORE.INTRA.REPUL.0>
0

>  <SCORE.INTRA.SOLV>
-0.101239

>  <SCORE.INTRA.SOLV.lig_0>
-14.1239

>  <SCORE.INTRA.VDW>
1.37077

>  <SCORE.INTRA.VDW.0>
0.411473

>  <SCORE.INTRA.norm>
0.0514381

>  <SCORE.RESTR>
0

>  <SCORE.RESTR.CAVITY>
0

>  <SCORE.RESTR.norm>
0

>  <SCORE.SYSTEM>
-20.0424

>  <SCORE.SYSTEM.CONST>
0

>  <SCORE.SYSTEM.DIHEDRAL>
8.36703

>  <SCORE.SYSTEM.POLAR>
-3.26703

>  <SCORE.SYSTEM.SOLV>
0.459411

>  <SCORE.SYSTEM.VDW>
-5.41364

>  <SCORE.SYSTEM.norm>
-1.82204

>  <SCORE.heavy>
11

>  <SCORE.norm>
-3.97528

$$$$
P59283247
 OpenBabel12072022103D
libRbt.so/2013.1/901 2013/11/27
 14 14  0  0  0  0  0  0  0  0999 V2000
   19.5541  -18.5069    4.0737 C   0  0  0  0  0  0  0  0  0  0  0  0
   20.0758  -17.3990    4.9839 C   0  0  0  0  0  0  0  0  0  0  0  0
   20.9705  -16.3667    4.2711 C   0  0  1  0  0  0  0  0  0  0  0  0
   21.1227  -15.0942    5.1012 C   0  0  0  0  0  0  0  0  0  0  0  0
   22.5537  -14.6492    4.8239 C   0  0  1  0  0  0  0  0  0  0  0  0
   23.2396  -15.9401    4.7360 N   0  0  0  0  0  0  0  0  0  0  0  0
   22.3361  -16.8449    4.0432 N   0  0  0  0  0  0  0  0  0  0  0  0
   24.5144  -15.9012    4.0220 C   0  0  0  0  0  0  0  0  0  0  0  0
   22.6429  -13.7113    3.6158 C   0  0  0  0  0  0  0  0  0  0  0  0
   23.0366  -13.9457    5.9572 O   0  0  0  0  0  0  0  0  0  0  0  0
   20.3867  -16.0349    3.0182 O   0  0  0  0  0  0  0  0  0  0  0  0
   22.4446  -17.7999    4.3842 H   0  0  0  0  0  0  0  0  0  0  0  0
   23.0194  -14.6205    6.6575 H   0  0  0  0  0  0  0  0  0  0  0  0
   20.8131  -15.2227    2.7012 H   0  0  0  0  0  0  0  0  0  0  0  0
  1  2  1  0  0  0  0
  3  2  1  1  0  0  0
  3  4  1  0  0  0  0
  3  7  1  0  0  0  0
  3 11  1  0  0  0  0
  4  5  1  0  0  0  0
  5  6  1  0  0  0  0
  5 10  1  0  0  0  0
  5  9  1  6  0  0  0
  6  7  1  0  0  0  0
  6  8  1  0  0  0  0
  7 12  1  0  0  0  0
 10 13  1  0  0  0  0
 11 14  1  0  0  0  0
M  END
>  <CHROM.0>
-48.06692011,-75.51355222,-55.93236344,-53.70935669,58.91151202,-59.08740417
-59.64407976,-49.70391231,-165.96562829,160.52454816

>  <CHROM.1>
163.41855078,164.47691646,62.80826429,21.86773184,-15.84533268,4.41404989
-2.38972623,0.01991877,0.23211061

>  <Name>
P59283247

>  <RI>
0

>  <Rbt.Current_Directory>
/home/fstefaniak/projects/zuza/docking/adenine/1Y26

>  <Rbt.Executable>
rbdock ($Id: //depot/dev/client3/rdock/2013.1/src/exe/rbdock.cxx#4 $)

>  <Rbt.Library>
libRbt.so (2013.1, Build901 2013/11/27)

>  <Rbt.Parameter_File>
/home/fstefaniak/progs/rDock//data/scripts/dock_solv.prm

>  <Rbt.Receptor>
1y26.prm

>  <SCORE>
-42.7323

>  <SCORE.INTER>
-22.4471

>  <SCORE.INTER.CONST>
1

>  <SCORE.INTER.POLAR>
-2.80792

>  <SCORE.INTER.ROT>
1

>  <SCORE.INTER.SOLV>
11.9234

>  <SCORE.INTER.VDW>
-13.8461

>  <SCORE.INTER.norm>
-2.04064

>  <SCORE.INTRA>
0.076508

>  <SCORE.INTRA.DIHEDRAL>
-2.44727

>  <SCORE.INTRA.DIHEDRAL.0>
4.89001

>  <SCORE.INTRA.POLAR>
0

>  <SCORE.INTRA.POLAR.0>
0

>  <SCORE.INTRA.REPUL>
0

>  <SCORE.INTRA.REPUL.0>
0

>  <SCORE.INTRA.SOLV>
0.0432822

>  <SCORE.INTRA.SOLV.lig_0>
-14.1239

>  <SCORE.INTRA.VDW>
1.2785

>  <SCORE.INTRA.VDW.0>
0.411473

>  <SCORE.INTRA.norm>
0.00695528

>  <SCORE.RESTR>
0

>  <SCORE.RESTR.CAVITY>
0

>  <SCORE.RESTR.norm>
0

>  <SCORE.SYSTEM>
-20.3617

>  <SCORE.SYSTEM.CONST>
0

>  <SCORE.SYSTEM.DIHEDRAL>
7.04241

>  <SCORE.SYSTEM.POLAR>
-3.50409

>  <SCORE.SYSTEM.SOLV>
0.448615

>  <SCORE.SYSTEM.VDW>
-4.39119

>  <SCORE.SYSTEM.norm>
-1.85106

>  <SCORE.heavy>
11

>  <SCORE.norm>
-3.88475

$$$$
P59287310
 OpenBabel12072022103D
libRbt.so/2013.1/901 2013/11/27
 17 17  0  0  0  0  0  0  0  0999 V2000
   23.7139  -12.4879    3.0260 C   0  0  0  0  0  0  0  0  0  0  0  0
   22.2318  -12.3318    3.3433 C   0  0  0  0  0  0  0  0  0  0  0  0
   21.7015  -13.5181    4.1443 C   0  0  0  0  0  0  0  0  0  0  0  0
   22.5338  -13.8255    5.3971 C   0  0  1  0  0  0  0  0  0  0  0  0
   24.0528  -13.8874    5.1310 C   0  0  2  0  0  0  0  0  0  0  0  0
   24.5430  -12.6976    4.2909 C   0  0  0  0  0  0  0  0  0  0  0  0
   24.3833  -15.2337    4.4906 C   0  0  0  0  0  0  0  0  0  0  0  0
   24.0952  -15.4811    3.3215 O   0  0  0  0  0  0  0  0  0  0  0  0
   24.9681  -16.1632    5.3342 N   0  0  0  0  0  0  0  0  0  0  0  0
   25.4043  -17.3917    4.8018 N   0  0  0  0  0  0  0  0  0  0  0  0
   22.2465  -12.7535    6.4137 N   0  3  0  0  0  0  0  0  0  0  0  0
   23.0433  -12.5587    7.0338 H   0  0  0  0  0  0  0  0  0  0  0  0
   22.0086  -11.8684    5.9431 H   0  0  0  0  0  0  0  0  0  0  0  0
   21.4380  -12.9954    7.0024 H   0  0  0  0  0  0  0  0  0  0  0  0
   25.2854  -15.9233    6.2723 H   0  0  0  0  0  0  0  0  0  0  0  0
   24.5923  -18.0218    4.7324 H   0  0  0  0  0  0  0  0  0  0  0  0
   26.0159  -17.8519    5.4831 H   0  0  0  0  0  0  0  0  0  0  0  0
  1  2  1  0  0  0  0
  1  6  1  0  0  0  0
  2  3  1  0  0  0  0
  3  4  1  0  0  0  0
  4  5  1  0  0  0  0
  4 11  1  1  0  0  0
  5  6  1  0  0  0  0
  5  7  1  6  0  0  0
  7  8  2  0  0  0  0
  7  9  1  0  0  0  0
  9 10  1  0  0  0  0
  9 15  1  0  0  0  0
 10 16  1  0  0  0  0
 10 17  1  0  0  0  0
 11 12  1  0  0  0  0
 11 13  1  0  0  0  0
 11 14  1  0  0  0  0
M  CHG  1  11   1
M  END
>  <CHROM.0>
-49.24414226,-61.01743048,-54.80071557,-49.88918410,-53.80628116,-175.42377193
-61.49240630,-46.89044314,-162.85735253,161.87935724

>  <CHROM.1>
-149.49311476,73.62718499,-81.92767336,23.62917119,-14.19433485,4.55285753
-2.66014816,-0.92106284,2.07435071

>  <Name>
P59287310

>  <RI>
0

>  <Rbt.Current_Directory>
/home/fstefaniak/projects/zuza/docking/adenine/1Y26

>  <Rbt.Executable>
rbdock ($Id: //depot/dev/client3/rdock/2013.1/src/exe/rbdock.cxx#4 $)

>  <Rbt.Library>
libRbt.so (2013.1, Build901 2013/11/27)

>  <Rbt.Parameter_File>
/home/fstefaniak/progs/rDock//data/scripts/dock_solv.prm

>  <Rbt.Receptor>
1y26.prm

>  <SCORE>
-52.5161

>  <SCORE.INTER>
-33.9467

>  <SCORE.INTER.CONST>
1

>  <SCORE.INTER.POLAR>
-5.71489

>  <SCORE.INTER.ROT>
2

>  <SCORE.INTER.SOLV>
17.6828

>  <SCORE.INTER.VDW>
-14.4091

>  <SCORE.INTER.norm>
-3.08607

>  <SCORE.INTRA>
2.13515

>  <SCORE.INTRA.DIHEDRAL>
4.70756

>  <SCORE.INTRA.DIHEDRAL.0>
0.966352

>  <SCORE.INTRA.POLAR>
0

>  <SCORE.INTRA.POLAR.0>
0

>  <SCORE.INTRA.REPUL>
0

>  <SCORE.INTRA.REPUL.0>
0

>  <SCORE.INTRA.SOLV>
-0.174828

>  <SCORE.INTRA.SOLV.lig_0>
-34.6387

>  <SCORE.INTRA.VDW>
-0.131215

>  <SCORE.INTRA.VDW.0>
-0.482853

>  <SCORE.INTRA.norm>
0.194104

>  <SCORE.RESTR>
1.00971

>  <SCORE.RESTR.CAVITY>
1.00971

>  <SCORE.RESTR.norm>
0.0917918

>  <SCORE.SYSTEM>
-21.7142

>  <SCORE.SYSTEM.CONST>
0

>  <SCORE.SYSTEM.DIHEDRAL>
6.91478

>  <SCORE.SYSTEM.POLAR>
-3.54736

>  <SCORE.SYSTEM.SOLV>
0.526484

>  <SCORE.SYSTEM.VDW>
-5.132

>  <SCORE.SYSTEM.norm>
-1.97402

>  <SCORE.heavy>
11

>  <SCORE.norm>
-4.77419

$$$$
P59287310
 OpenBabel12072022103D
libRbt.so/2013.1/901 2013/11/27
 17 17  0  0  0  0  0  0  0  0999 V2000
   23.7042  -12.5089    3.0224 C   0  0  0  0  0  0  0  0  0  0  0  0
   22.2240  -12.3613    3.3526 C   0  0  0  0  0  0  0  0  0  0  0  0
   21.7067  -13.5526    4.1547 C   0  0  0  0  0  0  0  0  0  0  0  0
   22.5511  -13.8591    5.3996 C   0  0  1  0  0  0  0  0  0  0  0  0
   24.0681  -13.9123    5.1205 C   0  0  2  0  0  0  0  0  0  0  0  0
   24.5450  -12.7177    4.2797 C   0  0  0  0  0  0  0  0  0  0  0  0
   24.4002  -15.2552    4.4736 C   0  0  0  0  0  0  0  0  0  0  0  0
   24.1156  -15.4959    3.3022 O   0  0  0  0  0  0  0  0  0  0  0  0
   24.9820  -16.1896    5.3137 N   0  0  0  0  0  0  0  0  0  0  0  0
   25.4194  -17.4153    4.7757 N   0  0  0  0  0  0  0  0  0  0  0  0
   22.2669  -12.7914    6.4216 N   0  3  0  0  0  0  0  0  0  0  0  0
   22.0019  -11.8902    6.0035 H   0  0  0  0  0  0  0  0  0  0  0  0
   21.4893  -13.0792    7.0331 H   0  0  0  0  0  0  0  0  0  0  0  0
   23.0755  -12.6302    7.0371 H   0  0  0  0  0  0  0  0  0  0  0  0
   25.2964  -15.9551    6.2541 H   0  0  0  0  0  0  0  0  0  0  0  0
   24.6063  -18.0424    4.6940 H   0  0  0  0  0  0  0  0  0  0  0  0
   26.0234  -17.8826    5.4591 H   0  0  0  0  0  0  0  0  0  0  0  0
  1  2  1  0  0  0  0
  1  6  1  0  0  0  0
  2  3  1  0  0  0  0
  3  4  1  0  0  0  0
  4  5  1  0  0  0  0
  4 11  1  1  0  0  0
  5  6  1  0  0  0  0
  5  7  1  6  0  0  0
  7  8  2  0  0  0  0
  7  9  1  0  0  0  0
  9 10  1  0  0  0  0
  9 15  1  0  0  0  0
 10 16  1  0  0  0  0
 10 17  1  0  0  0  0
 11 12  1  0  0  0  0
 11 13  1  0  0  0  0
 11 14  1  0  0  0  0
M  CHG  1  11   1
M  END
>  <CHROM.0>
-48.48472394,-62.25875324,-51.21636202,-51.83986287,-58.28241849,59.54087900
-61.38932740,-50.11903931,-164.69288136,161.12838094

>  <CHROM.1>
-28.81178190,74.38080154,-81.53131346,23.63935934,-14.22103588,4.54605640
-2.66988082,-0.92145111,2.07016968

>  <Name>
P59287310

>  <RI>
0

>  <Rbt.Current_Directory>
/home/fstefaniak/projects/zuza/docking/adenine/1Y26

>  <Rbt.Executable>
rbdock ($Id: //depot/dev/client3/rdock/2013.1/src/exe/rbdock.cxx#4 $)

>  <Rbt.Library>
libRbt.so (2013.1, Build901 2013/11/27)

>  <Rbt.Parameter_File>
/home/fstefaniak/progs/rDock//data/scripts/dock_solv.prm

>  <Rbt.Receptor>
1y26.prm

>  <SCORE>
-52.247

>  <SCORE.INTER>
-33.9276

>  <SCORE.INTER.CONST>
1

>  <SCORE.INTER.POLAR>
-5.67353

>  <SCORE.INTER.ROT>
2

>  <SCORE.INTER.SOLV>
17.9146

>  <SCORE.INTER.VDW>
-14.6115

>  <SCORE.INTER.norm>
-3.08433

>  <SCORE.INTRA>
1.95358

>  <SCORE.INTRA.DIHEDRAL>
4.73483

>  <SCORE.INTRA.DIHEDRAL.0>
0.966352

>  <SCORE.INTRA.POLAR>
0

>  <SCORE.INTRA.POLAR.0>
0

>  <SCORE.INTRA.REPUL>
0

>  <SCORE.INTRA.REPUL.0>
0

>  <SCORE.INTRA.SOLV>
-0.240575

>  <SCORE.INTRA.SOLV.lig_0>
-34.6387

>  <SCORE.INTRA.VDW>
-0.293545

>  <SCORE.INTRA.VDW.0>
-0.482853

>  <SCORE.INTRA.norm>
0.177599

>  <SCORE.RESTR>
1.01013

>  <SCORE.RESTR.CAVITY>
1.01013

>  <SCORE.RESTR.norm>
0.09183

>  <SCORE.SYSTEM>
-21.2831

>  <SCORE.SYSTEM.CONST>
0

>  <SCORE.SYSTEM.DIHEDRAL>
6.37541

>  <SCORE.SYSTEM.POLAR>
-3.55204

>  <SCORE.SYSTEM.SOLV>
0.504731

>  <SCORE.SYSTEM.VDW>
-4.64201

>  <SCORE.SYSTEM.norm>
-1.93483

>  <SCORE.heavy>
11

>  <SCORE.norm>
-4.74973

$$$$
P59287310
 OpenBabel12072022103D
libRbt.so/2013.1/901 2013/11/27
 17 17  0  0  0  0  0  0  0  0999 V2000
   23.7759  -12.4328    3.0465 C   0  0  0  0  0  0  0  0  0  0  0  0
   22.2912  -12.2421    3.3315 C   0  0  0  0  0  0  0  0  0  0  0  0
   21.7114  -13.4251    4.1026 C   0  0  0  0  0  0  0  0  0  0  0  0
   22.5056  -13.7717    5.3699 C   0  0  1  0  0  0  0  0  0  0  0  0
   24.0283  -13.8699    5.1383 C   0  0  2  0  0  0  0  0  0  0  0  0
   24.5691  -12.6818    4.3273 C   0  0  0  0  0  0  0  0  0  0  0  0
   24.3388  -15.2154    4.4863 C   0  0  0  0  0  0  0  0  0  0  0  0
   24.0107  -15.4629    3.3278 O   0  0  0  0  0  0  0  0  0  0  0  0
   24.9541  -16.1442    5.3087 N   0  0  0  0  0  0  0  0  0  0  0  0
   25.3737  -17.3718    4.7609 N   0  0  0  0  0  0  0  0  0  0  0  0
   22.2223  -12.7068    6.3950 N   0  3  0  0  0  0  0  0  0  0  0  0
   23.0397  -12.4732    6.9735 H   0  0  0  0  0  0  0  0  0  0  0  0
   21.9224  -11.8360    5.9331 H   0  0  0  0  0  0  0  0  0  0  0  0
   21.4557  -12.9801    7.0245 H   0  0  0  0  0  0  0  0  0  0  0  0
   25.3033  -15.9040    6.2353 H   0  0  0  0  0  0  0  0  0  0  0  0
   24.5465  -17.9743    4.6436 H   0  0  0  0  0  0  0  0  0  0  0  0
   25.9439  -17.8679    5.4528 H   0  0  0  0  0  0  0  0  0  0  0  0
  1  2  1  0  0  0  0
  1  6  1  0  0  0  0
  2  3  1  0  0  0  0
  3  4  1  0  0  0  0
  4  5  1  0  0  0  0
  4 11  1  1  0  0  0
  5  6  1  0  0  0  0
  5  7  1  6  0  0  0
  7  8  2  0  0  0  0
  7  9  1  0  0  0  0
  9 10  1  0  0  0  0
  9 15  1  0  0  0  0
 10 16  1  0  0  0  0
 10 17  1  0  0  0  0
 11 12  1  0  0  0  0
 11 13  1  0  0  0  0
 11 14  1  0  0  0  0
M  CHG  1  11   1
M  END
>  <CHROM.0>
-43.30223386,65.15014711,-55.26071672,-51.40823135,-173.51752117,-54.11708836
-45.36509855,-178.06077128,-166.50713169,162.87762346

>  <CHROM.1>
-143.55882941,69.84559556,-77.09216422,23.61966858,-14.15400008,4.54299746
-2.63809067,-0.92894316,2.10291063

>  <Name>
P59287310

>  <RI>
0

>  <Rbt.Current_Directory>
/home/fstefaniak/projects/zuza/docking/adenine/1Y26

>  <Rbt.Executable>
rbdock ($Id: //depot/dev/client3/rdock/2013.1/src/exe/rbdock.cxx#4 $)

>  <Rbt.Library>
libRbt.so (2013.1, Build901 2013/11/27)

>  <Rbt.Parameter_File>
/home/fstefaniak/progs/rDock//data/scripts/dock_solv.prm

>  <Rbt.Receptor>
1y26.prm

>  <SCORE>
-52.1097

>  <SCORE.INTER>
-34.4052

>  <SCORE.INTER.CONST>
1

>  <SCORE.INTER.POLAR>
-5.81685

>  <SCORE.INTER.ROT>
2

>  <SCORE.INTER.SOLV>
17.2281

>  <SCORE.INTER.VDW>
-14.2233

>  <SCORE.INTER.norm>
-3.12775

>  <SCORE.INTRA>
2.62502

>  <SCORE.INTRA.DIHEDRAL>
5.44837

>  <SCORE.INTRA.DIHEDRAL.0>
0.966352

>  <SCORE.INTRA.POLAR>
0

>  <SCORE.INTRA.POLAR.0>
0

>  <SCORE.INTRA.REPUL>
0

>  <SCORE.INTRA.REPUL.0>
0

>  <SCORE.INTRA.SOLV>
-0.165036

>  <SCORE.INTRA.SOLV.lig_0>
-34.6387

>  <SCORE.INTRA.VDW>
-0.016641

>  <SCORE.INTRA.VDW.0>
-0.482853

>  <SCORE.INTRA.norm>
0.238639

>  <SCORE.RESTR>
1.02372

>  <SCORE.RESTR.CAVITY>
1.02372

>  <SCORE.RESTR.norm>
0.0930658

>  <SCORE.SYSTEM>
-21.3532

>  <SCORE.SYSTEM.CONST>
0

>  <SCORE.SYSTEM.DIHEDRAL>
7.33054

>  <SCORE.SYSTEM.POLAR>
-3.60125

>  <SCORE.SYSTEM.SOLV>
0.352437

>  <SCORE.SYSTEM.VDW>
-4.7923

>  <SCORE.SYSTEM.norm>
-1.9412

>  <SCORE.heavy>
11

>  <SCORE.norm>
-4.73725

$$$$
P59289755
 OpenBabel12072022103D
libRbt.so/2013.1/901 2013/11/27
 14 14  0  0  0  0  0  0  0  0999 V2000
   21.8518  -14.0940    5.6240 C   0  0  0  0  0  0  0  0  0  0  0  0
   22.0057  -14.3338    4.1830 N   0  0  0  0  0  0  0  0  0  0  0  0
   23.2452  -13.7145    3.6782 C   0  0  0  0  0  0  0  0  0  0  0  0
   24.5306  -14.4108    4.1386 C   0  0  0  0  0  0  0  0  0  0  0  0
   24.5053  -15.9054    3.8341 C   0  0  0  0  0  0  0  0  0  0  0  0
   23.2151  -16.5542    4.3287 C   0  0  0  0  0  0  0  0  0  0  0  0
   21.9902  -15.7826    3.8222 C   0  0  1  0  0  0  0  0  0  0  0  0
   20.6620  -16.4508    4.2282 C   0  0  0  0  0  0  0  0  0  0  0  0
   20.4983  -17.1040    5.2570 O   0  0  0  0  0  0  0  0  0  0  0  0
   19.6680  -16.2930    3.2623 N   0  0  0  0  0  0  0  0  0  0  0  0
   19.5193  -17.2699    2.2519 N   0  0  0  0  0  0  0  0  0  0  0  0
   18.8638  -15.7224    3.5342 H   0  0  0  0  0  0  0  0  0  0  0  0
   18.5306  -17.5554    2.2570 H   0  0  0  0  0  0  0  0  0  0  0  0
   20.0100  -18.1106    2.5699 H   0  0  0  0  0  0  0  0  0  0  0  0
  1  2  1  0  0  0  0
  2  3  1  0  0  0  0
  2  7  1  0  0  0  0
  3  4  1  0  0  0  0
  4  5  1  0  0  0  0
  5  6  1  0  0  0  0
  6  7  1  0  0  0  0
  7  8  1  1  0  0  0
  8  9  2  0  0  0  0
  8 10  1  0  0  0  0
 10 11  1  0  0  0  0
 10 12  1  0  0  0  0
 11 13  1  0  0  0  0
 11 14  1  0  0  0  0
M  END
>  <CHROM.0>
-50.94620746,172.42141334,-59.09777985,60.73060431,-57.78666896,-177.60055780
-58.44826150,-174.82922839,-167.04328013,160.71632647

>  <CHROM.1>
-98.06526013,90.98979558,127.50877969,21.91541483,-15.65432982,4.05562495
0.53424067,0.11498405,0.51499247

>  <Name>
P59289755

>  <RI>
0

>  <Rbt.Current_Directory>
/home/fstefaniak/projects/zuza/docking/adenine/1Y26

>  <Rbt.Executable>
rbdock ($Id: //depot/dev/client3/rdock/2013.1/src/exe/rbdock.cxx#4 $)

>  <Rbt.Library>
libRbt.so (2013.1, Build901 2013/11/27)

>  <Rbt.Parameter_File>
/home/fstefaniak/progs/rDock//data/scripts/dock_solv.prm

>  <Rbt.Receptor>
1y26.prm

>  <SCORE>
-45.079

>  <SCORE.INTER>
-25.3848

>  <SCORE.INTER.CONST>
1

>  <SCORE.INTER.POLAR>
-3.64543

>  <SCORE.INTER.ROT>
3

>  <SCORE.INTER.SOLV>
12.483

>  <SCORE.INTER.VDW>
-14.5327

>  <SCORE.INTER.norm>
-2.30771

>  <SCORE.INTRA>
-0.0781248

>  <SCORE.INTRA.DIHEDRAL>
0.896998

>  <SCORE.INTRA.DIHEDRAL.0>
2.54896

>  <SCORE.INTRA.POLAR>
0.0497922

>  <SCORE.INTRA.POLAR.0>
-0.0497922

>  <SCORE.INTRA.REPUL>
0

>  <SCORE.INTRA.REPUL.0>
0

>  <SCORE.INTRA.SOLV>
-0.449379

>  <SCORE.INTRA.SOLV.lig_0>
-15.5506

>  <SCORE.INTRA.VDW>
-0.471228

>  <SCORE.INTRA.VDW.0>
-0.426824

>  <SCORE.INTRA.norm>
-0.00710225

>  <SCORE.RESTR>
0

>  <SCORE.RESTR.CAVITY>
0

>  <SCORE.RESTR.norm>
0

>  <SCORE.SYSTEM>
-19.6161

>  <SCORE.SYSTEM.CONST>
0

>  <SCORE.SYSTEM.DIHEDRAL>
5.23992

>  <SCORE.SYSTEM.POLAR>
-2.85899

>  <SCORE.SYSTEM.SOLV>
0.200555

>  <SCORE.SYSTEM.VDW>
-5.36094

>  <SCORE.SYSTEM.norm>
-1.78328

>  <SCORE.heavy>
11

>  <SCORE.norm>
-4.09809

$$$$
P59289755
 OpenBabel12072022103D
libRbt.so/2013.1/901 2013/11/27
 14 14  0  0  0  0  0  0  0  0999 V2000
   18.4579  -18.1616    2.5671 C   0  0  0  0  0  0  0  0  0  0  0  0
   19.7351  -18.6023    3.1436 N   0  0  0  0  0  0  0  0  0  0  0  0
   20.8476  -17.7693    2.6507 C   0  0  0  0  0  0  0  0  0  0  0  0
   20.8577  -16.3398    3.2032 C   0  0  0  0  0  0  0  0  0  0  0  0
   20.7973  -16.3212    4.7274 C   0  0  0  0  0  0  0  0  0  0  0  0
   19.6653  -17.2008    5.2520 C   0  0  0  0  0  0  0  0  0  0  0  0
   19.7377  -18.6039    4.6368 C   0  0  1  0  0  0  0  0  0  0  0  0
   18.6625  -19.5527    5.2018 C   0  0  0  0  0  0  0  0  0  0  0  0
   18.8756  -20.7086    5.5628 O   0  0  0  0  0  0  0  0  0  0  0  0
   17.3907  -18.9797    5.1993 N   0  0  0  0  0  0  0  0  0  0  0  0
   16.5703  -19.1038    6.3434 N   0  0  0  0  0  0  0  0  0  0  0  0
   17.2557  -18.1884    4.5655 H   0  0  0  0  0  0  0  0  0  0  0  0
   16.7650  -18.2877    6.9393 H   0  0  0  0  0  0  0  0  0  0  0  0
   16.9329  -19.8891    6.8916 H   0  0  0  0  0  0  0  0  0  0  0  0
  1  2  1  0  0  0  0
  2  3  1  0  0  0  0
  2  7  1  0  0  0  0
  3  4  1  0  0  0  0
  4  5  1  0  0  0  0
  5  6  1  0  0  0  0
  6  7  1  0  0  0  0
  7  8  1  1  0  0  0
  8  9  2  0  0  0  0
  8 10  1  0  0  0  0
 10 11  1  0  0  0  0
 10 12  1  0  0  0  0
 11 13  1  0  0  0  0
 11 14  1  0  0  0  0
M  END
>  <CHROM.0>
-47.67999699,44.01227824,-49.57873034,-52.37487463,-54.87850330,-58.71217401
-57.57903019,-175.10943445,-166.38731284,160.63780570

>  <CHROM.1>
96.57838995,-134.87783322,90.68120186,19.18798418,-18.32438198,4.43203101
0.10111499,-0.86124681,-2.18829210

>  <Name>
P59289755

>  <RI>
0

>  <Rbt.Current_Directory>
/home/fstefaniak/projects/zuza/docking/adenine/1Y26

>  <Rbt.Executable>
rbdock ($Id: //depot/dev/client3/rdock/2013.1/src/exe/rbdock.cxx#4 $)

>  <Rbt.Library>
libRbt.so (2013.1, Build901 2013/11/27)

>  <Rbt.Parameter_File>
/home/fstefaniak/progs/rDock//data/scripts/dock_solv.prm

>  <Rbt.Receptor>
1y26.prm

>  <SCORE>
-43.9729

>  <SCORE.INTER>
-24.4198

>  <SCORE.INTER.CONST>
1

>  <SCORE.INTER.POLAR>
-4.05648

>  <SCORE.INTER.ROT>
3

>  <SCORE.INTER.SOLV>
15.1543

>  <SCORE.INTER.VDW>
-13.4097

>  <SCORE.INTER.norm>
-2.21998

>  <SCORE.INTRA>
2.20589

>  <SCORE.INTRA.DIHEDRAL>
-0.573331

>  <SCORE.INTRA.DIHEDRAL.0>
2.54896

>  <SCORE.INTRA.POLAR>
0.0497922

>  <SCORE.INTRA.POLAR.0>
-0.0497922

>  <SCORE.INTRA.REPUL>
0

>  <SCORE.INTRA.REPUL.0>
0

>  <SCORE.INTRA.SOLV>
0.152242

>  <SCORE.INTRA.SOLV.lig_0>
-15.5506

>  <SCORE.INTRA.VDW>
2.24714

>  <SCORE.INTRA.VDW.0>
-0.426824

>  <SCORE.INTRA.norm>
0.200535

>  <SCORE.RESTR>
0

>  <SCORE.RESTR.CAVITY>
0

>  <SCORE.RESTR.norm>
0

>  <SCORE.SYSTEM>
-21.759

>  <SCORE.SYSTEM.CONST>
0

>  <SCORE.SYSTEM.DIHEDRAL>
7.36166

>  <SCORE.SYSTEM.POLAR>
-3.64138

>  <SCORE.SYSTEM.SOLV>
0.565198

>  <SCORE.SYSTEM.VDW>
-5.01038

>  <SCORE.SYSTEM.norm>
-1.97809

>  <SCORE.heavy>
11

>  <SCORE.norm>
-3.99754

$$$$
P59289755
 OpenBabel12072022103D
libRbt.so/2013.1/901 2013/11/27
 14 14  0  0  0  0  0  0  0  0999 V2000
   18.4713  -18.1130    2.5929 C   0  0  0  0  0  0  0  0  0  0  0  0
   19.7471  -18.5688    3.1606 N   0  0  0  0  0  0  0  0  0  0  0  0
   20.8626  -17.7317    2.6814 C   0  0  0  0  0  0  0  0  0  0  0  0
   20.8787  -16.3121    3.2590 C   0  0  0  0  0  0  0  0  0  0  0  0
   20.8194  -16.3202    4.7833 C   0  0  0  0  0  0  0  0  0  0  0  0
   19.6844  -17.2043    5.2933 C   0  0  0  0  0  0  0  0  0  0  0  0
   19.7509  -18.5967    4.6535 C   0  0  1  0  0  0  0  0  0  0  0  0
   18.6724  -19.5510    5.2026 C   0  0  0  0  0  0  0  0  0  0  0  0
   18.8805  -20.7149    5.5400 O   0  0  0  0  0  0  0  0  0  0  0  0
   17.4035  -18.9718    5.2150 N   0  0  0  0  0  0  0  0  0  0  0  0
   16.6030  -19.0763    6.3750 N   0  0  0  0  0  0  0  0  0  0  0  0
   17.2610  -18.1883    4.5730 H   0  0  0  0  0  0  0  0  0  0  0  0
   16.8412  -18.2745    6.9744 H   0  0  0  0  0  0  0  0  0  0  0  0
   16.9467  -19.8805    6.9079 H   0  0  0  0  0  0  0  0  0  0  0  0
  1  2  1  0  0  0  0
  2  3  1  0  0  0  0
  2  7  1  0  0  0  0
  3  4  1  0  0  0  0
  4  5  1  0  0  0  0
  5  6  1  0  0  0  0
  6  7  1  0  0  0  0
  7  8  1  1  0  0  0
  8  9  2  0  0  0  0
  8 10  1  0  0  0  0
 10 11  1  0  0  0  0
 10 12  1  0  0  0  0
 11 13  1  0  0  0  0
 11 14  1  0  0  0  0
M  END
>  <CHROM.0>
-48.99759290,-62.55437078,-50.16760003,60.96483020,-58.81693728,-57.55871845
-57.41370785,-174.32006752,-166.16465057,161.40974196

>  <CHROM.1>
96.39680674,-132.78602249,88.34442682,19.20422899,-18.30778005,4.45611768
0.09830312,-0.86047802,-2.18202606

>  <Name>
P59289755

>  <RI>
0

>  <Rbt.Current_Directory>
/home/fstefaniak/projects/zuza/docking/adenine/1Y26

>  <Rbt.Executable>
rbdock ($Id: //depot/dev/client3/rdock/2013.1/src/exe/rbdock.cxx#4 $)

>  <Rbt.Library>
libRbt.so (2013.1, Build901 2013/11/27)

>  <Rbt.Parameter_File>
/home/fstefaniak/progs/rDock//data/scripts/dock_solv.prm

>  <Rbt.Receptor>
1y26.prm

>  <SCORE>
-42.508

>  <SCORE.INTER>
-24.9774

>  <SCORE.INTER.CONST>
1

>  <SCORE.INTER.POLAR>
-4.02144

>  <SCORE.INTER.ROT>
3

>  <SCORE.INTER.SOLV>
15.1126

>  <SCORE.INTER.VDW>
-13.8844

>  <SCORE.INTER.norm>
-2.27067

>  <SCORE.INTRA>
2.27403

>  <SCORE.INTRA.DIHEDRAL>
-0.617106

>  <SCORE.INTRA.DIHEDRAL.0>
2.54896

>  <SCORE.INTRA.POLAR>
0.0497922

>  <SCORE.INTRA.POLAR.0>
-0.0497922

>  <SCORE.INTRA.REPUL>
0

>  <SCORE.INTRA.REPUL.0>
0

>  <SCORE.INTRA.SOLV>
0.158081

>  <SCORE.INTRA.SOLV.lig_0>
-15.5506

>  <SCORE.INTRA.VDW>
2.33424

>  <SCORE.INTRA.VDW.0>
-0.426824

>  <SCORE.INTRA.norm>
0.20673

>  <SCORE.RESTR>
0

>  <SCORE.RESTR.CAVITY>
0

>  <SCORE.RESTR.norm>
0

>  <SCORE.SYSTEM>
-19.8047

>  <SCORE.SYSTEM.CONST>
0

>  <SCORE.SYSTEM.DIHEDRAL>
5.65476

>  <SCORE.SYSTEM.POLAR>
-2.93898

>  <SCORE.SYSTEM.SOLV>
0.404255

>  <SCORE.SYSTEM.VDW>
-5.42618

>  <SCORE.SYSTEM.norm>
-1.80042

>  <SCORE.heavy>
11

>  <SCORE.norm>
-3.86437

$$$$
P59419231
 OpenBabel12072022103D
libRbt.so/2013.1/901 2013/11/27
 14 14  0  0  0  0  0  0  0  0999 V2000
   24.6420  -14.6086    3.8191 C   0  0  0  0  0  0  0  0  0  0  0  0
   23.4017  -15.2888    4.3919 C   0  0  1  0  0  0  0  0  0  0  0  0
   22.2096  -14.3549    4.7150 C   0  0  0  0  0  0  0  0  0  0  0  0
   21.0574  -15.2181    4.5624 O   0  0  0  0  0  0  0  0  0  0  0  0
   21.4191  -16.2701    3.7613 C   0  0  0  0  0  0  0  0  0  0  0  0
   20.6447  -17.1362    3.3806 O   0  0  0  0  0  0  0  0  0  0  0  0
   22.7840  -16.2116    3.4801 N   0  0  0  0  0  0  0  0  0  0  0  0
   23.4675  -17.3678    3.0060 N   0  0  0  0  0  0  0  0  0  0  0  0
   22.2081  -13.8249    6.1488 C   0  0  0  0  0  0  0  0  0  0  0  0
   22.0281  -13.1933    3.7283 C   0  0  0  0  0  0  0  0  0  0  0  0
   23.7964  -16.0630    5.5324 O   0  0  0  0  0  0  0  0  0  0  0  0
   23.7497  -17.8999    3.8388 H   0  0  0  0  0  0  0  0  0  0  0  0
   24.3526  -17.0293    2.6128 H   0  0  0  0  0  0  0  0  0  0  0  0
   24.1646  -15.4522    6.1917 H   0  0  0  0  0  0  0  0  0  0  0  0
  2  1  1  6  0  0  0
  2  3  1  0  0  0  0
  2  7  1  0  0  0  0
  2 11  1  0  0  0  0
  3  4  1  0  0  0  0
  3  9  1  0  0  0  0
  3 10  1  0  0  0  0
  4  5  1  0  0  0  0
  5  6  2  0  0  0  0
  5  7  1  0  0  0  0
  7  8  1  0  0  0  0
  8 12  1  0  0  0  0
  8 13  1  0  0  0  0
 11 14  1  0  0  0  0
M  END
>  <CHROM.0>
60.17691024,-175.78153944,-55.44154076,-50.77115168,58.43846754,-60.58788897
-58.67715759,-175.64152222,-167.76409705,160.07234836

>  <CHROM.1>
61.61193443,56.65752750,22.53366732,-15.44011789,4.24336730,-1.40446892,0.04954167
-2.66181394

>  <Name>
P59419231

>  <RI>
0

>  <Rbt.Current_Directory>
/home/fstefaniak/projects/zuza/docking/adenine/1Y26

>  <Rbt.Executable>
rbdock ($Id: //depot/dev/client3/rdock/2013.1/src/exe/rbdock.cxx#4 $)

>  <Rbt.Library>
libRbt.so (2013.1, Build901 2013/11/27)

>  <Rbt.Parameter_File>
/home/fstefaniak/progs/rDock//data/scripts/dock_solv.prm

>  <Rbt.Receptor>
1y26.prm

>  <SCORE>
-32.5783

>  <SCORE.INTER>
-11.2953

>  <SCORE.INTER.CONST>
1

>  <SCORE.INTER.POLAR>
-2.28125

>  <SCORE.INTER.ROT>
1

>  <SCORE.INTER.SOLV>
11.0002

>  <SCORE.INTER.VDW>
-7.85942

>  <SCORE.INTER.norm>
-1.02685

>  <SCORE.INTRA>
-0.933697

>  <SCORE.INTRA.DIHEDRAL>
-1.46894

>  <SCORE.INTRA.DIHEDRAL.0>
1.82137

>  <SCORE.INTRA.POLAR>
0.00100201

>  <SCORE.INTRA.POLAR.0>
-0.00100246

>  <SCORE.INTRA.REPUL>
0

>  <SCORE.INTRA.REPUL.0>
0

>  <SCORE.INTRA.SOLV>
-0.10834

>  <SCORE.INTRA.SOLV.lig_0>
-13.2113

>  <SCORE.INTRA.VDW>
-0.148463

>  <SCORE.INTRA.VDW.0>
0.813101

>  <SCORE.INTRA.norm>
-0.0848816

>  <SCORE.RESTR>
0

>  <SCORE.RESTR.CAVITY>
0

>  <SCORE.RESTR.norm>
0

>  <SCORE.SYSTEM>
-20.3493

>  <SCORE.SYSTEM.CONST>
0

>  <SCORE.SYSTEM.DIHEDRAL>
5.07275

>  <SCORE.SYSTEM.POLAR>
-3.24937

>  <SCORE.SYSTEM.SOLV>
0.171798

>  <SCORE.SYSTEM.VDW>
-4.48315

>  <SCORE.SYSTEM.norm>
-1.84994

>  <SCORE.heavy>
11

>  <SCORE.norm>
-2.96167

$$$$
P59419231
 OpenBabel12072022103D
libRbt.so/2013.1/901 2013/11/27
 14 14  0  0  0  0  0  0  0  0999 V2000
   24.7765  -12.9424    3.0598 C   0  0  0  0  0  0  0  0  0  0  0  0
   23.9862  -13.7536    4.0828 C   0  0  1  0  0  0  0  0  0  0  0  0
   22.6646  -13.1138    4.5743 C   0  0  0  0  0  0  0  0  0  0  0  0
   21.8481  -14.2577    4.9219 O   0  0  0  0  0  0  0  0  0  0  0  0
   22.3353  -15.3469    4.2472 C   0  0  0  0  0  0  0  0  0  0  0  0
   21.8149  -16.4531    4.2696 O   0  0  0  0  0  0  0  0  0  0  0  0
   23.5065  -15.0072    3.5701 N   0  0  0  0  0  0  0  0  0  0  0  0
   24.3977  -16.0256    3.1258 N   0  0  0  0  0  0  0  0  0  0  0  0
   22.8208  -12.2543    5.8287 C   0  0  0  0  0  0  0  0  0  0  0  0
   21.8990  -12.3326    3.4975 C   0  0  0  0  0  0  0  0  0  0  0  0
   24.8585  -14.0791    5.1733 O   0  0  0  0  0  0  0  0  0  0  0  0
   24.5122  -16.6752    3.9140 H   0  0  0  0  0  0  0  0  0  0  0  0
   25.3155  -15.5760    3.0360 H   0  0  0  0  0  0  0  0  0  0  0  0
   24.3681  -14.6546    5.7829 H   0  0  0  0  0  0  0  0  0  0  0  0
  2  1  1  6  0  0  0
  2  3  1  0  0  0  0
  2  7  1  0  0  0  0
  2 11  1  0  0  0  0
  3  4  1  0  0  0  0
  3  9  1  0  0  0  0
  3 10  1  0  0  0  0
  4  5  1  0  0  0  0
  5  6  2  0  0  0  0
  5  7  1  0  0  0  0
  7  8  1  0  0  0  0
  8 12  1  0  0  0  0
  8 13  1  0  0  0  0
 11 14  1  0  0  0  0
M  END
>  <CHROM.0>
-49.20202235,-58.96267462,-54.97204899,61.73819282,-56.25014330,-175.72220615
-59.17619413,-175.09389170,-166.41255330,-60.07362833

>  <CHROM.1>
-175.49899762,96.47986602,23.19698942,-14.17119884,4.23083905,-1.61187666
-0.31335668,-2.93009124

>  <Name>
P59419231

>  <RI>
0

>  <Rbt.Current_Directory>
/home/fstefaniak/projects/zuza/docking/adenine/1Y26

>  <Rbt.Executable>
rbdock ($Id: //depot/dev/client3/rdock/2013.1/src/exe/rbdock.cxx#4 $)

>  <Rbt.Library>
libRbt.so (2013.1, Build901 2013/11/27)

>  <Rbt.Parameter_File>
/home/fstefaniak/progs/rDock//data/scripts/dock_solv.prm

>  <Rbt.Receptor>
1y26.prm

>  <SCORE>
-31.9336

>  <SCORE.INTER>
-14.8121

>  <SCORE.INTER.CONST>
1

>  <SCORE.INTER.POLAR>
-2.35968

>  <SCORE.INTER.ROT>
1

>  <SCORE.INTER.SOLV>
8.2656

>  <SCORE.INTER.VDW>
-9.03101

>  <SCORE.INTER.norm>
-1.34655

>  <SCORE.INTRA>
-1.31235

>  <SCORE.INTRA.DIHEDRAL>
-0.887785

>  <SCORE.INTRA.DIHEDRAL.0>
1.82137

>  <SCORE.INTRA.POLAR>
0.00100246

>  <SCORE.INTRA.POLAR.0>
-0.00100246

>  <SCORE.INTRA.REPUL>
0

>  <SCORE.INTRA.REPUL.0>
0

>  <SCORE.INTRA.SOLV>
0.136674

>  <SCORE.INTRA.SOLV.lig_0>
-13.2113

>  <SCORE.INTRA.VDW>
-0.940203

>  <SCORE.INTRA.VDW.0>
0.813101

>  <SCORE.INTRA.norm>
-0.119305

>  <SCORE.RESTR>
1.02186

>  <SCORE.RESTR.CAVITY>
1.02186

>  <SCORE.RESTR.norm>
0.0928965

>  <SCORE.SYSTEM>
-16.831

>  <SCORE.SYSTEM.CONST>
0

>  <SCORE.SYSTEM.DIHEDRAL>
3.88386

>  <SCORE.SYSTEM.POLAR>
-2.0619

>  <SCORE.SYSTEM.SOLV>
0.323058

>  <SCORE.SYSTEM.VDW>
-5.75

>  <SCORE.SYSTEM.norm>
-1.53009

>  <SCORE.heavy>
11

>  <SCORE.norm>
-2.90306

$$$$
P59419231
 OpenBabel12072022103D
libRbt.so/2013.1/901 2013/11/27
 14 14  0  0  0  0  0  0  0  0999 V2000
   25.0695  -13.4373    4.4791 C   0  0  0  0  0  0  0  0  0  0  0  0
   23.6041  -13.8197    4.6675 C   0  0  1  0  0  0  0  0  0  0  0  0
   22.5902  -13.0632    3.7746 C   0  0  0  0  0  0  0  0  0  0  0  0
   21.5018  -14.0069    3.6307 O   0  0  0  0  0  0  0  0  0  0  0  0
   21.9926  -15.2617    3.8833 C   0  0  0  0  0  0  0  0  0  0  0  0
   21.3368  -16.2873    3.7689 O   0  0  0  0  0  0  0  0  0  0  0  0
   23.3186  -15.1814    4.3085 N   0  0  0  0  0  0  0  0  0  0  0  0
   23.9195  -16.2781    4.9904 N   0  0  0  0  0  0  0  0  0  0  0  0
   22.0259  -11.7950    4.4147 C   0  0  0  0  0  0  0  0  0  0  0  0
   23.0987  -12.7529    2.3599 C   0  0  0  0  0  0  0  0  0  0  0  0
   23.2809  -13.7007    6.0594 O   0  0  0  0  0  0  0  0  0  0  0  0
   24.4047  -15.8823    5.8054 H   0  0  0  0  0  0  0  0  0  0  0  0
   24.6777  -16.6057    4.3818 H   0  0  0  0  0  0  0  0  0  0  0  0
   22.3478  -13.9470    6.1686 H   0  0  0  0  0  0  0  0  0  0  0  0
  2  1  1  6  0  0  0
  2  3  1  0  0  0  0
  2  7  1  0  0  0  0
  2 11  1  0  0  0  0
  3  4  1  0  0  0  0
  3  9  1  0  0  0  0
  3 10  1  0  0  0  0
  4  5  1  0  0  0  0
  5  6  2  0  0  0  0
  5  7  1  0  0  0  0
  7  8  1  0  0  0  0
  8 12  1  0  0  0  0
  8 13  1  0  0  0  0
 11 14  1  0  0  0  0
M  END
>  <CHROM.0>
-47.51175187,66.90472759,-56.40475781,-53.41665201,-58.48165188,-61.07019699
-61.36298043,-49.58585579,-167.90111567,160.52563204

>  <CHROM.1>
-179.92939202,9.13472869,22.88694089,-14.16367688,4.24108944,-1.48786614
0.54707379,2.96517028

>  <Name>
P59419231

>  <RI>
0

>  <Rbt.Current_Directory>
/home/fstefaniak/projects/zuza/docking/adenine/1Y26

>  <Rbt.Executable>
rbdock ($Id: //depot/dev/client3/rdock/2013.1/src/exe/rbdock.cxx#4 $)

>  <Rbt.Library>
libRbt.so (2013.1, Build901 2013/11/27)

>  <Rbt.Parameter_File>
/home/fstefaniak/progs/rDock//data/scripts/dock_solv.prm

>  <Rbt.Receptor>
1y26.prm

>  <SCORE>
-29.4658

>  <SCORE.INTER>
-7.11043

>  <SCORE.INTER.CONST>
1

>  <SCORE.INTER.POLAR>
-1.90386

>  <SCORE.INTER.ROT>
1

>  <SCORE.INTER.SOLV>
9.34191

>  <SCORE.INTER.VDW>
-5.77472

>  <SCORE.INTER.norm>
-0.646403

>  <SCORE.INTRA>
-1.27944

>  <SCORE.INTRA.DIHEDRAL>
-0.252745

>  <SCORE.INTRA.DIHEDRAL.0>
1.82137

>  <SCORE.INTRA.POLAR>
0.000722396

>  <SCORE.INTRA.POLAR.0>
-0.00100246

>  <SCORE.INTRA.REPUL>
0

>  <SCORE.INTRA.REPUL.0>
0

>  <SCORE.INTRA.SOLV>
-0.0370913

>  <SCORE.INTRA.SOLV.lig_0>
-13.2113

>  <SCORE.INTRA.VDW>
-1.13697

>  <SCORE.INTRA.VDW.0>
0.813101

>  <SCORE.INTRA.norm>
-0.116312

>  <SCORE.RESTR>
0.423496

>  <SCORE.RESTR.CAVITY>
0.423496

>  <SCORE.RESTR.norm>
0.0384997

>  <SCORE.SYSTEM>
-21.4994

>  <SCORE.SYSTEM.CONST>
0

>  <SCORE.SYSTEM.DIHEDRAL>
6.05062

>  <SCORE.SYSTEM.POLAR>
-3.49401

>  <SCORE.SYSTEM.SOLV>
0.667185

>  <SCORE.SYSTEM.VDW>
-4.92554

>  <SCORE.SYSTEM.norm>
-1.95449

>  <SCORE.heavy>
11

>  <SCORE.norm>
-2.67871

$$$$
P59419233
 OpenBabel12072022103D
libRbt.so/2013.1/901 2013/11/27
 14 14  0  0  0  0  0  0  0  0999 V2000
   24.7958  -16.2210    5.0320 C   0  0  0  0  0  0  0  0  0  0  0  0
   23.8608  -15.6892    3.9429 C   0  0  2  0  0  0  0  0  0  0  0  0
   22.8662  -14.6003    4.4053 C   0  0  0  0  0  0  0  0  0  0  0  0
   21.7108  -15.3700    4.8344 O   0  0  0  0  0  0  0  0  0  0  0  0
   21.7330  -16.5684    4.1691 C   0  0  0  0  0  0  0  0  0  0  0  0
   20.8197  -17.3784    4.1717 O   0  0  0  0  0  0  0  0  0  0  0  0
   22.9474  -16.7072    3.5159 N   0  0  0  0  0  0  0  0  0  0  0  0
   23.3242  -17.8456    2.7718 N   0  0  0  0  0  0  0  0  0  0  0  0
   23.3309  -13.7495    5.5867 C   0  0  0  0  0  0  0  0  0  0  0  0
   22.4113  -13.6760    3.2642 C   0  0  0  0  0  0  0  0  0  0  0  0
   24.6382  -15.3302    2.8181 O   0  0  0  0  0  0  0  0  0  0  0  0
   23.2734  -18.6456    3.4156 H   0  0  0  0  0  0  0  0  0  0  0  0
   24.3310  -17.7644    2.5878 H   0  0  0  0  0  0  0  0  0  0  0  0
   25.1076  -16.1682    2.6281 H   0  0  0  0  0  0  0  0  0  0  0  0
  2  3  1  0  0  0  0
  2  7  1  0  0  0  0
  2 11  1  0  0  0  0
  2  1  1  1  0  0  0
  3  4  1  0  0  0  0
  3  9  1  0  0  0  0
  3 10  1  0  0  0  0
  4  5  1  0  0  0  0
  5  6  2  0  0  0  0
  5  7  1  0  0  0  0
  7  8  1  0  0  0  0
  8 12  1  0  0  0  0
  8 13  1  0  0  0  0
 11 14  1  0  0  0  0
M  END
>  <CHROM.0>
-50.83611786,63.51487598,-55.37809677,-52.89375532,-176.10063123,-172.50396072
-58.22708650,-53.36921628,-166.40062305,161.42242352

>  <CHROM.1>
56.24180902,107.47371524,22.96805928,-15.76561586,4.02703187,-1.21549082
-0.25791631,-2.77952302

>  <Name>
P59419233

>  <RI>
0

>  <Rbt.Current_Directory>
/home/fstefaniak/projects/zuza/docking/adenine/1Y26

>  <Rbt.Executable>
rbdock ($Id: //depot/dev/client3/rdock/2013.1/src/exe/rbdock.cxx#4 $)

>  <Rbt.Library>
libRbt.so (2013.1, Build901 2013/11/27)

>  <Rbt.Parameter_File>
/home/fstefaniak/progs/rDock//data/scripts/dock_solv.prm

>  <Rbt.Receptor>
1y26.prm

>  <SCORE>
-33.3496

>  <SCORE.INTER>
-12.8547

>  <SCORE.INTER.CONST>
1

>  <SCORE.INTER.POLAR>
-3.26832

>  <SCORE.INTER.ROT>
1

>  <SCORE.INTER.SOLV>
9.88608

>  <SCORE.INTER.VDW>
-5.23743

>  <SCORE.INTER.norm>
-1.16861

>  <SCORE.INTRA>
0.781748

>  <SCORE.INTRA.DIHEDRAL>
-4.77294

>  <SCORE.INTRA.DIHEDRAL.0>
5.68199

>  <SCORE.INTRA.POLAR>
0.473783

>  <SCORE.INTRA.POLAR.0>
-0.473783

>  <SCORE.INTRA.REPUL>
0

>  <SCORE.INTRA.REPUL.0>
0

>  <SCORE.INTRA.SOLV>
-0.00663238

>  <SCORE.INTRA.SOLV.lig_0>
-11.6346

>  <SCORE.INTRA.VDW>
1.56068

>  <SCORE.INTRA.VDW.0>
0.279213

>  <SCORE.INTRA.norm>
0.071068

>  <SCORE.RESTR>
0

>  <SCORE.RESTR.CAVITY>
0

>  <SCORE.RESTR.norm>
0

>  <SCORE.SYSTEM>
-21.2767

>  <SCORE.SYSTEM.CONST>
0

>  <SCORE.SYSTEM.DIHEDRAL>
5.68247

>  <SCORE.SYSTEM.POLAR>
-3.43534

>  <SCORE.SYSTEM.SOLV>
0.383256

>  <SCORE.SYSTEM.VDW>
-4.75523

>  <SCORE.SYSTEM.norm>
-1.93424

>  <SCORE.heavy>
11

>  <SCORE.norm>
-3.03178

$$$$
P59419233
 OpenBabel12072022103D
libRbt.so/2013.1/901 2013/11/27
 14 14  0  0  0  0  0  0  0  0999 V2000
   24.8029  -15.2643    5.0439 C   0  0  0  0  0  0  0  0  0  0  0  0
   23.8842  -14.8960    3.8761 C   0  0  2  0  0  0  0  0  0  0  0  0
   23.0910  -13.5815    4.0537 C   0  0  0  0  0  0  0  0  0  0  0  0
   21.8675  -14.0201    4.7035 O   0  0  0  0  0  0  0  0  0  0  0  0
   21.6714  -15.3389    4.3848 C   0  0  0  0  0  0  0  0  0  0  0  0
   20.6526  -15.9657    4.6287 O   0  0  0  0  0  0  0  0  0  0  0  0
   22.8066  -15.8334    3.7623 N   0  0  0  0  0  0  0  0  0  0  0  0
   22.9640  -17.1716    3.3427 N   0  0  0  0  0  0  0  0  0  0  0  0
   23.7518  -12.5352    4.9502 C   0  0  0  0  0  0  0  0  0  0  0  0
   22.6998  -12.9288    2.7179 C   0  0  0  0  0  0  0  0  0  0  0  0
   24.6287  -14.9713    2.6767 O   0  0  0  0  0  0  0  0  0  0  0  0
   22.9507  -17.7484    4.1937 H   0  0  0  0  0  0  0  0  0  0  0  0
   23.9317  -17.2716    3.0144 H   0  0  0  0  0  0  0  0  0  0  0  0
   25.4074  -14.4189    2.8938 H   0  0  0  0  0  0  0  0  0  0  0  0
  2  3  1  0  0  0  0
  2  7  1  0  0  0  0
  2 11  1  0  0  0  0
  2  1  1  1  0  0  0
  3  4  1  0  0  0  0
  3  9  1  0  0  0  0
  3 10  1  0  0  0  0
  4  5  1  0  0  0  0
  5  6  2  0  0  0  0
  5  7  1  0  0  0  0
  7  8  1  0  0  0  0
  8 12  1  0  0  0  0
  8 13  1  0  0  0  0
 11 14  1  0  0  0  0
M  END
>  <CHROM.0>
-177.01097817,-177.34310598,-54.03353855,-52.91254034,-56.31093298,-57.53541112
-62.15298352,-48.89183137,-166.71245251,162.04240426

>  <CHROM.1>
-51.77966907,101.01287047,23.00084718,-14.79672252,4.00108870,-1.01291478
-0.26508350,-3.01075558

>  <Name>
P59419233

>  <RI>
0

>  <Rbt.Current_Directory>
/home/fstefaniak/projects/zuza/docking/adenine/1Y26

>  <Rbt.Executable>
rbdock ($Id: //depot/dev/client3/rdock/2013.1/src/exe/rbdock.cxx#4 $)

>  <Rbt.Library>
libRbt.so (2013.1, Build901 2013/11/27)

>  <Rbt.Parameter_File>
/home/fstefaniak/progs/rDock//data/scripts/dock_solv.prm

>  <Rbt.Receptor>
1y26.prm

>  <SCORE>
-33.2983

>  <SCORE.INTER>
-12.0729

>  <SCORE.INTER.CONST>
1

>  <SCORE.INTER.POLAR>
-2.3244

>  <SCORE.INTER.ROT>
1

>  <SCORE.INTER.SOLV>
9.16697

>  <SCORE.INTER.VDW>
-7.6229

>  <SCORE.INTER.norm>
-1.09753

>  <SCORE.INTRA>
0.0161514

>  <SCORE.INTRA.DIHEDRAL>
-4.2353

>  <SCORE.INTRA.DIHEDRAL.0>
5.68199

>  <SCORE.INTRA.POLAR>
0.466219

>  <SCORE.INTRA.POLAR.0>
-0.473783

>  <SCORE.INTRA.REPUL>
0

>  <SCORE.INTRA.REPUL.0>
0

>  <SCORE.INTRA.SOLV>
-0.18359

>  <SCORE.INTRA.SOLV.lig_0>
-11.6346

>  <SCORE.INTRA.VDW>
0.640451

>  <SCORE.INTRA.VDW.0>
0.279213

>  <SCORE.INTRA.norm>
0.00146831

>  <SCORE.RESTR>
0.0127369

>  <SCORE.RESTR.CAVITY>
0.0127369

>  <SCORE.RESTR.norm>
0.0011579

>  <SCORE.SYSTEM>
-21.2543

>  <SCORE.SYSTEM.CONST>
0

>  <SCORE.SYSTEM.DIHEDRAL>
5.36791

>  <SCORE.SYSTEM.POLAR>
-3.23592

>  <SCORE.SYSTEM.SOLV>
0.558811

>  <SCORE.SYSTEM.VDW>
-5.35871

>  <SCORE.SYSTEM.norm>
-1.93221

>  <SCORE.heavy>
11

>  <SCORE.norm>
-3.02712

$$$$
P59419233
 OpenBabel12072022103D
libRbt.so/2013.1/901 2013/11/27
 14 14  0  0  0  0  0  0  0  0999 V2000
   20.4777  -18.1482    2.1763 C   0  0  0  0  0  0  0  0  0  0  0  0
   19.9763  -17.2596    3.3174 C   0  0  2  0  0  0  0  0  0  0  0  0
   21.0597  -16.8079    4.3228 C   0  0  0  0  0  0  0  0  0  0  0  0
   21.0465  -17.8656    5.3190 O   0  0  0  0  0  0  0  0  0  0  0  0
   19.8086  -18.4540    5.2915 C   0  0  0  0  0  0  0  0  0  0  0  0
   19.4083  -19.2627    6.1137 O   0  0  0  0  0  0  0  0  0  0  0  0
   19.1071  -17.9936    4.1884 N   0  0  0  0  0  0  0  0  0  0  0  0
   17.8135  -18.4297    3.8304 N   0  0  0  0  0  0  0  0  0  0  0  0
   22.4762  -16.7104    3.7576 C   0  0  0  0  0  0  0  0  0  0  0  0
   20.7082  -15.4924    5.0366 C   0  0  0  0  0  0  0  0  0  0  0  0
   19.2158  -16.2037    2.7649 O   0  0  0  0  0  0  0  0  0  0  0  0
   17.2075  -17.5996    3.8565 H   0  0  0  0  0  0  0  0  0  0  0  0
   17.4603  -18.9949    4.6113 H   0  0  0  0  0  0  0  0  0  0  0  0
   18.7887  -15.8307    3.5630 H   0  0  0  0  0  0  0  0  0  0  0  0
  2  3  1  0  0  0  0
  2  7  1  0  0  0  0
  2 11  1  0  0  0  0
  2  1  1  6  0  0  0
  3  4  1  0  0  0  0
  3  9  1  0  0  0  0
  3 10  1  0  0  0  0
  4  5  1  0  0  0  0
  5  6  2  0  0  0  0
  5  7  1  0  0  0  0
  7  8  1  0  0  0  0
  8 12  1  0  0  0  0
  8 13  1  0  0  0  0
 11 14  1  0  0  0  0
M  END
>  <CHROM.0>
-50.70766068,173.72209233,-49.73873923,-52.21850609,-175.43254410,-60.37803484
-53.39580047,-53.09457375,-167.46391661,160.13436222

>  <CHROM.1>
167.85738457,-75.43040785,20.06371044,-17.50700336,4.19458604,0.63667558
-0.50884416,-1.03923886

>  <Name>
P59419233

>  <RI>
0

>  <Rbt.Current_Directory>
/home/fstefaniak/projects/zuza/docking/adenine/1Y26

>  <Rbt.Executable>
rbdock ($Id: //depot/dev/client3/rdock/2013.1/src/exe/rbdock.cxx#4 $)

>  <Rbt.Library>
libRbt.so (2013.1, Build901 2013/11/27)

>  <Rbt.Parameter_File>
/home/fstefaniak/progs/rDock//data/scripts/dock_solv.prm

>  <Rbt.Receptor>
1y26.prm

>  <SCORE>
-31.4513

>  <SCORE.INTER>
-9.37407

>  <SCORE.INTER.CONST>
1

>  <SCORE.INTER.POLAR>
-4.33317

>  <SCORE.INTER.ROT>
1

>  <SCORE.INTER.SOLV>
12.2009

>  <SCORE.INTER.VDW>
-0.139143

>  <SCORE.INTER.norm>
-0.852189

>  <SCORE.INTRA>
-0.0789707

>  <SCORE.INTRA.DIHEDRAL>
-4.37679

>  <SCORE.INTRA.DIHEDRAL.0>
5.68199

>  <SCORE.INTRA.POLAR>
0.473783

>  <SCORE.INTRA.POLAR.0>
-0.473783

>  <SCORE.INTRA.REPUL>
0

>  <SCORE.INTRA.REPUL.0>
0

>  <SCORE.INTRA.SOLV>
-0.0466463

>  <SCORE.INTRA.SOLV.lig_0>
-11.6346

>  <SCORE.INTRA.VDW>
0.521884

>  <SCORE.INTRA.VDW.0>
0.279213

>  <SCORE.INTRA.norm>
-0.00717915

>  <SCORE.RESTR>
0

>  <SCORE.RESTR.CAVITY>
0

>  <SCORE.RESTR.norm>
0

>  <SCORE.SYSTEM>
-21.9983

>  <SCORE.SYSTEM.CONST>
0

>  <SCORE.SYSTEM.DIHEDRAL>
6.29935

>  <SCORE.SYSTEM.POLAR>
-3.5348

>  <SCORE.SYSTEM.SOLV>
0.472472

>  <SCORE.SYSTEM.VDW>
-5.14013

>  <SCORE.SYSTEM.norm>
-1.99984

>  <SCORE.heavy>
11

>  <SCORE.norm>
-2.85921

$$$$
P60589159
 OpenBabel12072022103D
libRbt.so/2013.1/901 2013/11/27
 12 11  0  0  0  0  0  0  0  0999 V2000
   19.2244  -18.7889    7.0648 C   0  0  0  0  0  0  0  0  0  0  0  0
   18.7644  -19.2032    5.3946 S   0  0  0  0  0  0  0  0  0  0  0  0
   19.0609  -20.5987    5.1218 O   0  0  0  0  0  0  0  0  0  0  0  0
   17.3930  -18.7510    5.1968 O   0  0  0  0  0  0  0  0  0  0  0  0
   19.7272  -18.2200    4.2636 C   0  0  1  0  0  0  0  0  0  0  0  0
   18.9490  -17.9863    2.9747 C   0  0  0  0  0  0  0  0  0  0  0  0
   18.2589  -18.9267    2.5300 O   0  0  0  0  0  0  0  0  0  0  0  0
   19.2636  -16.8549    2.4770 O   0  5  0  0  0  0  0  0  0  0  0  0
   20.1778  -16.8504    4.8377 N   0  3  0  0  0  0  0  0  0  0  0  0
   19.4292  -16.1633    4.6954 H   0  0  0  0  0  0  0  0  0  0  0  0
   20.5142  -16.8919    5.7966 H   0  0  0  0  0  0  0  0  0  0  0  0
   20.9384  -16.5904    4.1644 H   0  0  0  0  0  0  0  0  0  0  0  0
  1  2  1  0  0  0  0
  2  3  2  0  0  0  0
  2  4  2  0  0  0  0
  2  5  1  0  0  0  0
  5  6  1  6  0  0  0
  5  9  1  0  0  0  0
  6  7  2  0  0  0  0
  6  8  1  0  0  0  0
  9 10  1  0  0  0  0
  9 11  1  0  0  0  0
  9 12  1  0  0  0  0
M  CHG  2   8  -1   9   1
M  END
>  <CHROM.0>
-48.06732870,-60.38096997,-54.45820361,-51.59644775,-55.89827330,-56.59866208
-54.01453732,-50.07751040,-167.41326504,159.49833904

>  <CHROM.1>
-151.10507357,-38.35208870,-85.28804213,18.95238993,-18.54025407,4.55842292
-1.74400418,-1.00280464,-1.17037999

>  <Name>
P60589159

>  <RI>
0

>  <Rbt.Current_Directory>
/home/fstefaniak/projects/zuza/docking/adenine/1Y26

>  <Rbt.Executable>
rbdock ($Id: //depot/dev/client3/rdock/2013.1/src/exe/rbdock.cxx#4 $)

>  <Rbt.Library>
libRbt.so (2013.1, Build901 2013/11/27)

>  <Rbt.Parameter_File>
/home/fstefaniak/progs/rDock//data/scripts/dock_solv.prm

>  <Rbt.Receptor>
1y26.prm

>  <SCORE>
-52.5849

>  <SCORE.INTER>
-29.2468

>  <SCORE.INTER.CONST>
1

>  <SCORE.INTER.POLAR>
-4.48275

>  <SCORE.INTER.ROT>
2

>  <SCORE.INTER.SOLV>
24.6615

>  <SCORE.INTER.VDW>
-17.7092

>  <SCORE.INTER.norm>
-3.24964

>  <SCORE.INTRA>
-1.29197

>  <SCORE.INTRA.DIHEDRAL>
-0.637948

>  <SCORE.INTRA.DIHEDRAL.0>
4.09112

>  <SCORE.INTRA.POLAR>
0

>  <SCORE.INTRA.POLAR.0>
0

>  <SCORE.INTRA.REPUL>
0

>  <SCORE.INTRA.REPUL.0>
0

>  <SCORE.INTRA.SOLV>
0.0841511

>  <SCORE.INTRA.SOLV.lig_0>
-50.6397

>  <SCORE.INTRA.VDW>
-1.01507

>  <SCORE.INTRA.VDW.0>
0.539372

>  <SCORE.INTRA.norm>
-0.143552

>  <SCORE.RESTR>
0

>  <SCORE.RESTR.CAVITY>
0

>  <SCORE.RESTR.norm>
0

>  <SCORE.SYSTEM>
-22.0462

>  <SCORE.SYSTEM.CONST>
0

>  <SCORE.SYSTEM.DIHEDRAL>
6.40139

>  <SCORE.SYSTEM.POLAR>
-3.57547

>  <SCORE.SYSTEM.SOLV>
0.688342

>  <SCORE.SYSTEM.VDW>
-5.14249

>  <SCORE.SYSTEM.norm>
-2.44958

>  <SCORE.heavy>
9

>  <SCORE.norm>
-5.84277

$$$$
P60589159
 OpenBabel12072022103D
libRbt.so/2013.1/901 2013/11/27
 12 11  0  0  0  0  0  0  0  0999 V2000
   19.1798  -18.7881    6.9992 C   0  0  0  0  0  0  0  0  0  0  0  0
   18.7792  -19.1714    5.3064 S   0  0  0  0  0  0  0  0  0  0  0  0
   19.0266  -20.5769    5.0361 O   0  0  0  0  0  0  0  0  0  0  0  0
   17.4394  -18.6580    5.0501 O   0  0  0  0  0  0  0  0  0  0  0  0
   19.8349  -18.2247    4.2285 C   0  0  1  0  0  0  0  0  0  0  0  0
   19.2064  -18.1075    2.8456 C   0  0  0  0  0  0  0  0  0  0  0  0
   18.3839  -18.9813    2.5014 O   0  0  0  0  0  0  0  0  0  0  0  0
   19.7626  -17.1620    2.1949 O   0  5  0  0  0  0  0  0  0  0  0  0
   20.1686  -16.8033    4.7545 N   0  3  0  0  0  0  0  0  0  0  0  0
   19.3706  -16.1831    4.5774 H   0  0  0  0  0  0  0  0  0  0  0  0
   20.4936  -16.7821    5.7180 H   0  0  0  0  0  0  0  0  0  0  0  0
   20.9160  -16.5096    4.0802 H   0  0  0  0  0  0  0  0  0  0  0  0
  1  2  1  0  0  0  0
  2  3  2  0  0  0  0
  2  4  2  0  0  0  0
  2  5  1  0  0  0  0
  5  6  1  6  0  0  0
  5  9  1  0  0  0  0
  6  7  2  0  0  0  0
  6  8  1  0  0  0  0
  9 10  1  0  0  0  0
  9 11  1  0  0  0  0
  9 12  1  0  0  0  0
M  CHG  2   8  -1   9   1
M  END
>  <CHROM.0>
-48.38420706,-58.27574577,-50.29536917,-51.68851623,-174.96981381,-64.15230233
-57.48928127,-50.78243760,-166.65709744,162.25040711

>  <CHROM.1>
-158.62611144,-23.99467857,-78.66246251,19.04539804,-18.56380482,4.45424140
-1.92626150,-0.99739528,-1.38805917

>  <Name>
P60589159

>  <RI>
0

>  <Rbt.Current_Directory>
/home/fstefaniak/projects/zuza/docking/adenine/1Y26

>  <Rbt.Executable>
rbdock ($Id: //depot/dev/client3/rdock/2013.1/src/exe/rbdock.cxx#4 $)

>  <Rbt.Library>
libRbt.so (2013.1, Build901 2013/11/27)

>  <Rbt.Parameter_File>
/home/fstefaniak/progs/rDock//data/scripts/dock_solv.prm

>  <Rbt.Receptor>
1y26.prm

>  <SCORE>
-52.5504

>  <SCORE.INTER>
-28.2744

>  <SCORE.INTER.CONST>
1

>  <SCORE.INTER.POLAR>
-4.4197

>  <SCORE.INTER.ROT>
2

>  <SCORE.INTER.SOLV>
24.1839

>  <SCORE.INTER.VDW>
-17.1119

>  <SCORE.INTER.norm>
-3.1416

>  <SCORE.INTRA>
-2.22619

>  <SCORE.INTRA.DIHEDRAL>
-1.70878

>  <SCORE.INTRA.DIHEDRAL.0>
4.09112

>  <SCORE.INTRA.POLAR>
0

>  <SCORE.INTRA.POLAR.0>
0

>  <SCORE.INTRA.REPUL>
0

>  <SCORE.INTRA.REPUL.0>
0

>  <SCORE.INTRA.SOLV>
0.034311

>  <SCORE.INTRA.SOLV.lig_0>
-50.6397

>  <SCORE.INTRA.VDW>
-1.38896

>  <SCORE.INTRA.VDW.0>
0.539372

>  <SCORE.INTRA.norm>
-0.247355

>  <SCORE.RESTR>
0

>  <SCORE.RESTR.CAVITY>
0

>  <SCORE.RESTR.norm>
0

>  <SCORE.SYSTEM>
-22.0498

>  <SCORE.SYSTEM.CONST>
0

>  <SCORE.SYSTEM.DIHEDRAL>
6.21379

>  <SCORE.SYSTEM.POLAR>
-3.51853

>  <SCORE.SYSTEM.SOLV>
0.509058

>  <SCORE.SYSTEM.VDW>
-5.21241

>  <SCORE.SYSTEM.norm>
-2.44998

>  <SCORE.heavy>
9

>  <SCORE.norm>
-5.83894

$$$$
P60589159
 OpenBabel12072022103D
libRbt.so/2013.1/901 2013/11/27
 12 11  0  0  0  0  0  0  0  0999 V2000
   19.1910  -18.8107    7.0058 C   0  0  0  0  0  0  0  0  0  0  0  0
   18.7647  -19.2061    5.3221 S   0  0  0  0  0  0  0  0  0  0  0  0
   19.0240  -20.6097    5.0531 O   0  0  0  0  0  0  0  0  0  0  0  0
   17.4145  -18.7097    5.0877 O   0  0  0  0  0  0  0  0  0  0  0  0
   19.7896  -18.2516    4.2215 C   0  0  1  0  0  0  0  0  0  0  0  0
   19.1011  -18.0849    2.8725 C   0  0  0  0  0  0  0  0  0  0  0  0
   18.2080  -18.9020    2.5673 O   0  0  0  0  0  0  0  0  0  0  0  0
   19.6835  -17.1725    2.1979 O   0  5  0  0  0  0  0  0  0  0  0  0
   20.1764  -16.8516    4.7682 N   0  3  0  0  0  0  0  0  0  0  0  0
   19.3924  -16.2057    4.6238 H   0  0  0  0  0  0  0  0  0  0  0  0
   20.5251  -16.8600    5.7235 H   0  0  0  0  0  0  0  0  0  0  0  0
   20.9153  -16.5647    4.0818 H   0  0  0  0  0  0  0  0  0  0  0  0
  1  2  1  0  0  0  0
  2  3  2  0  0  0  0
  2  4  2  0  0  0  0
  2  5  1  0  0  0  0
  5  6  1  6  0  0  0
  5  9  1  0  0  0  0
  6  7  2  0  0  0  0
  6  8  1  0  0  0  0
  9 10  1  0  0  0  0
  9 11  1  0  0  0  0
  9 12  1  0  0  0  0
M  CHG  2   8  -1   9   1
M  END
>  <CHROM.0>
-46.91204416,-60.61031892,-54.46242566,-47.89177110,-53.72009540,-58.52411887
-53.04270148,-54.37077253,-166.90222680,160.04005683

>  <CHROM.1>
-155.61926323,-21.18843259,-80.01077602,19.00288251,-18.58086889,4.47419069
-1.85688775,-0.95432656,-1.30647066

>  <Name>
P60589159

>  <RI>
0

>  <Rbt.Current_Directory>
/home/fstefaniak/projects/zuza/docking/adenine/1Y26

>  <Rbt.Executable>
rbdock ($Id: //depot/dev/client3/rdock/2013.1/src/exe/rbdock.cxx#4 $)

>  <Rbt.Library>
libRbt.so (2013.1, Build901 2013/11/27)

>  <Rbt.Parameter_File>
/home/fstefaniak/progs/rDock//data/scripts/dock_solv.prm

>  <Rbt.Receptor>
1y26.prm

>  <SCORE>
-52.2985

>  <SCORE.INTER>
-28.4474

>  <SCORE.INTER.CONST>
1

>  <SCORE.INTER.POLAR>
-4.45544

>  <SCORE.INTER.ROT>
2

>  <SCORE.INTER.SOLV>
24.1938

>  <SCORE.INTER.VDW>
-17.1114

>  <SCORE.INTER.norm>
-3.16083

>  <SCORE.INTRA>
-1.89224

>  <SCORE.INTRA.DIHEDRAL>
-1.37299

>  <SCORE.INTRA.DIHEDRAL.0>
4.09112

>  <SCORE.INTRA.POLAR>
0

>  <SCORE.INTRA.POLAR.0>
0

>  <SCORE.INTRA.REPUL>
0

>  <SCORE.INTRA.REPUL.0>
0

>  <SCORE.INTRA.SOLV>
0.0109973

>  <SCORE.INTRA.SOLV.lig_0>
-50.6397

>  <SCORE.INTRA.VDW>
-1.21124

>  <SCORE.INTRA.VDW.0>
0.539372

>  <SCORE.INTRA.norm>
-0.210249

>  <SCORE.RESTR>
0

>  <SCORE.RESTR.CAVITY>
0

>  <SCORE.RESTR.norm>
0

>  <SCORE.SYSTEM>
-21.9588

>  <SCORE.SYSTEM.CONST>
0

>  <SCORE.SYSTEM.DIHEDRAL>
6.65638

>  <SCORE.SYSTEM.POLAR>
-3.63845

>  <SCORE.SYSTEM.SOLV>
0.691968

>  <SCORE.SYSTEM.VDW>
-4.96047

>  <SCORE.SYSTEM.norm>
-2.43987

>  <SCORE.heavy>
9

>  <SCORE.norm>
-5.81094

$$$$
P60619143
 OpenBabel12072022103D
libRbt.so/2013.1/901 2013/11/27
 13 12  0  0  0  0  0  0  0  0999 V2000
   17.9896  -19.2871    5.1651 C   0  0  0  0  0  0  0  0  0  0  0  0
   18.8698  -18.2215    4.7682 N   0  0  0  0  0  0  0  0  0  0  0  0
   19.7540  -17.6517    5.6314 C   0  0  0  0  0  0  0  0  0  0  0  0
   19.8250  -17.9256    6.8259 O   0  0  0  0  0  0  0  0  0  0  0  0
   20.5912  -16.7030    5.1017 N   0  0  0  0  0  0  0  0  0  0  0  0
   20.6837  -16.2600    3.7928 C   0  0  0  0  0  0  0  0  0  0  0  0
   20.0687  -16.7536    2.8515 O   0  0  0  0  0  0  0  0  0  0  0  0
   21.6800  -15.1262    3.6345 C   0  0  0  0  0  0  0  0  0  0  0  0
   22.9447  -15.3582    4.4625 C   0  0  0  0  0  0  0  0  0  0  0  0
   23.7340  -16.5875    4.0297 C   0  0  0  0  0  0  0  0  0  0  0  0
   25.1846  -16.8339    5.0283 Cl  0  0  0  0  0  0  0  0  0  0  0  0
   19.0178  -18.0419    3.7769 H   0  0  0  0  0  0  0  0  0  0  0  0
   21.1849  -16.2853    5.8032 H   0  0  0  0  0  0  0  0  0  0  0  0
  1  2  1  0  0  0  0
  2  3  1  0  0  0  0
  2 12  1  0  0  0  0
  3  4  2  0  0  0  0
  3  5  1  0  0  0  0
  5  6  1  0  0  0  0
  5 13  1  0  0  0  0
  6  7  2  0  0  0  0
  6  8  1  0  0  0  0
  8  9  1  0  0  0  0
  9 10  1  0  0  0  0
 10 11  1  0  0  0  0
M  END
>  <CHROM.0>
-50.88176815,-59.72276417,-53.14619188,-52.00897433,-52.88671145,-57.64895374
-60.34712304,-174.97435576,-165.77365535,160.36776561

>  <CHROM.1>
41.00054911,63.41056414,-179.29484572,21.49500280,-16.98033053,4.71370108
-2.89043782,-0.18610710,-0.87862697

>  <Name>
P60619143

>  <RI>
0

>  <Rbt.Current_Directory>
/home/fstefaniak/projects/zuza/docking/adenine/1Y26

>  <Rbt.Executable>
rbdock ($Id: //depot/dev/client3/rdock/2013.1/src/exe/rbdock.cxx#4 $)

>  <Rbt.Library>
libRbt.so (2013.1, Build901 2013/11/27)

>  <Rbt.Parameter_File>
/home/fstefaniak/progs/rDock//data/scripts/dock_solv.prm

>  <Rbt.Receptor>
1y26.prm

>  <SCORE>
-45.1678

>  <SCORE.INTER>
-23.5918

>  <SCORE.INTER.CONST>
1

>  <SCORE.INTER.POLAR>
-2.10834

>  <SCORE.INTER.ROT>
3

>  <SCORE.INTER.SOLV>
13.1215

>  <SCORE.INTER.VDW>
-18.6739

>  <SCORE.INTER.norm>
-2.14471

>  <SCORE.INTRA>
1.01683

>  <SCORE.INTRA.DIHEDRAL>
0.180979

>  <SCORE.INTRA.DIHEDRAL.0>
1.32037

>  <SCORE.INTRA.POLAR>
0

>  <SCORE.INTRA.POLAR.0>
0

>  <SCORE.INTRA.REPUL>
0

>  <SCORE.INTRA.REPUL.0>
0

>  <SCORE.INTRA.SOLV>
0.624913

>  <SCORE.INTRA.SOLV.lig_0>
-18.6908

>  <SCORE.INTRA.VDW>
0.613887

>  <SCORE.INTRA.VDW.0>
0.151225

>  <SCORE.INTRA.norm>
0.0924393

>  <SCORE.RESTR>
0

>  <SCORE.RESTR.CAVITY>
0

>  <SCORE.RESTR.norm>
0

>  <SCORE.SYSTEM>
-22.5928

>  <SCORE.SYSTEM.CONST>
0

>  <SCORE.SYSTEM.DIHEDRAL>
5.85232

>  <SCORE.SYSTEM.POLAR>
-3.48748

>  <SCORE.SYSTEM.SOLV>
0.460571

>  <SCORE.SYSTEM.VDW>
-5.54123

>  <SCORE.SYSTEM.norm>
-2.05389

>  <SCORE.heavy>
11

>  <SCORE.norm>
-4.10616

$$$$
P60619143
 OpenBabel12072022103D
libRbt.so/2013.1/901 2013/11/27
 13 12  0  0  0  0  0  0  0  0999 V2000
   22.3738  -12.7047    3.5527 C   0  0  0  0  0  0  0  0  0  0  0  0
   21.9082  -14.0618    3.6500 N   0  0  0  0  0  0  0  0  0  0  0  0
   21.9011  -14.7433    4.8279 C   0  0  0  0  0  0  0  0  0  0  0  0
   22.3602  -14.3068    5.8794 O   0  0  0  0  0  0  0  0  0  0  0  0
   21.3543  -16.0009    4.7961 N   0  0  0  0  0  0  0  0  0  0  0  0
   20.7767  -16.6699    3.7300 C   0  0  0  0  0  0  0  0  0  0  0  0
   20.5674  -16.1659    2.6300 O   0  0  0  0  0  0  0  0  0  0  0  0
   20.3726  -18.0884    4.0873 C   0  0  0  0  0  0  0  0  0  0  0  0
   18.9179  -18.1672    4.5526 C   0  0  0  0  0  0  0  0  0  0  0  0
   18.6734  -19.2537    5.5925 C   0  0  0  0  0  0  0  0  0  0  0  0
   19.5247  -18.9200    7.1177 Cl  0  0  0  0  0  0  0  0  0  0  0  0
   21.3510  -14.4520    2.8924 H   0  0  0  0  0  0  0  0  0  0  0  0
   21.4263  -16.4695    5.6873 H   0  0  0  0  0  0  0  0  0  0  0  0
  1  2  1  0  0  0  0
  2  3  1  0  0  0  0
  2 12  1  0  0  0  0
  3  4  2  0  0  0  0
  3  5  1  0  0  0  0
  5  6  1  0  0  0  0
  5 13  1  0  0  0  0
  6  7  2  0  0  0  0
  6  8  1  0  0  0  0
  8  9  1  0  0  0  0
  9 10  1  0  0  0  0
 10 11  1  0  0  0  0
M  END
>  <CHROM.0>
-50.83261537,-65.10574033,-54.37656100,-52.63303575,-56.21129629,-56.79420037
-56.75985275,62.69994593,-167.03942996,160.08881511

>  <CHROM.1>
93.01845744,-147.95088331,65.50264334,20.65938567,-16.55763026,4.87786924
-0.58542726,0.99131444,1.82877746

>  <Name>
P60619143

>  <RI>
0

>  <Rbt.Current_Directory>
/home/fstefaniak/projects/zuza/docking/adenine/1Y26

>  <Rbt.Executable>
rbdock ($Id: //depot/dev/client3/rdock/2013.1/src/exe/rbdock.cxx#4 $)

>  <Rbt.Library>
libRbt.so (2013.1, Build901 2013/11/27)

>  <Rbt.Parameter_File>
/home/fstefaniak/progs/rDock//data/scripts/dock_solv.prm

>  <Rbt.Receptor>
1y26.prm

>  <SCORE>
-44.7919

>  <SCORE.INTER>
-24.5776

>  <SCORE.INTER.CONST>
1

>  <SCORE.INTER.POLAR>
-2.26905

>  <SCORE.INTER.ROT>
3

>  <SCORE.INTER.SOLV>
12.229

>  <SCORE.INTER.VDW>
-18.4979

>  <SCORE.INTER.norm>
-2.23432

>  <SCORE.INTRA>
1.14238

>  <SCORE.INTRA.DIHEDRAL>
3.8377

>  <SCORE.INTRA.DIHEDRAL.0>
1.32037

>  <SCORE.INTRA.POLAR>
0

>  <SCORE.INTRA.POLAR.0>
0

>  <SCORE.INTRA.REPUL>
0

>  <SCORE.INTRA.REPUL.0>
0

>  <SCORE.INTRA.SOLV>
0.260497

>  <SCORE.INTRA.SOLV.lig_0>
-18.6908

>  <SCORE.INTRA.VDW>
-0.906719

>  <SCORE.INTRA.VDW.0>
0.151225

>  <SCORE.INTRA.norm>
0.103853

>  <SCORE.RESTR>
0

>  <SCORE.RESTR.CAVITY>
0

>  <SCORE.RESTR.norm>
0

>  <SCORE.SYSTEM>
-21.3567

>  <SCORE.SYSTEM.CONST>
0

>  <SCORE.SYSTEM.DIHEDRAL>
5.5917

>  <SCORE.SYSTEM.POLAR>
-3.46211

>  <SCORE.SYSTEM.SOLV>
0.439361

>  <SCORE.SYSTEM.VDW>
-4.70776

>  <SCORE.SYSTEM.norm>
-1.94152

>  <SCORE.heavy>
11

>  <SCORE.norm>
-4.07199

$$$$
P60619143
 OpenBabel12072022103D
libRbt.so/2013.1/901 2013/11/27
 13 12  0  0  0  0  0  0  0  0999 V2000
   22.5281  -13.4761    5.8894 C   0  0  0  0  0  0  0  0  0  0  0  0
   21.7265  -14.5146    5.3007 N   0  0  0  0  0  0  0  0  0  0  0  0
   21.8283  -14.8524    3.9864 C   0  0  0  0  0  0  0  0  0  0  0  0
   22.5347  -14.2604    3.1755 O   0  0  0  0  0  0  0  0  0  0  0  0
   21.0658  -15.9153    3.5738 N   0  0  0  0  0  0  0  0  0  0  0  0
   20.2206  -16.7193    4.3203 C   0  0  0  0  0  0  0  0  0  0  0  0
   20.1078  -16.6564    5.5415 O   0  0  0  0  0  0  0  0  0  0  0  0
   19.4848  -17.7355    3.4665 C   0  0  0  0  0  0  0  0  0  0  0  0
   18.4463  -18.5146    4.2748 C   0  0  0  0  0  0  0  0  0  0  0  0
   19.0519  -19.6168    5.1350 C   0  0  0  0  0  0  0  0  0  0  0  0
   19.4128  -19.0539    6.7828 Cl  0  0  0  0  0  0  0  0  0  0  0  0
   21.2470  -15.1771    5.9074 H   0  0  0  0  0  0  0  0  0  0  0  0
   21.1488  -16.0806    2.5814 H   0  0  0  0  0  0  0  0  0  0  0  0
  1  2  1  0  0  0  0
  2  3  1  0  0  0  0
  2 12  1  0  0  0  0
  3  4  2  0  0  0  0
  3  5  1  0  0  0  0
  5  6  1  0  0  0  0
  5 13  1  0  0  0  0
  6  7  2  0  0  0  0
  6  8  1  0  0  0  0
  8  9  1  0  0  0  0
  9 10  1  0  0  0  0
 10 11  1  0  0  0  0
M  END
>  <CHROM.0>
-49.73639283,-172.06293956,-52.81950072,-52.42767391,-174.31118845,-61.96449160
-59.23558735,-178.86756495,-167.06497604,160.24629176

>  <CHROM.1>
-173.87194606,-78.20685460,92.82039400,20.46628346,-16.75834245,4.93637456
-0.36683902,0.97380604,1.73632387

>  <Name>
P60619143

>  <RI>
0

>  <Rbt.Current_Directory>
/home/fstefaniak/projects/zuza/docking/adenine/1Y26

>  <Rbt.Executable>
rbdock ($Id: //depot/dev/client3/rdock/2013.1/src/exe/rbdock.cxx#4 $)

>  <Rbt.Library>
libRbt.so (2013.1, Build901 2013/11/27)

>  <Rbt.Parameter_File>
/home/fstefaniak/progs/rDock//data/scripts/dock_solv.prm

>  <Rbt.Receptor>
1y26.prm

>  <SCORE>
-44.6712

>  <SCORE.INTER>
-24.1841

>  <SCORE.INTER.CONST>
1

>  <SCORE.INTER.POLAR>
-1.49014

>  <SCORE.INTER.ROT>
3

>  <SCORE.INTER.SOLV>
13.1932

>  <SCORE.INTER.VDW>
-21.1533

>  <SCORE.INTER.norm>
-2.19856

>  <SCORE.INTRA>
2.25778

>  <SCORE.INTRA.DIHEDRAL>
4.12189

>  <SCORE.INTRA.DIHEDRAL.0>
1.32037

>  <SCORE.INTRA.POLAR>
0

>  <SCORE.INTRA.POLAR.0>
0

>  <SCORE.INTRA.REPUL>
0

>  <SCORE.INTRA.REPUL.0>
0

>  <SCORE.INTRA.SOLV>
0.455083

>  <SCORE.INTRA.SOLV.lig_0>
-18.6908

>  <SCORE.INTRA.VDW>
-0.0307098

>  <SCORE.INTRA.VDW.0>
0.151225

>  <SCORE.INTRA.norm>
0.205253

>  <SCORE.RESTR>
0

>  <SCORE.RESTR.CAVITY>
0

>  <SCORE.RESTR.norm>
0

>  <SCORE.SYSTEM>
-22.7449

>  <SCORE.SYSTEM.CONST>
0

>  <SCORE.SYSTEM.DIHEDRAL>
5.91943

>  <SCORE.SYSTEM.POLAR>
-3.48165

>  <SCORE.SYSTEM.SOLV>
0.226699

>  <SCORE.SYSTEM.VDW>
-5.60644

>  <SCORE.SYSTEM.norm>
-2.06771

>  <SCORE.heavy>
11

>  <SCORE.norm>
-4.06102

$$$$
P61273721
 OpenBabel12072022103D
libRbt.so/2013.1/901 2013/11/27
 13 12  0  0  0  0  0  0  0  0999 V2000
   22.1827  -15.3125    4.6149 C   0  0  0  0  0  0  0  0  0  0  0  0
   20.7112  -15.5018    4.2547 C   0  0  0  0  0  0  0  0  0  0  0  0
   20.2663  -16.9693    4.0084 C   0  0  2  0  0  0  0  0  0  0  0  0
   20.1285  -17.7574    5.3233 C   0  0  0  0  0  0  0  0  0  0  0  0
   21.2922  -17.6509    3.1657 C   0  0  0  0  0  0  0  0  0  0  0  0
   22.0632  -18.1971    2.4900 N   0  0  0  0  0  0  0  0  0  0  0  0
   18.9917  -16.9993    3.2584 N   0  0  0  0  0  0  0  0  0  0  0  0
   18.5680  -18.0614    2.5241 C   0  0  0  0  0  0  0  0  0  0  0  0
   17.7273  -18.8798    2.8563 O   0  0  0  0  0  0  0  0  0  0  0  0
   19.2011  -18.1381    1.3270 N   0  0  0  0  0  0  0  0  0  0  0  0
   18.6355  -16.1092    2.9361 H   0  0  0  0  0  0  0  0  0  0  0  0
   18.6338  -18.0157    0.5002 H   0  0  0  0  0  0  0  0  0  0  0  0
   19.8524  -18.9126    1.2725 H   0  0  0  0  0  0  0  0  0  0  0  0
  1  2  1  0  0  0  0
  3  5  1  0  0  0  0
  3  7  1  0  0  0  0
  3  4  1  1  0  0  0
  3  2  1  0  0  0  0
  5  6  3  0  0  0  0
  7  8  1  0  0  0  0
  7 11  1  0  0  0  0
  8  9  2  0  0  0  0
  8 10  1  0  0  0  0
 10 12  1  0  0  0  0
 10 13  1  0  0  0  0
M  END
>  <CHROM.0>
-49.78867941,-59.60686194,-56.12966647,-51.78275454,-56.81056595,-57.25359379
-59.82336441,-52.87658085,-166.88033444,161.23109460

>  <CHROM.1>
157.70914372,75.26698286,101.98073622,-115.25464641,20.07481607,-17.35437855
3.36560176,0.76071427,0.24351697,0.97227120

>  <Name>
P61273721

>  <RI>
0

>  <Rbt.Current_Directory>
/home/fstefaniak/projects/zuza/docking/adenine/1Y26

>  <Rbt.Executable>
rbdock ($Id: //depot/dev/client3/rdock/2013.1/src/exe/rbdock.cxx#4 $)

>  <Rbt.Library>
libRbt.so (2013.1, Build901 2013/11/27)

>  <Rbt.Parameter_File>
/home/fstefaniak/progs/rDock//data/scripts/dock_solv.prm

>  <Rbt.Receptor>
1y26.prm

>  <SCORE>
-51.0741

>  <SCORE.INTER>
-29.7074

>  <SCORE.INTER.CONST>
1

>  <SCORE.INTER.POLAR>
-4.28583

>  <SCORE.INTER.ROT>
4

>  <SCORE.INTER.SOLV>
12.2925

>  <SCORE.INTER.VDW>
-15.883

>  <SCORE.INTER.norm>
-2.97074

>  <SCORE.INTRA>
0.907862

>  <SCORE.INTRA.DIHEDRAL>
1.72913

>  <SCORE.INTRA.DIHEDRAL.0>
1.67245

>  <SCORE.INTRA.POLAR>
0

>  <SCORE.INTRA.POLAR.0>
0

>  <SCORE.INTRA.REPUL>
0

>  <SCORE.INTRA.REPUL.0>
0

>  <SCORE.INTRA.SOLV>
0.773354

>  <SCORE.INTRA.SOLV.lig_0>
-14.2068

>  <SCORE.INTRA.VDW>
-0.343381

>  <SCORE.INTRA.VDW.0>
1.31633

>  <SCORE.INTRA.norm>
0.0907862

>  <SCORE.RESTR>
0

>  <SCORE.RESTR.CAVITY>
0

>  <SCORE.RESTR.norm>
0

>  <SCORE.SYSTEM>
-22.2745

>  <SCORE.SYSTEM.CONST>
0

>  <SCORE.SYSTEM.DIHEDRAL>
5.51258

>  <SCORE.SYSTEM.POLAR>
-3.47455

>  <SCORE.SYSTEM.SOLV>
0.66834

>  <SCORE.SYSTEM.VDW>
-5.32813

>  <SCORE.SYSTEM.norm>
-2.22745

>  <SCORE.heavy>
10

>  <SCORE.norm>
-5.10741

$$$$
P61273721
 OpenBabel12072022103D
libRbt.so/2013.1/901 2013/11/27
 13 12  0  0  0  0  0  0  0  0999 V2000
   18.4855  -18.5591    1.7329 C   0  0  0  0  0  0  0  0  0  0  0  0
   18.6667  -17.5572    2.8706 C   0  0  0  0  0  0  0  0  0  0  0  0
   19.8981  -17.7997    3.7855 C   0  0  2  0  0  0  0  0  0  0  0  0
   20.1995  -16.5837    4.6796 C   0  0  0  0  0  0  0  0  0  0  0  0
   21.0943  -18.0526    2.9297 C   0  0  0  0  0  0  0  0  0  0  0  0
   22.0353  -18.2771    2.2867 N   0  0  0  0  0  0  0  0  0  0  0  0
   19.6897  -19.0058    4.6161 N   0  0  0  0  0  0  0  0  0  0  0  0
   19.1845  -18.9807    5.8774 C   0  0  0  0  0  0  0  0  0  0  0  0
   19.7251  -18.5075    6.8627 O   0  0  0  0  0  0  0  0  0  0  0  0
   17.9626  -19.5651    5.9484 N   0  0  0  0  0  0  0  0  0  0  0  0
   20.3003  -19.7914    4.4340 H   0  0  0  0  0  0  0  0  0  0  0  0
   17.6199  -19.7998    6.8693 H   0  0  0  0  0  0  0  0  0  0  0  0
   17.8326  -20.2960    5.2585 H   0  0  0  0  0  0  0  0  0  0  0  0
  1  2  1  0  0  0  0
  3  5  1  0  0  0  0
  3  7  1  0  0  0  0
  3  4  1  1  0  0  0
  3  2  1  0  0  0  0
  5  6  3  0  0  0  0
  7  8  1  0  0  0  0
  7 11  1  0  0  0  0
  8  9  2  0  0  0  0
  8 10  1  0  0  0  0
 10 12  1  0  0  0  0
 10 13  1  0  0  0  0
M  END
>  <CHROM.0>
-46.45416812,-166.31036467,-57.34188616,-53.22298445,-57.89963778,60.17403348
-47.78070427,-53.55296255,-166.56217912,161.88712464

>  <CHROM.1>
-94.10108984,166.38427877,-67.48244086,164.91601756,19.65004538,-18.31771824
4.21061084,1.20197074,-0.36032192,-1.46474919

>  <Name>
P61273721

>  <RI>
0

>  <Rbt.Current_Directory>
/home/fstefaniak/projects/zuza/docking/adenine/1Y26

>  <Rbt.Executable>
rbdock ($Id: //depot/dev/client3/rdock/2013.1/src/exe/rbdock.cxx#4 $)

>  <Rbt.Library>
libRbt.so (2013.1, Build901 2013/11/27)

>  <Rbt.Parameter_File>
/home/fstefaniak/progs/rDock//data/scripts/dock_solv.prm

>  <Rbt.Receptor>
1y26.prm

>  <SCORE>
-49.3414

>  <SCORE.INTER>
-29.3594

>  <SCORE.INTER.CONST>
1

>  <SCORE.INTER.POLAR>
-4.58635

>  <SCORE.INTER.ROT>
4

>  <SCORE.INTER.SOLV>
12.7878

>  <SCORE.INTER.VDW>
-14.8144

>  <SCORE.INTER.norm>
-2.93594

>  <SCORE.INTRA>
1.05202

>  <SCORE.INTRA.DIHEDRAL>
1.72828

>  <SCORE.INTRA.DIHEDRAL.0>
1.67245

>  <SCORE.INTRA.POLAR>
0

>  <SCORE.INTRA.POLAR.0>
0

>  <SCORE.INTRA.REPUL>
0

>  <SCORE.INTRA.REPUL.0>
0

>  <SCORE.INTRA.SOLV>
0.319357

>  <SCORE.INTRA.SOLV.lig_0>
-14.2068

>  <SCORE.INTRA.VDW>
0.0281979

>  <SCORE.INTRA.VDW.0>
1.31633

>  <SCORE.INTRA.norm>
0.105202

>  <SCORE.RESTR>
0

>  <SCORE.RESTR.CAVITY>
0

>  <SCORE.RESTR.norm>
0

>  <SCORE.SYSTEM>
-21.0339

>  <SCORE.SYSTEM.CONST>
0

>  <SCORE.SYSTEM.DIHEDRAL>
7.13965

>  <SCORE.SYSTEM.POLAR>
-3.51608

>  <SCORE.SYSTEM.SOLV>
0.458694

>  <SCORE.SYSTEM.VDW>
-4.83513

>  <SCORE.SYSTEM.norm>
-2.10339

>  <SCORE.heavy>
10

>  <SCORE.norm>
-4.93414

$$$$
P61273721
 OpenBabel12072022103D
libRbt.so/2013.1/901 2013/11/27
 13 12  0  0  0  0  0  0  0  0999 V2000
   18.4189  -18.4313    1.9838 C   0  0  0  0  0  0  0  0  0  0  0  0
   18.7173  -17.4515    3.1160 C   0  0  0  0  0  0  0  0  0  0  0  0
   19.9532  -17.7967    3.9909 C   0  0  2  0  0  0  0  0  0  0  0  0
   20.2933  -16.6663    4.9785 C   0  0  0  0  0  0  0  0  0  0  0  0
   21.1331  -18.0043    3.1010 C   0  0  0  0  0  0  0  0  0  0  0  0
   22.0611  -18.1956    2.4290 N   0  0  0  0  0  0  0  0  0  0  0  0
   19.7262  -19.0628    4.7215 N   0  0  0  0  0  0  0  0  0  0  0  0
   19.2170  -19.1323    5.9795 C   0  0  0  0  0  0  0  0  0  0  0  0
   19.8573  -19.1903    7.0157 O   0  0  0  0  0  0  0  0  0  0  0  0
   17.8606  -19.1376    5.9804 N   0  0  0  0  0  0  0  0  0  0  0  0
   20.3271  -19.8393    4.4783 H   0  0  0  0  0  0  0  0  0  0  0  0
   17.4000  -18.3872    6.4756 H   0  0  0  0  0  0  0  0  0  0  0  0
   17.4684  -20.0548    6.1590 H   0  0  0  0  0  0  0  0  0  0  0  0
  1  2  1  0  0  0  0
  3  5  1  0  0  0  0
  3  7  1  0  0  0  0
  3  4  1  1  0  0  0
  3  2  1  0  0  0  0
  5  6  3  0  0  0  0
  7  8  1  0  0  0  0
  7 11  1  0  0  0  0
  8  9  2  0  0  0  0
  8 10  1  0  0  0  0
 10 12  1  0  0  0  0
 10 13  1  0  0  0  0
M  END
>  <CHROM.0>
-51.55078602,-62.07154342,-56.25453349,-50.94490685,-58.72459848,-63.97744312
-56.24119448,-49.59824485,-166.70055806,161.83264061

>  <CHROM.1>
-93.03920108,172.22334871,-94.20390064,-120.26636900,19.67580612,-18.33200538
4.38329652,1.21458717,-0.18066045,-1.34059629

>  <Name>
P61273721

>  <RI>
0

>  <Rbt.Current_Directory>
/home/fstefaniak/projects/zuza/docking/adenine/1Y26

>  <Rbt.Executable>
rbdock ($Id: //depot/dev/client3/rdock/2013.1/src/exe/rbdock.cxx#4 $)

>  <Rbt.Library>
libRbt.so (2013.1, Build901 2013/11/27)

>  <Rbt.Parameter_File>
/home/fstefaniak/progs/rDock//data/scripts/dock_solv.prm

>  <Rbt.Receptor>
1y26.prm

>  <SCORE>
-48.3864

>  <SCORE.INTER>
-26.4226

>  <SCORE.INTER.CONST>
1

>  <SCORE.INTER.POLAR>
-3.91749

>  <SCORE.INTER.ROT>
4

>  <SCORE.INTER.SOLV>
12.635

>  <SCORE.INTER.VDW>
-15.0351

>  <SCORE.INTER.norm>
-2.64226

>  <SCORE.INTRA>
0.200556

>  <SCORE.INTRA.DIHEDRAL>
1.2898

>  <SCORE.INTRA.DIHEDRAL.0>
1.67245

>  <SCORE.INTRA.POLAR>
0

>  <SCORE.INTRA.POLAR.0>
0

>  <SCORE.INTRA.REPUL>
0

>  <SCORE.INTRA.REPUL.0>
0

>  <SCORE.INTRA.SOLV>
0.400872

>  <SCORE.INTRA.SOLV.lig_0>
-14.2068

>  <SCORE.INTRA.VDW>
-0.644782

>  <SCORE.INTRA.VDW.0>
1.31633

>  <SCORE.INTRA.norm>
0.0200556

>  <SCORE.RESTR>
0

>  <SCORE.RESTR.CAVITY>
0

>  <SCORE.RESTR.norm>
0

>  <SCORE.SYSTEM>
-22.1643

>  <SCORE.SYSTEM.CONST>
0

>  <SCORE.SYSTEM.DIHEDRAL>
5.69455

>  <SCORE.SYSTEM.POLAR>
-3.46196

>  <SCORE.SYSTEM.SOLV>
0.661109

>  <SCORE.SYSTEM.VDW>
-5.35491

>  <SCORE.SYSTEM.norm>
-2.21643

>  <SCORE.heavy>
10

>  <SCORE.norm>
-4.83864

$$$$
P61281466
 OpenBabel12072022103D
libRbt.so/2013.1/901 2013/11/27
 16 16  0  0  0  0  0  0  0  0999 V2000
   22.3744  -11.4002    4.8066 C   0  0  0  0  0  0  0  0  0  0  0  0
   23.1849  -12.4138    5.4806 N   0  0  0  0  0  0  0  0  0  0  0  0
   22.3789  -13.3437    6.2779 C   0  0  0  0  0  0  0  0  0  0  0  0
   21.5924  -14.3441    5.4360 C   0  0  0  0  0  0  0  0  0  0  0  0
   22.5053  -15.1387    4.4748 C   0  0  0  0  0  0  0  0  0  0  0  0
   23.3638  -14.1358    3.6669 C   0  0  0  0  0  0  0  0  0  0  0  0
   24.0776  -13.1275    4.5669 C   0  0  0  0  0  0  0  0  0  0  0  0
   21.6232  -15.8709    3.4767 C   0  0  0  0  0  0  0  0  0  0  0  0
   20.8915  -16.4783    2.6486 N   0  0  0  0  0  0  0  0  0  0  0  0
   23.4055  -16.0853    5.1640 N   0  0  0  0  0  0  0  0  0  0  0  0
   24.5642  -16.5342    4.6055 C   0  0  0  0  0  0  0  0  0  0  0  0
   24.7919  -16.6619    3.4155 O   0  0  0  0  0  0  0  0  0  0  0  0
   25.4906  -16.8448    5.5462 N   0  0  0  0  0  0  0  0  0  0  0  0
   23.5013  -15.9549    6.1617 H   0  0  0  0  0  0  0  0  0  0  0  0
   26.1138  -17.6107    5.3329 H   0  0  0  0  0  0  0  0  0  0  0  0
   25.9573  -16.0267    5.9216 H   0  0  0  0  0  0  0  0  0  0  0  0
  1  2  1  0  0  0  0
  2  3  1  0  0  0  0
  2  7  1  0  0  0  0
  3  4  1  0  0  0  0
  4  5  1  0  0  0  0
  5  6  1  0  0  0  0
  5  8  1  0  0  0  0
  5 10  1  0  0  0  0
  6  7  1  0  0  0  0
  8  9  3  0  0  0  0
 10 11  1  0  0  0  0
 10 14  1  0  0  0  0
 11 12  2  0  0  0  0
 11 13  1  0  0  0  0
 13 15  1  0  0  0  0
 13 16  1  0  0  0  0
M  END
>  <CHROM.0>
-45.26006211,-64.59478757,-51.88979735,-49.13266939,-173.56633571,-174.01232219
-39.39000957,-173.67252019,-167.14261841,160.90409173

>  <CHROM.1>
-157.10393030,-28.76778960,146.80057681,23.15134883,-14.79340847,4.60401515
-1.94749650,0.40814389,-2.76140052

>  <Name>
P61281466

>  <RI>
0

>  <Rbt.Current_Directory>
/home/fstefaniak/projects/zuza/docking/adenine/1Y26

>  <Rbt.Executable>
rbdock ($Id: //depot/dev/client3/rdock/2013.1/src/exe/rbdock.cxx#4 $)

>  <Rbt.Library>
libRbt.so (2013.1, Build901 2013/11/27)

>  <Rbt.Parameter_File>
/home/fstefaniak/progs/rDock//data/scripts/dock_solv.prm

>  <Rbt.Receptor>
1y26.prm

>  <SCORE>
-45.8518

>  <SCORE.INTER>
-26.1841

>  <SCORE.INTER.CONST>
1

>  <SCORE.INTER.POLAR>
-4.02685

>  <SCORE.INTER.ROT>
3

>  <SCORE.INTER.SOLV>
14.8901

>  <SCORE.INTER.VDW>
-14.5966

>  <SCORE.INTER.norm>
-2.01416

>  <SCORE.INTRA>
1.41917

>  <SCORE.INTRA.DIHEDRAL>
1.11843

>  <SCORE.INTRA.DIHEDRAL.0>
1.23845

>  <SCORE.INTRA.POLAR>
0

>  <SCORE.INTRA.POLAR.0>
0

>  <SCORE.INTRA.REPUL>
0

>  <SCORE.INTRA.REPUL.0>
0

>  <SCORE.INTRA.SOLV>
0.234315

>  <SCORE.INTRA.SOLV.lig_0>
-18.131

>  <SCORE.INTRA.VDW>
0.742794

>  <SCORE.INTRA.VDW.0>
-0.898433

>  <SCORE.INTRA.norm>
0.109167

>  <SCORE.RESTR>
0.547889

>  <SCORE.RESTR.CAVITY>
0.547889

>  <SCORE.RESTR.norm>
0.0421453

>  <SCORE.SYSTEM>
-21.6347

>  <SCORE.SYSTEM.CONST>
0

>  <SCORE.SYSTEM.DIHEDRAL>
8.67375

>  <SCORE.SYSTEM.POLAR>
-3.72977

>  <SCORE.SYSTEM.SOLV>
0.188965

>  <SCORE.SYSTEM.VDW>
-4.94483

>  <SCORE.SYSTEM.norm>
-1.66421

>  <SCORE.heavy>
13

>  <SCORE.norm>
-3.52706

$$$$
P61281466
 OpenBabel12072022103D
libRbt.so/2013.1/901 2013/11/27
 16 16  0  0  0  0  0  0  0  0999 V2000
   22.2672  -11.2973    4.8604 C   0  0  0  0  0  0  0  0  0  0  0  0
   23.1676  -12.2849    5.4544 N   0  0  0  0  0  0  0  0  0  0  0  0
   22.4630  -13.2609    6.2915 C   0  0  0  0  0  0  0  0  0  0  0  0
   21.6591  -14.2816    5.4915 C   0  0  0  0  0  0  0  0  0  0  0  0
   22.5308  -15.0211    4.4514 C   0  0  0  0  0  0  0  0  0  0  0  0
   23.2838  -13.9697    3.6011 C   0  0  0  0  0  0  0  0  0  0  0  0
   24.0193  -12.9452    4.4645 C   0  0  0  0  0  0  0  0  0  0  0  0
   21.6087  -15.7757    3.5076 C   0  0  0  0  0  0  0  0  0  0  0  0
   20.8438  -16.4016    2.7246 N   0  0  0  0  0  0  0  0  0  0  0  0
   23.5188  -15.9381    5.0551 N   0  0  0  0  0  0  0  0  0  0  0  0
   24.2395  -16.8283    4.3174 C   0  0  0  0  0  0  0  0  0  0  0  0
   23.8544  -17.4293    3.3300 O   0  0  0  0  0  0  0  0  0  0  0  0
   25.4920  -16.9951    4.8104 N   0  0  0  0  0  0  0  0  0  0  0  0
   24.0661  -15.5575    5.8148 H   0  0  0  0  0  0  0  0  0  0  0  0
   25.8932  -16.2100    5.3034 H   0  0  0  0  0  0  0  0  0  0  0  0
   25.6113  -17.8834    5.2845 H   0  0  0  0  0  0  0  0  0  0  0  0
  1  2  1  0  0  0  0
  2  3  1  0  0  0  0
  2  7  1  0  0  0  0
  3  4  1  0  0  0  0
  4  5  1  0  0  0  0
  5  6  1  0  0  0  0
  5  8  1  0  0  0  0
  5 10  1  0  0  0  0
  6  7  1  0  0  0  0
  8  9  3  0  0  0  0
 10 11  1  0  0  0  0
 10 14  1  0  0  0  0
 11 12  2  0  0  0  0
 11 13  1  0  0  0  0
 13 15  1  0  0  0  0
 13 16  1  0  0  0  0
M  END
>  <CHROM.0>
-45.87129480,92.73652021,-50.60775806,-51.13040027,-54.57988340,-52.48832583
-54.54423431,-47.62554007,-166.38931701,161.50529826

>  <CHROM.1>
169.81838953,-34.90694252,-28.52667368,23.04428388,-14.80439709,4.50813248
1.81633892,-0.38131331,0.36460044

>  <Name>
P61281466

>  <RI>
0

>  <Rbt.Current_Directory>
/home/fstefaniak/projects/zuza/docking/adenine/1Y26

>  <Rbt.Executable>
rbdock ($Id: //depot/dev/client3/rdock/2013.1/src/exe/rbdock.cxx#4 $)

>  <Rbt.Library>
libRbt.so (2013.1, Build901 2013/11/27)

>  <Rbt.Parameter_File>
/home/fstefaniak/progs/rDock//data/scripts/dock_solv.prm

>  <Rbt.Receptor>
1y26.prm

>  <SCORE>
-43.1031

>  <SCORE.INTER>
-25.2489

>  <SCORE.INTER.CONST>
1

>  <SCORE.INTER.POLAR>
-3.99804

>  <SCORE.INTER.ROT>
3

>  <SCORE.INTER.SOLV>
13.36

>  <SCORE.INTER.VDW>
-13.5591

>  <SCORE.INTER.norm>
-1.94222

>  <SCORE.INTRA>
0.182564

>  <SCORE.INTRA.DIHEDRAL>
-0.0734765

>  <SCORE.INTRA.DIHEDRAL.0>
1.23845

>  <SCORE.INTRA.POLAR>
0

>  <SCORE.INTRA.POLAR.0>
0

>  <SCORE.INTRA.REPUL>
0

>  <SCORE.INTRA.REPUL.0>
0

>  <SCORE.INTRA.SOLV>
0.344263

>  <SCORE.INTRA.SOLV.lig_0>
-18.131

>  <SCORE.INTRA.VDW>
0.0471704

>  <SCORE.INTRA.VDW.0>
-0.898433

>  <SCORE.INTRA.norm>
0.0140434

>  <SCORE.RESTR>
0.722592

>  <SCORE.RESTR.CAVITY>
0.722592

>  <SCORE.RESTR.norm>
0.055584

>  <SCORE.SYSTEM>
-18.7594

>  <SCORE.SYSTEM.CONST>
0

>  <SCORE.SYSTEM.DIHEDRAL>
11.233

>  <SCORE.SYSTEM.POLAR>
-3.6519

>  <SCORE.SYSTEM.SOLV>
0.704127

>  <SCORE.SYSTEM.VDW>
-4.31229

>  <SCORE.SYSTEM.norm>
-1.44303

>  <SCORE.heavy>
13

>  <SCORE.norm>
-3.31562

$$$$
P61281466
 OpenBabel12072022103D
libRbt.so/2013.1/901 2013/11/27
 16 16  0  0  0  0  0  0  0  0999 V2000
   23.8168  -14.0172    3.8637 C   0  0  0  0  0  0  0  0  0  0  0  0
   23.2150  -14.7074    5.0040 N   0  0  0  0  0  0  0  0  0  0  0  0
   21.7953  -14.3838    5.1755 C   0  0  0  0  0  0  0  0  0  0  0  0
   20.8914  -15.0382    4.1350 C   0  0  0  0  0  0  0  0  0  0  0  0
   21.0738  -16.5722    4.0897 C   0  0  0  0  0  0  0  0  0  0  0  0
   22.5817  -16.8860    3.9366 C   0  0  0  0  0  0  0  0  0  0  0  0
   23.4340  -16.1539    4.9728 C   0  0  0  0  0  0  0  0  0  0  0  0
   20.3835  -17.0972    2.8414 C   0  0  0  0  0  0  0  0  0  0  0  0
   19.8108  -17.5327    1.8058 N   0  0  0  0  0  0  0  0  0  0  0  0
   20.5659  -17.2623    5.2927 N   0  0  0  0  0  0  0  0  0  0  0  0
   19.8476  -18.4181    5.2267 C   0  0  0  0  0  0  0  0  0  0  0  0
   19.6858  -19.1141    4.2399 O   0  0  0  0  0  0  0  0  0  0  0  0
   19.2976  -18.7395    6.4241 N   0  0  0  0  0  0  0  0  0  0  0  0
   21.1770  -17.2513    6.0977 H   0  0  0  0  0  0  0  0  0  0  0  0
   19.9380  -18.8985    7.1889 H   0  0  0  0  0  0  0  0  0  0  0  0
   18.5086  -18.1494    6.6638 H   0  0  0  0  0  0  0  0  0  0  0  0
  1  2  1  0  0  0  0
  2  3  1  0  0  0  0
  2  7  1  0  0  0  0
  3  4  1  0  0  0  0
  4  5  1  0  0  0  0
  5  6  1  0  0  0  0
  5  8  1  0  0  0  0
  5 10  1  0  0  0  0
  6  7  1  0  0  0  0
  8  9  3  0  0  0  0
 10 11  1  0  0  0  0
 10 14  1  0  0  0  0
 11 12  2  0  0  0  0
 11 13  1  0  0  0  0
 13 15  1  0  0  0  0
 13 16  1  0  0  0  0
M  END
>  <CHROM.0>
-49.87414243,-62.59977442,-51.03503749,-52.76207752,-55.31697490,-59.12590045
-58.96815350,-177.57009003,-167.39999488,159.89223653

>  <CHROM.1>
137.13403002,10.46792630,-60.83755250,21.26320144,-16.62174840,4.42928322
0.17045850,-0.82280844,-1.39578501

>  <Name>
P61281466

>  <RI>
0

>  <Rbt.Current_Directory>
/home/fstefaniak/projects/zuza/docking/adenine/1Y26

>  <Rbt.Executable>
rbdock ($Id: //depot/dev/client3/rdock/2013.1/src/exe/rbdock.cxx#4 $)

>  <Rbt.Library>
libRbt.so (2013.1, Build901 2013/11/27)

>  <Rbt.Parameter_File>
/home/fstefaniak/progs/rDock//data/scripts/dock_solv.prm

>  <Rbt.Receptor>
1y26.prm

>  <SCORE>
-40.2351

>  <SCORE.INTER>
-19.5237

>  <SCORE.INTER.CONST>
1

>  <SCORE.INTER.POLAR>
-2.34507

>  <SCORE.INTER.ROT>
3

>  <SCORE.INTER.SOLV>
14.6334

>  <SCORE.INTER.VDW>
-15.6767

>  <SCORE.INTER.norm>
-1.50182

>  <SCORE.INTRA>
1.92934

>  <SCORE.INTRA.DIHEDRAL>
1.0244

>  <SCORE.INTRA.DIHEDRAL.0>
1.23845

>  <SCORE.INTRA.POLAR>
0

>  <SCORE.INTRA.POLAR.0>
0

>  <SCORE.INTRA.REPUL>
0

>  <SCORE.INTRA.REPUL.0>
0

>  <SCORE.INTRA.SOLV>
0.293741

>  <SCORE.INTRA.SOLV.lig_0>
-18.131

>  <SCORE.INTRA.VDW>
1.27027

>  <SCORE.INTRA.VDW.0>
-0.898433

>  <SCORE.INTRA.norm>
0.148411

>  <SCORE.RESTR>
0

>  <SCORE.RESTR.CAVITY>
0

>  <SCORE.RESTR.norm>
0

>  <SCORE.SYSTEM>
-22.6408

>  <SCORE.SYSTEM.CONST>
0

>  <SCORE.SYSTEM.DIHEDRAL>
5.72945

>  <SCORE.SYSTEM.POLAR>
-3.48874

>  <SCORE.SYSTEM.SOLV>
0.46157

>  <SCORE.SYSTEM.VDW>
-5.52839

>  <SCORE.SYSTEM.norm>
-1.7416

>  <SCORE.heavy>
13

>  <SCORE.norm>
-3.09501

$$$$
P61362450
 OpenBabel12072022103D
libRbt.so/2013.1/901 2013/11/27
 16 16  0  0  0  0  0  0  0  0999 V2000
   24.1988  -16.1600    4.6610 C   0  0  0  0  0  0  0  0  0  0  0  0
   22.9228  -15.6606    4.0049 C   0  0  1  0  0  0  0  0  0  0  0  0
   21.8083  -16.7462    3.9913 C   0  0  0  0  0  0  0  0  0  0  0  0
   21.0669  -16.7268    5.0617 N   0  0  0  0  0  0  0  0  0  0  0  0
   20.1053  -17.6871    5.1853 C   0  0  0  0  0  0  0  0  0  0  0  0
   19.3171  -18.3023    4.2257 C   0  0  0  0  0  0  0  0  0  0  0  0
   18.4425  -19.2903    4.7725 C   0  0  0  0  0  0  0  0  0  0  0  0
   18.6051  -19.4235    6.1324 C   0  0  0  0  0  0  0  0  0  0  0  0
   19.8076  -18.3715    6.7391 S   0  0  0  0  0  0  0  0  0  0  0  0
   19.3967  -17.9727    2.8332 C   0  0  0  0  0  0  0  0  0  0  0  0
   19.4687  -17.7535    1.6930 N   0  0  0  0  0  0  0  0  0  0  0  0
   21.8159  -17.4932    2.9810 O   0  5  0  0  0  0  0  0  0  0  0  0
   22.3590  -14.5416    4.8145 N   0  3  0  0  0  0  0  0  0  0  0  0
   21.9350  -15.0737    5.6076 H   0  0  0  0  0  0  0  0  0  0  0  0
   23.0129  -13.8416    5.1495 H   0  0  0  0  0  0  0  0  0  0  0  0
   21.5412  -14.1588    4.3356 H   0  0  0  0  0  0  0  0  0  0  0  0
  2  1  1  1  0  0  0
  2  3  1  0  0  0  0
  2 13  1  0  0  0  0
  3  4  2  0  0  0  0
  3 12  1  0  0  0  0
  4  5  1  0  0  0  0
  5  6  2  0  0  0  0
  5  9  1  0  0  0  0
  6  7  1  0  0  0  0
  6 10  1  0  0  0  0
  7  8  2  0  0  0  0
  8  9  1  0  0  0  0
 10 11  3  0  0  0  0
 13 14  1  0  0  0  0
 13 15  1  0  0  0  0
 13 16  1  0  0  0  0
M  CHG  2  12  -1  13   1
M  END
>  <CHROM.0>
-46.86925601,-62.35745822,-54.90540829,-52.73281135,-173.33516080,-58.78725201
-56.26553771,-53.33010020,-166.43422491,160.72996698

>  <CHROM.1>
88.75128872,-76.61967635,-34.44236157,20.71835385,-17.40972328,4.61075352
-0.26933340,0.65458246,1.65369292

>  <Name>
P61362450

>  <RI>
0

>  <Rbt.Current_Directory>
/home/fstefaniak/projects/zuza/docking/adenine/1Y26

>  <Rbt.Executable>
rbdock ($Id: //depot/dev/client3/rdock/2013.1/src/exe/rbdock.cxx#4 $)

>  <Rbt.Library>
libRbt.so (2013.1, Build901 2013/11/27)

>  <Rbt.Parameter_File>
/home/fstefaniak/progs/rDock//data/scripts/dock_solv.prm

>  <Rbt.Receptor>
1y26.prm

>  <SCORE>
-69.2963

>  <SCORE.INTER>
-35.7235

>  <SCORE.INTER.CONST>
1

>  <SCORE.INTER.POLAR>
-3.33404

>  <SCORE.INTER.ROT>
2

>  <SCORE.INTER.SOLV>
20.2785

>  <SCORE.INTER.VDW>
-24.395

>  <SCORE.INTER.norm>
-2.74796

>  <SCORE.INTRA>
-11.3827

>  <SCORE.INTRA.DIHEDRAL>
-24.3984

>  <SCORE.INTRA.DIHEDRAL.0>
42.7175

>  <SCORE.INTRA.POLAR>
-0.317986

>  <SCORE.INTRA.POLAR.0>
0

>  <SCORE.INTRA.REPUL>
0

>  <SCORE.INTRA.REPUL.0>
0

>  <SCORE.INTRA.SOLV>
0.20969

>  <SCORE.INTRA.SOLV.lig_0>
-47.5218

>  <SCORE.INTRA.VDW>
1.79279

>  <SCORE.INTRA.VDW.0>
-0.0855599

>  <SCORE.INTRA.norm>
-0.875595

>  <SCORE.RESTR>
0

>  <SCORE.RESTR.CAVITY>
0

>  <SCORE.RESTR.norm>
0

>  <SCORE.SYSTEM>
-22.19

>  <SCORE.SYSTEM.CONST>
0

>  <SCORE.SYSTEM.DIHEDRAL>
6.12235

>  <SCORE.SYSTEM.POLAR>
-3.52652

>  <SCORE.SYSTEM.SOLV>
0.509021

>  <SCORE.SYSTEM.VDW>
-5.24873

>  <SCORE.SYSTEM.norm>
-1.70693

>  <SCORE.heavy>
13

>  <SCORE.norm>
-5.33048

$$$$
P61362450
 OpenBabel12072022103D
libRbt.so/2013.1/901 2013/11/27
 16 16  0  0  0  0  0  0  0  0999 V2000
   24.1561  -16.1319    4.7101 C   0  0  0  0  0  0  0  0  0  0  0  0
   22.8853  -15.6545    4.0281 C   0  0  1  0  0  0  0  0  0  0  0  0
   21.7824  -16.7519    4.0117 C   0  0  0  0  0  0  0  0  0  0  0  0
   21.0287  -16.7307    5.0735 N   0  0  0  0  0  0  0  0  0  0  0  0
   20.0759  -17.7000    5.1949 C   0  0  0  0  0  0  0  0  0  0  0  0
   19.2925  -18.3193    4.2341 C   0  0  0  0  0  0  0  0  0  0  0  0
   18.4272  -19.3168    4.7785 C   0  0  0  0  0  0  0  0  0  0  0  0
   18.5920  -19.4525    6.1379 C   0  0  0  0  0  0  0  0  0  0  0  0
   19.7855  -18.3916    6.7469 S   0  0  0  0  0  0  0  0  0  0  0  0
   19.3681  -17.9849    2.8424 C   0  0  0  0  0  0  0  0  0  0  0  0
   19.4373  -17.7617    1.7029 N   0  0  0  0  0  0  0  0  0  0  0  0
   21.8092  -17.5077    3.0083 O   0  5  0  0  0  0  0  0  0  0  0  0
   22.2976  -14.5311    4.8142 N   0  3  0  0  0  0  0  0  0  0  0  0
   21.8966  -15.0540    5.6252 H   0  0  0  0  0  0  0  0  0  0  0  0
   22.9344  -13.8043    5.1241 H   0  0  0  0  0  0  0  0  0  0  0  0
   21.4646  -14.1843    4.3340 H   0  0  0  0  0  0  0  0  0  0  0  0
  2  1  1  1  0  0  0
  2  3  1  0  0  0  0
  2 13  1  0  0  0  0
  3  4  2  0  0  0  0
  3 12  1  0  0  0  0
  4  5  1  0  0  0  0
  5  6  2  0  0  0  0
  5  9  1  0  0  0  0
  6  7  1  0  0  0  0
  6 10  1  0  0  0  0
  7  8  2  0  0  0  0
  8  9  1  0  0  0  0
 10 11  3  0  0  0  0
 13 14  1  0  0  0  0
 13 15  1  0  0  0  0
 13 16  1  0  0  0  0
M  CHG  2  12  -1  13   1
M  END
>  <CHROM.0>
-47.17903697,-65.09613099,-65.20314720,-53.81065482,-61.13406350,-174.63648625
-169.58548872,-176.23582087,-166.50607976,160.62347836

>  <CHROM.1>
88.41865994,-74.68827463,-35.41482355,20.68941092,-17.41824603,4.62477609
-0.26835139,0.66196428,1.65936115

>  <Name>
P61362450

>  <RI>
0

>  <Rbt.Current_Directory>
/home/fstefaniak/projects/zuza/docking/adenine/1Y26

>  <Rbt.Executable>
rbdock ($Id: //depot/dev/client3/rdock/2013.1/src/exe/rbdock.cxx#4 $)

>  <Rbt.Library>
libRbt.so (2013.1, Build901 2013/11/27)

>  <Rbt.Parameter_File>
/home/fstefaniak/progs/rDock//data/scripts/dock_solv.prm

>  <Rbt.Receptor>
1y26.prm

>  <SCORE>
-68.6419

>  <SCORE.INTER>
-35.8805

>  <SCORE.INTER.CONST>
1

>  <SCORE.INTER.POLAR>
-3.35268

>  <SCORE.INTER.ROT>
2

>  <SCORE.INTER.SOLV>
20.3107

>  <SCORE.INTER.VDW>
-24.4483

>  <SCORE.INTER.norm>
-2.76004

>  <SCORE.INTRA>
-11.2672

>  <SCORE.INTRA.DIHEDRAL>
-23.7163

>  <SCORE.INTRA.DIHEDRAL.0>
42.7175

>  <SCORE.INTRA.POLAR>
-0.285222

>  <SCORE.INTRA.POLAR.0>
0

>  <SCORE.INTRA.REPUL>
0

>  <SCORE.INTRA.REPUL.0>
0

>  <SCORE.INTRA.SOLV>
0.159808

>  <SCORE.INTRA.SOLV.lig_0>
-47.5218

>  <SCORE.INTRA.VDW>
1.48086

>  <SCORE.INTRA.VDW.0>
-0.0855599

>  <SCORE.INTRA.norm>
-0.866705

>  <SCORE.RESTR>
0

>  <SCORE.RESTR.CAVITY>
0

>  <SCORE.RESTR.norm>
0

>  <SCORE.SYSTEM>
-21.4942

>  <SCORE.SYSTEM.CONST>
0

>  <SCORE.SYSTEM.DIHEDRAL>
6.36828

>  <SCORE.SYSTEM.POLAR>
-3.4276

>  <SCORE.SYSTEM.SOLV>
0.243928

>  <SCORE.SYSTEM.VDW>
-5.1082

>  <SCORE.SYSTEM.norm>
-1.6534

>  <SCORE.heavy>
13

>  <SCORE.norm>
-5.28014

$$$$
P61362450
 OpenBabel12072022103D
libRbt.so/2013.1/901 2013/11/27
 16 16  0  0  0  0  0  0  0  0999 V2000
   24.4143  -16.5166    4.3662 C   0  0  0  0  0  0  0  0  0  0  0  0
   23.1040  -15.8182    4.0446 C   0  0  1  0  0  0  0  0  0  0  0  0
   21.9069  -16.8111    4.0016 C   0  0  0  0  0  0  0  0  0  0  0  0
   21.1858  -16.7851    5.0856 N   0  0  0  0  0  0  0  0  0  0  0  0
   20.1532  -17.6719    5.1826 C   0  0  0  0  0  0  0  0  0  0  0  0
   19.3357  -18.2140    4.2037 C   0  0  0  0  0  0  0  0  0  0  0  0
   18.3813  -19.1403    4.7245 C   0  0  0  0  0  0  0  0  0  0  0  0
   18.5128  -19.3022    6.0847 C   0  0  0  0  0  0  0  0  0  0  0  0
   19.7815  -18.3512    6.7225 S   0  0  0  0  0  0  0  0  0  0  0  0
   19.4608  -17.8740    2.8170 C   0  0  0  0  0  0  0  0  0  0  0  0
   19.5663  -17.6467    1.6811 N   0  0  0  0  0  0  0  0  0  0  0  0
   21.8398  -17.5070    2.9575 O   0  5  0  0  0  0  0  0  0  0  0  0
   22.7726  -14.8645    5.1429 N   0  3  0  0  0  0  0  0  0  0  0  0
   23.5109  -14.1397    4.9964 H   0  0  0  0  0  0  0  0  0  0  0  0
   21.8453  -14.4525    5.1297 H   0  0  0  0  0  0  0  0  0  0  0  0
   23.0366  -15.2789    6.0391 H   0  0  0  0  0  0  0  0  0  0  0  0
  2  1  1  1  0  0  0
  2  3  1  0  0  0  0
  2 13  1  0  0  0  0
  3  4  2  0  0  0  0
  3 12  1  0  0  0  0
  4  5  1  0  0  0  0
  5  6  2  0  0  0  0
  5  9  1  0  0  0  0
  6  7  1  0  0  0  0
  6 10  1  0  0  0  0
  7  8  2  0  0  0  0
  8  9  1  0  0  0  0
 10 11  3  0  0  0  0
 13 14  1  0  0  0  0
 13 15  1  0  0  0  0
 13 16  1  0  0  0  0
M  CHG  2  12  -1  13   1
M  END
>  <CHROM.0>
-55.93989168,-66.48046786,-54.22706950,-51.85059014,-58.45282151,55.45502684
-55.68853639,-49.52978374,-167.06816162,160.92108406

>  <CHROM.1>
101.06885641,69.75155690,-31.74605920,20.80360406,-17.44275547,4.60773062
-0.24202247,0.56906177,1.62557216

>  <Name>
P61362450

>  <RI>
0

>  <Rbt.Current_Directory>
/home/fstefaniak/projects/zuza/docking/adenine/1Y26

>  <Rbt.Executable>
rbdock ($Id: //depot/dev/client3/rdock/2013.1/src/exe/rbdock.cxx#4 $)

>  <Rbt.Library>
libRbt.so (2013.1, Build901 2013/11/27)

>  <Rbt.Parameter_File>
/home/fstefaniak/progs/rDock//data/scripts/dock_solv.prm

>  <Rbt.Receptor>
1y26.prm

>  <SCORE>
-66.9879

>  <SCORE.INTER>
-35.5112

>  <SCORE.INTER.CONST>
1

>  <SCORE.INTER.POLAR>
-3.55976

>  <SCORE.INTER.ROT>
2

>  <SCORE.INTER.SOLV>
21.8907

>  <SCORE.INTER.VDW>
-24.0385

>  <SCORE.INTER.norm>
-2.73163

>  <SCORE.INTRA>
-10.2568

>  <SCORE.INTRA.DIHEDRAL>
-26.4218

>  <SCORE.INTRA.DIHEDRAL.0>
42.7175

>  <SCORE.INTRA.POLAR>
0

>  <SCORE.INTRA.POLAR.0>
0

>  <SCORE.INTRA.REPUL>
0

>  <SCORE.INTRA.REPUL.0>
0

>  <SCORE.INTRA.SOLV>
-0.502154

>  <SCORE.INTRA.SOLV.lig_0>
-47.5218

>  <SCORE.INTRA.VDW>
3.2052

>  <SCORE.INTRA.VDW.0>
-0.0855599

>  <SCORE.INTRA.norm>
-0.788983

>  <SCORE.RESTR>
0

>  <SCORE.RESTR.CAVITY>
0

>  <SCORE.RESTR.norm>
0

>  <SCORE.SYSTEM>
-21.22

>  <SCORE.SYSTEM.CONST>
0

>  <SCORE.SYSTEM.DIHEDRAL>
5.77181

>  <SCORE.SYSTEM.POLAR>
-3.43721

>  <SCORE.SYSTEM.SOLV>
0.502808

>  <SCORE.SYSTEM.VDW>
-4.78081

>  <SCORE.SYSTEM.norm>
-1.63231

>  <SCORE.heavy>
13

>  <SCORE.norm>
-5.15292

$$$$
P61812363
 OpenBabel12072022103D
libRbt.so/2013.1/901 2013/11/27
 14 14  0  0  0  0  0  0  0  0999 V2000
   22.0665  -13.8801    5.8447 C   0  0  0  0  0  0  0  0  0  0  0  0
   22.0248  -14.6590    4.5358 C   0  0  1  0  0  0  0  0  0  0  0  0
   23.1770  -15.6633    4.4357 C   0  0  0  0  0  0  0  0  0  0  0  0
   22.5282  -16.9258    3.8970 C   0  0  0  0  0  0  0  0  0  0  0  0
   21.2143  -16.8913    4.5431 N   0  0  0  0  0  0  0  0  0  0  0  0
   20.7538  -15.5036    4.3835 C   0  0  0  0  0  0  0  0  0  0  0  0
   20.2899  -17.8604    3.9201 C   0  0  0  0  0  0  0  0  0  0  0  0
   19.4053  -18.4840    5.0071 C   0  0  0  0  0  0  0  0  0  0  0  0
   19.6956  -18.2512    6.2536 N   0  0  0  0  0  0  0  0  0  0  0  0
   18.8107  -18.9365    7.1029 O   0  0  0  0  0  0  0  0  0  0  0  0
   18.3658  -19.2835    4.5890 N   0  0  0  0  0  0  0  0  0  0  0  0
   18.1233  -18.2640    7.2646 H   0  0  0  0  0  0  0  0  0  0  0  0
   18.3017  -20.1395    5.1348 H   0  0  0  0  0  0  0  0  0  0  0  0
   17.5013  -18.7551    4.5447 H   0  0  0  0  0  0  0  0  0  0  0  0
  2  1  1  1  0  0  0
  2  3  1  0  0  0  0
  2  6  1  0  0  0  0
  3  4  1  0  0  0  0
  4  5  1  0  0  0  0
  5  6  1  0  0  0  0
  5  7  1  0  0  0  0
  7  8  1  0  0  0  0
  8  9  2  0  0  0  0
  8 11  1  0  0  0  0
  9 10  1  0  0  0  0
 10 12  1  0  0  0  0
 11 13  1  0  0  0  0
 11 14  1  0  0  0  0
M  END
>  <CHROM.0>
-171.15620763,164.39638828,-62.33562585,59.53253734,-60.59977818,-51.00525763
-57.71190292,-49.60273412,-168.20693891,160.53521259

>  <CHROM.1>
142.82145381,-9.56614572,135.45420109,-93.25072768,20.69749120,-16.98033156
5.00361585,0.33102823,0.81051054,0.88565441

>  <Name>
P61812363

>  <RI>
0

>  <Rbt.Current_Directory>
/home/fstefaniak/projects/zuza/docking/adenine/1Y26

>  <Rbt.Executable>
rbdock ($Id: //depot/dev/client3/rdock/2013.1/src/exe/rbdock.cxx#4 $)

>  <Rbt.Library>
libRbt.so (2013.1, Build901 2013/11/27)

>  <Rbt.Parameter_File>
/home/fstefaniak/progs/rDock//data/scripts/dock_solv.prm

>  <Rbt.Receptor>
1y26.prm

>  <SCORE>
-54.6816

>  <SCORE.INTER>
-37.485

>  <SCORE.INTER.CONST>
1

>  <SCORE.INTER.POLAR>
-5.02993

>  <SCORE.INTER.ROT>
3

>  <SCORE.INTER.SOLV>
11.4939

>  <SCORE.INTER.VDW>
-17.6549

>  <SCORE.INTER.norm>
-3.40773

>  <SCORE.INTRA>
0.161818

>  <SCORE.INTRA.DIHEDRAL>
-0.400422

>  <SCORE.INTRA.DIHEDRAL.0>
3.92023

>  <SCORE.INTRA.POLAR>
0.114201

>  <SCORE.INTRA.POLAR.0>
-0.114201

>  <SCORE.INTRA.REPUL>
0.0910508

>  <SCORE.INTRA.REPUL.0>
0

>  <SCORE.INTRA.SOLV>
-0.424237

>  <SCORE.INTRA.SOLV.lig_0>
-10.4883

>  <SCORE.INTRA.VDW>
-0.269391

>  <SCORE.INTRA.VDW.0>
-0.538962

>  <SCORE.INTRA.norm>
0.0147107

>  <SCORE.RESTR>
0

>  <SCORE.RESTR.CAVITY>
0

>  <SCORE.RESTR.norm>
0

>  <SCORE.SYSTEM>
-17.3584

>  <SCORE.SYSTEM.CONST>
0

>  <SCORE.SYSTEM.DIHEDRAL>
6.66695

>  <SCORE.SYSTEM.POLAR>
-2.70559

>  <SCORE.SYSTEM.SOLV>
0.522464

>  <SCORE.SYSTEM.VDW>
-4.95007

>  <SCORE.SYSTEM.norm>
-1.57803

>  <SCORE.heavy>
11

>  <SCORE.norm>
-4.97105

$$$$
P61812363
 OpenBabel12072022103D
libRbt.so/2013.1/901 2013/11/27
 14 14  0  0  0  0  0  0  0  0999 V2000
   22.6953  -13.9463    5.3917 C   0  0  0  0  0  0  0  0  0  0  0  0
   22.1920  -14.7886    4.2260 C   0  0  1  0  0  0  0  0  0  0  0  0
   22.9972  -16.0823    4.0709 C   0  0  0  0  0  0  0  0  0  0  0  0
   21.9469  -17.1506    3.8248 C   0  0  0  0  0  0  0  0  0  0  0  0
   20.8434  -16.6920    4.6716 N   0  0  0  0  0  0  0  0  0  0  0  0
   20.7401  -15.2493    4.4051 C   0  0  0  0  0  0  0  0  0  0  0  0
   19.5928  -17.4092    4.3497 C   0  0  0  0  0  0  0  0  0  0  0  0
   19.4352  -18.6007    5.3027 C   0  0  0  0  0  0  0  0  0  0  0  0
   19.7478  -18.4402    6.5552 N   0  0  0  0  0  0  0  0  0  0  0  0
   19.5845  -19.6429    7.2629 O   0  0  0  0  0  0  0  0  0  0  0  0
   18.9953  -19.7862    4.7588 N   0  0  0  0  0  0  0  0  0  0  0  0
   19.1098  -19.3454    8.0611 H   0  0  0  0  0  0  0  0  0  0  0  0
   19.7383  -20.4790    4.7070 H   0  0  0  0  0  0  0  0  0  0  0  0
   18.1592  -20.1106    5.2324 H   0  0  0  0  0  0  0  0  0  0  0  0
  2  1  1  1  0  0  0
  2  3  1  0  0  0  0
  2  6  1  0  0  0  0
  3  4  1  0  0  0  0
  4  5  1  0  0  0  0
  5  6  1  0  0  0  0
  5  7  1  0  0  0  0
  7  8  1  0  0  0  0
  8  9  2  0  0  0  0
  8 11  1  0  0  0  0
  9 10  1  0  0  0  0
 10 12  1  0  0  0  0
 11 13  1  0  0  0  0
 11 14  1  0  0  0  0
M  END
>  <CHROM.0>
-28.30746145,169.06530536,-59.22598072,-53.88912815,-57.56802683,-58.97403005
-57.22115068,-53.06489357,-167.33587931,159.82668662

>  <CHROM.1>
94.88699795,40.57561424,107.77360727,-133.95767960,20.76863246,-17.13436563
5.03499789,-0.21307793,0.97832546,1.49590210

>  <Name>
P61812363

>  <RI>
0

>  <Rbt.Current_Directory>
/home/fstefaniak/projects/zuza/docking/adenine/1Y26

>  <Rbt.Executable>
rbdock ($Id: //depot/dev/client3/rdock/2013.1/src/exe/rbdock.cxx#4 $)

>  <Rbt.Library>
libRbt.so (2013.1, Build901 2013/11/27)

>  <Rbt.Parameter_File>
/home/fstefaniak/progs/rDock//data/scripts/dock_solv.prm

>  <Rbt.Receptor>
1y26.prm

>  <SCORE>
-52.6552

>  <SCORE.INTER>
-31.8112

>  <SCORE.INTER.CONST>
1

>  <SCORE.INTER.POLAR>
-4.15752

>  <SCORE.INTER.ROT>
3

>  <SCORE.INTER.SOLV>
12.5329

>  <SCORE.INTER.VDW>
-17.1267

>  <SCORE.INTER.norm>
-2.89193

>  <SCORE.INTRA>
-0.0198482

>  <SCORE.INTRA.DIHEDRAL>
0.300504

>  <SCORE.INTRA.DIHEDRAL.0>
3.92023

>  <SCORE.INTRA.POLAR>
0.114201

>  <SCORE.INTRA.POLAR.0>
-0.114201

>  <SCORE.INTRA.REPUL>
0

>  <SCORE.INTRA.REPUL.0>
0

>  <SCORE.INTRA.SOLV>
-0.379408

>  <SCORE.INTRA.SOLV.lig_0>
-10.4883

>  <SCORE.INTRA.VDW>
-0.36868

>  <SCORE.INTRA.VDW.0>
-0.538962

>  <SCORE.INTRA.norm>
-0.00180438

>  <SCORE.RESTR>
0

>  <SCORE.RESTR.CAVITY>
0

>  <SCORE.RESTR.norm>
0

>  <SCORE.SYSTEM>
-20.8241

>  <SCORE.SYSTEM.CONST>
0

>  <SCORE.SYSTEM.DIHEDRAL>
9.38207

>  <SCORE.SYSTEM.POLAR>
-3.70106

>  <SCORE.SYSTEM.SOLV>
0.634951

>  <SCORE.SYSTEM.VDW>
-4.8849

>  <SCORE.SYSTEM.norm>
-1.8931

>  <SCORE.heavy>
11

>  <SCORE.norm>
-4.78683

$$$$
P61812363
 OpenBabel12072022103D
libRbt.so/2013.1/901 2013/11/27
 14 14  0  0  0  0  0  0  0  0999 V2000
   22.2603  -13.8249    5.7827 C   0  0  0  0  0  0  0  0  0  0  0  0
   22.1040  -14.6365    4.5027 C   0  0  1  0  0  0  0  0  0  0  0  0
   23.1532  -15.7479    4.4033 C   0  0  0  0  0  0  0  0  0  0  0  0
   22.3722  -16.9596    3.9268 C   0  0  0  0  0  0  0  0  0  0  0  0
   21.0888  -16.7809    4.6092 N   0  0  0  0  0  0  0  0  0  0  0  0
   20.7552  -15.3615    4.4161 C   0  0  0  0  0  0  0  0  0  0  0  0
   20.0581  -17.6771    4.0466 C   0  0  0  0  0  0  0  0  0  0  0  0
   19.5054  -18.5730    5.1622 C   0  0  0  0  0  0  0  0  0  0  0  0
   19.5828  -18.1540    6.3912 N   0  0  0  0  0  0  0  0  0  0  0  0
   19.0719  -19.1193    7.2751 O   0  0  0  0  0  0  0  0  0  0  0  0
   18.9831  -19.7907    4.7892 N   0  0  0  0  0  0  0  0  0  0  0  0
   19.7970  -19.7706    7.3051 H   0  0  0  0  0  0  0  0  0  0  0  0
   19.6998  -20.5104    4.7338 H   0  0  0  0  0  0  0  0  0  0  0  0
   18.1930  -20.0376    5.3752 H   0  0  0  0  0  0  0  0  0  0  0  0
  2  1  1  1  0  0  0
  2  3  1  0  0  0  0
  2  6  1  0  0  0  0
  3  4  1  0  0  0  0
  4  5  1  0  0  0  0
  5  6  1  0  0  0  0
  5  7  1  0  0  0  0
  7  8  1  0  0  0  0
  8  9  2  0  0  0  0
  8 11  1  0  0  0  0
  9 10  1  0  0  0  0
 10 12  1  0  0  0  0
 11 13  1  0  0  0  0
 11 14  1  0  0  0  0
M  END
>  <CHROM.0>
-167.35729022,167.51782354,-61.50901330,-52.35140454,-174.10642188,-176.86703266
-61.10215036,-54.31041114,-168.36654752,159.81204739

>  <CHROM.1>
121.85966382,24.69596532,86.48079782,76.42882900,20.77810912,-17.02707949
5.07727863,0.32174758,0.91301570,0.90934734

>  <Name>
P61812363

>  <RI>
0

>  <Rbt.Current_Directory>
/home/fstefaniak/projects/zuza/docking/adenine/1Y26

>  <Rbt.Executable>
rbdock ($Id: //depot/dev/client3/rdock/2013.1/src/exe/rbdock.cxx#4 $)

>  <Rbt.Library>
libRbt.so (2013.1, Build901 2013/11/27)

>  <Rbt.Parameter_File>
/home/fstefaniak/progs/rDock//data/scripts/dock_solv.prm

>  <Rbt.Receptor>
1y26.prm

>  <SCORE>
-52.0696

>  <SCORE.INTER>
-32.2261

>  <SCORE.INTER.CONST>
1

>  <SCORE.INTER.POLAR>
-3.84678

>  <SCORE.INTER.ROT>
3

>  <SCORE.INTER.SOLV>
12.1979

>  <SCORE.INTER.VDW>
-18.3275

>  <SCORE.INTER.norm>
-2.92965

>  <SCORE.INTRA>
0.271991

>  <SCORE.INTRA.DIHEDRAL>
0.450401

>  <SCORE.INTRA.DIHEDRAL.0>
3.92023

>  <SCORE.INTRA.POLAR>
0.114201

>  <SCORE.INTRA.POLAR.0>
-0.114201

>  <SCORE.INTRA.REPUL>
0.024352

>  <SCORE.INTRA.REPUL.0>
0

>  <SCORE.INTRA.SOLV>
-0.430017

>  <SCORE.INTRA.SOLV.lig_0>
-10.4883

>  <SCORE.INTRA.VDW>
-0.248246

>  <SCORE.INTRA.VDW.0>
-0.538962

>  <SCORE.INTRA.norm>
0.0247265

>  <SCORE.RESTR>
0

>  <SCORE.RESTR.CAVITY>
0

>  <SCORE.RESTR.norm>
0

>  <SCORE.SYSTEM>
-20.1154

>  <SCORE.SYSTEM.CONST>
0

>  <SCORE.SYSTEM.DIHEDRAL>
6.47867

>  <SCORE.SYSTEM.POLAR>
-3.20749

>  <SCORE.SYSTEM.SOLV>
0.249998

>  <SCORE.SYSTEM.VDW>
-4.96154

>  <SCORE.SYSTEM.norm>
-1.82868

>  <SCORE.heavy>
11

>  <SCORE.norm>
-4.7336

$$$$
P62005643
 OpenBabel12072022103D
libRbt.so/2013.1/901 2013/11/27
 19 19  0  0  0  0  0  0  0  0999 V2000
   20.0156  -16.5880    5.4556 C   0  0  0  0  0  0  0  0  0  0  0  0
   19.9379  -18.0390    5.9323 C   0  0  0  0  0  0  0  0  0  0  0  0
   18.8223  -18.8130    5.2318 C   0  0  1  0  0  0  0  0  0  0  0  0
   18.7995  -18.6647    3.7120 C   0  0  0  0  0  0  0  0  0  0  0  0
   19.0106  -17.2235    3.2412 C   0  0  0  0  0  0  0  0  0  0  0  0
   20.1800  -16.5066    3.9330 C   0  0  2  0  0  0  0  0  0  0  0  0
   21.5392  -17.0847    3.5335 C   0  0  0  0  0  0  0  0  0  0  0  0
   21.6580  -17.9326    2.6533 O   0  0  0  0  0  0  0  0  0  0  0  0
   22.5764  -16.6850    4.3328 N   0  0  0  0  0  0  0  0  0  0  0  0
   23.9094  -16.4562    3.8023 C   0  0  0  0  0  0  0  0  0  0  0  0
   24.9013  -17.4795    4.3678 C   0  0  0  0  0  0  0  0  0  0  0  0
   25.5917  -16.9472    5.5503 N   0  0  0  0  0  0  0  0  0  0  0  0
   18.9906  -20.2591    5.5511 N   0  3  0  0  0  0  0  0  0  0  0  0
   18.1182  -20.7764    5.3636 H   0  0  0  0  0  0  0  0  0  0  0  0
   19.7334  -20.6937    4.9894 H   0  0  0  0  0  0  0  0  0  0  0  0
   19.2205  -20.4045    6.5425 H   0  0  0  0  0  0  0  0  0  0  0  0
   22.3948  -16.2323    5.2253 H   0  0  0  0  0  0  0  0  0  0  0  0
   26.1619  -16.1469    5.2694 H   0  0  0  0  0  0  0  0  0  0  0  0
   26.2618  -17.6463    5.8782 H   0  0  0  0  0  0  0  0  0  0  0  0
  1  2  1  0  0  0  0
  1  6  1  0  0  0  0
  2  3  1  0  0  0  0
  3  4  1  0  0  0  0
  3 13  1  6  0  0  0
  4  5  1  0  0  0  0
  5  6  1  0  0  0  0
  6  7  1  1  0  0  0
  7  8  2  0  0  0  0
  7  9  1  0  0  0  0
  9 10  1  0  0  0  0
  9 17  1  0  0  0  0
 10 11  1  0  0  0  0
 11 12  1  0  0  0  0
 12 18  1  0  0  0  0
 12 19  1  0  0  0  0
 13 14  1  0  0  0  0
 13 15  1  0  0  0  0
 13 16  1  0  0  0  0
M  CHG  1  13   1
M  END
>  <CHROM.0>
-45.06224132,-51.46945445,-53.88699961,-50.04199855,-171.79434135,-176.71289532
-55.74688451,-49.84783250,-165.98696387,162.61489810

>  <CHROM.1>
161.89493513,129.50133446,-144.97980450,-114.05978167,-94.42107381,-64.52913893
21.26959795,-17.63333481,4.43313636,2.93956369,0.22020899,2.23059484

>  <Name>
P62005643

>  <RI>
0

>  <Rbt.Current_Directory>
/home/fstefaniak/projects/zuza/docking/adenine/1Y26

>  <Rbt.Executable>
rbdock ($Id: //depot/dev/client3/rdock/2013.1/src/exe/rbdock.cxx#4 $)

>  <Rbt.Library>
libRbt.so (2013.1, Build901 2013/11/27)

>  <Rbt.Parameter_File>
/home/fstefaniak/progs/rDock//data/scripts/dock_solv.prm

>  <Rbt.Receptor>
1y26.prm

>  <SCORE>
-56.8357

>  <SCORE.INTER>
-38.2554

>  <SCORE.INTER.CONST>
1

>  <SCORE.INTER.POLAR>
-5.63024

>  <SCORE.INTER.ROT>
5

>  <SCORE.INTER.SOLV>
27.8593

>  <SCORE.INTER.VDW>
-22.9559

>  <SCORE.INTER.norm>
-2.94273

>  <SCORE.INTRA>
2.82652

>  <SCORE.INTRA.DIHEDRAL>
4.24894

>  <SCORE.INTRA.DIHEDRAL.0>
2.87296

>  <SCORE.INTRA.POLAR>
0.0565066

>  <SCORE.INTRA.POLAR.0>
-0.0565066

>  <SCORE.INTRA.REPUL>
0

>  <SCORE.INTRA.REPUL.0>
0

>  <SCORE.INTRA.SOLV>
-0.448337

>  <SCORE.INTRA.SOLV.lig_0>
-33.7977

>  <SCORE.INTRA.VDW>
0.734099

>  <SCORE.INTRA.VDW.0>
-0.0611566

>  <SCORE.INTRA.norm>
0.217425

>  <SCORE.RESTR>
0

>  <SCORE.RESTR.CAVITY>
0

>  <SCORE.RESTR.norm>
0

>  <SCORE.SYSTEM>
-21.4068

>  <SCORE.SYSTEM.CONST>
0

>  <SCORE.SYSTEM.DIHEDRAL>
7.13204

>  <SCORE.SYSTEM.POLAR>
-3.57039

>  <SCORE.SYSTEM.SOLV>
0.386278

>  <SCORE.SYSTEM.VDW>
-4.87601

>  <SCORE.SYSTEM.norm>
-1.64668

>  <SCORE.heavy>
13

>  <SCORE.norm>
-4.37198

$$$$
P62005643
 OpenBabel12072022103D
libRbt.so/2013.1/901 2013/11/27
 19 19  0  0  0  0  0  0  0  0999 V2000
   20.2084  -16.6221    5.2397 C   0  0  0  0  0  0  0  0  0  0  0  0
   20.1076  -18.0504    5.7767 C   0  0  0  0  0  0  0  0  0  0  0  0
   18.8117  -18.7347    5.3443 C   0  0  1  0  0  0  0  0  0  0  0  0
   18.4926  -18.6151    3.8557 C   0  0  0  0  0  0  0  0  0  0  0  0
   18.7239  -17.2084    3.2981 C   0  0  0  0  0  0  0  0  0  0  0  0
   20.0657  -16.5861    3.7132 C   0  0  2  0  0  0  0  0  0  0  0  0
   21.2617  -17.2920    3.0707 C   0  0  0  0  0  0  0  0  0  0  0  0
   21.1308  -18.1111    2.1653 O   0  0  0  0  0  0  0  0  0  0  0  0
   22.4588  -17.0408    3.6856 N   0  0  0  0  0  0  0  0  0  0  0  0
   22.8922  -15.6896    3.9974 C   0  0  0  0  0  0  0  0  0  0  0  0
   24.2344  -15.7079    4.7384 C   0  0  0  0  0  0  0  0  0  0  0  0
   25.1454  -16.7020    4.1552 N   0  0  0  0  0  0  0  0  0  0  0  0
   18.9192  -20.1834    5.6776 N   0  3  0  0  0  0  0  0  0  0  0  0
   18.0132  -20.6562    5.5386 H   0  0  0  0  0  0  0  0  0  0  0  0
   19.6112  -20.6638    5.0889 H   0  0  0  0  0  0  0  0  0  0  0  0
   19.1875  -20.3279    6.6594 H   0  0  0  0  0  0  0  0  0  0  0  0
   22.9244  -17.7673    4.2241 H   0  0  0  0  0  0  0  0  0  0  0  0
   26.1041  -16.3544    4.2245 H   0  0  0  0  0  0  0  0  0  0  0  0
   24.9596  -16.7648    3.1518 H   0  0  0  0  0  0  0  0  0  0  0  0
  1  2  1  0  0  0  0
  1  6  1  0  0  0  0
  2  3  1  0  0  0  0
  3  4  1  0  0  0  0
  3 13  1  6  0  0  0
  4  5  1  0  0  0  0
  5  6  1  0  0  0  0
  6  7  1  6  0  0  0
  7  8  2  0  0  0  0
  7  9  1  0  0  0  0
  9 10  1  0  0  0  0
  9 17  1  0  0  0  0
 10 11  1  0  0  0  0
 11 12  1  0  0  0  0
 12 18  1  0  0  0  0
 12 19  1  0  0  0  0
 13 14  1  0  0  0  0
 13 15  1  0  0  0  0
 13 16  1  0  0  0  0
M  CHG  1  13   1
M  END
>  <CHROM.0>
-47.48577309,42.13974907,-54.86244529,-53.62947594,60.04086443,-54.43197697
-58.79080694,-176.04325452,-164.78375440,163.39290444

>  <CHROM.1>
171.17140995,133.61926103,-49.54723804,177.40308825,41.22584573,146.16028343
20.99981249,-17.47559013,4.21585109,-2.84989741,-0.37436607,-1.15547970

>  <Name>
P62005643

>  <RI>
0

>  <Rbt.Current_Directory>
/home/fstefaniak/projects/zuza/docking/adenine/1Y26

>  <Rbt.Executable>
rbdock ($Id: //depot/dev/client3/rdock/2013.1/src/exe/rbdock.cxx#4 $)

>  <Rbt.Library>
libRbt.so (2013.1, Build901 2013/11/27)

>  <Rbt.Parameter_File>
/home/fstefaniak/progs/rDock//data/scripts/dock_solv.prm

>  <Rbt.Receptor>
1y26.prm

>  <SCORE>
-48.9751

>  <SCORE.INTER>
-31.9805

>  <SCORE.INTER.CONST>
1

>  <SCORE.INTER.POLAR>
-4.68923

>  <SCORE.INTER.ROT>
5

>  <SCORE.INTER.SOLV>
25.6792

>  <SCORE.INTER.VDW>
-21.1826

>  <SCORE.INTER.norm>
-2.46003

>  <SCORE.INTRA>
2.98916

>  <SCORE.INTRA.DIHEDRAL>
2.33493

>  <SCORE.INTRA.DIHEDRAL.0>
2.87296

>  <SCORE.INTRA.POLAR>
0.0565066

>  <SCORE.INTRA.POLAR.0>
-0.0565066

>  <SCORE.INTRA.REPUL>
0

>  <SCORE.INTRA.REPUL.0>
0

>  <SCORE.INTRA.SOLV>
0.0140178

>  <SCORE.INTRA.SOLV.lig_0>
-33.7977

>  <SCORE.INTRA.VDW>
1.62257

>  <SCORE.INTRA.VDW.0>
-0.0611566

>  <SCORE.INTRA.norm>
0.229936

>  <SCORE.RESTR>
0

>  <SCORE.RESTR.CAVITY>
0

>  <SCORE.RESTR.norm>
0

>  <SCORE.SYSTEM>
-19.9838

>  <SCORE.SYSTEM.CONST>
0

>  <SCORE.SYSTEM.DIHEDRAL>
6.96675

>  <SCORE.SYSTEM.POLAR>
-3.52424

>  <SCORE.SYSTEM.SOLV>
0.361238

>  <SCORE.SYSTEM.VDW>
-4.01774

>  <SCORE.SYSTEM.norm>
-1.53722

>  <SCORE.heavy>
13

>  <SCORE.norm>
-3.76732

$$$$
P62005643
 OpenBabel12072022103D
libRbt.so/2013.1/901 2013/11/27
 19 19  0  0  0  0  0  0  0  0999 V2000
   20.1560  -16.5835    5.3347 C   0  0  0  0  0  0  0  0  0  0  0  0
   20.0459  -18.0300    5.8185 C   0  0  0  0  0  0  0  0  0  0  0  0
   18.8198  -18.7353    5.2408 C   0  0  1  0  0  0  0  0  0  0  0  0
   18.6448  -18.5782    3.7319 C   0  0  0  0  0  0  0  0  0  0  0  0
   18.8875  -17.1491    3.2399 C   0  0  0  0  0  0  0  0  0  0  0  0
   20.1628  -16.5039    3.8033 C   0  0  2  0  0  0  0  0  0  0  0  0
   21.4366  -17.1568    3.2626 C   0  0  0  0  0  0  0  0  0  0  0  0
   21.4086  -18.0562    2.4270 O   0  0  0  0  0  0  0  0  0  0  0  0
   22.5842  -16.7552    3.8920 N   0  0  0  0  0  0  0  0  0  0  0  0
   22.7598  -15.3954    4.3723 C   0  0  0  0  0  0  0  0  0  0  0  0
   24.2392  -14.9945    4.3374 C   0  0  0  0  0  0  0  0  0  0  0  0
   24.6677  -14.6770    2.9685 N   0  0  0  0  0  0  0  0  0  0  0  0
   18.9375  -20.1903    5.5420 N   0  3  0  0  0  0  0  0  0  0  0  0
   19.6762  -20.6218    4.9659 H   0  0  0  0  0  0  0  0  0  0  0  0
   19.1751  -20.3618    6.5270 H   0  0  0  0  0  0  0  0  0  0  0  0
   18.0637  -20.6919    5.3376 H   0  0  0  0  0  0  0  0  0  0  0  0
   23.2003  -17.4381    4.3262 H   0  0  0  0  0  0  0  0  0  0  0  0
   25.6864  -14.7414    2.9162 H   0  0  0  0  0  0  0  0  0  0  0  0
   24.4556  -13.6947    2.7806 H   0  0  0  0  0  0  0  0  0  0  0  0
  1  2  1  0  0  0  0
  1  6  1  0  0  0  0
  2  3  1  0  0  0  0
  3  4  1  0  0  0  0
  3 13  1  6  0  0  0
  4  5  1  0  0  0  0
  5  6  1  0  0  0  0
  6  7  1  6  0  0  0
  7  8  2  0  0  0  0
  7  9  1  0  0  0  0
  9 10  1  0  0  0  0
  9 17  1  0  0  0  0
 10 11  1  0  0  0  0
 11 12  1  0  0  0  0
 12 18  1  0  0  0  0
 12 19  1  0  0  0  0
 13 14  1  0  0  0  0
 13 15  1  0  0  0  0
 13 16  1  0  0  0  0
M  CHG  1  13   1
M  END
>  <CHROM.0>
-48.91331670,-59.97981355,-54.82755878,-56.67411330,-58.73015849,-54.33698737
-54.16046752,-175.06379026,-53.04157326,161.66910297

>  <CHROM.1>
-71.66112589,125.51811677,-35.29983280,-150.05169556,76.91904249,-160.07281127
21.01984055,-17.16870724,4.14947801,-2.91229995,-0.63209111,-1.51258746

>  <Name>
P62005643

>  <RI>
0

>  <Rbt.Current_Directory>
/home/fstefaniak/projects/zuza/docking/adenine/1Y26

>  <Rbt.Executable>
rbdock ($Id: //depot/dev/client3/rdock/2013.1/src/exe/rbdock.cxx#4 $)

>  <Rbt.Library>
libRbt.so (2013.1, Build901 2013/11/27)

>  <Rbt.Parameter_File>
/home/fstefaniak/progs/rDock//data/scripts/dock_solv.prm

>  <Rbt.Receptor>
1y26.prm

>  <SCORE>
-48.7135

>  <SCORE.INTER>
-34.0071

>  <SCORE.INTER.CONST>
1

>  <SCORE.INTER.POLAR>
-4.89671

>  <SCORE.INTER.ROT>
5

>  <SCORE.INTER.SOLV>
24.6516

>  <SCORE.INTER.VDW>
-21.4996

>  <SCORE.INTER.norm>
-2.61593

>  <SCORE.INTRA>
2.11591

>  <SCORE.INTRA.DIHEDRAL>
1.12544

>  <SCORE.INTRA.DIHEDRAL.0>
2.87296

>  <SCORE.INTRA.POLAR>
0.0565066

>  <SCORE.INTRA.POLAR.0>
-0.0565066

>  <SCORE.INTRA.REPUL>
0

>  <SCORE.INTRA.REPUL.0>
0

>  <SCORE.INTRA.SOLV>
-0.420519

>  <SCORE.INTRA.SOLV.lig_0>
-33.7977

>  <SCORE.INTRA.VDW>
1.57133

>  <SCORE.INTRA.VDW.0>
-0.0611566

>  <SCORE.INTRA.norm>
0.162762

>  <SCORE.RESTR>
0

>  <SCORE.RESTR.CAVITY>
0

>  <SCORE.RESTR.norm>
0

>  <SCORE.SYSTEM>
-16.8223

>  <SCORE.SYSTEM.CONST>
0

>  <SCORE.SYSTEM.DIHEDRAL>
4.91441

>  <SCORE.SYSTEM.POLAR>
-2.3755

>  <SCORE.SYSTEM.SOLV>
0.651565

>  <SCORE.SYSTEM.VDW>
-5.15186

>  <SCORE.SYSTEM.norm>
-1.29402

>  <SCORE.heavy>
13

>  <SCORE.norm>
-3.7472

$$$$
P64104804
 OpenBabel12072022103D
libRbt.so/2013.1/901 2013/11/27
 11 11  0  0  0  0  0  0  0  0999 V2000
   22.5168  -15.7370    4.3714 C   0  0  0  0  0  0  0  0  0  0  0  0
   21.0323  -15.6959    4.6946 C   0  0  0  0  0  0  0  0  0  0  0  0
   20.4002  -16.9953    4.5614 N   0  0  0  0  0  0  0  0  0  0  0  0
   19.9053  -17.7345    5.6945 C   0  0  0  0  0  0  0  0  0  0  0  0
   19.5056  -19.0672    5.0823 C   0  0  2  0  0  0  0  0  0  0  0  0
   19.0328  -18.6827    3.6757 C   0  0  0  0  0  0  0  0  0  0  0  0
   19.8444  -17.4469    3.3700 C   0  0  0  0  0  0  0  0  0  0  0  0
   19.9397  -16.9172    2.2755 O   0  0  0  0  0  0  0  0  0  0  0  0
   18.4565  -19.8038    5.8963 C   0  0  0  0  0  0  0  0  0  0  0  0
   17.2139  -19.1179    5.8342 O   0  0  0  0  0  0  0  0  0  0  0  0
   17.2565  -18.3602    6.4433 H   0  0  0  0  0  0  0  0  0  0  0  0
  1  2  1  0  0  0  0
  2  3  1  0  0  0  0
  3  4  1  0  0  0  0
  3  7  1  0  0  0  0
  4  5  1  0  0  0  0
  5  6  1  0  0  0  0
  5  9  1  1  0  0  0
  6  7  1  0  0  0  0
  7  8  2  0  0  0  0
  9 10  1  0  0  0  0
 10 11  1  0  0  0  0
M  END
>  <CHROM.0>
-57.79177278,-60.19588105,-54.71965694,-52.81091252,-56.43601494,-59.23539364
-58.40608473,-50.63220280,-167.20782461,160.45067074

>  <CHROM.1>
111.35782897,68.86183217,-78.35614876,19.75392548,-17.71304047,4.55696253
-0.45224914,0.72213037,1.73599870

>  <Name>
P64104804

>  <RI>
0

>  <Rbt.Current_Directory>
/home/fstefaniak/projects/zuza/docking/adenine/1Y26

>  <Rbt.Executable>
rbdock ($Id: //depot/dev/client3/rdock/2013.1/src/exe/rbdock.cxx#4 $)

>  <Rbt.Library>
libRbt.so (2013.1, Build901 2013/11/27)

>  <Rbt.Parameter_File>
/home/fstefaniak/progs/rDock//data/scripts/dock_solv.prm

>  <Rbt.Receptor>
1y26.prm

>  <SCORE>
-45.8453

>  <SCORE.INTER>
-23.4025

>  <SCORE.INTER.CONST>
1

>  <SCORE.INTER.POLAR>
-2.77594

>  <SCORE.INTER.ROT>
2

>  <SCORE.INTER.SOLV>
10.4875

>  <SCORE.INTER.VDW>
-14.7777

>  <SCORE.INTER.norm>
-2.34025

>  <SCORE.INTRA>
-0.236422

>  <SCORE.INTRA.DIHEDRAL>
-0.522274

>  <SCORE.INTRA.DIHEDRAL.0>
3.70616

>  <SCORE.INTRA.POLAR>
0

>  <SCORE.INTRA.POLAR.0>
0

>  <SCORE.INTRA.REPUL>
0

>  <SCORE.INTRA.REPUL.0>
0

>  <SCORE.INTRA.SOLV>
0.400593

>  <SCORE.INTRA.SOLV.lig_0>
-11.2307

>  <SCORE.INTRA.VDW>
-0.175582

>  <SCORE.INTRA.VDW.0>
-0.031674

>  <SCORE.INTRA.norm>
-0.0236422

>  <SCORE.RESTR>
0

>  <SCORE.RESTR.CAVITY>
0

>  <SCORE.RESTR.norm>
0

>  <SCORE.SYSTEM>
-22.2063

>  <SCORE.SYSTEM.CONST>
0

>  <SCORE.SYSTEM.DIHEDRAL>
5.26105

>  <SCORE.SYSTEM.POLAR>
-3.40264

>  <SCORE.SYSTEM.SOLV>
0.658506

>  <SCORE.SYSTEM.VDW>
-5.43528

>  <SCORE.SYSTEM.norm>
-2.22063

>  <SCORE.heavy>
10

>  <SCORE.norm>
-4.58453

$$$$
P64104804
 OpenBabel12072022103D
libRbt.so/2013.1/901 2013/11/27
 11 11  0  0  0  0  0  0  0  0999 V2000
   22.5540  -15.7097    4.3819 C   0  0  0  0  0  0  0  0  0  0  0  0
   21.0710  -15.6777    4.7130 C   0  0  0  0  0  0  0  0  0  0  0  0
   20.4440  -16.9789    4.5735 N   0  0  0  0  0  0  0  0  0  0  0  0
   19.9300  -17.7146    5.7004 C   0  0  0  0  0  0  0  0  0  0  0  0
   19.5442  -19.0505    5.0863 C   0  0  2  0  0  0  0  0  0  0  0  0
   19.0964  -18.6726    3.6698 C   0  0  0  0  0  0  0  0  0  0  0  0
   19.9110  -17.4364    3.3740 C   0  0  0  0  0  0  0  0  0  0  0  0
   20.0253  -16.9108    2.2793 O   0  0  0  0  0  0  0  0  0  0  0  0
   18.4818  -19.7861    5.8839 C   0  0  0  0  0  0  0  0  0  0  0  0
   17.2330  -19.1177    5.7745 O   0  0  0  0  0  0  0  0  0  0  0  0
   17.2487  -18.3489    6.3707 H   0  0  0  0  0  0  0  0  0  0  0  0
  1  2  1  0  0  0  0
  2  3  1  0  0  0  0
  3  4  1  0  0  0  0
  3  7  1  0  0  0  0
  4  5  1  0  0  0  0
  5  6  1  0  0  0  0
  5  9  1  1  0  0  0
  6  7  1  0  0  0  0
  7  8  2  0  0  0  0
  9 10  1  0  0  0  0
 10 11  1  0  0  0  0
M  END
>  <CHROM.0>
-49.61468163,-61.95689898,-51.74014153,-50.65816230,-56.54690528,-60.10967721
-59.52918656,-52.79554282,-166.33196110,162.04320656

>  <CHROM.1>
112.85552159,70.03100185,-78.37563721,19.79777901,-17.69891681,4.55378477
-0.43014823,0.72759480,1.71794408

>  <Name>
P64104804

>  <RI>
0

>  <Rbt.Current_Directory>
/home/fstefaniak/projects/zuza/docking/adenine/1Y26

>  <Rbt.Executable>
rbdock ($Id: //depot/dev/client3/rdock/2013.1/src/exe/rbdock.cxx#4 $)

>  <Rbt.Library>
libRbt.so (2013.1, Build901 2013/11/27)

>  <Rbt.Parameter_File>
/home/fstefaniak/progs/rDock//data/scripts/dock_solv.prm

>  <Rbt.Receptor>
1y26.prm

>  <SCORE>
-45.8174

>  <SCORE.INTER>
-23.4715

>  <SCORE.INTER.CONST>
1

>  <SCORE.INTER.POLAR>
-2.73086

>  <SCORE.INTER.ROT>
2

>  <SCORE.INTER.SOLV>
10.4793

>  <SCORE.INTER.VDW>
-14.9712

>  <SCORE.INTER.norm>
-2.34715

>  <SCORE.INTRA>
-0.154018

>  <SCORE.INTRA.DIHEDRAL>
-0.387897

>  <SCORE.INTRA.DIHEDRAL.0>
3.70616

>  <SCORE.INTRA.POLAR>
0

>  <SCORE.INTRA.POLAR.0>
0

>  <SCORE.INTRA.REPUL>
0

>  <SCORE.INTRA.REPUL.0>
0

>  <SCORE.INTRA.SOLV>
0.402899

>  <SCORE.INTRA.SOLV.lig_0>
-11.2307

>  <SCORE.INTRA.VDW>
-0.16152

>  <SCORE.INTRA.VDW.0>
-0.031674

>  <SCORE.INTRA.norm>
-0.0154018

>  <SCORE.RESTR>
0

>  <SCORE.RESTR.CAVITY>
0

>  <SCORE.RESTR.norm>
0

>  <SCORE.SYSTEM>
-22.1919

>  <SCORE.SYSTEM.CONST>
0

>  <SCORE.SYSTEM.DIHEDRAL>
5.80646

>  <SCORE.SYSTEM.POLAR>
-3.50745

>  <SCORE.SYSTEM.SOLV>
0.671153

>  <SCORE.SYSTEM.VDW>
-5.2623

>  <SCORE.SYSTEM.norm>
-2.21919

>  <SCORE.heavy>
10

>  <SCORE.norm>
-4.58174

$$$$
P64104804
 OpenBabel12072022103D
libRbt.so/2013.1/901 2013/11/27
 11 11  0  0  0  0  0  0  0  0999 V2000
   22.4347  -15.8009    4.3366 C   0  0  0  0  0  0  0  0  0  0  0  0
   20.9947  -15.6732    4.8055 C   0  0  0  0  0  0  0  0  0  0  0  0
   20.2377  -16.8955    4.6090 N   0  0  0  0  0  0  0  0  0  0  0  0
   19.9513  -17.8094    5.6851 C   0  0  0  0  0  0  0  0  0  0  0  0
   19.3075  -18.9858    4.9693 C   0  0  2  0  0  0  0  0  0  0  0  0
   18.5621  -18.3257    3.8038 C   0  0  0  0  0  0  0  0  0  0  0  0
   19.3875  -17.0923    3.5269 C   0  0  0  0  0  0  0  0  0  0  0  0
   19.2769  -16.3732    2.5479 O   0  0  0  0  0  0  0  0  0  0  0  0
   18.4112  -19.8130    5.8739 C   0  0  0  0  0  0  0  0  0  0  0  0
   17.1414  -19.1909    6.0112 O   0  0  0  0  0  0  0  0  0  0  0  0
   17.2507  -18.4014    6.5694 H   0  0  0  0  0  0  0  0  0  0  0  0
  1  2  1  0  0  0  0
  2  3  1  0  0  0  0
  3  4  1  0  0  0  0
  3  7  1  0  0  0  0
  4  5  1  0  0  0  0
  5  6  1  0  0  0  0
  5  9  1  1  0  0  0
  6  7  1  0  0  0  0
  7  8  2  0  0  0  0
  9 10  1  0  0  0  0
 10 11  1  0  0  0  0
M  END
>  <CHROM.0>
-49.93045291,-62.27689839,-51.70949486,-54.14793756,-56.99469323,-58.14838534
-59.56782204,-52.53444542,-166.62339309,159.49259953

>  <CHROM.1>
101.87922447,80.57415847,-72.09304327,19.54114290,-17.59155468,4.63225776
-0.67941634,0.55762929,2.12096058

>  <Name>
P64104804

>  <RI>
0

>  <Rbt.Current_Directory>
/home/fstefaniak/projects/zuza/docking/adenine/1Y26

>  <Rbt.Executable>
rbdock ($Id: //depot/dev/client3/rdock/2013.1/src/exe/rbdock.cxx#4 $)

>  <Rbt.Library>
libRbt.so (2013.1, Build901 2013/11/27)

>  <Rbt.Parameter_File>
/home/fstefaniak/progs/rDock//data/scripts/dock_solv.prm

>  <Rbt.Receptor>
1y26.prm

>  <SCORE>
-45.5119

>  <SCORE.INTER>
-23.3082

>  <SCORE.INTER.CONST>
1

>  <SCORE.INTER.POLAR>
-2.75522

>  <SCORE.INTER.ROT>
2

>  <SCORE.INTER.SOLV>
11.1304

>  <SCORE.INTER.VDW>
-14.9982

>  <SCORE.INTER.norm>
-2.33082

>  <SCORE.INTRA>
0.0168964

>  <SCORE.INTRA.DIHEDRAL>
-0.462974

>  <SCORE.INTRA.DIHEDRAL.0>
3.70616

>  <SCORE.INTRA.POLAR>
0

>  <SCORE.INTRA.POLAR.0>
0

>  <SCORE.INTRA.REPUL>
0

>  <SCORE.INTRA.REPUL.0>
0

>  <SCORE.INTRA.SOLV>
0.34969

>  <SCORE.INTRA.SOLV.lig_0>
-11.2307

>  <SCORE.INTRA.VDW>
0.0735381

>  <SCORE.INTRA.VDW.0>
-0.031674

>  <SCORE.INTRA.norm>
0.00168964

>  <SCORE.RESTR>
0

>  <SCORE.RESTR.CAVITY>
0

>  <SCORE.RESTR.norm>
0

>  <SCORE.SYSTEM>
-22.2206

>  <SCORE.SYSTEM.CONST>
0

>  <SCORE.SYSTEM.DIHEDRAL>
5.90498

>  <SCORE.SYSTEM.POLAR>
-3.50105

>  <SCORE.SYSTEM.SOLV>
0.666009

>  <SCORE.SYSTEM.VDW>
-5.33388

>  <SCORE.SYSTEM.norm>
-2.22206

>  <SCORE.heavy>
10

>  <SCORE.norm>
-4.55119

$$$$
P64169147
 OpenBabel12072022103D
libRbt.so/2013.1/901 2013/11/27
 19 19  0  0  0  0  0  0  0  0999 V2000
   21.1487  -14.8179    4.5661 C   0  0  0  0  0  0  0  0  0  0  0  0
   22.3532  -13.8803    4.6294 C   0  0  2  0  0  0  0  0  0  0  0  0
   22.1544  -12.7818    3.5632 C   0  0  0  0  0  0  0  0  0  0  0  0
   23.3033  -11.7742    3.5291 C   0  0  0  0  0  0  0  0  0  0  0  0
   24.6710  -12.4435    3.3675 C   0  0  1  0  0  0  0  0  0  0  0  0
   24.8380  -13.5480    4.4105 C   0  0  0  0  0  0  0  0  0  0  0  0
   23.6985  -14.5168    4.4109 N   0  0  0  0  0  0  0  0  0  0  0  0
   23.9566  -15.8421    4.1870 C   0  0  0  0  0  0  0  0  0  0  0  0
   24.9522  -16.2197    3.3747 N   0  3  0  0  0  0  0  0  0  0  0  0
   25.1944  -17.1838    3.2064 H   0  0  0  0  0  0  0  0  0  0  0  0
   25.3256  -15.5313    2.7098 H   0  0  0  0  0  0  0  0  0  0  0  0
   23.2580  -16.8183    4.7815 N   0  0  0  0  0  0  0  0  0  0  0  0
   24.9159  -13.0042    1.9742 C   0  0  0  0  0  0  0  0  0  0  0  0
   24.5052  -14.1079    1.6188 O   0  0  0  0  0  0  0  0  0  0  0  0
   25.6527  -12.2301    1.1348 N   0  0  0  0  0  0  0  0  0  0  0  0
   22.6414  -16.6154    5.5537 H   0  0  0  0  0  0  0  0  0  0  0  0
   23.4334  -17.7912    4.5723 H   0  0  0  0  0  0  0  0  0  0  0  0
   26.1371  -11.3900    1.4260 H   0  0  0  0  0  0  0  0  0  0  0  0
   25.8825  -12.5970    0.2176 H   0  0  0  0  0  0  0  0  0  0  0  0
  2  3  1  0  0  0  0
  2  7  1  0  0  0  0
  2  1  1  6  0  0  0
  3  4  1  0  0  0  0
  4  5  1  0  0  0  0
  5  6  1  0  0  0  0
  5 13  1  6  0  0  0
  6  7  1  0  0  0  0
  7  8  1  0  0  0  0
  8  9  2  0  0  0  0
  8 12  1  0  0  0  0
  9 10  1  0  0  0  0
  9 11  1  0  0  0  0
 12 16  1  0  0  0  0
 12 17  1  0  0  0  0
 13 14  2  0  0  0  0
 13 15  1  0  0  0  0
 15 18  1  0  0  0  0
 15 19  1  0  0  0  0
M  CHG  1   9   1
M  END
>  <CHROM.0>
65.27988211,-61.93584591,-57.74758606,-52.32790915,-57.09893163,59.62727347
-56.41839209,-49.58875173,-166.63948106,161.81319779

>  <CHROM.1>
-83.06886477,23.81433187,-14.04262429,3.47508019,2.14991257,-0.60455505,2.82493541

>  <Name>
P64169147

>  <RI>
0

>  <Rbt.Current_Directory>
/home/fstefaniak/projects/zuza/docking/adenine/1Y26

>  <Rbt.Executable>
rbdock ($Id: //depot/dev/client3/rdock/2013.1/src/exe/rbdock.cxx#4 $)

>  <Rbt.Library>
libRbt.so (2013.1, Build901 2013/11/27)

>  <Rbt.Parameter_File>
/home/fstefaniak/progs/rDock//data/scripts/dock_solv.prm

>  <Rbt.Receptor>
1y26.prm

>  <SCORE>
-38.711

>  <SCORE.INTER>
-25.4348

>  <SCORE.INTER.CONST>
1

>  <SCORE.INTER.POLAR>
-4.33145

>  <SCORE.INTER.ROT>
1

>  <SCORE.INTER.SOLV>
17.482

>  <SCORE.INTER.VDW>
-12.6124

>  <SCORE.INTER.norm>
-1.95652

>  <SCORE.INTRA>
3.46228

>  <SCORE.INTRA.DIHEDRAL>
2.41508

>  <SCORE.INTRA.DIHEDRAL.0>
0.558727

>  <SCORE.INTRA.POLAR>
0.926325

>  <SCORE.INTRA.POLAR.0>
-1.16588

>  <SCORE.INTRA.REPUL>
0

>  <SCORE.INTRA.REPUL.0>
0

>  <SCORE.INTRA.SOLV>
-0.143699

>  <SCORE.INTRA.SOLV.lig_0>
-30.4319

>  <SCORE.INTRA.VDW>
-0.82291

>  <SCORE.INTRA.VDW.0>
0.101403

>  <SCORE.INTRA.norm>
0.266329

>  <SCORE.RESTR>
3.63498

>  <SCORE.RESTR.CAVITY>
3.63498

>  <SCORE.RESTR.norm>
0.279614

>  <SCORE.SYSTEM>
-20.3734

>  <SCORE.SYSTEM.CONST>
0

>  <SCORE.SYSTEM.DIHEDRAL>
5.3042

>  <SCORE.SYSTEM.POLAR>
-3.21988

>  <SCORE.SYSTEM.SOLV>
0.477409

>  <SCORE.SYSTEM.VDW>
-4.77656

>  <SCORE.SYSTEM.norm>
-1.56719

>  <SCORE.heavy>
13

>  <SCORE.norm>
-2.97777

$$$$
P64169147
 OpenBabel12072022103D
libRbt.so/2013.1/901 2013/11/27
 19 19  0  0  0  0  0  0  0  0999 V2000
   21.1321  -15.1222    4.7634 C   0  0  0  0  0  0  0  0  0  0  0  0
   22.2700  -14.1060    4.8454 C   0  0  2  0  0  0  0  0  0  0  0  0
   21.8948  -12.9025    3.9545 C   0  0  0  0  0  0  0  0  0  0  0  0
   22.9634  -11.8094    3.9544 C   0  0  0  0  0  0  0  0  0  0  0  0
   24.3519  -12.3412    3.5884 C   0  0  1  0  0  0  0  0  0  0  0  0
   24.6936  -13.5503    4.4583 C   0  0  0  0  0  0  0  0  0  0  0  0
   23.6286  -14.6000    4.4296 N   0  0  0  0  0  0  0  0  0  0  0  0
   23.9542  -15.8619    4.0115 C   0  0  0  0  0  0  0  0  0  0  0  0
   24.8908  -16.0538    3.0736 N   0  3  0  0  0  0  0  0  0  0  0  0
   25.1813  -16.9667    2.7594 H   0  0  0  0  0  0  0  0  0  0  0  0
   25.1505  -15.2599    2.4754 H   0  0  0  0  0  0  0  0  0  0  0  0
   23.3846  -16.9577    4.5303 N   0  0  0  0  0  0  0  0  0  0  0  0
   24.4998  -12.7020    2.1174 C   0  0  0  0  0  0  0  0  0  0  0  0
   24.5784  -13.8638    1.7213 O   0  0  0  0  0  0  0  0  0  0  0  0
   24.5769  -11.6611    1.2473 N   0  0  0  0  0  0  0  0  0  0  0  0
   22.8326  -16.9031    5.3728 H   0  0  0  0  0  0  0  0  0  0  0  0
   23.6053  -17.8796    4.1803 H   0  0  0  0  0  0  0  0  0  0  0  0
   24.6688  -10.6945    1.5348 H   0  0  0  0  0  0  0  0  0  0  0  0
   24.7319  -11.8637    0.2657 H   0  0  0  0  0  0  0  0  0  0  0  0
  2  3  1  0  0  0  0
  2  7  1  0  0  0  0
  2  1  1  6  0  0  0
  3  4  1  0  0  0  0
  4  5  1  0  0  0  0
  5  6  1  0  0  0  0
  5 13  1  6  0  0  0
  6  7  1  0  0  0  0
  7  8  1  0  0  0  0
  8  9  2  0  0  0  0
  8 12  1  0  0  0  0
  9 10  1  0  0  0  0
  9 11  1  0  0  0  0
 12 16  1  0  0  0  0
 12 17  1  0  0  0  0
 13 14  2  0  0  0  0
 13 15  1  0  0  0  0
 15 18  1  0  0  0  0
 15 19  1  0  0  0  0
M  CHG  1   9   1
M  END
>  <CHROM.0>
-49.67258001,-60.92741096,-57.35108578,-51.66932490,-56.40044978,-60.96144489
-59.39774473,-175.92152758,-167.02155274,160.45612501

>  <CHROM.1>
-108.59761599,23.61257884,-14.00146684,3.55621041,1.95520764,-0.68007674
2.84864999

>  <Name>
P64169147

>  <RI>
0

>  <Rbt.Current_Directory>
/home/fstefaniak/projects/zuza/docking/adenine/1Y26

>  <Rbt.Executable>
rbdock ($Id: //depot/dev/client3/rdock/2013.1/src/exe/rbdock.cxx#4 $)

>  <Rbt.Library>
libRbt.so (2013.1, Build901 2013/11/27)

>  <Rbt.Parameter_File>
/home/fstefaniak/progs/rDock//data/scripts/dock_solv.prm

>  <Rbt.Receptor>
1y26.prm

>  <SCORE>
-38.1411

>  <SCORE.INTER>
-18.6669

>  <SCORE.INTER.CONST>
1

>  <SCORE.INTER.POLAR>
-3.12237

>  <SCORE.INTER.ROT>
1

>  <SCORE.INTER.SOLV>
16.8487

>  <SCORE.INTER.VDW>
-11.9196

>  <SCORE.INTER.norm>
-1.43592

>  <SCORE.INTRA>
0.278909

>  <SCORE.INTRA.DIHEDRAL>
0.403668

>  <SCORE.INTRA.DIHEDRAL.0>
0.558727

>  <SCORE.INTRA.POLAR>
0.0705514

>  <SCORE.INTRA.POLAR.0>
-1.16588

>  <SCORE.INTRA.REPUL>
0

>  <SCORE.INTRA.REPUL.0>
0

>  <SCORE.INTRA.SOLV>
-0.00175205

>  <SCORE.INTRA.SOLV.lig_0>
-30.4319

>  <SCORE.INTRA.VDW>
-0.161924

>  <SCORE.INTRA.VDW.0>
0.101403

>  <SCORE.INTRA.norm>
0.0214545

>  <SCORE.RESTR>
2.97135

>  <SCORE.RESTR.CAVITY>
2.97135

>  <SCORE.RESTR.norm>
0.228565

>  <SCORE.SYSTEM>
-22.7245

>  <SCORE.SYSTEM.CONST>
0

>  <SCORE.SYSTEM.DIHEDRAL>
5.4235

>  <SCORE.SYSTEM.POLAR>
-3.45776

>  <SCORE.SYSTEM.SOLV>
0.449742

>  <SCORE.SYSTEM.VDW>
-5.58152

>  <SCORE.SYSTEM.norm>
-1.74804

>  <SCORE.heavy>
13

>  <SCORE.norm>
-2.93393

$$$$
P64169147
 OpenBabel12072022103D
libRbt.so/2013.1/901 2013/11/27
 19 19  0  0  0  0  0  0  0  0999 V2000
   22.4442  -11.9600    6.2018 C   0  0  0  0  0  0  0  0  0  0  0  0
   22.6485  -12.9553    5.0608 C   0  0  2  0  0  0  0  0  0  0  0  0
   22.2525  -14.3551    5.5773 C   0  0  0  0  0  0  0  0  0  0  0  0
   22.4143  -15.4452    4.5181 C   0  0  0  0  0  0  0  0  0  0  0  0
   23.8181  -15.4713    3.9072 C   0  0  1  0  0  0  0  0  0  0  0  0
   24.2056  -14.0722    3.4297 C   0  0  0  0  0  0  0  0  0  0  0  0
   24.0393  -13.0340    4.4934 N   0  0  0  0  0  0  0  0  0  0  0  0
   25.1273  -12.2955    4.8730 C   0  0  0  0  0  0  0  0  0  0  0  0
   26.3561  -12.8281    4.8619 N   0  3  0  0  0  0  0  0  0  0  0  0
   27.1864  -12.3105    5.1051 H   0  0  0  0  0  0  0  0  0  0  0  0
   26.4428  -13.8517    4.8473 H   0  0  0  0  0  0  0  0  0  0  0  0
   25.0281  -11.0116    5.2420 N   0  0  0  0  0  0  0  0  0  0  0  0
   24.8842  -16.0117    4.8491 C   0  0  0  0  0  0  0  0  0  0  0  0
   25.6994  -15.2873    5.4181 O   0  0  0  0  0  0  0  0  0  0  0  0
   24.9175  -17.3607    5.0099 N   0  0  0  0  0  0  0  0  0  0  0  0
   24.1799  -10.4910    5.0774 H   0  0  0  0  0  0  0  0  0  0  0  0
   25.8350  -10.4933    5.5604 H   0  0  0  0  0  0  0  0  0  0  0  0
   24.3718  -18.0062    4.4522 H   0  0  0  0  0  0  0  0  0  0  0  0
   25.6503  -17.7596    5.5865 H   0  0  0  0  0  0  0  0  0  0  0  0
  2  3  1  0  0  0  0
  2  7  1  0  0  0  0
  2  1  1  1  0  0  0
  3  4  1  0  0  0  0
  4  5  1  0  0  0  0
  5  6  1  0  0  0  0
  5 13  1  1  0  0  0
  6  7  1  0  0  0  0
  7  8  1  0  0  0  0
  8  9  2  0  0  0  0
  8 12  1  0  0  0  0
  9 10  1  0  0  0  0
  9 11  1  0  0  0  0
 12 16  1  0  0  0  0
 12 17  1  0  0  0  0
 13 14  2  0  0  0  0
 13 15  1  0  0  0  0
 15 18  1  0  0  0  0
 15 19  1  0  0  0  0
M  CHG  1   9   1
M  END
>  <CHROM.0>
-48.54956216,-64.28742486,-53.15213741,-54.04190320,-57.78899198,-58.34276407
-61.70868351,-55.13666196,-167.21278600,160.95661144

>  <CHROM.1>
-104.72281251,24.18716562,-13.99789578,4.90515106,1.61701691,0.08397872,0.11317190

>  <Name>
P64169147

>  <RI>
0

>  <Rbt.Current_Directory>
/home/fstefaniak/projects/zuza/docking/adenine/1Y26

>  <Rbt.Executable>
rbdock ($Id: //depot/dev/client3/rdock/2013.1/src/exe/rbdock.cxx#4 $)

>  <Rbt.Library>
libRbt.so (2013.1, Build901 2013/11/27)

>  <Rbt.Parameter_File>
/home/fstefaniak/progs/rDock//data/scripts/dock_solv.prm

>  <Rbt.Receptor>
1y26.prm

>  <SCORE>
-37.4951

>  <SCORE.INTER>
-18.7976

>  <SCORE.INTER.CONST>
1

>  <SCORE.INTER.POLAR>
-2.63783

>  <SCORE.INTER.ROT>
1

>  <SCORE.INTER.SOLV>
13.5217

>  <SCORE.INTER.VDW>
-12.5129

>  <SCORE.INTER.norm>
-1.44597

>  <SCORE.INTRA>
0.887488

>  <SCORE.INTRA.DIHEDRAL>
0.648814

>  <SCORE.INTRA.DIHEDRAL.0>
0.558727

>  <SCORE.INTRA.POLAR>
0.24173

>  <SCORE.INTRA.POLAR.0>
-1.16588

>  <SCORE.INTRA.REPUL>
0

>  <SCORE.INTRA.REPUL.0>
0

>  <SCORE.INTRA.SOLV>
-0.0141221

>  <SCORE.INTRA.SOLV.lig_0>
-30.4319

>  <SCORE.INTRA.VDW>
-0.251739

>  <SCORE.INTRA.VDW.0>
0.101403

>  <SCORE.INTRA.norm>
0.0682683

>  <SCORE.RESTR>
2.67491

>  <SCORE.RESTR.CAVITY>
2.67491

>  <SCORE.RESTR.norm>
0.205762

>  <SCORE.SYSTEM>
-22.2599

>  <SCORE.SYSTEM.CONST>
0

>  <SCORE.SYSTEM.DIHEDRAL>
5.57755

>  <SCORE.SYSTEM.POLAR>
-3.46482

>  <SCORE.SYSTEM.SOLV>
0.656437

>  <SCORE.SYSTEM.VDW>
-5.36852

>  <SCORE.SYSTEM.norm>
-1.7123

>  <SCORE.heavy>
13

>  <SCORE.norm>
-2.88424

$$$$
P64169151
 OpenBabel12072022103D
libRbt.so/2013.1/901 2013/11/27
 19 19  0  0  0  0  0  0  0  0999 V2000
   22.0339  -17.2197    3.6066 C   0  0  0  0  0  0  0  0  0  0  0  0
   22.9293  -16.6439    4.6988 C   0  0  0  0  0  0  0  0  0  0  0  0
   22.7121  -15.1750    4.8423 N   0  0  0  0  0  0  0  0  0  0  0  0
   21.2877  -14.7945    5.0569 C   0  0  0  0  0  0  0  0  0  0  0  0
   20.3725  -15.3958    3.9899 C   0  0  0  0  0  0  0  0  0  0  0  0
   20.5454  -16.9163    3.8441 C   0  0  0  0  0  0  0  0  0  0  0  0
   19.9471  -17.6597    5.0522 C   0  0  0  0  0  0  0  0  0  0  0  0
   19.2401  -18.9318    4.6471 C   0  0  0  0  0  0  0  0  0  0  0  0
   18.7457  -19.0764    3.5349 O   0  0  0  0  0  0  0  0  0  0  0  0
   19.1160  -19.8742    5.6190 N   0  0  0  0  0  0  0  0  0  0  0  0
   23.7404  -14.2672    4.8272 C   0  0  0  0  0  0  0  0  0  0  0  0
   23.5287  -12.9377    4.8934 N   0  3  0  0  0  0  0  0  0  0  0  0
   24.3001  -12.2840    4.8926 H   0  0  0  0  0  0  0  0  0  0  0  0
   22.6070  -12.5300    4.9301 H   0  0  0  0  0  0  0  0  0  0  0  0
   25.0321  -14.6435    4.7510 N   0  0  0  0  0  0  0  0  0  0  0  0
   19.6553  -19.8579    6.4740 H   0  0  0  0  0  0  0  0  0  0  0  0
   18.6894  -20.7555    5.3561 H   0  0  0  0  0  0  0  0  0  0  0  0
   25.3201  -15.6109    4.7587 H   0  0  0  0  0  0  0  0  0  0  0  0
   25.7787  -13.9624    4.7218 H   0  0  0  0  0  0  0  0  0  0  0  0
  1  2  1  0  0  0  0
  1  6  1  0  0  0  0
  2  3  1  0  0  0  0
  3  4  1  0  0  0  0
  3 11  1  0  0  0  0
  4  5  1  0  0  0  0
  5  6  1  0  0  0  0
  6  7  1  0  0  0  0
  7  8  1  0  0  0  0
  8  9  2  0  0  0  0
  8 10  1  0  0  0  0
 10 16  1  0  0  0  0
 10 17  1  0  0  0  0
 11 12  2  0  0  0  0
 11 15  1  0  0  0  0
 12 13  1  0  0  0  0
 12 14  1  0  0  0  0
 15 18  1  0  0  0  0
 15 19  1  0  0  0  0
M  CHG  1  12   1
M  END
>  <CHROM.0>
65.82555548,-65.70223894,-56.13855722,-50.59383788,-59.48457714,-56.77668106
-54.43820730,-173.67517108,-166.50516034,161.13129043

>  <CHROM.1>
-96.32761446,-26.91834693,21.49523123,-16.42858574,4.57576563,-2.33039798
-0.11101791,-0.05924348

>  <Name>
P64169151

>  <RI>
0

>  <Rbt.Current_Directory>
/home/fstefaniak/projects/zuza/docking/adenine/1Y26

>  <Rbt.Executable>
rbdock ($Id: //depot/dev/client3/rdock/2013.1/src/exe/rbdock.cxx#4 $)

>  <Rbt.Library>
libRbt.so (2013.1, Build901 2013/11/27)

>  <Rbt.Parameter_File>
/home/fstefaniak/progs/rDock//data/scripts/dock_solv.prm

>  <Rbt.Receptor>
1y26.prm

>  <SCORE>
-39.098

>  <SCORE.INTER>
-19.2635

>  <SCORE.INTER.CONST>
1

>  <SCORE.INTER.POLAR>
-2.71037

>  <SCORE.INTER.ROT>
2

>  <SCORE.INTER.SOLV>
17.0565

>  <SCORE.INTER.VDW>
-14.4266

>  <SCORE.INTER.norm>
-1.48181

>  <SCORE.INTRA>
1.66584

>  <SCORE.INTRA.DIHEDRAL>
3.20087

>  <SCORE.INTRA.DIHEDRAL.0>
1.72755

>  <SCORE.INTRA.POLAR>
0

>  <SCORE.INTRA.POLAR.0>
0

>  <SCORE.INTRA.REPUL>
0

>  <SCORE.INTRA.REPUL.0>
0

>  <SCORE.INTRA.SOLV>
-0.342687

>  <SCORE.INTRA.SOLV.lig_0>
-34.0893

>  <SCORE.INTRA.VDW>
0.236752

>  <SCORE.INTRA.VDW.0>
-0.723727

>  <SCORE.INTRA.norm>
0.128142

>  <SCORE.RESTR>
0.00128445

>  <SCORE.RESTR.CAVITY>
0.00128445

>  <SCORE.RESTR.norm>
9.88039e-05

>  <SCORE.SYSTEM>
-21.5016

>  <SCORE.SYSTEM.CONST>
0

>  <SCORE.SYSTEM.DIHEDRAL>
5.54943

>  <SCORE.SYSTEM.POLAR>
-3.25965

>  <SCORE.SYSTEM.SOLV>
0.432858

>  <SCORE.SYSTEM.VDW>
-5.46303

>  <SCORE.SYSTEM.norm>
-1.65397

>  <SCORE.heavy>
13

>  <SCORE.norm>
-3.00754

$$$$
P64169151
 OpenBabel12072022103D
libRbt.so/2013.1/901 2013/11/27
 19 19  0  0  0  0  0  0  0  0999 V2000
   21.1868  -15.1496    5.0021 C   0  0  0  0  0  0  0  0  0  0  0  0
   21.8566  -14.0818    4.1434 C   0  0  0  0  0  0  0  0  0  0  0  0
   23.3419  -14.1985    4.2160 N   0  0  0  0  0  0  0  0  0  0  0  0
   23.8568  -15.5570    3.8855 C   0  0  0  0  0  0  0  0  0  0  0  0
   23.1672  -16.6423    4.7129 C   0  0  0  0  0  0  0  0  0  0  0  0
   21.6339  -16.5725    4.6283 C   0  0  0  0  0  0  0  0  0  0  0  0
   21.1340  -17.0360    3.2479 C   0  0  0  0  0  0  0  0  0  0  0  0
   19.6589  -17.3612    3.2544 C   0  0  0  0  0  0  0  0  0  0  0  0
   18.8639  -16.7958    2.5122 O   0  0  0  0  0  0  0  0  0  0  0  0
   19.2561  -18.2613    4.1901 N   0  0  0  0  0  0  0  0  0  0  0  0
   24.1569  -13.1354    4.5118 C   0  0  0  0  0  0  0  0  0  0  0  0
   25.4926  -13.2647    4.6380 N   0  3  0  0  0  0  0  0  0  0  0  0
   26.0786  -12.4672    4.8450 H   0  0  0  0  0  0  0  0  0  0  0  0
   25.9689  -14.1494    4.5505 H   0  0  0  0  0  0  0  0  0  0  0  0
   23.6776  -11.8886    4.6907 N   0  0  0  0  0  0  0  0  0  0  0  0
   19.8983  -18.8634    4.6875 H   0  0  0  0  0  0  0  0  0  0  0  0
   18.2792  -18.5322    4.1804 H   0  0  0  0  0  0  0  0  0  0  0  0
   22.7044  -11.6543    4.5615 H   0  0  0  0  0  0  0  0  0  0  0  0
   24.2882  -11.1182    4.9269 H   0  0  0  0  0  0  0  0  0  0  0  0
  1  2  1  0  0  0  0
  1  6  1  0  0  0  0
  2  3  1  0  0  0  0
  3  4  1  0  0  0  0
  3 11  1  0  0  0  0
  4  5  1  0  0  0  0
  5  6  1  0  0  0  0
  6  7  1  0  0  0  0
  7  8  1  0  0  0  0
  8  9  2  0  0  0  0
  8 10  1  0  0  0  0
 10 16  1  0  0  0  0
 10 17  1  0  0  0  0
 11 12  2  0  0  0  0
 11 15  1  0  0  0  0
 12 13  1  0  0  0  0
 12 14  1  0  0  0  0
 15 18  1  0  0  0  0
 15 19  1  0  0  0  0
M  CHG  1  12   1
M  END
>  <CHROM.0>
-48.75971558,-58.50823072,-64.13787592,-55.98129225,-56.47586731,-61.74858541
-169.95311213,-174.32486810,-166.82697386,161.01254649

>  <CHROM.1>
-73.70186387,121.83742281,22.09574063,-15.36232367,4.12717506,2.41403084
0.23279472,3.12745157

>  <Name>
P64169151

>  <RI>
0

>  <Rbt.Current_Directory>
/home/fstefaniak/projects/zuza/docking/adenine/1Y26

>  <Rbt.Executable>
rbdock ($Id: //depot/dev/client3/rdock/2013.1/src/exe/rbdock.cxx#4 $)

>  <Rbt.Library>
libRbt.so (2013.1, Build901 2013/11/27)

>  <Rbt.Parameter_File>
/home/fstefaniak/progs/rDock//data/scripts/dock_solv.prm

>  <Rbt.Receptor>
1y26.prm

>  <SCORE>
-38.2556

>  <SCORE.INTER>
-17.1583

>  <SCORE.INTER.CONST>
1

>  <SCORE.INTER.POLAR>
-2.31657

>  <SCORE.INTER.ROT>
2

>  <SCORE.INTER.SOLV>
12.222

>  <SCORE.INTER.VDW>
-12.7243

>  <SCORE.INTER.norm>
-1.31987

>  <SCORE.INTRA>
-0.0763658

>  <SCORE.INTRA.DIHEDRAL>
0.00827898

>  <SCORE.INTRA.DIHEDRAL.0>
1.72755

>  <SCORE.INTRA.POLAR>
0

>  <SCORE.INTRA.POLAR.0>
0

>  <SCORE.INTRA.REPUL>
0

>  <SCORE.INTRA.REPUL.0>
0

>  <SCORE.INTRA.SOLV>
-0.090835

>  <SCORE.INTRA.SOLV.lig_0>
-34.0893

>  <SCORE.INTRA.VDW>
-0.0350878

>  <SCORE.INTRA.VDW.0>
-0.723727

>  <SCORE.INTRA.norm>
-0.00587429

>  <SCORE.RESTR>
0.67165

>  <SCORE.RESTR.CAVITY>
0.67165

>  <SCORE.RESTR.norm>
0.0516654

>  <SCORE.SYSTEM>
-21.6926

>  <SCORE.SYSTEM.CONST>
0

>  <SCORE.SYSTEM.DIHEDRAL>
5.82511

>  <SCORE.SYSTEM.POLAR>
-3.35237

>  <SCORE.SYSTEM.SOLV>
0.387827

>  <SCORE.SYSTEM.VDW>
-5.35816

>  <SCORE.SYSTEM.norm>
-1.66866

>  <SCORE.heavy>
13

>  <SCORE.norm>
-2.94274

$$$$
P64169151
 OpenBabel12072022103D
libRbt.so/2013.1/901 2013/11/27
 19 19  0  0  0  0  0  0  0  0999 V2000
   21.5966  -17.5119    3.3460 C   0  0  0  0  0  0  0  0  0  0  0  0
   22.6556  -16.8383    4.2125 C   0  0  0  0  0  0  0  0  0  0  0  0
   22.4573  -15.3601    4.2383 N   0  0  0  0  0  0  0  0  0  0  0  0
   21.0852  -14.9429    4.6425 C   0  0  0  0  0  0  0  0  0  0  0  0
   20.0108  -15.6392    3.8065 C   0  0  0  0  0  0  0  0  0  0  0  0
   20.1654  -17.1685    3.7910 C   0  0  0  0  0  0  0  0  0  0  0  0
   19.7767  -17.7779    5.1503 C   0  0  0  0  0  0  0  0  0  0  0  0
   18.9539  -19.0356    4.9979 C   0  0  0  0  0  0  0  0  0  0  0  0
   18.3017  -19.2689    3.9867 O   0  0  0  0  0  0  0  0  0  0  0  0
   18.9174  -19.8532    6.0834 N   0  0  0  0  0  0  0  0  0  0  0  0
   23.4645  -14.4705    3.9626 C   0  0  0  0  0  0  0  0  0  0  0  0
   23.2596  -13.1388    3.9259 N   0  3  0  0  0  0  0  0  0  0  0  0
   24.0171  -12.4977    3.7322 H   0  0  0  0  0  0  0  0  0  0  0  0
   22.3542  -12.7188    4.0706 H   0  0  0  0  0  0  0  0  0  0  0  0
   24.7283  -14.8678    3.7154 N   0  0  0  0  0  0  0  0  0  0  0  0
   19.5712  -19.7788    6.8511 H   0  0  0  0  0  0  0  0  0  0  0  0
   18.4123  -20.7269    5.9871 H   0  0  0  0  0  0  0  0  0  0  0  0
   25.0187  -15.8326    3.7751 H   0  0  0  0  0  0  0  0  0  0  0  0
   25.4565  -14.2019    3.4951 H   0  0  0  0  0  0  0  0  0  0  0  0
  1  2  1  0  0  0  0
  1  6  1  0  0  0  0
  2  3  1  0  0  0  0
  3  4  1  0  0  0  0
  3 11  1  0  0  0  0
  4  5  1  0  0  0  0
  5  6  1  0  0  0  0
  6  7  1  0  0  0  0
  7  8  1  0  0  0  0
  8  9  2  0  0  0  0
  8 10  1  0  0  0  0
 10 16  1  0  0  0  0
 10 17  1  0  0  0  0
 11 12  2  0  0  0  0
 11 15  1  0  0  0  0
 12 13  1  0  0  0  0
 12 14  1  0  0  0  0
 15 18  1  0  0  0  0
 15 19  1  0  0  0  0
M  CHG  1  12   1
M  END
>  <CHROM.0>
-50.35424936,-61.34232366,-55.20798651,-52.17513506,-56.35486872,-60.35804739
-57.84449988,-52.40974067,-167.62917147,161.60381282

>  <CHROM.1>
-99.49470149,-23.40678098,21.19839909,-16.60699407,4.30380746,-2.32984100
0.06794865,-0.14953796

>  <Name>
P64169151

>  <RI>
0

>  <Rbt.Current_Directory>
/home/fstefaniak/projects/zuza/docking/adenine/1Y26

>  <Rbt.Executable>
rbdock ($Id: //depot/dev/client3/rdock/2013.1/src/exe/rbdock.cxx#4 $)

>  <Rbt.Library>
libRbt.so (2013.1, Build901 2013/11/27)

>  <Rbt.Parameter_File>
/home/fstefaniak/progs/rDock//data/scripts/dock_solv.prm

>  <Rbt.Receptor>
1y26.prm

>  <SCORE>
-38.082

>  <SCORE.INTER>
-17.6467

>  <SCORE.INTER.CONST>
1

>  <SCORE.INTER.POLAR>
-2.22355

>  <SCORE.INTER.ROT>
2

>  <SCORE.INTER.SOLV>
14.5612

>  <SCORE.INTER.VDW>
-14.1397

>  <SCORE.INTER.norm>
-1.35744

>  <SCORE.INTRA>
1.80926

>  <SCORE.INTRA.DIHEDRAL>
3.4395

>  <SCORE.INTRA.DIHEDRAL.0>
1.72755

>  <SCORE.INTRA.POLAR>
0

>  <SCORE.INTRA.POLAR.0>
0

>  <SCORE.INTRA.REPUL>
0

>  <SCORE.INTRA.REPUL.0>
0

>  <SCORE.INTRA.SOLV>
-0.354584

>  <SCORE.INTRA.SOLV.lig_0>
-34.0893

>  <SCORE.INTRA.VDW>
0.266806

>  <SCORE.INTRA.VDW.0>
-0.723727

>  <SCORE.INTRA.norm>
0.139174

>  <SCORE.RESTR>
0

>  <SCORE.RESTR.CAVITY>
0

>  <SCORE.RESTR.norm>
0

>  <SCORE.SYSTEM>
-22.2445

>  <SCORE.SYSTEM.CONST>
0

>  <SCORE.SYSTEM.DIHEDRAL>
5.37665

>  <SCORE.SYSTEM.POLAR>
-3.44076

>  <SCORE.SYSTEM.SOLV>
0.667695

>  <SCORE.SYSTEM.VDW>
-5.37527

>  <SCORE.SYSTEM.norm>
-1.71112

>  <SCORE.heavy>
13

>  <SCORE.norm>
-2.92938

$$$$
P64253460
 OpenBabel12072022103D
libRbt.so/2013.1/901 2013/11/27
 17 17  0  0  0  0  0  0  0  0999 V2000
   20.1117  -17.5194    5.1567 C   0  0  0  0  0  0  0  0  0  0  0  0
   20.6329  -17.0667    3.7994 C   0  0  2  0  0  0  0  0  0  0  0  0
   22.0033  -16.3656    3.9176 C   0  0  0  0  0  0  0  0  0  0  0  0
   23.0376  -16.9344    4.2514 O   0  0  0  0  0  0  0  0  0  0  0  0
   21.9361  -15.0134    3.6450 N   0  0  0  0  0  0  0  0  0  0  0  0
   23.1096  -14.1530    3.6106 C   0  0  1  0  0  0  0  0  0  0  0  0
   22.8106  -12.8195    2.9097 C   0  0  0  0  0  0  0  0  0  0  0  0
   21.8734  -11.9262    3.7224 C   0  0  0  0  0  0  0  0  0  0  0  0
   22.3899  -11.7093    5.1443 C   0  0  0  0  0  0  0  0  0  0  0  0
   22.6844  -13.0284    5.8584 C   0  0  2  0  0  0  0  0  0  0  0  0
   23.6259  -13.9145    5.0371 C   0  0  0  0  0  0  0  0  0  0  0  0
   21.4590  -13.7326    6.0853 O   0  0  0  0  0  0  0  0  0  0  0  0
   19.6631  -16.1419    3.1752 N   0  0  0  0  0  0  0  0  0  0  0  0
   21.0973  -14.6439    3.1989 H   0  0  0  0  0  0  0  0  0  0  0  0
   21.0621  -13.3578    6.8930 H   0  0  0  0  0  0  0  0  0  0  0  0
   19.2965  -15.5203    3.8973 H   0  0  0  0  0  0  0  0  0  0  0  0
   18.8581  -16.6893    2.8645 H   0  0  0  0  0  0  0  0  0  0  0  0
  2  3  1  0  0  0  0
  2 13  1  0  0  0  0
  2  1  1  1  0  0  0
  3  4  2  0  0  0  0
  3  5  1  0  0  0  0
  5 14  1  0  0  0  0
  6  5  1  1  0  0  0
  6  7  1  0  0  0  0
  6 11  1  0  0  0  0
  7  8  1  0  0  0  0
  8  9  1  0  0  0  0
  9 10  1  0  0  0  0
 10 11  1  0  0  0  0
 10 12  1  6  0  0  0
 12 15  1  0  0  0  0
 13 16  1  0  0  0  0
 13 17  1  0  0  0  0
M  END
>  <CHROM.0>
-52.27870848,-60.70965967,-50.02837720,-52.03745385,-57.81945092,-58.85761850
-58.08347608,-53.51158055,-167.59908950,161.99724353

>  <CHROM.1>
67.17174465,40.38734712,163.93191281,-82.34870144,21.90147532,-14.65893611
4.35459967,2.05188815,-0.63549959,-2.72332398

>  <Name>
P64253460

>  <RI>
0

>  <Rbt.Current_Directory>
/home/fstefaniak/projects/zuza/docking/adenine/1Y26

>  <Rbt.Executable>
rbdock ($Id: //depot/dev/client3/rdock/2013.1/src/exe/rbdock.cxx#4 $)

>  <Rbt.Library>
libRbt.so (2013.1, Build901 2013/11/27)

>  <Rbt.Parameter_File>
/home/fstefaniak/progs/rDock//data/scripts/dock_solv.prm

>  <Rbt.Receptor>
1y26.prm

>  <SCORE>
-43.7336

>  <SCORE.INTER>
-25.8982

>  <SCORE.INTER.CONST>
1

>  <SCORE.INTER.POLAR>
-3.60359

>  <SCORE.INTER.ROT>
3

>  <SCORE.INTER.SOLV>
12.2342

>  <SCORE.INTER.VDW>
-14.9316

>  <SCORE.INTER.norm>
-1.99217

>  <SCORE.INTRA>
4.05117

>  <SCORE.INTRA.DIHEDRAL>
4.63302

>  <SCORE.INTRA.DIHEDRAL.0>
1.76922

>  <SCORE.INTRA.POLAR>
0.467841

>  <SCORE.INTRA.POLAR.0>
-0.631666

>  <SCORE.INTRA.REPUL>
0

>  <SCORE.INTRA.REPUL.0>
0

>  <SCORE.INTRA.SOLV>
0.408304

>  <SCORE.INTRA.SOLV.lig_0>
-15.3502

>  <SCORE.INTRA.VDW>
-0.0601469

>  <SCORE.INTRA.VDW.0>
-0.398074

>  <SCORE.INTRA.norm>
0.311629

>  <SCORE.RESTR>
0.264921

>  <SCORE.RESTR.CAVITY>
0.264921

>  <SCORE.RESTR.norm>
0.0203785

>  <SCORE.SYSTEM>
-22.1514

>  <SCORE.SYSTEM.CONST>
0

>  <SCORE.SYSTEM.DIHEDRAL>
5.41185

>  <SCORE.SYSTEM.POLAR>
-3.44257

>  <SCORE.SYSTEM.SOLV>
0.674072

>  <SCORE.SYSTEM.VDW>
-5.32103

>  <SCORE.SYSTEM.norm>
-1.70396

>  <SCORE.heavy>
13

>  <SCORE.norm>
-3.36412

$$$$
P64253460
 OpenBabel12072022103D
libRbt.so/2013.1/901 2013/11/27
 17 17  0  0  0  0  0  0  0  0999 V2000
   20.1402  -18.3594    3.8267 C   0  0  0  0  0  0  0  0  0  0  0  0
   20.2110  -16.9186    3.3388 C   0  0  2  0  0  0  0  0  0  0  0  0
   20.6510  -15.9553    4.4622 C   0  0  0  0  0  0  0  0  0  0  0  0
   20.3704  -16.1097    5.6463 O   0  0  0  0  0  0  0  0  0  0  0  0
   21.3650  -14.8727    3.9875 N   0  0  0  0  0  0  0  0  0  0  0  0
   21.9575  -13.8702    4.8606 C   0  0  1  0  0  0  0  0  0  0  0  0
   23.3296  -14.3192    5.3849 C   0  0  0  0  0  0  0  0  0  0  0  0
   24.3947  -14.3526    4.2889 C   0  0  0  0  0  0  0  0  0  0  0  0
   24.4862  -13.0191    3.5477 C   0  0  0  0  0  0  0  0  0  0  0  0
   23.1290  -12.5627    3.0124 C   0  0  2  0  0  0  0  0  0  0  0  0
   22.0701  -12.5304    4.1186 C   0  0  0  0  0  0  0  0  0  0  0  0
   22.6986  -13.4548    1.9790 O   0  0  0  0  0  0  0  0  0  0  0  0
   18.8896  -16.4996    2.8256 N   0  0  0  0  0  0  0  0  0  0  0  0
   21.7194  -14.8995    3.0321 H   0  0  0  0  0  0  0  0  0  0  0  0
   23.1631  -13.1897    1.1640 H   0  0  0  0  0  0  0  0  0  0  0  0
   18.2868  -16.2823    3.6205 H   0  0  0  0  0  0  0  0  0  0  0  0
   18.4534  -17.3073    2.3766 H   0  0  0  0  0  0  0  0  0  0  0  0
  2  3  1  0  0  0  0
  2 13  1  0  0  0  0
  2  1  1  1  0  0  0
  3  4  2  0  0  0  0
  3  5  1  0  0  0  0
  5 14  1  0  0  0  0
  6  5  1  6  0  0  0
  6  7  1  0  0  0  0
  6 11  1  0  0  0  0
  7  8  1  0  0  0  0
  8  9  1  0  0  0  0
  9 10  1  0  0  0  0
 10 11  1  0  0  0  0
 10 12  1  6  0  0  0
 12 15  1  0  0  0  0
 13 16  1  0  0  0  0
 13 17  1  0  0  0  0
M  END
>  <CHROM.0>
-47.73139712,-60.38448015,-56.48558266,-53.05446746,-173.25286506,-58.73646437
-64.83423406,-176.03833957,-165.80033832,162.24204392

>  <CHROM.1>
-33.01797889,78.17511886,83.78761610,-80.68341844,21.79062063,-14.85723877
3.90877325,-2.74629913,-0.72563151,-1.06146159

>  <Name>
P64253460

>  <RI>
0

>  <Rbt.Current_Directory>
/home/fstefaniak/projects/zuza/docking/adenine/1Y26

>  <Rbt.Executable>
rbdock ($Id: //depot/dev/client3/rdock/2013.1/src/exe/rbdock.cxx#4 $)

>  <Rbt.Library>
libRbt.so (2013.1, Build901 2013/11/27)

>  <Rbt.Parameter_File>
/home/fstefaniak/progs/rDock//data/scripts/dock_solv.prm

>  <Rbt.Receptor>
1y26.prm

>  <SCORE>
-43.4244

>  <SCORE.INTER>
-23.4458

>  <SCORE.INTER.CONST>
1

>  <SCORE.INTER.POLAR>
-3.82876

>  <SCORE.INTER.ROT>
3

>  <SCORE.INTER.SOLV>
13.9126

>  <SCORE.INTER.VDW>
-13.1056

>  <SCORE.INTER.norm>
-1.80353

>  <SCORE.INTRA>
1.93161

>  <SCORE.INTRA.DIHEDRAL>
3.25225

>  <SCORE.INTRA.DIHEDRAL.0>
1.76922

>  <SCORE.INTRA.POLAR>
0.0468496

>  <SCORE.INTRA.POLAR.0>
-0.631666

>  <SCORE.INTRA.REPUL>
0

>  <SCORE.INTRA.REPUL.0>
0

>  <SCORE.INTRA.SOLV>
-0.378418

>  <SCORE.INTRA.SOLV.lig_0>
-15.3502

>  <SCORE.INTRA.VDW>
0.335406

>  <SCORE.INTRA.VDW.0>
-0.398074

>  <SCORE.INTRA.norm>
0.148586

>  <SCORE.RESTR>
0.619397

>  <SCORE.RESTR.CAVITY>
0.619397

>  <SCORE.RESTR.norm>
0.0476459

>  <SCORE.SYSTEM>
-22.5296

>  <SCORE.SYSTEM.CONST>
0

>  <SCORE.SYSTEM.DIHEDRAL>
5.69489

>  <SCORE.SYSTEM.POLAR>
-3.41943

>  <SCORE.SYSTEM.SOLV>
0.276144

>  <SCORE.SYSTEM.VDW>
-5.61196

>  <SCORE.SYSTEM.norm>
-1.73305

>  <SCORE.heavy>
13

>  <SCORE.norm>
-3.34034

$$$$
P64253460
 OpenBabel12072022103D
libRbt.so/2013.1/901 2013/11/27
 17 17  0  0  0  0  0  0  0  0999 V2000
   20.2986  -17.7048    2.9510 C   0  0  0  0  0  0  0  0  0  0  0  0
   20.4624  -16.9177    4.2443 C   0  0  2  0  0  0  0  0  0  0  0  0
   21.8426  -16.2307    4.3249 C   0  0  0  0  0  0  0  0  0  0  0  0
   22.8200  -16.7196    4.8822 O   0  0  0  0  0  0  0  0  0  0  0  0
   21.8525  -14.9822    3.7348 N   0  0  0  0  0  0  0  0  0  0  0  0
   23.0567  -14.1740    3.6111 C   0  0  1  0  0  0  0  0  0  0  0  0
   22.7853  -12.8717    2.8434 C   0  0  0  0  0  0  0  0  0  0  0  0
   21.9130  -11.8957    3.6329 C   0  0  0  0  0  0  0  0  0  0  0  0
   22.4877  -11.6190    5.0218 C   0  0  0  0  0  0  0  0  0  0  0  0
   22.7556  -12.9060    5.8018 C   0  0  2  0  0  0  0  0  0  0  0  0
   23.6322  -13.8755    5.0033 C   0  0  0  0  0  0  0  0  0  0  0  0
   21.5125  -13.5452    6.1101 O   0  0  0  0  0  0  0  0  0  0  0  0
   20.2977  -17.8208    5.4029 N   0  0  0  0  0  0  0  0  0  0  0  0
   21.0722  -14.7169    3.1350 H   0  0  0  0  0  0  0  0  0  0  0  0
   21.7287  -14.4084    6.5081 H   0  0  0  0  0  0  0  0  0  0  0  0
   19.3004  -17.9859    5.5464 H   0  0  0  0  0  0  0  0  0  0  0  0
   20.6057  -17.3219    6.2399 H   0  0  0  0  0  0  0  0  0  0  0  0
  2  3  1  0  0  0  0
  2 13  1  0  0  0  0
  2  1  1  6  0  0  0
  3  4  2  0  0  0  0
  3  5  1  0  0  0  0
  5 14  1  0  0  0  0
  6  5  1  1  0  0  0
  6  7  1  0  0  0  0
  6 11  1  0  0  0  0
  7  8  1  0  0  0  0
  8  9  1  0  0  0  0
  9 10  1  0  0  0  0
 10 11  1  0  0  0  0
 10 12  1  6  0  0  0
 12 15  1  0  0  0  0
 13 16  1  0  0  0  0
 13 17  1  0  0  0  0
M  END
>  <CHROM.0>
179.29423288,-81.71326653,-55.35140667,-53.50030460,-175.09814600,-54.51578890
-56.24957395,-47.36815523,-167.08200508,160.51082785

>  <CHROM.1>
-94.35612954,-78.58092892,176.75220282,173.26687411,21.94475190,-14.75178470
4.46186138,-3.10067555,1.21795920,1.57479080

>  <Name>
P64253460

>  <RI>
0

>  <Rbt.Current_Directory>
/home/fstefaniak/projects/zuza/docking/adenine/1Y26

>  <Rbt.Executable>
rbdock ($Id: //depot/dev/client3/rdock/2013.1/src/exe/rbdock.cxx#4 $)

>  <Rbt.Library>
libRbt.so (2013.1, Build901 2013/11/27)

>  <Rbt.Parameter_File>
/home/fstefaniak/progs/rDock//data/scripts/dock_solv.prm

>  <Rbt.Receptor>
1y26.prm

>  <SCORE>
-42.7661

>  <SCORE.INTER>
-25.3513

>  <SCORE.INTER.CONST>
1

>  <SCORE.INTER.POLAR>
-3.54399

>  <SCORE.INTER.ROT>
3

>  <SCORE.INTER.SOLV>
11.903

>  <SCORE.INTER.VDW>
-14.6552

>  <SCORE.INTER.norm>
-1.9501

>  <SCORE.INTRA>
2.4398

>  <SCORE.INTRA.DIHEDRAL>
1.35921

>  <SCORE.INTRA.DIHEDRAL.0>
1.76922

>  <SCORE.INTRA.POLAR>
0.631666

>  <SCORE.INTRA.POLAR.0>
-0.631666

>  <SCORE.INTRA.REPUL>
0

>  <SCORE.INTRA.REPUL.0>
0

>  <SCORE.INTRA.SOLV>
0.0493477

>  <SCORE.INTRA.SOLV.lig_0>
-15.3502

>  <SCORE.INTRA.VDW>
-0.412146

>  <SCORE.INTRA.VDW.0>
-0.398074

>  <SCORE.INTRA.norm>
0.187677

>  <SCORE.RESTR>
0.29278

>  <SCORE.RESTR.CAVITY>
0.29278

>  <SCORE.RESTR.norm>
0.0225216

>  <SCORE.SYSTEM>
-20.1474

>  <SCORE.SYSTEM.CONST>
0

>  <SCORE.SYSTEM.DIHEDRAL>
7.74787

>  <SCORE.SYSTEM.POLAR>
-3.2838

>  <SCORE.SYSTEM.SOLV>
0.447587

>  <SCORE.SYSTEM.VDW>
-5.21741

>  <SCORE.SYSTEM.norm>
-1.5498

>  <SCORE.heavy>
13

>  <SCORE.norm>
-3.2897

$$$$
P64682578
 OpenBabel12072022103D
libRbt.so/2013.1/901 2013/11/27
 15 16  0  0  0  0  0  0  0  0999 V2000
   23.7336  -14.8047    4.1998 C   0  0  0  0  0  0  0  0  0  0  0  0
   22.9360  -16.0940    4.3194 C   0  0  0  0  0  0  0  0  0  0  0  0
   21.4905  -15.6166    4.3199 C   0  0  2  0  0  0  0  0  0  0  0  0
   21.5666  -14.3807    5.1293 N   0  0  0  0  0  0  0  0  0  0  0  0
   22.7857  -13.7064    4.6637 C   0  0  0  0  0  0  0  0  0  0  0  0
   20.4844  -16.6424    4.8925 C   0  0  0  0  0  0  0  0  0  0  0  0
   20.5959  -18.0056    4.3347 N   0  0  0  0  0  0  0  0  0  0  0  0
   19.7575  -18.9690    5.0769 C   0  0  0  0  0  0  0  0  0  0  0  0
   18.2501  -18.7218    4.9133 C   0  0  0  0  0  0  0  0  0  0  0  0
   17.8605  -18.4486    3.5456 N   0  0  0  0  0  0  0  0  0  0  0  0
   18.7291  -17.9214    2.6226 C   0  0  0  0  0  0  0  0  0  0  0  0
   18.2949  -17.4407    1.5775 O   0  0  0  0  0  0  0  0  0  0  0  0
   20.2300  -18.0749    2.8974 C   0  0  0  0  0  0  0  0  0  0  0  0
   21.7029  -14.6417    6.1071 H   0  0  0  0  0  0  0  0  0  0  0  0
   16.8841  -18.2893    3.3289 H   0  0  0  0  0  0  0  0  0  0  0  0
  1  2  1  0  0  0  0
  1  5  1  0  0  0  0
  2  3  1  0  0  0  0
  3  4  1  0  0  0  0
  3  6  1  1  0  0  0
  4  5  1  0  0  0  0
  4 14  1  0  0  0  0
  6  7  1  0  0  0  0
  7  8  1  0  0  0  0
  7 13  1  0  0  0  0
  8  9  1  0  0  0  0
  9 10  1  0  0  0  0
 10 11  1  0  0  0  0
 10 15  1  0  0  0  0
 11 12  2  0  0  0  0
 11 13  1  0  0  0  0
M  END
>  <CHROM.0>
-51.80323342,-66.71764563,-54.94323473,-51.65199825,-59.90680372,-61.79355593
-55.27584067,-176.57144253,-167.67496195,160.44584901

>  <CHROM.1>
-49.69570060,170.92922448,20.49361737,-16.83000456,4.03280120,0.17569814
-0.72468220,-0.99574883

>  <Name>
P64682578

>  <RI>
0

>  <Rbt.Current_Directory>
/home/fstefaniak/projects/zuza/docking/adenine/1Y26

>  <Rbt.Executable>
rbdock ($Id: //depot/dev/client3/rdock/2013.1/src/exe/rbdock.cxx#4 $)

>  <Rbt.Library>
libRbt.so (2013.1, Build901 2013/11/27)

>  <Rbt.Parameter_File>
/home/fstefaniak/progs/rDock//data/scripts/dock_solv.prm

>  <Rbt.Receptor>
1y26.prm

>  <SCORE>
-48.4006

>  <SCORE.INTER>
-25.9907

>  <SCORE.INTER.CONST>
1

>  <SCORE.INTER.POLAR>
-2.05724

>  <SCORE.INTER.ROT>
2

>  <SCORE.INTER.SOLV>
14.4729

>  <SCORE.INTER.VDW>
-20.2273

>  <SCORE.INTER.norm>
-1.99928

>  <SCORE.INTRA>
0.193479

>  <SCORE.INTRA.DIHEDRAL>
0.33469

>  <SCORE.INTRA.DIHEDRAL.0>
0.160472

>  <SCORE.INTRA.POLAR>
0

>  <SCORE.INTRA.POLAR.0>
0

>  <SCORE.INTRA.REPUL>
0

>  <SCORE.INTRA.REPUL.0>
0

>  <SCORE.INTRA.SOLV>
0.00887433

>  <SCORE.INTRA.SOLV.lig_0>
-16.4161

>  <SCORE.INTRA.VDW>
0.0216971

>  <SCORE.INTRA.VDW.0>
-0.460237

>  <SCORE.INTRA.norm>
0.014883

>  <SCORE.RESTR>
0

>  <SCORE.RESTR.CAVITY>
0

>  <SCORE.RESTR.norm>
0

>  <SCORE.SYSTEM>
-22.6034

>  <SCORE.SYSTEM.CONST>
0

>  <SCORE.SYSTEM.DIHEDRAL>
5.5017

>  <SCORE.SYSTEM.POLAR>
-3.44693

>  <SCORE.SYSTEM.SOLV>
0.451018

>  <SCORE.SYSTEM.VDW>
-5.56343

>  <SCORE.SYSTEM.norm>
-1.73872

>  <SCORE.heavy>
13

>  <SCORE.norm>
-3.72312

$$$$
P64682578
 OpenBabel12072022103D
libRbt.so/2013.1/901 2013/11/27
 15 16  0  0  0  0  0  0  0  0999 V2000
   23.7314  -14.8389    4.2000 C   0  0  0  0  0  0  0  0  0  0  0  0
   22.9274  -16.1228    4.3337 C   0  0  0  0  0  0  0  0  0  0  0  0
   21.4842  -15.6386    4.3250 C   0  0  2  0  0  0  0  0  0  0  0  0
   21.5644  -14.3932    5.1194 N   0  0  0  0  0  0  0  0  0  0  0  0
   22.7877  -13.7304    4.6482 C   0  0  0  0  0  0  0  0  0  0  0  0
   20.4719  -16.6524    4.9079 C   0  0  0  0  0  0  0  0  0  0  0  0
   20.5794  -18.0233    4.3686 N   0  0  0  0  0  0  0  0  0  0  0  0
   19.7475  -18.9764    5.1313 C   0  0  0  0  0  0  0  0  0  0  0  0
   18.2387  -18.7320    4.9767 C   0  0  0  0  0  0  0  0  0  0  0  0
   17.8377  -18.4783    3.6085 N   0  0  0  0  0  0  0  0  0  0  0  0
   18.6985  -17.9640    2.6709 C   0  0  0  0  0  0  0  0  0  0  0  0
   18.2555  -17.4983    1.6228 O   0  0  0  0  0  0  0  0  0  0  0  0
   20.2017  -18.1132    2.9355 C   0  0  0  0  0  0  0  0  0  0  0  0
   21.6973  -14.6427    6.1005 H   0  0  0  0  0  0  0  0  0  0  0  0
   16.8596  -18.3224    3.3977 H   0  0  0  0  0  0  0  0  0  0  0  0
  1  2  1  0  0  0  0
  1  5  1  0  0  0  0
  2  3  1  0  0  0  0
  3  4  1  0  0  0  0
  3  6  1  1  0  0  0
  4  5  1  0  0  0  0
  4 14  1  0  0  0  0
  6  7  1  0  0  0  0
  7  8  1  0  0  0  0
  7 13  1  0  0  0  0
  8  9  1  0  0  0  0
  9 10  1  0  0  0  0
 10 11  1  0  0  0  0
 10 15  1  0  0  0  0
 11 12  2  0  0  0  0
 11 13  1  0  0  0  0
M  END
>  <CHROM.0>
-46.94896336,-67.80525425,-54.87505056,-50.43223958,-175.17860265,-57.93541257
-63.07195331,-53.36357708,-167.55653749,161.94619500

>  <CHROM.1>
-49.61424775,170.22174528,20.47895611,-16.85585359,4.06031699,0.17989264
-0.71938441,-1.00193317

>  <Name>
P64682578

>  <RI>
0

>  <Rbt.Current_Directory>
/home/fstefaniak/projects/zuza/docking/adenine/1Y26

>  <Rbt.Executable>
rbdock ($Id: //depot/dev/client3/rdock/2013.1/src/exe/rbdock.cxx#4 $)

>  <Rbt.Library>
libRbt.so (2013.1, Build901 2013/11/27)

>  <Rbt.Parameter_File>
/home/fstefaniak/progs/rDock//data/scripts/dock_solv.prm

>  <Rbt.Receptor>
1y26.prm

>  <SCORE>
-47.9097

>  <SCORE.INTER>
-26.0287

>  <SCORE.INTER.CONST>
1

>  <SCORE.INTER.POLAR>
-2.04691

>  <SCORE.INTER.ROT>
2

>  <SCORE.INTER.SOLV>
14.4748

>  <SCORE.INTER.VDW>
-20.2877

>  <SCORE.INTER.norm>
-2.0022

>  <SCORE.INTRA>
0.191427

>  <SCORE.INTRA.DIHEDRAL>
0.358705

>  <SCORE.INTRA.DIHEDRAL.0>
0.160472

>  <SCORE.INTRA.POLAR>
0

>  <SCORE.INTRA.POLAR.0>
0

>  <SCORE.INTRA.REPUL>
0

>  <SCORE.INTRA.REPUL.0>
0

>  <SCORE.INTRA.SOLV>
0.00677036

>  <SCORE.INTRA.SOLV.lig_0>
-16.4161

>  <SCORE.INTRA.VDW>
0.00868942

>  <SCORE.INTRA.VDW.0>
-0.460237

>  <SCORE.INTRA.norm>
0.0147252

>  <SCORE.RESTR>
0

>  <SCORE.RESTR.CAVITY>
0

>  <SCORE.RESTR.norm>
0

>  <SCORE.SYSTEM>
-22.0725

>  <SCORE.SYSTEM.CONST>
0

>  <SCORE.SYSTEM.DIHEDRAL>
6.14447

>  <SCORE.SYSTEM.POLAR>
-3.51293

>  <SCORE.SYSTEM.SOLV>
0.494941

>  <SCORE.SYSTEM.VDW>
-5.21835

>  <SCORE.SYSTEM.norm>
-1.69788

>  <SCORE.heavy>
13

>  <SCORE.norm>
-3.68536

$$$$
P64682578
 OpenBabel12072022103D
libRbt.so/2013.1/901 2013/11/27
 15 16  0  0  0  0  0  0  0  0999 V2000
   23.9914  -15.0450    4.5472 C   0  0  0  0  0  0  0  0  0  0  0  0
   23.0146  -16.1890    4.3242 C   0  0  0  0  0  0  0  0  0  0  0  0
   21.6676  -15.4878    4.2178 C   0  0  2  0  0  0  0  0  0  0  0  0
   21.7835  -14.4249    5.2402 N   0  0  0  0  0  0  0  0  0  0  0  0
   23.1427  -13.8939    5.0711 C   0  0  0  0  0  0  0  0  0  0  0  0
   20.4509  -16.4128    4.4559 C   0  0  0  0  0  0  0  0  0  0  0  0
   20.6147  -17.7983    3.9707 N   0  0  0  0  0  0  0  0  0  0  0  0
   19.9436  -18.7700    4.8580 C   0  0  0  0  0  0  0  0  0  0  0  0
   18.4120  -18.6497    4.8504 C   0  0  0  0  0  0  0  0  0  0  0  0
   17.8567  -18.5003    3.5213 N   0  0  0  0  0  0  0  0  0  0  0  0
   18.5746  -17.9725    2.4770 C   0  0  0  0  0  0  0  0  0  0  0  0
   17.9925  -17.5982    1.4608 O   0  0  0  0  0  0  0  0  0  0  0  0
   20.1039  -17.9926    2.5902 C   0  0  0  0  0  0  0  0  0  0  0  0
   21.7246  -14.8561    6.1639 H   0  0  0  0  0  0  0  0  0  0  0  0
   16.8529  -18.4307    3.4066 H   0  0  0  0  0  0  0  0  0  0  0  0
  1  2  1  0  0  0  0
  1  5  1  0  0  0  0
  2  3  1  0  0  0  0
  3  4  1  0  0  0  0
  3  6  1  1  0  0  0
  4  5  1  0  0  0  0
  4 14  1  0  0  0  0
  6  7  1  0  0  0  0
  7  8  1  0  0  0  0
  7 13  1  0  0  0  0
  8  9  1  0  0  0  0
  9 10  1  0  0  0  0
 10 11  1  0  0  0  0
 10 15  1  0  0  0  0
 11 12  2  0  0  0  0
 11 13  1  0  0  0  0
M  END
>  <CHROM.0>
-45.95606792,-174.23101888,-55.67127297,-52.48449895,-56.56902138,-177.70912395
-61.18455582,63.20875901,-166.24256410,159.81942125

>  <CHROM.1>
-34.56861824,144.67359037,20.55484773,-16.82679372,3.96499337,0.03776828
-0.70733773,-1.05588047

>  <Name>
P64682578

>  <RI>
0

>  <Rbt.Current_Directory>
/home/fstefaniak/projects/zuza/docking/adenine/1Y26

>  <Rbt.Executable>
rbdock ($Id: //depot/dev/client3/rdock/2013.1/src/exe/rbdock.cxx#4 $)

>  <Rbt.Library>
libRbt.so (2013.1, Build901 2013/11/27)

>  <Rbt.Parameter_File>
/home/fstefaniak/progs/rDock//data/scripts/dock_solv.prm

>  <Rbt.Receptor>
1y26.prm

>  <SCORE>
-47.3937

>  <SCORE.INTER>
-27.5386

>  <SCORE.INTER.CONST>
1

>  <SCORE.INTER.POLAR>
-2.12463

>  <SCORE.INTER.ROT>
2

>  <SCORE.INTER.SOLV>
14.7565

>  <SCORE.INTER.VDW>
-21.1291

>  <SCORE.INTER.norm>
-2.11835

>  <SCORE.INTRA>
1.53099

>  <SCORE.INTRA.DIHEDRAL>
3.29205

>  <SCORE.INTRA.DIHEDRAL.0>
0.160472

>  <SCORE.INTRA.POLAR>
0

>  <SCORE.INTRA.POLAR.0>
0

>  <SCORE.INTRA.REPUL>
0

>  <SCORE.INTRA.REPUL.0>
0

>  <SCORE.INTRA.SOLV>
-0.0109606

>  <SCORE.INTRA.SOLV.lig_0>
-16.4161

>  <SCORE.INTRA.VDW>
-0.109551

>  <SCORE.INTRA.VDW.0>
-0.460237

>  <SCORE.INTRA.norm>
0.117769

>  <SCORE.RESTR>
0

>  <SCORE.RESTR.CAVITY>
0

>  <SCORE.RESTR.norm>
0

>  <SCORE.SYSTEM>
-21.3861

>  <SCORE.SYSTEM.CONST>
0

>  <SCORE.SYSTEM.DIHEDRAL>
6.15998

>  <SCORE.SYSTEM.POLAR>
-3.52469

>  <SCORE.SYSTEM.SOLV>
0.228593

>  <SCORE.SYSTEM.VDW>
-4.638

>  <SCORE.SYSTEM.norm>
-1.64509

>  <SCORE.heavy>
13

>  <SCORE.norm>
-3.64567

$$$$
P66010263
 OpenBabel12072022103D
libRbt.so/2013.1/901 2013/11/27
 12 12  0  0  0  0  0  0  0  0999 V2000
   19.2012  -18.9606    6.7757 C   0  0  0  0  0  0  0  0  0  0  0  0
   19.4368  -19.1447    5.2880 C   0  0  2  0  0  0  0  0  0  0  0  0
   19.8611  -17.8825    4.5898 C   0  0  0  0  0  0  0  0  0  0  0  0
   19.3812  -17.4332    3.4205 N   0  0  0  0  0  0  0  0  0  0  0  0
   18.6682  -17.8748    2.8484 H   0  0  0  0  0  0  0  0  0  0  0  0
   19.9953  -16.2653    3.0458 N   0  0  0  0  0  0  0  0  0  0  0  0
   20.8209  -16.0550    4.0050 C   0  0  0  0  0  0  0  0  0  0  0  0
   20.7805  -17.0044    4.9674 N   0  3  0  0  0  0  0  0  0  0  0  0
   21.3828  -16.9577    5.7767 H   0  0  0  0  0  0  0  0  0  0  0  0
   21.8990  -14.7784    4.1414 S   0  5  0  0  0  0  0  0  0  0  0  0
   18.2335  -19.6521    4.6999 O   0  0  0  0  0  0  0  0  0  0  0  0
   18.0327  -20.5068    5.1257 H   0  0  0  0  0  0  0  0  0  0  0  0
  2  3  1  0  0  0  0
  2 11  1  0  0  0  0
  2  1  1  1  0  0  0
  3  4  1  0  0  0  0
  3  8  2  0  0  0  0
  4  5  1  0  0  0  0
  4  6  1  0  0  0  0
  6  7  2  0  0  0  0
  7  8  1  0  0  0  0
  7 10  1  0  0  0  0
  8  9  1  0  0  0  0
 11 12  1  0  0  0  0
M  CHG  2   8   1  10  -1
M  END
>  <CHROM.0>
-44.26479627,-60.41789211,-54.39719215,-52.29434555,-56.22343575,-58.09689257
-58.74840313,-176.35309331,-166.21988408,161.15897234

>  <CHROM.1>
-134.97145589,-60.19937372,20.14971379,-17.19336694,4.51803132,-2.46715048
-0.83069855,-1.07001905

>  <Name>
P66010263

>  <RI>
0

>  <Rbt.Current_Directory>
/home/fstefaniak/projects/zuza/docking/adenine/1Y26

>  <Rbt.Executable>
rbdock ($Id: //depot/dev/client3/rdock/2013.1/src/exe/rbdock.cxx#4 $)

>  <Rbt.Library>
libRbt.so (2013.1, Build901 2013/11/27)

>  <Rbt.Parameter_File>
/home/fstefaniak/progs/rDock//data/scripts/dock_solv.prm

>  <Rbt.Receptor>
1y26.prm

>  <SCORE>
-56.2291

>  <SCORE.INTER>
-32.821

>  <SCORE.INTER.CONST>
1

>  <SCORE.INTER.POLAR>
-3.8128

>  <SCORE.INTER.ROT>
1

>  <SCORE.INTER.SOLV>
15.3121

>  <SCORE.INTER.VDW>
-18.542

>  <SCORE.INTER.norm>
-3.64678

>  <SCORE.INTRA>
-0.819679

>  <SCORE.INTRA.DIHEDRAL>
-3.15691

>  <SCORE.INTRA.DIHEDRAL.0>
4.25128

>  <SCORE.INTRA.POLAR>
0

>  <SCORE.INTRA.POLAR.0>
0

>  <SCORE.INTRA.REPUL>
0

>  <SCORE.INTRA.REPUL.0>
0

>  <SCORE.INTRA.SOLV>
-0.0102451

>  <SCORE.INTRA.SOLV.lig_0>
-29.3101

>  <SCORE.INTRA.VDW>
0.7639

>  <SCORE.INTRA.VDW.0>
-0.757086

>  <SCORE.INTRA.norm>
-0.0910754

>  <SCORE.RESTR>
0

>  <SCORE.RESTR.CAVITY>
0

>  <SCORE.RESTR.norm>
0

>  <SCORE.SYSTEM>
-22.5884

>  <SCORE.SYSTEM.CONST>
0

>  <SCORE.SYSTEM.DIHEDRAL>
6.12205

>  <SCORE.SYSTEM.POLAR>
-3.53928

>  <SCORE.SYSTEM.SOLV>
0.466462

>  <SCORE.SYSTEM.VDW>
-5.45752

>  <SCORE.SYSTEM.norm>
-2.50982

>  <SCORE.heavy>
9

>  <SCORE.norm>
-6.24768

$$$$
P66010263
 OpenBabel12072022103D
libRbt.so/2013.1/901 2013/11/27
 12 12  0  0  0  0  0  0  0  0999 V2000
   19.2917  -18.9646    6.7387 C   0  0  0  0  0  0  0  0  0  0  0  0
   19.4756  -19.1654    5.2459 C   0  0  2  0  0  0  0  0  0  0  0  0
   19.9302  -17.9252    4.5278 C   0  0  0  0  0  0  0  0  0  0  0  0
   19.5609  -17.5533    3.2930 N   0  0  0  0  0  0  0  0  0  0  0  0
   18.9257  -18.0493    2.6755 H   0  0  0  0  0  0  0  0  0  0  0  0
   20.1734  -16.3838    2.9208 N   0  0  0  0  0  0  0  0  0  0  0  0
   20.8875  -16.0951    3.9468 C   0  0  0  0  0  0  0  0  0  0  0  0
   20.7770  -16.9957    4.9498 N   0  3  0  0  0  0  0  0  0  0  0  0
   21.2898  -16.8861    5.8128 H   0  0  0  0  0  0  0  0  0  0  0  0
   21.9045  -14.7742    4.1239 S   0  5  0  0  0  0  0  0  0  0  0  0
   18.2358  -19.6261    4.6963 O   0  0  0  0  0  0  0  0  0  0  0  0
   18.0132  -20.4700    5.1327 H   0  0  0  0  0  0  0  0  0  0  0  0
  2  3  1  0  0  0  0
  2 11  1  0  0  0  0
  2  1  1  1  0  0  0
  3  4  1  0  0  0  0
  3  8  2  0  0  0  0
  4  5  1  0  0  0  0
  4  6  1  0  0  0  0
  6  7  2  0  0  0  0
  7  8  1  0  0  0  0
  7 10  1  0  0  0  0
  8  9  1  0  0  0  0
 11 12  1  0  0  0  0
M  CHG  2   8   1  10  -1
M  END
>  <CHROM.0>
-53.85354943,-60.04724301,-63.41079399,-53.69721708,-54.43774133,-59.03735187
-62.49319355,-48.56036147,-166.50776175,160.60404087

>  <CHROM.1>
-144.12655908,-60.23071684,20.21044801,-17.22132447,4.46926709,-2.52718271
-0.87291610,-1.15326473

>  <Name>
P66010263

>  <RI>
0

>  <Rbt.Current_Directory>
/home/fstefaniak/projects/zuza/docking/adenine/1Y26

>  <Rbt.Executable>
rbdock ($Id: //depot/dev/client3/rdock/2013.1/src/exe/rbdock.cxx#4 $)

>  <Rbt.Library>
libRbt.so (2013.1, Build901 2013/11/27)

>  <Rbt.Parameter_File>
/home/fstefaniak/progs/rDock//data/scripts/dock_solv.prm

>  <Rbt.Receptor>
1y26.prm

>  <SCORE>
-55.9482

>  <SCORE.INTER>
-32.9945

>  <SCORE.INTER.CONST>
1

>  <SCORE.INTER.POLAR>
-3.85728

>  <SCORE.INTER.ROT>
1

>  <SCORE.INTER.SOLV>
14.9885

>  <SCORE.INTER.VDW>
-18.4016

>  <SCORE.INTER.norm>
-3.66605

>  <SCORE.INTRA>
-0.769118

>  <SCORE.INTRA.DIHEDRAL>
-3.1608

>  <SCORE.INTRA.DIHEDRAL.0>
4.25128

>  <SCORE.INTRA.POLAR>
0

>  <SCORE.INTRA.POLAR.0>
0

>  <SCORE.INTRA.REPUL>
0

>  <SCORE.INTRA.REPUL.0>
0

>  <SCORE.INTRA.SOLV>
-0.0311376

>  <SCORE.INTRA.SOLV.lig_0>
-29.3101

>  <SCORE.INTRA.VDW>
0.826849

>  <SCORE.INTRA.VDW.0>
-0.757086

>  <SCORE.INTRA.norm>
-0.0854576

>  <SCORE.RESTR>
0

>  <SCORE.RESTR.CAVITY>
0

>  <SCORE.RESTR.norm>
0

>  <SCORE.SYSTEM>
-22.1846

>  <SCORE.SYSTEM.CONST>
0

>  <SCORE.SYSTEM.DIHEDRAL>
5.63642

>  <SCORE.SYSTEM.POLAR>
-3.4014

>  <SCORE.SYSTEM.SOLV>
0.640705

>  <SCORE.SYSTEM.VDW>
-5.5441

>  <SCORE.SYSTEM.norm>
-2.46496

>  <SCORE.heavy>
9

>  <SCORE.norm>
-6.21646

$$$$
P66010263
 OpenBabel12072022103D
libRbt.so/2013.1/901 2013/11/27
 12 12  0  0  0  0  0  0  0  0999 V2000
   19.2943  -19.0214    6.7701 C   0  0  0  0  0  0  0  0  0  0  0  0
   19.4097  -19.1526    5.2628 C   0  0  2  0  0  0  0  0  0  0  0  0
   19.8039  -17.8722    4.5802 C   0  0  0  0  0  0  0  0  0  0  0  0
   19.3484  -17.4430    3.3937 N   0  0  0  0  0  0  0  0  0  0  0  0
   18.6771  -17.9147    2.7958 H   0  0  0  0  0  0  0  0  0  0  0  0
   19.9241  -16.2489    3.0415 N   0  0  0  0  0  0  0  0  0  0  0  0
   20.7036  -16.0037    4.0306 C   0  0  0  0  0  0  0  0  0  0  0  0
   20.6693  -16.9551    4.9912 N   0  3  0  0  0  0  0  0  0  0  0  0
   21.2385  -16.8830    5.8223 H   0  0  0  0  0  0  0  0  0  0  0  0
   21.7189  -14.6812    4.2062 S   0  5  0  0  0  0  0  0  0  0  0  0
   18.1544  -19.6165    4.7526 O   0  0  0  0  0  0  0  0  0  0  0  0
   17.9740  -20.4869    5.1550 H   0  0  0  0  0  0  0  0  0  0  0  0
  2  3  1  0  0  0  0
  2 11  1  0  0  0  0
  2  1  1  1  0  0  0
  3  4  1  0  0  0  0
  3  8  2  0  0  0  0
  4  5  1  0  0  0  0
  4  6  1  0  0  0  0
  6  7  2  0  0  0  0
  7  8  1  0  0  0  0
  7 10  1  0  0  0  0
  8  9  1  0  0  0  0
 11 12  1  0  0  0  0
M  CHG  2   8   1  10  -1
M  END
>  <CHROM.0>
-47.58425962,-59.43774857,-52.74088395,-51.06573074,-55.73719455,-60.03107559
-58.05784932,-51.01136837,-166.50196515,160.11312387

>  <CHROM.1>
-142.77764108,-60.69963670,20.07190063,-17.16408848,4.53609018,-2.43595510
-0.85627198,-1.03482865

>  <Name>
P66010263

>  <RI>
0

>  <Rbt.Current_Directory>
/home/fstefaniak/projects/zuza/docking/adenine/1Y26

>  <Rbt.Executable>
rbdock ($Id: //depot/dev/client3/rdock/2013.1/src/exe/rbdock.cxx#4 $)

>  <Rbt.Library>
libRbt.so (2013.1, Build901 2013/11/27)

>  <Rbt.Parameter_File>
/home/fstefaniak/progs/rDock//data/scripts/dock_solv.prm

>  <Rbt.Receptor>
1y26.prm

>  <SCORE>
-55.8163

>  <SCORE.INTER>
-32.8261

>  <SCORE.INTER.CONST>
1

>  <SCORE.INTER.POLAR>
-3.8009

>  <SCORE.INTER.ROT>
1

>  <SCORE.INTER.SOLV>
15.5005

>  <SCORE.INTER.VDW>
-18.6479

>  <SCORE.INTER.norm>
-3.64735

>  <SCORE.INTRA>
-0.78948

>  <SCORE.INTRA.DIHEDRAL>
-3.15835

>  <SCORE.INTRA.DIHEDRAL.0>
4.25128

>  <SCORE.INTRA.POLAR>
0

>  <SCORE.INTRA.POLAR.0>
0

>  <SCORE.INTRA.REPUL>
0

>  <SCORE.INTRA.REPUL.0>
0

>  <SCORE.INTRA.SOLV>
-0.026734

>  <SCORE.INTRA.SOLV.lig_0>
-29.3101

>  <SCORE.INTRA.VDW>
0.803062

>  <SCORE.INTRA.VDW.0>
-0.757086

>  <SCORE.INTRA.norm>
-0.08772

>  <SCORE.RESTR>
0

>  <SCORE.RESTR.CAVITY>
0

>  <SCORE.RESTR.norm>
0

>  <SCORE.SYSTEM>
-22.2007

>  <SCORE.SYSTEM.CONST>
0

>  <SCORE.SYSTEM.DIHEDRAL>
6.32917

>  <SCORE.SYSTEM.POLAR>
-3.58426

>  <SCORE.SYSTEM.SOLV>
0.677781

>  <SCORE.SYSTEM.VDW>
-5.18857

>  <SCORE.SYSTEM.norm>
-2.46674

>  <SCORE.heavy>
9

>  <SCORE.norm>
-6.20181

$$$$
P67315782
 OpenBabel12072022103D
libRbt.so/2013.1/901 2013/11/27
 12 12  0  0  0  0  0  0  0  0999 V2000
   18.5860  -19.3603    5.7245 C   0  0  0  0  0  0  0  0  0  0  0  0
   19.5471  -18.9881    4.6027 C   0  0  2  0  0  0  0  0  0  0  0  0
   19.8866  -17.4986    4.5199 C   0  0  1  0  0  0  0  0  0  0  0  0
   18.8168  -16.9866    3.5728 C   0  0  2  0  0  0  0  0  0  0  0  0
   18.7170  -18.1532    2.5932 C   0  0  2  0  0  0  0  0  0  0  0  0
   18.9306  -19.3471    3.3434 O   0  0  0  0  0  0  0  0  0  0  0  0
   19.7565  -18.0360    1.6274 O   0  0  0  0  0  0  0  0  0  0  0  0
   19.2030  -15.7564    2.9634 O   0  0  0  0  0  0  0  0  0  0  0  0
   19.8715  -16.8149    5.7647 O   0  0  0  0  0  0  0  0  0  0  0  0
   19.7955  -18.9144    1.2092 H   0  0  0  0  0  0  0  0  0  0  0  0
   19.1775  -15.0944    3.6862 H   0  0  0  0  0  0  0  0  0  0  0  0
   20.7277  -17.0130    6.1906 H   0  0  0  0  0  0  0  0  0  0  0  0
  2  6  1  0  0  0  0
  2  1  1  1  0  0  0
  2  3  1  0  0  0  0
  3  9  1  1  0  0  0
  3  4  1  0  0  0  0
  4  8  1  6  0  0  0
  4  5  1  0  0  0  0
  5  6  1  0  0  0  0
  5  7  1  6  0  0  0
  7 10  1  0  0  0  0
  8 11  1  0  0  0  0
  9 12  1  0  0  0  0
M  END
>  <CHROM.0>
-44.99840333,-59.91494614,-54.86237379,-53.79154432,-56.15419047,-61.03942484
-60.47762691,-175.14497046,-165.58720577,160.27914925

>  <CHROM.1>
80.64599547,-69.84632516,164.28398604,19.27792317,-17.84984314,3.84290017
1.64735341,1.40396101,1.84361127

>  <Name>
P67315782

>  <RI>
0

>  <Rbt.Current_Directory>
/home/fstefaniak/projects/zuza/docking/adenine/1Y26

>  <Rbt.Executable>
rbdock ($Id: //depot/dev/client3/rdock/2013.1/src/exe/rbdock.cxx#4 $)

>  <Rbt.Library>
libRbt.so (2013.1, Build901 2013/11/27)

>  <Rbt.Parameter_File>
/home/fstefaniak/progs/rDock//data/scripts/dock_solv.prm

>  <Rbt.Receptor>
1y26.prm

>  <SCORE>
-57.7331

>  <SCORE.INTER>
-35.8522

>  <SCORE.INTER.CONST>
1

>  <SCORE.INTER.POLAR>
-5.2054

>  <SCORE.INTER.ROT>
0

>  <SCORE.INTER.SOLV>
14.0858

>  <SCORE.INTER.VDW>
-14.8454

>  <SCORE.INTER.norm>
-3.98358

>  <SCORE.INTRA>
0.763256

>  <SCORE.INTRA.DIHEDRAL>
0.707876

>  <SCORE.INTRA.DIHEDRAL.0>
3.00949

>  <SCORE.INTRA.POLAR>
0.339103

>  <SCORE.INTRA.POLAR.0>
-0.339103

>  <SCORE.INTRA.REPUL>
0

>  <SCORE.INTRA.REPUL.0>
0

>  <SCORE.INTRA.SOLV>
-0.214561

>  <SCORE.INTRA.SOLV.lig_0>
-16.2546

>  <SCORE.INTRA.VDW>
-0.636351

>  <SCORE.INTRA.VDW.0>
0.214379

>  <SCORE.INTRA.norm>
0.0848063

>  <SCORE.RESTR>
0

>  <SCORE.RESTR.CAVITY>
0

>  <SCORE.RESTR.norm>
0

>  <SCORE.SYSTEM>
-22.6441

>  <SCORE.SYSTEM.CONST>
0

>  <SCORE.SYSTEM.DIHEDRAL>
6.14012

>  <SCORE.SYSTEM.POLAR>
-3.51741

>  <SCORE.SYSTEM.SOLV>
0.451556

>  <SCORE.SYSTEM.VDW>
-5.5686

>  <SCORE.SYSTEM.norm>
-2.51601

>  <SCORE.heavy>
9

>  <SCORE.norm>
-6.41479

$$$$
P67315782
 OpenBabel12072022103D
libRbt.so/2013.1/901 2013/11/27
 12 12  0  0  0  0  0  0  0  0999 V2000
   18.5652  -19.3557    5.6886 C   0  0  0  0  0  0  0  0  0  0  0  0
   19.5390  -18.9851    4.5772 C   0  0  2  0  0  0  0  0  0  0  0  0
   19.8839  -17.4966    4.4999 C   0  0  1  0  0  0  0  0  0  0  0  0
   18.8256  -16.9801    3.5425 C   0  0  2  0  0  0  0  0  0  0  0  0
   18.7323  -18.1451    2.5603 C   0  0  2  0  0  0  0  0  0  0  0  0
   18.9344  -19.3406    3.3113 O   0  0  0  0  0  0  0  0  0  0  0  0
   19.7821  -18.0300    1.6055 O   0  0  0  0  0  0  0  0  0  0  0  0
   19.2219  -15.7503    2.9387 O   0  0  0  0  0  0  0  0  0  0  0  0
   19.8582  -16.8145    5.7454 O   0  0  0  0  0  0  0  0  0  0  0  0
   19.8231  -18.9082    1.1871 H   0  0  0  0  0  0  0  0  0  0  0  0
   19.1659  -15.0841    3.6559 H   0  0  0  0  0  0  0  0  0  0  0  0
   20.7089  -17.0164    6.1802 H   0  0  0  0  0  0  0  0  0  0  0  0
  2  6  1  0  0  0  0
  2  1  1  1  0  0  0
  2  3  1  0  0  0  0
  3  9  1  1  0  0  0
  3  4  1  0  0  0  0
  4  8  1  6  0  0  0
  4  5  1  0  0  0  0
  5  6  1  0  0  0  0
  5  7  1  6  0  0  0
  7 10  1  0  0  0  0
  8 11  1  0  0  0  0
  9 12  1  0  0  0  0
M  END
>  <CHROM.0>
-47.95759322,-62.22629908,-59.48317389,-53.25073948,-56.54090353,-62.27448853
-64.15766767,-52.43730993,-166.55062554,159.53177844

>  <CHROM.1>
80.59805641,-71.44518594,164.24568332,19.28103461,-17.84504304,3.81616366
1.71196312,1.40380012,1.78141735

>  <Name>
P67315782

>  <RI>
0

>  <Rbt.Current_Directory>
/home/fstefaniak/projects/zuza/docking/adenine/1Y26

>  <Rbt.Executable>
rbdock ($Id: //depot/dev/client3/rdock/2013.1/src/exe/rbdock.cxx#4 $)

>  <Rbt.Library>
libRbt.so (2013.1, Build901 2013/11/27)

>  <Rbt.Parameter_File>
/home/fstefaniak/progs/rDock//data/scripts/dock_solv.prm

>  <Rbt.Receptor>
1y26.prm

>  <SCORE>
-57.4438

>  <SCORE.INTER>
-35.9712

>  <SCORE.INTER.CONST>
1

>  <SCORE.INTER.POLAR>
-5.24483

>  <SCORE.INTER.ROT>
0

>  <SCORE.INTER.SOLV>
14.0972

>  <SCORE.INTER.VDW>
-14.7971

>  <SCORE.INTER.norm>
-3.9968

>  <SCORE.INTRA>
0.828377

>  <SCORE.INTRA.DIHEDRAL>
0.858119

>  <SCORE.INTRA.DIHEDRAL.0>
3.00949

>  <SCORE.INTRA.POLAR>
0.339103

>  <SCORE.INTRA.POLAR.0>
-0.339103

>  <SCORE.INTRA.REPUL>
0

>  <SCORE.INTRA.REPUL.0>
0

>  <SCORE.INTRA.SOLV>
-0.21662

>  <SCORE.INTRA.SOLV.lig_0>
-16.2546

>  <SCORE.INTRA.VDW>
-0.645323

>  <SCORE.INTRA.VDW.0>
0.214379

>  <SCORE.INTRA.norm>
0.0920418

>  <SCORE.RESTR>
0

>  <SCORE.RESTR.CAVITY>
0

>  <SCORE.RESTR.norm>
0

>  <SCORE.SYSTEM>
-22.3009

>  <SCORE.SYSTEM.CONST>
0

>  <SCORE.SYSTEM.DIHEDRAL>
5.95216

>  <SCORE.SYSTEM.POLAR>
-3.49317

>  <SCORE.SYSTEM.SOLV>
0.638014

>  <SCORE.SYSTEM.VDW>
-5.42008

>  <SCORE.SYSTEM.norm>
-2.47788

>  <SCORE.heavy>
9

>  <SCORE.norm>
-6.38264

$$$$
P67315782
 OpenBabel12072022103D
libRbt.so/2013.1/901 2013/11/27
 12 12  0  0  0  0  0  0  0  0999 V2000
   18.6062  -19.3786    5.6915 C   0  0  0  0  0  0  0  0  0  0  0  0
   19.5666  -18.9986    4.5717 C   0  0  2  0  0  0  0  0  0  0  0  0
   19.9041  -17.5082    4.4975 C   0  0  1  0  0  0  0  0  0  0  0  0
   18.8335  -16.9922    3.5536 C   0  0  2  0  0  0  0  0  0  0  0  0
   18.7352  -18.1532    2.5671 C   0  0  2  0  0  0  0  0  0  0  0  0
   18.9505  -19.3512    3.3105 O   0  0  0  0  0  0  0  0  0  0  0  0
   19.7745  -18.0290    1.6020 O   0  0  0  0  0  0  0  0  0  0  0  0
   19.2180  -15.7579    2.9512 O   0  0  0  0  0  0  0  0  0  0  0  0
   19.8882  -16.8318    5.7463 O   0  0  0  0  0  0  0  0  0  0  0  0
   19.8071  -18.9015    1.1710 H   0  0  0  0  0  0  0  0  0  0  0  0
   19.1865  -15.0991    3.6767 H   0  0  0  0  0  0  0  0  0  0  0  0
   20.7626  -16.9926    6.1503 H   0  0  0  0  0  0  0  0  0  0  0  0
  2  6  1  0  0  0  0
  2  1  1  1  0  0  0
  2  3  1  0  0  0  0
  3  9  1  1  0  0  0
  3  4  1  0  0  0  0
  4  8  1  6  0  0  0
  4  5  1  0  0  0  0
  5  6  1  0  0  0  0
  5  7  1  6  0  0  0
  7 10  1  0  0  0  0
  8 11  1  0  0  0  0
  9 12  1  0  0  0  0
M  END
>  <CHROM.0>
-48.81345772,-61.10466481,-59.25958661,-51.44418535,-57.07135899,-57.09483190
-58.63817004,-51.73331328,-166.54042316,160.75459962

>  <CHROM.1>
83.52962984,-70.17847644,164.97322495,19.29588829,-17.85600745,3.81835273
1.64424470,1.40486034,1.85229353

>  <Name>
P67315782

>  <RI>
0

>  <Rbt.Current_Directory>
/home/fstefaniak/projects/zuza/docking/adenine/1Y26

>  <Rbt.Executable>
rbdock ($Id: //depot/dev/client3/rdock/2013.1/src/exe/rbdock.cxx#4 $)

>  <Rbt.Library>
libRbt.so (2013.1, Build901 2013/11/27)

>  <Rbt.Parameter_File>
/home/fstefaniak/progs/rDock//data/scripts/dock_solv.prm

>  <Rbt.Receptor>
1y26.prm

>  <SCORE>
-57.4142

>  <SCORE.INTER>
-36.076

>  <SCORE.INTER.CONST>
1

>  <SCORE.INTER.POLAR>
-5.21776

>  <SCORE.INTER.ROT>
0

>  <SCORE.INTER.SOLV>
14.0741

>  <SCORE.INTER.VDW>
-14.9495

>  <SCORE.INTER.norm>
-4.00844

>  <SCORE.INTRA>
0.971126

>  <SCORE.INTRA.DIHEDRAL>
1.13403

>  <SCORE.INTRA.DIHEDRAL.0>
3.00949

>  <SCORE.INTRA.POLAR>
0.339103

>  <SCORE.INTRA.POLAR.0>
-0.339103

>  <SCORE.INTRA.REPUL>
0

>  <SCORE.INTRA.REPUL.0>
0

>  <SCORE.INTRA.SOLV>
-0.212718

>  <SCORE.INTRA.SOLV.lig_0>
-16.2546

>  <SCORE.INTRA.VDW>
-0.642477

>  <SCORE.INTRA.VDW.0>
0.214379

>  <SCORE.INTRA.norm>
0.107903

>  <SCORE.RESTR>
0

>  <SCORE.RESTR.CAVITY>
0

>  <SCORE.RESTR.norm>
0

>  <SCORE.SYSTEM>
-22.3094

>  <SCORE.SYSTEM.CONST>
0

>  <SCORE.SYSTEM.DIHEDRAL>
5.76302

>  <SCORE.SYSTEM.POLAR>
-3.50737

>  <SCORE.SYSTEM.SOLV>
0.666502

>  <SCORE.SYSTEM.VDW>
-5.32486

>  <SCORE.SYSTEM.norm>
-2.47882

>  <SCORE.heavy>
9

>  <SCORE.norm>
-6.37936

$$$$
P67889152
 OpenBabel12072022103D
libRbt.so/2013.1/901 2013/11/27
 16 16  0  0  0  0  0  0  0  0999 V2000
   20.5780  -15.5212    4.1606 C   0  0  0  0  0  0  0  0  0  0  0  0
   21.1421  -16.9546    4.2241 C   0  0  0  0  0  0  0  0  0  0  0  0
   20.4911  -17.7586    5.3766 C   0  0  0  0  0  0  0  0  0  0  0  0
   19.0234  -18.1107    5.1329 C   0  0  0  0  0  0  0  0  0  0  0  0
   18.8254  -18.8304    3.8053 C   0  0  0  0  0  0  0  0  0  0  0  0
   19.4043  -18.0330    2.6444 C   0  0  0  0  0  0  0  0  0  0  0  0
   20.8720  -17.6840    2.8820 C   0  0  0  0  0  0  0  0  0  0  0  0
   22.6093  -16.9019    4.3962 N   0  0  0  0  0  0  0  0  0  0  0  0
   23.3711  -15.7734    4.2060 C   0  0  0  0  0  0  0  0  0  0  0  0
   23.3546  -15.0539    3.2152 O   0  0  0  0  0  0  0  0  0  0  0  0
   24.1971  -15.5387    5.3020 N   0  0  0  0  0  0  0  0  0  0  0  0
   25.3313  -16.3723    5.4811 N   0  0  0  0  0  0  0  0  0  0  0  0
   23.1082  -17.7564    4.1924 H   0  0  0  0  0  0  0  0  0  0  0  0
   24.3031  -14.5624    5.5653 H   0  0  0  0  0  0  0  0  0  0  0  0
   25.7172  -16.1431    6.4088 H   0  0  0  0  0  0  0  0  0  0  0  0
   26.0543  -16.0331    4.8399 H   0  0  0  0  0  0  0  0  0  0  0  0
  1  2  1  0  0  0  0
  2  3  1  0  0  0  0
  2  7  1  0  0  0  0
  2  8  1  0  0  0  0
  3  4  1  0  0  0  0
  4  5  1  0  0  0  0
  5  6  1  0  0  0  0
  6  7  1  0  0  0  0
  8  9  1  0  0  0  0
  8 13  1  0  0  0  0
  9 10  2  0  0  0  0
  9 11  1  0  0  0  0
 11 12  1  0  0  0  0
 11 14  1  0  0  0  0
 12 15  1  0  0  0  0
 12 16  1  0  0  0  0
M  END
>  <CHROM.0>
-50.70836176,69.78790826,60.86141288,-52.70066813,-175.78807610,-57.70243366
77.00467071,66.17460463,-166.36281521,161.77111245

>  <CHROM.1>
-14.25176631,-51.44294070,73.98650148,-171.10467808,21.67310924,-16.84329111
4.24746757,3.06672884,0.46502608,2.08948044

>  <Name>
P67889152

>  <RI>
0

>  <Rbt.Current_Directory>
/home/fstefaniak/projects/zuza/docking/adenine/1Y26

>  <Rbt.Executable>
rbdock ($Id: //depot/dev/client3/rdock/2013.1/src/exe/rbdock.cxx#4 $)

>  <Rbt.Library>
libRbt.so (2013.1, Build901 2013/11/27)

>  <Rbt.Parameter_File>
/home/fstefaniak/progs/rDock//data/scripts/dock_solv.prm

>  <Rbt.Receptor>
1y26.prm

>  <SCORE>
-49.7421

>  <SCORE.INTER>
-31.3449

>  <SCORE.INTER.CONST>
1

>  <SCORE.INTER.POLAR>
-4.93607

>  <SCORE.INTER.ROT>
4

>  <SCORE.INTER.SOLV>
15.655

>  <SCORE.INTER.VDW>
-15.9281

>  <SCORE.INTER.norm>
-2.61208

>  <SCORE.INTRA>
0.702538

>  <SCORE.INTRA.DIHEDRAL>
-0.380954

>  <SCORE.INTRA.DIHEDRAL.0>
2.72739

>  <SCORE.INTRA.POLAR>
0

>  <SCORE.INTRA.POLAR.0>
0

>  <SCORE.INTRA.REPUL>
0

>  <SCORE.INTRA.REPUL.0>
0

>  <SCORE.INTRA.SOLV>
0.042987

>  <SCORE.INTRA.SOLV.lig_0>
-15.5592

>  <SCORE.INTRA.VDW>
0.871522

>  <SCORE.INTRA.VDW.0>
-0.0442612

>  <SCORE.INTRA.norm>
0.0585449

>  <SCORE.RESTR>
0

>  <SCORE.RESTR.CAVITY>
0

>  <SCORE.RESTR.norm>
0

>  <SCORE.SYSTEM>
-19.0997

>  <SCORE.SYSTEM.CONST>
0

>  <SCORE.SYSTEM.DIHEDRAL>
7.00255

>  <SCORE.SYSTEM.POLAR>
-3.70888

>  <SCORE.SYSTEM.SOLV>
0.0906761

>  <SCORE.SYSTEM.VDW>
-2.73459

>  <SCORE.SYSTEM.norm>
-1.59164

>  <SCORE.heavy>
12

>  <SCORE.norm>
-4.14517

$$$$
P67889152
 OpenBabel12072022103D
libRbt.so/2013.1/901 2013/11/27
 16 16  0  0  0  0  0  0  0  0999 V2000
   25.3623  -13.2276    4.4601 C   0  0  0  0  0  0  0  0  0  0  0  0
   24.0959  -13.8904    3.8824 C   0  0  0  0  0  0  0  0  0  0  0  0
   22.9677  -13.9529    4.9415 C   0  0  0  0  0  0  0  0  0  0  0  0
   22.3654  -12.5902    5.2846 C   0  0  0  0  0  0  0  0  0  0  0  0
   21.8865  -11.8522    4.0414 C   0  0  0  0  0  0  0  0  0  0  0  0
   22.9947  -11.7234    3.0050 C   0  0  0  0  0  0  0  0  0  0  0  0
   23.5951  -13.0835    2.6559 C   0  0  0  0  0  0  0  0  0  0  0  0
   24.4247  -15.2477    3.3980 N   0  0  0  0  0  0  0  0  0  0  0  0
   23.8460  -16.4006    3.8733 C   0  0  0  0  0  0  0  0  0  0  0  0
   23.0938  -17.1376    3.2482 O   0  0  0  0  0  0  0  0  0  0  0  0
   24.2189  -16.6383    5.1935 N   0  0  0  0  0  0  0  0  0  0  0  0
   25.6026  -16.6843    5.5044 N   0  0  0  0  0  0  0  0  0  0  0  0
   25.3723  -15.3833    3.0753 H   0  0  0  0  0  0  0  0  0  0  0  0
   23.6069  -16.2339    5.8976 H   0  0  0  0  0  0  0  0  0  0  0  0
   25.7117  -16.2160    6.4160 H   0  0  0  0  0  0  0  0  0  0  0  0
   26.0743  -16.0447    4.8583 H   0  0  0  0  0  0  0  0  0  0  0  0
  1  2  1  0  0  0  0
  2  3  1  0  0  0  0
  2  7  1  0  0  0  0
  2  8  1  0  0  0  0
  3  4  1  0  0  0  0
  4  5  1  0  0  0  0
  5  6  1  0  0  0  0
  6  7  1  0  0  0  0
  8  9  1  0  0  0  0
  8 13  1  0  0  0  0
  9 10  2  0  0  0  0
  9 11  1  0  0  0  0
 11 12  1  0  0  0  0
 11 14  1  0  0  0  0
 12 15  1  0  0  0  0
 12 16  1  0  0  0  0
M  END
>  <CHROM.0>
-52.11719562,-160.29816677,-62.39548920,-51.84476196,-58.42830004,-172.39079794
-168.43521552,63.02266631,-168.07022136,59.73839831

>  <CHROM.1>
119.90199507,112.20463759,-54.47820626,140.92747483,23.73556024,-14.41299982
4.14358843,-2.03177698,0.69342071,-2.98240513

>  <Name>
P67889152

>  <RI>
0

>  <Rbt.Current_Directory>
/home/fstefaniak/projects/zuza/docking/adenine/1Y26

>  <Rbt.Executable>
rbdock ($Id: //depot/dev/client3/rdock/2013.1/src/exe/rbdock.cxx#4 $)

>  <Rbt.Library>
libRbt.so (2013.1, Build901 2013/11/27)

>  <Rbt.Parameter_File>
/home/fstefaniak/progs/rDock//data/scripts/dock_solv.prm

>  <Rbt.Receptor>
1y26.prm

>  <SCORE>
-44.0616

>  <SCORE.INTER>
-30.9558

>  <SCORE.INTER.CONST>
1

>  <SCORE.INTER.POLAR>
-5.34887

>  <SCORE.INTER.ROT>
4

>  <SCORE.INTER.SOLV>
13.3093

>  <SCORE.INTER.VDW>
-13.5107

>  <SCORE.INTER.norm>
-2.57965

>  <SCORE.INTRA>
1.52162

>  <SCORE.INTRA.DIHEDRAL>
1.27532

>  <SCORE.INTRA.DIHEDRAL.0>
2.72739

>  <SCORE.INTRA.POLAR>
0

>  <SCORE.INTRA.POLAR.0>
0

>  <SCORE.INTRA.REPUL>
0

>  <SCORE.INTRA.REPUL.0>
0

>  <SCORE.INTRA.SOLV>
1.23504

>  <SCORE.INTRA.SOLV.lig_0>
-15.5592

>  <SCORE.INTRA.VDW>
0.26644

>  <SCORE.INTRA.VDW.0>
-0.0442612

>  <SCORE.INTRA.norm>
0.126801

>  <SCORE.RESTR>
0.75837

>  <SCORE.RESTR.CAVITY>
0.75837

>  <SCORE.RESTR.norm>
0.0631975

>  <SCORE.SYSTEM>
-15.3858

>  <SCORE.SYSTEM.CONST>
0

>  <SCORE.SYSTEM.DIHEDRAL>
6.01414

>  <SCORE.SYSTEM.POLAR>
-2.53223

>  <SCORE.SYSTEM.SOLV>
0.11192

>  <SCORE.SYSTEM.VDW>
-3.85844

>  <SCORE.SYSTEM.norm>
-1.28215

>  <SCORE.heavy>
12

>  <SCORE.norm>
-3.6718

$$$$
P67889152
 OpenBabel12072022103D
libRbt.so/2013.1/901 2013/11/27
 16 16  0  0  0  0  0  0  0  0999 V2000
   20.6887  -15.5798    3.9940 C   0  0  0  0  0  0  0  0  0  0  0  0
   21.1287  -17.0568    3.9553 C   0  0  0  0  0  0  0  0  0  0  0  0
   20.6711  -17.8077    5.2301 C   0  0  0  0  0  0  0  0  0  0  0  0
   19.1605  -18.0304    5.3080 C   0  0  0  0  0  0  0  0  0  0  0  0
   18.6242  -18.7233    4.0622 C   0  0  0  0  0  0  0  0  0  0  0  0
   19.0092  -17.9727    2.7944 C   0  0  0  0  0  0  0  0  0  0  0  0
   20.5183  -17.7530    2.7108 C   0  0  0  0  0  0  0  0  0  0  0  0
   22.5979  -17.1320    3.8116 N   0  0  0  0  0  0  0  0  0  0  0  0
   23.4572  -16.0958    4.0912 C   0  0  0  0  0  0  0  0  0  0  0  0
   23.6943  -15.1420    3.3608 O   0  0  0  0  0  0  0  0  0  0  0  0
   24.0530  -16.2647    5.3382 N   0  0  0  0  0  0  0  0  0  0  0  0
   25.4637  -16.4062    5.3968 N   0  0  0  0  0  0  0  0  0  0  0  0
   22.9392  -17.7453    3.0851 H   0  0  0  0  0  0  0  0  0  0  0  0
   23.6139  -15.7574    6.1021 H   0  0  0  0  0  0  0  0  0  0  0  0
   25.7548  -16.0407    6.3154 H   0  0  0  0  0  0  0  0  0  0  0  0
   25.8586  -15.7253    4.7415 H   0  0  0  0  0  0  0  0  0  0  0  0
  1  2  1  0  0  0  0
  2  3  1  0  0  0  0
  2  7  1  0  0  0  0
  2  8  1  0  0  0  0
  3  4  1  0  0  0  0
  4  5  1  0  0  0  0
  5  6  1  0  0  0  0
  6  7  1  0  0  0  0
  8  9  1  0  0  0  0
  8 13  1  0  0  0  0
  9 10  2  0  0  0  0
  9 11  1  0  0  0  0
 11 12  1  0  0  0  0
 11 14  1  0  0  0  0
 12 15  1  0  0  0  0
 12 16  1  0  0  0  0
M  END
>  <CHROM.0>
-47.42621292,-69.73702738,61.07705937,-52.89745882,58.79929878,-60.56200738
75.73251090,-50.03943372,-166.57262589,162.78799673

>  <CHROM.1>
18.74354386,-79.70408641,117.90559547,151.51171346,21.65993802,-16.96134457
4.18492936,3.09815123,0.40043549,2.04008813

>  <Name>
P67889152

>  <RI>
0

>  <Rbt.Current_Directory>
/home/fstefaniak/projects/zuza/docking/adenine/1Y26

>  <Rbt.Executable>
rbdock ($Id: //depot/dev/client3/rdock/2013.1/src/exe/rbdock.cxx#4 $)

>  <Rbt.Library>
libRbt.so (2013.1, Build901 2013/11/27)

>  <Rbt.Parameter_File>
/home/fstefaniak/progs/rDock//data/scripts/dock_solv.prm

>  <Rbt.Receptor>
1y26.prm

>  <SCORE>
-44.0377

>  <SCORE.INTER>
-26.493

>  <SCORE.INTER.CONST>
1

>  <SCORE.INTER.POLAR>
-3.79138

>  <SCORE.INTER.ROT>
4

>  <SCORE.INTER.SOLV>
15.7808

>  <SCORE.INTER.VDW>
-16.551

>  <SCORE.INTER.norm>
-2.20775

>  <SCORE.INTRA>
1.61967

>  <SCORE.INTRA.DIHEDRAL>
1.26052

>  <SCORE.INTRA.DIHEDRAL.0>
2.72739

>  <SCORE.INTRA.POLAR>
0

>  <SCORE.INTRA.POLAR.0>
0

>  <SCORE.INTRA.REPUL>
0

>  <SCORE.INTRA.REPUL.0>
0

>  <SCORE.INTRA.SOLV>
0.0387995

>  <SCORE.INTRA.SOLV.lig_0>
-15.5592

>  <SCORE.INTRA.VDW>
0.970016

>  <SCORE.INTRA.VDW.0>
-0.0442612

>  <SCORE.INTRA.norm>
0.134973

>  <SCORE.RESTR>
0

>  <SCORE.RESTR.CAVITY>
0

>  <SCORE.RESTR.norm>
0

>  <SCORE.SYSTEM>
-19.1643

>  <SCORE.SYSTEM.CONST>
0

>  <SCORE.SYSTEM.DIHEDRAL>
7.15555

>  <SCORE.SYSTEM.POLAR>
-3.72113

>  <SCORE.SYSTEM.SOLV>
0.27831

>  <SCORE.SYSTEM.VDW>
-2.8504

>  <SCORE.SYSTEM.norm>
-1.59703

>  <SCORE.heavy>
12

>  <SCORE.norm>
-3.66981

$$$$
P74273782
 OpenBabel12072022103D
libRbt.so/2013.1/901 2013/11/27
 15 16  0  0  0  0  0  0  0  0999 V2000
   21.3496  -17.8117    3.1858 C   0  0  0  0  0  0  0  0  0  0  0  0
   19.9854  -18.0962    2.5431 C   0  0  0  0  0  0  0  0  0  0  0  0
   19.0239  -17.2325    3.3812 C   0  0  2  0  0  0  0  0  0  0  0  0
   19.8834  -15.9942    3.6318 C   0  0  0  0  0  0  0  0  0  0  0  0
   20.9921  -16.8045    4.2935 C   0  0  1  0  0  0  0  0  0  0  0  0
   20.2109  -17.5457    5.3880 C   0  0  0  0  0  0  0  0  0  0  0  0
   18.8739  -17.7064    4.7781 N   0  0  0  0  0  0  0  0  0  0  0  0
   18.3589  -19.0780    4.9275 C   0  0  0  0  0  0  0  0  0  0  0  0
   17.5895  -19.1922    6.2487 C   0  0  0  0  0  0  0  0  0  0  0  0
   16.3510  -19.5889    6.2138 N   0  0  0  0  0  0  0  0  0  0  0  0
   15.7927  -19.5819    7.5030 O   0  0  0  0  0  0  0  0  0  0  0  0
   18.2536  -18.8279    7.3981 N   0  0  0  0  0  0  0  0  0  0  0  0
   15.4841  -20.5023    7.5947 H   0  0  0  0  0  0  0  0  0  0  0  0
   19.2409  -19.0677    7.3626 H   0  0  0  0  0  0  0  0  0  0  0  0
   18.0724  -17.8554    7.6226 H   0  0  0  0  0  0  0  0  0  0  0  0
  1  2  1  0  0  0  0
  3  2  1  6  0  0  0
  3  4  1  0  0  0  0
  3  7  1  0  0  0  0
  4  5  1  0  0  0  0
  5  1  1  6  0  0  0
  5  6  1  0  0  0  0
  6  7  1  0  0  0  0
  7  8  1  0  0  0  0
  8  9  1  0  0  0  0
  9 10  2  0  0  0  0
  9 12  1  0  0  0  0
 10 11  1  0  0  0  0
 11 13  1  0  0  0  0
 12 14  1  0  0  0  0
 12 15  1  0  0  0  0
M  END
>  <CHROM.0>
179.87351505,-62.93741786,-58.22436295,-55.09923804,-58.51686249,-178.42174949
-58.27308814,-175.86289829,-166.59173380,161.17649573

>  <CHROM.1>
-150.82054884,123.34513596,-35.26062960,-124.11950866,18.83212809,-18.15710934
5.03084575,-0.66889300,0.53652246,1.56870340

>  <Name>
P74273782

>  <RI>
0

>  <Rbt.Current_Directory>
/home/fstefaniak/projects/zuza/docking/adenine/1Y26

>  <Rbt.Executable>
rbdock ($Id: //depot/dev/client3/rdock/2013.1/src/exe/rbdock.cxx#4 $)

>  <Rbt.Library>
libRbt.so (2013.1, Build901 2013/11/27)

>  <Rbt.Parameter_File>
/home/fstefaniak/progs/rDock//data/scripts/dock_solv.prm

>  <Rbt.Receptor>
1y26.prm

>  <SCORE>
-46.202

>  <SCORE.INTER>
-25.3553

>  <SCORE.INTER.CONST>
1

>  <SCORE.INTER.POLAR>
-4.0053

>  <SCORE.INTER.ROT>
3

>  <SCORE.INTER.SOLV>
13.6042

>  <SCORE.INTER.VDW>
-13.6872

>  <SCORE.INTER.norm>
-2.11294

>  <SCORE.INTRA>
0.504987

>  <SCORE.INTRA.DIHEDRAL>
-0.193755

>  <SCORE.INTRA.DIHEDRAL.0>
3.80758

>  <SCORE.INTRA.POLAR>
0.0969528

>  <SCORE.INTRA.POLAR.0>
-0.0969528

>  <SCORE.INTRA.REPUL>
0

>  <SCORE.INTRA.REPUL.0>
0

>  <SCORE.INTRA.SOLV>
-0.151278

>  <SCORE.INTRA.SOLV.lig_0>
-10.4179

>  <SCORE.INTRA.VDW>
0.347864

>  <SCORE.INTRA.VDW.0>
-0.928217

>  <SCORE.INTRA.norm>
0.0420823

>  <SCORE.RESTR>
0

>  <SCORE.RESTR.CAVITY>
0

>  <SCORE.RESTR.norm>
0

>  <SCORE.SYSTEM>
-21.3517

>  <SCORE.SYSTEM.CONST>
0

>  <SCORE.SYSTEM.DIHEDRAL>
4.65029

>  <SCORE.SYSTEM.POLAR>
-3.14089

>  <SCORE.SYSTEM.SOLV>
0.252515

>  <SCORE.SYSTEM.VDW>
-5.39913

>  <SCORE.SYSTEM.norm>
-1.77931

>  <SCORE.heavy>
12

>  <SCORE.norm>
-3.85017

$$$$
P74273782
 OpenBabel12072022103D
libRbt.so/2013.1/901 2013/11/27
 15 16  0  0  0  0  0  0  0  0999 V2000
   21.0629  -18.0629    2.6286 C   0  0  0  0  0  0  0  0  0  0  0  0
   19.5621  -18.0833    2.3091 C   0  0  0  0  0  0  0  0  0  0  0  0
   18.9717  -17.1370    3.3716 C   0  0  2  0  0  0  0  0  0  0  0  0
   20.0629  -16.0705    3.4545 C   0  0  0  0  0  0  0  0  0  0  0  0
   21.1367  -17.0893    3.8186 C   0  0  1  0  0  0  0  0  0  0  0  0
   20.5039  -17.7699    5.0407 C   0  0  0  0  0  0  0  0  0  0  0  0
   19.0575  -17.6748    4.7506 N   0  0  0  0  0  0  0  0  0  0  0  0
   18.3633  -18.9544    4.9734 C   0  0  0  0  0  0  0  0  0  0  0  0
   17.6955  -18.9382    6.3535 C   0  0  0  0  0  0  0  0  0  0  0  0
   16.3968  -18.9821    6.4154 N   0  0  0  0  0  0  0  0  0  0  0  0
   15.9622  -18.9046    7.7492 O   0  0  0  0  0  0  0  0  0  0  0  0
   18.5200  -18.8393    7.4513 N   0  0  0  0  0  0  0  0  0  0  0  0
   16.2661  -18.0154    8.0096 H   0  0  0  0  0  0  0  0  0  0  0  0
   19.3806  -19.3676    7.3330 H   0  0  0  0  0  0  0  0  0  0  0  0
   18.6632  -17.8674    7.7044 H   0  0  0  0  0  0  0  0  0  0  0  0
  1  2  1  0  0  0  0
  3  2  1  6  0  0  0
  3  4  1  0  0  0  0
  3  7  1  0  0  0  0
  4  5  1  0  0  0  0
  5  1  1  6  0  0  0
  5  6  1  0  0  0  0
  6  7  1  0  0  0  0
  7  8  1  0  0  0  0
  8  9  1  0  0  0  0
  9 10  2  0  0  0  0
  9 12  1  0  0  0  0
 10 11  1  0  0  0  0
 11 13  1  0  0  0  0
 12 14  1  0  0  0  0
 12 15  1  0  0  0  0
M  END
>  <CHROM.0>
-177.42466623,-61.44407575,-58.67617673,-54.21165292,-173.28141974,-58.74214761
-55.64535275,-175.53617226,-167.26616514,160.89790435

>  <CHROM.1>
-141.36931378,114.86621857,-37.72063962,63.93386466,18.89350023,-18.05917974
4.94062184,0.85036759,-0.27121178,-1.42481341

>  <Name>
P74273782

>  <RI>
0

>  <Rbt.Current_Directory>
/home/fstefaniak/projects/zuza/docking/adenine/1Y26

>  <Rbt.Executable>
rbdock ($Id: //depot/dev/client3/rdock/2013.1/src/exe/rbdock.cxx#4 $)

>  <Rbt.Library>
libRbt.so (2013.1, Build901 2013/11/27)

>  <Rbt.Parameter_File>
/home/fstefaniak/progs/rDock//data/scripts/dock_solv.prm

>  <Rbt.Receptor>
1y26.prm

>  <SCORE>
-45.7364

>  <SCORE.INTER>
-24.8971

>  <SCORE.INTER.CONST>
1

>  <SCORE.INTER.POLAR>
-3.62724

>  <SCORE.INTER.ROT>
3

>  <SCORE.INTER.SOLV>
13.5558

>  <SCORE.INTER.VDW>
-14.6259

>  <SCORE.INTER.norm>
-2.07476

>  <SCORE.INTRA>
0.658542

>  <SCORE.INTRA.DIHEDRAL>
0.122003

>  <SCORE.INTRA.DIHEDRAL.0>
3.80758

>  <SCORE.INTRA.POLAR>
0.0969528

>  <SCORE.INTRA.POLAR.0>
-0.0969528

>  <SCORE.INTRA.REPUL>
0

>  <SCORE.INTRA.REPUL.0>
0

>  <SCORE.INTRA.SOLV>
-0.206432

>  <SCORE.INTRA.SOLV.lig_0>
-10.4179

>  <SCORE.INTRA.VDW>
0.371117

>  <SCORE.INTRA.VDW.0>
-0.928217

>  <SCORE.INTRA.norm>
0.0548785

>  <SCORE.RESTR>
0

>  <SCORE.RESTR.CAVITY>
0

>  <SCORE.RESTR.norm>
0

>  <SCORE.SYSTEM>
-21.4978

>  <SCORE.SYSTEM.CONST>
0

>  <SCORE.SYSTEM.DIHEDRAL>
4.92865

>  <SCORE.SYSTEM.POLAR>
-3.16447

>  <SCORE.SYSTEM.SOLV>
0.239878

>  <SCORE.SYSTEM.VDW>
-5.50648

>  <SCORE.SYSTEM.norm>
-1.79148

>  <SCORE.heavy>
12

>  <SCORE.norm>
-3.81137

$$$$
P74273782
 OpenBabel12072022103D
libRbt.so/2013.1/901 2013/11/27
 15 16  0  0  0  0  0  0  0  0999 V2000
   22.4364  -12.6236    5.3828 C   0  0  0  0  0  0  0  0  0  0  0  0
   22.5731  -13.8711    6.2660 C   0  0  0  0  0  0  0  0  0  0  0  0
   23.2932  -14.8701    5.3406 C   0  0  2  0  0  0  0  0  0  0  0  0
   24.2508  -13.9421    4.5943 C   0  0  0  0  0  0  0  0  0  0  0  0
   23.1169  -13.0657    4.0748 C   0  0  1  0  0  0  0  0  0  0  0  0
   22.2203  -14.1076    3.3908 C   0  0  0  0  0  0  0  0  0  0  0  0
   22.4597  -15.3211    4.2003 N   0  0  0  0  0  0  0  0  0  0  0  0
   21.2044  -15.9993    4.5652 C   0  0  0  0  0  0  0  0  0  0  0  0
   20.5675  -16.6033    3.3082 C   0  0  0  0  0  0  0  0  0  0  0  0
   21.3000  -17.3576    2.5421 N   0  0  0  0  0  0  0  0  0  0  0  0
   20.5707  -17.7759    1.4165 O   0  0  0  0  0  0  0  0  0  0  0  0
   19.2564  -16.2753    3.0464 N   0  0  0  0  0  0  0  0  0  0  0  0
   20.5326  -18.7414    1.5476 H   0  0  0  0  0  0  0  0  0  0  0  0
   18.6618  -17.0973    2.9799 H   0  0  0  0  0  0  0  0  0  0  0  0
   18.9246  -15.5773    3.7035 H   0  0  0  0  0  0  0  0  0  0  0  0
  1  2  1  0  0  0  0
  3  2  1  1  0  0  0
  3  4  1  0  0  0  0
  3  7  1  0  0  0  0
  4  5  1  0  0  0  0
  5  1  1  1  0  0  0
  5  6  1  0  0  0  0
  6  7  1  0  0  0  0
  7  8  1  0  0  0  0
  8  9  1  0  0  0  0
  9 10  2  0  0  0  0
  9 12  1  0  0  0  0
 10 11  1  0  0  0  0
 11 13  1  0  0  0  0
 12 14  1  0  0  0  0
 12 15  1  0  0  0  0
M  END
>  <CHROM.0>
-50.03511823,-168.39962325,-48.71466354,-52.24004906,-177.86517515,-59.46184473
-58.63269662,-53.74509403,-166.77209408,160.86890919

>  <CHROM.1>
-170.93154594,51.36398587,-122.50936439,-115.90407826,21.87724688,-15.21357072
3.95810217,1.00756459,0.25381447,0.79859532

>  <Name>
P74273782

>  <RI>
0

>  <Rbt.Current_Directory>
/home/fstefaniak/projects/zuza/docking/adenine/1Y26

>  <Rbt.Executable>
rbdock ($Id: //depot/dev/client3/rdock/2013.1/src/exe/rbdock.cxx#4 $)

>  <Rbt.Library>
libRbt.so (2013.1, Build901 2013/11/27)

>  <Rbt.Parameter_File>
/home/fstefaniak/progs/rDock//data/scripts/dock_solv.prm

>  <Rbt.Receptor>
1y26.prm

>  <SCORE>
-44.3211

>  <SCORE.INTER>
-22.3668

>  <SCORE.INTER.CONST>
1

>  <SCORE.INTER.POLAR>
-4.29239

>  <SCORE.INTER.ROT>
3

>  <SCORE.INTER.SOLV>
12.0944

>  <SCORE.INTER.VDW>
-10.2347

>  <SCORE.INTER.norm>
-1.8639

>  <SCORE.INTRA>
0.167914

>  <SCORE.INTRA.DIHEDRAL>
-1.47

>  <SCORE.INTRA.DIHEDRAL.0>
3.80758

>  <SCORE.INTRA.POLAR>
0.0969528

>  <SCORE.INTRA.POLAR.0>
-0.0969528

>  <SCORE.INTRA.REPUL>
0

>  <SCORE.INTRA.REPUL.0>
0

>  <SCORE.INTRA.SOLV>
-0.417437

>  <SCORE.INTRA.SOLV.lig_0>
-10.4179

>  <SCORE.INTRA.VDW>
0.781994

>  <SCORE.INTRA.VDW.0>
-0.928217

>  <SCORE.INTRA.norm>
0.0139928

>  <SCORE.RESTR>
0

>  <SCORE.RESTR.CAVITY>
0

>  <SCORE.RESTR.norm>
0

>  <SCORE.SYSTEM>
-22.1222

>  <SCORE.SYSTEM.CONST>
0

>  <SCORE.SYSTEM.DIHEDRAL>
6.55271

>  <SCORE.SYSTEM.POLAR>
-3.52493

>  <SCORE.SYSTEM.SOLV>
0.445869

>  <SCORE.SYSTEM.VDW>
-5.33122

>  <SCORE.SYSTEM.norm>
-1.84352

>  <SCORE.heavy>
12

>  <SCORE.norm>
-3.69343

$$$$
P74301782
 OpenBabel12072022103D
libRbt.so/2013.1/901 2013/11/27
 14 14  0  0  0  0  0  0  0  0999 V2000
   22.8713  -16.1247    4.3890 C   0  0  0  0  0  0  0  0  0  0  0  0
   21.9355  -15.0226    3.9035 C   0  0  0  0  0  0  0  0  0  0  0  0
   22.2038  -13.5078    4.7903 S   0  0  0  0  0  0  0  0  0  0  0  0
   21.9350  -13.7611    6.1941 O   0  0  0  0  0  0  0  0  0  0  0  0
   21.5190  -12.4407    4.0875 O   0  0  0  0  0  0  0  0  0  0  0  0
   23.9534  -13.2623    4.6073 C   0  0  0  0  0  0  0  0  0  0  0  0
   24.7347  -14.4965    5.0429 C   0  0  0  0  0  0  0  0  0  0  0  0
   24.3745  -15.7780    4.2597 C   0  0  0  0  0  0  0  0  0  0  0  0
   25.2422  -16.9576    4.7826 C   0  0  0  0  0  0  0  0  0  0  0  0
   24.9849  -18.1479    4.0372 O   0  0  0  0  0  0  0  0  0  0  0  0
   24.6616  -15.5665    2.8286 N   0  0  0  0  0  0  0  0  0  0  0  0
   24.0588  -18.4003    4.1962 H   0  0  0  0  0  0  0  0  0  0  0  0
   24.8385  -16.4914    2.4151 H   0  0  0  0  0  0  0  0  0  0  0  0
   25.5680  -15.1015    2.7303 H   0  0  0  0  0  0  0  0  0  0  0  0
  1  2  1  0  0  0  0
  1  8  1  0  0  0  0
  2  3  1  0  0  0  0
  3  4  2  0  0  0  0
  3  5  2  0  0  0  0
  3  6  1  0  0  0  0
  6  7  1  0  0  0  0
  7  8  1  0  0  0  0
  8  9  1  0  0  0  0
  8 11  1  0  0  0  0
  9 10  1  0  0  0  0
 10 12  1  0  0  0  0
 11 13  1  0  0  0  0
 11 14  1  0  0  0  0
M  END
>  <CHROM.0>
-51.08394595,17.88111211,61.78001624,-53.58439607,57.93741863,-60.17762221
75.90177868,-52.60609578,-166.77373011,161.11233209

>  <CHROM.1>
59.85949870,-84.34011145,-64.23228725,23.35265581,-14.86710719,4.47254731
0.92736043,-0.17940563,-3.08354754

>  <Name>
P74301782

>  <RI>
0

>  <Rbt.Current_Directory>
/home/fstefaniak/projects/zuza/docking/adenine/1Y26

>  <Rbt.Executable>
rbdock ($Id: //depot/dev/client3/rdock/2013.1/src/exe/rbdock.cxx#4 $)

>  <Rbt.Library>
libRbt.so (2013.1, Build901 2013/11/27)

>  <Rbt.Parameter_File>
/home/fstefaniak/progs/rDock//data/scripts/dock_solv.prm

>  <Rbt.Receptor>
1y26.prm

>  <SCORE>
-45.9337

>  <SCORE.INTER>
-29.0654

>  <SCORE.INTER.CONST>
1

>  <SCORE.INTER.POLAR>
-3.7865

>  <SCORE.INTER.ROT>
2

>  <SCORE.INTER.SOLV>
11.6125

>  <SCORE.INTER.VDW>
-15.5594

>  <SCORE.INTER.norm>
-2.64231

>  <SCORE.INTRA>
-0.337252

>  <SCORE.INTRA.DIHEDRAL>
-1.91665

>  <SCORE.INTRA.DIHEDRAL.0>
2.64919

>  <SCORE.INTRA.POLAR>
0.00603855

>  <SCORE.INTRA.POLAR.0>
-0.0266124

>  <SCORE.INTRA.REPUL>
0

>  <SCORE.INTRA.REPUL.0>
0

>  <SCORE.INTRA.SOLV>
-0.0507088

>  <SCORE.INTRA.SOLV.lig_0>
-13.3028

>  <SCORE.INTRA.VDW>
0.625898

>  <SCORE.INTRA.VDW.0>
-0.0775399

>  <SCORE.INTRA.norm>
-0.0306593

>  <SCORE.RESTR>
0

>  <SCORE.RESTR.CAVITY>
0

>  <SCORE.RESTR.norm>
0

>  <SCORE.SYSTEM>
-16.5311

>  <SCORE.SYSTEM.CONST>
0

>  <SCORE.SYSTEM.DIHEDRAL>
11.9215

>  <SCORE.SYSTEM.POLAR>
-3.93167

>  <SCORE.SYSTEM.SOLV>
0.429382

>  <SCORE.SYSTEM.VDW>
-2.03214

>  <SCORE.SYSTEM.norm>
-1.50283

>  <SCORE.heavy>
11

>  <SCORE.norm>
-4.17579

$$$$
P74301782
 OpenBabel12072022103D
libRbt.so/2013.1/901 2013/11/27
 14 14  0  0  0  0  0  0  0  0999 V2000
   17.8956  -18.5023    4.1359 C   0  0  0  0  0  0  0  0  0  0  0  0
   18.9074  -18.4635    2.9953 C   0  0  0  0  0  0  0  0  0  0  0  0
   20.1785  -17.2610    3.2977 S   0  0  0  0  0  0  0  0  0  0  0  0
   19.5438  -15.9597    3.4008 O   0  0  0  0  0  0  0  0  0  0  0  0
   21.2534  -17.4862    2.3514 O   0  0  0  0  0  0  0  0  0  0  0  0
   20.7562  -17.7140    4.9151 C   0  0  0  0  0  0  0  0  0  0  0  0
   19.6045  -17.8057    5.9093 C   0  0  0  0  0  0  0  0  0  0  0  0
   18.5145  -18.8273    5.5171 C   0  0  0  0  0  0  0  0  0  0  0  0
   17.4080  -18.8391    6.6095 C   0  0  0  0  0  0  0  0  0  0  0  0
   16.3082  -19.6574    6.2106 O   0  0  0  0  0  0  0  0  0  0  0  0
   19.1193  -20.1696    5.4298 N   0  0  0  0  0  0  0  0  0  0  0  0
   16.5224  -20.5758    6.4504 H   0  0  0  0  0  0  0  0  0  0  0  0
   19.8127  -20.1407    4.6707 H   0  0  0  0  0  0  0  0  0  0  0  0
   18.4251  -20.8311    5.0724 H   0  0  0  0  0  0  0  0  0  0  0  0
  1  2  1  0  0  0  0
  1  8  1  0  0  0  0
  2  3  1  0  0  0  0
  3  4  2  0  0  0  0
  3  5  2  0  0  0  0
  3  6  1  0  0  0  0
  6  7  1  0  0  0  0
  7  8  1  0  0  0  0
  8  9  1  0  0  0  0
  8 11  1  0  0  0  0
  9 10  1  0  0  0  0
 10 12  1  0  0  0  0
 11 13  1  0  0  0  0
 11 14  1  0  0  0  0
M  END
>  <CHROM.0>
-52.57849148,60.30040818,-54.78668210,-49.64184461,-57.99594147,-58.43651088
-58.60058961,-176.30307500,-167.23426232,160.58436613

>  <CHROM.1>
50.38547393,57.91138669,84.57218774,19.15088243,-18.15885321,4.46531566,2.28262206
0.26659964,2.00342562

>  <Name>
P74301782

>  <RI>
0

>  <Rbt.Current_Directory>
/home/fstefaniak/projects/zuza/docking/adenine/1Y26

>  <Rbt.Executable>
rbdock ($Id: //depot/dev/client3/rdock/2013.1/src/exe/rbdock.cxx#4 $)

>  <Rbt.Library>
libRbt.so (2013.1, Build901 2013/11/27)

>  <Rbt.Parameter_File>
/home/fstefaniak/progs/rDock//data/scripts/dock_solv.prm

>  <Rbt.Receptor>
1y26.prm

>  <SCORE>
-43.0561

>  <SCORE.INTER>
-21.87

>  <SCORE.INTER.CONST>
1

>  <SCORE.INTER.POLAR>
-3.86218

>  <SCORE.INTER.ROT>
2

>  <SCORE.INTER.SOLV>
14.4557

>  <SCORE.INTER.VDW>
-11.4579

>  <SCORE.INTER.norm>
-1.98818

>  <SCORE.INTRA>
0.798954

>  <SCORE.INTRA.DIHEDRAL>
0.203087

>  <SCORE.INTRA.DIHEDRAL.0>
2.64919

>  <SCORE.INTRA.POLAR>
0.0266124

>  <SCORE.INTRA.POLAR.0>
-0.0266124

>  <SCORE.INTRA.REPUL>
0

>  <SCORE.INTRA.REPUL.0>
0

>  <SCORE.INTRA.SOLV>
-0.0979704

>  <SCORE.INTRA.SOLV.lig_0>
-13.3028

>  <SCORE.INTRA.VDW>
0.655914

>  <SCORE.INTRA.VDW.0>
-0.0775399

>  <SCORE.INTRA.norm>
0.0726322

>  <SCORE.RESTR>
0

>  <SCORE.RESTR.CAVITY>
0

>  <SCORE.RESTR.norm>
0

>  <SCORE.SYSTEM>
-21.9851

>  <SCORE.SYSTEM.CONST>
0

>  <SCORE.SYSTEM.DIHEDRAL>
5.35489

>  <SCORE.SYSTEM.POLAR>
-3.4727

>  <SCORE.SYSTEM.SOLV>
0.497413

>  <SCORE.SYSTEM.VDW>
-5.03184

>  <SCORE.SYSTEM.norm>
-1.99865

>  <SCORE.heavy>
11

>  <SCORE.norm>
-3.91419

$$$$
P74301782
 OpenBabel12072022103D
libRbt.so/2013.1/901 2013/11/27
 14 14  0  0  0  0  0  0  0  0999 V2000
   17.9566  -18.5351    4.1503 C   0  0  0  0  0  0  0  0  0  0  0  0
   19.0026  -18.5010    3.0408 C   0  0  0  0  0  0  0  0  0  0  0  0
   20.2542  -17.2846    3.3679 S   0  0  0  0  0  0  0  0  0  0  0  0
   19.6063  -15.9875    3.4362 O   0  0  0  0  0  0  0  0  0  0  0  0
   21.3594  -17.5117    2.4577 O   0  0  0  0  0  0  0  0  0  0  0  0
   20.7856  -17.7141    5.0075 C   0  0  0  0  0  0  0  0  0  0  0  0
   19.6046  -17.8040    5.9669 C   0  0  0  0  0  0  0  0  0  0  0  0
   18.5353  -18.8390    5.5535 C   0  0  0  0  0  0  0  0  0  0  0  0
   17.3959  -18.8474    6.6115 C   0  0  0  0  0  0  0  0  0  0  0  0
   16.3390  -19.7212    6.2140 O   0  0  0  0  0  0  0  0  0  0  0  0
   19.1532  -20.1772    5.5006 N   0  0  0  0  0  0  0  0  0  0  0  0
   16.5356  -20.6036    6.5737 H   0  0  0  0  0  0  0  0  0  0  0  0
   19.8029  -20.1796    4.7033 H   0  0  0  0  0  0  0  0  0  0  0  0
   18.4495  -20.8639    5.2166 H   0  0  0  0  0  0  0  0  0  0  0  0
  1  2  1  0  0  0  0
  1  8  1  0  0  0  0
  2  3  1  0  0  0  0
  3  4  2  0  0  0  0
  3  5  2  0  0  0  0
  3  6  1  0  0  0  0
  6  7  1  0  0  0  0
  7  8  1  0  0  0  0
  8  9  1  0  0  0  0
  8 11  1  0  0  0  0
  9 10  1  0  0  0  0
 10 12  1  0  0  0  0
 11 13  1  0  0  0  0
 11 14  1  0  0  0  0
M  END
>  <CHROM.0>
-48.28645041,59.51163029,-58.79401360,-52.48614945,-175.22923246,57.57592842
-59.77653979,-176.49075617,-167.91379996,160.52352504

>  <CHROM.1>
52.71475541,52.45545501,90.03868224,19.20000180,-18.18150765,4.51704874,2.31078044
0.31389428,1.96326693

>  <Name>
P74301782

>  <RI>
0

>  <Rbt.Current_Directory>
/home/fstefaniak/projects/zuza/docking/adenine/1Y26

>  <Rbt.Executable>
rbdock ($Id: //depot/dev/client3/rdock/2013.1/src/exe/rbdock.cxx#4 $)

>  <Rbt.Library>
libRbt.so (2013.1, Build901 2013/11/27)

>  <Rbt.Parameter_File>
/home/fstefaniak/progs/rDock//data/scripts/dock_solv.prm

>  <Rbt.Receptor>
1y26.prm

>  <SCORE>
-42.1596

>  <SCORE.INTER>
-22.2552

>  <SCORE.INTER.CONST>
1

>  <SCORE.INTER.POLAR>
-4.12315

>  <SCORE.INTER.ROT>
2

>  <SCORE.INTER.SOLV>
14.3883

>  <SCORE.INTER.VDW>
-10.8224

>  <SCORE.INTER.norm>
-2.0232

>  <SCORE.INTRA>
1.28956

>  <SCORE.INTRA.DIHEDRAL>
1.12602

>  <SCORE.INTRA.DIHEDRAL.0>
2.64919

>  <SCORE.INTRA.POLAR>
0.0266124

>  <SCORE.INTRA.POLAR.0>
-0.0266124

>  <SCORE.INTRA.REPUL>
0

>  <SCORE.INTRA.REPUL.0>
0

>  <SCORE.INTRA.SOLV>
-0.08237

>  <SCORE.INTRA.SOLV.lig_0>
-13.3028

>  <SCORE.INTRA.VDW>
0.677252

>  <SCORE.INTRA.VDW.0>
-0.0775399

>  <SCORE.INTRA.norm>
0.117233

>  <SCORE.RESTR>
0

>  <SCORE.RESTR.CAVITY>
0

>  <SCORE.RESTR.norm>
0

>  <SCORE.SYSTEM>
-21.194

>  <SCORE.SYSTEM.CONST>
0

>  <SCORE.SYSTEM.DIHEDRAL>
5.41803

>  <SCORE.SYSTEM.POLAR>
-3.44584

>  <SCORE.SYSTEM.SOLV>
0.165147

>  <SCORE.SYSTEM.VDW>
-4.50426

>  <SCORE.SYSTEM.norm>
-1.92673

>  <SCORE.heavy>
11

>  <SCORE.norm>
-3.83269

$$$$
P75223345
 OpenBabel12072022103D
libRbt.so/2013.1/901 2013/11/27
 14 14  0  0  0  0  0  0  0  0999 V2000
   22.0885  -14.1628    5.8376 C   0  0  0  0  0  0  0  0  0  0  0  0
   22.8844  -14.6098    4.5983 C   0  0  0  0  0  0  0  0  0  0  0  0
   22.4276  -13.7911    3.3776 C   0  0  0  0  0  0  0  0  0  0  0  0
   24.3772  -14.3156    4.8484 C   0  0  0  0  0  0  0  0  0  0  0  0
   22.7309  -16.1319    4.3480 C   0  0  0  0  0  0  0  0  0  0  0  0
   21.3606  -16.5586    3.9722 C   0  0  0  0  0  0  0  0  0  0  0  0
   20.6214  -16.1974    2.9447 N   0  0  0  0  0  0  0  0  0  0  0  0
   19.4326  -16.8876    3.0601 N   0  0  0  0  0  0  0  0  0  0  0  0
   19.5290  -17.6107    4.1572 C   0  0  0  0  0  0  0  0  0  0  0  0
   20.7267  -17.4441    4.8016 O   0  0  0  0  0  0  0  0  0  0  0  0
   18.5440  -18.5496    4.7569 C   0  0  0  0  0  0  0  0  0  0  0  0
   19.1838  -19.7289    5.3509 N   0  0  0  0  0  0  0  0  0  0  0  0
   19.8458  -20.1117    4.6743 H   0  0  0  0  0  0  0  0  0  0  0  0
   18.4789  -20.4490    5.4967 H   0  0  0  0  0  0  0  0  0  0  0  0
  1  2  1  0  0  0  0
  2  3  1  0  0  0  0
  2  4  1  0  0  0  0
  2  5  1  0  0  0  0
  5  6  1  0  0  0  0
  6  7  2  0  0  0  0
  6 10  1  0  0  0  0
  7  8  1  0  0  0  0
  8  9  2  0  0  0  0
  9 10  1  0  0  0  0
  9 11  1  0  0  0  0
 11 12  1  0  0  0  0
 12 13  1  0  0  0  0
 12 14  1  0  0  0  0
M  END
>  <CHROM.0>
63.01553710,167.12943136,-54.39688273,-51.78420090,-56.70268315,53.76467276
-56.46559293,66.41524874,-166.74711393,160.98535225

>  <CHROM.1>
66.26521808,59.83845804,142.62545751,-48.54125978,21.15930603,-16.35441125
4.36196398,-0.51576295,0.67338640,2.30123070

>  <Name>
P75223345

>  <RI>
0

>  <Rbt.Current_Directory>
/home/fstefaniak/projects/zuza/docking/adenine/1Y26

>  <Rbt.Executable>
rbdock ($Id: //depot/dev/client3/rdock/2013.1/src/exe/rbdock.cxx#4 $)

>  <Rbt.Library>
libRbt.so (2013.1, Build901 2013/11/27)

>  <Rbt.Parameter_File>
/home/fstefaniak/progs/rDock//data/scripts/dock_solv.prm

>  <Rbt.Receptor>
1y26.prm

>  <SCORE>
-48.486

>  <SCORE.INTER>
-29.9372

>  <SCORE.INTER.CONST>
1

>  <SCORE.INTER.POLAR>
-4.63284

>  <SCORE.INTER.ROT>
4

>  <SCORE.INTER.SOLV>
11.4204

>  <SCORE.INTER.VDW>
-14.5888

>  <SCORE.INTER.norm>
-2.49477

>  <SCORE.INTRA>
0.516092

>  <SCORE.INTRA.DIHEDRAL>
0.306063

>  <SCORE.INTRA.DIHEDRAL.0>
2.77766

>  <SCORE.INTRA.POLAR>
0

>  <SCORE.INTRA.POLAR.0>
0

>  <SCORE.INTRA.REPUL>
0

>  <SCORE.INTRA.REPUL.0>
0

>  <SCORE.INTRA.SOLV>
0.0632391

>  <SCORE.INTRA.SOLV.lig_0>
-8.89599

>  <SCORE.INTRA.VDW>
0.331441

>  <SCORE.INTRA.VDW.0>
-0.603303

>  <SCORE.INTRA.norm>
0.0430077

>  <SCORE.RESTR>
0

>  <SCORE.RESTR.CAVITY>
0

>  <SCORE.RESTR.norm>
0

>  <SCORE.SYSTEM>
-19.0649

>  <SCORE.SYSTEM.CONST>
0

>  <SCORE.SYSTEM.DIHEDRAL>
6.10853

>  <SCORE.SYSTEM.POLAR>
-3.23707

>  <SCORE.SYSTEM.SOLV>
0.218221

>  <SCORE.SYSTEM.VDW>
-4.0286

>  <SCORE.SYSTEM.norm>
-1.58874

>  <SCORE.heavy>
12

>  <SCORE.norm>
-4.0405

$$$$
P75223345
 OpenBabel12072022103D
libRbt.so/2013.1/901 2013/11/27
 14 14  0  0  0  0  0  0  0  0999 V2000
   22.1716  -14.1038    5.7531 C   0  0  0  0  0  0  0  0  0  0  0  0
   22.9873  -14.4573    4.4965 C   0  0  0  0  0  0  0  0  0  0  0  0
   22.5026  -13.5960    3.3164 C   0  0  0  0  0  0  0  0  0  0  0  0
   24.4670  -14.1194    4.7679 C   0  0  0  0  0  0  0  0  0  0  0  0
   22.8927  -15.9695    4.1693 C   0  0  0  0  0  0  0  0  0  0  0  0
   21.5190  -16.4533    3.8867 C   0  0  0  0  0  0  0  0  0  0  0  0
   20.7398  -16.2108    2.8538 N   0  0  0  0  0  0  0  0  0  0  0  0
   19.5685  -16.9034    3.0802 N   0  0  0  0  0  0  0  0  0  0  0  0
   19.7142  -17.5083    4.2415 C   0  0  0  0  0  0  0  0  0  0  0  0
   20.9292  -17.2583    4.8237 O   0  0  0  0  0  0  0  0  0  0  0  0
   18.7671  -18.3953    4.9678 C   0  0  0  0  0  0  0  0  0  0  0  0
   18.7229  -19.7492    4.4040 N   0  0  0  0  0  0  0  0  0  0  0  0
   18.1387  -20.3305    5.0067 H   0  0  0  0  0  0  0  0  0  0  0  0
   19.6571  -20.1527    4.4398 H   0  0  0  0  0  0  0  0  0  0  0  0
  1  2  1  0  0  0  0
  2  3  1  0  0  0  0
  2  4  1  0  0  0  0
  2  5  1  0  0  0  0
  5  6  1  0  0  0  0
  6  7  2  0  0  0  0
  6 10  1  0  0  0  0
  7  8  1  0  0  0  0
  8  9  2  0  0  0  0
  9 10  1  0  0  0  0
  9 11  1  0  0  0  0
 11 12  1  0  0  0  0
 12 13  1  0  0  0  0
 12 14  1  0  0  0  0
M  END
>  <CHROM.0>
-52.90105743,171.22729738,58.91554936,60.58419535,-176.86332350,-59.21348798
73.04282774,-53.02525608,-166.84203561,159.41247882

>  <CHROM.1>
60.96604596,69.77303762,77.03087100,173.77816786,21.24379659,-16.24865719
4.25076687,-0.39015790,0.73917996,2.15251295

>  <Name>
P75223345

>  <RI>
0

>  <Rbt.Current_Directory>
/home/fstefaniak/projects/zuza/docking/adenine/1Y26

>  <Rbt.Executable>
rbdock ($Id: //depot/dev/client3/rdock/2013.1/src/exe/rbdock.cxx#4 $)

>  <Rbt.Library>
libRbt.so (2013.1, Build901 2013/11/27)

>  <Rbt.Parameter_File>
/home/fstefaniak/progs/rDock//data/scripts/dock_solv.prm

>  <Rbt.Receptor>
1y26.prm

>  <SCORE>
-46.7847

>  <SCORE.INTER>
-28.9568

>  <SCORE.INTER.CONST>
1

>  <SCORE.INTER.POLAR>
-4.36978

>  <SCORE.INTER.ROT>
4

>  <SCORE.INTER.SOLV>
11.2246

>  <SCORE.INTER.VDW>
-14.7468

>  <SCORE.INTER.norm>
-2.41307

>  <SCORE.INTRA>
-0.0144339

>  <SCORE.INTRA.DIHEDRAL>
-0.0819864

>  <SCORE.INTRA.DIHEDRAL.0>
2.77766

>  <SCORE.INTRA.POLAR>
0

>  <SCORE.INTRA.POLAR.0>
0

>  <SCORE.INTRA.REPUL>
0

>  <SCORE.INTRA.REPUL.0>
0

>  <SCORE.INTRA.SOLV>
-0.0569023

>  <SCORE.INTRA.SOLV.lig_0>
-8.89599

>  <SCORE.INTRA.VDW>
0.0550105

>  <SCORE.INTRA.VDW.0>
-0.603303

>  <SCORE.INTRA.norm>
-0.00120282

>  <SCORE.RESTR>
0

>  <SCORE.RESTR.CAVITY>
0

>  <SCORE.RESTR.norm>
0

>  <SCORE.SYSTEM>
-17.8135

>  <SCORE.SYSTEM.CONST>
0

>  <SCORE.SYSTEM.DIHEDRAL>
6.27249

>  <SCORE.SYSTEM.POLAR>
-3.09202

>  <SCORE.SYSTEM.SOLV>
0.213973

>  <SCORE.SYSTEM.VDW>
-3.73107

>  <SCORE.SYSTEM.norm>
-1.48446

>  <SCORE.heavy>
12

>  <SCORE.norm>
-3.89872

$$$$
P75223345
 OpenBabel12072022103D
libRbt.so/2013.1/901 2013/11/27
 14 14  0  0  0  0  0  0  0  0999 V2000
   22.2515  -14.0749    5.7488 C   0  0  0  0  0  0  0  0  0  0  0  0
   23.0480  -14.3902    4.4699 C   0  0  0  0  0  0  0  0  0  0  0  0
   22.5431  -13.4968    3.3228 C   0  0  0  0  0  0  0  0  0  0  0  0
   24.5311  -14.0567    4.7276 C   0  0  0  0  0  0  0  0  0  0  0  0
   22.9513  -15.8927    4.1010 C   0  0  0  0  0  0  0  0  0  0  0  0
   21.5708  -16.3795    3.8595 C   0  0  0  0  0  0  0  0  0  0  0  0
   20.7636  -16.1452    2.8465 N   0  0  0  0  0  0  0  0  0  0  0  0
   19.5995  -16.8369    3.1097 N   0  0  0  0  0  0  0  0  0  0  0  0
   19.7773  -17.4332    4.2711 C   0  0  0  0  0  0  0  0  0  0  0  0
   21.0075  -17.1780    4.8181 O   0  0  0  0  0  0  0  0  0  0  0  0
   18.8512  -18.3155    5.0293 C   0  0  0  0  0  0  0  0  0  0  0  0
   18.7095  -19.6401    4.4140 N   0  0  0  0  0  0  0  0  0  0  0  0
   18.1163  -20.2132    5.0157 H   0  0  0  0  0  0  0  0  0  0  0  0
   19.6201  -20.0954    4.3967 H   0  0  0  0  0  0  0  0  0  0  0  0
  1  2  1  0  0  0  0
  2  3  1  0  0  0  0
  2  4  1  0  0  0  0
  2  5  1  0  0  0  0
  5  6  1  0  0  0  0
  6  7  2  0  0  0  0
  6 10  1  0  0  0  0
  7  8  1  0  0  0  0
  8  9  2  0  0  0  0
  9 10  1  0  0  0  0
  9 11  1  0  0  0  0
 11 12  1  0  0  0  0
 12 13  1  0  0  0  0
 12 14  1  0  0  0  0
M  END
>  <CHROM.0>
-50.63332452,-65.57495219,-50.15458095,-48.90185048,-57.61495519,60.02911368
-54.47759333,63.29208732,-166.72180111,161.10872172

>  <CHROM.1>
59.50881372,72.08800150,72.39771963,176.08902007,21.29495576,-16.17479408
4.24702665,-0.38449891,0.73443495,2.13624284

>  <Name>
P75223345

>  <RI>
0

>  <Rbt.Current_Directory>
/home/fstefaniak/projects/zuza/docking/adenine/1Y26

>  <Rbt.Executable>
rbdock ($Id: //depot/dev/client3/rdock/2013.1/src/exe/rbdock.cxx#4 $)

>  <Rbt.Library>
libRbt.so (2013.1, Build901 2013/11/27)

>  <Rbt.Parameter_File>
/home/fstefaniak/progs/rDock//data/scripts/dock_solv.prm

>  <Rbt.Receptor>
1y26.prm

>  <SCORE>
-45.2433

>  <SCORE.INTER>
-24.7859

>  <SCORE.INTER.CONST>
1

>  <SCORE.INTER.POLAR>
-3.59793

>  <SCORE.INTER.ROT>
4

>  <SCORE.INTER.SOLV>
11.0126

>  <SCORE.INTER.VDW>
-14.4684

>  <SCORE.INTER.norm>
-2.06549

>  <SCORE.INTRA>
-0.0502964

>  <SCORE.INTRA.DIHEDRAL>
-0.0963937

>  <SCORE.INTRA.DIHEDRAL.0>
2.77766

>  <SCORE.INTRA.POLAR>
0

>  <SCORE.INTRA.POLAR.0>
0

>  <SCORE.INTRA.REPUL>
0

>  <SCORE.INTRA.REPUL.0>
0

>  <SCORE.INTRA.SOLV>
-0.0631549

>  <SCORE.INTRA.SOLV.lig_0>
-8.89599

>  <SCORE.INTRA.VDW>
0.0294779

>  <SCORE.INTRA.VDW.0>
-0.603303

>  <SCORE.INTRA.norm>
-0.00419137

>  <SCORE.RESTR>
0

>  <SCORE.RESTR.CAVITY>
0

>  <SCORE.RESTR.norm>
0

>  <SCORE.SYSTEM>
-20.407

>  <SCORE.SYSTEM.CONST>
0

>  <SCORE.SYSTEM.DIHEDRAL>
6.14417

>  <SCORE.SYSTEM.POLAR>
-3.54893

>  <SCORE.SYSTEM.SOLV>
0.290078

>  <SCORE.SYSTEM.VDW>
-3.91969

>  <SCORE.SYSTEM.norm>
-1.70059

>  <SCORE.heavy>
12

>  <SCORE.norm>
-3.77027

$$$$
P75337551
 OpenBabel12072022103D
libRbt.so/2013.1/901 2013/11/27
 14 14  0  0  0  0  0  0  0  0999 V2000
   18.1591  -18.2863    1.7734 C   0  0  0  0  0  0  0  0  0  0  0  0
   19.4341  -17.6984    2.0080 O   0  0  0  0  0  0  0  0  0  0  0  0
   19.9954  -18.0951    3.2656 C   0  0  1  0  0  0  0  0  0  0  0  0
   21.4953  -17.7906    3.2217 C   0  0  0  0  0  0  0  0  0  0  0  0
   21.6531  -16.3533    3.7231 C   0  0  0  0  0  0  0  0  0  0  0  0
   20.2858  -15.9196    4.2455 C   0  0  0  0  0  0  0  0  0  0  0  0
   19.4887  -17.2101    4.4215 C   0  0  2  0  0  0  0  0  0  0  0  0
   19.7213  -17.8008    5.7341 N   0  0  0  0  0  0  0  0  0  0  0  0
   19.1518  -18.9967    6.0567 C   0  0  0  0  0  0  0  0  0  0  0  0
   19.3052  -20.0460    5.4519 O   0  0  0  0  0  0  0  0  0  0  0  0
   18.3659  -18.9061    7.1582 N   0  0  0  0  0  0  0  0  0  0  0  0
   20.6119  -17.6258    6.1781 H   0  0  0  0  0  0  0  0  0  0  0  0
   18.7793  -19.2216    8.0238 H   0  0  0  0  0  0  0  0  0  0  0  0
   17.8878  -18.0157    7.2267 H   0  0  0  0  0  0  0  0  0  0  0  0
  1  2  1  0  0  0  0
  3  2  1  6  0  0  0
  3  4  1  0  0  0  0
  3  7  1  0  0  0  0
  4  5  1  0  0  0  0
  5  6  1  0  0  0  0
  6  7  1  0  0  0  0
  7  8  1  1  0  0  0
  8  9  1  0  0  0  0
  8 12  1  0  0  0  0
  9 10  2  0  0  0  0
  9 11  1  0  0  0  0
 11 13  1  0  0  0  0
 11 14  1  0  0  0  0
M  END
>  <CHROM.0>
-35.39021808,59.67903430,-55.70084683,-52.67807494,-55.82819433,-57.95604364
-57.17094175,-175.99947485,-165.55636140,161.89055917

>  <CHROM.1>
162.28902154,-61.12085629,58.09851562,-99.77088452,19.70848405,-17.94116848
4.28559993,1.16229792,-0.78047891,-1.42856754

>  <Name>
P75337551

>  <RI>
0

>  <Rbt.Current_Directory>
/home/fstefaniak/projects/zuza/docking/adenine/1Y26

>  <Rbt.Executable>
rbdock ($Id: //depot/dev/client3/rdock/2013.1/src/exe/rbdock.cxx#4 $)

>  <Rbt.Library>
libRbt.so (2013.1, Build901 2013/11/27)

>  <Rbt.Parameter_File>
/home/fstefaniak/progs/rDock//data/scripts/dock_solv.prm

>  <Rbt.Receptor>
1y26.prm

>  <SCORE>
-49.9545

>  <SCORE.INTER>
-28.6991

>  <SCORE.INTER.CONST>
1

>  <SCORE.INTER.POLAR>
-4.43761

>  <SCORE.INTER.ROT>
4

>  <SCORE.INTER.SOLV>
13.6161

>  <SCORE.INTER.VDW>
-15.1461

>  <SCORE.INTER.norm>
-2.60901

>  <SCORE.INTRA>
0.190083

>  <SCORE.INTRA.DIHEDRAL>
0.492756

>  <SCORE.INTRA.DIHEDRAL.0>
2.53075

>  <SCORE.INTRA.POLAR>
0

>  <SCORE.INTRA.POLAR.0>
0

>  <SCORE.INTRA.REPUL>
0

>  <SCORE.INTRA.REPUL.0>
0

>  <SCORE.INTRA.SOLV>
0.158003

>  <SCORE.INTRA.SOLV.lig_0>
-13.4259

>  <SCORE.INTRA.VDW>
-0.135297

>  <SCORE.INTRA.VDW.0>
-0.80591

>  <SCORE.INTRA.norm>
0.0172802

>  <SCORE.RESTR>
0

>  <SCORE.RESTR.CAVITY>
0

>  <SCORE.RESTR.norm>
0

>  <SCORE.SYSTEM>
-21.4455

>  <SCORE.SYSTEM.CONST>
0

>  <SCORE.SYSTEM.DIHEDRAL>
7.50149

>  <SCORE.SYSTEM.POLAR>
-3.61951

>  <SCORE.SYSTEM.SOLV>
0.514181

>  <SCORE.SYSTEM.VDW>
-4.90384

>  <SCORE.SYSTEM.norm>
-1.94959

>  <SCORE.heavy>
11

>  <SCORE.norm>
-4.54132

$$$$
P75337551
 OpenBabel12072022103D
libRbt.so/2013.1/901 2013/11/27
 14 14  0  0  0  0  0  0  0  0999 V2000
   18.2166  -18.3683    1.7171 C   0  0  0  0  0  0  0  0  0  0  0  0
   19.4420  -17.7000    1.9961 O   0  0  0  0  0  0  0  0  0  0  0  0
   19.9846  -18.0641    3.2716 C   0  0  1  0  0  0  0  0  0  0  0  0
   21.4877  -17.7742    3.2370 C   0  0  0  0  0  0  0  0  0  0  0  0
   21.6526  -16.3241    3.6975 C   0  0  0  0  0  0  0  0  0  0  0  0
   20.2833  -15.8630    4.1901 C   0  0  0  0  0  0  0  0  0  0  0  0
   19.4724  -17.1407    4.3946 C   0  0  2  0  0  0  0  0  0  0  0  0
   19.6838  -17.6940    5.7268 N   0  0  0  0  0  0  0  0  0  0  0  0
   19.2218  -18.9400    6.0313 C   0  0  0  0  0  0  0  0  0  0  0  0
   19.4813  -19.9656    5.4221 O   0  0  0  0  0  0  0  0  0  0  0  0
   18.4126  -18.9314    7.1195 N   0  0  0  0  0  0  0  0  0  0  0  0
   20.5230  -17.4245    6.2209 H   0  0  0  0  0  0  0  0  0  0  0  0
   18.0679  -18.0269    7.4074 H   0  0  0  0  0  0  0  0  0  0  0  0
   17.7042  -19.6547    7.0872 H   0  0  0  0  0  0  0  0  0  0  0  0
  1  2  1  0  0  0  0
  3  2  1  6  0  0  0
  3  4  1  0  0  0  0
  3  7  1  0  0  0  0
  4  5  1  0  0  0  0
  5  6  1  0  0  0  0
  6  7  1  0  0  0  0
  7  8  1  1  0  0  0
  8  9  1  0  0  0  0
  8 12  1  0  0  0  0
  9 10  2  0  0  0  0
  9 11  1  0  0  0  0
 11 13  1  0  0  0  0
 11 14  1  0  0  0  0
M  END
>  <CHROM.0>
-178.54115351,62.44246036,-57.78265523,-50.40354883,-173.13305057,-56.43443052
-61.92983220,-51.36271993,-166.66807068,160.01984937

>  <CHROM.1>
157.50644674,-54.02075285,55.31400954,15.23868262,19.72926452,-17.91370417
4.25795327,1.16086473,-0.80988684,-1.44287537

>  <Name>
P75337551

>  <RI>
0

>  <Rbt.Current_Directory>
/home/fstefaniak/projects/zuza/docking/adenine/1Y26

>  <Rbt.Executable>
rbdock ($Id: //depot/dev/client3/rdock/2013.1/src/exe/rbdock.cxx#4 $)

>  <Rbt.Library>
libRbt.so (2013.1, Build901 2013/11/27)

>  <Rbt.Parameter_File>
/home/fstefaniak/progs/rDock//data/scripts/dock_solv.prm

>  <Rbt.Receptor>
1y26.prm

>  <SCORE>
-49.7712

>  <SCORE.INTER>
-30.1928

>  <SCORE.INTER.CONST>
1

>  <SCORE.INTER.POLAR>
-4.64768

>  <SCORE.INTER.ROT>
4

>  <SCORE.INTER.SOLV>
13.5877

>  <SCORE.INTER.VDW>
-15.4322

>  <SCORE.INTER.norm>
-2.7448

>  <SCORE.INTRA>
0.823572

>  <SCORE.INTRA.DIHEDRAL>
1.48145

>  <SCORE.INTRA.DIHEDRAL.0>
2.53075

>  <SCORE.INTRA.POLAR>
0

>  <SCORE.INTRA.POLAR.0>
0

>  <SCORE.INTRA.REPUL>
0

>  <SCORE.INTRA.REPUL.0>
0

>  <SCORE.INTRA.SOLV>
0.20985

>  <SCORE.INTRA.SOLV.lig_0>
-13.4259

>  <SCORE.INTRA.VDW>
-0.0220769

>  <SCORE.INTRA.VDW.0>
-0.80591

>  <SCORE.INTRA.norm>
0.0748702

>  <SCORE.RESTR>
0

>  <SCORE.RESTR.CAVITY>
0

>  <SCORE.RESTR.norm>
0

>  <SCORE.SYSTEM>
-20.402

>  <SCORE.SYSTEM.CONST>
0

>  <SCORE.SYSTEM.DIHEDRAL>
5.62506

>  <SCORE.SYSTEM.POLAR>
-3.29866

>  <SCORE.SYSTEM.SOLV>
0.478278

>  <SCORE.SYSTEM.VDW>
-4.64024

>  <SCORE.SYSTEM.norm>
-1.85473

>  <SCORE.heavy>
11

>  <SCORE.norm>
-4.52466

$$$$
P75337551
 OpenBabel12072022103D
libRbt.so/2013.1/901 2013/11/27
 14 14  0  0  0  0  0  0  0  0999 V2000
   18.1957  -18.3093    1.7905 C   0  0  0  0  0  0  0  0  0  0  0  0
   19.4617  -17.7029    2.0264 O   0  0  0  0  0  0  0  0  0  0  0  0
   20.0261  -18.0891    3.2858 C   0  0  1  0  0  0  0  0  0  0  0  0
   21.5211  -17.7609    3.2452 C   0  0  0  0  0  0  0  0  0  0  0  0
   21.6549  -16.3207    3.7451 C   0  0  0  0  0  0  0  0  0  0  0  0
   20.2797  -15.9081    4.2637 C   0  0  0  0  0  0  0  0  0  0  0  0
   19.5027  -17.2108    4.4394 C   0  0  2  0  0  0  0  0  0  0  0  0
   19.7414  -17.7961    5.7533 N   0  0  0  0  0  0  0  0  0  0  0  0
   19.1865  -18.9984    6.0777 C   0  0  0  0  0  0  0  0  0  0  0  0
   19.3789  -20.0534    5.4945 O   0  0  0  0  0  0  0  0  0  0  0  0
   18.3660  -18.9070    7.1536 N   0  0  0  0  0  0  0  0  0  0  0  0
   20.6295  -17.6094    6.1977 H   0  0  0  0  0  0  0  0  0  0  0  0
   18.7463  -19.2362    8.0293 H   0  0  0  0  0  0  0  0  0  0  0  0
   17.8980  -18.0107    7.2150 H   0  0  0  0  0  0  0  0  0  0  0  0
  1  2  1  0  0  0  0
  3  2  1  6  0  0  0
  3  4  1  0  0  0  0
  3  7  1  0  0  0  0
  4  5  1  0  0  0  0
  5  6  1  0  0  0  0
  6  7  1  0  0  0  0
  7  8  1  1  0  0  0
  8  9  1  0  0  0  0
  8 12  1  0  0  0  0
  9 10  2  0  0  0  0
  9 11  1  0  0  0  0
 11 13  1  0  0  0  0
 11 14  1  0  0  0  0
M  END
>  <CHROM.0>
-36.97827328,55.04583593,-61.68742633,-53.92988317,-56.51964723,-178.02010414
-65.16802378,-51.60138577,-166.78801780,159.97665894

>  <CHROM.1>
162.39479700,-61.34628034,60.00296287,-102.18888202,19.73218899,-17.93733364
4.30516616,1.15759488,-0.79325646,-1.43108032

>  <Name>
P75337551

>  <RI>
0

>  <Rbt.Current_Directory>
/home/fstefaniak/projects/zuza/docking/adenine/1Y26

>  <Rbt.Executable>
rbdock ($Id: //depot/dev/client3/rdock/2013.1/src/exe/rbdock.cxx#4 $)

>  <Rbt.Library>
libRbt.so (2013.1, Build901 2013/11/27)

>  <Rbt.Parameter_File>
/home/fstefaniak/progs/rDock//data/scripts/dock_solv.prm

>  <Rbt.Receptor>
1y26.prm

>  <SCORE>
-49.3898

>  <SCORE.INTER>
-28.5262

>  <SCORE.INTER.CONST>
1

>  <SCORE.INTER.POLAR>
-4.44337

>  <SCORE.INTER.ROT>
4

>  <SCORE.INTER.SOLV>
13.681

>  <SCORE.INTER.VDW>
-15.0333

>  <SCORE.INTER.norm>
-2.5933

>  <SCORE.INTRA>
0.160746

>  <SCORE.INTRA.DIHEDRAL>
0.471226

>  <SCORE.INTRA.DIHEDRAL.0>
2.53075

>  <SCORE.INTRA.POLAR>
0

>  <SCORE.INTRA.POLAR.0>
0

>  <SCORE.INTRA.REPUL>
0

>  <SCORE.INTRA.REPUL.0>
0

>  <SCORE.INTRA.SOLV>
0.151693

>  <SCORE.INTRA.SOLV.lig_0>
-13.4259

>  <SCORE.INTRA.VDW>
-0.150713

>  <SCORE.INTRA.VDW.0>
-0.80591

>  <SCORE.INTRA.norm>
0.0146133

>  <SCORE.RESTR>
0

>  <SCORE.RESTR.CAVITY>
0

>  <SCORE.RESTR.norm>
0

>  <SCORE.SYSTEM>
-21.0243

>  <SCORE.SYSTEM.CONST>
0

>  <SCORE.SYSTEM.DIHEDRAL>
7.63117

>  <SCORE.SYSTEM.POLAR>
-3.64151

>  <SCORE.SYSTEM.SOLV>
0.563983

>  <SCORE.SYSTEM.VDW>
-4.60955

>  <SCORE.SYSTEM.norm>
-1.9113

>  <SCORE.heavy>
11

>  <SCORE.norm>
-4.48998

$$$$
P75363919
 OpenBabel12072022103D
libRbt.so/2013.1/901 2013/11/27
 13 12  0  0  0  0  0  0  0  0999 V2000
   24.2277  -16.2196    4.3631 C   0  0  0  0  0  0  0  0  0  0  0  0
   23.1903  -15.1451    4.0904 C   0  0  0  0  0  0  0  0  0  0  0  0
   21.8904  -15.5004    4.6222 N   0  0  0  0  0  0  0  0  0  0  0  0
   21.0770  -16.3828    3.9623 C   0  0  0  0  0  0  0  0  0  0  0  0
   20.7157  -16.2690    2.8000 O   0  0  0  0  0  0  0  0  0  0  0  0
   20.7077  -17.4218    4.7794 N   0  0  0  0  0  0  0  0  0  0  0  0
   19.3405  -17.9377    4.7573 C   0  0  1  0  0  0  0  0  0  0  0  0
   19.0086  -18.4703    3.3631 C   0  0  0  0  0  0  0  0  0  0  0  0
   19.0631  -18.9685    5.8678 C   0  0  0  0  0  0  0  0  0  0  0  0
   17.6264  -19.1550    6.1072 C   0  0  0  0  0  0  0  0  0  0  0  0
   16.4862  -19.2784    6.2850 N   0  0  0  0  0  0  0  0  0  0  0  0
   21.7857  -15.4870    5.6259 H   0  0  0  0  0  0  0  0  0  0  0  0
   21.2089  -17.4619    5.6579 H   0  0  0  0  0  0  0  0  0  0  0  0
  1  2  1  0  0  0  0
  2  3  1  0  0  0  0
  3  4  1  0  0  0  0
  3 12  1  0  0  0  0
  4  5  2  0  0  0  0
  4  6  1  0  0  0  0
  6  7  1  0  0  0  0
  6 13  1  0  0  0  0
  7  8  1  6  0  0  0
  7  9  1  0  0  0  0
  9 10  1  0  0  0  0
 10 11  3  0  0  0  0
M  END
>  <CHROM.0>
-52.04775700,-67.10271990,-56.12842396,-49.95221746,-175.29663882,59.18569734
-51.70794253,-178.16618803,-166.63503741,160.17345471

>  <CHROM.1>
-78.71926059,-55.13764299,139.09687033,60.85267553,161.88179322,20.37209765
-17.30093651,4.60446621,-0.41606636,0.46204953,1.89731839

>  <Name>
P75363919

>  <RI>
0

>  <Rbt.Current_Directory>
/home/fstefaniak/projects/zuza/docking/adenine/1Y26

>  <Rbt.Executable>
rbdock ($Id: //depot/dev/client3/rdock/2013.1/src/exe/rbdock.cxx#4 $)

>  <Rbt.Library>
libRbt.so (2013.1, Build901 2013/11/27)

>  <Rbt.Parameter_File>
/home/fstefaniak/progs/rDock//data/scripts/dock_solv.prm

>  <Rbt.Receptor>
1y26.prm

>  <SCORE>
-52.7164

>  <SCORE.INTER>
-31.8289

>  <SCORE.INTER.CONST>
1

>  <SCORE.INTER.POLAR>
-3.99119

>  <SCORE.INTER.ROT>
5

>  <SCORE.INTER.SOLV>
12.0503

>  <SCORE.INTER.VDW>
-18.8654

>  <SCORE.INTER.norm>
-2.89353

>  <SCORE.INTRA>
0.682967

>  <SCORE.INTRA.DIHEDRAL>
0.164747

>  <SCORE.INTRA.DIHEDRAL.0>
2.92986

>  <SCORE.INTRA.POLAR>
0

>  <SCORE.INTRA.POLAR.0>
0

>  <SCORE.INTRA.REPUL>
0

>  <SCORE.INTRA.REPUL.0>
0

>  <SCORE.INTRA.SOLV>
-0.328812

>  <SCORE.INTRA.SOLV.lig_0>
-14.533

>  <SCORE.INTRA.VDW>
0.765

>  <SCORE.INTRA.VDW.0>
-0.125135

>  <SCORE.INTRA.norm>
0.0620879

>  <SCORE.RESTR>
0

>  <SCORE.RESTR.CAVITY>
0

>  <SCORE.RESTR.norm>
0

>  <SCORE.SYSTEM>
-21.5705

>  <SCORE.SYSTEM.CONST>
0

>  <SCORE.SYSTEM.DIHEDRAL>
6.01746

>  <SCORE.SYSTEM.POLAR>
-3.50212

>  <SCORE.SYSTEM.SOLV>
0.139902

>  <SCORE.SYSTEM.VDW>
-4.75906

>  <SCORE.SYSTEM.norm>
-1.96095

>  <SCORE.heavy>
11

>  <SCORE.norm>
-4.7924

$$$$
P75363919
 OpenBabel12072022103D
libRbt.so/2013.1/901 2013/11/27
 13 12  0  0  0  0  0  0  0  0999 V2000
   22.7585  -13.1452    4.9485 C   0  0  0  0  0  0  0  0  0  0  0  0
   22.4997  -14.3968    4.1289 C   0  0  0  0  0  0  0  0  0  0  0  0
   21.4252  -15.1945    4.6839 N   0  0  0  0  0  0  0  0  0  0  0  0
   20.8333  -16.1871    3.9490 C   0  0  0  0  0  0  0  0  0  0  0  0
   20.5812  -16.1202    2.7547 O   0  0  0  0  0  0  0  0  0  0  0  0
   20.5490  -17.2790    4.7304 N   0  0  0  0  0  0  0  0  0  0  0  0
   19.2099  -17.8642    4.7344 C   0  0  1  0  0  0  0  0  0  0  0  0
   18.8875  -18.4333    3.3524 C   0  0  0  0  0  0  0  0  0  0  0  0
   19.0002  -18.8916    5.8628 C   0  0  0  0  0  0  0  0  0  0  0  0
   17.5782  -19.1472    6.1250 C   0  0  0  0  0  0  0  0  0  0  0  0
   16.4483  -19.3256    6.3206 N   0  0  0  0  0  0  0  0  0  0  0  0
   21.4331  -15.3445    5.6819 H   0  0  0  0  0  0  0  0  0  0  0  0
   21.0853  -17.3315    5.5873 H   0  0  0  0  0  0  0  0  0  0  0  0
  1  2  1  0  0  0  0
  2  3  1  0  0  0  0
  3  4  1  0  0  0  0
  3 12  1  0  0  0  0
  4  5  2  0  0  0  0
  4  6  1  0  0  0  0
  6  7  1  0  0  0  0
  6 13  1  0  0  0  0
  7  8  1  6  0  0  0
  7  9  1  0  0  0  0
  9 10  1  0  0  0  0
 10 11  3  0  0  0  0
M  END
>  <CHROM.0>
-45.74580021,-65.17235995,-57.84166297,-53.80744634,-176.93786555,-59.78876167
-53.74801657,-49.37262959,-166.64720868,160.13525061

>  <CHROM.1>
165.06335533,-38.95688430,128.62853358,64.51894657,161.85364598,20.03969602
-16.84969054,4.66118616,-0.02613582,0.83167015,1.33334337

>  <Name>
P75363919

>  <RI>
0

>  <Rbt.Current_Directory>
/home/fstefaniak/projects/zuza/docking/adenine/1Y26

>  <Rbt.Executable>
rbdock ($Id: //depot/dev/client3/rdock/2013.1/src/exe/rbdock.cxx#4 $)

>  <Rbt.Library>
libRbt.so (2013.1, Build901 2013/11/27)

>  <Rbt.Parameter_File>
/home/fstefaniak/progs/rDock//data/scripts/dock_solv.prm

>  <Rbt.Receptor>
1y26.prm

>  <SCORE>
-51.8482

>  <SCORE.INTER>
-30.2212

>  <SCORE.INTER.CONST>
1

>  <SCORE.INTER.POLAR>
-4.06038

>  <SCORE.INTER.ROT>
5

>  <SCORE.INTER.SOLV>
12.174

>  <SCORE.INTER.VDW>
-17.6042

>  <SCORE.INTER.norm>
-2.74738

>  <SCORE.INTRA>
0.46145

>  <SCORE.INTRA.DIHEDRAL>
0.279168

>  <SCORE.INTRA.DIHEDRAL.0>
2.92986

>  <SCORE.INTRA.POLAR>
0

>  <SCORE.INTRA.POLAR.0>
0

>  <SCORE.INTRA.REPUL>
0

>  <SCORE.INTRA.REPUL.0>
0

>  <SCORE.INTRA.SOLV>
-0.58338

>  <SCORE.INTRA.SOLV.lig_0>
-14.533

>  <SCORE.INTRA.VDW>
0.613556

>  <SCORE.INTRA.VDW.0>
-0.125135

>  <SCORE.INTRA.norm>
0.04195

>  <SCORE.RESTR>
0

>  <SCORE.RESTR.CAVITY>
0

>  <SCORE.RESTR.norm>
0

>  <SCORE.SYSTEM>
-22.0884

>  <SCORE.SYSTEM.CONST>
0

>  <SCORE.SYSTEM.DIHEDRAL>
6.52147

>  <SCORE.SYSTEM.POLAR>
-3.54223

>  <SCORE.SYSTEM.SOLV>
0.50704

>  <SCORE.SYSTEM.VDW>
-5.26099

>  <SCORE.SYSTEM.norm>
-2.00804

>  <SCORE.heavy>
11

>  <SCORE.norm>
-4.71347

$$$$
P75363919
 OpenBabel12072022103D
libRbt.so/2013.1/901 2013/11/27
 13 12  0  0  0  0  0  0  0  0999 V2000
   24.2302  -16.1595    4.3218 C   0  0  0  0  0  0  0  0  0  0  0  0
   23.2000  -15.0647    4.1088 C   0  0  0  0  0  0  0  0  0  0  0  0
   21.9063  -15.4262    4.6513 N   0  0  0  0  0  0  0  0  0  0  0  0
   21.0728  -16.2781    3.9765 C   0  0  0  0  0  0  0  0  0  0  0  0
   20.6972  -16.1245    2.8233 O   0  0  0  0  0  0  0  0  0  0  0  0
   20.7016  -17.3369    4.7669 N   0  0  0  0  0  0  0  0  0  0  0  0
   19.3321  -17.8462    4.7354 C   0  0  1  0  0  0  0  0  0  0  0  0
   18.9708  -18.2775    3.3138 C   0  0  0  0  0  0  0  0  0  0  0  0
   19.0724  -18.9526    5.7752 C   0  0  0  0  0  0  0  0  0  0  0  0
   17.6426  -19.1178    6.0661 C   0  0  0  0  0  0  0  0  0  0  0  0
   16.5082  -19.2234    6.2867 N   0  0  0  0  0  0  0  0  0  0  0  0
   21.8193  -15.4460    5.6567 H   0  0  0  0  0  0  0  0  0  0  0  0
   21.2053  -17.4024    5.6424 H   0  0  0  0  0  0  0  0  0  0  0  0
  1  2  1  0  0  0  0
  2  3  1  0  0  0  0
  3  4  1  0  0  0  0
  3 12  1  0  0  0  0
  4  5  2  0  0  0  0
  4  6  1  0  0  0  0
  6  7  1  0  0  0  0
  6 13  1  0  0  0  0
  7  8  1  6  0  0  0
  7  9  1  0  0  0  0
  9 10  1  0  0  0  0
 10 11  3  0  0  0  0
M  END
>  <CHROM.0>
62.05521686,-60.00636632,-56.28328055,-53.14279314,-173.73849689,-57.09528641
-57.82788301,63.81125237,-166.55893590,161.22907327

>  <CHROM.1>
-78.51113296,-54.78241138,139.89833676,58.12703632,159.76516007,20.37177015
-17.21418404,4.58921868,-0.43495360,0.44595085,1.94906755

>  <Name>
P75363919

>  <RI>
0

>  <Rbt.Current_Directory>
/home/fstefaniak/projects/zuza/docking/adenine/1Y26

>  <Rbt.Executable>
rbdock ($Id: //depot/dev/client3/rdock/2013.1/src/exe/rbdock.cxx#4 $)

>  <Rbt.Library>
libRbt.so (2013.1, Build901 2013/11/27)

>  <Rbt.Parameter_File>
/home/fstefaniak/progs/rDock//data/scripts/dock_solv.prm

>  <Rbt.Receptor>
1y26.prm

>  <SCORE>
-51.5594

>  <SCORE.INTER>
-32.1269

>  <SCORE.INTER.CONST>
1

>  <SCORE.INTER.POLAR>
-3.95982

>  <SCORE.INTER.ROT>
5

>  <SCORE.INTER.SOLV>
12.0205

>  <SCORE.INTER.VDW>
-19.1587

>  <SCORE.INTER.norm>
-2.92063

>  <SCORE.INTRA>
1.0219

>  <SCORE.INTRA.DIHEDRAL>
0.32573

>  <SCORE.INTRA.DIHEDRAL.0>
2.92986

>  <SCORE.INTRA.POLAR>
0

>  <SCORE.INTRA.POLAR.0>
0

>  <SCORE.INTRA.REPUL>
0

>  <SCORE.INTRA.REPUL.0>
0

>  <SCORE.INTRA.SOLV>
-0.324338

>  <SCORE.INTRA.SOLV.lig_0>
-14.533

>  <SCORE.INTRA.VDW>
1.02121

>  <SCORE.INTRA.VDW.0>
-0.125135

>  <SCORE.INTRA.norm>
0.0929003

>  <SCORE.RESTR>
0

>  <SCORE.RESTR.CAVITY>
0

>  <SCORE.RESTR.norm>
0

>  <SCORE.SYSTEM>
-20.4544

>  <SCORE.SYSTEM.CONST>
0

>  <SCORE.SYSTEM.DIHEDRAL>
4.96675

>  <SCORE.SYSTEM.POLAR>
-3.19426

>  <SCORE.SYSTEM.SOLV>
0.247154

>  <SCORE.SYSTEM.VDW>
-4.72672

>  <SCORE.SYSTEM.norm>
-1.85949

>  <SCORE.heavy>
11

>  <SCORE.norm>
-4.68722

$$$$
P76310038
 OpenBabel12072022103D
libRbt.so/2013.1/901 2013/11/27
 16 16  0  0  0  0  0  0  0  0999 V2000
   18.7259  -18.0363    3.5941 C   0  0  0  0  0  0  0  0  0  0  0  0
   17.6014  -18.4728    4.2998 C   0  0  0  0  0  0  0  0  0  0  0  0
   17.7300  -18.8343    5.6367 C   0  0  0  0  0  0  0  0  0  0  0  0
   18.9593  -18.7611    6.2789 C   0  0  0  0  0  0  0  0  0  0  0  0
   20.0810  -18.3189    5.5767 C   0  0  0  0  0  0  0  0  0  0  0  0
   19.9799  -17.9601    4.2223 C   0  0  0  0  0  0  0  0  0  0  0  0
   21.1997  -17.5053    3.4490 C   0  0  2  0  0  0  0  0  0  0  0  0
   21.8843  -16.2568    4.0501 C   0  0  0  0  0  0  0  0  0  0  0  0
   21.3673  -15.1411    3.9890 O   0  0  0  0  0  0  0  0  0  0  0  0
   23.1273  -16.4139    4.5938 N   0  0  0  0  0  0  0  0  0  0  0  0
   20.8096  -17.2640    2.0991 O   0  0  0  0  0  0  0  0  0  0  0  0
   16.6596  -19.2666    6.3617 O   0  0  0  0  0  0  0  0  0  0  0  0
   23.8667  -15.7526    4.3883 H   0  0  0  0  0  0  0  0  0  0  0  0
   23.4063  -17.3651    4.7998 H   0  0  0  0  0  0  0  0  0  0  0  0
   20.5210  -18.1312    1.7520 H   0  0  0  0  0  0  0  0  0  0  0  0
   16.8840  -20.1191    6.7692 H   0  0  0  0  0  0  0  0  0  0  0  0
  1  2  2  0  0  0  0
  1  6  1  0  0  0  0
  2  3  1  0  0  0  0
  3  4  2  0  0  0  0
  3 12  1  0  0  0  0
  4  5  1  0  0  0  0
  5  6  2  0  0  0  0
  7  8  1  1  0  0  0
  7 11  1  0  0  0  0
  7  6  1  0  0  0  0
  8  9  2  0  0  0  0
  8 10  1  0  0  0  0
 10 13  1  0  0  0  0
 10 14  1  0  0  0  0
 11 15  1  0  0  0  0
 12 16  1  0  0  0  0
M  END
>  <CHROM.0>
-49.42362884,65.41228365,-48.29431072,-51.38621353,-172.32327079,-176.16598804
-53.80461961,-50.12360341,-167.42777003,160.97006498

>  <CHROM.1>
126.94450747,-71.12789711,-63.60977122,121.27463652,134.59992162,19.88238281
-17.65748705,4.48938058,2.70161607,0.47855705,1.72184489

>  <Name>
P76310038

>  <RI>
0

>  <Rbt.Current_Directory>
/home/fstefaniak/projects/zuza/docking/adenine/1Y26

>  <Rbt.Executable>
rbdock ($Id: //depot/dev/client3/rdock/2013.1/src/exe/rbdock.cxx#4 $)

>  <Rbt.Library>
libRbt.so (2013.1, Build901 2013/11/27)

>  <Rbt.Parameter_File>
/home/fstefaniak/progs/rDock//data/scripts/dock_solv.prm

>  <Rbt.Receptor>
1y26.prm

>  <SCORE>
-57.5888

>  <SCORE.INTER>
-36.6292

>  <SCORE.INTER.CONST>
1

>  <SCORE.INTER.POLAR>
-5.25081

>  <SCORE.INTER.ROT>
3

>  <SCORE.INTER.SOLV>
14.4771

>  <SCORE.INTER.VDW>
-17.3425

>  <SCORE.INTER.norm>
-3.05244

>  <SCORE.INTRA>
0.0966145

>  <SCORE.INTRA.DIHEDRAL>
-0.184718

>  <SCORE.INTRA.DIHEDRAL.0>
5.64596

>  <SCORE.INTRA.POLAR>
0

>  <SCORE.INTRA.POLAR.0>
0

>  <SCORE.INTRA.REPUL>
0

>  <SCORE.INTRA.REPUL.0>
0

>  <SCORE.INTRA.SOLV>
-0.274261

>  <SCORE.INTRA.SOLV.lig_0>
-18.9717

>  <SCORE.INTRA.VDW>
0.326104

>  <SCORE.INTRA.VDW.0>
-0.658995

>  <SCORE.INTRA.norm>
0.00805121

>  <SCORE.RESTR>
0

>  <SCORE.RESTR.CAVITY>
0

>  <SCORE.RESTR.norm>
0

>  <SCORE.SYSTEM>
-21.0562

>  <SCORE.SYSTEM.CONST>
0

>  <SCORE.SYSTEM.DIHEDRAL>
6.88509

>  <SCORE.SYSTEM.POLAR>
-3.57397

>  <SCORE.SYSTEM.SOLV>
0.402202

>  <SCORE.SYSTEM.VDW>
-4.55329

>  <SCORE.SYSTEM.norm>
-1.75468

>  <SCORE.heavy>
12

>  <SCORE.norm>
-4.79907

$$$$
P76310038
 OpenBabel12072022103D
libRbt.so/2013.1/901 2013/11/27
 16 16  0  0  0  0  0  0  0  0999 V2000
   19.2658  -17.8454    3.9563 C   0  0  0  0  0  0  0  0  0  0  0  0
   18.0560  -18.4427    4.3205 C   0  0  0  0  0  0  0  0  0  0  0  0
   17.8848  -18.9045    5.6212 C   0  0  0  0  0  0  0  0  0  0  0  0
   18.8981  -18.7739    6.5622 C   0  0  0  0  0  0  0  0  0  0  0  0
   20.1037  -18.1714    6.2009 C   0  0  0  0  0  0  0  0  0  0  0  0
   20.3060  -17.7083    4.8902 C   0  0  0  0  0  0  0  0  0  0  0  0
   21.6223  -17.0782    4.4865 C   0  0  2  0  0  0  0  0  0  0  0  0
   21.6434  -15.5398    4.6328 C   0  0  0  0  0  0  0  0  0  0  0  0
   20.7326  -14.8345    4.1983 O   0  0  0  0  0  0  0  0  0  0  0  0
   22.7480  -14.9708    5.1998 N   0  0  0  0  0  0  0  0  0  0  0  0
   21.9076  -17.4596    3.1426 O   0  0  0  0  0  0  0  0  0  0  0  0
   16.7219  -19.4943    6.0184 O   0  0  0  0  0  0  0  0  0  0  0  0
   23.5028  -14.6227    4.6207 H   0  0  0  0  0  0  0  0  0  0  0  0
   22.9938  -15.3009    6.1248 H   0  0  0  0  0  0  0  0  0  0  0  0
   21.9912  -18.4335    3.1601 H   0  0  0  0  0  0  0  0  0  0  0  0
   16.8639  -19.9097    6.8846 H   0  0  0  0  0  0  0  0  0  0  0  0
  1  2  2  0  0  0  0
  1  6  1  0  0  0  0
  2  3  1  0  0  0  0
  3  4  2  0  0  0  0
  3 12  1  0  0  0  0
  4  5  1  0  0  0  0
  5  6  2  0  0  0  0
  7  8  1  6  0  0  0
  7 11  1  0  0  0  0
  7  6  1  0  0  0  0
  8  9  2  0  0  0  0
  8 10  1  0  0  0  0
 10 13  1  0  0  0  0
 10 14  1  0  0  0  0
 11 15  1  0  0  0  0
 12 16  1  0  0  0  0
M  END
>  <CHROM.0>
-50.80664291,-68.96208589,-59.37978168,-50.37488731,-58.02349009,-58.19374591
-64.31350333,-57.09457386,-165.65923524,160.39346162

>  <CHROM.1>
168.16854631,-47.92756909,-62.06199271,87.59832105,94.64532167,20.02956658
-17.40352570,4.91583294,3.09229944,0.70334043,1.27767434

>  <Name>
P76310038

>  <RI>
0

>  <Rbt.Current_Directory>
/home/fstefaniak/projects/zuza/docking/adenine/1Y26

>  <Rbt.Executable>
rbdock ($Id: //depot/dev/client3/rdock/2013.1/src/exe/rbdock.cxx#4 $)

>  <Rbt.Library>
libRbt.so (2013.1, Build901 2013/11/27)

>  <Rbt.Parameter_File>
/home/fstefaniak/progs/rDock//data/scripts/dock_solv.prm

>  <Rbt.Receptor>
1y26.prm

>  <SCORE>
-55.9673

>  <SCORE.INTER>
-32.2673

>  <SCORE.INTER.CONST>
1

>  <SCORE.INTER.POLAR>
-4.31425

>  <SCORE.INTER.ROT>
3

>  <SCORE.INTER.SOLV>
14.3089

>  <SCORE.INTER.VDW>
-17.5003

>  <SCORE.INTER.norm>
-2.68894

>  <SCORE.INTRA>
-1.60323

>  <SCORE.INTRA.DIHEDRAL>
-3.08191

>  <SCORE.INTRA.DIHEDRAL.0>
5.64596

>  <SCORE.INTRA.POLAR>
0

>  <SCORE.INTRA.POLAR.0>
0

>  <SCORE.INTRA.REPUL>
0

>  <SCORE.INTRA.REPUL.0>
0

>  <SCORE.INTRA.SOLV>
-0.349998

>  <SCORE.INTRA.SOLV.lig_0>
-18.9717

>  <SCORE.INTRA.VDW>
0.112722

>  <SCORE.INTRA.VDW.0>
-0.658995

>  <SCORE.INTRA.norm>
-0.133603

>  <SCORE.RESTR>
0

>  <SCORE.RESTR.CAVITY>
0

>  <SCORE.RESTR.norm>
0

>  <SCORE.SYSTEM>
-22.0968

>  <SCORE.SYSTEM.CONST>
0

>  <SCORE.SYSTEM.DIHEDRAL>
5.95028

>  <SCORE.SYSTEM.POLAR>
-3.48146

>  <SCORE.SYSTEM.SOLV>
0.636221

>  <SCORE.SYSTEM.VDW>
-5.32182

>  <SCORE.SYSTEM.norm>
-1.8414

>  <SCORE.heavy>
12

>  <SCORE.norm>
-4.66394

$$$$
P76310038
 OpenBabel12072022103D
libRbt.so/2013.1/901 2013/11/27
 16 16  0  0  0  0  0  0  0  0999 V2000
   23.4372  -16.6673    4.3079 C   0  0  0  0  0  0  0  0  0  0  0  0
   24.4867  -15.7452    4.3439 C   0  0  0  0  0  0  0  0  0  0  0  0
   24.2047  -14.3933    4.5099 C   0  0  0  0  0  0  0  0  0  0  0  0
   22.8953  -13.9507    4.6460 C   0  0  0  0  0  0  0  0  0  0  0  0
   21.8475  -14.8717    4.6170 C   0  0  0  0  0  0  0  0  0  0  0  0
   22.1052  -16.2410    4.4378 C   0  0  0  0  0  0  0  0  0  0  0  0
   20.9697  -17.2409    4.3788 C   0  0  2  0  0  0  0  0  0  0  0  0
   20.2331  -17.2625    3.0202 C   0  0  0  0  0  0  0  0  0  0  0  0
   20.8067  -17.5749    1.9765 O   0  0  0  0  0  0  0  0  0  0  0  0
   18.9311  -16.8507    2.9970 N   0  0  0  0  0  0  0  0  0  0  0  0
   20.0615  -16.9499    5.4386 O   0  0  0  0  0  0  0  0  0  0  0  0
   25.1976  -13.4602    4.5493 O   0  0  0  0  0  0  0  0  0  0  0  0
   18.6005  -16.1510    3.6507 H   0  0  0  0  0  0  0  0  0  0  0  0
   18.2550  -17.5299    2.6706 H   0  0  0  0  0  0  0  0  0  0  0  0
   20.5995  -16.9657    6.2548 H   0  0  0  0  0  0  0  0  0  0  0  0
   26.0296  -13.8797    4.2754 H   0  0  0  0  0  0  0  0  0  0  0  0
  1  2  2  0  0  0  0
  1  6  1  0  0  0  0
  2  3  1  0  0  0  0
  3  4  2  0  0  0  0
  3 12  1  0  0  0  0
  4  5  1  0  0  0  0
  5  6  2  0  0  0  0
  7  8  1  6  0  0  0
  7 11  1  0  0  0  0
  7  6  1  0  0  0  0
  8  9  2  0  0  0  0
  8 10  1  0  0  0  0
 10 13  1  0  0  0  0
 10 14  1  0  0  0  0
 11 15  1  0  0  0  0
 12 16  1  0  0  0  0
M  END
>  <CHROM.0>
-48.18467230,-57.94508664,-53.19648950,-50.07202346,-56.77818568,60.98927930
-58.18780655,-49.50509108,-167.35382100,-58.10824370

>  <CHROM.1>
10.89235890,62.47217705,-55.50048824,-101.92260168,30.35730609,22.04415015
-15.94689052,4.09398457,-0.50637714,-0.34477849,-2.21873635

>  <Name>
P76310038

>  <RI>
0

>  <Rbt.Current_Directory>
/home/fstefaniak/projects/zuza/docking/adenine/1Y26

>  <Rbt.Executable>
rbdock ($Id: //depot/dev/client3/rdock/2013.1/src/exe/rbdock.cxx#4 $)

>  <Rbt.Library>
libRbt.so (2013.1, Build901 2013/11/27)

>  <Rbt.Parameter_File>
/home/fstefaniak/progs/rDock//data/scripts/dock_solv.prm

>  <Rbt.Receptor>
1y26.prm

>  <SCORE>
-54.9495

>  <SCORE.INTER>
-35.0024

>  <SCORE.INTER.CONST>
1

>  <SCORE.INTER.POLAR>
-4.41178

>  <SCORE.INTER.ROT>
3

>  <SCORE.INTER.SOLV>
13.2049

>  <SCORE.INTER.VDW>
-18.6307

>  <SCORE.INTER.norm>
-2.91687

>  <SCORE.INTRA>
-1.59831

>  <SCORE.INTRA.DIHEDRAL>
-3.07784

>  <SCORE.INTRA.DIHEDRAL.0>
5.64596

>  <SCORE.INTRA.POLAR>
0

>  <SCORE.INTRA.POLAR.0>
0

>  <SCORE.INTRA.REPUL>
0

>  <SCORE.INTRA.REPUL.0>
0

>  <SCORE.INTRA.SOLV>
0.0829068

>  <SCORE.INTRA.SOLV.lig_0>
-18.9717

>  <SCORE.INTRA.VDW>
-0.10084

>  <SCORE.INTRA.VDW.0>
-0.658995

>  <SCORE.INTRA.norm>
-0.133192

>  <SCORE.RESTR>
0

>  <SCORE.RESTR.CAVITY>
0

>  <SCORE.RESTR.norm>
0

>  <SCORE.SYSTEM>
-18.3487

>  <SCORE.SYSTEM.CONST>
0

>  <SCORE.SYSTEM.DIHEDRAL>
4.73838

>  <SCORE.SYSTEM.POLAR>
-2.7229

>  <SCORE.SYSTEM.SOLV>
0.594239

>  <SCORE.SYSTEM.VDW>
-4.9337

>  <SCORE.SYSTEM.norm>
-1.52906

>  <SCORE.heavy>
12

>  <SCORE.norm>
-4.57912

$$$$
P76326276
 OpenBabel12072022103D
libRbt.so/2013.1/901 2013/11/27
 16 17  0  0  0  0  0  0  0  0999 V2000
   18.5864  -18.5191    3.3739 C   0  0  0  0  0  0  0  0  0  0  0  0
   18.5331  -19.1674    4.7501 C   0  0  0  0  0  0  0  0  0  0  0  0
   19.7661  -18.7953    5.5584 C   0  0  0  0  0  0  0  0  0  0  0  0
   19.8975  -17.3772    5.6801 O   0  0  0  0  0  0  0  0  0  0  0  0
   20.0071  -16.7041    4.4214 C   0  0  2  0  0  0  0  0  0  0  0  0
   18.8232  -17.0185    3.5039 C   0  0  0  0  0  0  0  0  0  0  0  0
   21.3795  -16.9039    3.7441 C   0  0  0  0  0  0  0  0  0  0  0  0
   21.5362  -17.4685    2.6660 O   0  0  0  0  0  0  0  0  0  0  0  0
   22.4056  -16.3149    4.4632 N   0  0  0  0  0  0  0  0  0  0  0  0
   23.7698  -16.3653    4.0394 C   0  0  2  0  0  0  0  0  0  0  0  0
   24.8746  -16.5301    5.0464 C   0  0  0  0  0  0  0  0  0  0  0  0
   24.7188  -15.2250    4.3253 C   0  0  2  0  0  0  0  0  0  0  0  0
   24.2485  -14.0459    5.0616 N   0  0  0  0  0  0  0  0  0  0  0  0
   22.1845  -15.9891    5.4000 H   0  0  0  0  0  0  0  0  0  0  0  0
   25.0404  -13.4501    5.3014 H   0  0  0  0  0  0  0  0  0  0  0  0
   23.8741  -14.3486    5.9631 H   0  0  0  0  0  0  0  0  0  0  0  0
  1  2  1  0  0  0  0
  1  6  1  0  0  0  0
  2  3  1  0  0  0  0
  3  4  1  0  0  0  0
  4  5  1  0  0  0  0
  5  6  1  0  0  0  0
  5  7  1  6  0  0  0
  7  8  2  0  0  0  0
  7  9  1  0  0  0  0
  9 14  1  0  0  0  0
 10 11  1  0  0  0  0
 10  9  1  1  0  0  0
 10 12  1  0  0  0  0
 11 12  1  0  0  0  0
 12 13  1  1  0  0  0
 13 15  1  0  0  0  0
 13 16  1  0  0  0  0
M  END
>  <CHROM.0>
61.17855778,-175.81074163,-54.89009827,-52.41276577,-176.04780809,-58.41533842
-60.20279593,-176.65792641,-164.20065651,160.45209552

>  <CHROM.1>
117.01400997,-142.04634089,170.67254329,21.42579524,-16.94286429,4.38035771
-3.13630756,0.49668345,1.66876222

>  <Name>
P76326276

>  <RI>
0

>  <Rbt.Current_Directory>
/home/fstefaniak/projects/zuza/docking/adenine/1Y26

>  <Rbt.Executable>
rbdock ($Id: //depot/dev/client3/rdock/2013.1/src/exe/rbdock.cxx#4 $)

>  <Rbt.Library>
libRbt.so (2013.1, Build901 2013/11/27)

>  <Rbt.Parameter_File>
/home/fstefaniak/progs/rDock//data/scripts/dock_solv.prm

>  <Rbt.Receptor>
1y26.prm

>  <SCORE>
-52.9769

>  <SCORE.INTER>
-31.3842

>  <SCORE.INTER.CONST>
1

>  <SCORE.INTER.POLAR>
-3.43751

>  <SCORE.INTER.ROT>
3

>  <SCORE.INTER.SOLV>
13.5942

>  <SCORE.INTER.VDW>
-19.5958

>  <SCORE.INTER.norm>
-2.41417

>  <SCORE.INTRA>
0.219964

>  <SCORE.INTRA.DIHEDRAL>
0.0332248

>  <SCORE.INTRA.DIHEDRAL.0>
3.49205

>  <SCORE.INTRA.POLAR>
0.0197562

>  <SCORE.INTRA.POLAR.0>
-0.0197562

>  <SCORE.INTRA.REPUL>
0

>  <SCORE.INTRA.REPUL.0>
0

>  <SCORE.INTRA.SOLV>
-0.706625

>  <SCORE.INTRA.SOLV.lig_0>
-13.8206

>  <SCORE.INTRA.VDW>
0.489494

>  <SCORE.INTRA.VDW.0>
-1.62774

>  <SCORE.INTRA.norm>
0.0169203

>  <SCORE.RESTR>
0

>  <SCORE.RESTR.CAVITY>
0

>  <SCORE.RESTR.norm>
0

>  <SCORE.SYSTEM>
-21.8127

>  <SCORE.SYSTEM.CONST>
0

>  <SCORE.SYSTEM.DIHEDRAL>
5.36975

>  <SCORE.SYSTEM.POLAR>
-3.24291

>  <SCORE.SYSTEM.SOLV>
0.204955

>  <SCORE.SYSTEM.VDW>
-5.59033

>  <SCORE.SYSTEM.norm>
-1.6779

>  <SCORE.heavy>
13

>  <SCORE.norm>
-4.07515

$$$$
P76326276
 OpenBabel12072022103D
libRbt.so/2013.1/901 2013/11/27
 16 17  0  0  0  0  0  0  0  0999 V2000
   18.5797  -18.5189    3.3660 C   0  0  0  0  0  0  0  0  0  0  0  0
   18.4957  -19.1327    4.7564 C   0  0  0  0  0  0  0  0  0  0  0  0
   19.7245  -18.7640    5.5727 C   0  0  0  0  0  0  0  0  0  0  0  0
   19.8808  -17.3460    5.6623 O   0  0  0  0  0  0  0  0  0  0  0  0
   20.0200  -16.7056    4.3896 C   0  0  2  0  0  0  0  0  0  0  0  0
   18.8428  -17.0202    3.4635 C   0  0  0  0  0  0  0  0  0  0  0  0
   21.3974  -16.9469    3.7365 C   0  0  0  0  0  0  0  0  0  0  0  0
   21.5550  -17.5052    2.6552 O   0  0  0  0  0  0  0  0  0  0  0  0
   22.4295  -16.4026    4.4817 N   0  0  0  0  0  0  0  0  0  0  0  0
   23.7990  -16.4970    4.0835 C   0  0  2  0  0  0  0  0  0  0  0  0
   24.8851  -16.6263    5.1156 C   0  0  0  0  0  0  0  0  0  0  0  0
   24.7626  -15.3586    4.3249 C   0  0  2  0  0  0  0  0  0  0  0  0
   24.3008  -14.1350    4.9908 N   0  0  0  0  0  0  0  0  0  0  0  0
   22.2018  -16.0791    5.4177 H   0  0  0  0  0  0  0  0  0  0  0  0
   25.0923  -13.5155    5.1621 H   0  0  0  0  0  0  0  0  0  0  0  0
   23.9589  -14.3768    5.9231 H   0  0  0  0  0  0  0  0  0  0  0  0
  1  2  1  0  0  0  0
  1  6  1  0  0  0  0
  2  3  1  0  0  0  0
  3  4  1  0  0  0  0
  4  5  1  0  0  0  0
  5  6  1  0  0  0  0
  5  7  1  6  0  0  0
  7  8  2  0  0  0  0
  7  9  1  0  0  0  0
  9 14  1  0  0  0  0
 10 11  1  0  0  0  0
 10  9  1  1  0  0  0
 10 12  1  0  0  0  0
 11 12  1  0  0  0  0
 12 13  1  1  0  0  0
 13 15  1  0  0  0  0
 13 16  1  0  0  0  0
M  END
>  <CHROM.0>
-50.36867746,-173.67497568,-63.85865533,-51.45392160,-56.06834074,-175.67767945
-168.98179282,-51.52499441,-167.68061699,160.13822815

>  <CHROM.1>
119.26430304,-145.84536418,174.02899475,21.43562804,-16.98184420,4.37650970
3.13732097,0.47409225,1.69762448

>  <Name>
P76326276

>  <RI>
0

>  <Rbt.Current_Directory>
/home/fstefaniak/projects/zuza/docking/adenine/1Y26

>  <Rbt.Executable>
rbdock ($Id: //depot/dev/client3/rdock/2013.1/src/exe/rbdock.cxx#4 $)

>  <Rbt.Library>
libRbt.so (2013.1, Build901 2013/11/27)

>  <Rbt.Parameter_File>
/home/fstefaniak/progs/rDock//data/scripts/dock_solv.prm

>  <Rbt.Receptor>
1y26.prm

>  <SCORE>
-52.4758

>  <SCORE.INTER>
-31.4619

>  <SCORE.INTER.CONST>
1

>  <SCORE.INTER.POLAR>
-3.39501

>  <SCORE.INTER.ROT>
3

>  <SCORE.INTER.SOLV>
13.6334

>  <SCORE.INTER.VDW>
-19.8024

>  <SCORE.INTER.norm>
-2.42015

>  <SCORE.INTRA>
0.218837

>  <SCORE.INTRA.DIHEDRAL>
-0.0110021

>  <SCORE.INTRA.DIHEDRAL.0>
3.49205

>  <SCORE.INTRA.POLAR>
0.0197562

>  <SCORE.INTRA.POLAR.0>
-0.0197562

>  <SCORE.INTRA.REPUL>
0

>  <SCORE.INTRA.REPUL.0>
0

>  <SCORE.INTRA.SOLV>
-0.705216

>  <SCORE.INTRA.SOLV.lig_0>
-13.8206

>  <SCORE.INTRA.VDW>
0.509776

>  <SCORE.INTRA.VDW.0>
-1.62774

>  <SCORE.INTRA.norm>
0.0168336

>  <SCORE.RESTR>
0

>  <SCORE.RESTR.CAVITY>
0

>  <SCORE.RESTR.norm>
0

>  <SCORE.SYSTEM>
-21.2327

>  <SCORE.SYSTEM.CONST>
0

>  <SCORE.SYSTEM.DIHEDRAL>
6.48099

>  <SCORE.SYSTEM.POLAR>
-3.45836

>  <SCORE.SYSTEM.SOLV>
0.406323

>  <SCORE.SYSTEM.VDW>
-4.92305

>  <SCORE.SYSTEM.norm>
-1.63329

>  <SCORE.heavy>
13

>  <SCORE.norm>
-4.0366

$$$$
P76326276
 OpenBabel12072022103D
libRbt.so/2013.1/901 2013/11/27
 16 17  0  0  0  0  0  0  0  0999 V2000
   18.6181  -18.5788    3.3879 C   0  0  0  0  0  0  0  0  0  0  0  0
   18.5528  -19.1735    4.7876 C   0  0  0  0  0  0  0  0  0  0  0  0
   19.7681  -18.7523    5.5988 C   0  0  0  0  0  0  0  0  0  0  0  0
   19.8780  -17.3288    5.6665 O   0  0  0  0  0  0  0  0  0  0  0  0
   19.9975  -16.7039    4.3841 C   0  0  2  0  0  0  0  0  0  0  0  0
   18.8321  -17.0710    3.4624 C   0  0  0  0  0  0  0  0  0  0  0  0
   21.3827  -16.9103    3.7355 C   0  0  0  0  0  0  0  0  0  0  0  0
   21.5583  -17.4685    2.6569 O   0  0  0  0  0  0  0  0  0  0  0  0
   22.3976  -16.3349    4.4810 N   0  0  0  0  0  0  0  0  0  0  0  0
   23.7702  -16.3935    4.0866 C   0  0  2  0  0  0  0  0  0  0  0  0
   24.8547  -16.5248    5.1203 C   0  0  0  0  0  0  0  0  0  0  0  0
   24.7103  -15.2423    4.3576 C   0  0  2  0  0  0  0  0  0  0  0  0
   24.2221  -14.0432    5.0488 N   0  0  0  0  0  0  0  0  0  0  0  0
   22.1587  -16.0139    5.4150 H   0  0  0  0  0  0  0  0  0  0  0  0
   25.0023  -13.4178    5.2480 H   0  0  0  0  0  0  0  0  0  0  0  0
   23.8702  -14.3143    5.9692 H   0  0  0  0  0  0  0  0  0  0  0  0
  1  2  1  0  0  0  0
  1  6  1  0  0  0  0
  2  3  1  0  0  0  0
  3  4  1  0  0  0  0
  4  5  1  0  0  0  0
  5  6  1  0  0  0  0
  5  7  1  6  0  0  0
  7  8  2  0  0  0  0
  7  9  1  0  0  0  0
  9 14  1  0  0  0  0
 10 11  1  0  0  0  0
 10  9  1  1  0  0  0
 10 12  1  0  0  0  0
 11 12  1  0  0  0  0
 12 13  1  1  0  0  0
 13 15  1  0  0  0  0
 13 16  1  0  0  0  0
M  END
>  <CHROM.0>
-49.65822950,-173.92790997,58.48066423,-53.05598602,-56.96068465,-59.55151571
77.94794815,-51.17685295,-167.33227316,160.30772032

>  <CHROM.1>
119.98786192,-144.25832055,173.30219007,21.42520483,-16.94866895,4.39045814
-3.12843829,0.49904147,1.66111727

>  <Name>
P76326276

>  <RI>
0

>  <Rbt.Current_Directory>
/home/fstefaniak/projects/zuza/docking/adenine/1Y26

>  <Rbt.Executable>
rbdock ($Id: //depot/dev/client3/rdock/2013.1/src/exe/rbdock.cxx#4 $)

>  <Rbt.Library>
libRbt.so (2013.1, Build901 2013/11/27)

>  <Rbt.Parameter_File>
/home/fstefaniak/progs/rDock//data/scripts/dock_solv.prm

>  <Rbt.Receptor>
1y26.prm

>  <SCORE>
-52.2966

>  <SCORE.INTER>
-31.4085

>  <SCORE.INTER.CONST>
1

>  <SCORE.INTER.POLAR>
-3.38854

>  <SCORE.INTER.ROT>
3

>  <SCORE.INTER.SOLV>
13.5691

>  <SCORE.INTER.VDW>
-19.7669

>  <SCORE.INTER.norm>
-2.41603

>  <SCORE.INTRA>
0.208382

>  <SCORE.INTRA.DIHEDRAL>
-0.0288737

>  <SCORE.INTRA.DIHEDRAL.0>
3.49205

>  <SCORE.INTRA.POLAR>
0.0197562

>  <SCORE.INTRA.POLAR.0>
-0.0197562

>  <SCORE.INTRA.REPUL>
0

>  <SCORE.INTRA.REPUL.0>
0

>  <SCORE.INTRA.SOLV>
-0.701283

>  <SCORE.INTRA.SOLV.lig_0>
-13.8206

>  <SCORE.INTRA.VDW>
0.506289

>  <SCORE.INTRA.VDW.0>
-1.62774

>  <SCORE.INTRA.norm>
0.0160294

>  <SCORE.RESTR>
0

>  <SCORE.RESTR.CAVITY>
0

>  <SCORE.RESTR.norm>
0

>  <SCORE.SYSTEM>
-21.0965

>  <SCORE.SYSTEM.CONST>
0

>  <SCORE.SYSTEM.DIHEDRAL>
7.16594

>  <SCORE.SYSTEM.POLAR>
-3.80348

>  <SCORE.SYSTEM.SOLV>
0.426841

>  <SCORE.SYSTEM.VDW>
-3.91701

>  <SCORE.SYSTEM.norm>
-1.62281

>  <SCORE.heavy>
13

>  <SCORE.norm>
-4.02282

$$$$
P77621951
 OpenBabel12072022103D
libRbt.so/2013.1/901 2013/11/27
 12 11  0  0  0  0  0  0  0  0999 V2000
   22.2398  -15.5929    4.1629 C   0  0  0  0  0  0  0  0  0  0  0  0
   21.5460  -16.9481    4.1445 C   0  0  1  0  0  0  0  0  0  0  0  0
   20.0146  -16.7831    4.1820 C   0  0  0  0  0  0  0  0  0  0  0  0
   19.3073  -18.0400    3.9010 N   0  0  0  0  0  0  0  0  0  0  0  0
   18.8573  -18.8146    5.0432 C   0  0  0  0  0  0  0  0  0  0  0  0
   19.0251  -18.4996    2.6337 C   0  0  0  0  0  0  0  0  0  0  0  0
   18.3407  -19.4857    2.3829 O   0  0  0  0  0  0  0  0  0  0  0  0
   19.5567  -17.7786    1.6159 N   0  0  0  0  0  0  0  0  0  0  0  0
   21.9387  -17.6305    2.9457 O   0  0  0  0  0  0  0  0  0  0  0  0
   20.5693  -17.6792    1.6607 H   0  0  0  0  0  0  0  0  0  0  0  0
   19.2206  -18.0803    0.7121 H   0  0  0  0  0  0  0  0  0  0  0  0
   21.9499  -18.5823    3.1554 H   0  0  0  0  0  0  0  0  0  0  0  0
  2  1  1  6  0  0  0
  2  3  1  0  0  0  0
  2  9  1  0  0  0  0
  3  4  1  0  0  0  0
  4  5  1  0  0  0  0
  4  6  1  0  0  0  0
  6  7  2  0  0  0  0
  6  8  1  0  0  0  0
  8 10  1  0  0  0  0
  8 11  1  0  0  0  0
  9 12  1  0  0  0  0
M  END
>  <CHROM.0>
-45.08941346,-178.76110754,-57.89391737,-50.72364922,-57.24117459,-59.22184937
-64.28083997,-50.33628524,-166.56254005,161.29974093

>  <CHROM.1>
168.73415952,147.99888380,96.71457072,56.52691439,20.11673588,-17.74998794
3.41067078,0.35718720,0.62233405,1.39385574

>  <Name>
P77621951

>  <RI>
0

>  <Rbt.Current_Directory>
/home/fstefaniak/projects/zuza/docking/adenine/1Y26

>  <Rbt.Executable>
rbdock ($Id: //depot/dev/client3/rdock/2013.1/src/exe/rbdock.cxx#4 $)

>  <Rbt.Library>
libRbt.so (2013.1, Build901 2013/11/27)

>  <Rbt.Parameter_File>
/home/fstefaniak/progs/rDock//data/scripts/dock_solv.prm

>  <Rbt.Receptor>
1y26.prm

>  <SCORE>
-45.4936

>  <SCORE.INTER>
-25.3586

>  <SCORE.INTER.CONST>
1

>  <SCORE.INTER.POLAR>
-3.23873

>  <SCORE.INTER.ROT>
3

>  <SCORE.INTER.SOLV>
10.759

>  <SCORE.INTER.VDW>
-15.2963

>  <SCORE.INTER.norm>
-2.81762

>  <SCORE.INTRA>
2.21224

>  <SCORE.INTRA.DIHEDRAL>
3.90563

>  <SCORE.INTRA.DIHEDRAL.0>
2.24581

>  <SCORE.INTRA.POLAR>
0.270151

>  <SCORE.INTRA.POLAR.0>
-1

>  <SCORE.INTRA.REPUL>
0

>  <SCORE.INTRA.REPUL.0>
0

>  <SCORE.INTRA.SOLV>
0.35145

>  <SCORE.INTRA.SOLV.lig_0>
-13.9672

>  <SCORE.INTRA.VDW>
-0.834814

>  <SCORE.INTRA.VDW.0>
-0.500179

>  <SCORE.INTRA.norm>
0.245805

>  <SCORE.RESTR>
0

>  <SCORE.RESTR.CAVITY>
0

>  <SCORE.RESTR.norm>
0

>  <SCORE.SYSTEM>
-22.3472

>  <SCORE.SYSTEM.CONST>
0

>  <SCORE.SYSTEM.DIHEDRAL>
6.34707

>  <SCORE.SYSTEM.POLAR>
-3.56013

>  <SCORE.SYSTEM.SOLV>
0.602146

>  <SCORE.SYSTEM.VDW>
-5.34745

>  <SCORE.SYSTEM.norm>
-2.48303

>  <SCORE.heavy>
9

>  <SCORE.norm>
-5.05484

$$$$
P77621951
 OpenBabel12072022103D
libRbt.so/2013.1/901 2013/11/27
 12 11  0  0  0  0  0  0  0  0999 V2000
   19.7231  -17.8555    3.3007 C   0  0  0  0  0  0  0  0  0  0  0  0
   20.7376  -17.1914    4.2216 C   0  0  1  0  0  0  0  0  0  0  0  0
   21.3235  -15.9232    3.5720 C   0  0  0  0  0  0  0  0  0  0  0  0
   22.4950  -15.4112    4.2961 N   0  0  0  0  0  0  0  0  0  0  0  0
   22.3186  -14.1877    5.0571 C   0  0  0  0  0  0  0  0  0  0  0  0
   23.7223  -16.0358    4.3173 C   0  0  0  0  0  0  0  0  0  0  0  0
   24.6752  -15.6837    5.0043 O   0  0  0  0  0  0  0  0  0  0  0  0
   23.8442  -17.1183    3.5102 N   0  0  0  0  0  0  0  0  0  0  0  0
   20.0705  -16.8546    5.4458 O   0  0  0  0  0  0  0  0  0  0  0  0
   24.6219  -17.0634    2.8549 H   0  0  0  0  0  0  0  0  0  0  0  0
   23.8092  -17.9884    4.0227 H   0  0  0  0  0  0  0  0  0  0  0  0
   20.7312  -16.4190    6.0147 H   0  0  0  0  0  0  0  0  0  0  0  0
  2  1  1  6  0  0  0
  2  3  1  0  0  0  0
  2  9  1  0  0  0  0
  3  4  1  0  0  0  0
  4  5  1  0  0  0  0
  4  6  1  0  0  0  0
  6  7  2  0  0  0  0
  6  8  1  0  0  0  0
  8 10  1  0  0  0  0
  8 11  1  0  0  0  0
  9 12  1  0  0  0  0
M  END
>  <CHROM.0>
-50.65962336,-56.55978687,-49.22819228,-51.08675073,-57.22350486,-61.01966181
-58.10535416,-48.92611865,-166.39490364,162.35498578

>  <CHROM.1>
-168.16689600,-179.11360329,-107.87556289,124.76998905,22.09990785,-16.26514894
4.32882657,-2.76945952,0.12733623,0.55764491

>  <Name>
P77621951

>  <RI>
0

>  <Rbt.Current_Directory>
/home/fstefaniak/projects/zuza/docking/adenine/1Y26

>  <Rbt.Executable>
rbdock ($Id: //depot/dev/client3/rdock/2013.1/src/exe/rbdock.cxx#4 $)

>  <Rbt.Library>
libRbt.so (2013.1, Build901 2013/11/27)

>  <Rbt.Parameter_File>
/home/fstefaniak/progs/rDock//data/scripts/dock_solv.prm

>  <Rbt.Receptor>
1y26.prm

>  <SCORE>
-44.3377

>  <SCORE.INTER>
-24.617

>  <SCORE.INTER.CONST>
1

>  <SCORE.INTER.POLAR>
-2.99931

>  <SCORE.INTER.ROT>
3

>  <SCORE.INTER.SOLV>
10.4356

>  <SCORE.INTER.VDW>
-15.4922

>  <SCORE.INTER.norm>
-2.73522

>  <SCORE.INTRA>
2.30293

>  <SCORE.INTRA.DIHEDRAL>
-0.0935791

>  <SCORE.INTRA.DIHEDRAL.0>
2.24581

>  <SCORE.INTRA.POLAR>
1

>  <SCORE.INTRA.POLAR.0>
-1

>  <SCORE.INTRA.REPUL>
0

>  <SCORE.INTRA.REPUL.0>
0

>  <SCORE.INTRA.SOLV>
-0.849087

>  <SCORE.INTRA.SOLV.lig_0>
-13.9672

>  <SCORE.INTRA.VDW>
-0.625735

>  <SCORE.INTRA.VDW.0>
-0.500179

>  <SCORE.INTRA.norm>
0.255881

>  <SCORE.RESTR>
0

>  <SCORE.RESTR.CAVITY>
0

>  <SCORE.RESTR.norm>
0

>  <SCORE.SYSTEM>
-22.0237

>  <SCORE.SYSTEM.CONST>
0

>  <SCORE.SYSTEM.DIHEDRAL>
6.19353

>  <SCORE.SYSTEM.POLAR>
-3.51529

>  <SCORE.SYSTEM.SOLV>
0.680935

>  <SCORE.SYSTEM.VDW>
-5.25631

>  <SCORE.SYSTEM.norm>
-2.44708

>  <SCORE.heavy>
9

>  <SCORE.norm>
-4.92641

$$$$
P77621951
 OpenBabel12072022103D
libRbt.so/2013.1/901 2013/11/27
 12 11  0  0  0  0  0  0  0  0999 V2000
   21.9710  -15.3518    4.0585 C   0  0  0  0  0  0  0  0  0  0  0  0
   20.6590  -16.1244    4.0667 C   0  0  1  0  0  0  0  0  0  0  0  0
   20.8599  -17.5563    3.5347 C   0  0  0  0  0  0  0  0  0  0  0  0
   19.6042  -18.3177    3.4834 N   0  0  0  0  0  0  0  0  0  0  0  0
   19.0689  -18.7950    4.7455 C   0  0  0  0  0  0  0  0  0  0  0  0
   18.9030  -18.5717    2.3256 C   0  0  0  0  0  0  0  0  0  0  0  0
   17.8005  -19.1067    2.2780 O   0  0  0  0  0  0  0  0  0  0  0  0
   19.5069  -18.1819    1.1760 N   0  0  0  0  0  0  0  0  0  0  0  0
   20.1766  -16.1637    5.4168 O   0  0  0  0  0  0  0  0  0  0  0  0
   20.3017  -18.7591    0.9070 H   0  0  0  0  0  0  0  0  0  0  0  0
   18.8474  -18.0287    0.4259 H   0  0  0  0  0  0  0  0  0  0  0  0
   20.8937  -16.5384    5.9603 H   0  0  0  0  0  0  0  0  0  0  0  0
  2  1  1  1  0  0  0
  2  3  1  0  0  0  0
  2  9  1  0  0  0  0
  3  4  1  0  0  0  0
  4  5  1  0  0  0  0
  4  6  1  0  0  0  0
  6  7  2  0  0  0  0
  6  8  1  0  0  0  0
  8 10  1  0  0  0  0
  8 11  1  0  0  0  0
  9 12  1  0  0  0  0
M  END
>  <CHROM.0>
-50.20149554,-58.75242808,59.21236126,-54.53760799,-55.42457020,-52.19546604
76.78083156,-51.66686676,-166.90378818,160.71688265

>  <CHROM.1>
-177.97685648,-54.82036021,-74.72874266,72.46778678,19.83600716,-17.56877865
3.46960621,-0.66106183,-0.78838979,-1.71839068

>  <Name>
P77621951

>  <RI>
0

>  <Rbt.Current_Directory>
/home/fstefaniak/projects/zuza/docking/adenine/1Y26

>  <Rbt.Executable>
rbdock ($Id: //depot/dev/client3/rdock/2013.1/src/exe/rbdock.cxx#4 $)

>  <Rbt.Library>
libRbt.so (2013.1, Build901 2013/11/27)

>  <Rbt.Parameter_File>
/home/fstefaniak/progs/rDock//data/scripts/dock_solv.prm

>  <Rbt.Receptor>
1y26.prm

>  <SCORE>
-44.1598

>  <SCORE.INTER>
-27.0007

>  <SCORE.INTER.CONST>
1

>  <SCORE.INTER.POLAR>
-3.75618

>  <SCORE.INTER.ROT>
3

>  <SCORE.INTER.SOLV>
12.6584

>  <SCORE.INTER.VDW>
-15.2993

>  <SCORE.INTER.norm>
-3.00008

>  <SCORE.INTRA>
3.64717

>  <SCORE.INTRA.DIHEDRAL>
-0.452706

>  <SCORE.INTRA.DIHEDRAL.0>
2.24581

>  <SCORE.INTRA.POLAR>
1

>  <SCORE.INTRA.POLAR.0>
-1

>  <SCORE.INTRA.REPUL>
0

>  <SCORE.INTRA.REPUL.0>
0

>  <SCORE.INTRA.SOLV>
-1.11083

>  <SCORE.INTRA.SOLV.lig_0>
-13.9672

>  <SCORE.INTRA.VDW>
1.02894

>  <SCORE.INTRA.VDW.0>
-0.500179

>  <SCORE.INTRA.norm>
0.405241

>  <SCORE.RESTR>
0

>  <SCORE.RESTR.CAVITY>
0

>  <SCORE.RESTR.norm>
0

>  <SCORE.SYSTEM>
-20.8062

>  <SCORE.SYSTEM.CONST>
0

>  <SCORE.SYSTEM.DIHEDRAL>
6.96231

>  <SCORE.SYSTEM.POLAR>
-3.76518

>  <SCORE.SYSTEM.SOLV>
0.497488

>  <SCORE.SYSTEM.VDW>
-3.80682

>  <SCORE.SYSTEM.norm>
-2.31181

>  <SCORE.heavy>
9

>  <SCORE.norm>
-4.90664

$$$$
P77621952
 OpenBabel12072022103D
libRbt.so/2013.1/901 2013/11/27
 12 11  0  0  0  0  0  0  0  0999 V2000
   21.8116  -16.2596    3.8996 C   0  0  0  0  0  0  0  0  0  0  0  0
   20.3936  -16.6591    4.2800 C   0  0  2  0  0  0  0  0  0  0  0  0
   20.2962  -18.1755    4.5286 C   0  0  0  0  0  0  0  0  0  0  0  0
   19.2979  -18.5277    5.5460 N   0  0  0  0  0  0  0  0  0  0  0  0
   19.7034  -18.3872    6.9393 C   0  0  0  0  0  0  0  0  0  0  0  0
   18.0797  -18.9895    5.1111 C   0  0  0  0  0  0  0  0  0  0  0  0
   17.8067  -19.2144    3.9369 O   0  0  0  0  0  0  0  0  0  0  0  0
   17.1438  -19.2119    6.0629 N   0  0  0  0  0  0  0  0  0  0  0  0
   19.5274  -16.2810    3.2065 O   0  0  0  0  0  0  0  0  0  0  0  0
   17.2100  -20.0871    6.5599 H   0  0  0  0  0  0  0  0  0  0  0  0
   17.0273  -18.4130    6.6746 H   0  0  0  0  0  0  0  0  0  0  0  0
   18.6760  -16.0636    3.6277 H   0  0  0  0  0  0  0  0  0  0  0  0
  2  3  1  0  0  0  0
  2  9  1  0  0  0  0
  2  1  1  6  0  0  0
  3  4  1  0  0  0  0
  4  5  1  0  0  0  0
  4  6  1  0  0  0  0
  6  7  2  0  0  0  0
  6  8  1  0  0  0  0
  8 10  1  0  0  0  0
  8 11  1  0  0  0  0
  9 12  1  0  0  0  0
M  END
>  <CHROM.0>
-48.05896862,-64.92621055,-53.92983223,-54.95784731,-175.84015207,-58.17370979
-52.55851238,-49.14735971,-169.86075714,160.14579988

>  <CHROM.1>
148.13816667,-148.50332082,-80.59741550,-81.37228929,19.31416378,-17.95010781
4.82348244,-0.67904077,0.51230161,2.00203151

>  <Name>
P77621952

>  <RI>
0

>  <Rbt.Current_Directory>
/home/fstefaniak/projects/zuza/docking/adenine/1Y26

>  <Rbt.Executable>
rbdock ($Id: //depot/dev/client3/rdock/2013.1/src/exe/rbdock.cxx#4 $)

>  <Rbt.Library>
libRbt.so (2013.1, Build901 2013/11/27)

>  <Rbt.Parameter_File>
/home/fstefaniak/progs/rDock//data/scripts/dock_solv.prm

>  <Rbt.Receptor>
1y26.prm

>  <SCORE>
-57.0849

>  <SCORE.INTER>
-38.0934

>  <SCORE.INTER.CONST>
1

>  <SCORE.INTER.POLAR>
-5.96469

>  <SCORE.INTER.ROT>
3

>  <SCORE.INTER.SOLV>
12.8044

>  <SCORE.INTER.VDW>
-15.3815

>  <SCORE.INTER.norm>
-4.2326

>  <SCORE.INTRA>
2.94458

>  <SCORE.INTRA.DIHEDRAL>
6.4306

>  <SCORE.INTRA.DIHEDRAL.0>
2.0697

>  <SCORE.INTRA.POLAR>
0

>  <SCORE.INTRA.POLAR.0>
0

>  <SCORE.INTRA.REPUL>
0

>  <SCORE.INTRA.REPUL.0>
0

>  <SCORE.INTRA.SOLV>
-0.203297

>  <SCORE.INTRA.SOLV.lig_0>
-14.8279

>  <SCORE.INTRA.VDW>
-0.169076

>  <SCORE.INTRA.VDW.0>
-0.732496

>  <SCORE.INTRA.norm>
0.327175

>  <SCORE.RESTR>
0

>  <SCORE.RESTR.CAVITY>
0

>  <SCORE.RESTR.norm>
0

>  <SCORE.SYSTEM>
-21.936

>  <SCORE.SYSTEM.CONST>
0

>  <SCORE.SYSTEM.DIHEDRAL>
6.14929

>  <SCORE.SYSTEM.POLAR>
-3.48027

>  <SCORE.SYSTEM.SOLV>
0.516237

>  <SCORE.SYSTEM.VDW>
-5.24496

>  <SCORE.SYSTEM.norm>
-2.43734

>  <SCORE.heavy>
9

>  <SCORE.norm>
-6.34277

$$$$
P77621952
 OpenBabel12072022103D
libRbt.so/2013.1/901 2013/11/27
 12 11  0  0  0  0  0  0  0  0999 V2000
   21.7619  -16.2510    3.8673 C   0  0  0  0  0  0  0  0  0  0  0  0
   20.3620  -16.6829    4.2780 C   0  0  2  0  0  0  0  0  0  0  0  0
   20.3196  -18.1899    4.5909 C   0  0  0  0  0  0  0  0  0  0  0  0
   19.3058  -18.5401    5.5933 N   0  0  0  0  0  0  0  0  0  0  0  0
   19.6947  -18.4116    6.9925 C   0  0  0  0  0  0  0  0  0  0  0  0
   18.0894  -18.9891    5.1402 C   0  0  0  0  0  0  0  0  0  0  0  0
   17.8295  -19.2045    3.9613 O   0  0  0  0  0  0  0  0  0  0  0  0
   17.1397  -19.2097    6.0788 N   0  0  0  0  0  0  0  0  0  0  0  0
   19.4742  -16.3807    3.1981 O   0  0  0  0  0  0  0  0  0  0  0  0
   17.2146  -20.0714    6.5975 H   0  0  0  0  0  0  0  0  0  0  0  0
   16.9941  -18.3994    6.6689 H   0  0  0  0  0  0  0  0  0  0  0  0
   18.6566  -16.0591    3.6198 H   0  0  0  0  0  0  0  0  0  0  0  0
  2  3  1  0  0  0  0
  2  9  1  0  0  0  0
  2  1  1  6  0  0  0
  3  4  1  0  0  0  0
  4  5  1  0  0  0  0
  4  6  1  0  0  0  0
  6  7  2  0  0  0  0
  6  8  1  0  0  0  0
  8 10  1  0  0  0  0
  8 11  1  0  0  0  0
  9 12  1  0  0  0  0
M  END
>  <CHROM.0>
-52.22378819,-63.06902169,-54.10256386,-49.83133933,-171.92596521,-175.33992956
-54.02985395,-51.62853126,-166.92241469,161.04427383

>  <CHROM.1>
150.42416651,-141.05938740,-84.78818940,-78.92946300,19.30409466,-17.96743152
4.84372142,-0.69614502,0.50773547,1.99665182

>  <Name>
P77621952

>  <RI>
0

>  <Rbt.Current_Directory>
/home/fstefaniak/projects/zuza/docking/adenine/1Y26

>  <Rbt.Executable>
rbdock ($Id: //depot/dev/client3/rdock/2013.1/src/exe/rbdock.cxx#4 $)

>  <Rbt.Library>
libRbt.so (2013.1, Build901 2013/11/27)

>  <Rbt.Parameter_File>
/home/fstefaniak/progs/rDock//data/scripts/dock_solv.prm

>  <Rbt.Receptor>
1y26.prm

>  <SCORE>
-56.9148

>  <SCORE.INTER>
-38.4455

>  <SCORE.INTER.CONST>
1

>  <SCORE.INTER.POLAR>
-6.1074

>  <SCORE.INTER.ROT>
3

>  <SCORE.INTER.SOLV>
12.7051

>  <SCORE.INTER.VDW>
-15.1073

>  <SCORE.INTER.norm>
-4.27172

>  <SCORE.INTRA>
3.36427

>  <SCORE.INTRA.DIHEDRAL>
7.45951

>  <SCORE.INTRA.DIHEDRAL.0>
2.0697

>  <SCORE.INTRA.POLAR>
0

>  <SCORE.INTRA.POLAR.0>
0

>  <SCORE.INTRA.REPUL>
0

>  <SCORE.INTRA.REPUL.0>
0

>  <SCORE.INTRA.SOLV>
-0.118244

>  <SCORE.INTRA.SOLV.lig_0>
-14.8279

>  <SCORE.INTRA.VDW>
-0.306365

>  <SCORE.INTRA.VDW.0>
-0.732496

>  <SCORE.INTRA.norm>
0.373808

>  <SCORE.RESTR>
0

>  <SCORE.RESTR.CAVITY>
0

>  <SCORE.RESTR.norm>
0

>  <SCORE.SYSTEM>
-21.8337

>  <SCORE.SYSTEM.CONST>
0

>  <SCORE.SYSTEM.DIHEDRAL>
6.18524

>  <SCORE.SYSTEM.POLAR>
-3.51298

>  <SCORE.SYSTEM.SOLV>
0.371959

>  <SCORE.SYSTEM.VDW>
-5.03156

>  <SCORE.SYSTEM.norm>
-2.42596

>  <SCORE.heavy>
9

>  <SCORE.norm>
-6.32387

$$$$
P77621952
 OpenBabel12072022103D
libRbt.so/2013.1/901 2013/11/27
 12 11  0  0  0  0  0  0  0  0999 V2000
   21.7768  -16.2711    3.9079 C   0  0  0  0  0  0  0  0  0  0  0  0
   20.3659  -16.6907    4.2933 C   0  0  2  0  0  0  0  0  0  0  0  0
   20.2993  -18.2018    4.5807 C   0  0  0  0  0  0  0  0  0  0  0  0
   19.2923  -18.5506    5.5905 N   0  0  0  0  0  0  0  0  0  0  0  0
   19.6931  -18.4272    6.9868 C   0  0  0  0  0  0  0  0  0  0  0  0
   18.0705  -18.9936    5.1462 C   0  0  0  0  0  0  0  0  0  0  0  0
   17.8001  -19.2049    3.9689 O   0  0  0  0  0  0  0  0  0  0  0  0
   17.1276  -19.2128    6.0919 N   0  0  0  0  0  0  0  0  0  0  0  0
   19.4965  -16.3588    3.2072 O   0  0  0  0  0  0  0  0  0  0  0  0
   17.1948  -20.0827    6.5979 H   0  0  0  0  0  0  0  0  0  0  0  0
   17.0007  -18.4087    6.6947 H   0  0  0  0  0  0  0  0  0  0  0  0
   18.6839  -16.0179    3.6233 H   0  0  0  0  0  0  0  0  0  0  0  0
  2  3  1  0  0  0  0
  2  9  1  0  0  0  0
  2  1  1  6  0  0  0
  3  4  1  0  0  0  0
  4  5  1  0  0  0  0
  4  6  1  0  0  0  0
  6  7  2  0  0  0  0
  6  8  1  0  0  0  0
  8 10  1  0  0  0  0
  8 11  1  0  0  0  0
  9 12  1  0  0  0  0
M  END
>  <CHROM.0>
-48.64196404,55.32062602,-52.77418561,-51.85616610,-50.95043443,-53.01511624
-55.85316722,-48.94794357,-167.97369707,160.67355008

>  <CHROM.1>
148.88956308,-140.06696249,-83.55542933,-79.85395731,19.29866674,-17.97261266
4.85199866,-0.69040711,0.50343852,2.00181402

>  <Name>
P77621952

>  <RI>
0

>  <Rbt.Current_Directory>
/home/fstefaniak/projects/zuza/docking/adenine/1Y26

>  <Rbt.Executable>
rbdock ($Id: //depot/dev/client3/rdock/2013.1/src/exe/rbdock.cxx#4 $)

>  <Rbt.Library>
libRbt.so (2013.1, Build901 2013/11/27)

>  <Rbt.Parameter_File>
/home/fstefaniak/progs/rDock//data/scripts/dock_solv.prm

>  <Rbt.Receptor>
1y26.prm

>  <SCORE>
-56.3165

>  <SCORE.INTER>
-38.5675

>  <SCORE.INTER.CONST>
1

>  <SCORE.INTER.POLAR>
-6.0827

>  <SCORE.INTER.ROT>
3

>  <SCORE.INTER.SOLV>
12.6795

>  <SCORE.INTER.VDW>
-15.2625

>  <SCORE.INTER.norm>
-4.28528

>  <SCORE.INTRA>
3.57433

>  <SCORE.INTRA.DIHEDRAL>
7.83511

>  <SCORE.INTRA.DIHEDRAL.0>
2.0697

>  <SCORE.INTRA.POLAR>
0

>  <SCORE.INTRA.POLAR.0>
0

>  <SCORE.INTRA.REPUL>
0

>  <SCORE.INTRA.REPUL.0>
0

>  <SCORE.INTRA.SOLV>
-0.159475

>  <SCORE.INTRA.SOLV.lig_0>
-14.8279

>  <SCORE.INTRA.VDW>
-0.263489

>  <SCORE.INTRA.VDW.0>
-0.732496

>  <SCORE.INTRA.norm>
0.397148

>  <SCORE.RESTR>
0

>  <SCORE.RESTR.CAVITY>
0

>  <SCORE.RESTR.norm>
0

>  <SCORE.SYSTEM>
-21.3233

>  <SCORE.SYSTEM.CONST>
0

>  <SCORE.SYSTEM.DIHEDRAL>
6.75874

>  <SCORE.SYSTEM.POLAR>
-3.59032

>  <SCORE.SYSTEM.SOLV>
0.752789

>  <SCORE.SYSTEM.VDW>
-4.75164

>  <SCORE.SYSTEM.norm>
-2.36926

>  <SCORE.heavy>
9

>  <SCORE.norm>
-6.25739

$$$$
P77714041
 OpenBabel12072022103D
libRbt.so/2013.1/901 2013/11/27
 12 12  0  0  0  0  0  0  0  0999 V2000
   19.9734  -17.7885    2.8115 C   0  0  0  0  0  0  0  0  0  0  0  0
   20.9433  -17.6462    3.9899 C   0  0  2  0  0  0  0  0  0  0  0  0
   20.2189  -17.8904    5.2638 C   0  0  0  0  0  0  0  0  0  0  0  0
   19.6563  -18.0776    6.2627 N   0  0  0  0  0  0  0  0  0  0  0  0
   21.6707  -16.3609    3.9046 N   0  0  0  0  0  0  0  0  0  0  0  0
   20.8993  -15.1674    4.2503 C   0  0  0  0  0  0  0  0  0  0  0  0
   21.9858  -14.1063    4.2632 C   0  0  0  0  0  0  0  0  0  0  0  0
   23.1865  -14.8198    4.8918 C   0  0  1  0  0  0  0  0  0  0  0  0
   22.8884  -16.3137    4.7221 C   0  0  0  0  0  0  0  0  0  0  0  0
   24.5159  -14.4070    4.2711 C   0  0  0  0  0  0  0  0  0  0  0  0
   24.5128  -14.6615    2.8718 O   0  0  0  0  0  0  0  0  0  0  0  0
   25.4354  -14.6432    2.5656 H   0  0  0  0  0  0  0  0  0  0  0  0
  2  3  1  0  0  0  0
  2  5  1  0  0  0  0
  2  1  1  6  0  0  0
  3  4  3  0  0  0  0
  5  6  1  0  0  0  0
  5  9  1  0  0  0  0
  6  7  1  0  0  0  0
  7  8  1  0  0  0  0
  8  9  1  0  0  0  0
  8 10  1  6  0  0  0
 10 11  1  0  0  0  0
 11 12  1  0  0  0  0
M  END
>  <CHROM.0>
-49.98242622,-61.82062792,-55.70471292,-54.24728609,-55.76434206,-61.94665929
-63.37182412,-48.46558374,-166.17139774,160.38867239

>  <CHROM.1>
74.34173524,-57.84498199,-163.26850357,21.92327509,-16.07035862,4.26446239
3.11319575,0.71379775,1.34200615

>  <Name>
P77714041

>  <RI>
0

>  <Rbt.Current_Directory>
/home/fstefaniak/projects/zuza/docking/adenine/1Y26

>  <Rbt.Executable>
rbdock ($Id: //depot/dev/client3/rdock/2013.1/src/exe/rbdock.cxx#4 $)

>  <Rbt.Library>
libRbt.so (2013.1, Build901 2013/11/27)

>  <Rbt.Parameter_File>
/home/fstefaniak/progs/rDock//data/scripts/dock_solv.prm

>  <Rbt.Receptor>
1y26.prm

>  <SCORE>
-39.6149

>  <SCORE.INTER>
-17.9723

>  <SCORE.INTER.CONST>
1

>  <SCORE.INTER.POLAR>
-1.43717

>  <SCORE.INTER.ROT>
2

>  <SCORE.INTER.SOLV>
10.1997

>  <SCORE.INTER.VDW>
-15.5242

>  <SCORE.INTER.norm>
-1.63384

>  <SCORE.INTRA>
0.640783

>  <SCORE.INTRA.DIHEDRAL>
1.11664

>  <SCORE.INTRA.DIHEDRAL.0>
0.626428

>  <SCORE.INTRA.POLAR>
0

>  <SCORE.INTRA.POLAR.0>
0

>  <SCORE.INTRA.REPUL>
0

>  <SCORE.INTRA.REPUL.0>
0

>  <SCORE.INTRA.SOLV>
0.740561

>  <SCORE.INTRA.SOLV.lig_0>
-12.2445

>  <SCORE.INTRA.VDW>
-0.287817

>  <SCORE.INTRA.VDW.0>
0.77927

>  <SCORE.INTRA.norm>
0.058253

>  <SCORE.RESTR>
0

>  <SCORE.RESTR.CAVITY>
0

>  <SCORE.RESTR.norm>
0

>  <SCORE.SYSTEM>
-22.2835

>  <SCORE.SYSTEM.CONST>
0

>  <SCORE.SYSTEM.DIHEDRAL>
6.0102

>  <SCORE.SYSTEM.POLAR>
-3.47761

>  <SCORE.SYSTEM.SOLV>
0.646785

>  <SCORE.SYSTEM.VDW>
-5.48262

>  <SCORE.SYSTEM.norm>
-2.02577

>  <SCORE.heavy>
11

>  <SCORE.norm>
-3.60136

$$$$
P77714041
 OpenBabel12072022103D
libRbt.so/2013.1/901 2013/11/27
 12 12  0  0  0  0  0  0  0  0999 V2000
   19.8629  -18.4311    5.1843 C   0  0  0  0  0  0  0  0  0  0  0  0
   19.7516  -17.0261    4.5817 C   0  0  2  0  0  0  0  0  0  0  0  0
   19.1960  -17.1162    3.2067 C   0  0  0  0  0  0  0  0  0  0  0  0
   18.7646  -17.1817    2.1301 N   0  0  0  0  0  0  0  0  0  0  0  0
   21.0404  -16.3105    4.7044 N   0  0  0  0  0  0  0  0  0  0  0  0
   22.1748  -16.9156    4.0073 C   0  0  0  0  0  0  0  0  0  0  0  0
   23.2303  -15.8352    4.1662 C   0  0  0  0  0  0  0  0  0  0  0  0
   22.4465  -14.5303    3.9964 C   0  0  1  0  0  0  0  0  0  0  0  0
   20.9862  -14.9120    4.2634 C   0  0  0  0  0  0  0  0  0  0  0  0
   22.9432  -13.4148    4.9085 C   0  0  0  0  0  0  0  0  0  0  0  0
   22.7231  -13.7514    6.2727 O   0  0  0  0  0  0  0  0  0  0  0  0
   23.0956  -13.0375    6.8175 H   0  0  0  0  0  0  0  0  0  0  0  0
  2  3  1  0  0  0  0
  2  5  1  0  0  0  0
  2  1  1  6  0  0  0
  3  4  3  0  0  0  0
  5  6  1  0  0  0  0
  5  9  1  0  0  0  0
  6  7  1  0  0  0  0
  7  8  1  0  0  0  0
  8  9  1  0  0  0  0
  8 10  1  1  0  0  0
 10 11  1  0  0  0  0
 11 12  1  0  0  0  0
M  END
>  <CHROM.0>
-49.96452826,34.40430834,-64.64697667,-53.65259675,-176.32050486,-59.39202915
-172.28828468,-51.00610744,-166.19802623,160.80017174

>  <CHROM.1>
61.72704572,-64.91423617,177.04611422,21.24367901,-15.90355993,4.37321453
-2.88657462,-0.80723943,-0.79746020

>  <Name>
P77714041

>  <RI>
0

>  <Rbt.Current_Directory>
/home/fstefaniak/projects/zuza/docking/adenine/1Y26

>  <Rbt.Executable>
rbdock ($Id: //depot/dev/client3/rdock/2013.1/src/exe/rbdock.cxx#4 $)

>  <Rbt.Library>
libRbt.so (2013.1, Build901 2013/11/27)

>  <Rbt.Parameter_File>
/home/fstefaniak/progs/rDock//data/scripts/dock_solv.prm

>  <Rbt.Receptor>
1y26.prm

>  <SCORE>
-39.4652

>  <SCORE.INTER>
-20.0948

>  <SCORE.INTER.CONST>
1

>  <SCORE.INTER.POLAR>
-2.04537

>  <SCORE.INTER.ROT>
2

>  <SCORE.INTER.SOLV>
10.9233

>  <SCORE.INTER.VDW>
-15.153

>  <SCORE.INTER.norm>
-1.8268

>  <SCORE.INTRA>
0.587292

>  <SCORE.INTRA.DIHEDRAL>
-0.441806

>  <SCORE.INTRA.DIHEDRAL.0>
0.626428

>  <SCORE.INTRA.POLAR>
0

>  <SCORE.INTRA.POLAR.0>
0

>  <SCORE.INTRA.REPUL>
0

>  <SCORE.INTRA.REPUL.0>
0

>  <SCORE.INTRA.SOLV>
0.745988

>  <SCORE.INTRA.SOLV.lig_0>
-12.2445

>  <SCORE.INTRA.VDW>
0.435201

>  <SCORE.INTRA.VDW.0>
0.77927

>  <SCORE.INTRA.norm>
0.0533902

>  <SCORE.RESTR>
0

>  <SCORE.RESTR.CAVITY>
0

>  <SCORE.RESTR.norm>
0

>  <SCORE.SYSTEM>
-19.9577

>  <SCORE.SYSTEM.CONST>
0

>  <SCORE.SYSTEM.DIHEDRAL>
8.63767

>  <SCORE.SYSTEM.POLAR>
-3.60281

>  <SCORE.SYSTEM.SOLV>
0.562598

>  <SCORE.SYSTEM.VDW>
-4.36254

>  <SCORE.SYSTEM.norm>
-1.81434

>  <SCORE.heavy>
11

>  <SCORE.norm>
-3.58774

$$$$
P77714041
 OpenBabel12072022103D
libRbt.so/2013.1/901 2013/11/27
 12 12  0  0  0  0  0  0  0  0999 V2000
   19.9877  -17.9686    5.5667 C   0  0  0  0  0  0  0  0  0  0  0  0
   20.0623  -16.6624    4.7680 C   0  0  2  0  0  0  0  0  0  0  0  0
   19.4691  -16.8673    3.4213 C   0  0  0  0  0  0  0  0  0  0  0  0
   19.0090  -17.0231    2.3661 N   0  0  0  0  0  0  0  0  0  0  0  0
   21.4416  -16.1280    4.7841 N   0  0  0  0  0  0  0  0  0  0  0  0
   22.4090  -16.8340    3.9447 C   0  0  0  0  0  0  0  0  0  0  0  0
   23.6109  -15.9103    4.0374 C   0  0  0  0  0  0  0  0  0  0  0  0
   22.9971  -14.5073    4.0090 C   0  0  1  0  0  0  0  0  0  0  0  0
   21.5326  -14.7113    4.4128 C   0  0  0  0  0  0  0  0  0  0  0  0
   23.7279  -13.5196    4.9109 C   0  0  0  0  0  0  0  0  0  0  0  0
   25.0947  -13.4156    4.5315 O   0  0  0  0  0  0  0  0  0  0  0  0
   25.5636  -12.9437    5.2404 H   0  0  0  0  0  0  0  0  0  0  0  0
  2  3  1  0  0  0  0
  2  5  1  0  0  0  0
  2  1  1  6  0  0  0
  3  4  3  0  0  0  0
  5  6  1  0  0  0  0
  5  9  1  0  0  0  0
  6  7  1  0  0  0  0
  7  8  1  0  0  0  0
  8  9  1  0  0  0  0
  8 10  1  1  0  0  0
 10 11  1  0  0  0  0
 11 12  1  0  0  0  0
M  END
>  <CHROM.0>
-48.63553245,65.26898985,-55.52332203,-52.02739462,-171.85573673,-66.91967171
-60.38575271,-51.27767034,-165.76487649,161.18313872

>  <CHROM.1>
74.06974801,58.54123026,-167.39716677,21.84766213,-15.73069577,4.27810635
-2.83825101,-0.56436788,-0.87206699

>  <Name>
P77714041

>  <RI>
0

>  <Rbt.Current_Directory>
/home/fstefaniak/projects/zuza/docking/adenine/1Y26

>  <Rbt.Executable>
rbdock ($Id: //depot/dev/client3/rdock/2013.1/src/exe/rbdock.cxx#4 $)

>  <Rbt.Library>
libRbt.so (2013.1, Build901 2013/11/27)

>  <Rbt.Parameter_File>
/home/fstefaniak/progs/rDock//data/scripts/dock_solv.prm

>  <Rbt.Receptor>
1y26.prm

>  <SCORE>
-39.1815

>  <SCORE.INTER>
-17.7524

>  <SCORE.INTER.CONST>
1

>  <SCORE.INTER.POLAR>
-1.62558

>  <SCORE.INTER.ROT>
2

>  <SCORE.INTER.SOLV>
9.32974

>  <SCORE.INTER.VDW>
-14.4596

>  <SCORE.INTER.norm>
-1.61385

>  <SCORE.INTRA>
-0.0129799

>  <SCORE.INTRA.DIHEDRAL>
0.554128

>  <SCORE.INTRA.DIHEDRAL.0>
0.626428

>  <SCORE.INTRA.POLAR>
0

>  <SCORE.INTRA.POLAR.0>
0

>  <SCORE.INTRA.REPUL>
0

>  <SCORE.INTRA.REPUL.0>
0

>  <SCORE.INTRA.SOLV>
0.0960948

>  <SCORE.INTRA.SOLV.lig_0>
-12.2445

>  <SCORE.INTRA.VDW>
-0.338091

>  <SCORE.INTRA.VDW.0>
0.77927

>  <SCORE.INTRA.norm>
-0.00117999

>  <SCORE.RESTR>
0

>  <SCORE.RESTR.CAVITY>
0

>  <SCORE.RESTR.norm>
0

>  <SCORE.SYSTEM>
-21.4161

>  <SCORE.SYSTEM.CONST>
0

>  <SCORE.SYSTEM.DIHEDRAL>
6.44371

>  <SCORE.SYSTEM.POLAR>
-3.50074

>  <SCORE.SYSTEM.SOLV>
0.500591

>  <SCORE.SYSTEM.VDW>
-4.92306

>  <SCORE.SYSTEM.norm>
-1.94692

>  <SCORE.heavy>
11

>  <SCORE.norm>
-3.56195

$$$$
P77886738
 OpenBabel12072022103D
libRbt.so/2013.1/901 2013/11/27
 17 17  0  0  0  0  0  0  0  0999 V2000
   23.7172  -11.7945    3.4223 C   0  0  0  0  0  0  0  0  0  0  0  0
   22.2449  -11.8571    3.8229 C   0  0  0  0  0  0  0  0  0  0  0  0
   21.7186  -13.2940    3.8416 C   0  0  0  0  0  0  0  0  0  0  0  0
   22.5731  -14.2012    4.7317 C   0  0  1  0  0  0  0  0  0  0  0  0
   24.0555  -14.1407    4.2928 C   0  0  1  0  0  0  0  0  0  0  0  0
   24.5877  -12.7020    4.2905 C   0  0  0  0  0  0  0  0  0  0  0  0
   24.9552  -15.0527    5.0593 N   0  0  0  0  0  0  0  0  0  0  0  0
   25.0284  -16.3909    4.9990 C   0  0  0  0  0  0  0  0  0  0  0  0
   25.8169  -17.0360    5.8687 N   0  3  0  0  0  0  0  0  0  0  0  0
   25.8932  -18.0448    5.8487 H   0  0  0  0  0  0  0  0  0  0  0  0
   26.3562  -16.5489    6.5714 H   0  0  0  0  0  0  0  0  0  0  0  0
   24.3515  -17.1134    4.1182 N   0  0  0  0  0  0  0  0  0  0  0  0
   22.4408  -13.7744    6.0953 O   0  0  0  0  0  0  0  0  0  0  0  0
   25.5425  -14.6075    5.7514 H   0  0  0  0  0  0  0  0  0  0  0  0
   23.9056  -16.6257    3.3347 H   0  0  0  0  0  0  0  0  0  0  0  0
   24.3796  -18.1200    4.0796 H   0  0  0  0  0  0  0  0  0  0  0  0
   22.7588  -14.5171    6.6503 H   0  0  0  0  0  0  0  0  0  0  0  0
  1  2  1  0  0  0  0
  1  6  1  0  0  0  0
  2  3  1  0  0  0  0
  3  4  1  0  0  0  0
  4 13  1  1  0  0  0
  4  5  1  0  0  0  0
  5  6  1  0  0  0  0
  5  7  1  1  0  0  0
  7  8  1  0  0  0  0
  7 14  1  0  0  0  0
  8  9  2  0  0  0  0
  8 12  1  0  0  0  0
  9 10  1  0  0  0  0
  9 11  1  0  0  0  0
 12 15  1  0  0  0  0
 12 16  1  0  0  0  0
 13 17  1  0  0  0  0
M  CHG  1   9   1
M  END
>  <CHROM.0>
-45.94617543,-174.29030272,-49.35509051,-48.25897864,-53.51870949,-52.29175294
-49.44885749,-175.45334391,-166.15152209,158.97619378

>  <CHROM.1>
162.90839482,71.58427852,23.78406488,-14.35337087,4.63894129,-2.08265027
-0.15726148,2.80007762

>  <Name>
P77886738

>  <RI>
0

>  <Rbt.Current_Directory>
/home/fstefaniak/projects/zuza/docking/adenine/1Y26

>  <Rbt.Executable>
rbdock ($Id: //depot/dev/client3/rdock/2013.1/src/exe/rbdock.cxx#4 $)

>  <Rbt.Library>
libRbt.so (2013.1, Build901 2013/11/27)

>  <Rbt.Parameter_File>
/home/fstefaniak/progs/rDock//data/scripts/dock_solv.prm

>  <Rbt.Receptor>
1y26.prm

>  <SCORE>
-50.9082

>  <SCORE.INTER>
-31.9347

>  <SCORE.INTER.CONST>
1

>  <SCORE.INTER.POLAR>
-5.70231

>  <SCORE.INTER.ROT>
1

>  <SCORE.INTER.SOLV>
21.84

>  <SCORE.INTER.VDW>
-13.8288

>  <SCORE.INTER.norm>
-2.90316

>  <SCORE.INTRA>
2.06348

>  <SCORE.INTRA.DIHEDRAL>
1.2194

>  <SCORE.INTRA.DIHEDRAL.0>
2.69189

>  <SCORE.INTRA.POLAR>
0.938746

>  <SCORE.INTRA.POLAR.0>
-0.938746

>  <SCORE.INTRA.REPUL>
0

>  <SCORE.INTRA.REPUL.0>
0

>  <SCORE.INTRA.SOLV>
-2.0984

>  <SCORE.INTRA.SOLV.lig_0>
-28.3831

>  <SCORE.INTRA.VDW>
-0.68876

>  <SCORE.INTRA.VDW.0>
-0.235626

>  <SCORE.INTRA.norm>
0.187589

>  <SCORE.RESTR>
1.18601

>  <SCORE.RESTR.CAVITY>
1.18601

>  <SCORE.RESTR.norm>
0.107819

>  <SCORE.SYSTEM>
-22.2229

>  <SCORE.SYSTEM.CONST>
0

>  <SCORE.SYSTEM.DIHEDRAL>
8.02034

>  <SCORE.SYSTEM.POLAR>
-3.7404

>  <SCORE.SYSTEM.SOLV>
0.445571

>  <SCORE.SYSTEM.VDW>
-5.16928

>  <SCORE.SYSTEM.norm>
-2.02027

>  <SCORE.heavy>
11

>  <SCORE.norm>
-4.62802

$$$$
P77886738
 OpenBabel12072022103D
libRbt.so/2013.1/901 2013/11/27
 17 17  0  0  0  0  0  0  0  0999 V2000
   22.2142  -13.0051    6.1117 C   0  0  0  0  0  0  0  0  0  0  0  0
   22.5856  -11.8569    5.1759 C   0  0  0  0  0  0  0  0  0  0  0  0
   23.9494  -12.0755    4.5169 C   0  0  0  0  0  0  0  0  0  0  0  0
   24.0222  -13.4238    3.7940 C   0  0  1  0  0  0  0  0  0  0  0  0
   23.6659  -14.5733    4.7664 C   0  0  1  0  0  0  0  0  0  0  0  0
   22.2916  -14.3625    5.4141 C   0  0  0  0  0  0  0  0  0  0  0  0
   23.7821  -15.9357    4.1672 N   0  0  0  0  0  0  0  0  0  0  0  0
   24.6850  -16.8894    4.4411 C   0  0  0  0  0  0  0  0  0  0  0  0
   24.6974  -18.0025    3.6960 N   0  3  0  0  0  0  0  0  0  0  0  0
   25.3663  -18.7397    3.8776 H   0  0  0  0  0  0  0  0  0  0  0  0
   24.0515  -18.1469    2.9318 H   0  0  0  0  0  0  0  0  0  0  0  0
   25.5756  -16.7837    5.4168 N   0  0  0  0  0  0  0  0  0  0  0  0
   23.1095  -13.4087    2.6868 O   0  0  0  0  0  0  0  0  0  0  0  0
   23.1321  -16.1421    3.4208 H   0  0  0  0  0  0  0  0  0  0  0  0
   25.4493  -16.0361    6.1064 H   0  0  0  0  0  0  0  0  0  0  0  0
   26.2741  -17.4823    5.6157 H   0  0  0  0  0  0  0  0  0  0  0  0
   23.3933  -12.6739    2.1036 H   0  0  0  0  0  0  0  0  0  0  0  0
  1  2  1  0  0  0  0
  1  6  1  0  0  0  0
  2  3  1  0  0  0  0
  3  4  1  0  0  0  0
  4 13  1  6  0  0  0
  4  5  1  0  0  0  0
  5  6  1  0  0  0  0
  5  7  1  6  0  0  0
  7  8  1  0  0  0  0
  7 14  1  0  0  0  0
  8  9  2  0  0  0  0
  8 12  1  0  0  0  0
  9 10  1  0  0  0  0
  9 11  1  0  0  0  0
 12 15  1  0  0  0  0
 12 16  1  0  0  0  0
 13 17  1  0  0  0  0
M  CHG  1   9   1
M  END
>  <CHROM.0>
-44.49342366,-64.29360291,-52.58224854,-50.61821067,-59.43932884,-59.63034761
-58.05586490,-51.63052472,-167.88012032,160.41193684

>  <CHROM.1>
59.73299236,110.32160834,23.70193650,-14.61173126,4.52310323,2.77727807,1.15071662
-1.08793405

>  <Name>
P77886738

>  <RI>
0

>  <Rbt.Current_Directory>
/home/fstefaniak/projects/zuza/docking/adenine/1Y26

>  <Rbt.Executable>
rbdock ($Id: //depot/dev/client3/rdock/2013.1/src/exe/rbdock.cxx#4 $)

>  <Rbt.Library>
libRbt.so (2013.1, Build901 2013/11/27)

>  <Rbt.Parameter_File>
/home/fstefaniak/progs/rDock//data/scripts/dock_solv.prm

>  <Rbt.Receptor>
1y26.prm

>  <SCORE>
-50.896

>  <SCORE.INTER>
-31.0727

>  <SCORE.INTER.CONST>
1

>  <SCORE.INTER.POLAR>
-4.73358

>  <SCORE.INTER.ROT>
1

>  <SCORE.INTER.SOLV>
19.4989

>  <SCORE.INTER.VDW>
-15.7028

>  <SCORE.INTER.norm>
-2.82479

>  <SCORE.INTRA>
1.50012

>  <SCORE.INTRA.DIHEDRAL>
-0.19199

>  <SCORE.INTRA.DIHEDRAL.0>
2.69189

>  <SCORE.INTRA.POLAR>
0.938746

>  <SCORE.INTRA.POLAR.0>
-0.938746

>  <SCORE.INTRA.REPUL>
0

>  <SCORE.INTRA.REPUL.0>
0

>  <SCORE.INTRA.SOLV>
-2.35401

>  <SCORE.INTRA.SOLV.lig_0>
-28.3831

>  <SCORE.INTRA.VDW>
-0.418618

>  <SCORE.INTRA.VDW.0>
-0.235626

>  <SCORE.INTRA.norm>
0.136375

>  <SCORE.RESTR>
0.803009

>  <SCORE.RESTR.CAVITY>
0.803009

>  <SCORE.RESTR.norm>
0.0730008

>  <SCORE.SYSTEM>
-22.1264

>  <SCORE.SYSTEM.CONST>
0

>  <SCORE.SYSTEM.DIHEDRAL>
6.52539

>  <SCORE.SYSTEM.POLAR>
-3.61272

>  <SCORE.SYSTEM.SOLV>
0.675725

>  <SCORE.SYSTEM.VDW>
-5.10891

>  <SCORE.SYSTEM.norm>
-2.01149

>  <SCORE.heavy>
11

>  <SCORE.norm>
-4.62691

$$$$
P77886738
 OpenBabel12072022103D
libRbt.so/2013.1/901 2013/11/27
 17 17  0  0  0  0  0  0  0  0999 V2000
   23.7133  -11.7410    3.4672 C   0  0  0  0  0  0  0  0  0  0  0  0
   22.2399  -11.8182    3.8614 C   0  0  0  0  0  0  0  0  0  0  0  0
   21.7246  -13.2591    3.8657 C   0  0  0  0  0  0  0  0  0  0  0  0
   22.5825  -14.1674    4.7515 C   0  0  1  0  0  0  0  0  0  0  0  0
   24.0661  -14.0918    4.3190 C   0  0  1  0  0  0  0  0  0  0  0  0
   24.5873  -12.6492    4.3310 C   0  0  0  0  0  0  0  0  0  0  0  0
   24.9697  -15.0035    5.0812 N   0  0  0  0  0  0  0  0  0  0  0  0
   24.9949  -16.3448    5.0740 C   0  0  0  0  0  0  0  0  0  0  0  0
   25.8014  -16.9818    5.9331 N   0  3  0  0  0  0  0  0  0  0  0  0
   25.8426  -17.9927    5.9522 H   0  0  0  0  0  0  0  0  0  0  0  0
   26.3894  -16.4861    6.5893 H   0  0  0  0  0  0  0  0  0  0  0  0
   24.2532  -17.0779    4.2564 N   0  0  0  0  0  0  0  0  0  0  0  0
   22.4416  -13.7533    6.1181 O   0  0  0  0  0  0  0  0  0  0  0  0
   25.6037  -14.5518    5.7263 H   0  0  0  0  0  0  0  0  0  0  0  0
   23.7875  -16.6067    3.4743 H   0  0  0  0  0  0  0  0  0  0  0  0
   24.2455  -18.0855    4.2590 H   0  0  0  0  0  0  0  0  0  0  0  0
   22.7615  -14.4989    6.6681 H   0  0  0  0  0  0  0  0  0  0  0  0
  1  2  1  0  0  0  0
  1  6  1  0  0  0  0
  2  3  1  0  0  0  0
  3  4  1  0  0  0  0
  4 13  1  1  0  0  0
  4  5  1  0  0  0  0
  5  6  1  0  0  0  0
  5  7  1  1  0  0  0
  7  8  1  0  0  0  0
  7 14  1  0  0  0  0
  8  9  2  0  0  0  0
  8 12  1  0  0  0  0
  9 10  1  0  0  0  0
  9 11  1  0  0  0  0
 12 15  1  0  0  0  0
 12 16  1  0  0  0  0
 13 17  1  0  0  0  0
M  CHG  1   9   1
M  END
>  <CHROM.0>
62.18201310,-172.14051000,-49.47838903,-50.80267715,-55.50896808,-60.31273999
-53.81255553,-50.63222455,-165.57959452,161.24034674

>  <CHROM.1>
162.80650408,66.85001253,23.77285810,-14.31113024,4.68649217,-2.06795652
-0.10308671,2.81816815

>  <Name>
P77886738

>  <RI>
0

>  <Rbt.Current_Directory>
/home/fstefaniak/projects/zuza/docking/adenine/1Y26

>  <Rbt.Executable>
rbdock ($Id: //depot/dev/client3/rdock/2013.1/src/exe/rbdock.cxx#4 $)

>  <Rbt.Library>
libRbt.so (2013.1, Build901 2013/11/27)

>  <Rbt.Parameter_File>
/home/fstefaniak/progs/rDock//data/scripts/dock_solv.prm

>  <Rbt.Receptor>
1y26.prm

>  <SCORE>
-50.0982

>  <SCORE.INTER>
-32.155

>  <SCORE.INTER.CONST>
1

>  <SCORE.INTER.POLAR>
-5.65406

>  <SCORE.INTER.ROT>
1

>  <SCORE.INTER.SOLV>
21.845

>  <SCORE.INTER.VDW>
-14.1381

>  <SCORE.INTER.norm>
-2.92318

>  <SCORE.INTRA>
2.0896

>  <SCORE.INTRA.DIHEDRAL>
1.18403

>  <SCORE.INTRA.DIHEDRAL.0>
2.69189

>  <SCORE.INTRA.POLAR>
0.938746

>  <SCORE.INTRA.POLAR.0>
-0.938746

>  <SCORE.INTRA.REPUL>
0

>  <SCORE.INTRA.REPUL.0>
0

>  <SCORE.INTRA.SOLV>
-2.04557

>  <SCORE.INTRA.SOLV.lig_0>
-28.3831

>  <SCORE.INTRA.VDW>
-0.671372

>  <SCORE.INTRA.VDW.0>
-0.235626

>  <SCORE.INTRA.norm>
0.189963

>  <SCORE.RESTR>
1.23537

>  <SCORE.RESTR.CAVITY>
1.23537

>  <SCORE.RESTR.norm>
0.112307

>  <SCORE.SYSTEM>
-21.2682

>  <SCORE.SYSTEM.CONST>
0

>  <SCORE.SYSTEM.DIHEDRAL>
6.34799

>  <SCORE.SYSTEM.POLAR>
-3.34246

>  <SCORE.SYSTEM.SOLV>
0.599661

>  <SCORE.SYSTEM.VDW>
-5.35318

>  <SCORE.SYSTEM.norm>
-1.93348

>  <SCORE.heavy>
11

>  <SCORE.norm>
-4.55439

$$$$
P78162057
 OpenBabel12072022103D
libRbt.so/2013.1/901 2013/11/27
 11 11  0  0  0  0  0  0  0  0999 V2000
   23.7795  -14.0447    4.0151 C   0  0  0  0  0  0  0  0  0  0  0  0
   23.5604  -15.4837    4.5204 C   0  0  0  0  0  0  0  0  0  0  0  0
   22.1076  -15.0835    4.8737 C   0  0  0  0  0  0  0  0  0  0  0  0
   22.6028  -13.6170    4.9130 C   0  0  0  0  0  0  0  0  0  0  0  0
   21.1311  -15.3517    3.8028 N   0  0  0  0  0  0  0  0  0  0  0  0
   20.1840  -16.3416    3.7624 C   0  0  0  0  0  0  0  0  0  0  0  0
   19.4231  -16.4034    2.7966 O   0  0  0  0  0  0  0  0  0  0  0  0
   20.1078  -17.3288    4.9000 C   0  0  0  0  0  0  0  0  0  0  0  0
   19.3269  -18.4977    4.5026 C   0  0  0  0  0  0  0  0  0  0  0  0
   18.6857  -19.4241    4.2226 N   0  0  0  0  0  0  0  0  0  0  0  0
   21.0802  -14.7410    2.9919 H   0  0  0  0  0  0  0  0  0  0  0  0
  1  2  1  0  0  0  0
  1  4  1  0  0  0  0
  2  3  1  0  0  0  0
  3  4  1  0  0  0  0
  3  5  1  0  0  0  0
  5  6  1  0  0  0  0
  5 11  1  0  0  0  0
  6  7  2  0  0  0  0
  6  8  1  0  0  0  0
  8  9  1  0  0  0  0
  9 10  3  0  0  0  0
M  END
>  <CHROM.0>
-50.63424673,-59.50013388,-58.62597072,-53.66767505,-56.03167596,-65.19615633
-60.00290521,-175.21315354,-167.74538372,160.92350727

>  <CHROM.1>
106.51157487,-163.73135806,21.09889270,-16.12144620,4.19966166,-0.61315670
0.52842691,2.61015874

>  <Name>
P78162057

>  <RI>
0

>  <Rbt.Current_Directory>
/home/fstefaniak/projects/zuza/docking/adenine/1Y26

>  <Rbt.Executable>
rbdock ($Id: //depot/dev/client3/rdock/2013.1/src/exe/rbdock.cxx#4 $)

>  <Rbt.Library>
libRbt.so (2013.1, Build901 2013/11/27)

>  <Rbt.Parameter_File>
/home/fstefaniak/progs/rDock//data/scripts/dock_solv.prm

>  <Rbt.Receptor>
1y26.prm

>  <SCORE>
-50.1251

>  <SCORE.INTER>
-27.9722

>  <SCORE.INTER.CONST>
1

>  <SCORE.INTER.POLAR>
-2.97712

>  <SCORE.INTER.ROT>
2

>  <SCORE.INTER.SOLV>
10.1055

>  <SCORE.INTER.VDW>
-17.0263

>  <SCORE.INTER.norm>
-2.79722

>  <SCORE.INTRA>
0.524694

>  <SCORE.INTRA.DIHEDRAL>
-0.0172268

>  <SCORE.INTRA.DIHEDRAL.0>
2.59669

>  <SCORE.INTRA.POLAR>
0

>  <SCORE.INTRA.POLAR.0>
0

>  <SCORE.INTRA.REPUL>
0

>  <SCORE.INTRA.REPUL.0>
0

>  <SCORE.INTRA.SOLV>
-0.0161495

>  <SCORE.INTRA.SOLV.lig_0>
-12.6985

>  <SCORE.INTRA.VDW>
0.541383

>  <SCORE.INTRA.VDW.0>
-1.12437

>  <SCORE.INTRA.norm>
0.0524694

>  <SCORE.RESTR>
0

>  <SCORE.RESTR.CAVITY>
0

>  <SCORE.RESTR.norm>
0

>  <SCORE.SYSTEM>
-22.6776

>  <SCORE.SYSTEM.CONST>
0

>  <SCORE.SYSTEM.DIHEDRAL>
5.18984

>  <SCORE.SYSTEM.POLAR>
-3.38115

>  <SCORE.SYSTEM.SOLV>
0.4342

>  <SCORE.SYSTEM.VDW>
-5.72255

>  <SCORE.SYSTEM.norm>
-2.26776

>  <SCORE.heavy>
10

>  <SCORE.norm>
-5.01251

$$$$
P78162057
 OpenBabel12072022103D
libRbt.so/2013.1/901 2013/11/27
 11 11  0  0  0  0  0  0  0  0999 V2000
   23.7115  -14.0291    4.0204 C   0  0  0  0  0  0  0  0  0  0  0  0
   23.5537  -15.5033    4.4397 C   0  0  0  0  0  0  0  0  0  0  0  0
   22.0978  -15.1768    4.8510 C   0  0  0  0  0  0  0  0  0  0  0  0
   22.5443  -13.6991    4.9704 C   0  0  0  0  0  0  0  0  0  0  0  0
   21.1039  -15.4125    3.7884 N   0  0  0  0  0  0  0  0  0  0  0  0
   20.1304  -16.3766    3.7518 C   0  0  0  0  0  0  0  0  0  0  0  0
   19.3587  -16.4122    2.7933 O   0  0  0  0  0  0  0  0  0  0  0  0
   20.0392  -17.3683    4.8843 C   0  0  0  0  0  0  0  0  0  0  0  0
   19.2088  -18.5052    4.4941 C   0  0  0  0  0  0  0  0  0  0  0  0
   18.5291  -19.4056    4.2204 N   0  0  0  0  0  0  0  0  0  0  0  0
   21.0613  -14.7956    2.9816 H   0  0  0  0  0  0  0  0  0  0  0  0
  1  2  1  0  0  0  0
  1  4  1  0  0  0  0
  2  3  1  0  0  0  0
  3  4  1  0  0  0  0
  3  5  1  0  0  0  0
  5  6  1  0  0  0  0
  5 11  1  0  0  0  0
  6  7  2  0  0  0  0
  6  8  1  0  0  0  0
  8  9  1  0  0  0  0
  9 10  3  0  0  0  0
M  END
>  <CHROM.0>
-49.89859459,-60.70089806,-59.83350726,-52.91038426,-174.12145492,-62.48657637
-59.99893898,-176.86254619,-167.35817418,159.68165637

>  <CHROM.1>
111.33004097,-164.48638125,21.03631992,-16.15238703,4.19027077,0.58727942
-0.53239740,-0.56078267

>  <Name>
P78162057

>  <RI>
0

>  <Rbt.Current_Directory>
/home/fstefaniak/projects/zuza/docking/adenine/1Y26

>  <Rbt.Executable>
rbdock ($Id: //depot/dev/client3/rdock/2013.1/src/exe/rbdock.cxx#4 $)

>  <Rbt.Library>
libRbt.so (2013.1, Build901 2013/11/27)

>  <Rbt.Parameter_File>
/home/fstefaniak/progs/rDock//data/scripts/dock_solv.prm

>  <Rbt.Receptor>
1y26.prm

>  <SCORE>
-50.0546

>  <SCORE.INTER>
-27.9469

>  <SCORE.INTER.CONST>
1

>  <SCORE.INTER.POLAR>
-2.97712

>  <SCORE.INTER.ROT>
2

>  <SCORE.INTER.SOLV>
10.1281

>  <SCORE.INTER.VDW>
-17.0169

>  <SCORE.INTER.norm>
-2.79469

>  <SCORE.INTRA>
0.519546

>  <SCORE.INTRA.DIHEDRAL>
-0.0283087

>  <SCORE.INTRA.DIHEDRAL.0>
2.59669

>  <SCORE.INTRA.POLAR>
0

>  <SCORE.INTRA.POLAR.0>
0

>  <SCORE.INTRA.REPUL>
0

>  <SCORE.INTRA.REPUL.0>
0

>  <SCORE.INTRA.SOLV>
-0.0203519

>  <SCORE.INTRA.SOLV.lig_0>
-12.6985

>  <SCORE.INTRA.VDW>
0.543876

>  <SCORE.INTRA.VDW.0>
-1.12437

>  <SCORE.INTRA.norm>
0.0519546

>  <SCORE.RESTR>
0

>  <SCORE.RESTR.CAVITY>
0

>  <SCORE.RESTR.norm>
0

>  <SCORE.SYSTEM>
-22.6273

>  <SCORE.SYSTEM.CONST>
0

>  <SCORE.SYSTEM.DIHEDRAL>
5.44758

>  <SCORE.SYSTEM.POLAR>
-3.42937

>  <SCORE.SYSTEM.SOLV>
0.273323

>  <SCORE.SYSTEM.VDW>
-5.56062

>  <SCORE.SYSTEM.norm>
-2.26273

>  <SCORE.heavy>
10

>  <SCORE.norm>
-5.00546

$$$$
P78162057
 OpenBabel12072022103D
libRbt.so/2013.1/901 2013/11/27
 11 11  0  0  0  0  0  0  0  0999 V2000
   23.6820  -14.0036    4.0193 C   0  0  0  0  0  0  0  0  0  0  0  0
   23.5169  -15.4702    4.4621 C   0  0  0  0  0  0  0  0  0  0  0  0
   22.0535  -15.1372    4.8405 C   0  0  0  0  0  0  0  0  0  0  0  0
   22.4973  -13.6574    4.9414 C   0  0  0  0  0  0  0  0  0  0  0  0
   21.0795  -15.3926    3.7640 N   0  0  0  0  0  0  0  0  0  0  0  0
   20.1280  -16.3777    3.7128 C   0  0  0  0  0  0  0  0  0  0  0  0
   19.3703  -16.4285    2.7438 O   0  0  0  0  0  0  0  0  0  0  0  0
   20.0431  -17.3732    4.8424 C   0  0  0  0  0  0  0  0  0  0  0  0
   19.1765  -18.4884    4.4686 C   0  0  0  0  0  0  0  0  0  0  0  0
   18.4690  -19.3713    4.2083 N   0  0  0  0  0  0  0  0  0  0  0  0
   21.0344  -14.7754    2.9578 H   0  0  0  0  0  0  0  0  0  0  0  0
  1  2  1  0  0  0  0
  1  4  1  0  0  0  0
  2  3  1  0  0  0  0
  3  4  1  0  0  0  0
  3  5  1  0  0  0  0
  5  6  1  0  0  0  0
  5 11  1  0  0  0  0
  6  7  2  0  0  0  0
  6  8  1  0  0  0  0
  8  9  1  0  0  0  0
  9 10  3  0  0  0  0
M  END
>  <CHROM.0>
-48.15839993,-62.08466536,-58.63514805,-52.61199375,-57.44501938,-59.17149422
-60.74931909,-54.55819755,-166.54487128,161.12968638

>  <CHROM.1>
109.64149125,-167.93631687,21.01061370,-16.13385517,4.16905230,0.57422772
-0.55334240,-0.58622673

>  <Name>
P78162057

>  <RI>
0

>  <Rbt.Current_Directory>
/home/fstefaniak/projects/zuza/docking/adenine/1Y26

>  <Rbt.Executable>
rbdock ($Id: //depot/dev/client3/rdock/2013.1/src/exe/rbdock.cxx#4 $)

>  <Rbt.Library>
libRbt.so (2013.1, Build901 2013/11/27)

>  <Rbt.Parameter_File>
/home/fstefaniak/progs/rDock//data/scripts/dock_solv.prm

>  <Rbt.Receptor>
1y26.prm

>  <SCORE>
-49.7881

>  <SCORE.INTER>
-28.0142

>  <SCORE.INTER.CONST>
1

>  <SCORE.INTER.POLAR>
-2.97897

>  <SCORE.INTER.ROT>
2

>  <SCORE.INTER.SOLV>
10.1196

>  <SCORE.INTER.VDW>
-17.0528

>  <SCORE.INTER.norm>
-2.80142

>  <SCORE.INTRA>
0.544833

>  <SCORE.INTRA.DIHEDRAL>
-0.0251484

>  <SCORE.INTRA.DIHEDRAL.0>
2.59669

>  <SCORE.INTRA.POLAR>
0

>  <SCORE.INTRA.POLAR.0>
0

>  <SCORE.INTRA.REPUL>
0

>  <SCORE.INTRA.REPUL.0>
0

>  <SCORE.INTRA.SOLV>
-0.017115

>  <SCORE.INTRA.SOLV.lig_0>
-12.6985

>  <SCORE.INTRA.VDW>
0.565965

>  <SCORE.INTRA.VDW.0>
-1.12437

>  <SCORE.INTRA.norm>
0.0544833

>  <SCORE.RESTR>
0

>  <SCORE.RESTR.CAVITY>
0

>  <SCORE.RESTR.norm>
0

>  <SCORE.SYSTEM>
-22.3187

>  <SCORE.SYSTEM.CONST>
0

>  <SCORE.SYSTEM.DIHEDRAL>
5.49222

>  <SCORE.SYSTEM.POLAR>
-3.46348

>  <SCORE.SYSTEM.SOLV>
0.654037

>  <SCORE.SYSTEM.VDW>
-5.38294

>  <SCORE.SYSTEM.norm>
-2.23187

>  <SCORE.heavy>
10

>  <SCORE.norm>
-4.97881

$$$$
P78273403
 OpenBabel12072022103D
libRbt.so/2013.1/901 2013/11/27
 13 13  0  0  0  0  0  0  0  0999 V2000
   21.1098  -15.4316    4.3400 C   0  0  0  0  0  0  0  0  0  0  0  0
   20.1290  -16.2757    3.5995 C   0  0  1  0  0  0  0  0  0  0  0  0
   20.5465  -17.6128    3.0540 C   0  0  0  0  0  0  0  0  0  0  0  0
   19.5546  -17.5427    4.1854 C   0  0  1  0  0  0  0  0  0  0  0  0
   19.9032  -17.9899    5.4935 N   0  0  0  0  0  0  0  0  0  0  0  0
   19.1659  -18.7986    6.3147 C   0  0  0  0  0  0  0  0  0  0  0  0
   19.5056  -18.9977    7.4793 O   0  0  0  0  0  0  0  0  0  0  0  0
   18.0249  -19.3385    5.7517 N   0  0  0  0  0  0  0  0  0  0  0  0
   16.7751  -19.1229    6.3854 N   0  0  0  0  0  0  0  0  0  0  0  0
   20.7012  -17.5734    5.9587 H   0  0  0  0  0  0  0  0  0  0  0  0
   18.1412  -20.1931    5.2154 H   0  0  0  0  0  0  0  0  0  0  0  0
   16.8802  -18.2887    6.9707 H   0  0  0  0  0  0  0  0  0  0  0  0
   16.6618  -19.8787    7.0754 H   0  0  0  0  0  0  0  0  0  0  0  0
  2  1  1  1  0  0  0
  2  3  1  0  0  0  0
  2  4  1  0  0  0  0
  3  4  1  0  0  0  0
  4  5  1  1  0  0  0
  5  6  1  0  0  0  0
  5 10  1  0  0  0  0
  6  7  2  0  0  0  0
  6  8  1  0  0  0  0
  8  9  1  0  0  0  0
  8 11  1  0  0  0  0
  9 12  1  0  0  0  0
  9 13  1  0  0  0  0
M  END
>  <CHROM.0>
-157.72825236,53.04896978,-59.33168019,-54.21541739,-176.67214049,-176.81421405
-61.62165910,64.13687857,-165.44978196,160.01823113

>  <CHROM.1>
155.42433838,-124.25277841,21.96099890,19.38398948,-17.93346017,5.24395880
-0.85919755,0.58173495,1.90800542

>  <Name>
P78273403

>  <RI>
0

>  <Rbt.Current_Directory>
/home/fstefaniak/projects/zuza/docking/adenine/1Y26

>  <Rbt.Executable>
rbdock ($Id: //depot/dev/client3/rdock/2013.1/src/exe/rbdock.cxx#4 $)

>  <Rbt.Library>
libRbt.so (2013.1, Build901 2013/11/27)

>  <Rbt.Parameter_File>
/home/fstefaniak/progs/rDock//data/scripts/dock_solv.prm

>  <Rbt.Receptor>
1y26.prm

>  <SCORE>
-61.3819

>  <SCORE.INTER>
-42.1429

>  <SCORE.INTER.CONST>
1

>  <SCORE.INTER.POLAR>
-6.04366

>  <SCORE.INTER.ROT>
3

>  <SCORE.INTER.SOLV>
13.9212

>  <SCORE.INTER.VDW>
-18.1901

>  <SCORE.INTER.norm>
-4.68254

>  <SCORE.INTRA>
-0.709013

>  <SCORE.INTRA.DIHEDRAL>
-0.883928

>  <SCORE.INTRA.DIHEDRAL.0>
2.96833

>  <SCORE.INTRA.POLAR>
0

>  <SCORE.INTRA.POLAR.0>
0

>  <SCORE.INTRA.REPUL>
0

>  <SCORE.INTRA.REPUL.0>
0

>  <SCORE.INTRA.SOLV>
-0.0858658

>  <SCORE.INTRA.SOLV.lig_0>
-18.0437

>  <SCORE.INTRA.VDW>
-0.224116

>  <SCORE.INTRA.VDW.0>
-0.607915

>  <SCORE.INTRA.norm>
-0.0787792

>  <SCORE.RESTR>
0

>  <SCORE.RESTR.CAVITY>
0

>  <SCORE.RESTR.norm>
0

>  <SCORE.SYSTEM>
-18.53

>  <SCORE.SYSTEM.CONST>
0

>  <SCORE.SYSTEM.DIHEDRAL>
7.40422

>  <SCORE.SYSTEM.POLAR>
-3.21361

>  <SCORE.SYSTEM.SOLV>
0.113165

>  <SCORE.SYSTEM.VDW>
-4.14708

>  <SCORE.SYSTEM.norm>
-2.05888

>  <SCORE.heavy>
9

>  <SCORE.norm>
-6.82021

$$$$
P78273403
 OpenBabel12072022103D
libRbt.so/2013.1/901 2013/11/27
 13 13  0  0  0  0  0  0  0  0999 V2000
   21.3476  -15.5568    4.3343 C   0  0  0  0  0  0  0  0  0  0  0  0
   20.2307  -16.2651    3.6459 C   0  0  1  0  0  0  0  0  0  0  0  0
   20.4504  -17.6351    3.0678 C   0  0  0  0  0  0  0  0  0  0  0  0
   19.5401  -17.4610    4.2552 C   0  0  1  0  0  0  0  0  0  0  0  0
   19.9050  -17.9655    5.5378 N   0  0  0  0  0  0  0  0  0  0  0  0
   19.1984  -18.8447    6.3121 C   0  0  0  0  0  0  0  0  0  0  0  0
   19.5451  -19.0943    7.4648 O   0  0  0  0  0  0  0  0  0  0  0  0
   18.0784  -19.3953    5.7180 N   0  0  0  0  0  0  0  0  0  0  0  0
   16.8104  -19.1962    6.3201 N   0  0  0  0  0  0  0  0  0  0  0  0
   20.6868  -17.5456    6.0266 H   0  0  0  0  0  0  0  0  0  0  0  0
   18.2182  -20.2466    5.1820 H   0  0  0  0  0  0  0  0  0  0  0  0
   16.8673  -18.3193    6.8466 H   0  0  0  0  0  0  0  0  0  0  0  0
   16.7220  -19.9067    7.0600 H   0  0  0  0  0  0  0  0  0  0  0  0
  2  1  1  1  0  0  0
  2  3  1  0  0  0  0
  2  4  1  0  0  0  0
  3  4  1  0  0  0  0
  4  5  1  1  0  0  0
  5  6  1  0  0  0  0
  5 10  1  0  0  0  0
  6  7  2  0  0  0  0
  6  8  1  0  0  0  0
  8  9  1  0  0  0  0
  8 11  1  0  0  0  0
  9 12  1  0  0  0  0
  9 13  1  0  0  0  0
M  END
>  <CHROM.0>
-51.44127283,-62.79873125,-55.08304954,-52.23705054,-55.94399435,-57.66347146
-60.62652372,-174.47961367,-167.86494801,160.67110609

>  <CHROM.1>
165.48140516,-120.68170406,26.69860403,19.42863032,-17.96953792,5.24772677
-0.85566124,0.55868325,1.94292735

>  <Name>
P78273403

>  <RI>
0

>  <Rbt.Current_Directory>
/home/fstefaniak/projects/zuza/docking/adenine/1Y26

>  <Rbt.Executable>
rbdock ($Id: //depot/dev/client3/rdock/2013.1/src/exe/rbdock.cxx#4 $)

>  <Rbt.Library>
libRbt.so (2013.1, Build901 2013/11/27)

>  <Rbt.Parameter_File>
/home/fstefaniak/progs/rDock//data/scripts/dock_solv.prm

>  <Rbt.Receptor>
1y26.prm

>  <SCORE>
-60.5397

>  <SCORE.INTER>
-37.0822

>  <SCORE.INTER.CONST>
1

>  <SCORE.INTER.POLAR>
-4.98765

>  <SCORE.INTER.ROT>
3

>  <SCORE.INTER.SOLV>
14.0057

>  <SCORE.INTER.VDW>
-18.3645

>  <SCORE.INTER.norm>
-4.12024

>  <SCORE.INTRA>
-0.759731

>  <SCORE.INTRA.DIHEDRAL>
-0.949093

>  <SCORE.INTRA.DIHEDRAL.0>
2.96833

>  <SCORE.INTRA.POLAR>
0

>  <SCORE.INTRA.POLAR.0>
0

>  <SCORE.INTRA.REPUL>
0

>  <SCORE.INTRA.REPUL.0>
0

>  <SCORE.INTRA.SOLV>
-0.0531812

>  <SCORE.INTRA.SOLV.lig_0>
-18.0437

>  <SCORE.INTRA.VDW>
-0.258594

>  <SCORE.INTRA.VDW.0>
-0.607915

>  <SCORE.INTRA.norm>
-0.0844145

>  <SCORE.RESTR>
0

>  <SCORE.RESTR.CAVITY>
0

>  <SCORE.RESTR.norm>
0

>  <SCORE.SYSTEM>
-22.6977

>  <SCORE.SYSTEM.CONST>
0

>  <SCORE.SYSTEM.DIHEDRAL>
5.31724

>  <SCORE.SYSTEM.POLAR>
-3.42968

>  <SCORE.SYSTEM.SOLV>
0.452592

>  <SCORE.SYSTEM.VDW>
-5.62283

>  <SCORE.SYSTEM.norm>
-2.52197

>  <SCORE.heavy>
9

>  <SCORE.norm>
-6.72663

$$$$
P78273403
 OpenBabel12072022103D
libRbt.so/2013.1/901 2013/11/27
 13 13  0  0  0  0  0  0  0  0999 V2000
   21.3112  -15.4584    4.4551 C   0  0  0  0  0  0  0  0  0  0  0  0
   20.2197  -16.1716    3.7317 C   0  0  1  0  0  0  0  0  0  0  0  0
   20.4834  -17.5104    3.1013 C   0  0  0  0  0  0  0  0  0  0  0  0
   19.5619  -17.4108    4.2886 C   0  0  1  0  0  0  0  0  0  0  0  0
   19.9347  -17.9549    5.5526 N   0  0  0  0  0  0  0  0  0  0  0  0
   19.2331  -18.8581    6.3034 C   0  0  0  0  0  0  0  0  0  0  0  0
   19.5869  -19.1433    7.4456 O   0  0  0  0  0  0  0  0  0  0  0  0
   18.1096  -19.3904    5.6993 N   0  0  0  0  0  0  0  0  0  0  0  0
   16.8404  -19.1760    6.2934 N   0  0  0  0  0  0  0  0  0  0  0  0
   20.7194  -17.5500    6.0495 H   0  0  0  0  0  0  0  0  0  0  0  0
   18.2412  -20.2413    5.1605 H   0  0  0  0  0  0  0  0  0  0  0  0
   16.9033  -18.2977    6.8168 H   0  0  0  0  0  0  0  0  0  0  0  0
   16.7407  -19.8827    7.0356 H   0  0  0  0  0  0  0  0  0  0  0  0
  2  1  1  1  0  0  0
  2  3  1  0  0  0  0
  2  4  1  0  0  0  0
  3  4  1  0  0  0  0
  4  5  1  1  0  0  0
  5  6  1  0  0  0  0
  5 10  1  0  0  0  0
  6  7  2  0  0  0  0
  6  8  1  0  0  0  0
  8  9  1  0  0  0  0
  8 11  1  0  0  0  0
  9 12  1  0  0  0  0
  9 13  1  0  0  0  0
M  END
>  <CHROM.0>
-42.17800044,-58.48240283,-53.81236549,-52.80181010,-56.24185022,-57.30719821
-58.22943006,-174.99516100,-166.57577493,160.91521884

>  <CHROM.1>
163.59028470,-118.78171270,27.22526826,19.44819002,-17.93315591,5.27050526
-0.86876929,0.55753910,1.99034287

>  <Name>
P78273403

>  <RI>
0

>  <Rbt.Current_Directory>
/home/fstefaniak/projects/zuza/docking/adenine/1Y26

>  <Rbt.Executable>
rbdock ($Id: //depot/dev/client3/rdock/2013.1/src/exe/rbdock.cxx#4 $)

>  <Rbt.Library>
libRbt.so (2013.1, Build901 2013/11/27)

>  <Rbt.Parameter_File>
/home/fstefaniak/progs/rDock//data/scripts/dock_solv.prm

>  <Rbt.Receptor>
1y26.prm

>  <SCORE>
-60.3318

>  <SCORE.INTER>
-37.0615

>  <SCORE.INTER.CONST>
1

>  <SCORE.INTER.POLAR>
-4.98617

>  <SCORE.INTER.ROT>
3

>  <SCORE.INTER.SOLV>
14.0886

>  <SCORE.INTER.VDW>
-18.3834

>  <SCORE.INTER.norm>
-4.11795

>  <SCORE.INTRA>
-0.773606

>  <SCORE.INTRA.DIHEDRAL>
-0.963474

>  <SCORE.INTRA.DIHEDRAL.0>
2.96833

>  <SCORE.INTRA.POLAR>
0

>  <SCORE.INTRA.POLAR.0>
0

>  <SCORE.INTRA.REPUL>
0

>  <SCORE.INTRA.REPUL.0>
0

>  <SCORE.INTRA.SOLV>
-0.0504078

>  <SCORE.INTRA.SOLV.lig_0>
-18.0437

>  <SCORE.INTRA.VDW>
-0.266665

>  <SCORE.INTRA.VDW.0>
-0.607915

>  <SCORE.INTRA.norm>
-0.0859562

>  <SCORE.RESTR>
0

>  <SCORE.RESTR.CAVITY>
0

>  <SCORE.RESTR.norm>
0

>  <SCORE.SYSTEM>
-22.4967

>  <SCORE.SYSTEM.CONST>
0

>  <SCORE.SYSTEM.DIHEDRAL>
6.50129

>  <SCORE.SYSTEM.POLAR>
-3.57463

>  <SCORE.SYSTEM.SOLV>
0.472047

>  <SCORE.SYSTEM.VDW>
-5.40681

>  <SCORE.SYSTEM.norm>
-2.49963

>  <SCORE.heavy>
9

>  <SCORE.norm>
-6.70354

$$$$
P79172745
 OpenBabel12072022103D
libRbt.so/2013.1/901 2013/11/27
 13 12  0  0  0  0  0  0  0  0999 V2000
   21.2261  -17.8730    3.2637 C   0  0  0  0  0  0  0  0  0  0  0  0
   20.2038  -17.0331    4.0408 C   0  0  0  0  0  0  0  0  0  0  0  0
   20.5531  -15.5413    3.9755 C   0  0  0  0  0  0  0  0  0  0  0  0
   18.8194  -17.2460    3.3985 C   0  0  0  0  0  0  0  0  0  0  0  0
   20.1047  -17.4791    5.4332 N   0  0  0  0  0  0  0  0  0  0  0  0
   19.6998  -18.7137    5.8389 C   0  0  0  0  0  0  0  0  0  0  0  0
   19.5925  -19.7769    5.1097 N   0  0  0  0  0  0  0  0  0  0  0  0
   19.1204  -20.8601    5.8707 O   0  0  0  0  0  0  0  0  0  0  0  0
   19.3992  -18.6716    7.1645 N   0  0  0  0  0  0  0  0  0  0  0  0
   20.8714  -17.1502    6.0099 H   0  0  0  0  0  0  0  0  0  0  0  0
   18.2198  -20.9731    5.5146 H   0  0  0  0  0  0  0  0  0  0  0  0
   20.1426  -18.2380    7.6972 H   0  0  0  0  0  0  0  0  0  0  0  0
   18.5403  -18.1347    7.2663 H   0  0  0  0  0  0  0  0  0  0  0  0
  1  2  1  0  0  0  0
  2  3  1  0  0  0  0
  2  4  1  0  0  0  0
  2  5  1  0  0  0  0
  5  6  1  0  0  0  0
  5 10  1  0  0  0  0
  6  7  2  0  0  0  0
  6  9  1  0  0  0  0
  7  8  1  0  0  0  0
  8 11  1  0  0  0  0
  9 12  1  0  0  0  0
  9 13  1  0  0  0  0
M  END
>  <CHROM.0>
-160.81873152,-61.55662098,-55.10408265,-53.49006302,-56.21268840,-56.92195863
-59.73899584,-52.39080290,-166.04669913,162.27103979

>  <CHROM.1>
-62.11104929,14.97273199,-49.65588208,109.52608437,19.83888078,-18.16789416
4.93415293,0.03119076,-1.32400201,-2.16016124

>  <Name>
P79172745

>  <RI>
0

>  <Rbt.Current_Directory>
/home/fstefaniak/projects/zuza/docking/adenine/1Y26

>  <Rbt.Executable>
rbdock ($Id: //depot/dev/client3/rdock/2013.1/src/exe/rbdock.cxx#4 $)

>  <Rbt.Library>
libRbt.so (2013.1, Build901 2013/11/27)

>  <Rbt.Parameter_File>
/home/fstefaniak/progs/rDock//data/scripts/dock_solv.prm

>  <Rbt.Receptor>
1y26.prm

>  <SCORE>
-49.9751

>  <SCORE.INTER>
-29.467

>  <SCORE.INTER.CONST>
1

>  <SCORE.INTER.POLAR>
-4.26183

>  <SCORE.INTER.ROT>
3

>  <SCORE.INTER.SOLV>
13.0387

>  <SCORE.INTER.VDW>
-15.3848

>  <SCORE.INTER.norm>
-3.27412

>  <SCORE.INTRA>
-0.128535

>  <SCORE.INTRA.DIHEDRAL>
-1.83838

>  <SCORE.INTRA.DIHEDRAL.0>
3.24032

>  <SCORE.INTRA.POLAR>
0.209008

>  <SCORE.INTRA.POLAR.0>
-0.209008

>  <SCORE.INTRA.REPUL>
0

>  <SCORE.INTRA.REPUL.0>
0

>  <SCORE.INTRA.SOLV>
0.0452689

>  <SCORE.INTRA.SOLV.lig_0>
-9.84243

>  <SCORE.INTRA.VDW>
0.0573929

>  <SCORE.INTRA.VDW.0>
0.318508

>  <SCORE.INTRA.norm>
-0.0142817

>  <SCORE.RESTR>
0

>  <SCORE.RESTR.CAVITY>
0

>  <SCORE.RESTR.norm>
0

>  <SCORE.SYSTEM>
-20.3795

>  <SCORE.SYSTEM.CONST>
0

>  <SCORE.SYSTEM.DIHEDRAL>
6.61855

>  <SCORE.SYSTEM.POLAR>
-3.19545

>  <SCORE.SYSTEM.SOLV>
0.607282

>  <SCORE.SYSTEM.VDW>
-5.34342

>  <SCORE.SYSTEM.norm>
-2.26439

>  <SCORE.heavy>
9

>  <SCORE.norm>
-5.55278

$$$$
P79172745
 OpenBabel12072022103D
libRbt.so/2013.1/901 2013/11/27
 13 12  0  0  0  0  0  0  0  0999 V2000
   18.8106  -17.2371    3.3023 C   0  0  0  0  0  0  0  0  0  0  0  0
   20.2118  -17.0629    3.9026 C   0  0  0  0  0  0  0  0  0  0  0  0
   21.2450  -17.9036    3.1427 C   0  0  0  0  0  0  0  0  0  0  0  0
   20.6023  -15.5766    3.7884 C   0  0  0  0  0  0  0  0  0  0  0  0
   20.2202  -17.4009    5.3285 N   0  0  0  0  0  0  0  0  0  0  0  0
   19.7857  -18.5749    5.8632 C   0  0  0  0  0  0  0  0  0  0  0  0
   19.4976  -19.6624    5.2245 N   0  0  0  0  0  0  0  0  0  0  0  0
   19.0581  -20.6614    6.1100 O   0  0  0  0  0  0  0  0  0  0  0  0
   19.6789  -18.4385    7.2121 N   0  0  0  0  0  0  0  0  0  0  0  0
   21.0558  -17.0815    5.8063 H   0  0  0  0  0  0  0  0  0  0  0  0
   18.3607  -21.0963    5.5855 H   0  0  0  0  0  0  0  0  0  0  0  0
   20.4106  -17.8446    7.5812 H   0  0  0  0  0  0  0  0  0  0  0  0
   18.7677  -18.0288    7.4068 H   0  0  0  0  0  0  0  0  0  0  0  0
  1  2  1  0  0  0  0
  2  3  1  0  0  0  0
  2  4  1  0  0  0  0
  2  5  1  0  0  0  0
  5  6  1  0  0  0  0
  5 10  1  0  0  0  0
  6  7  2  0  0  0  0
  6  9  1  0  0  0  0
  7  8  1  0  0  0  0
  8 11  1  0  0  0  0
  9 12  1  0  0  0  0
  9 13  1  0  0  0  0
M  END
>  <CHROM.0>
-52.64569319,45.61484236,60.60667798,-53.18188076,-176.33423621,-60.32079271
75.33628870,-54.04946944,-167.24556412,162.56384339

>  <CHROM.1>
54.26822968,11.97693870,-35.86762509,142.69128025,19.88507997,-18.09133061
4.91188710,0.60518960,-1.27319701,-1.65953455

>  <Name>
P79172745

>  <RI>
0

>  <Rbt.Current_Directory>
/home/fstefaniak/projects/zuza/docking/adenine/1Y26

>  <Rbt.Executable>
rbdock ($Id: //depot/dev/client3/rdock/2013.1/src/exe/rbdock.cxx#4 $)

>  <Rbt.Library>
libRbt.so (2013.1, Build901 2013/11/27)

>  <Rbt.Parameter_File>
/home/fstefaniak/progs/rDock//data/scripts/dock_solv.prm

>  <Rbt.Receptor>
1y26.prm

>  <SCORE>
-48.1142

>  <SCORE.INTER>
-28.2956

>  <SCORE.INTER.CONST>
1

>  <SCORE.INTER.POLAR>
-4.26413

>  <SCORE.INTER.ROT>
3

>  <SCORE.INTER.SOLV>
13.058

>  <SCORE.INTER.VDW>
-14.6026

>  <SCORE.INTER.norm>
-3.14396

>  <SCORE.INTRA>
0.201698

>  <SCORE.INTRA.DIHEDRAL>
-0.834703

>  <SCORE.INTRA.DIHEDRAL.0>
3.24032

>  <SCORE.INTRA.POLAR>
0.209008

>  <SCORE.INTRA.POLAR.0>
-0.209008

>  <SCORE.INTRA.REPUL>
0

>  <SCORE.INTRA.REPUL.0>
0

>  <SCORE.INTRA.SOLV>
-0.0167505

>  <SCORE.INTRA.SOLV.lig_0>
-9.84243

>  <SCORE.INTRA.VDW>
-0.0832023

>  <SCORE.INTRA.VDW.0>
0.318508

>  <SCORE.INTRA.norm>
0.0224109

>  <SCORE.RESTR>
0

>  <SCORE.RESTR.CAVITY>
0

>  <SCORE.RESTR.norm>
0

>  <SCORE.SYSTEM>
-20.0203

>  <SCORE.SYSTEM.CONST>
0

>  <SCORE.SYSTEM.DIHEDRAL>
6.82072

>  <SCORE.SYSTEM.POLAR>
-3.69536

>  <SCORE.SYSTEM.SOLV>
0.404757

>  <SCORE.SYSTEM.VDW>
-3.4375

>  <SCORE.SYSTEM.norm>
-2.22448

>  <SCORE.heavy>
9

>  <SCORE.norm>
-5.34602

$$$$
P79172745
 OpenBabel12072022103D
libRbt.so/2013.1/901 2013/11/27
 13 12  0  0  0  0  0  0  0  0999 V2000
   22.6078  -13.7096    3.4780 C   0  0  0  0  0  0  0  0  0  0  0  0
   22.5094  -14.5754    4.7410 C   0  0  0  0  0  0  0  0  0  0  0  0
   23.7760  -15.4189    4.9304 C   0  0  0  0  0  0  0  0  0  0  0  0
   22.3522  -13.6389    5.9546 C   0  0  0  0  0  0  0  0  0  0  0  0
   21.3207  -15.4314    4.7019 N   0  0  0  0  0  0  0  0  0  0  0  0
   20.8777  -16.1165    3.6124 C   0  0  0  0  0  0  0  0  0  0  0  0
   21.5166  -17.0273    2.9522 N   0  0  0  0  0  0  0  0  0  0  0  0
   20.7490  -17.4928    1.8707 O   0  0  0  0  0  0  0  0  0  0  0  0
   19.6280  -15.6862    3.2923 N   0  0  0  0  0  0  0  0  0  0  0  0
   21.2061  -15.9886    5.5417 H   0  0  0  0  0  0  0  0  0  0  0  0
   20.2214  -18.1960    2.2922 H   0  0  0  0  0  0  0  0  0  0  0  0
   19.0030  -15.7471    4.0860 H   0  0  0  0  0  0  0  0  0  0  0  0
   19.7069  -14.7187    2.9858 H   0  0  0  0  0  0  0  0  0  0  0  0
  1  2  1  0  0  0  0
  2  3  1  0  0  0  0
  2  4  1  0  0  0  0
  2  5  1  0  0  0  0
  5  6  1  0  0  0  0
  5 10  1  0  0  0  0
  6  7  2  0  0  0  0
  6  9  1  0  0  0  0
  7  8  1  0  0  0  0
  8 11  1  0  0  0  0
  9 12  1  0  0  0  0
  9 13  1  0  0  0  0
M  END
>  <CHROM.0>
-179.12924151,-65.41542861,59.46218344,-53.19194058,-57.16868527,-177.11422607
78.06775681,-52.96287254,-167.08692409,161.06964847

>  <CHROM.1>
42.31296219,60.07932372,-54.09538479,-86.74162598,21.66703628,-15.48306092
3.92255369,-1.03053387,0.16237083,-2.48684763

>  <Name>
P79172745

>  <RI>
0

>  <Rbt.Current_Directory>
/home/fstefaniak/projects/zuza/docking/adenine/1Y26

>  <Rbt.Executable>
rbdock ($Id: //depot/dev/client3/rdock/2013.1/src/exe/rbdock.cxx#4 $)

>  <Rbt.Library>
libRbt.so (2013.1, Build901 2013/11/27)

>  <Rbt.Parameter_File>
/home/fstefaniak/progs/rDock//data/scripts/dock_solv.prm

>  <Rbt.Receptor>
1y26.prm

>  <SCORE>
-47.2357

>  <SCORE.INTER>
-27.0045

>  <SCORE.INTER.CONST>
1

>  <SCORE.INTER.POLAR>
-4.40847

>  <SCORE.INTER.ROT>
3

>  <SCORE.INTER.SOLV>
11.2117

>  <SCORE.INTER.VDW>
-12.6453

>  <SCORE.INTER.norm>
-3.0005

>  <SCORE.INTRA>
-0.599822

>  <SCORE.INTRA.DIHEDRAL>
-1.98103

>  <SCORE.INTRA.DIHEDRAL.0>
3.24032

>  <SCORE.INTRA.POLAR>
0.209008

>  <SCORE.INTRA.POLAR.0>
-0.209008

>  <SCORE.INTRA.REPUL>
0

>  <SCORE.INTRA.REPUL.0>
0

>  <SCORE.INTRA.SOLV>
0.0895108

>  <SCORE.INTRA.SOLV.lig_0>
-9.84243

>  <SCORE.INTRA.VDW>
-0.364688

>  <SCORE.INTRA.VDW.0>
0.318508

>  <SCORE.INTRA.norm>
-0.0666469

>  <SCORE.RESTR>
0

>  <SCORE.RESTR.CAVITY>
0

>  <SCORE.RESTR.norm>
0

>  <SCORE.SYSTEM>
-19.6313

>  <SCORE.SYSTEM.CONST>
0

>  <SCORE.SYSTEM.DIHEDRAL>
6.44549

>  <SCORE.SYSTEM.POLAR>
-3.54427

>  <SCORE.SYSTEM.SOLV>
0.290962

>  <SCORE.SYSTEM.VDW>
-3.5188

>  <SCORE.SYSTEM.norm>
-2.18126

>  <SCORE.heavy>
9

>  <SCORE.norm>
-5.24841

$$$$
P79173498
 OpenBabel12072022103D
libRbt.so/2013.1/901 2013/11/27
 15 15  0  0  0  0  0  0  0  0999 V2000
   20.8176  -17.2336    3.8633 C   0  0  0  0  0  0  0  0  0  0  0  0
   21.0985  -15.7489    3.6735 C   0  0  0  0  0  0  0  0  0  0  0  0
   21.9591  -15.1576    4.8063 C   0  0  1  0  0  0  0  0  0  0  0  0
   23.4521  -15.5241    4.6332 C   0  0  0  0  0  0  0  0  0  0  0  0
   24.0379  -14.8841    3.4870 O   0  0  0  0  0  0  0  0  0  0  0  0
   23.9531  -13.4548    3.6246 C   0  0  0  0  0  0  0  0  0  0  0  0
   22.4940  -12.9991    3.7369 C   0  0  0  0  0  0  0  0  0  0  0  0
   21.8231  -13.6732    4.8741 N   0  0  0  0  0  0  0  0  0  0  0  0
   21.8730  -13.0520    6.1041 C   0  0  0  0  0  0  0  0  0  0  0  0
   21.4117  -11.8587    6.3413 N   0  0  0  0  0  0  0  0  0  0  0  0
   21.5719  -11.5177    7.6955 O   0  0  0  0  0  0  0  0  0  0  0  0
   22.4173  -13.8360    7.0743 N   0  0  0  0  0  0  0  0  0  0  0  0
   20.8988  -12.0781    8.1233 H   0  0  0  0  0  0  0  0  0  0  0  0
   23.3013  -14.2266    6.7752 H   0  0  0  0  0  0  0  0  0  0  0  0
   21.7500  -14.5698    7.2982 H   0  0  0  0  0  0  0  0  0  0  0  0
  1  2  1  0  0  0  0
  3  2  1  6  0  0  0
  3  4  1  0  0  0  0
  3  8  1  0  0  0  0
  4  5  1  0  0  0  0
  5  6  1  0  0  0  0
  6  7  1  0  0  0  0
  7  8  1  0  0  0  0
  8  9  1  0  0  0  0
  9 10  2  0  0  0  0
  9 12  1  0  0  0  0
 10 11  1  0  0  0  0
 11 13  1  0  0  0  0
 12 14  1  0  0  0  0
 12 15  1  0  0  0  0
M  END
>  <CHROM.0>
-47.27006301,-177.03340791,62.48340156,-50.91156130,-57.64226404,-176.04086561
75.49938738,-176.79993449,-166.94550999,160.93992553

>  <CHROM.1>
77.89000105,-160.15192344,50.39266033,-72.44763628,22.24851531,-14.07477064
5.02966991,1.43783205,-0.66331781,-2.51226399

>  <Name>
P79173498

>  <RI>
0

>  <Rbt.Current_Directory>
/home/fstefaniak/projects/zuza/docking/adenine/1Y26

>  <Rbt.Executable>
rbdock ($Id: //depot/dev/client3/rdock/2013.1/src/exe/rbdock.cxx#4 $)

>  <Rbt.Library>
libRbt.so (2013.1, Build901 2013/11/27)

>  <Rbt.Parameter_File>
/home/fstefaniak/progs/rDock//data/scripts/dock_solv.prm

>  <Rbt.Receptor>
1y26.prm

>  <SCORE>
-47.3999

>  <SCORE.INTER>
-27.8803

>  <SCORE.INTER.CONST>
1

>  <SCORE.INTER.POLAR>
-3.98089

>  <SCORE.INTER.ROT>
3

>  <SCORE.INTER.SOLV>
10.3915

>  <SCORE.INTER.VDW>
-14.381

>  <SCORE.INTER.norm>
-2.32335

>  <SCORE.INTRA>
1.70344

>  <SCORE.INTRA.DIHEDRAL>
-0.641947

>  <SCORE.INTRA.DIHEDRAL.0>
2.98375

>  <SCORE.INTRA.POLAR>
0.199939

>  <SCORE.INTRA.POLAR.0>
-0.199939

>  <SCORE.INTRA.REPUL>
0

>  <SCORE.INTRA.REPUL.0>
0

>  <SCORE.INTRA.SOLV>
0.0749761

>  <SCORE.INTRA.SOLV.lig_0>
-11.7734

>  <SCORE.INTRA.VDW>
1.30713

>  <SCORE.INTRA.VDW.0>
-0.726431

>  <SCORE.INTRA.norm>
0.141953

>  <SCORE.RESTR>
0.0163194

>  <SCORE.RESTR.CAVITY>
0.0163194

>  <SCORE.RESTR.norm>
0.00135995

>  <SCORE.SYSTEM>
-21.2394

>  <SCORE.SYSTEM.CONST>
0

>  <SCORE.SYSTEM.DIHEDRAL>
6.80861

>  <SCORE.SYSTEM.POLAR>
-3.76741

>  <SCORE.SYSTEM.SOLV>
0.0820323

>  <SCORE.SYSTEM.VDW>
-3.89842

>  <SCORE.SYSTEM.norm>
-1.76995

>  <SCORE.heavy>
12

>  <SCORE.norm>
-3.94999

$$$$
P79173498
 OpenBabel12072022103D
libRbt.so/2013.1/901 2013/11/27
 15 15  0  0  0  0  0  0  0  0999 V2000
   21.7069  -14.5688    4.8777 C   0  0  0  0  0  0  0  0  0  0  0  0
   20.5649  -15.3074    4.1925 C   0  0  0  0  0  0  0  0  0  0  0  0
   20.9565  -16.7315    3.7542 C   0  0  1  0  0  0  0  0  0  0  0  0
   20.7478  -17.7529    4.8971 C   0  0  0  0  0  0  0  0  0  0  0  0
   19.3572  -17.9398    5.2097 O   0  0  0  0  0  0  0  0  0  0  0  0
   18.6544  -18.4291    4.0541 C   0  0  0  0  0  0  0  0  0  0  0  0
   18.7568  -17.4390    2.8886 C   0  0  0  0  0  0  0  0  0  0  0  0
   20.1762  -17.1664    2.5590 N   0  0  0  0  0  0  0  0  0  0  0  0
   20.7817  -17.9783    1.6235 C   0  0  0  0  0  0  0  0  0  0  0  0
   21.9929  -18.4417    1.7299 N   0  0  0  0  0  0  0  0  0  0  0  0
   22.3121  -19.2697    0.6398 O   0  0  0  0  0  0  0  0  0  0  0  0
   19.9631  -18.2931    0.5827 N   0  0  0  0  0  0  0  0  0  0  0  0
   22.4695  -18.6171   -0.0670 H   0  0  0  0  0  0  0  0  0  0  0  0
   19.8375  -19.2941    0.5065 H   0  0  0  0  0  0  0  0  0  0  0  0
   20.3706  -17.9097   -0.2663 H   0  0  0  0  0  0  0  0  0  0  0  0
  1  2  1  0  0  0  0
  3  2  1  1  0  0  0
  3  4  1  0  0  0  0
  3  8  1  0  0  0  0
  4  5  1  0  0  0  0
  5  6  1  0  0  0  0
  6  7  1  0  0  0  0
  7  8  1  0  0  0  0
  8  9  1  0  0  0  0
  9 10  2  0  0  0  0
  9 12  1  0  0  0  0
 10 11  1  0  0  0  0
 11 13  1  0  0  0  0
 12 14  1  0  0  0  0
 12 15  1  0  0  0  0
M  END
>  <CHROM.0>
-47.75982231,-65.38478204,60.58225714,-50.29190841,-56.34665009,-68.58837257
76.34785382,-176.01420293,-167.29513907,160.49164762

>  <CHROM.1>
86.51921565,2.56379879,-120.69191347,76.03232783,20.51311167,-17.47093640
3.05165028,-1.79221671,-0.56950364,-2.26119702

>  <Name>
P79173498

>  <RI>
0

>  <Rbt.Current_Directory>
/home/fstefaniak/projects/zuza/docking/adenine/1Y26

>  <Rbt.Executable>
rbdock ($Id: //depot/dev/client3/rdock/2013.1/src/exe/rbdock.cxx#4 $)

>  <Rbt.Library>
libRbt.so (2013.1, Build901 2013/11/27)

>  <Rbt.Parameter_File>
/home/fstefaniak/progs/rDock//data/scripts/dock_solv.prm

>  <Rbt.Receptor>
1y26.prm

>  <SCORE>
-47.1692

>  <SCORE.INTER>
-27.4413

>  <SCORE.INTER.CONST>
1

>  <SCORE.INTER.POLAR>
-4.65639

>  <SCORE.INTER.ROT>
3

>  <SCORE.INTER.SOLV>
13.5687

>  <SCORE.INTER.VDW>
-12.8957

>  <SCORE.INTER.norm>
-2.28677

>  <SCORE.INTRA>
1.4932

>  <SCORE.INTRA.DIHEDRAL>
0.473757

>  <SCORE.INTRA.DIHEDRAL.0>
2.98375

>  <SCORE.INTRA.POLAR>
0.199939

>  <SCORE.INTRA.POLAR.0>
-0.199939

>  <SCORE.INTRA.REPUL>
0

>  <SCORE.INTRA.REPUL.0>
0

>  <SCORE.INTRA.SOLV>
-0.285186

>  <SCORE.INTRA.SOLV.lig_0>
-11.7734

>  <SCORE.INTRA.VDW>
0.719127

>  <SCORE.INTRA.VDW.0>
-0.726431

>  <SCORE.INTRA.norm>
0.124434

>  <SCORE.RESTR>
0

>  <SCORE.RESTR.CAVITY>
0

>  <SCORE.RESTR.norm>
0

>  <SCORE.SYSTEM>
-21.2211

>  <SCORE.SYSTEM.CONST>
0

>  <SCORE.SYSTEM.DIHEDRAL>
7.33408

>  <SCORE.SYSTEM.POLAR>
-3.80356

>  <SCORE.SYSTEM.SOLV>
0.258076

>  <SCORE.SYSTEM.VDW>
-3.99961

>  <SCORE.SYSTEM.norm>
-1.76843

>  <SCORE.heavy>
12

>  <SCORE.norm>
-3.93077

$$$$
P79173498
 OpenBabel12072022103D
libRbt.so/2013.1/901 2013/11/27
 15 15  0  0  0  0  0  0  0  0999 V2000
   21.8425  -14.3234    4.5594 C   0  0  0  0  0  0  0  0  0  0  0  0
   20.6487  -15.0934    4.0108 C   0  0  0  0  0  0  0  0  0  0  0  0
   21.0164  -16.5221    3.5667 C   0  0  1  0  0  0  0  0  0  0  0  0
   21.2063  -17.4611    4.7814 C   0  0  0  0  0  0  0  0  0  0  0  0
   19.9718  -17.7040    5.4769 O   0  0  0  0  0  0  0  0  0  0  0  0
   19.0219  -18.3230    4.5917 C   0  0  0  0  0  0  0  0  0  0  0  0
   18.7263  -17.4232    3.3867 C   0  0  0  0  0  0  0  0  0  0  0  0
   19.9771  -17.0946    2.6619 N   0  0  0  0  0  0  0  0  0  0  0  0
   20.3672  -17.9406    1.6454 C   0  0  0  0  0  0  0  0  0  0  0  0
   21.6058  -18.1910    1.3353 N   0  0  0  0  0  0  0  0  0  0  0  0
   21.6830  -19.1206    0.2839 O   0  0  0  0  0  0  0  0  0  0  0  0
   19.3173  -18.5357    1.0162 N   0  0  0  0  0  0  0  0  0  0  0  0
   21.8429  -18.5410   -0.4834 H   0  0  0  0  0  0  0  0  0  0  0  0
   19.4789  -19.5269    0.8937 H   0  0  0  0  0  0  0  0  0  0  0  0
   19.1830  -18.0734    0.1207 H   0  0  0  0  0  0  0  0  0  0  0  0
  1  2  1  0  0  0  0
  3  2  1  1  0  0  0
  3  4  1  0  0  0  0
  3  8  1  0  0  0  0
  4  5  1  0  0  0  0
  5  6  1  0  0  0  0
  6  7  1  0  0  0  0
  7  8  1  0  0  0  0
  8  9  1  0  0  0  0
  9 10  2  0  0  0  0
  9 12  1  0  0  0  0
 10 11  1  0  0  0  0
 11 13  1  0  0  0  0
 12 14  1  0  0  0  0
 12 15  1  0  0  0  0
M  END
>  <CHROM.0>
-45.69369098,-164.35698591,-62.31734337,-50.60655280,-54.06542223,-67.05492601
-168.28486158,-51.78237634,-166.07320098,163.45351718

>  <CHROM.1>
75.61640905,-6.42519421,-133.83552017,99.83538373,20.45823052,-17.34030152
3.07660576,-1.56844428,-0.75783422,-2.16978316

>  <Name>
P79173498

>  <RI>
0

>  <Rbt.Current_Directory>
/home/fstefaniak/projects/zuza/docking/adenine/1Y26

>  <Rbt.Executable>
rbdock ($Id: //depot/dev/client3/rdock/2013.1/src/exe/rbdock.cxx#4 $)

>  <Rbt.Library>
libRbt.so (2013.1, Build901 2013/11/27)

>  <Rbt.Parameter_File>
/home/fstefaniak/progs/rDock//data/scripts/dock_solv.prm

>  <Rbt.Receptor>
1y26.prm

>  <SCORE>
-45.6801

>  <SCORE.INTER>
-25.9941

>  <SCORE.INTER.CONST>
1

>  <SCORE.INTER.POLAR>
-5.79416

>  <SCORE.INTER.ROT>
3

>  <SCORE.INTER.SOLV>
13.3941

>  <SCORE.INTER.VDW>
-8.08027

>  <SCORE.INTER.norm>
-2.16618

>  <SCORE.INTRA>
1.1314

>  <SCORE.INTRA.DIHEDRAL>
-1.07708

>  <SCORE.INTRA.DIHEDRAL.0>
2.98375

>  <SCORE.INTRA.POLAR>
0.199939

>  <SCORE.INTRA.POLAR.0>
-0.199939

>  <SCORE.INTRA.REPUL>
0

>  <SCORE.INTRA.REPUL.0>
0

>  <SCORE.INTRA.SOLV>
-0.269561

>  <SCORE.INTRA.SOLV.lig_0>
-11.7734

>  <SCORE.INTRA.VDW>
1.12493

>  <SCORE.INTRA.VDW.0>
-0.726431

>  <SCORE.INTRA.norm>
0.0942832

>  <SCORE.RESTR>
0

>  <SCORE.RESTR.CAVITY>
0

>  <SCORE.RESTR.norm>
0

>  <SCORE.SYSTEM>
-20.8173

>  <SCORE.SYSTEM.CONST>
0

>  <SCORE.SYSTEM.DIHEDRAL>
7.92928

>  <SCORE.SYSTEM.POLAR>
-3.46819

>  <SCORE.SYSTEM.SOLV>
0.537332

>  <SCORE.SYSTEM.VDW>
-5.1398

>  <SCORE.SYSTEM.norm>
-1.73478

>  <SCORE.heavy>
12

>  <SCORE.norm>
-3.80667

$$$$
P79173919
 OpenBabel12072022103D
libRbt.so/2013.1/901 2013/11/27
 16 17  0  0  0  0  0  0  0  0999 V2000
   18.7882  -18.9139    6.7568 C   0  0  0  0  0  0  0  0  0  0  0  0
   20.0950  -18.3095    6.2067 C   0  0  0  0  0  0  0  0  0  0  0  0
   19.9957  -18.5367    4.7103 C   0  0  1  0  0  0  0  0  0  0  0  0
   18.4997  -18.4136    4.4211 C   0  0  2  0  0  0  0  0  0  0  0  0
   17.9038  -19.2429    5.5451 C   0  0  0  0  0  0  0  0  0  0  0  0
   18.2034  -18.9087    3.1135 O   0  0  0  0  0  0  0  0  0  0  0  0
   18.9411  -18.1451    2.1298 C   0  0  0  0  0  0  0  0  0  0  0  0
   20.4693  -18.1380    2.3830 C   0  0  0  0  0  0  0  0  0  0  0  0
   20.7488  -17.7061    3.7709 N   0  0  0  0  0  0  0  0  0  0  0  0
   21.2502  -16.4510    3.9888 C   0  0  0  0  0  0  0  0  0  0  0  0
   20.6708  -15.3055    3.7730 N   0  0  0  0  0  0  0  0  0  0  0  0
   19.4177  -15.4649    3.1660 O   0  0  0  0  0  0  0  0  0  0  0  0
   22.4769  -16.4230    4.5693 N   0  0  0  0  0  0  0  0  0  0  0  0
   18.8367  -15.6034    3.9344 H   0  0  0  0  0  0  0  0  0  0  0  0
   22.9438  -17.3172    4.5391 H   0  0  0  0  0  0  0  0  0  0  0  0
   22.3910  -16.0971    5.5266 H   0  0  0  0  0  0  0  0  0  0  0  0
  1  2  1  0  0  0  0
  1  5  1  0  0  0  0
  3  2  1  1  0  0  0
  3  4  1  0  0  0  0
  3  9  1  0  0  0  0
  4  5  1  1  0  0  0
  4  6  1  0  0  0  0
  6  7  1  0  0  0  0
  7  8  1  0  0  0  0
  8  9  1  0  0  0  0
  9 10  1  0  0  0  0
 10 11  2  0  0  0  0
 10 13  1  0  0  0  0
 11 12  1  0  0  0  0
 12 14  1  0  0  0  0
 13 15  1  0  0  0  0
 13 16  1  0  0  0  0
M  END
>  <CHROM.0>
-52.19671323,-64.12041629,-50.82612552,-52.43781178,-53.72945591,-59.22858188
-66.12861727,-177.45338394,-167.13099976,160.67532885

>  <CHROM.1>
-90.20414746,14.93573373,85.75784720,19.79922372,-17.66171823,4.17843858
-2.49551913,-0.69088074,-1.21638713

>  <Name>
P79173919

>  <RI>
0

>  <Rbt.Current_Directory>
/home/fstefaniak/projects/zuza/docking/adenine/1Y26

>  <Rbt.Executable>
rbdock ($Id: //depot/dev/client3/rdock/2013.1/src/exe/rbdock.cxx#4 $)

>  <Rbt.Library>
libRbt.so (2013.1, Build901 2013/11/27)

>  <Rbt.Parameter_File>
/home/fstefaniak/progs/rDock//data/scripts/dock_solv.prm

>  <Rbt.Receptor>
1y26.prm

>  <SCORE>
-55.681

>  <SCORE.INTER>
-31.7368

>  <SCORE.INTER.CONST>
1

>  <SCORE.INTER.POLAR>
-4.36161

>  <SCORE.INTER.ROT>
2

>  <SCORE.INTER.SOLV>
13.6253

>  <SCORE.INTER.VDW>
-16.0943

>  <SCORE.INTER.norm>
-2.44129

>  <SCORE.INTRA>
-1.33934

>  <SCORE.INTRA.DIHEDRAL>
-1.91417

>  <SCORE.INTRA.DIHEDRAL.0>
2.92857

>  <SCORE.INTRA.POLAR>
0

>  <SCORE.INTRA.POLAR.0>
0

>  <SCORE.INTRA.REPUL>
0

>  <SCORE.INTRA.REPUL.0>
0

>  <SCORE.INTRA.SOLV>
-0.00206851

>  <SCORE.INTRA.SOLV.lig_0>
-11.7025

>  <SCORE.INTRA.VDW>
-0.381219

>  <SCORE.INTRA.VDW.0>
-1.16616

>  <SCORE.INTRA.norm>
-0.103026

>  <SCORE.RESTR>
0

>  <SCORE.RESTR.CAVITY>
0

>  <SCORE.RESTR.norm>
0

>  <SCORE.SYSTEM>
-22.6048

>  <SCORE.SYSTEM.CONST>
0

>  <SCORE.SYSTEM.DIHEDRAL>
5.78856

>  <SCORE.SYSTEM.POLAR>
-3.45858

>  <SCORE.SYSTEM.SOLV>
0.440737

>  <SCORE.SYSTEM.VDW>
-5.61771

>  <SCORE.SYSTEM.norm>
-1.73883

>  <SCORE.heavy>
13

>  <SCORE.norm>
-4.28315

$$$$
P79173919
 OpenBabel12072022103D
libRbt.so/2013.1/901 2013/11/27
 16 17  0  0  0  0  0  0  0  0999 V2000
   18.8809  -18.8543    6.7145 C   0  0  0  0  0  0  0  0  0  0  0  0
   20.1259  -18.2805    6.0098 C   0  0  0  0  0  0  0  0  0  0  0  0
   19.8473  -18.5153    4.5374 C   0  0  1  0  0  0  0  0  0  0  0  0
   18.3305  -18.3632    4.4243 C   0  0  2  0  0  0  0  0  0  0  0  0
   17.8542  -19.1729    5.6176 C   0  0  0  0  0  0  0  0  0  0  0  0
   17.8733  -18.8607    3.1648 O   0  0  0  0  0  0  0  0  0  0  0  0
   18.5054  -18.1187    2.0947 C   0  0  0  0  0  0  0  0  0  0  0  0
   20.0526  -18.1414    2.1672 C   0  0  0  0  0  0  0  0  0  0  0  0
   20.5014  -17.7064    3.5090 N   0  0  0  0  0  0  0  0  0  0  0  0
   21.0494  -16.4606    3.6556 C   0  0  0  0  0  0  0  0  0  0  0  0
   22.2989  -16.1137    3.5417 N   0  0  0  0  0  0  0  0  0  0  0  0
   23.1269  -17.2234    3.3244 O   0  0  0  0  0  0  0  0  0  0  0  0
   20.1505  -15.4675    3.8753 N   0  0  0  0  0  0  0  0  0  0  0  0
   23.0474  -17.7035    4.1673 H   0  0  0  0  0  0  0  0  0  0  0  0
   19.2119  -15.8132    4.0105 H   0  0  0  0  0  0  0  0  0  0  0  0
   20.1805  -14.8072    3.1053 H   0  0  0  0  0  0  0  0  0  0  0  0
  1  2  1  0  0  0  0
  1  5  1  0  0  0  0
  3  2  1  1  0  0  0
  3  4  1  0  0  0  0
  3  9  1  0  0  0  0
  4  5  1  1  0  0  0
  4  6  1  0  0  0  0
  6  7  1  0  0  0  0
  7  8  1  0  0  0  0
  8  9  1  0  0  0  0
  9 10  1  0  0  0  0
 10 11  2  0  0  0  0
 10 13  1  0  0  0  0
 11 12  1  0  0  0  0
 12 14  1  0  0  0  0
 13 15  1  0  0  0  0
 13 16  1  0  0  0  0
M  END
>  <CHROM.0>
-52.23844791,-60.52128947,-52.37292957,-52.46560383,-58.94745078,-59.67835076
-60.11143409,-54.08459455,-167.28964817,160.36126253

>  <CHROM.1>
114.90746663,7.01322737,-66.49421025,19.91587186,-17.77640791,4.02680872
-2.68434172,-0.47903699,-1.37423309

>  <Name>
P79173919

>  <RI>
0

>  <Rbt.Current_Directory>
/home/fstefaniak/projects/zuza/docking/adenine/1Y26

>  <Rbt.Executable>
rbdock ($Id: //depot/dev/client3/rdock/2013.1/src/exe/rbdock.cxx#4 $)

>  <Rbt.Library>
libRbt.so (2013.1, Build901 2013/11/27)

>  <Rbt.Parameter_File>
/home/fstefaniak/progs/rDock//data/scripts/dock_solv.prm

>  <Rbt.Receptor>
1y26.prm

>  <SCORE>
-55.2783

>  <SCORE.INTER>
-31.8784

>  <SCORE.INTER.CONST>
1

>  <SCORE.INTER.POLAR>
-3.53556

>  <SCORE.INTER.ROT>
2

>  <SCORE.INTER.SOLV>
13.3601

>  <SCORE.INTER.VDW>
-18.8538

>  <SCORE.INTER.norm>
-2.45219

>  <SCORE.INTRA>
-1.1497

>  <SCORE.INTRA.DIHEDRAL>
-1.6271

>  <SCORE.INTRA.DIHEDRAL.0>
2.92857

>  <SCORE.INTRA.POLAR>
0

>  <SCORE.INTRA.POLAR.0>
0

>  <SCORE.INTRA.REPUL>
0

>  <SCORE.INTRA.REPUL.0>
0

>  <SCORE.INTRA.SOLV>
0.00921387

>  <SCORE.INTRA.SOLV.lig_0>
-11.7025

>  <SCORE.INTRA.VDW>
-0.340759

>  <SCORE.INTRA.VDW.0>
-1.16616

>  <SCORE.INTRA.norm>
-0.0884387

>  <SCORE.RESTR>
0

>  <SCORE.RESTR.CAVITY>
0

>  <SCORE.RESTR.norm>
0

>  <SCORE.SYSTEM>
-22.2502

>  <SCORE.SYSTEM.CONST>
0

>  <SCORE.SYSTEM.DIHEDRAL>
5.39223

>  <SCORE.SYSTEM.POLAR>
-3.4667

>  <SCORE.SYSTEM.SOLV>
0.660819

>  <SCORE.SYSTEM.VDW>
-5.29546

>  <SCORE.SYSTEM.norm>
-1.71155

>  <SCORE.heavy>
13

>  <SCORE.norm>
-4.25218

$$$$
P79173919
 OpenBabel12072022103D
libRbt.so/2013.1/901 2013/11/27
 16 17  0  0  0  0  0  0  0  0999 V2000
   18.8676  -18.8714    6.6910 C   0  0  0  0  0  0  0  0  0  0  0  0
   20.1189  -18.2953    5.9996 C   0  0  0  0  0  0  0  0  0  0  0  0
   19.8493  -18.5162    4.5234 C   0  0  1  0  0  0  0  0  0  0  0  0
   18.3337  -18.3584    4.4017 C   0  0  2  0  0  0  0  0  0  0  0  0
   17.8471  -19.1769    5.5847 C   0  0  0  0  0  0  0  0  0  0  0  0
   17.8832  -18.8432    3.1349 O   0  0  0  0  0  0  0  0  0  0  0  0
   18.5247  -18.0938    2.0756 C   0  0  0  0  0  0  0  0  0  0  0  0
   20.0713  -18.1221    2.1580 C   0  0  0  0  0  0  0  0  0  0  0  0
   20.5126  -17.7004    3.5065 N   0  0  0  0  0  0  0  0  0  0  0  0
   21.0636  -16.4577    3.6677 C   0  0  0  0  0  0  0  0  0  0  0  0
   22.3131  -16.1114    3.5524 N   0  0  0  0  0  0  0  0  0  0  0  0
   23.1381  -17.2194    3.3155 O   0  0  0  0  0  0  0  0  0  0  0  0
   20.1676  -15.4663    3.9057 N   0  0  0  0  0  0  0  0  0  0  0  0
   23.0666  -17.7079    4.1543 H   0  0  0  0  0  0  0  0  0  0  0  0
   19.2297  -15.8125    4.0445 H   0  0  0  0  0  0  0  0  0  0  0  0
   20.1922  -14.7974    3.1430 H   0  0  0  0  0  0  0  0  0  0  0  0
  1  2  1  0  0  0  0
  1  5  1  0  0  0  0
  3  2  1  1  0  0  0
  3  4  1  0  0  0  0
  3  9  1  0  0  0  0
  4  5  1  1  0  0  0
  4  6  1  0  0  0  0
  6  7  1  0  0  0  0
  7  8  1  0  0  0  0
  8  9  1  0  0  0  0
  9 10  1  0  0  0  0
 10 11  2  0  0  0  0
 10 13  1  0  0  0  0
 11 12  1  0  0  0  0
 12 14  1  0  0  0  0
 13 15  1  0  0  0  0
 13 16  1  0  0  0  0
M  END
>  <CHROM.0>
-50.79946298,-60.76692337,-54.95092050,-51.62207158,-174.30290669,-55.96013540
-62.11261932,-49.62198342,-167.72591466,160.29494417

>  <CHROM.1>
115.63436391,7.24830519,-66.85583804,19.92327687,-17.77270500,4.01775605
-2.69091065,-0.47880031,-1.37428908

>  <Name>
P79173919

>  <RI>
0

>  <Rbt.Current_Directory>
/home/fstefaniak/projects/zuza/docking/adenine/1Y26

>  <Rbt.Executable>
rbdock ($Id: //depot/dev/client3/rdock/2013.1/src/exe/rbdock.cxx#4 $)

>  <Rbt.Library>
libRbt.so (2013.1, Build901 2013/11/27)

>  <Rbt.Parameter_File>
/home/fstefaniak/progs/rDock//data/scripts/dock_solv.prm

>  <Rbt.Receptor>
1y26.prm

>  <SCORE>
-55.1331

>  <SCORE.INTER>
-31.8303

>  <SCORE.INTER.CONST>
1

>  <SCORE.INTER.POLAR>
-3.56429

>  <SCORE.INTER.ROT>
2

>  <SCORE.INTER.SOLV>
13.3194

>  <SCORE.INTER.VDW>
-18.7124

>  <SCORE.INTER.norm>
-2.44849

>  <SCORE.INTRA>
-1.15272

>  <SCORE.INTRA.DIHEDRAL>
-1.63486

>  <SCORE.INTRA.DIHEDRAL.0>
2.92857

>  <SCORE.INTRA.POLAR>
0

>  <SCORE.INTRA.POLAR.0>
0

>  <SCORE.INTRA.REPUL>
0

>  <SCORE.INTRA.REPUL.0>
0

>  <SCORE.INTRA.SOLV>
0.0116169

>  <SCORE.INTRA.SOLV.lig_0>
-11.7025

>  <SCORE.INTRA.VDW>
-0.341103

>  <SCORE.INTRA.VDW.0>
-1.16616

>  <SCORE.INTRA.norm>
-0.0886711

>  <SCORE.RESTR>
0

>  <SCORE.RESTR.CAVITY>
0

>  <SCORE.RESTR.norm>
0

>  <SCORE.SYSTEM>
-22.1501

>  <SCORE.SYSTEM.CONST>
0

>  <SCORE.SYSTEM.DIHEDRAL>
5.93976

>  <SCORE.SYSTEM.POLAR>
-3.50939

>  <SCORE.SYSTEM.SOLV>
0.502124

>  <SCORE.SYSTEM.VDW>
-5.21603

>  <SCORE.SYSTEM.norm>
-1.70385

>  <SCORE.heavy>
13

>  <SCORE.norm>
-4.24101

$$$$
P79187767
 OpenBabel12072022103D
libRbt.so/2013.1/901 2013/11/27
 12 13  0  0  0  0  0  0  0  0999 V2000
   19.3662  -18.0095    2.9662 C   0  0  0  0  0  0  0  0  0  0  0  0
   19.1109  -16.5892    3.4439 C   0  0  0  0  0  0  0  0  0  0  0  0
   20.1653  -16.3084    4.4283 N   0  0  1  0  0  0  0  0  0  0  0  0
   20.3335  -17.5790    5.1559 C   0  0  0  0  0  0  0  0  0  0  0  0
   20.0158  -18.7046    4.1593 C   0  0  1  0  0  0  0  0  0  0  0  0
   19.0803  -19.6967    4.7568 N   0  0  0  0  0  0  0  0  0  0  0  0
   17.9933  -19.3496    5.4549 C   0  0  0  0  0  0  0  0  0  0  0  0
   17.0615  -19.0504    6.0706 N   0  0  0  0  0  0  0  0  0  0  0  0
   21.4191  -15.8492    3.8010 C   0  0  0  0  0  0  0  0  0  0  0  0
   21.9938  -14.5215    4.2141 C   0  0  0  0  0  0  0  0  0  0  0  0
   22.6657  -15.7926    4.6418 C   0  0  0  0  0  0  0  0  0  0  0  0
   19.5094  -20.6119    4.9313 H   0  0  0  0  0  0  0  0  0  0  0  0
  1  2  1  0  0  0  0
  1  5  1  0  0  0  0
  2  3  1  0  0  0  0
  3  4  1  0  0  0  0
  3  9  1  6  0  0  0
  4  5  1  0  0  0  0
  5  6  1  1  0  0  0
  6  7  1  0  0  0  0
  6 12  1  0  0  0  0
  7  8  3  0  0  0  0
  9 10  1  0  0  0  0
  9 11  1  0  0  0  0
 10 11  1  0  0  0  0
M  END
>  <CHROM.0>
-47.15140556,-61.62684997,-56.43306954,-52.57644094,-58.23193336,-57.45281695
-59.01736130,-53.77211264,-166.15771795,160.70466288

>  <CHROM.1>
123.05469656,-71.60381335,19.94069033,-17.40140159,4.45907368,2.59933809
0.65299633,2.09680426

>  <Name>
P79187767

>  <RI>
0

>  <Rbt.Current_Directory>
/home/fstefaniak/projects/zuza/docking/adenine/1Y26

>  <Rbt.Executable>
rbdock ($Id: //depot/dev/client3/rdock/2013.1/src/exe/rbdock.cxx#4 $)

>  <Rbt.Library>
libRbt.so (2013.1, Build901 2013/11/27)

>  <Rbt.Parameter_File>
/home/fstefaniak/progs/rDock//data/scripts/dock_solv.prm

>  <Rbt.Receptor>
1y26.prm

>  <SCORE>
-42.2174

>  <SCORE.INTER>
-21.2437

>  <SCORE.INTER.CONST>
1

>  <SCORE.INTER.POLAR>
-1.60338

>  <SCORE.INTER.ROT>
2

>  <SCORE.INTER.SOLV>
12.1999

>  <SCORE.INTER.VDW>
-17.8179

>  <SCORE.INTER.norm>
-1.93125

>  <SCORE.INTRA>
1.29226

>  <SCORE.INTRA.DIHEDRAL>
0.0784737

>  <SCORE.INTRA.DIHEDRAL.0>
2.00371

>  <SCORE.INTRA.POLAR>
0

>  <SCORE.INTRA.POLAR.0>
0

>  <SCORE.INTRA.REPUL>
0

>  <SCORE.INTRA.REPUL.0>
0

>  <SCORE.INTRA.SOLV>
0.311484

>  <SCORE.INTRA.SOLV.lig_0>
-11.968

>  <SCORE.INTRA.VDW>
1.09728

>  <SCORE.INTRA.VDW.0>
-0.667082

>  <SCORE.INTRA.norm>
0.117478

>  <SCORE.RESTR>
0

>  <SCORE.RESTR.CAVITY>
0

>  <SCORE.RESTR.norm>
0

>  <SCORE.SYSTEM>
-22.2659

>  <SCORE.SYSTEM.CONST>
0

>  <SCORE.SYSTEM.DIHEDRAL>
5.81057

>  <SCORE.SYSTEM.POLAR>
-3.51282

>  <SCORE.SYSTEM.SOLV>
0.666014

>  <SCORE.SYSTEM.VDW>
-5.29337

>  <SCORE.SYSTEM.norm>
-2.02417

>  <SCORE.heavy>
11

>  <SCORE.norm>
-3.83794

$$$$
P79187767
 OpenBabel12072022103D
libRbt.so/2013.1/901 2013/11/27
 12 13  0  0  0  0  0  0  0  0999 V2000
   19.4059  -18.0030    2.9647 C   0  0  0  0  0  0  0  0  0  0  0  0
   19.1481  -16.5784    3.4282 C   0  0  0  0  0  0  0  0  0  0  0  0
   20.1973  -16.2887    4.4157 N   0  0  1  0  0  0  0  0  0  0  0  0
   20.3616  -17.5527    5.1556 C   0  0  0  0  0  0  0  0  0  0  0  0
   20.0492  -18.6872    4.1675 C   0  0  1  0  0  0  0  0  0  0  0  0
   19.1106  -19.6740    4.7688 N   0  0  0  0  0  0  0  0  0  0  0  0
   18.0196  -19.3207    5.4577 C   0  0  0  0  0  0  0  0  0  0  0  0
   17.0844  -19.0161    6.0654 N   0  0  0  0  0  0  0  0  0  0  0  0
   21.4544  -15.8351    3.7910 C   0  0  0  0  0  0  0  0  0  0  0  0
   21.9919  -14.4753    4.1454 C   0  0  0  0  0  0  0  0  0  0  0  0
   22.6810  -15.7071    4.6530 C   0  0  0  0  0  0  0  0  0  0  0  0
   19.5389  -20.5875    4.9542 H   0  0  0  0  0  0  0  0  0  0  0  0
  1  2  1  0  0  0  0
  1  5  1  0  0  0  0
  2  3  1  0  0  0  0
  3  4  1  0  0  0  0
  3  9  1  6  0  0  0
  4  5  1  0  0  0  0
  5  6  1  1  0  0  0
  6  7  1  0  0  0  0
  6 12  1  0  0  0  0
  7  8  3  0  0  0  0
  9 10  1  0  0  0  0
  9 11  1  0  0  0  0
 10 11  1  0  0  0  0
M  END
>  <CHROM.0>
-43.62657909,-60.39212750,-52.26074290,-52.02545619,-176.54313526,-60.61168841
-58.45704001,-51.09981551,-167.30381604,160.95405963

>  <CHROM.1>
120.13893858,-71.58126469,19.96778110,-17.37285435,4.45179313,2.61955769
0.67554464,2.05431135

>  <Name>
P79187767

>  <RI>
0

>  <Rbt.Current_Directory>
/home/fstefaniak/projects/zuza/docking/adenine/1Y26

>  <Rbt.Executable>
rbdock ($Id: //depot/dev/client3/rdock/2013.1/src/exe/rbdock.cxx#4 $)

>  <Rbt.Library>
libRbt.so (2013.1, Build901 2013/11/27)

>  <Rbt.Parameter_File>
/home/fstefaniak/progs/rDock//data/scripts/dock_solv.prm

>  <Rbt.Receptor>
1y26.prm

>  <SCORE>
-42.0813

>  <SCORE.INTER>
-21.1416

>  <SCORE.INTER.CONST>
1

>  <SCORE.INTER.POLAR>
-1.61073

>  <SCORE.INTER.ROT>
2

>  <SCORE.INTER.SOLV>
12.1352

>  <SCORE.INTER.VDW>
-17.7037

>  <SCORE.INTER.norm>
-1.92197

>  <SCORE.INTRA>
1.15902

>  <SCORE.INTRA.DIHEDRAL>
0.0767672

>  <SCORE.INTRA.DIHEDRAL.0>
2.00371

>  <SCORE.INTRA.POLAR>
0

>  <SCORE.INTRA.POLAR.0>
0

>  <SCORE.INTRA.REPUL>
0

>  <SCORE.INTRA.REPUL.0>
0

>  <SCORE.INTRA.SOLV>
0.311023

>  <SCORE.INTRA.SOLV.lig_0>
-11.968

>  <SCORE.INTRA.VDW>
0.965129

>  <SCORE.INTRA.VDW.0>
-0.667082

>  <SCORE.INTRA.norm>
0.105366

>  <SCORE.RESTR>
0

>  <SCORE.RESTR.CAVITY>
0

>  <SCORE.RESTR.norm>
0

>  <SCORE.SYSTEM>
-22.0987

>  <SCORE.SYSTEM.CONST>
0

>  <SCORE.SYSTEM.DIHEDRAL>
6.54345

>  <SCORE.SYSTEM.POLAR>
-3.59814

>  <SCORE.SYSTEM.SOLV>
0.51367

>  <SCORE.SYSTEM.VDW>
-5.09103

>  <SCORE.SYSTEM.norm>
-2.00897

>  <SCORE.heavy>
11

>  <SCORE.norm>
-3.82557

$$$$
P79187767
 OpenBabel12072022103D
libRbt.so/2013.1/901 2013/11/27
 12 13  0  0  0  0  0  0  0  0999 V2000
   19.3904  -17.9902    2.9626 C   0  0  0  0  0  0  0  0  0  0  0  0
   19.1260  -16.5683    3.4306 C   0  0  0  0  0  0  0  0  0  0  0  0
   20.1712  -16.2787    4.4224 N   0  0  1  0  0  0  0  0  0  0  0  0
   20.3378  -17.5448    5.1580 C   0  0  0  0  0  0  0  0  0  0  0  0
   20.0324  -18.6767    4.1647 C   0  0  1  0  0  0  0  0  0  0  0  0
   19.0955  -19.6691    4.7595 N   0  0  0  0  0  0  0  0  0  0  0  0
   18.0044  -19.3223    5.4513 C   0  0  0  0  0  0  0  0  0  0  0  0
   17.0690  -19.0233    6.0616 N   0  0  0  0  0  0  0  0  0  0  0  0
   21.4285  -15.8182    3.8032 C   0  0  0  0  0  0  0  0  0  0  0  0
   21.9890  -14.4813    4.2058 C   0  0  0  0  0  0  0  0  0  0  0  0
   22.6652  -15.7419    4.6569 C   0  0  0  0  0  0  0  0  0  0  0  0
   19.5252  -20.5832    4.9381 H   0  0  0  0  0  0  0  0  0  0  0  0
  1  2  1  0  0  0  0
  1  5  1  0  0  0  0
  2  3  1  0  0  0  0
  3  4  1  0  0  0  0
  3  9  1  6  0  0  0
  4  5  1  0  0  0  0
  5  6  1  1  0  0  0
  6  7  1  0  0  0  0
  6 12  1  0  0  0  0
  7  8  3  0  0  0  0
  9 10  1  0  0  0  0
  9 11  1  0  0  0  0
 10 11  1  0  0  0  0
M  END
>  <CHROM.0>
-46.35023234,-60.63758825,-56.00080959,-53.21205596,-175.70933335,-58.31050306
-56.16234203,-48.10585068,-167.25807597,159.71299933

>  <CHROM.1>
122.55789727,-71.88704540,19.95013510,-17.37079691,4.45761073,2.61977703
0.67272803,2.06275692

>  <Name>
P79187767

>  <RI>
0

>  <Rbt.Current_Directory>
/home/fstefaniak/projects/zuza/docking/adenine/1Y26

>  <Rbt.Executable>
rbdock ($Id: //depot/dev/client3/rdock/2013.1/src/exe/rbdock.cxx#4 $)

>  <Rbt.Library>
libRbt.so (2013.1, Build901 2013/11/27)

>  <Rbt.Parameter_File>
/home/fstefaniak/progs/rDock//data/scripts/dock_solv.prm

>  <Rbt.Receptor>
1y26.prm

>  <SCORE>
-42.0092

>  <SCORE.INTER>
-21.205

>  <SCORE.INTER.CONST>
1

>  <SCORE.INTER.POLAR>
-1.61893

>  <SCORE.INTER.ROT>
2

>  <SCORE.INTER.SOLV>
12.1746

>  <SCORE.INTER.VDW>
-17.7318

>  <SCORE.INTER.norm>
-1.92773

>  <SCORE.INTRA>
1.27708

>  <SCORE.INTRA.DIHEDRAL>
0.0880968

>  <SCORE.INTRA.DIHEDRAL.0>
2.00371

>  <SCORE.INTRA.POLAR>
0

>  <SCORE.INTRA.POLAR.0>
0

>  <SCORE.INTRA.REPUL>
0

>  <SCORE.INTRA.REPUL.0>
0

>  <SCORE.INTRA.SOLV>
0.311002

>  <SCORE.INTRA.SOLV.lig_0>
-11.968

>  <SCORE.INTRA.VDW>
1.07753

>  <SCORE.INTRA.VDW.0>
-0.667082

>  <SCORE.INTRA.norm>
0.116098

>  <SCORE.RESTR>
0

>  <SCORE.RESTR.CAVITY>
0

>  <SCORE.RESTR.norm>
0

>  <SCORE.SYSTEM>
-22.0813

>  <SCORE.SYSTEM.CONST>
0

>  <SCORE.SYSTEM.DIHEDRAL>
6.46367

>  <SCORE.SYSTEM.POLAR>
-3.55156

>  <SCORE.SYSTEM.SOLV>
0.512686

>  <SCORE.SYSTEM.VDW>
-5.20779

>  <SCORE.SYSTEM.norm>
-2.00739

>  <SCORE.heavy>
11

>  <SCORE.norm>
-3.81902

$$$$
P79647323
 OpenBabel12072022103D
libRbt.so/2013.1/901 2013/11/27
 19 19  0  0  0  0  0  0  0  0999 V2000
   21.7887  -11.2230    4.3718 C   0  0  0  0  0  0  0  0  0  0  0  0
   22.9261  -12.0148    5.0233 C   0  0  1  0  0  0  0  0  0  0  0  0
   22.4176  -12.9004    6.1663 C   0  0  0  0  0  0  0  0  0  0  0  0
   21.6411  -14.1262    5.6791 C   0  0  0  0  0  0  0  0  0  0  0  0
   22.4208  -14.9723    4.6405 C   0  0  2  0  0  0  0  0  0  0  0  0
   22.9145  -14.0620    3.4920 C   0  0  0  0  0  0  0  0  0  0  0  0
   23.6997  -12.8494    3.9959 C   0  0  0  0  0  0  0  0  0  0  0  0
   21.4495  -16.0603    4.0963 C   0  0  0  0  0  0  0  0  0  0  0  0
   20.1799  -15.5026    3.7476 O   0  0  0  0  0  0  0  0  0  0  0  0
   23.6046  -15.6047    5.3463 N   0  0  0  0  0  0  0  0  0  0  0  0
   24.4607  -16.5300    4.8858 C   0  0  0  0  0  0  0  0  0  0  0  0
   25.5296  -16.8465    5.6290 N   0  3  0  0  0  0  0  0  0  0  0  0
   26.1949  -17.5393    5.3104 H   0  0  0  0  0  0  0  0  0  0  0  0
   25.7231  -16.3989    6.5145 H   0  0  0  0  0  0  0  0  0  0  0  0
   24.3063  -17.1512    3.7254 N   0  0  0  0  0  0  0  0  0  0  0  0
   20.3585  -14.8562    3.0326 H   0  0  0  0  0  0  0  0  0  0  0  0
   23.8034  -15.2583    6.2749 H   0  0  0  0  0  0  0  0  0  0  0  0
   23.4166  -17.0446    3.2278 H   0  0  0  0  0  0  0  0  0  0  0  0
   24.9570  -17.8302    3.3631 H   0  0  0  0  0  0  0  0  0  0  0  0
  2  1  1  6  0  0  0
  2  3  1  0  0  0  0
  2  7  1  0  0  0  0
  3  4  1  0  0  0  0
  4  5  1  0  0  0  0
  5  6  1  0  0  0  0
  5  8  1  6  0  0  0
  5 10  1  0  0  0  0
  6  7  1  0  0  0  0
  8  9  1  0  0  0  0
  9 16  1  0  0  0  0
 10 11  1  0  0  0  0
 10 17  1  0  0  0  0
 11 12  2  0  0  0  0
 11 15  1  0  0  0  0
 12 13  1  0  0  0  0
 12 14  1  0  0  0  0
 15 18  1  0  0  0  0
 15 19  1  0  0  0  0
M  CHG  1  12   1
M  END
>  <CHROM.0>
-49.08468905,-67.14074936,-50.55107574,-50.78054257,-56.29599196,-57.17941146
-55.67749655,-176.46765533,-166.85409862,159.46396588

>  <CHROM.1>
46.82393606,171.66699552,62.03225273,22.86381415,-14.64429216,4.65972938
-2.08958861,0.30583552,-2.97379363

>  <Name>
P79647323

>  <RI>
0

>  <Rbt.Current_Directory>
/home/fstefaniak/projects/zuza/docking/adenine/1Y26

>  <Rbt.Executable>
rbdock ($Id: //depot/dev/client3/rdock/2013.1/src/exe/rbdock.cxx#4 $)

>  <Rbt.Library>
libRbt.so (2013.1, Build901 2013/11/27)

>  <Rbt.Parameter_File>
/home/fstefaniak/progs/rDock//data/scripts/dock_solv.prm

>  <Rbt.Receptor>
1y26.prm

>  <SCORE>
-50.8447

>  <SCORE.INTER>
-32.2081

>  <SCORE.INTER.CONST>
1

>  <SCORE.INTER.POLAR>
-5.43562

>  <SCORE.INTER.ROT>
2

>  <SCORE.INTER.SOLV>
22.6274

>  <SCORE.INTER.VDW>
-15.8291

>  <SCORE.INTER.norm>
-2.47755

>  <SCORE.INTRA>
2.80321

>  <SCORE.INTRA.DIHEDRAL>
-0.187701

>  <SCORE.INTRA.DIHEDRAL.0>
3.32055

>  <SCORE.INTRA.POLAR>
0.912838

>  <SCORE.INTRA.POLAR.0>
-0.912838

>  <SCORE.INTRA.REPUL>
0

>  <SCORE.INTRA.REPUL.0>
0

>  <SCORE.INTRA.SOLV>
-1.94833

>  <SCORE.INTRA.SOLV.lig_0>
-26.9594

>  <SCORE.INTRA.VDW>
0.767576

>  <SCORE.INTRA.VDW.0>
-0.215855

>  <SCORE.INTRA.norm>
0.215632

>  <SCORE.RESTR>
1.04853

>  <SCORE.RESTR.CAVITY>
1.04853

>  <SCORE.RESTR.norm>
0.0806564

>  <SCORE.SYSTEM>
-22.4884

>  <SCORE.SYSTEM.CONST>
0

>  <SCORE.SYSTEM.DIHEDRAL>
6.43373

>  <SCORE.SYSTEM.POLAR>
-3.56425

>  <SCORE.SYSTEM.SOLV>
0.471719

>  <SCORE.SYSTEM.VDW>
-5.41321

>  <SCORE.SYSTEM.norm>
-1.72987

>  <SCORE.heavy>
13

>  <SCORE.norm>
-3.91113

$$$$
P79647323
 OpenBabel12072022103D
libRbt.so/2013.1/901 2013/11/27
 19 19  0  0  0  0  0  0  0  0999 V2000
   21.8707  -11.1428    4.6054 C   0  0  0  0  0  0  0  0  0  0  0  0
   22.9669  -11.9854    5.2636 C   0  0  1  0  0  0  0  0  0  0  0  0
   22.3872  -12.9737    6.2817 C   0  0  0  0  0  0  0  0  0  0  0  0
   21.6618  -14.1536    5.6303 C   0  0  0  0  0  0  0  0  0  0  0  0
   22.5238  -14.8980    4.5790 C   0  0  2  0  0  0  0  0  0  0  0  0
   23.0888  -13.8847    3.5566 C   0  0  0  0  0  0  0  0  0  0  0  0
   23.8219  -12.7194    4.2241 C   0  0  0  0  0  0  0  0  0  0  0  0
   21.6066  -15.9364    3.8692 C   0  0  0  0  0  0  0  0  0  0  0  0
   21.2342  -16.9973    4.7527 O   0  0  0  0  0  0  0  0  0  0  0  0
   23.6606  -15.5866    5.3091 N   0  0  0  0  0  0  0  0  0  0  0  0
   24.5399  -16.4843    4.8378 C   0  0  0  0  0  0  0  0  0  0  0  0
   25.5608  -16.8594    5.6201 N   0  3  0  0  0  0  0  0  0  0  0  0
   26.2418  -17.5337    5.2948 H   0  0  0  0  0  0  0  0  0  0  0  0
   25.7018  -16.4756    6.5446 H   0  0  0  0  0  0  0  0  0  0  0  0
   24.4538  -17.0226    3.6299 N   0  0  0  0  0  0  0  0  0  0  0  0
   22.0248  -17.5718    4.8298 H   0  0  0  0  0  0  0  0  0  0  0  0
   23.8040  -15.3067    6.2698 H   0  0  0  0  0  0  0  0  0  0  0  0
   23.5962  -16.8753    3.0883 H   0  0  0  0  0  0  0  0  0  0  0  0
   25.1230  -17.6799    3.2611 H   0  0  0  0  0  0  0  0  0  0  0  0
  2  1  1  6  0  0  0
  2  3  1  0  0  0  0
  2  7  1  0  0  0  0
  3  4  1  0  0  0  0
  4  5  1  0  0  0  0
  5  6  1  0  0  0  0
  5  8  1  6  0  0  0
  5 10  1  0  0  0  0
  6  7  1  0  0  0  0
  8  9  1  0  0  0  0
  9 16  1  0  0  0  0
 10 11  1  0  0  0  0
 10 17  1  0  0  0  0
 11 12  2  0  0  0  0
 11 15  1  0  0  0  0
 12 13  1  0  0  0  0
 12 14  1  0  0  0  0
 15 18  1  0  0  0  0
 15 19  1  0  0  0  0
M  CHG  1  12   1
M  END
>  <CHROM.0>
-49.57115771,170.15700098,-50.67196258,-52.26577064,-52.45933156,-59.48960502
-53.35318347,-49.13899328,-166.70678199,160.65700786

>  <CHROM.1>
-68.97049403,170.04809443,-75.74736395,23.03768696,-14.73509788,4.78242641
-1.89894248,0.08567234,-3.04455941

>  <Name>
P79647323

>  <RI>
0

>  <Rbt.Current_Directory>
/home/fstefaniak/projects/zuza/docking/adenine/1Y26

>  <Rbt.Executable>
rbdock ($Id: //depot/dev/client3/rdock/2013.1/src/exe/rbdock.cxx#4 $)

>  <Rbt.Library>
libRbt.so (2013.1, Build901 2013/11/27)

>  <Rbt.Parameter_File>
/home/fstefaniak/progs/rDock//data/scripts/dock_solv.prm

>  <Rbt.Receptor>
1y26.prm

>  <SCORE>
-48.7379

>  <SCORE.INTER>
-31.5188

>  <SCORE.INTER.CONST>
1

>  <SCORE.INTER.POLAR>
-4.97159

>  <SCORE.INTER.ROT>
2

>  <SCORE.INTER.SOLV>
21.6772

>  <SCORE.INTER.VDW>
-16.5996

>  <SCORE.INTER.norm>
-2.42452

>  <SCORE.INTRA>
3.23045

>  <SCORE.INTRA.DIHEDRAL>
0.643442

>  <SCORE.INTRA.DIHEDRAL.0>
3.32055

>  <SCORE.INTRA.POLAR>
0.912838

>  <SCORE.INTRA.POLAR.0>
-0.912838

>  <SCORE.INTRA.REPUL>
0.00947749

>  <SCORE.INTRA.REPUL.0>
0

>  <SCORE.INTRA.SOLV>
-0.83961

>  <SCORE.INTRA.SOLV.lig_0>
-26.9594

>  <SCORE.INTRA.VDW>
0.177498

>  <SCORE.INTRA.VDW.0>
-0.215855

>  <SCORE.INTRA.norm>
0.248496

>  <SCORE.RESTR>
1.34959

>  <SCORE.RESTR.CAVITY>
1.34959

>  <SCORE.RESTR.norm>
0.103814

>  <SCORE.SYSTEM>
-21.7991

>  <SCORE.SYSTEM.CONST>
0

>  <SCORE.SYSTEM.DIHEDRAL>
7.06589

>  <SCORE.SYSTEM.POLAR>
-3.57105

>  <SCORE.SYSTEM.SOLV>
0.649605

>  <SCORE.SYSTEM.VDW>
-5.20111

>  <SCORE.SYSTEM.norm>
-1.67686

>  <SCORE.heavy>
13

>  <SCORE.norm>
-3.74907

$$$$
P79647323
 OpenBabel12072022103D
libRbt.so/2013.1/901 2013/11/27
 19 19  0  0  0  0  0  0  0  0999 V2000
   21.7782  -11.2365    4.3490 C   0  0  0  0  0  0  0  0  0  0  0  0
   22.9172  -12.0277    4.9984 C   0  0  1  0  0  0  0  0  0  0  0  0
   22.4145  -12.8984    6.1552 C   0  0  0  0  0  0  0  0  0  0  0  0
   21.6270  -14.1250    5.6881 C   0  0  0  0  0  0  0  0  0  0  0  0
   22.3925  -14.9862    4.6515 C   0  0  2  0  0  0  0  0  0  0  0  0
   22.8806  -14.0908    3.4889 C   0  0  0  0  0  0  0  0  0  0  0  0
   23.6769  -12.8772    3.9729 C   0  0  0  0  0  0  0  0  0  0  0  0
   21.4105  -16.0746    4.1276 C   0  0  0  0  0  0  0  0  0  0  0  0
   20.1649  -15.5037    3.7189 O   0  0  0  0  0  0  0  0  0  0  0  0
   23.5794  -15.6176    5.3530 N   0  0  0  0  0  0  0  0  0  0  0  0
   24.4351  -16.5417    4.8893 C   0  0  0  0  0  0  0  0  0  0  0  0
   25.5067  -16.8573    5.6288 N   0  3  0  0  0  0  0  0  0  0  0  0
   26.1718  -17.5492    5.3077 H   0  0  0  0  0  0  0  0  0  0  0  0
   25.7025  -16.4100    6.5140 H   0  0  0  0  0  0  0  0  0  0  0  0
   24.2777  -17.1623    3.7290 N   0  0  0  0  0  0  0  0  0  0  0  0
   20.3704  -14.9378    2.9453 H   0  0  0  0  0  0  0  0  0  0  0  0
   23.7807  -15.2716    6.2812 H   0  0  0  0  0  0  0  0  0  0  0  0
   23.3862  -17.0565    3.2343 H   0  0  0  0  0  0  0  0  0  0  0  0
   24.9280  -17.8403    3.3642 H   0  0  0  0  0  0  0  0  0  0  0  0
  2  1  1  6  0  0  0
  2  3  1  0  0  0  0
  2  7  1  0  0  0  0
  3  4  1  0  0  0  0
  4  5  1  0  0  0  0
  5  6  1  0  0  0  0
  5  8  1  6  0  0  0
  5 10  1  0  0  0  0
  6  7  1  0  0  0  0
  8  9  1  0  0  0  0
  9 16  1  0  0  0  0
 10 11  1  0  0  0  0
 10 17  1  0  0  0  0
 11 12  2  0  0  0  0
 11 15  1  0  0  0  0
 12 13  1  0  0  0  0
 12 14  1  0  0  0  0
 15 18  1  0  0  0  0
 15 19  1  0  0  0  0
M  CHG  1  12   1
M  END
>  <CHROM.0>
-45.66152963,-65.03899653,-49.54117067,-49.75912006,-53.96010646,-52.39311743
-48.27048695,68.72290466,-165.64506821,160.79875008

>  <CHROM.1>
49.86923842,172.48292615,65.54629079,22.84268545,-14.65650191,4.65521599
-2.08852776,0.31088393,-2.97700483

>  <Name>
P79647323

>  <RI>
0

>  <Rbt.Current_Directory>
/home/fstefaniak/projects/zuza/docking/adenine/1Y26

>  <Rbt.Executable>
rbdock ($Id: //depot/dev/client3/rdock/2013.1/src/exe/rbdock.cxx#4 $)

>  <Rbt.Library>
libRbt.so (2013.1, Build901 2013/11/27)

>  <Rbt.Parameter_File>
/home/fstefaniak/progs/rDock//data/scripts/dock_solv.prm

>  <Rbt.Receptor>
1y26.prm

>  <SCORE>
-48.6945

>  <SCORE.INTER>
-31.3773

>  <SCORE.INTER.CONST>
1

>  <SCORE.INTER.POLAR>
-5.42854

>  <SCORE.INTER.ROT>
2

>  <SCORE.INTER.SOLV>
22.5919

>  <SCORE.INTER.VDW>
-15.287

>  <SCORE.INTER.norm>
-2.41364

>  <SCORE.INTRA>
2.55934

>  <SCORE.INTRA.DIHEDRAL>
-0.304134

>  <SCORE.INTRA.DIHEDRAL.0>
3.32055

>  <SCORE.INTRA.POLAR>
0.912838

>  <SCORE.INTRA.POLAR.0>
-0.912838

>  <SCORE.INTRA.REPUL>
0

>  <SCORE.INTRA.REPUL.0>
0

>  <SCORE.INTRA.SOLV>
-1.93344

>  <SCORE.INTRA.SOLV.lig_0>
-26.9594

>  <SCORE.INTRA.VDW>
0.574477

>  <SCORE.INTRA.VDW.0>
-0.215855

>  <SCORE.INTRA.norm>
0.196872

>  <SCORE.RESTR>
0.971807

>  <SCORE.RESTR.CAVITY>
0.971807

>  <SCORE.RESTR.norm>
0.0747543

>  <SCORE.SYSTEM>
-20.8483

>  <SCORE.SYSTEM.CONST>
0

>  <SCORE.SYSTEM.DIHEDRAL>
7.99071

>  <SCORE.SYSTEM.POLAR>
-3.69995

>  <SCORE.SYSTEM.SOLV>
0.481249

>  <SCORE.SYSTEM.VDW>
-4.38968

>  <SCORE.SYSTEM.norm>
-1.60371

>  <SCORE.heavy>
13

>  <SCORE.norm>
-3.74573

$$$$
P81831364
 OpenBabel12072022103D
libRbt.so/2013.1/901 2013/11/27
 11 11  0  0  0  0  0  0  0  0999 V2000
   19.8955  -18.3879    6.8534 C   0  0  0  0  0  0  0  0  0  0  0  0
   19.1989  -17.9957    5.5474 C   0  0  2  0  0  0  0  0  0  0  0  0
   18.8699  -19.2696    4.7127 C   0  0  0  0  0  0  0  0  0  0  0  0
   18.1328  -18.9837    3.4702 N   0  0  0  0  0  0  0  0  0  0  0  0
   18.8227  -17.9399    2.6988 C   0  0  0  0  0  0  0  0  0  0  0  0
   19.1193  -16.6754    3.5338 C   0  0  0  0  0  0  0  0  0  0  0  0
   19.8955  -16.9315    4.7693 N   0  0  0  0  0  0  0  0  0  0  0  0
   21.3069  -17.2384    4.4387 C   0  0  0  0  0  0  0  0  0  0  0  0
   22.0876  -16.0608    3.9934 C   0  0  0  0  0  0  0  0  0  0  0  0
   22.7260  -15.1529    3.6495 N   0  0  0  0  0  0  0  0  0  0  0  0
   17.2109  -18.6277    3.7283 H   0  0  0  0  0  0  0  0  0  0  0  0
  2  3  1  0  0  0  0
  2  7  1  0  0  0  0
  2  1  1  1  0  0  0
  3  4  1  0  0  0  0
  4  5  1  0  0  0  0
  4 11  1  0  0  0  0
  5  6  1  0  0  0  0
  6  7  1  0  0  0  0
  7  8  1  0  0  0  0
  8  9  1  0  0  0  0
  9 10  3  0  0  0  0
M  END
>  <CHROM.0>
-49.61895937,-61.93827123,-55.83991431,-50.26389097,-54.89378624,-59.86254851
-60.02374198,-175.60788443,-166.78039836,160.95533195

>  <CHROM.1>
-164.70011432,19.96005983,-17.49534697,4.37713725,-2.79711622,-0.62839583
-1.19839988

>  <Name>
P81831364

>  <RI>
0

>  <Rbt.Current_Directory>
/home/fstefaniak/projects/zuza/docking/adenine/1Y26

>  <Rbt.Executable>
rbdock ($Id: //depot/dev/client3/rdock/2013.1/src/exe/rbdock.cxx#4 $)

>  <Rbt.Library>
libRbt.so (2013.1, Build901 2013/11/27)

>  <Rbt.Parameter_File>
/home/fstefaniak/progs/rDock//data/scripts/dock_solv.prm

>  <Rbt.Receptor>
1y26.prm

>  <SCORE>
-38.2086

>  <SCORE.INTER>
-15.1343

>  <SCORE.INTER.CONST>
1

>  <SCORE.INTER.POLAR>
-1.29557

>  <SCORE.INTER.ROT>
1

>  <SCORE.INTER.SOLV>
10.894

>  <SCORE.INTER.VDW>
-13.6689

>  <SCORE.INTER.norm>
-1.51343

>  <SCORE.INTRA>
-0.394864

>  <SCORE.INTRA.DIHEDRAL>
-0.665905

>  <SCORE.INTRA.DIHEDRAL.0>
0.978708

>  <SCORE.INTRA.POLAR>
0

>  <SCORE.INTRA.POLAR.0>
0

>  <SCORE.INTRA.REPUL>
0

>  <SCORE.INTRA.REPUL.0>
0

>  <SCORE.INTRA.SOLV>
-0.102405

>  <SCORE.INTRA.SOLV.lig_0>
-11.4719

>  <SCORE.INTRA.VDW>
-0.0107087

>  <SCORE.INTRA.VDW.0>
-0.218411

>  <SCORE.INTRA.norm>
-0.0394864

>  <SCORE.RESTR>
0

>  <SCORE.RESTR.CAVITY>
0

>  <SCORE.RESTR.norm>
0

>  <SCORE.SYSTEM>
-22.6794

>  <SCORE.SYSTEM.CONST>
0

>  <SCORE.SYSTEM.DIHEDRAL>
5.62088

>  <SCORE.SYSTEM.POLAR>
-3.48634

>  <SCORE.SYSTEM.SOLV>
0.455591

>  <SCORE.SYSTEM.VDW>
-5.52397

>  <SCORE.SYSTEM.norm>
-2.26794

>  <SCORE.heavy>
10

>  <SCORE.norm>
-3.82086

$$$$
P81831364
 OpenBabel12072022103D
libRbt.so/2013.1/901 2013/11/27
 11 11  0  0  0  0  0  0  0  0999 V2000
   19.8996  -18.3918    6.8466 C   0  0  0  0  0  0  0  0  0  0  0  0
   19.1965  -17.9992    5.5442 C   0  0  2  0  0  0  0  0  0  0  0  0
   18.8624  -19.2729    4.7113 C   0  0  0  0  0  0  0  0  0  0  0  0
   18.1192  -18.9867    3.4725 N   0  0  0  0  0  0  0  0  0  0  0  0
   18.8056  -17.9433    2.6975 C   0  0  0  0  0  0  0  0  0  0  0  0
   19.1072  -16.6790    3.5310 C   0  0  0  0  0  0  0  0  0  0  0  0
   19.8896  -16.9354    4.7625 N   0  0  0  0  0  0  0  0  0  0  0  0
   21.2991  -17.2431    4.4246 C   0  0  0  0  0  0  0  0  0  0  0  0
   22.0816  -16.0635    3.9877 C   0  0  0  0  0  0  0  0  0  0  0  0
   22.7214  -15.1543    3.6502 N   0  0  0  0  0  0  0  0  0  0  0  0
   17.1988  -18.6302    3.7353 H   0  0  0  0  0  0  0  0  0  0  0  0
  2  3  1  0  0  0  0
  2  7  1  0  0  0  0
  2  1  1  1  0  0  0
  3  4  1  0  0  0  0
  4  5  1  0  0  0  0
  4 11  1  0  0  0  0
  5  6  1  0  0  0  0
  6  7  1  0  0  0  0
  7  8  1  0  0  0  0
  8  9  1  0  0  0  0
  9 10  3  0  0  0  0
M  END
>  <CHROM.0>
-49.72070491,54.88685868,-51.16712679,-50.45908906,-55.45560361,-60.66049615
-60.91739655,-176.19685374,-166.54993354,160.38885149

>  <CHROM.1>
-164.14576379,19.95276926,-17.49871421,4.37329285,-2.79640789,-0.62669981
-1.19407412

>  <Name>
P81831364

>  <RI>
0

>  <Rbt.Current_Directory>
/home/fstefaniak/projects/zuza/docking/adenine/1Y26

>  <Rbt.Executable>
rbdock ($Id: //depot/dev/client3/rdock/2013.1/src/exe/rbdock.cxx#4 $)

>  <Rbt.Library>
libRbt.so (2013.1, Build901 2013/11/27)

>  <Rbt.Parameter_File>
/home/fstefaniak/progs/rDock//data/scripts/dock_solv.prm

>  <Rbt.Receptor>
1y26.prm

>  <SCORE>
-37.4825

>  <SCORE.INTER>
-15.0313

>  <SCORE.INTER.CONST>
1

>  <SCORE.INTER.POLAR>
-1.29223

>  <SCORE.INTER.ROT>
1

>  <SCORE.INTER.SOLV>
10.9183

>  <SCORE.INTER.VDW>
-13.6195

>  <SCORE.INTER.norm>
-1.50313

>  <SCORE.INTRA>
-0.392502

>  <SCORE.INTRA.DIHEDRAL>
-0.64219

>  <SCORE.INTRA.DIHEDRAL.0>
0.978708

>  <SCORE.INTRA.POLAR>
0

>  <SCORE.INTRA.POLAR.0>
0

>  <SCORE.INTRA.REPUL>
0

>  <SCORE.INTRA.REPUL.0>
0

>  <SCORE.INTRA.SOLV>
-0.103778

>  <SCORE.INTRA.SOLV.lig_0>
-11.4719

>  <SCORE.INTRA.VDW>
-0.0195174

>  <SCORE.INTRA.VDW.0>
-0.218411

>  <SCORE.INTRA.norm>
-0.0392502

>  <SCORE.RESTR>
0

>  <SCORE.RESTR.CAVITY>
0

>  <SCORE.RESTR.norm>
0

>  <SCORE.SYSTEM>
-22.0587

>  <SCORE.SYSTEM.CONST>
0

>  <SCORE.SYSTEM.DIHEDRAL>
6.04728

>  <SCORE.SYSTEM.POLAR>
-3.55555

>  <SCORE.SYSTEM.SOLV>
0.517442

>  <SCORE.SYSTEM.VDW>
-5.0422

>  <SCORE.SYSTEM.norm>
-2.20587

>  <SCORE.heavy>
10

>  <SCORE.norm>
-3.74825

$$$$
P81831364
 OpenBabel12072022103D
libRbt.so/2013.1/901 2013/11/27
 11 11  0  0  0  0  0  0  0  0999 V2000
   19.9117  -18.3654    6.8191 C   0  0  0  0  0  0  0  0  0  0  0  0
   19.1999  -17.9801    5.5192 C   0  0  2  0  0  0  0  0  0  0  0  0
   18.8311  -19.2603    4.7113 C   0  0  0  0  0  0  0  0  0  0  0  0
   18.0779  -18.9795    3.4772 N   0  0  0  0  0  0  0  0  0  0  0  0
   18.7745  -17.9622    2.6771 C   0  0  0  0  0  0  0  0  0  0  0  0
   19.1107  -16.6908    3.4861 C   0  0  0  0  0  0  0  0  0  0  0  0
   19.9036  -16.9427    4.7119 N   0  0  0  0  0  0  0  0  0  0  0  0
   21.3025  -17.2830    4.3619 C   0  0  0  0  0  0  0  0  0  0  0  0
   22.1228  -16.1140    3.9679 C   0  0  0  0  0  0  0  0  0  0  0  0
   22.7917  -15.2141    3.6633 N   0  0  0  0  0  0  0  0  0  0  0  0
   17.1679  -18.6011    3.7455 H   0  0  0  0  0  0  0  0  0  0  0  0
  2  3  1  0  0  0  0
  2  7  1  0  0  0  0
  2  1  1  1  0  0  0
  3  4  1  0  0  0  0
  4  5  1  0  0  0  0
  4 11  1  0  0  0  0
  5  6  1  0  0  0  0
  6  7  1  0  0  0  0
  7  8  1  0  0  0  0
  8  9  1  0  0  0  0
  9 10  3  0  0  0  0
M  END
>  <CHROM.0>
-47.25145792,55.54488730,-56.89488442,-52.60525315,-56.99163571,-62.13355385
-61.49403004,-55.17070411,-166.80198983,160.57642810

>  <CHROM.1>
-160.95247558,19.95645147,-17.51009171,4.35015526,-2.81959718,-0.60786176
-1.20135685

>  <Name>
P81831364

>  <RI>
0

>  <Rbt.Current_Directory>
/home/fstefaniak/projects/zuza/docking/adenine/1Y26

>  <Rbt.Executable>
rbdock ($Id: //depot/dev/client3/rdock/2013.1/src/exe/rbdock.cxx#4 $)

>  <Rbt.Library>
libRbt.so (2013.1, Build901 2013/11/27)

>  <Rbt.Parameter_File>
/home/fstefaniak/progs/rDock//data/scripts/dock_solv.prm

>  <Rbt.Receptor>
1y26.prm

>  <SCORE>
-36.9803

>  <SCORE.INTER>
-14.9004

>  <SCORE.INTER.CONST>
1

>  <SCORE.INTER.POLAR>
-1.28144

>  <SCORE.INTER.ROT>
1

>  <SCORE.INTER.SOLV>
10.8835

>  <SCORE.INTER.VDW>
-13.5566

>  <SCORE.INTER.norm>
-1.49004

>  <SCORE.INTRA>
-0.384336

>  <SCORE.INTRA.DIHEDRAL>
-0.49207

>  <SCORE.INTRA.DIHEDRAL.0>
0.978708

>  <SCORE.INTRA.POLAR>
0

>  <SCORE.INTRA.POLAR.0>
0

>  <SCORE.INTRA.REPUL>
0

>  <SCORE.INTRA.REPUL.0>
0

>  <SCORE.INTRA.SOLV>
-0.111661

>  <SCORE.INTRA.SOLV.lig_0>
-11.4719

>  <SCORE.INTRA.VDW>
-0.082471

>  <SCORE.INTRA.VDW.0>
-0.218411

>  <SCORE.INTRA.norm>
-0.0384336

>  <SCORE.RESTR>
0

>  <SCORE.RESTR.CAVITY>
0

>  <SCORE.RESTR.norm>
0

>  <SCORE.SYSTEM>
-21.6955

>  <SCORE.SYSTEM.CONST>
0

>  <SCORE.SYSTEM.DIHEDRAL>
5.76328

>  <SCORE.SYSTEM.POLAR>
-3.50908

>  <SCORE.SYSTEM.SOLV>
0.707624

>  <SCORE.SYSTEM.VDW>
-4.92374

>  <SCORE.SYSTEM.norm>
-2.16955

>  <SCORE.heavy>
10

>  <SCORE.norm>
-3.69803

$$$$
P81864887
 OpenBabel12072022103D
libRbt.so/2013.1/901 2013/11/27
 14 14  0  0  0  0  0  0  0  0999 V2000
   24.2224  -16.5760    3.9001 C   0  0  0  0  0  0  0  0  0  0  0  0
   23.7776  -15.5439    4.9323 C   0  0  0  0  0  0  0  0  0  0  0  0
   22.4801  -14.7673    4.5808 C   0  0  0  0  0  0  0  0  0  0  0  0
   21.9842  -14.0429    5.8503 C   0  0  0  0  0  0  0  0  0  0  0  0
   22.7573  -13.6983    3.5062 C   0  0  0  0  0  0  0  0  0  0  0  0
   21.4129  -15.7122    4.1063 C   0  0  0  0  0  0  0  0  0  0  0  0
   20.9164  -15.8896    2.8987 N   0  0  0  0  0  0  0  0  0  0  0  0
   19.9824  -16.8989    3.0018 N   0  0  0  0  0  0  0  0  0  0  0  0
   19.9709  -17.2645    4.2668 C   0  0  0  0  0  0  0  0  0  0  0  0
   20.8512  -16.5504    5.0353 O   0  0  0  0  0  0  0  0  0  0  0  0
   19.1591  -18.3138    4.9387 C   0  0  0  0  0  0  0  0  0  0  0  0
   18.0192  -18.7534    4.1255 N   0  0  0  0  0  0  0  0  0  0  0  0
   18.3194  -18.8119    3.1518 H   0  0  0  0  0  0  0  0  0  0  0  0
   17.2958  -18.0377    4.1574 H   0  0  0  0  0  0  0  0  0  0  0  0
  1  2  1  0  0  0  0
  2  3  1  0  0  0  0
  3  4  1  0  0  0  0
  3  5  1  0  0  0  0
  3  6  1  0  0  0  0
  6  7  2  0  0  0  0
  6 10  1  0  0  0  0
  7  8  1  0  0  0  0
  8  9  2  0  0  0  0
  9 10  1  0  0  0  0
  9 11  1  0  0  0  0
 11 12  1  0  0  0  0
 12 13  1  0  0  0  0
 12 14  1  0  0  0  0
M  END
>  <CHROM.0>
-47.54329128,172.88267896,-55.42560860,-52.58032003,-57.64105691,-56.27382915
-54.90081490,-52.60108464,-166.40681509,158.90932483

>  <CHROM.1>
166.04774041,-108.67744254,-15.66284116,39.70213150,21.27884635,-16.18269937
4.26481597,-0.64395593,-0.15300219,-2.85585228

>  <Name>
P81864887

>  <RI>
0

>  <Rbt.Current_Directory>
/home/fstefaniak/projects/zuza/docking/adenine/1Y26

>  <Rbt.Executable>
rbdock ($Id: //depot/dev/client3/rdock/2013.1/src/exe/rbdock.cxx#4 $)

>  <Rbt.Library>
libRbt.so (2013.1, Build901 2013/11/27)

>  <Rbt.Parameter_File>
/home/fstefaniak/progs/rDock//data/scripts/dock_solv.prm

>  <Rbt.Receptor>
1y26.prm

>  <SCORE>
-48.4153

>  <SCORE.INTER>
-26.995

>  <SCORE.INTER.CONST>
1

>  <SCORE.INTER.POLAR>
-3.38886

>  <SCORE.INTER.ROT>
4

>  <SCORE.INTER.SOLV>
10.5918

>  <SCORE.INTER.VDW>
-16.4977

>  <SCORE.INTER.norm>
-2.24958

>  <SCORE.INTRA>
0.56519

>  <SCORE.INTRA.DIHEDRAL>
1.27689

>  <SCORE.INTRA.DIHEDRAL.0>
2.13972

>  <SCORE.INTRA.POLAR>
-0.00115677

>  <SCORE.INTRA.POLAR.0>
0

>  <SCORE.INTRA.REPUL>
0

>  <SCORE.INTRA.REPUL.0>
0

>  <SCORE.INTRA.SOLV>
0.0724262

>  <SCORE.INTRA.SOLV.lig_0>
-8.61313

>  <SCORE.INTRA.VDW>
-0.105534

>  <SCORE.INTRA.VDW.0>
0.972323

>  <SCORE.INTRA.norm>
0.0470992

>  <SCORE.RESTR>
0

>  <SCORE.RESTR.CAVITY>
0

>  <SCORE.RESTR.norm>
0

>  <SCORE.SYSTEM>
-21.9855

>  <SCORE.SYSTEM.CONST>
0

>  <SCORE.SYSTEM.DIHEDRAL>
6.50481

>  <SCORE.SYSTEM.POLAR>
-3.55825

>  <SCORE.SYSTEM.SOLV>
0.634677

>  <SCORE.SYSTEM.VDW>
-5.17596

>  <SCORE.SYSTEM.norm>
-1.83212

>  <SCORE.heavy>
12

>  <SCORE.norm>
-4.03461

$$$$
P81864887
 OpenBabel12072022103D
libRbt.so/2013.1/901 2013/11/27
 14 14  0  0  0  0  0  0  0  0999 V2000
   24.3992  -16.3447    3.7908 C   0  0  0  0  0  0  0  0  0  0  0  0
   23.9000  -15.3743    4.8573 C   0  0  0  0  0  0  0  0  0  0  0  0
   22.5669  -14.6503    4.5272 C   0  0  0  0  0  0  0  0  0  0  0  0
   22.0703  -13.9344    5.8011 C   0  0  0  0  0  0  0  0  0  0  0  0
   22.7810  -13.5808    3.4386 C   0  0  0  0  0  0  0  0  0  0  0  0
   21.5268  -15.6390    4.0826 C   0  0  0  0  0  0  0  0  0  0  0  0
   20.9644  -15.8015    2.9020 N   0  0  0  0  0  0  0  0  0  0  0  0
   20.0980  -16.8675    3.0226 N   0  0  0  0  0  0  0  0  0  0  0  0
   20.1888  -17.2789    4.2702 C   0  0  0  0  0  0  0  0  0  0  0  0
   21.0748  -16.5423    5.0103 O   0  0  0  0  0  0  0  0  0  0  0  0
   19.4830  -18.3982    4.9488 C   0  0  0  0  0  0  0  0  0  0  0  0
   19.6684  -18.3832    6.4046 N   0  0  0  0  0  0  0  0  0  0  0  0
   19.6969  -19.3476    6.7374 H   0  0  0  0  0  0  0  0  0  0  0  0
   18.8509  -17.9574    6.8368 H   0  0  0  0  0  0  0  0  0  0  0  0
  1  2  1  0  0  0  0
  2  3  1  0  0  0  0
  3  4  1  0  0  0  0
  3  5  1  0  0  0  0
  3  6  1  0  0  0  0
  6  7  2  0  0  0  0
  6 10  1  0  0  0  0
  7  8  1  0  0  0  0
  8  9  2  0  0  0  0
  9 10  1  0  0  0  0
  9 11  1  0  0  0  0
 11 12  1  0  0  0  0
 12 13  1  0  0  0  0
 12 14  1  0  0  0  0
M  END
>  <CHROM.0>
58.70680810,174.63370292,-56.19206432,-53.63257102,-54.60227706,-59.32740625
-61.69630867,-50.70020222,-166.58469673,161.20936947

>  <CHROM.1>
169.06163323,-112.47059486,-169.37973761,-145.88455626,21.55968571,-16.08396224
4.45968770,-0.42683136,0.67586637,1.94183465

>  <Name>
P81864887

>  <RI>
0

>  <Rbt.Current_Directory>
/home/fstefaniak/projects/zuza/docking/adenine/1Y26

>  <Rbt.Executable>
rbdock ($Id: //depot/dev/client3/rdock/2013.1/src/exe/rbdock.cxx#4 $)

>  <Rbt.Library>
libRbt.so (2013.1, Build901 2013/11/27)

>  <Rbt.Parameter_File>
/home/fstefaniak/progs/rDock//data/scripts/dock_solv.prm

>  <Rbt.Receptor>
1y26.prm

>  <SCORE>
-47.4709

>  <SCORE.INTER>
-27.0689

>  <SCORE.INTER.CONST>
1

>  <SCORE.INTER.POLAR>
-3.10957

>  <SCORE.INTER.ROT>
4

>  <SCORE.INTER.SOLV>
10.9387

>  <SCORE.INTER.VDW>
-17.5936

>  <SCORE.INTER.norm>
-2.25574

>  <SCORE.INTRA>
0.906704

>  <SCORE.INTRA.DIHEDRAL>
2.08168

>  <SCORE.INTRA.DIHEDRAL.0>
2.13972

>  <SCORE.INTRA.POLAR>
0

>  <SCORE.INTRA.POLAR.0>
0

>  <SCORE.INTRA.REPUL>
0

>  <SCORE.INTRA.REPUL.0>
0

>  <SCORE.INTRA.SOLV>
0.120796

>  <SCORE.INTRA.SOLV.lig_0>
-8.61313

>  <SCORE.INTRA.VDW>
-0.194533

>  <SCORE.INTRA.VDW.0>
0.972323

>  <SCORE.INTRA.norm>
0.0755587

>  <SCORE.RESTR>
0

>  <SCORE.RESTR.CAVITY>
0

>  <SCORE.RESTR.norm>
0

>  <SCORE.SYSTEM>
-21.3087

>  <SCORE.SYSTEM.CONST>
0

>  <SCORE.SYSTEM.DIHEDRAL>
5.29927

>  <SCORE.SYSTEM.POLAR>
-3.21866

>  <SCORE.SYSTEM.SOLV>
0.588431

>  <SCORE.SYSTEM.VDW>
-5.4395

>  <SCORE.SYSTEM.norm>
-1.77573

>  <SCORE.heavy>
12

>  <SCORE.norm>
-3.95591

$$$$
P81864887
 OpenBabel12072022103D
libRbt.so/2013.1/901 2013/11/27
 14 14  0  0  0  0  0  0  0  0999 V2000
   18.5741  -18.6560    4.9535 C   0  0  0  0  0  0  0  0  0  0  0  0
   20.0524  -18.2806    4.9103 C   0  0  0  0  0  0  0  0  0  0  0  0
   20.4839  -17.4133    3.6971 C   0  0  0  0  0  0  0  0  0  0  0  0
   19.9251  -18.0582    2.4110 C   0  0  0  0  0  0  0  0  0  0  0  0
   19.8974  -15.9924    3.8050 C   0  0  0  0  0  0  0  0  0  0  0  0
   21.9818  -17.3480    3.6025 C   0  0  0  0  0  0  0  0  0  0  0  0
   22.7983  -17.8931    2.7235 N   0  0  0  0  0  0  0  0  0  0  0  0
   24.0726  -17.4981    3.0727 N   0  0  0  0  0  0  0  0  0  0  0  0
   23.9454  -16.7426    4.1436 C   0  0  0  0  0  0  0  0  0  0  0  0
   22.6436  -16.6043    4.5458 O   0  0  0  0  0  0  0  0  0  0  0  0
   24.9925  -16.0461    4.9372 C   0  0  0  0  0  0  0  0  0  0  0  0
   25.4967  -16.8627    6.0475 N   0  0  0  0  0  0  0  0  0  0  0  0
   26.1549  -16.3017    6.5894 H   0  0  0  0  0  0  0  0  0  0  0  0
   26.0319  -17.6412    5.6679 H   0  0  0  0  0  0  0  0  0  0  0  0
  1  2  1  0  0  0  0
  2  3  1  0  0  0  0
  3  4  1  0  0  0  0
  3  5  1  0  0  0  0
  3  6  1  0  0  0  0
  6  7  2  0  0  0  0
  6 10  1  0  0  0  0
  7  8  1  0  0  0  0
  8  9  2  0  0  0  0
  9 10  1  0  0  0  0
  9 11  1  0  0  0  0
 11 12  1  0  0  0  0
 12 13  1  0  0  0  0
 12 14  1  0  0  0  0
M  END
>  <CHROM.0>
-45.35412320,75.54822049,-51.13222365,-48.78434921,-53.70444584,-55.65501570
-49.50165199,64.69297311,-166.46046595,163.35775667

>  <CHROM.1>
-48.65350870,109.30507088,-91.48420564,-175.70433554,22.07691255,-17.28050797
4.10384841,2.95718991,-0.19828532,-1.68019361

>  <Name>
P81864887

>  <RI>
0

>  <Rbt.Current_Directory>
/home/fstefaniak/projects/zuza/docking/adenine/1Y26

>  <Rbt.Executable>
rbdock ($Id: //depot/dev/client3/rdock/2013.1/src/exe/rbdock.cxx#4 $)

>  <Rbt.Library>
libRbt.so (2013.1, Build901 2013/11/27)

>  <Rbt.Parameter_File>
/home/fstefaniak/progs/rDock//data/scripts/dock_solv.prm

>  <Rbt.Receptor>
1y26.prm

>  <SCORE>
-44.143

>  <SCORE.INTER>
-27.1112

>  <SCORE.INTER.CONST>
1

>  <SCORE.INTER.POLAR>
-3.83899

>  <SCORE.INTER.ROT>
4

>  <SCORE.INTER.SOLV>
13.8768

>  <SCORE.INTER.VDW>
-16.1698

>  <SCORE.INTER.norm>
-2.25926

>  <SCORE.INTRA>
2.5412

>  <SCORE.INTRA.DIHEDRAL>
0.522013

>  <SCORE.INTRA.DIHEDRAL.0>
2.13972

>  <SCORE.INTRA.POLAR>
0

>  <SCORE.INTRA.POLAR.0>
0

>  <SCORE.INTRA.REPUL>
0

>  <SCORE.INTRA.REPUL.0>
0

>  <SCORE.INTRA.SOLV>
-0.230982

>  <SCORE.INTRA.SOLV.lig_0>
-8.61313

>  <SCORE.INTRA.VDW>
2.39568

>  <SCORE.INTRA.VDW.0>
0.972323

>  <SCORE.INTRA.norm>
0.211766

>  <SCORE.RESTR>
0

>  <SCORE.RESTR.CAVITY>
0

>  <SCORE.RESTR.norm>
0

>  <SCORE.SYSTEM>
-19.5731

>  <SCORE.SYSTEM.CONST>
0

>  <SCORE.SYSTEM.DIHEDRAL>
7.9798

>  <SCORE.SYSTEM.POLAR>
-3.59894

>  <SCORE.SYSTEM.SOLV>
0.476975

>  <SCORE.SYSTEM.VDW>
-3.87115

>  <SCORE.SYSTEM.norm>
-1.63109

>  <SCORE.heavy>
12

>  <SCORE.norm>
-3.67859

$$$$
P81941650
 OpenBabel12072022103D
libRbt.so/2013.1/901 2013/11/27
 14 14  0  0  0  0  0  0  0  0999 V2000
   19.4658  -18.9576    7.2020 C   0  0  0  0  0  0  0  0  0  0  0  0
   18.7739  -18.8780    5.8467 C   0  0  0  0  0  0  0  0  0  0  0  0
   19.7536  -18.6705    4.6817 C   0  0  1  0  0  0  0  0  0  0  0  0
   19.0598  -18.7744    3.3760 C   0  0  0  0  0  0  0  0  0  0  0  0
   18.4872  -18.8296    2.3667 N   0  0  0  0  0  0  0  0  0  0  0  0
   20.3825  -17.3594    4.8109 N   0  0  0  0  0  0  0  0  0  0  0  0
   20.2362  -16.4166    3.8377 C   0  0  0  0  0  0  0  0  0  0  0  0
   19.2878  -16.3854    3.0617 O   0  0  0  0  0  0  0  0  0  0  0  0
   21.2401  -15.4968    3.7476 N   0  0  0  0  0  0  0  0  0  0  0  0
   22.3611  -15.3307    4.6113 C   0  0  0  0  0  0  0  0  0  0  0  0
   23.6976  -15.9400    4.2908 C   0  0  0  0  0  0  0  0  0  0  0  0
   23.5105  -14.4553    4.1909 C   0  0  0  0  0  0  0  0  0  0  0  0
   20.5540  -17.0133    5.7426 H   0  0  0  0  0  0  0  0  0  0  0  0
   21.0866  -14.8130    3.0145 H   0  0  0  0  0  0  0  0  0  0  0  0
  1  2  1  0  0  0  0
  3  2  1  1  0  0  0
  3  4  1  0  0  0  0
  3  6  1  0  0  0  0
  4  5  3  0  0  0  0
  6  7  1  0  0  0  0
  6 13  1  0  0  0  0
  7  8  2  0  0  0  0
  7  9  1  0  0  0  0
  9 10  1  0  0  0  0
  9 14  1  0  0  0  0
 10 11  1  0  0  0  0
 10 12  1  0  0  0  0
 11 12  1  0  0  0  0
M  END
>  <CHROM.0>
-48.18688947,-60.82236323,-47.90346878,-52.53653067,-57.32001662,-60.89618100
-59.57793297,-52.62414417,-167.40788028,160.44761966

>  <CHROM.1>
172.66756576,-119.39187349,24.90546998,96.17406355,20.51880361,-17.10236334
4.35217340,-2.75214965,-0.65840380,-1.13355161

>  <Name>
P81941650

>  <RI>
0

>  <Rbt.Current_Directory>
/home/fstefaniak/projects/zuza/docking/adenine/1Y26

>  <Rbt.Executable>
rbdock ($Id: //depot/dev/client3/rdock/2013.1/src/exe/rbdock.cxx#4 $)

>  <Rbt.Library>
libRbt.so (2013.1, Build901 2013/11/27)

>  <Rbt.Parameter_File>
/home/fstefaniak/progs/rDock//data/scripts/dock_solv.prm

>  <Rbt.Receptor>
1y26.prm

>  <SCORE>
-50.5859

>  <SCORE.INTER>
-32.3967

>  <SCORE.INTER.CONST>
1

>  <SCORE.INTER.POLAR>
-3.10624

>  <SCORE.INTER.ROT>
4

>  <SCORE.INTER.SOLV>
12.8537

>  <SCORE.INTER.VDW>
-21.7949

>  <SCORE.INTER.norm>
-2.69972

>  <SCORE.INTRA>
4.00913

>  <SCORE.INTRA.DIHEDRAL>
0.936633

>  <SCORE.INTRA.DIHEDRAL.0>
2.58334

>  <SCORE.INTRA.POLAR>
0

>  <SCORE.INTRA.POLAR.0>
0

>  <SCORE.INTRA.REPUL>
0

>  <SCORE.INTRA.REPUL.0>
0

>  <SCORE.INTRA.SOLV>
0.73872

>  <SCORE.INTRA.SOLV.lig_0>
-16.0609

>  <SCORE.INTRA.VDW>
3.17145

>  <SCORE.INTRA.VDW.0>
-0.714897

>  <SCORE.INTRA.norm>
0.334094

>  <SCORE.RESTR>
0

>  <SCORE.RESTR.CAVITY>
0

>  <SCORE.RESTR.norm>
0

>  <SCORE.SYSTEM>
-22.1983

>  <SCORE.SYSTEM.CONST>
0

>  <SCORE.SYSTEM.DIHEDRAL>
6.24708

>  <SCORE.SYSTEM.POLAR>
-3.56041

>  <SCORE.SYSTEM.SOLV>
0.672851

>  <SCORE.SYSTEM.VDW>
-5.23751

>  <SCORE.SYSTEM.norm>
-1.84986

>  <SCORE.heavy>
12

>  <SCORE.norm>
-4.21549

$$$$
P81941650
 OpenBabel12072022103D
libRbt.so/2013.1/901 2013/11/27
 14 14  0  0  0  0  0  0  0  0999 V2000
   19.4766  -18.9110    7.1929 C   0  0  0  0  0  0  0  0  0  0  0  0
   18.7917  -18.8363    5.8337 C   0  0  0  0  0  0  0  0  0  0  0  0
   19.7789  -18.6498    4.6715 C   0  0  1  0  0  0  0  0  0  0  0  0
   19.0945  -18.7825    3.3634 C   0  0  0  0  0  0  0  0  0  0  0  0
   18.5291  -18.8601    2.3516 N   0  0  0  0  0  0  0  0  0  0  0  0
   20.4032  -17.3344    4.7781 N   0  0  0  0  0  0  0  0  0  0  0  0
   20.2456  -16.4057    3.7933 C   0  0  0  0  0  0  0  0  0  0  0  0
   19.3056  -16.4053    3.0065 O   0  0  0  0  0  0  0  0  0  0  0  0
   21.2281  -15.4631    3.7045 N   0  0  0  0  0  0  0  0  0  0  0  0
   22.3350  -15.2612    4.5788 C   0  0  0  0  0  0  0  0  0  0  0  0
   23.4592  -14.3291    4.2216 C   0  0  0  0  0  0  0  0  0  0  0  0
   22.4913  -13.9516    5.3032 C   0  0  0  0  0  0  0  0  0  0  0  0
   20.5802  -16.9750    5.7037 H   0  0  0  0  0  0  0  0  0  0  0  0
   21.0668  -14.7908    2.9625 H   0  0  0  0  0  0  0  0  0  0  0  0
  1  2  1  0  0  0  0
  3  2  1  1  0  0  0
  3  4  1  0  0  0  0
  3  6  1  0  0  0  0
  4  5  3  0  0  0  0
  6  7  1  0  0  0  0
  6 13  1  0  0  0  0
  7  8  2  0  0  0  0
  7  9  1  0  0  0  0
  9 10  1  0  0  0  0
  9 14  1  0  0  0  0
 10 11  1  0  0  0  0
 10 12  1  0  0  0  0
 11 12  1  0  0  0  0
M  END
>  <CHROM.0>
-49.20216662,-57.84910705,-54.38908237,-52.81352421,-54.82060907,-61.42374479
-57.39402782,-50.73521512,-166.64117738,159.87094317

>  <CHROM.1>
171.64207958,-118.47017439,23.33533616,169.53306598,20.42484291,-16.90922766
4.41689601,-2.84389453,-0.83671581,-1.20949639

>  <Name>
P81941650

>  <RI>
0

>  <Rbt.Current_Directory>
/home/fstefaniak/projects/zuza/docking/adenine/1Y26

>  <Rbt.Executable>
rbdock ($Id: //depot/dev/client3/rdock/2013.1/src/exe/rbdock.cxx#4 $)

>  <Rbt.Library>
libRbt.so (2013.1, Build901 2013/11/27)

>  <Rbt.Parameter_File>
/home/fstefaniak/progs/rDock//data/scripts/dock_solv.prm

>  <Rbt.Receptor>
1y26.prm

>  <SCORE>
-50.1846

>  <SCORE.INTER>
-32.1733

>  <SCORE.INTER.CONST>
1

>  <SCORE.INTER.POLAR>
-3.17699

>  <SCORE.INTER.ROT>
4

>  <SCORE.INTER.SOLV>
13.1056

>  <SCORE.INTER.VDW>
-21.4941

>  <SCORE.INTER.norm>
-2.68111

>  <SCORE.INTRA>
4.15837

>  <SCORE.INTRA.DIHEDRAL>
1.03989

>  <SCORE.INTRA.DIHEDRAL.0>
2.58334

>  <SCORE.INTRA.POLAR>
0

>  <SCORE.INTRA.POLAR.0>
0

>  <SCORE.INTRA.REPUL>
0

>  <SCORE.INTRA.REPUL.0>
0

>  <SCORE.INTRA.SOLV>
0.672676

>  <SCORE.INTRA.SOLV.lig_0>
-16.0609

>  <SCORE.INTRA.VDW>
3.30209

>  <SCORE.INTRA.VDW.0>
-0.714897

>  <SCORE.INTRA.norm>
0.346531

>  <SCORE.RESTR>
0

>  <SCORE.RESTR.CAVITY>
0

>  <SCORE.RESTR.norm>
0

>  <SCORE.SYSTEM>
-22.1696

>  <SCORE.SYSTEM.CONST>
0

>  <SCORE.SYSTEM.DIHEDRAL>
6.06027

>  <SCORE.SYSTEM.POLAR>
-3.5177

>  <SCORE.SYSTEM.SOLV>
0.671341

>  <SCORE.SYSTEM.VDW>
-5.29793

>  <SCORE.SYSTEM.norm>
-1.84746

>  <SCORE.heavy>
12

>  <SCORE.norm>
-4.18205

$$$$
P81941650
 OpenBabel12072022103D
libRbt.so/2013.1/901 2013/11/27
 14 14  0  0  0  0  0  0  0  0999 V2000
   19.4849  -18.9504    7.1983 C   0  0  0  0  0  0  0  0  0  0  0  0
   18.7875  -18.8560    5.8467 C   0  0  0  0  0  0  0  0  0  0  0  0
   19.7642  -18.6546    4.6781 C   0  0  1  0  0  0  0  0  0  0  0  0
   19.0692  -18.7773    3.3746 C   0  0  0  0  0  0  0  0  0  0  0  0
   18.4955  -18.8473    2.3669 N   0  0  0  0  0  0  0  0  0  0  0  0
   20.3844  -17.3380    4.7921 N   0  0  0  0  0  0  0  0  0  0  0  0
   20.2241  -16.4042    3.8125 C   0  0  0  0  0  0  0  0  0  0  0  0
   19.2655  -16.3811    3.0488 O   0  0  0  0  0  0  0  0  0  0  0  0
   21.2254  -15.4840    3.7009 N   0  0  0  0  0  0  0  0  0  0  0  0
   22.3575  -15.3088    4.5482 C   0  0  0  0  0  0  0  0  0  0  0  0
   23.4475  -14.3296    4.2114 C   0  0  0  0  0  0  0  0  0  0  0  0
   22.5100  -14.0423    5.3463 C   0  0  0  0  0  0  0  0  0  0  0  0
   20.5603  -16.9832    5.7197 H   0  0  0  0  0  0  0  0  0  0  0  0
   21.0614  -14.8070    2.9638 H   0  0  0  0  0  0  0  0  0  0  0  0
  1  2  1  0  0  0  0
  3  2  1  1  0  0  0
  3  4  1  0  0  0  0
  3  6  1  0  0  0  0
  4  5  3  0  0  0  0
  6  7  1  0  0  0  0
  6 13  1  0  0  0  0
  7  8  2  0  0  0  0
  7  9  1  0  0  0  0
  9 10  1  0  0  0  0
  9 14  1  0  0  0  0
 10 11  1  0  0  0  0
 10 12  1  0  0  0  0
 11 12  1  0  0  0  0
M  END
>  <CHROM.0>
-47.19715133,-62.60439229,-55.60718994,-49.75796380,-53.57329383,57.30903325
-56.60089283,-177.99472724,-167.79221132,161.09953589

>  <CHROM.1>
171.25784219,-119.01154255,25.38449616,173.90051762,20.41447146,-16.92449524
4.42785115,-2.82808548,-0.82495550,-1.19094444

>  <Name>
P81941650

>  <RI>
0

>  <Rbt.Current_Directory>
/home/fstefaniak/projects/zuza/docking/adenine/1Y26

>  <Rbt.Executable>
rbdock ($Id: //depot/dev/client3/rdock/2013.1/src/exe/rbdock.cxx#4 $)

>  <Rbt.Library>
libRbt.so (2013.1, Build901 2013/11/27)

>  <Rbt.Parameter_File>
/home/fstefaniak/progs/rDock//data/scripts/dock_solv.prm

>  <Rbt.Receptor>
1y26.prm

>  <SCORE>
-49.6156

>  <SCORE.INTER>
-31.8502

>  <SCORE.INTER.CONST>
1

>  <SCORE.INTER.POLAR>
-3.10624

>  <SCORE.INTER.ROT>
4

>  <SCORE.INTER.SOLV>
13.173

>  <SCORE.INTER.VDW>
-21.537

>  <SCORE.INTER.norm>
-2.65419

>  <SCORE.INTRA>
3.92701

>  <SCORE.INTRA.DIHEDRAL>
1.071

>  <SCORE.INTRA.DIHEDRAL.0>
2.58334

>  <SCORE.INTRA.POLAR>
0

>  <SCORE.INTRA.POLAR.0>
0

>  <SCORE.INTRA.REPUL>
0

>  <SCORE.INTRA.REPUL.0>
0

>  <SCORE.INTRA.SOLV>
0.675503

>  <SCORE.INTRA.SOLV.lig_0>
-16.0609

>  <SCORE.INTRA.VDW>
3.05375

>  <SCORE.INTRA.VDW.0>
-0.714897

>  <SCORE.INTRA.norm>
0.32725

>  <SCORE.RESTR>
0

>  <SCORE.RESTR.CAVITY>
0

>  <SCORE.RESTR.norm>
0

>  <SCORE.SYSTEM>
-21.6924

>  <SCORE.SYSTEM.CONST>
0

>  <SCORE.SYSTEM.DIHEDRAL>
5.90165

>  <SCORE.SYSTEM.POLAR>
-3.51732

>  <SCORE.SYSTEM.SOLV>
0.309156

>  <SCORE.SYSTEM.VDW>
-4.80746

>  <SCORE.SYSTEM.norm>
-1.8077

>  <SCORE.heavy>
12

>  <SCORE.norm>
-4.13464

$$$$
P82048427
 OpenBabel12072022103D
libRbt.so/2013.1/901 2013/11/27
 15 15  0  0  0  0  0  0  0  0999 V2000
   23.5745  -15.2816    4.2798 C   0  0  0  0  0  0  0  0  0  0  0  0
   22.1294  -15.6712    4.0149 C   0  0  0  0  0  0  0  0  0  0  0  0
   22.0860  -17.0565    3.5201 N   0  0  0  0  0  0  0  0  0  0  0  0
   20.9056  -17.7028    3.8983 C   0  0  0  0  0  0  0  0  0  0  0  0
   19.9820  -18.2970    3.0438 C   0  0  0  0  0  0  0  0  0  0  0  0
   18.8924  -18.9770    3.6083 C   0  0  0  0  0  0  0  0  0  0  0  0
   18.7386  -19.0375    4.9885 C   0  0  0  0  0  0  0  0  0  0  0  0
   19.6818  -18.4089    5.7969 C   0  0  0  0  0  0  0  0  0  0  0  0
   20.7123  -17.7779    5.2184 N   0  3  0  0  0  0  0  0  0  0  0  0
   21.4208  -17.2954    5.7605 H   0  0  0  0  0  0  0  0  0  0  0  0
   19.5804  -18.4123    7.2852 C   0  0  0  0  0  0  0  0  0  0  0  0
   20.1244  -18.1696    1.5597 C   0  0  0  0  0  0  0  0  0  0  0  0
   21.2634  -17.8475    1.1209 O   0  0  0  0  0  0  0  0  0  0  0  0
   19.0703  -18.3960    0.8891 O   0  5  0  0  0  0  0  0  0  0  0  0
   22.8227  -17.5633    4.0746 H   0  0  0  0  0  0  0  0  0  0  0  0
  1  2  1  0  0  0  0
  2  3  1  0  0  0  0
  3  4  1  0  0  0  0
  3 15  1  0  0  0  0
  4  5  2  0  0  0  0
  4  9  1  0  0  0  0
  5  6  1  0  0  0  0
  5 12  1  0  0  0  0
  6  7  2  0  0  0  0
  7  8  1  0  0  0  0
  8  9  2  0  0  0  0
  8 11  1  0  0  0  0
  9 10  1  0  0  0  0
 12 13  2  0  0  0  0
 12 14  1  0  0  0  0
M  CHG  2   9   1  14  -1
M  END
>  <CHROM.0>
-45.01393595,-56.18353420,-48.63126174,-50.24371363,-53.47581653,-48.97489263
-50.78020081,-175.83495853,-166.57913445,162.39971321

>  <CHROM.1>
149.07017419,123.13893682,19.16142636,20.57494231,-17.73504116,3.76416492
-1.33458941,0.65802287,1.54389815

>  <Name>
P82048427

>  <RI>
0

>  <Rbt.Current_Directory>
/home/fstefaniak/projects/zuza/docking/adenine/1Y26

>  <Rbt.Executable>
rbdock ($Id: //depot/dev/client3/rdock/2013.1/src/exe/rbdock.cxx#4 $)

>  <Rbt.Library>
libRbt.so (2013.1, Build901 2013/11/27)

>  <Rbt.Parameter_File>
/home/fstefaniak/progs/rDock//data/scripts/dock_solv.prm

>  <Rbt.Receptor>
1y26.prm

>  <SCORE>
-33.7392

>  <SCORE.INTER>
-15.5301

>  <SCORE.INTER.CONST>
1

>  <SCORE.INTER.POLAR>
-2.99633

>  <SCORE.INTER.ROT>
3

>  <SCORE.INTER.SOLV>
26.4443

>  <SCORE.INTER.VDW>
-14.7804

>  <SCORE.INTER.norm>
-1.19462

>  <SCORE.INTRA>
3.78221

>  <SCORE.INTRA.DIHEDRAL>
1.18034

>  <SCORE.INTRA.DIHEDRAL.0>
1.52899

>  <SCORE.INTRA.POLAR>
0.231075

>  <SCORE.INTRA.POLAR.0>
-0.231075

>  <SCORE.INTRA.REPUL>
0

>  <SCORE.INTRA.REPUL.0>
0

>  <SCORE.INTRA.SOLV>
1.46292

>  <SCORE.INTRA.SOLV.lig_0>
-46.6267

>  <SCORE.INTRA.VDW>
1.67492

>  <SCORE.INTRA.VDW.0>
-0.405026

>  <SCORE.INTRA.norm>
0.290939

>  <SCORE.RESTR>
0

>  <SCORE.RESTR.CAVITY>
0

>  <SCORE.RESTR.norm>
0

>  <SCORE.SYSTEM>
-21.9913

>  <SCORE.SYSTEM.CONST>
0

>  <SCORE.SYSTEM.DIHEDRAL>
7.53501

>  <SCORE.SYSTEM.POLAR>
-3.65867

>  <SCORE.SYSTEM.SOLV>
0.512411

>  <SCORE.SYSTEM.VDW>
-5.14777

>  <SCORE.SYSTEM.norm>
-1.69164

>  <SCORE.heavy>
13

>  <SCORE.norm>
-2.59532

$$$$
P82048427
 OpenBabel12072022103D
libRbt.so/2013.1/901 2013/11/27
 15 15  0  0  0  0  0  0  0  0999 V2000
   23.5548  -15.1854    4.1194 C   0  0  0  0  0  0  0  0  0  0  0  0
   22.1107  -15.6427    3.9943 C   0  0  0  0  0  0  0  0  0  0  0  0
   22.0849  -17.0356    3.5197 N   0  0  0  0  0  0  0  0  0  0  0  0
   20.9087  -17.6884    3.8994 C   0  0  0  0  0  0  0  0  0  0  0  0
   19.9908  -18.2937    3.0465 C   0  0  0  0  0  0  0  0  0  0  0  0
   18.9052  -18.9787    3.6129 C   0  0  0  0  0  0  0  0  0  0  0  0
   18.7497  -19.0331    4.9931 C   0  0  0  0  0  0  0  0  0  0  0  0
   19.6870  -18.3935    5.7998 C   0  0  0  0  0  0  0  0  0  0  0  0
   20.7137  -17.7580    5.2196 N   0  3  0  0  0  0  0  0  0  0  0  0
   21.4179  -17.2676    5.7603 H   0  0  0  0  0  0  0  0  0  0  0  0
   19.5832  -18.3898    7.2879 C   0  0  0  0  0  0  0  0  0  0  0  0
   20.1347  -18.1731    1.5621 C   0  0  0  0  0  0  0  0  0  0  0  0
   21.2726  -17.8472    1.1232 O   0  0  0  0  0  0  0  0  0  0  0  0
   19.0827  -18.4083    0.8911 O   0  5  0  0  0  0  0  0  0  0  0  0
   22.8229  -17.5265    4.0866 H   0  0  0  0  0  0  0  0  0  0  0  0
  1  2  1  0  0  0  0
  2  3  1  0  0  0  0
  3  4  1  0  0  0  0
  3 15  1  0  0  0  0
  4  5  2  0  0  0  0
  4  9  1  0  0  0  0
  5  6  1  0  0  0  0
  5 12  1  0  0  0  0
  6  7  2  0  0  0  0
  7  8  1  0  0  0  0
  8  9  2  0  0  0  0
  8 11  1  0  0  0  0
  9 10  1  0  0  0  0
 12 13  2  0  0  0  0
 12 14  1  0  0  0  0
M  CHG  2   9   1  14  -1
M  END
>  <CHROM.0>
-50.60273716,-59.67629086,-56.43233593,-50.86751648,-175.67036192,-54.19289148
-57.21265660,-49.18755843,-167.53468850,161.00934828

>  <CHROM.1>
155.13415534,122.49115890,19.27857893,20.57754022,-17.71830887,3.75117169
-1.10755853,0.67144357,1.53690686

>  <Name>
P82048427

>  <RI>
0

>  <Rbt.Current_Directory>
/home/fstefaniak/projects/zuza/docking/adenine/1Y26

>  <Rbt.Executable>
rbdock ($Id: //depot/dev/client3/rdock/2013.1/src/exe/rbdock.cxx#4 $)

>  <Rbt.Library>
libRbt.so (2013.1, Build901 2013/11/27)

>  <Rbt.Parameter_File>
/home/fstefaniak/progs/rDock//data/scripts/dock_solv.prm

>  <Rbt.Receptor>
1y26.prm

>  <SCORE>
-33.6277

>  <SCORE.INTER>
-14.8231

>  <SCORE.INTER.CONST>
1

>  <SCORE.INTER.POLAR>
-3.00938

>  <SCORE.INTER.ROT>
3

>  <SCORE.INTER.SOLV>
26.3592

>  <SCORE.INTER.VDW>
-14.2372

>  <SCORE.INTER.norm>
-1.14024

>  <SCORE.INTRA>
3.23917

>  <SCORE.INTRA.DIHEDRAL>
0.848315

>  <SCORE.INTRA.DIHEDRAL.0>
1.52899

>  <SCORE.INTRA.POLAR>
0.231075

>  <SCORE.INTRA.POLAR.0>
-0.231075

>  <SCORE.INTRA.REPUL>
0

>  <SCORE.INTRA.REPUL.0>
0

>  <SCORE.INTRA.SOLV>
1.36653

>  <SCORE.INTRA.SOLV.lig_0>
-46.6267

>  <SCORE.INTRA.VDW>
1.3461

>  <SCORE.INTRA.VDW.0>
-0.405026

>  <SCORE.INTRA.norm>
0.249167

>  <SCORE.RESTR>
0

>  <SCORE.RESTR.CAVITY>
0

>  <SCORE.RESTR.norm>
0

>  <SCORE.SYSTEM>
-22.0438

>  <SCORE.SYSTEM.CONST>
0

>  <SCORE.SYSTEM.DIHEDRAL>
5.94353

>  <SCORE.SYSTEM.POLAR>
-3.5095

>  <SCORE.SYSTEM.SOLV>
0.517269

>  <SCORE.SYSTEM.VDW>
-5.15112

>  <SCORE.SYSTEM.norm>
-1.69568

>  <SCORE.heavy>
13

>  <SCORE.norm>
-2.58674

$$$$
P82048427
 OpenBabel12072022103D
libRbt.so/2013.1/901 2013/11/27
 15 15  0  0  0  0  0  0  0  0999 V2000
   20.8680  -16.8327    4.0618 C   0  0  0  0  0  0  0  0  0  0  0  0
   21.0357  -15.3710    4.4436 C   0  0  0  0  0  0  0  0  0  0  0  0
   22.3155  -15.2004    5.1499 N   0  0  0  0  0  0  0  0  0  0  0  0
   22.4828  -13.8894    5.6052 C   0  0  0  0  0  0  0  0  0  0  0  0
   22.7323  -12.7698    4.8176 C   0  0  0  0  0  0  0  0  0  0  0  0
   22.7876  -11.5143    5.4414 C   0  0  0  0  0  0  0  0  0  0  0  0
   22.6116  -11.4028    6.8158 C   0  0  0  0  0  0  0  0  0  0  0  0
   22.3841  -12.5577    7.5592 C   0  0  0  0  0  0  0  0  0  0  0  0
   22.3298  -13.7359    6.9238 N   0  3  0  0  0  0  0  0  0  0  0  0
   22.1773  -14.6078    7.4190 H   0  0  0  0  0  0  0  0  0  0  0  0
   22.2024  -12.5263    9.0395 C   0  0  0  0  0  0  0  0  0  0  0  0
   22.9837  -12.9111    3.3493 C   0  0  0  0  0  0  0  0  0  0  0  0
   23.2383  -14.0715    2.9226 O   0  0  0  0  0  0  0  0  0  0  0  0
   22.9195  -11.8348    2.6788 O   0  5  0  0  0  0  0  0  0  0  0  0
   23.0495  -15.2876    4.4012 H   0  0  0  0  0  0  0  0  0  0  0  0
  1  2  1  0  0  0  0
  2  3  1  0  0  0  0
  3  4  1  0  0  0  0
  3 15  1  0  0  0  0
  4  5  2  0  0  0  0
  4  9  1  0  0  0  0
  5  6  1  0  0  0  0
  5 12  1  0  0  0  0
  6  7  2  0  0  0  0
  7  8  1  0  0  0  0
  8  9  2  0  0  0  0
  8 11  1  0  0  0  0
  9 10  1  0  0  0  0
 12 13  2  0  0  0  0
 12 14  1  0  0  0  0
M  CHG  2   9   1  14  -1
M  END
>  <CHROM.0>
-179.13894480,-176.15184937,62.64393513,-53.76304394,60.51330114,-174.16726699
78.49775908,-51.29404498,-167.76560900,160.31611573

>  <CHROM.1>
-176.00272551,-71.24302739,-14.56638099,22.36922058,-13.49230226,5.24807158
1.75867079,-1.19095556,-1.93763159

>  <Name>
P82048427

>  <RI>
0

>  <Rbt.Current_Directory>
/home/fstefaniak/projects/zuza/docking/adenine/1Y26

>  <Rbt.Executable>
rbdock ($Id: //depot/dev/client3/rdock/2013.1/src/exe/rbdock.cxx#4 $)

>  <Rbt.Library>
libRbt.so (2013.1, Build901 2013/11/27)

>  <Rbt.Parameter_File>
/home/fstefaniak/progs/rDock//data/scripts/dock_solv.prm

>  <Rbt.Receptor>
1y26.prm

>  <SCORE>
-33.5505

>  <SCORE.INTER>
-16.8612

>  <SCORE.INTER.CONST>
1

>  <SCORE.INTER.POLAR>
-2.73273

>  <SCORE.INTER.ROT>
3

>  <SCORE.INTER.SOLV>
21.1725

>  <SCORE.INTER.VDW>
-14.7892

>  <SCORE.INTER.norm>
-1.29701

>  <SCORE.INTRA>
0.410532

>  <SCORE.INTRA.DIHEDRAL>
0.0461778

>  <SCORE.INTRA.DIHEDRAL.0>
1.52899

>  <SCORE.INTRA.POLAR>
0.125772

>  <SCORE.INTRA.POLAR.0>
-0.231075

>  <SCORE.INTRA.REPUL>
0

>  <SCORE.INTRA.REPUL.0>
0

>  <SCORE.INTRA.SOLV>
-0.070776

>  <SCORE.INTRA.SOLV.lig_0>
-46.6267

>  <SCORE.INTRA.VDW>
-0.00479455

>  <SCORE.INTRA.VDW.0>
-0.405026

>  <SCORE.INTRA.norm>
0.0315794

>  <SCORE.RESTR>
1.07515

>  <SCORE.RESTR.CAVITY>
1.07515

>  <SCORE.RESTR.norm>
0.0827035

>  <SCORE.SYSTEM>
-18.175

>  <SCORE.SYSTEM.CONST>
0

>  <SCORE.SYSTEM.DIHEDRAL>
6.67402

>  <SCORE.SYSTEM.POLAR>
-3.56341

>  <SCORE.SYSTEM.SOLV>
0.0336258

>  <SCORE.SYSTEM.VDW>
-2.47452

>  <SCORE.SYSTEM.norm>
-1.39808

>  <SCORE.heavy>
13

>  <SCORE.norm>
-2.58081

$$$$
P83576915
 OpenBabel12072022103D
libRbt.so/2013.1/901 2013/11/27
 12 12  0  0  0  0  0  0  0  0999 V2000
   18.3095  -18.4754    4.4062 C   0  0  0  0  0  0  0  0  0  0  0  0
   19.5822  -18.5527    5.2436 C   0  0  0  0  0  0  0  0  0  0  0  0
   20.5861  -17.6444    4.5268 C   0  0  1  0  0  0  0  0  0  0  0  0
   20.1708  -17.8720    3.0802 C   0  0  0  0  0  0  0  0  0  0  0  0
   20.9506  -17.5687    2.0854 N   0  0  0  0  0  0  0  0  0  0  0  0
   20.3513  -17.8983    0.8645 O   0  0  0  0  0  0  0  0  0  0  0  0
   18.8016  -18.5008    2.9644 C   0  0  0  0  0  0  0  0  0  0  0  0
   20.3595  -16.2323    4.8725 N   0  0  0  0  0  0  0  0  0  0  0  0
   21.3095  -15.4792    4.0641 O   0  0  0  0  0  0  0  0  0  0  0  0
   20.5875  -18.8392    0.7632 H   0  0  0  0  0  0  0  0  0  0  0  0
   20.7101  -16.0532    5.8165 H   0  0  0  0  0  0  0  0  0  0  0  0
   20.7334  -15.0983    3.3711 H   0  0  0  0  0  0  0  0  0  0  0  0
  1  2  1  0  0  0  0
  1  7  1  0  0  0  0
  2  3  1  0  0  0  0
  3  4  1  0  0  0  0
  3  8  1  1  0  0  0
  4  5  2  0  0  0  0
  4  7  1  0  0  0  0
  5  6  1  0  0  0  0
  6 10  1  0  0  0  0
  8  9  1  0  0  0  0
  8 11  1  0  0  0  0
  9 12  1  0  0  0  0
M  END
>  <CHROM.0>
-47.62604720,-59.45737418,-57.33593729,-50.46541429,-175.31701393,-61.68350299
-61.20698848,-54.23157430,-164.80499678,160.52013699

>  <CHROM.1>
-176.28641468,-85.19233487,104.88365005,20.07890095,-17.52728507,3.52840630
1.62817439,0.84170323,1.26510900

>  <Name>
P83576915

>  <RI>
0

>  <Rbt.Current_Directory>
/home/fstefaniak/projects/zuza/docking/adenine/1Y26

>  <Rbt.Executable>
rbdock ($Id: //depot/dev/client3/rdock/2013.1/src/exe/rbdock.cxx#4 $)

>  <Rbt.Library>
libRbt.so (2013.1, Build901 2013/11/27)

>  <Rbt.Parameter_File>
/home/fstefaniak/progs/rDock//data/scripts/dock_solv.prm

>  <Rbt.Receptor>
1y26.prm

>  <SCORE>
-54.4183

>  <SCORE.INTER>
-31.4756

>  <SCORE.INTER.CONST>
1

>  <SCORE.INTER.POLAR>
-4.17677

>  <SCORE.INTER.ROT>
1

>  <SCORE.INTER.SOLV>
11.0937

>  <SCORE.INTER.VDW>
-15.0258

>  <SCORE.INTER.norm>
-3.49729

>  <SCORE.INTRA>
-0.784118

>  <SCORE.INTRA.DIHEDRAL>
-1.92263

>  <SCORE.INTRA.DIHEDRAL.0>
2.8629

>  <SCORE.INTRA.POLAR>
0

>  <SCORE.INTRA.POLAR.0>
0

>  <SCORE.INTRA.REPUL>
0

>  <SCORE.INTRA.REPUL.0>
0

>  <SCORE.INTRA.SOLV>
0.166439

>  <SCORE.INTRA.SOLV.lig_0>
-13.7639

>  <SCORE.INTRA.VDW>
0.0939753

>  <SCORE.INTRA.VDW.0>
-0.788927

>  <SCORE.INTRA.norm>
-0.0871242

>  <SCORE.RESTR>
0

>  <SCORE.RESTR.CAVITY>
0

>  <SCORE.RESTR.norm>
0

>  <SCORE.SYSTEM>
-22.1585

>  <SCORE.SYSTEM.CONST>
0

>  <SCORE.SYSTEM.DIHEDRAL>
6.1114

>  <SCORE.SYSTEM.POLAR>
-3.53752

>  <SCORE.SYSTEM.SOLV>
0.491463

>  <SCORE.SYSTEM.VDW>
-5.18155

>  <SCORE.SYSTEM.norm>
-2.46206

>  <SCORE.heavy>
9

>  <SCORE.norm>
-6.04647

$$$$
P83576915
 OpenBabel12072022103D
libRbt.so/2013.1/901 2013/11/27
 12 12  0  0  0  0  0  0  0  0999 V2000
   18.2916  -18.4893    4.4021 C   0  0  0  0  0  0  0  0  0  0  0  0
   19.5513  -18.5534    5.2599 C   0  0  0  0  0  0  0  0  0  0  0  0
   20.5584  -17.6375    4.5573 C   0  0  1  0  0  0  0  0  0  0  0  0
   20.1684  -17.8718    3.1047 C   0  0  0  0  0  0  0  0  0  0  0  0
   20.9613  -17.5634    2.1219 N   0  0  0  0  0  0  0  0  0  0  0  0
   20.3846  -17.9009    0.8922 O   0  0  0  0  0  0  0  0  0  0  0  0
   18.8069  -18.5132    2.9684 C   0  0  0  0  0  0  0  0  0  0  0  0
   20.3135  -16.2268    4.8962 N   0  0  0  0  0  0  0  0  0  0  0  0
   21.2479  -15.4648    4.0780 O   0  0  0  0  0  0  0  0  0  0  0  0
   20.6342  -18.8388    0.7949 H   0  0  0  0  0  0  0  0  0  0  0  0
   20.6670  -16.0372    5.8371 H   0  0  0  0  0  0  0  0  0  0  0  0
   20.6586  -15.0766    3.4002 H   0  0  0  0  0  0  0  0  0  0  0  0
  1  2  1  0  0  0  0
  1  7  1  0  0  0  0
  2  3  1  0  0  0  0
  3  4  1  0  0  0  0
  3  8  1  1  0  0  0
  4  5  2  0  0  0  0
  4  7  1  0  0  0  0
  5  6  1  0  0  0  0
  6 10  1  0  0  0  0
  8  9  1  0  0  0  0
  8 11  1  0  0  0  0
  9 12  1  0  0  0  0
M  END
>  <CHROM.0>
-48.64042620,50.66927684,-54.55437146,-53.93962014,-55.53357224,-50.21811325
-60.28107825,-176.29227313,-166.76130540,161.23380004

>  <CHROM.1>
-174.97944250,-85.42811738,106.34756831,20.06339813,-17.52656596,3.54768618
1.67459867,0.84937072,1.24050699

>  <Name>
P83576915

>  <RI>
0

>  <Rbt.Current_Directory>
/home/fstefaniak/projects/zuza/docking/adenine/1Y26

>  <Rbt.Executable>
rbdock ($Id: //depot/dev/client3/rdock/2013.1/src/exe/rbdock.cxx#4 $)

>  <Rbt.Library>
libRbt.so (2013.1, Build901 2013/11/27)

>  <Rbt.Parameter_File>
/home/fstefaniak/progs/rDock//data/scripts/dock_solv.prm

>  <Rbt.Receptor>
1y26.prm

>  <SCORE>
-53.6923

>  <SCORE.INTER>
-31.0948

>  <SCORE.INTER.CONST>
1

>  <SCORE.INTER.POLAR>
-4.17949

>  <SCORE.INTER.ROT>
1

>  <SCORE.INTER.SOLV>
11.2915

>  <SCORE.INTER.VDW>
-14.8287

>  <SCORE.INTER.norm>
-3.45497

>  <SCORE.INTRA>
-0.731529

>  <SCORE.INTRA.DIHEDRAL>
-1.86418

>  <SCORE.INTRA.DIHEDRAL.0>
2.8629

>  <SCORE.INTRA.POLAR>
0

>  <SCORE.INTRA.POLAR.0>
0

>  <SCORE.INTRA.REPUL>
0

>  <SCORE.INTRA.REPUL.0>
0

>  <SCORE.INTRA.SOLV>
0.191534

>  <SCORE.INTRA.SOLV.lig_0>
-13.7639

>  <SCORE.INTRA.VDW>
0.104795

>  <SCORE.INTRA.VDW.0>
-0.788927

>  <SCORE.INTRA.norm>
-0.081281

>  <SCORE.RESTR>
0

>  <SCORE.RESTR.CAVITY>
0

>  <SCORE.RESTR.norm>
0

>  <SCORE.SYSTEM>
-21.866

>  <SCORE.SYSTEM.CONST>
0

>  <SCORE.SYSTEM.DIHEDRAL>
6.24702

>  <SCORE.SYSTEM.POLAR>
-3.52384

>  <SCORE.SYSTEM.SOLV>
0.539616

>  <SCORE.SYSTEM.VDW>
-5.09339

>  <SCORE.SYSTEM.norm>
-2.42955

>  <SCORE.heavy>
9

>  <SCORE.norm>
-5.96581

$$$$
P83576915
 OpenBabel12072022103D
libRbt.so/2013.1/901 2013/11/27
 12 12  0  0  0  0  0  0  0  0999 V2000
   18.3061  -18.4653    4.4001 C   0  0  0  0  0  0  0  0  0  0  0  0
   19.5737  -18.5503    5.2444 C   0  0  0  0  0  0  0  0  0  0  0  0
   20.5853  -17.6438    4.5361 C   0  0  1  0  0  0  0  0  0  0  0  0
   20.1773  -17.8654    3.0865 C   0  0  0  0  0  0  0  0  0  0  0  0
   20.9639  -17.5623    2.0971 N   0  0  0  0  0  0  0  0  0  0  0  0
   20.3703  -17.8858    0.8718 O   0  0  0  0  0  0  0  0  0  0  0  0
   18.8062  -18.4884    2.9610 C   0  0  0  0  0  0  0  0  0  0  0  0
   20.3623  -16.2319    4.8847 N   0  0  0  0  0  0  0  0  0  0  0  0
   21.3103  -15.4791    4.0737 O   0  0  0  0  0  0  0  0  0  0  0  0
   20.5771  -18.8349    0.7836 H   0  0  0  0  0  0  0  0  0  0  0  0
   20.7170  -16.0548    5.8276 H   0  0  0  0  0  0  0  0  0  0  0  0
   20.7412  -15.1399    3.3537 H   0  0  0  0  0  0  0  0  0  0  0  0
  1  2  1  0  0  0  0
  1  7  1  0  0  0  0
  2  3  1  0  0  0  0
  3  4  1  0  0  0  0
  3  8  1  1  0  0  0
  4  5  2  0  0  0  0
  4  7  1  0  0  0  0
  5  6  1  0  0  0  0
  6 10  1  0  0  0  0
  8  9  1  0  0  0  0
  8 11  1  0  0  0  0
  9 12  1  0  0  0  0
M  END
>  <CHROM.0>
-48.59403825,-60.59062854,-55.78203452,-53.19853642,-55.53222498,60.22425430
-54.85457604,-51.42690860,-166.78323200,160.66573609

>  <CHROM.1>
-175.70965955,-83.32849133,101.66964123,20.08282178,-17.52195222,3.53372865
1.64325194,0.83757847,1.26326421

>  <Name>
P83576915

>  <RI>
0

>  <Rbt.Current_Directory>
/home/fstefaniak/projects/zuza/docking/adenine/1Y26

>  <Rbt.Executable>
rbdock ($Id: //depot/dev/client3/rdock/2013.1/src/exe/rbdock.cxx#4 $)

>  <Rbt.Library>
libRbt.so (2013.1, Build901 2013/11/27)

>  <Rbt.Parameter_File>
/home/fstefaniak/progs/rDock//data/scripts/dock_solv.prm

>  <Rbt.Receptor>
1y26.prm

>  <SCORE>
-53.5847

>  <SCORE.INTER>
-31.4457

>  <SCORE.INTER.CONST>
1

>  <SCORE.INTER.POLAR>
-4.17893

>  <SCORE.INTER.ROT>
1

>  <SCORE.INTER.SOLV>
11.0989

>  <SCORE.INTER.VDW>
-15.0003

>  <SCORE.INTER.norm>
-3.49396

>  <SCORE.INTRA>
-0.760684

>  <SCORE.INTRA.DIHEDRAL>
-1.95137

>  <SCORE.INTRA.DIHEDRAL.0>
2.8629

>  <SCORE.INTRA.POLAR>
0

>  <SCORE.INTRA.POLAR.0>
0

>  <SCORE.INTRA.REPUL>
0

>  <SCORE.INTRA.REPUL.0>
0

>  <SCORE.INTRA.SOLV>
0.173201

>  <SCORE.INTRA.SOLV.lig_0>
-13.7639

>  <SCORE.INTRA.VDW>
0.128403

>  <SCORE.INTRA.VDW.0>
-0.788927

>  <SCORE.INTRA.norm>
-0.0845204

>  <SCORE.RESTR>
0

>  <SCORE.RESTR.CAVITY>
0

>  <SCORE.RESTR.norm>
0

>  <SCORE.SYSTEM>
-21.3783

>  <SCORE.SYSTEM.CONST>
0

>  <SCORE.SYSTEM.DIHEDRAL>
5.88238

>  <SCORE.SYSTEM.POLAR>
-3.49955

>  <SCORE.SYSTEM.SOLV>
0.51478

>  <SCORE.SYSTEM.VDW>
-4.71944

>  <SCORE.SYSTEM.norm>
-2.37537

>  <SCORE.heavy>
9

>  <SCORE.norm>
-5.95385

$$$$
P85902119
 OpenBabel12072022103D
libRbt.so/2013.1/901 2013/11/27
 14 14  0  0  0  0  0  0  0  0999 V2000
   18.4696  -19.2334    5.5856 C   0  0  0  0  0  0  0  0  0  0  0  0
   17.7473  -18.5023    4.4574 C   0  0  0  0  0  0  0  0  0  0  0  0
   18.6618  -17.7551    3.4700 C   0  0  1  0  0  0  0  0  0  0  0  0
   19.7572  -16.9658    4.1914 C   0  0  0  0  0  0  0  0  0  0  0  0
   20.4222  -17.7979    5.2251 N   0  3  0  0  0  0  0  0  0  0  0  0
   20.8356  -18.6258    4.7035 H   0  0  0  0  0  0  0  0  0  0  0  0
   21.2455  -17.3358    5.6158 H   0  0  0  0  0  0  0  0  0  0  0  0
   19.5336  -18.3734    6.2501 C   0  0  0  0  0  0  0  0  0  0  0  0
   19.2162  -18.6306    2.3319 C   0  0  2  0  0  0  0  0  0  0  0  0
   20.4139  -18.1570    1.4491 C   0  0  0  0  0  0  0  0  0  0  0  0
   21.4595  -17.9093    2.1057 O   0  0  0  0  0  0  0  0  0  0  0  0
   20.2306  -18.2068    0.1969 O   0  5  0  0  0  0  0  0  0  0  0  0
   18.1045  -18.8691    1.4243 O   0  0  0  0  0  0  0  0  0  0  0  0
   18.0983  -18.0532    0.8655 H   0  0  0  0  0  0  0  0  0  0  0  0
  1  2  1  0  0  0  0
  1  8  1  0  0  0  0
  2  3  1  0  0  0  0
  3  4  1  0  0  0  0
  3  9  1  6  0  0  0
  4  5  1  0  0  0  0
  5  6  1  0  0  0  0
  5  7  1  0  0  0  0
  5  8  1  0  0  0  0
  9 10  1  6  0  0  0
  9 13  1  0  0  0  0
 10 11  2  0  0  0  0
 10 12  1  0  0  0  0
 13 14  1  0  0  0  0
M  CHG  2   5   1  12  -1
M  END
>  <CHROM.0>
-48.84386585,-56.60275293,-58.22709375,-53.93979705,-58.66342516,-59.12084888
-57.47745194,-53.39522525,-167.10326669,161.05387188

>  <CHROM.1>
-164.92983046,58.51717966,82.90336434,19.47947372,-18.21943563,3.29403307
1.76819866,0.33855862,1.51884353

>  <Name>
P85902119

>  <RI>
0

>  <Rbt.Current_Directory>
/home/fstefaniak/projects/zuza/docking/adenine/1Y26

>  <Rbt.Executable>
rbdock ($Id: //depot/dev/client3/rdock/2013.1/src/exe/rbdock.cxx#4 $)

>  <Rbt.Library>
libRbt.so (2013.1, Build901 2013/11/27)

>  <Rbt.Parameter_File>
/home/fstefaniak/progs/rDock//data/scripts/dock_solv.prm

>  <Rbt.Receptor>
1y26.prm

>  <SCORE>
-45.773

>  <SCORE.INTER>
-21.8772

>  <SCORE.INTER.CONST>
1

>  <SCORE.INTER.POLAR>
-3.60495

>  <SCORE.INTER.ROT>
2

>  <SCORE.INTER.SOLV>
27.2375

>  <SCORE.INTER.VDW>
-16.5808

>  <SCORE.INTER.norm>
-1.98884

>  <SCORE.INTRA>
-1.73336

>  <SCORE.INTRA.DIHEDRAL>
0.384034

>  <SCORE.INTRA.DIHEDRAL.0>
3.75949

>  <SCORE.INTRA.POLAR>
0.396504

>  <SCORE.INTRA.POLAR.0>
-0.396504

>  <SCORE.INTRA.REPUL>
0

>  <SCORE.INTRA.REPUL.0>
0

>  <SCORE.INTRA.SOLV>
-4.58088

>  <SCORE.INTRA.SOLV.lig_0>
-42.9989

>  <SCORE.INTRA.VDW>
-0.983049

>  <SCORE.INTRA.VDW.0>
0.965926

>  <SCORE.INTRA.norm>
-0.157578

>  <SCORE.RESTR>
0

>  <SCORE.RESTR.CAVITY>
0

>  <SCORE.RESTR.norm>
0

>  <SCORE.SYSTEM>
-22.1624

>  <SCORE.SYSTEM.CONST>
0

>  <SCORE.SYSTEM.DIHEDRAL>
5.39945

>  <SCORE.SYSTEM.POLAR>
-3.4295

>  <SCORE.SYSTEM.SOLV>
0.664173

>  <SCORE.SYSTEM.VDW>
-5.36448

>  <SCORE.SYSTEM.norm>
-2.01477

>  <SCORE.heavy>
11

>  <SCORE.norm>
-4.16118

$$$$
P85902119
 OpenBabel12072022103D
libRbt.so/2013.1/901 2013/11/27
 14 14  0  0  0  0  0  0  0  0999 V2000
   18.6148  -19.3043    5.8776 C   0  0  0  0  0  0  0  0  0  0  0  0
   17.8537  -18.6327    4.7378 C   0  0  0  0  0  0  0  0  0  0  0  0
   18.7222  -17.8252    3.7565 C   0  0  1  0  0  0  0  0  0  0  0  0
   19.7490  -16.9548    4.4856 C   0  0  0  0  0  0  0  0  0  0  0  0
   20.4613  -17.7317    5.5308 N   0  3  0  0  0  0  0  0  0  0  0  0
   20.9398  -18.5294    5.0180 H   0  0  0  0  0  0  0  0  0  0  0  0
   21.2443  -17.2089    5.9280 H   0  0  0  0  0  0  0  0  0  0  0  0
   19.6057  -18.3660    6.5491 C   0  0  0  0  0  0  0  0  0  0  0  0
   19.3517  -18.6628    2.6291 C   0  0  2  0  0  0  0  0  0  0  0  0
   20.4256  -18.0605    1.6689 C   0  0  0  0  0  0  0  0  0  0  0  0
   21.4994  -17.7443    2.2455 O   0  0  0  0  0  0  0  0  0  0  0  0
   20.1403  -18.0868    0.4352 O   0  5  0  0  0  0  0  0  0  0  0  0
   18.2500  -19.1061    1.7887 O   0  0  0  0  0  0  0  0  0  0  0  0
   18.7110  -19.5881    1.0585 H   0  0  0  0  0  0  0  0  0  0  0  0
  1  2  1  0  0  0  0
  1  8  1  0  0  0  0
  2  3  1  0  0  0  0
  3  4  1  0  0  0  0
  3  9  1  6  0  0  0
  4  5  1  0  0  0  0
  5  6  1  0  0  0  0
  5  7  1  0  0  0  0
  5  8  1  0  0  0  0
  9 10  1  6  0  0  0
  9 13  1  0  0  0  0
 10 11  2  0  0  0  0
 10 12  1  0  0  0  0
 13 14  1  0  0  0  0
M  CHG  2   5   1  12  -1
M  END
>  <CHROM.0>
-52.37234284,-61.00249339,-56.20047446,-52.17332230,-172.85830720,-60.06325640
-56.05251777,66.03480463,-166.28366706,161.32673788

>  <CHROM.1>
-170.87368871,64.76779063,176.73633607,19.54172117,-18.23429535,3.56776898
1.76901512,0.46299433,1.50765243

>  <Name>
P85902119

>  <RI>
0

>  <Rbt.Current_Directory>
/home/fstefaniak/projects/zuza/docking/adenine/1Y26

>  <Rbt.Executable>
rbdock ($Id: //depot/dev/client3/rdock/2013.1/src/exe/rbdock.cxx#4 $)

>  <Rbt.Library>
libRbt.so (2013.1, Build901 2013/11/27)

>  <Rbt.Parameter_File>
/home/fstefaniak/progs/rDock//data/scripts/dock_solv.prm

>  <Rbt.Receptor>
1y26.prm

>  <SCORE>
-43.3586

>  <SCORE.INTER>
-18.7595

>  <SCORE.INTER.CONST>
1

>  <SCORE.INTER.POLAR>
-3.48486

>  <SCORE.INTER.ROT>
2

>  <SCORE.INTER.SOLV>
28.0894

>  <SCORE.INTER.VDW>
-15.1866

>  <SCORE.INTER.norm>
-1.70541

>  <SCORE.INTRA>
-3.27919

>  <SCORE.INTRA.DIHEDRAL>
-1.94236

>  <SCORE.INTRA.DIHEDRAL.0>
3.75949

>  <SCORE.INTRA.POLAR>
0.396504

>  <SCORE.INTRA.POLAR.0>
-0.396504

>  <SCORE.INTRA.REPUL>
0

>  <SCORE.INTRA.REPUL.0>
0

>  <SCORE.INTRA.SOLV>
-5.03222

>  <SCORE.INTRA.SOLV.lig_0>
-42.9989

>  <SCORE.INTRA.VDW>
-1.14002

>  <SCORE.INTRA.VDW.0>
0.965926

>  <SCORE.INTRA.norm>
-0.298109

>  <SCORE.RESTR>
0

>  <SCORE.RESTR.CAVITY>
0

>  <SCORE.RESTR.norm>
0

>  <SCORE.SYSTEM>
-21.3199

>  <SCORE.SYSTEM.CONST>
0

>  <SCORE.SYSTEM.DIHEDRAL>
5.48071

>  <SCORE.SYSTEM.POLAR>
-3.40546

>  <SCORE.SYSTEM.SOLV>
0.269988

>  <SCORE.SYSTEM.VDW>
-4.77859

>  <SCORE.SYSTEM.norm>
-1.93817

>  <SCORE.heavy>
11

>  <SCORE.norm>
-3.94169

$$$$
P85902119
 OpenBabel12072022103D
libRbt.so/2013.1/901 2013/11/27
 14 14  0  0  0  0  0  0  0  0999 V2000
   18.4943  -19.2523    5.6460 C   0  0  0  0  0  0  0  0  0  0  0  0
   17.7442  -18.5515    4.5167 C   0  0  0  0  0  0  0  0  0  0  0  0
   18.6309  -17.7899    3.5150 C   0  0  1  0  0  0  0  0  0  0  0  0
   19.7104  -16.9648    4.2203 C   0  0  0  0  0  0  0  0  0  0  0  0
   20.4052  -17.7690    5.2565 N   0  3  0  0  0  0  0  0  0  0  0  0
   20.8364  -18.5906    4.7394 H   0  0  0  0  0  0  0  0  0  0  0  0
   21.2189  -17.2814    5.6362 H   0  0  0  0  0  0  0  0  0  0  0  0
   19.5401  -18.3579    6.2939 C   0  0  0  0  0  0  0  0  0  0  0  0
   19.1996  -18.6612    2.3809 C   0  0  2  0  0  0  0  0  0  0  0  0
   20.4223  -18.1942    1.5295 C   0  0  0  0  0  0  0  0  0  0  0  0
   20.1794  -18.1143    0.2966 O   0  0  0  0  0  0  0  0  0  0  0  0
   21.4453  -17.8336    2.1835 O   0  5  0  0  0  0  0  0  0  0  0  0
   18.1055  -18.8770    1.4467 O   0  0  0  0  0  0  0  0  0  0  0  0
   18.1403  -18.0692    0.8773 H   0  0  0  0  0  0  0  0  0  0  0  0
  1  2  1  0  0  0  0
  1  8  1  0  0  0  0
  2  3  1  0  0  0  0
  3  4  1  0  0  0  0
  3  9  1  6  0  0  0
  4  5  1  0  0  0  0
  5  6  1  0  0  0  0
  5  7  1  0  0  0  0
  5  8  1  0  0  0  0
  9 10  1  6  0  0  0
  9 13  1  0  0  0  0
 10 11  2  0  0  0  0
 10 12  1  0  0  0  0
 13 14  1  0  0  0  0
M  CHG  2   5   1  12  -1
M  END
>  <CHROM.0>
-47.10412536,-60.54995706,175.23331981,-52.15517457,-174.49337630,-58.03596905
73.27979526,-53.80972753,-166.60809413,160.18176310

>  <CHROM.1>
-161.90209919,-121.19723686,84.65141890,19.46670796,-18.21303163,3.34800888
1.76272730,0.36221429,1.52614985

>  <Name>
P85902119

>  <RI>
0

>  <Rbt.Current_Directory>
/home/fstefaniak/projects/zuza/docking/adenine/1Y26

>  <Rbt.Executable>
rbdock ($Id: //depot/dev/client3/rdock/2013.1/src/exe/rbdock.cxx#4 $)

>  <Rbt.Library>
libRbt.so (2013.1, Build901 2013/11/27)

>  <Rbt.Parameter_File>
/home/fstefaniak/progs/rDock//data/scripts/dock_solv.prm

>  <Rbt.Receptor>
1y26.prm

>  <SCORE>
-43.0985

>  <SCORE.INTER>
-21.1313

>  <SCORE.INTER.CONST>
1

>  <SCORE.INTER.POLAR>
-3.57358

>  <SCORE.INTER.ROT>
2

>  <SCORE.INTER.SOLV>
26.979

>  <SCORE.INTER.VDW>
-16.1019

>  <SCORE.INTER.norm>
-1.92103

>  <SCORE.INTRA>
-0.987311

>  <SCORE.INTRA.DIHEDRAL>
0.967007

>  <SCORE.INTRA.DIHEDRAL.0>
3.75949

>  <SCORE.INTRA.POLAR>
0.396504

>  <SCORE.INTRA.POLAR.0>
-0.396504

>  <SCORE.INTRA.REPUL>
0

>  <SCORE.INTRA.REPUL.0>
0

>  <SCORE.INTRA.SOLV>
-4.32201

>  <SCORE.INTRA.SOLV.lig_0>
-42.9989

>  <SCORE.INTRA.VDW>
-0.657923

>  <SCORE.INTRA.VDW.0>
0.965926

>  <SCORE.INTRA.norm>
-0.0897556

>  <SCORE.RESTR>
0

>  <SCORE.RESTR.CAVITY>
0

>  <SCORE.RESTR.norm>
0

>  <SCORE.SYSTEM>
-20.9799

>  <SCORE.SYSTEM.CONST>
0

>  <SCORE.SYSTEM.DIHEDRAL>
6.82461

>  <SCORE.SYSTEM.POLAR>
-3.73452

>  <SCORE.SYSTEM.SOLV>
0.338064

>  <SCORE.SYSTEM.VDW>
-3.92576

>  <SCORE.SYSTEM.norm>
-1.90727

>  <SCORE.heavy>
11

>  <SCORE.norm>
-3.91805

$$$$
P89812344
 OpenBabel12072022103D
libRbt.so/2013.1/901 2013/11/27
 11 10  0  0  0  0  0  0  0  0999 V2000
   21.8315  -14.4758    4.4564 C   0  0  0  0  0  0  0  0  0  0  0  0
   22.4558  -15.7939    4.6428 N   0  0  0  0  0  0  0  0  0  0  0  0
   21.5634  -16.8173    4.0750 C   0  0  0  0  0  0  0  0  0  0  0  0
   23.7894  -15.8990    4.0218 C   0  0  1  0  0  0  0  0  0  0  0  0
   24.4802  -14.5019    3.6931 C   0  0  0  0  0  0  0  0  0  0  0  0
   25.0785  -13.9140    4.6215 O   0  0  0  0  0  0  0  0  0  0  0  0
   24.2238  -14.1750    2.4841 O   0  5  0  0  0  0  0  0  0  0  0  0
   24.6505  -16.6482    4.9774 N   0  3  0  0  0  0  0  0  0  0  0  0
   24.6080  -16.2078    5.8906 H   0  0  0  0  0  0  0  0  0  0  0  0
   24.4507  -17.6449    4.9654 H   0  0  0  0  0  0  0  0  0  0  0  0
   25.5877  -16.5225    4.5339 H   0  0  0  0  0  0  0  0  0  0  0  0
  1  2  1  0  0  0  0
  2  3  1  0  0  0  0
  2  4  1  0  0  0  0
  4  5  1  1  0  0  0
  4  8  1  0  0  0  0
  5  6  2  0  0  0  0
  5  7  1  0  0  0  0
  8  9  1  0  0  0  0
  8 10  1  0  0  0  0
  8 11  1  0  0  0  0
M  CHG  2   7  -1   8   1
M  END
>  <CHROM.0>
-50.87540199,67.60729310,-58.73657908,-54.72603017,-55.42012140,-59.43603116
-61.16808620,-51.45527229,-166.17377699,162.32559051

>  <CHROM.1>
18.41906616,82.29508445,-52.88078808,23.53252473,-15.28957351,4.13871316
2.52501731,0.12222804,2.67071894

>  <Name>
P89812344

>  <RI>
0

>  <Rbt.Current_Directory>
/home/fstefaniak/projects/zuza/docking/adenine/1Y26

>  <Rbt.Executable>
rbdock ($Id: //depot/dev/client3/rdock/2013.1/src/exe/rbdock.cxx#4 $)

>  <Rbt.Library>
libRbt.so (2013.1, Build901 2013/11/27)

>  <Rbt.Parameter_File>
/home/fstefaniak/progs/rDock//data/scripts/dock_solv.prm

>  <Rbt.Receptor>
1y26.prm

>  <SCORE>
-45.4212

>  <SCORE.INTER>
-23.0864

>  <SCORE.INTER.CONST>
1

>  <SCORE.INTER.POLAR>
-4.39274

>  <SCORE.INTER.ROT>
2

>  <SCORE.INTER.SOLV>
20.1928

>  <SCORE.INTER.VDW>
-12.4127

>  <SCORE.INTER.norm>
-2.8858

>  <SCORE.INTRA>
-0.959813

>  <SCORE.INTRA.DIHEDRAL>
-0.977384

>  <SCORE.INTRA.DIHEDRAL.0>
4.19239

>  <SCORE.INTRA.POLAR>
0

>  <SCORE.INTRA.POLAR.0>
0

>  <SCORE.INTRA.REPUL>
0

>  <SCORE.INTRA.REPUL.0>
0

>  <SCORE.INTRA.SOLV>
-1.23724

>  <SCORE.INTRA.SOLV.lig_0>
-46.5804

>  <SCORE.INTRA.VDW>
0.147499

>  <SCORE.INTRA.VDW.0>
1.31245

>  <SCORE.INTRA.norm>
-0.119977

>  <SCORE.RESTR>
0.0408353

>  <SCORE.RESTR.CAVITY>
0.0408353

>  <SCORE.RESTR.norm>
0.00510441

>  <SCORE.SYSTEM>
-21.4159

>  <SCORE.SYSTEM.CONST>
0

>  <SCORE.SYSTEM.DIHEDRAL>
5.49745

>  <SCORE.SYSTEM.POLAR>
-3.36352

>  <SCORE.SYSTEM.SOLV>
0.659441

>  <SCORE.SYSTEM.VDW>
-5.11782

>  <SCORE.SYSTEM.norm>
-2.67699

>  <SCORE.heavy>
8

>  <SCORE.norm>
-5.67765

$$$$
P89812344
 OpenBabel12072022103D
libRbt.so/2013.1/901 2013/11/27
 11 10  0  0  0  0  0  0  0  0999 V2000
   21.8511  -14.4891    4.5654 C   0  0  0  0  0  0  0  0  0  0  0  0
   22.5232  -15.7915    4.6829 N   0  0  0  0  0  0  0  0  0  0  0  0
   21.6499  -16.8217    4.0981 C   0  0  0  0  0  0  0  0  0  0  0  0
   23.8422  -15.8270    4.0239 C   0  0  1  0  0  0  0  0  0  0  0  0
   24.4384  -14.3967    3.6553 C   0  0  0  0  0  0  0  0  0  0  0  0
   25.0092  -13.7510    4.5623 O   0  0  0  0  0  0  0  0  0  0  0  0
   24.1470  -14.1144    2.4430 O   0  5  0  0  0  0  0  0  0  0  0  0
   24.7739  -16.5087    4.9638 N   0  3  0  0  0  0  0  0  0  0  0  0
   25.7273  -16.4055    4.6320 H   0  0  0  0  0  0  0  0  0  0  0  0
   24.6152  -16.2241    5.9267 H   0  0  0  0  0  0  0  0  0  0  0  0
   24.4439  -17.4963    4.8822 H   0  0  0  0  0  0  0  0  0  0  0  0
  1  2  1  0  0  0  0
  2  3  1  0  0  0  0
  2  4  1  0  0  0  0
  4  5  1  1  0  0  0
  4  8  1  0  0  0  0
  5  6  2  0  0  0  0
  5  7  1  0  0  0  0
  8  9  1  0  0  0  0
  8 10  1  0  0  0  0
  8 11  1  0  0  0  0
M  CHG  2   7  -1   8   1
M  END
>  <CHROM.0>
-52.49150653,65.07015686,-55.32743162,-52.80702245,-57.24014530,-61.26798287
-60.06576816,-52.69229528,-168.32148236,160.38799078

>  <CHROM.1>
14.96145104,81.22802728,-169.56617305,23.55165132,-15.22396084,4.14190410
2.46452974,0.11875714,2.66795401

>  <Name>
P89812344

>  <RI>
0

>  <Rbt.Current_Directory>
/home/fstefaniak/projects/zuza/docking/adenine/1Y26

>  <Rbt.Executable>
rbdock ($Id: //depot/dev/client3/rdock/2013.1/src/exe/rbdock.cxx#4 $)

>  <Rbt.Library>
libRbt.so (2013.1, Build901 2013/11/27)

>  <Rbt.Parameter_File>
/home/fstefaniak/progs/rDock//data/scripts/dock_solv.prm

>  <Rbt.Receptor>
1y26.prm

>  <SCORE>
-45.2932

>  <SCORE.INTER>
-22.8161

>  <SCORE.INTER.CONST>
1

>  <SCORE.INTER.POLAR>
-4.45923

>  <SCORE.INTER.ROT>
2

>  <SCORE.INTER.SOLV>
20.0223

>  <SCORE.INTER.VDW>
-11.9541

>  <SCORE.INTER.norm>
-2.85201

>  <SCORE.INTRA>
-0.880906

>  <SCORE.INTRA.DIHEDRAL>
-0.622003

>  <SCORE.INTRA.DIHEDRAL.0>
4.19239

>  <SCORE.INTRA.POLAR>
0

>  <SCORE.INTRA.POLAR.0>
0

>  <SCORE.INTRA.REPUL>
0

>  <SCORE.INTRA.REPUL.0>
0

>  <SCORE.INTRA.SOLV>
-1.44192

>  <SCORE.INTRA.SOLV.lig_0>
-46.5804

>  <SCORE.INTRA.VDW>
0.151056

>  <SCORE.INTRA.VDW.0>
1.31245

>  <SCORE.INTRA.norm>
-0.110113

>  <SCORE.RESTR>
0.000461134

>  <SCORE.RESTR.CAVITY>
0.000461134

>  <SCORE.RESTR.norm>
5.76418e-05

>  <SCORE.SYSTEM>
-21.5966

>  <SCORE.SYSTEM.CONST>
0

>  <SCORE.SYSTEM.DIHEDRAL>
5.31239

>  <SCORE.SYSTEM.POLAR>
-3.42408

>  <SCORE.SYSTEM.SOLV>
0.674692

>  <SCORE.SYSTEM.VDW>
-4.97985

>  <SCORE.SYSTEM.norm>
-2.69958

>  <SCORE.heavy>
8

>  <SCORE.norm>
-5.66165

$$$$
P89812344
 OpenBabel12072022103D
libRbt.so/2013.1/901 2013/11/27
 11 10  0  0  0  0  0  0  0  0999 V2000
   21.9690  -14.3227    4.4137 C   0  0  0  0  0  0  0  0  0  0  0  0
   22.5835  -15.6447    4.6052 N   0  0  0  0  0  0  0  0  0  0  0  0
   21.7184  -16.6566    3.9780 C   0  0  0  0  0  0  0  0  0  0  0  0
   23.9447  -15.7401    4.0453 C   0  0  1  0  0  0  0  0  0  0  0  0
   24.5645  -14.3526    3.5681 C   0  0  0  0  0  0  0  0  0  0  0  0
   25.0682  -13.6083    4.4386 O   0  0  0  0  0  0  0  0  0  0  0  0
   24.3606  -14.2047    2.3148 O   0  5  0  0  0  0  0  0  0  0  0  0
   24.8097  -16.3111    5.1139 N   0  3  0  0  0  0  0  0  0  0  0  0
   24.6723  -15.7932    5.9756 H   0  0  0  0  0  0  0  0  0  0  0  0
   24.7013  -17.3190    5.1901 H   0  0  0  0  0  0  0  0  0  0  0  0
   25.7572  -16.1388    4.7095 H   0  0  0  0  0  0  0  0  0  0  0  0
  1  2  1  0  0  0  0
  2  3  1  0  0  0  0
  2  4  1  0  0  0  0
  4  5  1  1  0  0  0
  4  8  1  0  0  0  0
  5  6  2  0  0  0  0
  5  7  1  0  0  0  0
  8  9  1  0  0  0  0
  8 10  1  0  0  0  0
  8 11  1  0  0  0  0
M  CHG  2   7  -1   8   1
M  END
>  <CHROM.0>
-48.49735363,64.92609108,-55.07681013,-51.90744081,-55.53025633,-60.81482208
-57.17284941,-176.48826150,-166.52523621,161.04277523

>  <CHROM.1>
9.54150326,81.03369255,-50.23044100,23.65073975,-15.11234955,4.07897113,2.52231788
0.17588193,2.55995200

>  <Name>
P89812344

>  <RI>
0

>  <Rbt.Current_Directory>
/home/fstefaniak/projects/zuza/docking/adenine/1Y26

>  <Rbt.Executable>
rbdock ($Id: //depot/dev/client3/rdock/2013.1/src/exe/rbdock.cxx#4 $)

>  <Rbt.Library>
libRbt.so (2013.1, Build901 2013/11/27)

>  <Rbt.Parameter_File>
/home/fstefaniak/progs/rDock//data/scripts/dock_solv.prm

>  <Rbt.Receptor>
1y26.prm

>  <SCORE>
-45.2688

>  <SCORE.INTER>
-22.9981

>  <SCORE.INTER.CONST>
1

>  <SCORE.INTER.POLAR>
-4.26435

>  <SCORE.INTER.ROT>
2

>  <SCORE.INTER.SOLV>
20.6737

>  <SCORE.INTER.VDW>
-12.9421

>  <SCORE.INTER.norm>
-2.87476

>  <SCORE.INTRA>
-0.331256

>  <SCORE.INTRA.DIHEDRAL>
-0.450091

>  <SCORE.INTRA.DIHEDRAL.0>
4.19239

>  <SCORE.INTRA.POLAR>
0

>  <SCORE.INTRA.POLAR.0>
0

>  <SCORE.INTRA.REPUL>
0

>  <SCORE.INTRA.REPUL.0>
0

>  <SCORE.INTRA.SOLV>
-1.21332

>  <SCORE.INTRA.SOLV.lig_0>
-46.5804

>  <SCORE.INTRA.VDW>
0.500449

>  <SCORE.INTRA.VDW.0>
1.31245

>  <SCORE.INTRA.norm>
-0.041407

>  <SCORE.RESTR>
0.034085

>  <SCORE.RESTR.CAVITY>
0.034085

>  <SCORE.RESTR.norm>
0.00426063

>  <SCORE.SYSTEM>
-21.9736

>  <SCORE.SYSTEM.CONST>
0

>  <SCORE.SYSTEM.DIHEDRAL>
5.73471

>  <SCORE.SYSTEM.POLAR>
-3.47887

>  <SCORE.SYSTEM.SOLV>
0.480164

>  <SCORE.SYSTEM.VDW>
-5.12446

>  <SCORE.SYSTEM.norm>
-2.7467

>  <SCORE.heavy>
8

>  <SCORE.norm>
-5.6586

$$$$
P89999547
 OpenBabel12072022103D
libRbt.so/2013.1/901 2013/11/27
 13 13  0  0  0  0  0  0  0  0999 V2000
   19.8326  -18.1260    6.8553 C   0  0  0  0  0  0  0  0  0  0  0  0
   20.0655  -17.7874    5.3871 C   0  0  0  0  0  0  0  0  0  0  0  0
   18.9509  -18.5608    4.6991 C   0  0  2  0  0  0  0  0  0  0  0  0
   19.0003  -19.8585    5.4692 N   0  3  0  0  0  0  0  0  0  0  0  0
   18.0787  -20.3186    5.2635 H   0  0  0  0  0  0  0  0  0  0  0  0
   19.6809  -20.4472    4.9616 H   0  0  0  0  0  0  0  0  0  0  0  0
   19.3889  -19.5850    6.8598 C   0  0  0  0  0  0  0  0  0  0  0  0
   19.1515  -18.8781    3.2290 C   0  0  2  0  0  0  0  0  0  0  0  0
   19.9826  -17.7087    2.6309 C   0  0  0  0  0  0  0  0  0  0  0  0
   21.1929  -17.9938    2.3725 O   0  0  0  0  0  0  0  0  0  0  0  0
   19.3702  -16.6121    2.5942 O   0  5  0  0  0  0  0  0  0  0  0  0
   17.8616  -18.9276    2.5670 O   0  0  0  0  0  0  0  0  0  0  0  0
   17.5002  -18.0226    2.7064 H   0  0  0  0  0  0  0  0  0  0  0  0
  1  2  1  0  0  0  0
  1  7  1  0  0  0  0
  2  3  1  0  0  0  0
  3  4  1  0  0  0  0
  3  8  1  6  0  0  0
  4  5  1  0  0  0  0
  4  6  1  0  0  0  0
  4  7  1  0  0  0  0
  8  9  1  6  0  0  0
  8 12  1  0  0  0  0
  9 10  2  0  0  0  0
  9 11  1  0  0  0  0
 12 13  1  0  0  0  0
M  CHG  2   4   1  11  -1
M  END
>  <CHROM.0>
-52.93907704,-59.93263201,-59.14156350,-53.03495694,-55.00077236,-57.95266331
-61.29808749,-49.03151952,-166.05352978,159.60828675

>  <CHROM.1>
106.71520707,60.32450664,-31.77575882,19.45644302,-18.41090078,4.22250506
-1.63097783,-0.70259463,-1.29304767

>  <Name>
P89999547

>  <RI>
0

>  <Rbt.Current_Directory>
/home/fstefaniak/projects/zuza/docking/adenine/1Y26

>  <Rbt.Executable>
rbdock ($Id: //depot/dev/client3/rdock/2013.1/src/exe/rbdock.cxx#4 $)

>  <Rbt.Library>
libRbt.so (2013.1, Build901 2013/11/27)

>  <Rbt.Parameter_File>
/home/fstefaniak/progs/rDock//data/scripts/dock_solv.prm

>  <Rbt.Receptor>
1y26.prm

>  <SCORE>
-49.5924

>  <SCORE.INTER>
-27.9145

>  <SCORE.INTER.CONST>
1

>  <SCORE.INTER.POLAR>
-5.1038

>  <SCORE.INTER.ROT>
2

>  <SCORE.INTER.SOLV>
27.8101

>  <SCORE.INTER.VDW>
-15.8004

>  <SCORE.INTER.norm>
-2.79145

>  <SCORE.INTRA>
0.53151

>  <SCORE.INTRA.DIHEDRAL>
0.679955

>  <SCORE.INTRA.DIHEDRAL.0>
2.37592

>  <SCORE.INTRA.POLAR>
0.835335

>  <SCORE.INTRA.POLAR.0>
-0.835335

>  <SCORE.INTRA.REPUL>
0

>  <SCORE.INTRA.REPUL.0>
0

>  <SCORE.INTRA.SOLV>
-5.51786

>  <SCORE.INTRA.SOLV.lig_0>
-43.0873

>  <SCORE.INTRA.VDW>
0.110323

>  <SCORE.INTRA.VDW.0>
0.677508

>  <SCORE.INTRA.norm>
0.053151

>  <SCORE.RESTR>
0

>  <SCORE.RESTR.CAVITY>
0

>  <SCORE.RESTR.norm>
0

>  <SCORE.SYSTEM>
-22.2094

>  <SCORE.SYSTEM.CONST>
0

>  <SCORE.SYSTEM.DIHEDRAL>
5.80248

>  <SCORE.SYSTEM.POLAR>
-3.45383

>  <SCORE.SYSTEM.SOLV>
0.654224

>  <SCORE.SYSTEM.VDW>
-5.44574

>  <SCORE.SYSTEM.norm>
-2.22094

>  <SCORE.heavy>
10

>  <SCORE.norm>
-4.95924

$$$$
P89999547
 OpenBabel12072022103D
libRbt.so/2013.1/901 2013/11/27
 13 13  0  0  0  0  0  0  0  0999 V2000
   19.8379  -18.1452    6.8777 C   0  0  0  0  0  0  0  0  0  0  0  0
   20.0633  -17.7900    5.4122 C   0  0  0  0  0  0  0  0  0  0  0  0
   18.9529  -18.5656    4.7199 C   0  0  2  0  0  0  0  0  0  0  0  0
   19.0153  -19.8705    5.4769 N   0  3  0  0  0  0  0  0  0  0  0  0
   18.0969  -20.3361    5.2694 H   0  0  0  0  0  0  0  0  0  0  0  0
   19.6991  -20.4485    4.9613 H   0  0  0  0  0  0  0  0  0  0  0  0
   19.4061  -19.6077    6.8690 C   0  0  0  0  0  0  0  0  0  0  0  0
   19.1514  -18.8666    3.2461 C   0  0  2  0  0  0  0  0  0  0  0  0
   19.9576  -17.6769    2.6538 C   0  0  0  0  0  0  0  0  0  0  0  0
   19.3029  -16.5945    2.5408 O   0  0  0  0  0  0  0  0  0  0  0  0
   21.1114  -17.9848    2.2630 O   0  5  0  0  0  0  0  0  0  0  0  0
   17.8591  -18.9343    2.5904 O   0  0  0  0  0  0  0  0  0  0  0  0
   17.4791  -18.0394    2.7452 H   0  0  0  0  0  0  0  0  0  0  0  0
  1  2  1  0  0  0  0
  1  7  1  0  0  0  0
  2  3  1  0  0  0  0
  3  4  1  0  0  0  0
  3  8  1  6  0  0  0
  4  5  1  0  0  0  0
  4  6  1  0  0  0  0
  4  7  1  0  0  0  0
  8  9  1  6  0  0  0
  8 12  1  0  0  0  0
  9 10  2  0  0  0  0
  9 11  1  0  0  0  0
 12 13  1  0  0  0  0
M  CHG  2   4   1  11  -1
M  END
>  <CHROM.0>
-51.29715203,-62.79717389,-50.57983558,-52.66851917,-175.07906405,-64.31443567
-62.74946049,-176.55464969,-167.66475276,161.94410575

>  <CHROM.1>
-71.92370610,59.93381626,-32.38341640,19.44139797,-18.41117357,4.21896488
-1.61778239,-0.72482088,-1.28093816

>  <Name>
P89999547

>  <RI>
0

>  <Rbt.Current_Directory>
/home/fstefaniak/projects/zuza/docking/adenine/1Y26

>  <Rbt.Executable>
rbdock ($Id: //depot/dev/client3/rdock/2013.1/src/exe/rbdock.cxx#4 $)

>  <Rbt.Library>
libRbt.so (2013.1, Build901 2013/11/27)

>  <Rbt.Parameter_File>
/home/fstefaniak/progs/rDock//data/scripts/dock_solv.prm

>  <Rbt.Receptor>
1y26.prm

>  <SCORE>
-49.4993

>  <SCORE.INTER>
-27.2313

>  <SCORE.INTER.CONST>
1

>  <SCORE.INTER.POLAR>
-5.08599

>  <SCORE.INTER.ROT>
2

>  <SCORE.INTER.SOLV>
28.2511

>  <SCORE.INTER.VDW>
-15.5513

>  <SCORE.INTER.norm>
-2.72313

>  <SCORE.INTRA>
0.300517

>  <SCORE.INTRA.DIHEDRAL>
0.670932

>  <SCORE.INTRA.DIHEDRAL.0>
2.37592

>  <SCORE.INTRA.POLAR>
0.835335

>  <SCORE.INTRA.POLAR.0>
-0.835335

>  <SCORE.INTRA.REPUL>
0

>  <SCORE.INTRA.REPUL.0>
0

>  <SCORE.INTRA.SOLV>
-5.72409

>  <SCORE.INTRA.SOLV.lig_0>
-43.0873

>  <SCORE.INTRA.VDW>
-0.0130432

>  <SCORE.INTRA.VDW.0>
0.677508

>  <SCORE.INTRA.norm>
0.0300517

>  <SCORE.RESTR>
0

>  <SCORE.RESTR.CAVITY>
0

>  <SCORE.RESTR.norm>
0

>  <SCORE.SYSTEM>
-22.5685

>  <SCORE.SYSTEM.CONST>
0

>  <SCORE.SYSTEM.DIHEDRAL>
5.47955

>  <SCORE.SYSTEM.POLAR>
-3.41622

>  <SCORE.SYSTEM.SOLV>
0.27575

>  <SCORE.SYSTEM.VDW>
-5.5767

>  <SCORE.SYSTEM.norm>
-2.25685

>  <SCORE.heavy>
10

>  <SCORE.norm>
-4.94993

$$$$
P89999547
 OpenBabel12072022103D
libRbt.so/2013.1/901 2013/11/27
 13 13  0  0  0  0  0  0  0  0999 V2000
   19.7719  -18.1033    6.8593 C   0  0  0  0  0  0  0  0  0  0  0  0
   20.0262  -17.7604    5.3957 C   0  0  0  0  0  0  0  0  0  0  0  0
   18.9537  -18.5719    4.6852 C   0  0  2  0  0  0  0  0  0  0  0  0
   19.0289  -19.8656    5.4601 N   0  3  0  0  0  0  0  0  0  0  0  0
   18.1280  -20.3566    5.2352 H   0  0  0  0  0  0  0  0  0  0  0  0
   19.7399  -20.4324    4.9695 H   0  0  0  0  0  0  0  0  0  0  0  0
   19.3769  -19.5763    6.8582 C   0  0  0  0  0  0  0  0  0  0  0  0
   19.1976  -18.8856    3.2209 C   0  0  2  0  0  0  0  0  0  0  0  0
   20.0100  -17.6945    2.6402 C   0  0  0  0  0  0  0  0  0  0  0  0
   21.2302  -17.9503    2.3982 O   0  0  0  0  0  0  0  0  0  0  0  0
   19.3729  -16.6121    2.5995 O   0  5  0  0  0  0  0  0  0  0  0  0
   17.9256  -18.9718    2.5288 O   0  0  0  0  0  0  0  0  0  0  0  0
   18.1872  -19.0701    1.5849 H   0  0  0  0  0  0  0  0  0  0  0  0
  1  2  1  0  0  0  0
  1  7  1  0  0  0  0
  2  3  1  0  0  0  0
  3  4  1  0  0  0  0
  3  8  1  6  0  0  0
  4  5  1  0  0  0  0
  4  6  1  0  0  0  0
  4  7  1  0  0  0  0
  8  9  1  6  0  0  0
  8 12  1  0  0  0  0
  9 10  2  0  0  0  0
  9 11  1  0  0  0  0
 12 13  1  0  0  0  0
M  CHG  2   4   1  11  -1
M  END
>  <CHROM.0>
-46.27303498,-62.00638429,-50.76103081,-54.20095954,-175.23276081,-63.34205855
-61.64455318,-49.03842589,-166.00003095,160.00326969

>  <CHROM.1>
107.39659745,173.63368326,-31.44502360,19.47203156,-18.41395174,4.21278262
-1.65066640,-0.76322481,-1.31954383

>  <Name>
P89999547

>  <RI>
0

>  <Rbt.Current_Directory>
/home/fstefaniak/projects/zuza/docking/adenine/1Y26

>  <Rbt.Executable>
rbdock ($Id: //depot/dev/client3/rdock/2013.1/src/exe/rbdock.cxx#4 $)

>  <Rbt.Library>
libRbt.so (2013.1, Build901 2013/11/27)

>  <Rbt.Parameter_File>
/home/fstefaniak/progs/rDock//data/scripts/dock_solv.prm

>  <Rbt.Receptor>
1y26.prm

>  <SCORE>
-49.0899

>  <SCORE.INTER>
-27.4483

>  <SCORE.INTER.CONST>
1

>  <SCORE.INTER.POLAR>
-5.13549

>  <SCORE.INTER.ROT>
2

>  <SCORE.INTER.SOLV>
27.9381

>  <SCORE.INTER.VDW>
-15.4266

>  <SCORE.INTER.norm>
-2.74483

>  <SCORE.INTRA>
0.504254

>  <SCORE.INTRA.DIHEDRAL>
0.91534

>  <SCORE.INTRA.DIHEDRAL.0>
2.37592

>  <SCORE.INTRA.POLAR>
0.835335

>  <SCORE.INTRA.POLAR.0>
-0.835335

>  <SCORE.INTRA.REPUL>
0

>  <SCORE.INTRA.REPUL.0>
0

>  <SCORE.INTRA.SOLV>
-5.49527

>  <SCORE.INTRA.SOLV.lig_0>
-43.0873

>  <SCORE.INTRA.VDW>
-0.0459233

>  <SCORE.INTRA.VDW.0>
0.677508

>  <SCORE.INTRA.norm>
0.0504254

>  <SCORE.RESTR>
0

>  <SCORE.RESTR.CAVITY>
0

>  <SCORE.RESTR.norm>
0

>  <SCORE.SYSTEM>
-22.1459

>  <SCORE.SYSTEM.CONST>
0

>  <SCORE.SYSTEM.DIHEDRAL>
6.75865

>  <SCORE.SYSTEM.POLAR>
-3.57303

>  <SCORE.SYSTEM.SOLV>
0.493468

>  <SCORE.SYSTEM.VDW>
-5.2712

>  <SCORE.SYSTEM.norm>
-2.21459

>  <SCORE.heavy>
10

>  <SCORE.norm>
-4.90899

$$$$
P90009263
 OpenBabel12072022103D
libRbt.so/2013.1/901 2013/11/27
 15 14  0  0  0  0  0  0  0  0999 V2000
   20.0912  -17.5593    5.3262 C   0  0  0  0  0  0  0  0  0  0  0  0
   20.2297  -17.1604    3.8470 C   0  0  0  0  0  0  0  0  0  0  0  0
   20.2882  -15.6282    3.7515 C   0  0  0  0  0  0  0  0  0  0  0  0
   21.5231  -17.7717    3.2891 C   0  0  0  0  0  0  0  0  0  0  0  0
   19.0156  -17.6857    3.0600 C   0  0  0  0  0  0  0  0  0  0  0  0
   18.5279  -17.0992    2.0928 O   0  0  0  0  0  0  0  0  0  0  0  0
   18.4969  -18.8849    3.5102 N   0  0  0  0  0  0  0  0  0  0  0  0
   17.4312  -18.8274    4.4295 N   0  0  0  0  0  0  0  0  0  0  0  0
   17.6601  -19.3713    5.6676 C   0  0  0  0  0  0  0  0  0  0  0  0
   18.6826  -19.9640    5.9884 O   0  0  0  0  0  0  0  0  0  0  0  0
   16.6172  -19.2090    6.5214 N   0  0  0  0  0  0  0  0  0  0  0  0
   19.0554  -19.7370    3.5468 H   0  0  0  0  0  0  0  0  0  0  0  0
   16.9013  -17.9575    4.3924 H   0  0  0  0  0  0  0  0  0  0  0  0
   16.4369  -19.9615    7.1711 H   0  0  0  0  0  0  0  0  0  0  0  0
   16.5579  -18.2788    6.9171 H   0  0  0  0  0  0  0  0  0  0  0  0
  1  2  1  0  0  0  0
  2  3  1  0  0  0  0
  2  4  1  0  0  0  0
  2  5  1  0  0  0  0
  5  6  2  0  0  0  0
  5  7  1  0  0  0  0
  7  8  1  0  0  0  0
  7 12  1  0  0  0  0
  8  9  1  0  0  0  0
  8 13  1  0  0  0  0
  9 10  2  0  0  0  0
  9 11  1  0  0  0  0
 11 14  1  0  0  0  0
 11 15  1  0  0  0  0
M  END
>  <CHROM.0>
-58.35794165,64.14085847,-55.65275437,-53.08497575,-50.03841541,-62.66773697
-66.33256896,-52.32484463,-166.17442241,160.59361272

>  <CHROM.1>
146.96802887,93.77555748,-117.74455640,-4.64228105,144.58634848,18.93994263
-18.11803054,4.34086143,-0.86642630,0.35839099,2.04425015

>  <Name>
P90009263

>  <RI>
0

>  <Rbt.Current_Directory>
/home/fstefaniak/projects/zuza/docking/adenine/1Y26

>  <Rbt.Executable>
rbdock ($Id: //depot/dev/client3/rdock/2013.1/src/exe/rbdock.cxx#4 $)

>  <Rbt.Library>
libRbt.so (2013.1, Build901 2013/11/27)

>  <Rbt.Parameter_File>
/home/fstefaniak/progs/rDock//data/scripts/dock_solv.prm

>  <Rbt.Receptor>
1y26.prm

>  <SCORE>
-51.6391

>  <SCORE.INTER>
-32.0199

>  <SCORE.INTER.CONST>
1

>  <SCORE.INTER.POLAR>
-6.41791

>  <SCORE.INTER.ROT>
5

>  <SCORE.INTER.SOLV>
16.2894

>  <SCORE.INTER.VDW>
-12.3167

>  <SCORE.INTER.norm>
-2.9109

>  <SCORE.INTRA>
1.7946

>  <SCORE.INTRA.DIHEDRAL>
1.65218

>  <SCORE.INTRA.DIHEDRAL.0>
2.66295

>  <SCORE.INTRA.POLAR>
0

>  <SCORE.INTRA.POLAR.0>
0

>  <SCORE.INTRA.REPUL>
0

>  <SCORE.INTRA.REPUL.0>
0

>  <SCORE.INTRA.SOLV>
0.850912

>  <SCORE.INTRA.SOLV.lig_0>
-19.4454

>  <SCORE.INTRA.VDW>
0.543055

>  <SCORE.INTRA.VDW.0>
0.712561

>  <SCORE.INTRA.norm>
0.163146

>  <SCORE.RESTR>
0

>  <SCORE.RESTR.CAVITY>
0

>  <SCORE.RESTR.norm>
0

>  <SCORE.SYSTEM>
-21.4138

>  <SCORE.SYSTEM.CONST>
0

>  <SCORE.SYSTEM.DIHEDRAL>
5.82907

>  <SCORE.SYSTEM.POLAR>
-3.39261

>  <SCORE.SYSTEM.SOLV>
0.652013

>  <SCORE.SYSTEM.VDW>
-5.12752

>  <SCORE.SYSTEM.norm>
-1.94671

>  <SCORE.heavy>
11

>  <SCORE.norm>
-4.69447

$$$$
P90009263
 OpenBabel12072022103D
libRbt.so/2013.1/901 2013/11/27
 15 14  0  0  0  0  0  0  0  0999 V2000
   20.0903  -17.5709    5.3356 C   0  0  0  0  0  0  0  0  0  0  0  0
   20.2327  -17.1644    3.8588 C   0  0  0  0  0  0  0  0  0  0  0  0
   20.2994  -15.6320    3.7721 C   0  0  0  0  0  0  0  0  0  0  0  0
   21.5236  -17.7793    3.2990 C   0  0  0  0  0  0  0  0  0  0  0  0
   19.0168  -17.6787    3.0673 C   0  0  0  0  0  0  0  0  0  0  0  0
   18.5334  -17.0842    2.1030 O   0  0  0  0  0  0  0  0  0  0  0  0
   18.4913  -18.8778    3.5100 N   0  0  0  0  0  0  0  0  0  0  0  0
   17.4176  -18.8199    4.4200 N   0  0  0  0  0  0  0  0  0  0  0  0
   17.6358  -19.3627    5.6604 C   0  0  0  0  0  0  0  0  0  0  0  0
   18.6472  -19.9725    5.9844 O   0  0  0  0  0  0  0  0  0  0  0  0
   16.5955  -19.1779    6.5128 N   0  0  0  0  0  0  0  0  0  0  0  0
   19.0474  -19.7313    3.5496 H   0  0  0  0  0  0  0  0  0  0  0  0
   16.8876  -17.9502    4.3774 H   0  0  0  0  0  0  0  0  0  0  0  0
   16.3904  -19.9315    7.1540 H   0  0  0  0  0  0  0  0  0  0  0  0
   16.5630  -18.2506    6.9182 H   0  0  0  0  0  0  0  0  0  0  0  0
  1  2  1  0  0  0  0
  2  3  1  0  0  0  0
  2  4  1  0  0  0  0
  2  5  1  0  0  0  0
  5  6  2  0  0  0  0
  5  7  1  0  0  0  0
  7  8  1  0  0  0  0
  7 12  1  0  0  0  0
  8  9  1  0  0  0  0
  8 13  1  0  0  0  0
  9 10  2  0  0  0  0
  9 11  1  0  0  0  0
 11 14  1  0  0  0  0
 11 15  1  0  0  0  0
M  END
>  <CHROM.0>
-52.50182589,57.04374517,61.28100179,-54.42075156,-64.70206595,-57.98621971
76.23245449,-52.84645253,-166.26630380,161.03858918

>  <CHROM.1>
146.96582659,94.28607093,-117.50307086,-5.81401677,143.48483241,18.93242074
-18.11422507,4.34438596,-0.85807546,0.35346066,2.04494041

>  <Name>
P90009263

>  <RI>
0

>  <Rbt.Current_Directory>
/home/fstefaniak/projects/zuza/docking/adenine/1Y26

>  <Rbt.Executable>
rbdock ($Id: //depot/dev/client3/rdock/2013.1/src/exe/rbdock.cxx#4 $)

>  <Rbt.Library>
libRbt.so (2013.1, Build901 2013/11/27)

>  <Rbt.Parameter_File>
/home/fstefaniak/progs/rDock//data/scripts/dock_solv.prm

>  <Rbt.Receptor>
1y26.prm

>  <SCORE>
-50.4345

>  <SCORE.INTER>
-31.9535

>  <SCORE.INTER.CONST>
1

>  <SCORE.INTER.POLAR>
-6.37174

>  <SCORE.INTER.ROT>
5

>  <SCORE.INTER.SOLV>
16.3181

>  <SCORE.INTER.VDW>
-12.4359

>  <SCORE.INTER.norm>
-2.90486

>  <SCORE.INTRA>
1.72353

>  <SCORE.INTRA.DIHEDRAL>
1.64701

>  <SCORE.INTRA.DIHEDRAL.0>
2.66295

>  <SCORE.INTRA.POLAR>
0

>  <SCORE.INTRA.POLAR.0>
0

>  <SCORE.INTRA.REPUL>
0

>  <SCORE.INTRA.REPUL.0>
0

>  <SCORE.INTRA.SOLV>
0.846078

>  <SCORE.INTRA.SOLV.lig_0>
-19.4454

>  <SCORE.INTRA.VDW>
0.476986

>  <SCORE.INTRA.VDW.0>
0.712561

>  <SCORE.INTRA.norm>
0.156684

>  <SCORE.RESTR>
0

>  <SCORE.RESTR.CAVITY>
0

>  <SCORE.RESTR.norm>
0

>  <SCORE.SYSTEM>
-20.2045

>  <SCORE.SYSTEM.CONST>
0

>  <SCORE.SYSTEM.DIHEDRAL>
6.43732

>  <SCORE.SYSTEM.POLAR>
-3.68787

>  <SCORE.SYSTEM.SOLV>
0.52243

>  <SCORE.SYSTEM.VDW>
-3.49669

>  <SCORE.SYSTEM.norm>
-1.83677

>  <SCORE.heavy>
11

>  <SCORE.norm>
-4.58495

$$$$
P90009263
 OpenBabel12072022103D
libRbt.so/2013.1/901 2013/11/27
 15 14  0  0  0  0  0  0  0  0999 V2000
   20.1263  -17.6035    5.3178 C   0  0  0  0  0  0  0  0  0  0  0  0
   20.2447  -17.1791    3.8439 C   0  0  0  0  0  0  0  0  0  0  0  0
   20.3092  -15.6457    3.7747 C   0  0  0  0  0  0  0  0  0  0  0  0
   21.5267  -17.7863    3.2561 C   0  0  0  0  0  0  0  0  0  0  0  0
   19.0165  -17.6848    3.0660 C   0  0  0  0  0  0  0  0  0  0  0  0
   18.5274  -17.0874    2.1063 O   0  0  0  0  0  0  0  0  0  0  0  0
   18.4866  -18.8794    3.5154 N   0  0  0  0  0  0  0  0  0  0  0  0
   17.4154  -18.8124    4.4277 N   0  0  0  0  0  0  0  0  0  0  0  0
   17.6338  -19.3515    5.6697 C   0  0  0  0  0  0  0  0  0  0  0  0
   18.6463  -19.9584    5.9960 O   0  0  0  0  0  0  0  0  0  0  0  0
   16.5926  -19.1666    6.5209 N   0  0  0  0  0  0  0  0  0  0  0  0
   19.0388  -19.7352    3.5574 H   0  0  0  0  0  0  0  0  0  0  0  0
   16.8898  -17.9402    4.3831 H   0  0  0  0  0  0  0  0  0  0  0  0
   16.3849  -19.9213    7.1600 H   0  0  0  0  0  0  0  0  0  0  0  0
   16.5613  -18.2402    6.9285 H   0  0  0  0  0  0  0  0  0  0  0  0
  1  2  1  0  0  0  0
  2  3  1  0  0  0  0
  2  4  1  0  0  0  0
  2  5  1  0  0  0  0
  5  6  2  0  0  0  0
  5  7  1  0  0  0  0
  7  8  1  0  0  0  0
  7 12  1  0  0  0  0
  8  9  1  0  0  0  0
  8 13  1  0  0  0  0
  9 10  2  0  0  0  0
  9 11  1  0  0  0  0
 11 14  1  0  0  0  0
 11 15  1  0  0  0  0
M  END
>  <CHROM.0>
-54.31569683,-65.24306140,-51.76520077,-50.69081045,-56.26981326,-60.05134106
-65.65737232,-54.62344042,-167.80253121,-61.54686119

>  <CHROM.1>
147.90033656,94.82942461,-117.55001489,-5.35736468,143.11228266,18.93612966
-18.11718532,4.34193037,-0.85822584,0.34037080,2.04516034

>  <Name>
P90009263

>  <RI>
0

>  <Rbt.Current_Directory>
/home/fstefaniak/projects/zuza/docking/adenine/1Y26

>  <Rbt.Executable>
rbdock ($Id: //depot/dev/client3/rdock/2013.1/src/exe/rbdock.cxx#4 $)

>  <Rbt.Library>
libRbt.so (2013.1, Build901 2013/11/27)

>  <Rbt.Parameter_File>
/home/fstefaniak/progs/rDock//data/scripts/dock_solv.prm

>  <Rbt.Receptor>
1y26.prm

>  <SCORE>
-49.3212

>  <SCORE.INTER>
-31.8689

>  <SCORE.INTER.CONST>
1

>  <SCORE.INTER.POLAR>
-6.36855

>  <SCORE.INTER.ROT>
5

>  <SCORE.INTER.SOLV>
16.3478

>  <SCORE.INTER.VDW>
-12.4001

>  <SCORE.INTER.norm>
-2.89718

>  <SCORE.INTRA>
1.8275

>  <SCORE.INTRA.DIHEDRAL>
1.76788

>  <SCORE.INTRA.DIHEDRAL.0>
2.66295

>  <SCORE.INTRA.POLAR>
0

>  <SCORE.INTRA.POLAR.0>
0

>  <SCORE.INTRA.REPUL>
0

>  <SCORE.INTRA.REPUL.0>
0

>  <SCORE.INTRA.SOLV>
0.83429

>  <SCORE.INTRA.SOLV.lig_0>
-19.4454

>  <SCORE.INTRA.VDW>
0.526417

>  <SCORE.INTRA.VDW.0>
0.712561

>  <SCORE.INTRA.norm>
0.166137

>  <SCORE.RESTR>
0

>  <SCORE.RESTR.CAVITY>
0

>  <SCORE.RESTR.norm>
0

>  <SCORE.SYSTEM>
-19.2798

>  <SCORE.SYSTEM.CONST>
0

>  <SCORE.SYSTEM.DIHEDRAL>
4.12509

>  <SCORE.SYSTEM.POLAR>
-2.60928

>  <SCORE.SYSTEM.SOLV>
0.715111

>  <SCORE.SYSTEM.VDW>
-5.76901

>  <SCORE.SYSTEM.norm>
-1.75271

>  <SCORE.heavy>
11

>  <SCORE.norm>
-4.48375

$$$$
P90543722
 OpenBabel12072022103D
libRbt.so/2013.1/901 2013/11/27
 14 13  0  0  0  0  0  0  0  0999 V2000
   23.7500  -16.2923    4.8275 C   0  0  0  0  0  0  0  0  0  0  0  0
   22.7214  -15.6040    3.9318 C   0  0  1  0  0  0  0  0  0  0  0  0
   21.3486  -16.3165    3.9122 C   0  0  0  0  0  0  0  0  0  0  0  0
   20.5075  -15.9824    2.9740 N   0  0  0  0  0  0  0  0  0  0  0  0
   19.2905  -16.6669    3.1318 O   0  0  0  0  0  0  0  0  0  0  0  0
   21.0546  -17.2187    4.9086 N   0  0  0  0  0  0  0  0  0  0  0  0
   22.5325  -14.1672    4.2248 N   0  0  0  0  0  0  0  0  0  0  0  0
   22.1644  -13.8545    5.6001 C   0  0  0  0  0  0  0  0  0  0  0  0
   22.8903  -13.2089    3.2863 C   0  0  0  0  0  0  0  0  0  0  0  0
   23.4373  -13.4911    2.2178 O   0  0  0  0  0  0  0  0  0  0  0  0
   22.6081  -11.7658    3.6201 C   0  0  0  0  0  0  0  0  0  0  0  0
   18.8017  -16.0788    3.7365 H   0  0  0  0  0  0  0  0  0  0  0  0
   21.1051  -16.8116    5.8479 H   0  0  0  0  0  0  0  0  0  0  0  0
   20.1699  -17.6808    4.7274 H   0  0  0  0  0  0  0  0  0  0  0  0
  2  1  1  1  0  0  0
  2  3  1  0  0  0  0
  2  7  1  0  0  0  0
  3  4  2  0  0  0  0
  3  6  1  0  0  0  0
  4  5  1  0  0  0  0
  5 12  1  0  0  0  0
  6 13  1  0  0  0  0
  6 14  1  0  0  0  0
  7  8  1  0  0  0  0
  7  9  1  0  0  0  0
  9 10  2  0  0  0  0
  9 11  1  0  0  0  0
M  END
>  <CHROM.0>
-44.79716752,-59.86885258,-54.26097200,-51.10091831,-53.92160349,-51.41363940
-54.85345679,-50.52408095,-167.50552803,160.47870032

>  <CHROM.1>
-165.62047115,-56.06326795,57.93167973,87.33148297,21.98223963,-14.98153192
3.88504387,-2.26312968,-0.55342436,-0.51092552

>  <Name>
P90543722

>  <RI>
0

>  <Rbt.Current_Directory>
/home/fstefaniak/projects/zuza/docking/adenine/1Y26

>  <Rbt.Executable>
rbdock ($Id: //depot/dev/client3/rdock/2013.1/src/exe/rbdock.cxx#4 $)

>  <Rbt.Library>
libRbt.so (2013.1, Build901 2013/11/27)

>  <Rbt.Parameter_File>
/home/fstefaniak/progs/rDock//data/scripts/dock_solv.prm

>  <Rbt.Receptor>
1y26.prm

>  <SCORE>
-44.8669

>  <SCORE.INTER>
-26.1983

>  <SCORE.INTER.CONST>
1

>  <SCORE.INTER.POLAR>
-3.94841

>  <SCORE.INTER.ROT>
3

>  <SCORE.INTER.SOLV>
9.79682

>  <SCORE.INTER.VDW>
-13.1698

>  <SCORE.INTER.norm>
-2.38167

>  <SCORE.INTRA>
3.29861

>  <SCORE.INTRA.DIHEDRAL>
-1.90249

>  <SCORE.INTRA.DIHEDRAL.0>
4.57691

>  <SCORE.INTRA.POLAR>
0.718997

>  <SCORE.INTRA.POLAR.0>
-0.747536

>  <SCORE.INTRA.REPUL>
0

>  <SCORE.INTRA.REPUL.0>
0

>  <SCORE.INTRA.SOLV>
-0.994025

>  <SCORE.INTRA.SOLV.lig_0>
-11.6591

>  <SCORE.INTRA.VDW>
2.30228

>  <SCORE.INTRA.VDW.0>
-0.80116

>  <SCORE.INTRA.norm>
0.299873

>  <SCORE.RESTR>
0

>  <SCORE.RESTR.CAVITY>
0

>  <SCORE.RESTR.norm>
0

>  <SCORE.SYSTEM>
-21.9672

>  <SCORE.SYSTEM.CONST>
0

>  <SCORE.SYSTEM.DIHEDRAL>
6.97546

>  <SCORE.SYSTEM.POLAR>
-3.64588

>  <SCORE.SYSTEM.SOLV>
0.700705

>  <SCORE.SYSTEM.VDW>
-5.05058

>  <SCORE.SYSTEM.norm>
-1.99702

>  <SCORE.heavy>
11

>  <SCORE.norm>
-4.07881

$$$$
P90543722
 OpenBabel12072022103D
libRbt.so/2013.1/901 2013/11/27
 14 13  0  0  0  0  0  0  0  0999 V2000
   20.1246  -17.6437    5.4091 C   0  0  0  0  0  0  0  0  0  0  0  0
   21.0787  -17.4864    4.2262 C   0  0  1  0  0  0  0  0  0  0  0  0
   20.3717  -17.5576    2.8523 C   0  0  0  0  0  0  0  0  0  0  0  0
   21.0465  -18.0465    1.8498 N   0  0  0  0  0  0  0  0  0  0  0  0
   20.2925  -17.9826    0.6658 O   0  0  0  0  0  0  0  0  0  0  0  0
   19.0967  -17.0538    2.7349 N   0  0  0  0  0  0  0  0  0  0  0  0
   21.9225  -16.2741    4.2897 N   0  0  0  0  0  0  0  0  0  0  0  0
   23.3603  -16.5139    4.2777 C   0  0  0  0  0  0  0  0  0  0  0  0
   21.3505  -15.0159    4.1602 C   0  0  0  0  0  0  0  0  0  0  0  0
   20.1529  -14.8476    3.9189 O   0  0  0  0  0  0  0  0  0  0  0  0
   22.2566  -13.8192    4.3030 C   0  0  0  0  0  0  0  0  0  0  0  0
   20.0797  -18.9207    0.5077 H   0  0  0  0  0  0  0  0  0  0  0  0
   18.3749  -17.7060    3.0574 H   0  0  0  0  0  0  0  0  0  0  0  0
   19.0272  -16.1420    3.1741 H   0  0  0  0  0  0  0  0  0  0  0  0
  2  1  1  1  0  0  0
  2  3  1  0  0  0  0
  2  7  1  0  0  0  0
  3  4  2  0  0  0  0
  3  6  1  0  0  0  0
  4  5  1  0  0  0  0
  5 12  1  0  0  0  0
  6 13  1  0  0  0  0
  6 14  1  0  0  0  0
  7  8  1  0  0  0  0
  7  9  1  0  0  0  0
  9 10  2  0  0  0  0
  9 11  1  0  0  0  0
M  END
>  <CHROM.0>
-48.56014978,44.51735162,-55.52999798,-51.85254267,-55.71173732,57.94148862
-58.70376403,-50.43254494,-167.36130450,161.22962794

>  <CHROM.1>
-148.84855950,121.48150711,-81.59861269,-109.03837220,20.97100689,-16.57317651
3.48032941,1.12939677,0.18156419,0.83701927

>  <Name>
P90543722

>  <RI>
0

>  <Rbt.Current_Directory>
/home/fstefaniak/projects/zuza/docking/adenine/1Y26

>  <Rbt.Executable>
rbdock ($Id: //depot/dev/client3/rdock/2013.1/src/exe/rbdock.cxx#4 $)

>  <Rbt.Library>
libRbt.so (2013.1, Build901 2013/11/27)

>  <Rbt.Parameter_File>
/home/fstefaniak/progs/rDock//data/scripts/dock_solv.prm

>  <Rbt.Receptor>
1y26.prm

>  <SCORE>
-44.0348

>  <SCORE.INTER>
-22.3795

>  <SCORE.INTER.CONST>
1

>  <SCORE.INTER.POLAR>
-2.97445

>  <SCORE.INTER.ROT>
3

>  <SCORE.INTER.SOLV>
11.7321

>  <SCORE.INTER.VDW>
-14.5156

>  <SCORE.INTER.norm>
-2.0345

>  <SCORE.INTRA>
-1.07471

>  <SCORE.INTRA.DIHEDRAL>
-1.66134

>  <SCORE.INTRA.DIHEDRAL.0>
4.57691

>  <SCORE.INTRA.POLAR>
-0.0300336

>  <SCORE.INTRA.POLAR.0>
-0.747536

>  <SCORE.INTRA.REPUL>
0

>  <SCORE.INTRA.REPUL.0>
0

>  <SCORE.INTRA.SOLV>
-0.037401

>  <SCORE.INTRA.SOLV.lig_0>
-11.6591

>  <SCORE.INTRA.VDW>
-0.123227

>  <SCORE.INTRA.VDW.0>
-0.80116

>  <SCORE.INTRA.norm>
-0.0977008

>  <SCORE.RESTR>
0

>  <SCORE.RESTR.CAVITY>
0

>  <SCORE.RESTR.norm>
0

>  <SCORE.SYSTEM>
-20.5805

>  <SCORE.SYSTEM.CONST>
0

>  <SCORE.SYSTEM.DIHEDRAL>
6.8975

>  <SCORE.SYSTEM.POLAR>
-3.59093

>  <SCORE.SYSTEM.SOLV>
0.602695

>  <SCORE.SYSTEM.VDW>
-4.25067

>  <SCORE.SYSTEM.norm>
-1.87096

>  <SCORE.heavy>
11

>  <SCORE.norm>
-4.00316

$$$$
P90543722
 OpenBabel12072022103D
libRbt.so/2013.1/901 2013/11/27
 14 13  0  0  0  0  0  0  0  0999 V2000
   20.2290  -17.4501    5.5326 C   0  0  0  0  0  0  0  0  0  0  0  0
   21.1173  -17.2460    4.3065 C   0  0  1  0  0  0  0  0  0  0  0  0
   20.3403  -17.2923    2.9698 C   0  0  0  0  0  0  0  0  0  0  0  0
   20.9101  -17.8876    1.9597 N   0  0  0  0  0  0  0  0  0  0  0  0
   20.1100  -17.7875    0.8089 O   0  0  0  0  0  0  0  0  0  0  0  0
   19.1213  -16.6594    2.8883 N   0  0  0  0  0  0  0  0  0  0  0  0
   21.9452  -16.0222    4.3590 N   0  0  0  0  0  0  0  0  0  0  0  0
   21.2030  -14.7708    4.4501 C   0  0  0  0  0  0  0  0  0  0  0  0
   23.3213  -16.1146    4.5161 C   0  0  0  0  0  0  0  0  0  0  0  0
   23.9039  -17.1876    4.6892 O   0  0  0  0  0  0  0  0  0  0  0  0
   24.1141  -14.8323    4.4928 C   0  0  0  0  0  0  0  0  0  0  0  0
   20.7768  -17.7155    0.1015 H   0  0  0  0  0  0  0  0  0  0  0  0
   18.3475  -17.3008    2.6872 H   0  0  0  0  0  0  0  0  0  0  0  0
   18.9554  -16.0887    3.7103 H   0  0  0  0  0  0  0  0  0  0  0  0
  2  1  1  1  0  0  0
  2  3  1  0  0  0  0
  2  7  1  0  0  0  0
  3  4  2  0  0  0  0
  3  6  1  0  0  0  0
  4  5  1  0  0  0  0
  5 12  1  0  0  0  0
  6 13  1  0  0  0  0
  6 14  1  0  0  0  0
  7  8  1  0  0  0  0
  7  9  1  0  0  0  0
  9 10  2  0  0  0  0
  9 11  1  0  0  0  0
M  END
>  <CHROM.0>
-49.42175838,-61.94073479,-53.64489110,-52.57030507,-55.94373070,58.30849264
-63.65795853,-48.40902790,-166.65506846,161.69813789

>  <CHROM.1>
-140.86826997,-60.55184916,-117.98553109,145.44682560,21.45663645,-16.66338196
3.68802412,2.41706502,-0.15067421,-1.97182315

>  <Name>
P90543722

>  <RI>
0

>  <Rbt.Current_Directory>
/home/fstefaniak/projects/zuza/docking/adenine/1Y26

>  <Rbt.Executable>
rbdock ($Id: //depot/dev/client3/rdock/2013.1/src/exe/rbdock.cxx#4 $)

>  <Rbt.Library>
libRbt.so (2013.1, Build901 2013/11/27)

>  <Rbt.Parameter_File>
/home/fstefaniak/progs/rDock//data/scripts/dock_solv.prm

>  <Rbt.Receptor>
1y26.prm

>  <SCORE>
-42.7987

>  <SCORE.INTER>
-25.5764

>  <SCORE.INTER.CONST>
1

>  <SCORE.INTER.POLAR>
-3.70963

>  <SCORE.INTER.ROT>
3

>  <SCORE.INTER.SOLV>
12.4761

>  <SCORE.INTER.VDW>
-14.4442

>  <SCORE.INTER.norm>
-2.32513

>  <SCORE.INTRA>
4.12994

>  <SCORE.INTRA.DIHEDRAL>
-0.606956

>  <SCORE.INTRA.DIHEDRAL.0>
4.57691

>  <SCORE.INTRA.POLAR>
0.747536

>  <SCORE.INTRA.POLAR.0>
-0.747536

>  <SCORE.INTRA.REPUL>
0

>  <SCORE.INTRA.REPUL.0>
0

>  <SCORE.INTRA.SOLV>
-1.07115

>  <SCORE.INTRA.SOLV.lig_0>
-11.6591

>  <SCORE.INTRA.VDW>
2.42737

>  <SCORE.INTRA.VDW.0>
-0.80116

>  <SCORE.INTRA.norm>
0.375449

>  <SCORE.RESTR>
0

>  <SCORE.RESTR.CAVITY>
0

>  <SCORE.RESTR.norm>
0

>  <SCORE.SYSTEM>
-21.3523

>  <SCORE.SYSTEM.CONST>
0

>  <SCORE.SYSTEM.DIHEDRAL>
6.02773

>  <SCORE.SYSTEM.POLAR>
-3.49252

>  <SCORE.SYSTEM.SOLV>
0.498071

>  <SCORE.SYSTEM.VDW>
-4.76838

>  <SCORE.SYSTEM.norm>
-1.94112

>  <SCORE.heavy>
11

>  <SCORE.norm>
-3.89079

$$$$
P90563101
 OpenBabel12072022103D
libRbt.so/2013.1/901 2013/11/27
 13 13  0  0  0  0  0  0  0  0999 V2000
   22.2737  -16.6171    4.1532 C   0  0  0  0  0  0  0  0  0  0  0  0
   20.8146  -16.2300    4.0173 C   0  0  1  0  0  0  0  0  0  0  0  0
   20.2733  -16.7929    2.8204 O   0  0  0  0  0  0  0  0  0  0  0  0
   18.9357  -17.1413    3.1804 C   0  0  0  0  0  0  0  0  0  0  0  0
   19.0626  -17.5650    4.6276 C   0  0  2  0  0  0  0  0  0  0  0  0
   20.0750  -16.6955    5.1534 O   0  0  0  0  0  0  0  0  0  0  0  0
   19.4764  -19.0390    4.7702 C   0  0  1  0  0  0  0  0  0  0  0  0
   19.2903  -19.5403    6.2153 C   0  0  0  0  0  0  0  0  0  0  0  0
   19.7534  -18.5359    7.1893 N   0  0  0  0  0  0  0  0  0  0  0  0
   18.6881  -19.8509    3.8881 O   0  0  0  0  0  0  0  0  0  0  0  0
   19.7701  -18.9729    8.1129 H   0  0  0  0  0  0  0  0  0  0  0  0
   19.0391  -17.8094    7.2623 H   0  0  0  0  0  0  0  0  0  0  0  0
   18.9372  -20.7654    4.1272 H   0  0  0  0  0  0  0  0  0  0  0  0
  2  1  1  1  0  0  0
  2  3  1  0  0  0  0
  2  6  1  0  0  0  0
  3  4  1  0  0  0  0
  4  5  1  0  0  0  0
  5  6  1  0  0  0  0
  5  7  1  6  0  0  0
  7  8  1  1  0  0  0
  7 10  1  0  0  0  0
  8  9  1  0  0  0  0
  9 11  1  0  0  0  0
  9 12  1  0  0  0  0
 10 13  1  0  0  0  0
M  END
>  <CHROM.0>
64.24180411,179.93354427,-57.19363950,-49.43534594,-57.77216124,-61.60859533
-60.77283580,-48.42013234,-165.94507580,161.05679274

>  <CHROM.1>
-167.00999091,-42.55210808,-173.11062924,-169.85959993,19.86236855,-17.82401908
4.61376004,-0.89086242,0.84035919,1.93642651

>  <Name>
P90563101

>  <RI>
0

>  <Rbt.Current_Directory>
/home/fstefaniak/projects/zuza/docking/adenine/1Y26

>  <Rbt.Executable>
rbdock ($Id: //depot/dev/client3/rdock/2013.1/src/exe/rbdock.cxx#4 $)

>  <Rbt.Library>
libRbt.so (2013.1, Build901 2013/11/27)

>  <Rbt.Parameter_File>
/home/fstefaniak/progs/rDock//data/scripts/dock_solv.prm

>  <Rbt.Receptor>
1y26.prm

>  <SCORE>
-55.4154

>  <SCORE.INTER>
-35.4215

>  <SCORE.INTER.CONST>
1

>  <SCORE.INTER.POLAR>
-5.56506

>  <SCORE.INTER.ROT>
3

>  <SCORE.INTER.SOLV>
13.2315

>  <SCORE.INTER.VDW>
-15.0746

>  <SCORE.INTER.norm>
-3.54215

>  <SCORE.INTRA>
1.38866

>  <SCORE.INTRA.DIHEDRAL>
0.927166

>  <SCORE.INTRA.DIHEDRAL.0>
1.26769

>  <SCORE.INTRA.POLAR>
0.0804359

>  <SCORE.INTRA.POLAR.0>
-0.0804359

>  <SCORE.INTRA.REPUL>
0

>  <SCORE.INTRA.REPUL.0>
0

>  <SCORE.INTRA.SOLV>
0.326859

>  <SCORE.INTRA.SOLV.lig_0>
-12.8831

>  <SCORE.INTRA.VDW>
0.48817

>  <SCORE.INTRA.VDW.0>
-0.267487

>  <SCORE.INTRA.norm>
0.138866

>  <SCORE.RESTR>
0

>  <SCORE.RESTR.CAVITY>
0

>  <SCORE.RESTR.norm>
0

>  <SCORE.SYSTEM>
-21.3826

>  <SCORE.SYSTEM.CONST>
0

>  <SCORE.SYSTEM.DIHEDRAL>
5.71742

>  <SCORE.SYSTEM.POLAR>
-3.30584

>  <SCORE.SYSTEM.SOLV>
0.577345

>  <SCORE.SYSTEM.VDW>
-5.33381

>  <SCORE.SYSTEM.norm>
-2.13826

>  <SCORE.heavy>
10

>  <SCORE.norm>
-5.54154

$$$$
P90563101
 OpenBabel12072022103D
libRbt.so/2013.1/901 2013/11/27
 13 13  0  0  0  0  0  0  0  0999 V2000
   18.6156  -18.3935    2.1446 C   0  0  0  0  0  0  0  0  0  0  0  0
   19.8907  -17.7623    2.6670 C   0  0  1  0  0  0  0  0  0  0  0  0
   19.6133  -16.4531    3.1685 O   0  0  0  0  0  0  0  0  0  0  0  0
   20.4751  -16.3305    4.3009 C   0  0  0  0  0  0  0  0  0  0  0  0
   20.5094  -17.7335    4.8672 C   0  0  2  0  0  0  0  0  0  0  0  0
   20.4507  -18.5746    3.7068 O   0  0  0  0  0  0  0  0  0  0  0  0
   19.3259  -18.0124    5.8081 C   0  0  1  0  0  0  0  0  0  0  0  0
   18.3271  -19.0039    5.1806 C   0  0  0  0  0  0  0  0  0  0  0  0
   17.1657  -19.2168    6.0623 N   0  0  0  0  0  0  0  0  0  0  0  0
   19.8084  -18.5546    7.0458 O   0  0  0  0  0  0  0  0  0  0  0  0
   17.0109  -18.3595    6.5965 H   0  0  0  0  0  0  0  0  0  0  0  0
   17.4215  -19.9135    6.7642 H   0  0  0  0  0  0  0  0  0  0  0  0
   20.3648  -17.8397    7.4130 H   0  0  0  0  0  0  0  0  0  0  0  0
  2  1  1  1  0  0  0
  2  3  1  0  0  0  0
  2  6  1  0  0  0  0
  3  4  1  0  0  0  0
  4  5  1  0  0  0  0
  5  6  1  0  0  0  0
  5  7  1  1  0  0  0
  7  8  1  6  0  0  0
  7 10  1  0  0  0  0
  8  9  1  0  0  0  0
  9 11  1  0  0  0  0
  9 12  1  0  0  0  0
 10 13  1  0  0  0  0
M  END
>  <CHROM.0>
-46.59554099,62.59486964,-52.39801620,-49.18647204,-172.63533137,-54.12566852
-56.94974007,-48.63073262,-166.81176603,161.11857577

>  <CHROM.1>
109.70891684,-177.35928932,62.52889089,30.17687623,19.40092461,-18.01811470
4.53561134,1.18203858,-0.61711883,-1.40936719

>  <Name>
P90563101

>  <RI>
0

>  <Rbt.Current_Directory>
/home/fstefaniak/projects/zuza/docking/adenine/1Y26

>  <Rbt.Executable>
rbdock ($Id: //depot/dev/client3/rdock/2013.1/src/exe/rbdock.cxx#4 $)

>  <Rbt.Library>
libRbt.so (2013.1, Build901 2013/11/27)

>  <Rbt.Parameter_File>
/home/fstefaniak/progs/rDock//data/scripts/dock_solv.prm

>  <Rbt.Receptor>
1y26.prm

>  <SCORE>
-53.2294

>  <SCORE.INTER>
-36.7734

>  <SCORE.INTER.CONST>
1

>  <SCORE.INTER.POLAR>
-5.38728

>  <SCORE.INTER.ROT>
3

>  <SCORE.INTER.SOLV>
13.0215

>  <SCORE.INTER.VDW>
-16.4985

>  <SCORE.INTER.norm>
-3.67734

>  <SCORE.INTRA>
4.81383

>  <SCORE.INTRA.DIHEDRAL>
4.72636

>  <SCORE.INTRA.DIHEDRAL.0>
1.26769

>  <SCORE.INTRA.POLAR>
0.0804359

>  <SCORE.INTRA.POLAR.0>
-0.0804359

>  <SCORE.INTRA.REPUL>
0

>  <SCORE.INTRA.REPUL.0>
0

>  <SCORE.INTRA.SOLV>
0.102877

>  <SCORE.INTRA.SOLV.lig_0>
-12.8831

>  <SCORE.INTRA.VDW>
2.12573

>  <SCORE.INTRA.VDW.0>
-0.267487

>  <SCORE.INTRA.norm>
0.481383

>  <SCORE.RESTR>
0

>  <SCORE.RESTR.CAVITY>
0

>  <SCORE.RESTR.norm>
0

>  <SCORE.SYSTEM>
-21.2698

>  <SCORE.SYSTEM.CONST>
0

>  <SCORE.SYSTEM.DIHEDRAL>
7.03314

>  <SCORE.SYSTEM.POLAR>
-3.64198

>  <SCORE.SYSTEM.SOLV>
0.558462

>  <SCORE.SYSTEM.VDW>
-4.57049

>  <SCORE.SYSTEM.norm>
-2.12698

>  <SCORE.heavy>
10

>  <SCORE.norm>
-5.32294

$$$$
P90563101
 OpenBabel12072022103D
libRbt.so/2013.1/901 2013/11/27
 13 13  0  0  0  0  0  0  0  0999 V2000
   22.3331  -16.6149    4.2011 C   0  0  0  0  0  0  0  0  0  0  0  0
   20.8804  -16.2081    4.0547 C   0  0  1  0  0  0  0  0  0  0  0  0
   20.3521  -16.7285    2.8330 O   0  0  0  0  0  0  0  0  0  0  0  0
   19.0056  -17.0734    3.1616 C   0  0  0  0  0  0  0  0  0  0  0  0
   19.1055  -17.5423    4.5969 C   0  0  2  0  0  0  0  0  0  0  0  0
   20.1183  -16.7001    5.1646 O   0  0  0  0  0  0  0  0  0  0  0  0
   19.5018  -19.0242    4.7007 C   0  0  1  0  0  0  0  0  0  0  0  0
   19.3144  -19.5598    6.1334 C   0  0  0  0  0  0  0  0  0  0  0  0
   19.7315  -18.5600    7.1325 N   0  0  0  0  0  0  0  0  0  0  0  0
   18.7010  -19.8040    3.8012 O   0  0  0  0  0  0  0  0  0  0  0  0
   19.7341  -19.0097    8.0501 H   0  0  0  0  0  0  0  0  0  0  0  0
   19.0003  -17.8496    7.1972 H   0  0  0  0  0  0  0  0  0  0  0  0
   18.9625  -19.4816    2.9162 H   0  0  0  0  0  0  0  0  0  0  0  0
  2  1  1  1  0  0  0
  2  3  1  0  0  0  0
  2  6  1  0  0  0  0
  3  4  1  0  0  0  0
  4  5  1  0  0  0  0
  5  6  1  0  0  0  0
  5  7  1  6  0  0  0
  7  8  1  1  0  0  0
  7 10  1  0  0  0  0
  8  9  1  0  0  0  0
  9 11  1  0  0  0  0
  9 12  1  0  0  0  0
 10 13  1  0  0  0  0
M  END
>  <CHROM.0>
60.76043889,-177.24692243,57.48896480,-53.20059910,-174.83470083,-58.59379129
76.16150793,-52.81618515,-168.11353762,160.08038365

>  <CHROM.1>
-168.13649655,-39.77409360,64.69223772,-170.91177622,19.90150637,-17.79636398
4.58204672,-0.86600960,0.82870309,1.93810482

>  <Name>
P90563101

>  <RI>
0

>  <Rbt.Current_Directory>
/home/fstefaniak/projects/zuza/docking/adenine/1Y26

>  <Rbt.Executable>
rbdock ($Id: //depot/dev/client3/rdock/2013.1/src/exe/rbdock.cxx#4 $)

>  <Rbt.Library>
libRbt.so (2013.1, Build901 2013/11/27)

>  <Rbt.Parameter_File>
/home/fstefaniak/progs/rDock//data/scripts/dock_solv.prm

>  <Rbt.Receptor>
1y26.prm

>  <SCORE>
-53.1949

>  <SCORE.INTER>
-34.8148

>  <SCORE.INTER.CONST>
1

>  <SCORE.INTER.POLAR>
-5.45892

>  <SCORE.INTER.ROT>
3

>  <SCORE.INTER.SOLV>
13.1515

>  <SCORE.INTER.VDW>
-14.9973

>  <SCORE.INTER.norm>
-3.48148

>  <SCORE.INTRA>
1.68753

>  <SCORE.INTRA.DIHEDRAL>
0.990811

>  <SCORE.INTRA.DIHEDRAL.0>
1.26769

>  <SCORE.INTRA.POLAR>
0.0804359

>  <SCORE.INTRA.POLAR.0>
-0.0804359

>  <SCORE.INTRA.REPUL>
0

>  <SCORE.INTRA.REPUL.0>
0

>  <SCORE.INTRA.SOLV>
0.330556

>  <SCORE.INTRA.SOLV.lig_0>
-12.8831

>  <SCORE.INTRA.VDW>
0.75336

>  <SCORE.INTRA.VDW.0>
-0.267487

>  <SCORE.INTRA.norm>
0.168753

>  <SCORE.RESTR>
0

>  <SCORE.RESTR.CAVITY>
0

>  <SCORE.RESTR.norm>
0

>  <SCORE.SYSTEM>
-20.0676

>  <SCORE.SYSTEM.CONST>
0

>  <SCORE.SYSTEM.DIHEDRAL>
6.19295

>  <SCORE.SYSTEM.POLAR>
-3.5041

>  <SCORE.SYSTEM.SOLV>
0.242126

>  <SCORE.SYSTEM.VDW>
-3.84308

>  <SCORE.SYSTEM.norm>
-2.00676

>  <SCORE.heavy>
10

>  <SCORE.norm>
-5.31949

$$$$
P90832059
 OpenBabel12072022103D
libRbt.so/2013.1/901 2013/11/27
 14 13  0  0  0  0  0  0  0  0999 V2000
   21.6147  -16.5159    3.9759 C   0  0  0  0  0  0  0  0  0  0  0  0
   20.1786  -16.9059    4.2887 C   0  0  2  0  0  0  0  0  0  0  0  0
   20.0445  -18.4204    4.5144 C   0  0  0  0  0  0  0  0  0  0  0  0
   18.6580  -18.8027    4.8094 N   0  0  0  0  0  0  0  0  0  0  0  0
   18.2550  -18.9567    6.1469 C   0  0  0  0  0  0  0  0  0  0  0  0
   19.0052  -18.8190    7.1065 O   0  0  0  0  0  0  0  0  0  0  0  0
   16.9147  -19.2732    6.2672 N   0  0  0  0  0  0  0  0  0  0  0  0
   16.1617  -18.7693    7.3880 C   0  0  0  0  0  0  0  0  0  0  0  0
   17.6985  -18.6364    3.7651 N   0  0  0  0  0  0  0  0  0  0  0  0
   19.3662  -16.5090    3.1773 O   0  0  0  0  0  0  0  0  0  0  0  0
   16.7003  -20.2096    5.9616 H   0  0  0  0  0  0  0  0  0  0  0  0
   18.1965  -18.2857    2.9401 H   0  0  0  0  0  0  0  0  0  0  0  0
   17.0473  -17.9043    4.0548 H   0  0  0  0  0  0  0  0  0  0  0  0
   18.8135  -15.7731    3.5161 H   0  0  0  0  0  0  0  0  0  0  0  0
  2  3  1  0  0  0  0
  2 10  1  0  0  0  0
  2  1  1  6  0  0  0
  3  4  1  0  0  0  0
  4  5  1  0  0  0  0
  4  9  1  0  0  0  0
  5  6  2  0  0  0  0
  5  7  1  0  0  0  0
  7  8  1  0  0  0  0
  7 11  1  0  0  0  0
  9 12  1  0  0  0  0
  9 13  1  0  0  0  0
 10 14  1  0  0  0  0
M  END
>  <CHROM.0>
-164.33411355,54.59294321,-61.07659768,-52.27828627,-166.07341952,-177.92800737
-43.60722038,-49.89439690,-169.13202953,160.79610922

>  <CHROM.1>
-179.68199404,-111.14167358,-96.52367726,1.88558352,-145.49348713,18.76976095
-18.13458700,5.11536190,-0.78152147,0.31487980,1.90818247

>  <Name>
P90832059

>  <RI>
0

>  <Rbt.Current_Directory>
/home/fstefaniak/projects/zuza/docking/adenine/1Y26

>  <Rbt.Executable>
rbdock ($Id: //depot/dev/client3/rdock/2013.1/src/exe/rbdock.cxx#4 $)

>  <Rbt.Library>
libRbt.so (2013.1, Build901 2013/11/27)

>  <Rbt.Parameter_File>
/home/fstefaniak/progs/rDock//data/scripts/dock_solv.prm

>  <Rbt.Receptor>
1y26.prm

>  <SCORE>
-49.2315

>  <SCORE.INTER>
-34.0924

>  <SCORE.INTER.CONST>
1

>  <SCORE.INTER.POLAR>
-5.95008

>  <SCORE.INTER.ROT>
4

>  <SCORE.INTER.SOLV>
14.7606

>  <SCORE.INTER.VDW>
-14.0815

>  <SCORE.INTER.norm>
-3.40924

>  <SCORE.INTRA>
4.02084

>  <SCORE.INTRA.DIHEDRAL>
4.80442

>  <SCORE.INTRA.DIHEDRAL.0>
3.75292

>  <SCORE.INTRA.POLAR>
0.693305

>  <SCORE.INTRA.POLAR.0>
-0.977921

>  <SCORE.INTRA.REPUL>
0

>  <SCORE.INTRA.REPUL.0>
0

>  <SCORE.INTRA.SOLV>
0.129104

>  <SCORE.INTRA.SOLV.lig_0>
-18.0346

>  <SCORE.INTRA.VDW>
-0.803163

>  <SCORE.INTRA.VDW.0>
0.4821

>  <SCORE.INTRA.norm>
0.402084

>  <SCORE.RESTR>
0

>  <SCORE.RESTR.CAVITY>
0

>  <SCORE.RESTR.norm>
0

>  <SCORE.SYSTEM>
-19.16

>  <SCORE.SYSTEM.CONST>
0

>  <SCORE.SYSTEM.DIHEDRAL>
8.23904

>  <SCORE.SYSTEM.POLAR>
-3.31737

>  <SCORE.SYSTEM.SOLV>
0.37877

>  <SCORE.SYSTEM.VDW>
-4.58802

>  <SCORE.SYSTEM.norm>
-1.916

>  <SCORE.heavy>
10

>  <SCORE.norm>
-4.92315

$$$$
P90832059
 OpenBabel12072022103D
libRbt.so/2013.1/901 2013/11/27
 14 13  0  0  0  0  0  0  0  0999 V2000
   18.9227  -19.8628    5.5526 C   0  0  0  0  0  0  0  0  0  0  0  0
   19.3428  -18.4063    5.4338 C   0  0  2  0  0  0  0  0  0  0  0  0
   20.3235  -18.1980    4.2687 C   0  0  0  0  0  0  0  0  0  0  0  0
   20.5107  -16.7734    3.9672 N   0  0  0  0  0  0  0  0  0  0  0  0
   21.7674  -16.1824    4.1825 C   0  0  0  0  0  0  0  0  0  0  0  0
   22.7337  -16.7804    4.6423 O   0  0  0  0  0  0  0  0  0  0  0  0
   21.8017  -14.8512    3.8112 N   0  0  0  0  0  0  0  0  0  0  0  0
   22.3429  -13.8721    4.7197 C   0  0  0  0  0  0  0  0  0  0  0  0
   19.5368  -16.1497    3.1297 N   0  0  0  0  0  0  0  0  0  0  0  0
   19.9694  -18.0304    6.6662 O   0  0  0  0  0  0  0  0  0  0  0  0
   20.9997  -14.5711    3.2684 H   0  0  0  0  0  0  0  0  0  0  0  0
   19.0627  -15.4318    3.6878 H   0  0  0  0  0  0  0  0  0  0  0  0
   18.8358  -16.8535    2.8905 H   0  0  0  0  0  0  0  0  0  0  0  0
   20.3682  -17.1518    6.4914 H   0  0  0  0  0  0  0  0  0  0  0  0
  2  3  1  0  0  0  0
  2 10  1  0  0  0  0
  2  1  1  1  0  0  0
  3  4  1  0  0  0  0
  4  5  1  0  0  0  0
  4  9  1  0  0  0  0
  5  6  2  0  0  0  0
  5  7  1  0  0  0  0
  7  8  1  0  0  0  0
  7 11  1  0  0  0  0
  9 12  1  0  0  0  0
  9 13  1  0  0  0  0
 10 14  1  0  0  0  0
M  END
>  <CHROM.0>
-49.62132885,-53.66402724,-56.38739428,-52.68616922,-58.21332896,-61.76228919
-59.03709191,-48.90247287,-166.93221654,158.69785885

>  <CHROM.1>
167.89686769,169.88325668,114.09080298,115.92022144,131.11664892,20.71103059
-16.89858327,4.65754679,-2.27692009,-0.62207565,-0.79272355

>  <Name>
P90832059

>  <RI>
0

>  <Rbt.Current_Directory>
/home/fstefaniak/projects/zuza/docking/adenine/1Y26

>  <Rbt.Executable>
rbdock ($Id: //depot/dev/client3/rdock/2013.1/src/exe/rbdock.cxx#4 $)

>  <Rbt.Library>
libRbt.so (2013.1, Build901 2013/11/27)

>  <Rbt.Parameter_File>
/home/fstefaniak/progs/rDock//data/scripts/dock_solv.prm

>  <Rbt.Receptor>
1y26.prm

>  <SCORE>
-47.9694

>  <SCORE.INTER>
-27.6491

>  <SCORE.INTER.CONST>
1

>  <SCORE.INTER.POLAR>
-3.55378

>  <SCORE.INTER.ROT>
4

>  <SCORE.INTER.SOLV>
14.3308

>  <SCORE.INTER.VDW>
-17.6304

>  <SCORE.INTER.norm>
-2.76491

>  <SCORE.INTRA>
1.65794

>  <SCORE.INTRA.DIHEDRAL>
-0.332443

>  <SCORE.INTRA.DIHEDRAL.0>
3.75292

>  <SCORE.INTRA.POLAR>
0.7861

>  <SCORE.INTRA.POLAR.0>
-0.977921

>  <SCORE.INTRA.REPUL>
0

>  <SCORE.INTRA.REPUL.0>
0

>  <SCORE.INTRA.SOLV>
-0.545701

>  <SCORE.INTRA.SOLV.lig_0>
-18.0346

>  <SCORE.INTRA.VDW>
-0.575726

>  <SCORE.INTRA.VDW.0>
0.4821

>  <SCORE.INTRA.norm>
0.165794

>  <SCORE.RESTR>
0

>  <SCORE.RESTR.CAVITY>
0

>  <SCORE.RESTR.norm>
0

>  <SCORE.SYSTEM>
-21.9783

>  <SCORE.SYSTEM.CONST>
0

>  <SCORE.SYSTEM.DIHEDRAL>
6.28909

>  <SCORE.SYSTEM.POLAR>
-3.51497

>  <SCORE.SYSTEM.SOLV>
0.663687

>  <SCORE.SYSTEM.VDW>
-5.25322

>  <SCORE.SYSTEM.norm>
-2.19783

>  <SCORE.heavy>
10

>  <SCORE.norm>
-4.79694

$$$$
P90832059
 OpenBabel12072022103D
libRbt.so/2013.1/901 2013/11/27
 14 13  0  0  0  0  0  0  0  0999 V2000
   21.5752  -16.2613    4.1374 C   0  0  0  0  0  0  0  0  0  0  0  0
   20.1439  -16.7287    4.3500 C   0  0  2  0  0  0  0  0  0  0  0  0
   20.0755  -18.2492    4.5637 C   0  0  0  0  0  0  0  0  0  0  0  0
   18.7046  -18.6954    4.8412 N   0  0  0  0  0  0  0  0  0  0  0  0
   18.2930  -18.8711    6.1733 C   0  0  0  0  0  0  0  0  0  0  0  0
   19.0245  -18.7014    7.1423 O   0  0  0  0  0  0  0  0  0  0  0  0
   16.9672  -19.2490    6.2768 N   0  0  0  0  0  0  0  0  0  0  0  0
   16.1785  -18.7829    7.3893 C   0  0  0  0  0  0  0  0  0  0  0  0
   17.7511  -18.5708    3.7856 N   0  0  0  0  0  0  0  0  0  0  0  0
   19.3896  -16.3697    3.1859 O   0  0  0  0  0  0  0  0  0  0  0  0
   16.7997  -20.1935    5.9668 H   0  0  0  0  0  0  0  0  0  0  0  0
   18.2292  -18.1434    2.9854 H   0  0  0  0  0  0  0  0  0  0  0  0
   17.0328  -17.9117    4.0916 H   0  0  0  0  0  0  0  0  0  0  0  0
   19.4165  -15.3899    3.1574 H   0  0  0  0  0  0  0  0  0  0  0  0
  2  3  1  0  0  0  0
  2 10  1  0  0  0  0
  2  1  1  6  0  0  0
  3  4  1  0  0  0  0
  4  5  1  0  0  0  0
  4  9  1  0  0  0  0
  5  6  2  0  0  0  0
  5  7  1  0  0  0  0
  7  8  1  0  0  0  0
  7 11  1  0  0  0  0
  9 12  1  0  0  0  0
  9 13  1  0  0  0  0
 10 14  1  0  0  0  0
M  END
>  <CHROM.0>
-165.30924844,44.30563842,62.04221588,-50.73710656,-54.84691370,62.28302975
77.79595638,-50.84136808,-165.72388012,162.58303414

>  <CHROM.1>
176.93754339,-63.10222349,-96.21872294,-1.44052553,-145.49166180,18.79444477
-18.02067704,5.15313498,-0.77618113,0.37918782,1.89825977

>  <Name>
P90832059

>  <RI>
0

>  <Rbt.Current_Directory>
/home/fstefaniak/projects/zuza/docking/adenine/1Y26

>  <Rbt.Executable>
rbdock ($Id: //depot/dev/client3/rdock/2013.1/src/exe/rbdock.cxx#4 $)

>  <Rbt.Library>
libRbt.so (2013.1, Build901 2013/11/27)

>  <Rbt.Parameter_File>
/home/fstefaniak/progs/rDock//data/scripts/dock_solv.prm

>  <Rbt.Receptor>
1y26.prm

>  <SCORE>
-47.3227

>  <SCORE.INTER>
-30.5128

>  <SCORE.INTER.CONST>
1

>  <SCORE.INTER.POLAR>
-5.05953

>  <SCORE.INTER.ROT>
4

>  <SCORE.INTER.SOLV>
14.9114

>  <SCORE.INTER.VDW>
-14.7139

>  <SCORE.INTER.norm>
-3.05128

>  <SCORE.INTRA>
0.75788

>  <SCORE.INTRA.DIHEDRAL>
-1.96216

>  <SCORE.INTRA.DIHEDRAL.0>
3.75292

>  <SCORE.INTRA.POLAR>
0.540708

>  <SCORE.INTRA.POLAR.0>
-0.977921

>  <SCORE.INTRA.REPUL>
0

>  <SCORE.INTRA.REPUL.0>
0

>  <SCORE.INTRA.SOLV>
0.0273867

>  <SCORE.INTRA.SOLV.lig_0>
-18.0346

>  <SCORE.INTRA.VDW>
-0.11314

>  <SCORE.INTRA.VDW.0>
0.4821

>  <SCORE.INTRA.norm>
0.075788

>  <SCORE.RESTR>
0

>  <SCORE.RESTR.CAVITY>
0

>  <SCORE.RESTR.norm>
0

>  <SCORE.SYSTEM>
-17.5677

>  <SCORE.SYSTEM.CONST>
0

>  <SCORE.SYSTEM.DIHEDRAL>
8.73964

>  <SCORE.SYSTEM.POLAR>
-3.65211

>  <SCORE.SYSTEM.SOLV>
0.368272

>  <SCORE.SYSTEM.VDW>
-2.57408

>  <SCORE.SYSTEM.norm>
-1.75677

>  <SCORE.heavy>
10

>  <SCORE.norm>
-4.73227

$$$$
P91593447
 OpenBabel12072022103D
libRbt.so/2013.1/901 2013/11/27
 10  9  0  0  0  0  0  0  0  0999 V2000
   18.6159  -18.2817    3.3835 C   0  0  0  0  0  0  0  0  0  0  0  0
   19.7538  -18.5598    4.3694 C   0  0  2  0  0  0  0  0  0  0  0  0
   19.3094  -19.4680    5.5309 C   0  0  0  0  0  0  0  0  0  0  0  0
   17.9390  -19.1506    5.9540 C   0  0  0  0  0  0  0  0  0  0  0  0
   16.8522  -18.8937    6.2693 N   0  0  0  0  0  0  0  0  0  0  0  0
   20.3587  -17.3045    4.8260 N   0  0  0  0  0  0  0  0  0  0  0  0
   20.6945  -16.2715    3.9808 C   0  0  0  0  0  0  0  0  0  0  0  0
   20.4360  -16.2647    2.7824 O   0  0  0  0  0  0  0  0  0  0  0  0
   21.3871  -15.1165    4.6536 C   0  0  0  0  0  0  0  0  0  0  0  0
   20.7077  -17.2777    5.7765 H   0  0  0  0  0  0  0  0  0  0  0  0
  2  3  1  0  0  0  0
  2  6  1  0  0  0  0
  2  1  1  6  0  0  0
  3  4  1  0  0  0  0
  4  5  3  0  0  0  0
  6  7  1  0  0  0  0
  6 10  1  0  0  0  0
  7  8  2  0  0  0  0
  7  9  1  0  0  0  0
M  END
>  <CHROM.0>
-48.85163086,-57.53574118,-57.31695379,-52.98056636,-173.65216568,-59.33849338
-57.71362781,-177.43714745,-167.16285394,160.41037185

>  <CHROM.1>
-37.76387593,-45.77820088,19.51934879,-17.65204864,4.60039105,2.77355660
0.82861908,1.52902126

>  <Name>
P91593447

>  <RI>
0

>  <Rbt.Current_Directory>
/home/fstefaniak/projects/zuza/docking/adenine/1Y26

>  <Rbt.Executable>
rbdock ($Id: //depot/dev/client3/rdock/2013.1/src/exe/rbdock.cxx#4 $)

>  <Rbt.Library>
libRbt.so (2013.1, Build901 2013/11/27)

>  <Rbt.Parameter_File>
/home/fstefaniak/progs/rDock//data/scripts/dock_solv.prm

>  <Rbt.Receptor>
1y26.prm

>  <SCORE>
-46.3625

>  <SCORE.INTER>
-27.3901

>  <SCORE.INTER.CONST>
1

>  <SCORE.INTER.POLAR>
-3.05896

>  <SCORE.INTER.ROT>
2

>  <SCORE.INTER.SOLV>
10.1821

>  <SCORE.INTER.VDW>
-16.3909

>  <SCORE.INTER.norm>
-3.04335

>  <SCORE.INTRA>
3.59547

>  <SCORE.INTRA.DIHEDRAL>
0.901907

>  <SCORE.INTRA.DIHEDRAL.0>
1.57349

>  <SCORE.INTRA.POLAR>
0

>  <SCORE.INTRA.POLAR.0>
0

>  <SCORE.INTRA.REPUL>
0

>  <SCORE.INTRA.REPUL.0>
0

>  <SCORE.INTRA.SOLV>
0.112516

>  <SCORE.INTRA.SOLV.lig_0>
-12.5798

>  <SCORE.INTRA.VDW>
3.08826

>  <SCORE.INTRA.VDW.0>
0.0535419

>  <SCORE.INTRA.norm>
0.399497

>  <SCORE.RESTR>
0

>  <SCORE.RESTR.CAVITY>
0

>  <SCORE.RESTR.norm>
0

>  <SCORE.SYSTEM>
-22.5678

>  <SCORE.SYSTEM.CONST>
0

>  <SCORE.SYSTEM.DIHEDRAL>
5.52975

>  <SCORE.SYSTEM.POLAR>
-3.4432

>  <SCORE.SYSTEM.SOLV>
0.293402

>  <SCORE.SYSTEM.VDW>
-5.50895

>  <SCORE.SYSTEM.norm>
-2.50754

>  <SCORE.heavy>
9

>  <SCORE.norm>
-5.15138

$$$$
P91593447
 OpenBabel12072022103D
libRbt.so/2013.1/901 2013/11/27
 10  9  0  0  0  0  0  0  0  0999 V2000
   18.4849  -18.1801    2.2174 C   0  0  0  0  0  0  0  0  0  0  0  0
   19.3251  -18.1066    3.4953 C   0  0  2  0  0  0  0  0  0  0  0  0
   18.6066  -18.7383    4.7020 C   0  0  0  0  0  0  0  0  0  0  0  0
   19.3852  -18.5562    5.9342 C   0  0  0  0  0  0  0  0  0  0  0  0
   20.0081  -18.3951    6.8999 N   0  0  0  0  0  0  0  0  0  0  0  0
   19.7605  -16.7292    3.7476 N   0  0  0  0  0  0  0  0  0  0  0  0
   21.0637  -16.3830    4.0231 C   0  0  0  0  0  0  0  0  0  0  0  0
   21.9972  -17.1770    3.9924 O   0  0  0  0  0  0  0  0  0  0  0  0
   21.2670  -14.9253    4.3400 C   0  0  0  0  0  0  0  0  0  0  0  0
   19.0380  -16.0368    3.9043 H   0  0  0  0  0  0  0  0  0  0  0  0
  2  3  1  0  0  0  0
  2  6  1  0  0  0  0
  2  1  1  6  0  0  0
  3  4  1  0  0  0  0
  4  5  3  0  0  0  0
  6  7  1  0  0  0  0
  6 10  1  0  0  0  0
  7  8  2  0  0  0  0
  7  9  1  0  0  0  0
M  END
>  <CHROM.0>
-46.11242478,-172.63257800,-55.64016000,-53.69265618,-55.07804036,-59.13390681
-61.54194197,-52.17136015,-168.63916527,160.02434575

>  <CHROM.1>
-175.33823541,-130.27927638,20.00852577,-17.42987121,4.33258663,2.70045555
0.74849104,1.95914707

>  <Name>
P91593447

>  <RI>
0

>  <Rbt.Current_Directory>
/home/fstefaniak/projects/zuza/docking/adenine/1Y26

>  <Rbt.Executable>
rbdock ($Id: //depot/dev/client3/rdock/2013.1/src/exe/rbdock.cxx#4 $)

>  <Rbt.Library>
libRbt.so (2013.1, Build901 2013/11/27)

>  <Rbt.Parameter_File>
/home/fstefaniak/progs/rDock//data/scripts/dock_solv.prm

>  <Rbt.Receptor>
1y26.prm

>  <SCORE>
-46.2266

>  <SCORE.INTER>
-22.8418

>  <SCORE.INTER.CONST>
1

>  <SCORE.INTER.POLAR>
-1.88959

>  <SCORE.INTER.ROT>
2

>  <SCORE.INTER.SOLV>
10.3013

>  <SCORE.INTER.VDW>
-17.2963

>  <SCORE.INTER.norm>
-2.53798

>  <SCORE.INTRA>
-1.04544

>  <SCORE.INTRA.DIHEDRAL>
-0.302217

>  <SCORE.INTRA.DIHEDRAL.0>
1.57349

>  <SCORE.INTRA.POLAR>
0

>  <SCORE.INTRA.POLAR.0>
0

>  <SCORE.INTRA.REPUL>
0

>  <SCORE.INTRA.REPUL.0>
0

>  <SCORE.INTRA.SOLV>
0.587918

>  <SCORE.INTRA.SOLV.lig_0>
-12.5798

>  <SCORE.INTRA.VDW>
-1.18829

>  <SCORE.INTRA.VDW.0>
0.0535419

>  <SCORE.INTRA.norm>
-0.11616

>  <SCORE.RESTR>
0

>  <SCORE.RESTR.CAVITY>
0

>  <SCORE.RESTR.norm>
0

>  <SCORE.SYSTEM>
-22.3393

>  <SCORE.SYSTEM.CONST>
0

>  <SCORE.SYSTEM.DIHEDRAL>
6.14897

>  <SCORE.SYSTEM.POLAR>
-3.49814

>  <SCORE.SYSTEM.SOLV>
0.601112

>  <SCORE.SYSTEM.VDW>
-5.48246

>  <SCORE.SYSTEM.norm>
-2.48215

>  <SCORE.heavy>
9

>  <SCORE.norm>
-5.13629

$$$$
P91593447
 OpenBabel12072022103D
libRbt.so/2013.1/901 2013/11/27
 10  9  0  0  0  0  0  0  0  0999 V2000
   18.4559  -18.1791    2.1941 C   0  0  0  0  0  0  0  0  0  0  0  0
   19.3125  -18.1206    3.4618 C   0  0  2  0  0  0  0  0  0  0  0  0
   18.6087  -18.7649    4.6706 C   0  0  0  0  0  0  0  0  0  0  0  0
   19.3901  -18.5734    5.8996 C   0  0  0  0  0  0  0  0  0  0  0  0
   20.0149  -18.4048    6.8628 N   0  0  0  0  0  0  0  0  0  0  0  0
   19.7527  -16.7465    3.7237 N   0  0  0  0  0  0  0  0  0  0  0  0
   21.0637  -16.4011    3.9608 C   0  0  0  0  0  0  0  0  0  0  0  0
   21.9976  -17.1915    3.8840 O   0  0  0  0  0  0  0  0  0  0  0  0
   21.2739  -14.9487    4.2965 C   0  0  0  0  0  0  0  0  0  0  0  0
   19.0343  -16.0592    3.9173 H   0  0  0  0  0  0  0  0  0  0  0  0
  2  3  1  0  0  0  0
  2  6  1  0  0  0  0
  2  1  1  6  0  0  0
  3  4  1  0  0  0  0
  4  5  3  0  0  0  0
  6  7  1  0  0  0  0
  6 10  1  0  0  0  0
  7  8  2  0  0  0  0
  7  9  1  0  0  0  0
M  END
>  <CHROM.0>
-47.46090390,-170.64316244,-50.17111184,-51.50811771,-176.64863211,-62.47395723
-62.51628317,-49.87093844,-167.02886774,160.48244440

>  <CHROM.1>
-174.18271986,-128.97707947,20.00519835,-17.44529404,4.28805578,2.68398891
0.74166106,1.95609815

>  <Name>
P91593447

>  <RI>
0

>  <Rbt.Current_Directory>
/home/fstefaniak/projects/zuza/docking/adenine/1Y26

>  <Rbt.Executable>
rbdock ($Id: //depot/dev/client3/rdock/2013.1/src/exe/rbdock.cxx#4 $)

>  <Rbt.Library>
libRbt.so (2013.1, Build901 2013/11/27)

>  <Rbt.Parameter_File>
/home/fstefaniak/progs/rDock//data/scripts/dock_solv.prm

>  <Rbt.Receptor>
1y26.prm

>  <SCORE>
-46.1344

>  <SCORE.INTER>
-22.8574

>  <SCORE.INTER.CONST>
1

>  <SCORE.INTER.POLAR>
-1.88723

>  <SCORE.INTER.ROT>
2

>  <SCORE.INTER.SOLV>
10.2454

>  <SCORE.INTER.VDW>
-17.296

>  <SCORE.INTER.norm>
-2.53971

>  <SCORE.INTRA>
-1.01062

>  <SCORE.INTRA.DIHEDRAL>
-0.237872

>  <SCORE.INTRA.DIHEDRAL.0>
1.57349

>  <SCORE.INTRA.POLAR>
0

>  <SCORE.INTRA.POLAR.0>
0

>  <SCORE.INTRA.REPUL>
0

>  <SCORE.INTRA.REPUL.0>
0

>  <SCORE.INTRA.SOLV>
0.575627

>  <SCORE.INTRA.SOLV.lig_0>
-12.5798

>  <SCORE.INTRA.VDW>
-1.17949

>  <SCORE.INTRA.VDW.0>
0.0535419

>  <SCORE.INTRA.norm>
-0.112291

>  <SCORE.RESTR>
0

>  <SCORE.RESTR.CAVITY>
0

>  <SCORE.RESTR.norm>
0

>  <SCORE.SYSTEM>
-22.2664

>  <SCORE.SYSTEM.CONST>
0

>  <SCORE.SYSTEM.DIHEDRAL>
6.90932

>  <SCORE.SYSTEM.POLAR>
-3.59264

>  <SCORE.SYSTEM.SOLV>
0.435118

>  <SCORE.SYSTEM.VDW>
-5.31695

>  <SCORE.SYSTEM.norm>
-2.47404

>  <SCORE.heavy>
9

>  <SCORE.norm>
-5.12605

$$$$
P92124050
 OpenBabel12072022103D
libRbt.so/2013.1/901 2013/11/27
 14 14  0  0  0  0  0  0  0  0999 V2000
   23.8670  -11.8630    3.2873 C   0  0  0  0  0  0  0  0  0  0  0  0
   23.0149  -13.1246    3.1660 C   0  0  0  0  0  0  0  0  0  0  0  0
   23.1312  -14.1143    4.3565 C   0  0  2  0  0  0  0  0  0  0  0  0
   24.6009  -14.5762    4.5025 C   0  0  0  0  0  0  0  0  0  0  0  0
   24.5773  -16.0982    4.4874 C   0  0  0  0  0  0  0  0  0  0  0  0
   23.1617  -16.4508    4.7095 N   0  3  0  0  0  0  0  0  0  0  0  0
   22.8778  -17.4176    4.5527 H   0  0  0  0  0  0  0  0  0  0  0  0
   23.0034  -16.2689    5.7466 H   0  0  0  0  0  0  0  0  0  0  0  0
   22.3390  -15.3887    4.0807 C   0  0  0  0  0  0  0  0  0  0  0  0
   22.6395  -13.4447    5.6609 C   0  0  0  0  0  0  0  0  0  0  0  0
   22.4542  -14.1172    6.6804 O   0  0  0  0  0  0  0  0  0  0  0  0
   22.4044  -12.0899    5.7322 N   0  0  0  0  0  0  0  0  0  0  0  0
   21.1496  -11.5226    5.7077 O   0  5  0  0  0  0  0  0  0  0  0  0
   23.1161  -11.5484    6.2222 H   0  0  0  0  0  0  0  0  0  0  0  0
  1  2  1  0  0  0  0
  3  2  1  6  0  0  0
  3  4  1  0  0  0  0
  3  9  1  0  0  0  0
  3 10  1  0  0  0  0
  4  5  1  0  0  0  0
  5  6  1  0  0  0  0
  6  7  1  0  0  0  0
  6  8  1  0  0  0  0
  6  9  1  0  0  0  0
 10 11  2  0  0  0  0
 10 12  1  0  0  0  0
 12 13  1  0  0  0  0
 12 14  1  0  0  0  0
M  CHG  2   6   1  13  -1
M  END
>  <CHROM.0>
-49.89532456,-43.87556129,-51.96860342,-52.15085698,-57.22306022,-59.08877500
-56.85900190,-50.46088335,-166.99101831,159.60675049

>  <CHROM.1>
-59.57438301,168.78903787,103.06754336,23.00872260,-13.87584192,4.79519958
-2.23342111,-0.93630613,2.77245805

>  <Name>
P92124050

>  <RI>
0

>  <Rbt.Current_Directory>
/home/fstefaniak/projects/zuza/docking/adenine/1Y26

>  <Rbt.Executable>
rbdock ($Id: //depot/dev/client3/rdock/2013.1/src/exe/rbdock.cxx#4 $)

>  <Rbt.Library>
libRbt.so (2013.1, Build901 2013/11/27)

>  <Rbt.Parameter_File>
/home/fstefaniak/progs/rDock//data/scripts/dock_solv.prm

>  <Rbt.Receptor>
1y26.prm

>  <SCORE>
-39.537

>  <SCORE.INTER>
-19.1834

>  <SCORE.INTER.CONST>
1

>  <SCORE.INTER.POLAR>
-3.79668

>  <SCORE.INTER.ROT>
3

>  <SCORE.INTER.SOLV>
21.0453

>  <SCORE.INTER.VDW>
-12.7485

>  <SCORE.INTER.norm>
-1.74395

>  <SCORE.INTRA>
0.0317192

>  <SCORE.INTRA.DIHEDRAL>
3.792

>  <SCORE.INTRA.DIHEDRAL.0>
1.22126

>  <SCORE.INTRA.POLAR>
0.603385

>  <SCORE.INTRA.POLAR.0>
-0.603385

>  <SCORE.INTRA.REPUL>
0

>  <SCORE.INTRA.REPUL.0>
0

>  <SCORE.INTRA.SOLV>
-7.49818

>  <SCORE.INTRA.SOLV.lig_0>
-46.3245

>  <SCORE.INTRA.VDW>
-0.166701

>  <SCORE.INTRA.VDW.0>
1.16752

>  <SCORE.INTRA.norm>
0.00288357

>  <SCORE.RESTR>
0.917449

>  <SCORE.RESTR.CAVITY>
0.917449

>  <SCORE.RESTR.norm>
0.0834045

>  <SCORE.SYSTEM>
-21.3027

>  <SCORE.SYSTEM.CONST>
0

>  <SCORE.SYSTEM.DIHEDRAL>
7.28524

>  <SCORE.SYSTEM.POLAR>
-3.54011

>  <SCORE.SYSTEM.SOLV>
0.687487

>  <SCORE.SYSTEM.VDW>
-5.059

>  <SCORE.SYSTEM.norm>
-1.93661

>  <SCORE.heavy>
11

>  <SCORE.norm>
-3.59427

$$$$
P92124050
 OpenBabel12072022103D
libRbt.so/2013.1/901 2013/11/27
 14 14  0  0  0  0  0  0  0  0999 V2000
   21.3554  -16.0446    3.7042 C   0  0  0  0  0  0  0  0  0  0  0  0
   21.1850  -14.9877    4.7933 C   0  0  0  0  0  0  0  0  0  0  0  0
   22.4116  -14.0604    5.0082 C   0  0  2  0  0  0  0  0  0  0  0  0
   22.6572  -13.2242    3.7294 C   0  0  0  0  0  0  0  0  0  0  0  0
   24.1104  -13.4534    3.3379 C   0  0  0  0  0  0  0  0  0  0  0  0
   24.7265  -14.0614    4.5330 N   0  3  0  0  0  0  0  0  0  0  0  0
   25.6549  -14.4724    4.4376 H   0  0  0  0  0  0  0  0  0  0  0  0
   24.8391  -13.2507    5.2140 H   0  0  0  0  0  0  0  0  0  0  0  0
   23.6839  -14.8806    5.1980 C   0  0  0  0  0  0  0  0  0  0  0  0
   22.1785  -13.1360    6.2258 C   0  0  0  0  0  0  0  0  0  0  0  0
   21.8628  -11.9526    6.0641 O   0  0  0  0  0  0  0  0  0  0  0  0
   22.3033  -13.5980    7.5168 N   0  0  0  0  0  0  0  0  0  0  0  0
   22.3176  -12.7853    8.6288 O   0  5  0  0  0  0  0  0  0  0  0  0
   21.9626  -14.5458    7.6763 H   0  0  0  0  0  0  0  0  0  0  0  0
  1  2  1  0  0  0  0
  3  2  1  6  0  0  0
  3  4  1  0  0  0  0
  3  9  1  0  0  0  0
  3 10  1  0  0  0  0
  4  5  1  0  0  0  0
  5  6  1  0  0  0  0
  6  7  1  0  0  0  0
  6  8  1  0  0  0  0
  6  9  1  0  0  0  0
 10 11  2  0  0  0  0
 10 12  1  0  0  0  0
 12 13  1  0  0  0  0
 12 14  1  0  0  0  0
M  CHG  2   6   1  13  -1
M  END
>  <CHROM.0>
-45.94147356,-172.85322425,-64.64413212,-53.03858013,56.66490581,-60.63265387
-170.21008807,-177.49151613,-165.99301925,160.58956773

>  <CHROM.1>
63.98328195,-102.57008907,169.28706345,22.63360246,-13.82334664,5.38068264
1.35417625,-0.53733287,-2.10879997

>  <Name>
P92124050

>  <RI>
0

>  <Rbt.Current_Directory>
/home/fstefaniak/projects/zuza/docking/adenine/1Y26

>  <Rbt.Executable>
rbdock ($Id: //depot/dev/client3/rdock/2013.1/src/exe/rbdock.cxx#4 $)

>  <Rbt.Library>
libRbt.so (2013.1, Build901 2013/11/27)

>  <Rbt.Parameter_File>
/home/fstefaniak/progs/rDock//data/scripts/dock_solv.prm

>  <Rbt.Receptor>
1y26.prm

>  <SCORE>
-39.4139

>  <SCORE.INTER>
-16.7752

>  <SCORE.INTER.CONST>
1

>  <SCORE.INTER.POLAR>
-2.84485

>  <SCORE.INTER.ROT>
3

>  <SCORE.INTER.SOLV>
22.7448

>  <SCORE.INTER.VDW>
-14.8822

>  <SCORE.INTER.norm>
-1.52502

>  <SCORE.INTRA>
-2.47177

>  <SCORE.INTRA.DIHEDRAL>
0.337853

>  <SCORE.INTRA.DIHEDRAL.0>
1.22126

>  <SCORE.INTRA.POLAR>
0.603385

>  <SCORE.INTRA.POLAR.0>
-0.603385

>  <SCORE.INTRA.REPUL>
0

>  <SCORE.INTRA.REPUL.0>
0

>  <SCORE.INTRA.SOLV>
-10.1294

>  <SCORE.INTRA.SOLV.lig_0>
-46.3245

>  <SCORE.INTRA.VDW>
0.3725

>  <SCORE.INTRA.VDW.0>
1.16752

>  <SCORE.INTRA.norm>
-0.224706

>  <SCORE.RESTR>
0.184869

>  <SCORE.RESTR.CAVITY>
0.184869

>  <SCORE.RESTR.norm>
0.0168063

>  <SCORE.SYSTEM>
-20.3518

>  <SCORE.SYSTEM.CONST>
0

>  <SCORE.SYSTEM.DIHEDRAL>
6.54161

>  <SCORE.SYSTEM.POLAR>
-3.46572

>  <SCORE.SYSTEM.SOLV>
0.131925

>  <SCORE.SYSTEM.VDW>
-4.24

>  <SCORE.SYSTEM.norm>
-1.85016

>  <SCORE.heavy>
11

>  <SCORE.norm>
-3.58308

$$$$
P92124050
 OpenBabel12072022103D
libRbt.so/2013.1/901 2013/11/27
 14 14  0  0  0  0  0  0  0  0999 V2000
   23.1354  -11.7543    3.3363 C   0  0  0  0  0  0  0  0  0  0  0  0
   22.6527  -13.1896    3.1384 C   0  0  0  0  0  0  0  0  0  0  0  0
   22.9214  -14.1449    4.3324 C   0  0  2  0  0  0  0  0  0  0  0  0
   24.4458  -14.3614    4.4876 C   0  0  0  0  0  0  0  0  0  0  0  0
   24.6699  -15.8671    4.4768 C   0  0  0  0  0  0  0  0  0  0  0  0
   23.3292  -16.4446    4.6924 N   0  3  0  0  0  0  0  0  0  0  0  0
   23.2071  -17.4451    4.5368 H   0  0  0  0  0  0  0  0  0  0  0  0
   23.1374  -16.2888    5.7281 H   0  0  0  0  0  0  0  0  0  0  0  0
   22.3485  -15.5316    4.0561 C   0  0  0  0  0  0  0  0  0  0  0  0
   22.3200  -13.5614    5.6321 C   0  0  0  0  0  0  0  0  0  0  0  0
   21.3965  -14.1419    6.2121 O   0  0  0  0  0  0  0  0  0  0  0  0
   22.7950  -12.3939    6.1863 N   0  0  0  0  0  0  0  0  0  0  0  0
   22.0228  -11.5153    6.9135 O   0  5  0  0  0  0  0  0  0  0  0  0
   23.7882  -12.3928    6.4175 H   0  0  0  0  0  0  0  0  0  0  0  0
  1  2  1  0  0  0  0
  3  2  1  6  0  0  0
  3  4  1  0  0  0  0
  3  9  1  0  0  0  0
  3 10  1  0  0  0  0
  4  5  1  0  0  0  0
  5  6  1  0  0  0  0
  6  7  1  0  0  0  0
  6  8  1  0  0  0  0
  6  9  1  0  0  0  0
 10 11  2  0  0  0  0
 10 12  1  0  0  0  0
 12 13  1  0  0  0  0
 12 14  1  0  0  0  0
M  CHG  2   6   1  13  -1
M  END
>  <CHROM.0>
-44.87456918,-55.58583519,174.82822760,-49.77856120,-176.30757126,-177.77141059
76.47294866,-53.63489035,-167.89531102,160.60266325

>  <CHROM.1>
-66.94628147,115.24950745,149.66602007,22.90019065,-13.88940913,4.90325452
-2.35230734,-1.09946639,2.82358067

>  <Name>
P92124050

>  <RI>
0

>  <Rbt.Current_Directory>
/home/fstefaniak/projects/zuza/docking/adenine/1Y26

>  <Rbt.Executable>
rbdock ($Id: //depot/dev/client3/rdock/2013.1/src/exe/rbdock.cxx#4 $)

>  <Rbt.Library>
libRbt.so (2013.1, Build901 2013/11/27)

>  <Rbt.Parameter_File>
/home/fstefaniak/progs/rDock//data/scripts/dock_solv.prm

>  <Rbt.Receptor>
1y26.prm

>  <SCORE>
-39.4062

>  <SCORE.INTER>
-16.2204

>  <SCORE.INTER.CONST>
1

>  <SCORE.INTER.POLAR>
-3.2249

>  <SCORE.INTER.ROT>
3

>  <SCORE.INTER.SOLV>
20.1379

>  <SCORE.INTER.VDW>
-12.3766

>  <SCORE.INTER.norm>
-1.47458

>  <SCORE.INTRA>
-2.82384

>  <SCORE.INTRA.DIHEDRAL>
-0.522296

>  <SCORE.INTRA.DIHEDRAL.0>
1.22126

>  <SCORE.INTRA.POLAR>
0.603385

>  <SCORE.INTRA.POLAR.0>
-0.603385

>  <SCORE.INTRA.REPUL>
0

>  <SCORE.INTRA.REPUL.0>
0

>  <SCORE.INTRA.SOLV>
-8.46101

>  <SCORE.INTRA.SOLV.lig_0>
-46.3245

>  <SCORE.INTRA.VDW>
-0.383695

>  <SCORE.INTRA.VDW.0>
1.16752

>  <SCORE.INTRA.norm>
-0.256712

>  <SCORE.RESTR>
0.242145

>  <SCORE.RESTR.CAVITY>
0.242145

>  <SCORE.RESTR.norm>
0.0220132

>  <SCORE.SYSTEM>
-20.6041

>  <SCORE.SYSTEM.CONST>
0

>  <SCORE.SYSTEM.DIHEDRAL>
7.55327

>  <SCORE.SYSTEM.POLAR>
-3.86934

>  <SCORE.SYSTEM.SOLV>
0.208082

>  <SCORE.SYSTEM.VDW>
-3.42537

>  <SCORE.SYSTEM.norm>
-1.8731

>  <SCORE.heavy>
11

>  <SCORE.norm>
-3.58238

$$$$
P92298492
 OpenBabel12072022103D
libRbt.so/2013.1/901 2013/11/27
 14 15  0  0  0  0  0  0  0  0999 V2000
   19.3956  -19.5979    6.5305 C   0  0  0  0  0  0  0  0  0  0  0  0
   18.2475  -19.4365    5.5396 C   0  0  0  0  0  0  0  0  0  0  0  0
   18.5796  -18.1775    4.7238 C   0  0  1  0  0  0  0  0  0  0  0  0
   19.6969  -17.4363    5.5214 C   0  0  1  0  0  0  0  0  0  0  0  0
   19.7867  -18.1648    6.8591 C   0  0  0  0  0  0  0  0  0  0  0  0
   21.0333  -17.4845    4.8501 N   0  3  0  0  0  0  0  0  0  0  0  0
   21.2440  -18.4448    4.4973 H   0  0  0  0  0  0  0  0  0  0  0  0
   20.9464  -17.0284    3.9093 H   0  0  0  0  0  0  0  0  0  0  0  0
   21.8411  -17.0947    5.3329 H   0  0  0  0  0  0  0  0  0  0  0  0
   19.0610  -18.4366    3.3407 C   0  0  0  0  0  0  0  0  0  0  0  0
   18.5253  -19.4911    2.6827 N   0  0  0  0  0  0  0  0  0  0  0  0
   18.3180  -19.0370    1.4275 N   0  5  0  0  0  0  0  0  0  0  0  0
   18.7898  -17.7786    1.3215 N   0  0  0  0  0  0  0  0  0  0  0  0
   19.2941  -17.3880    2.5123 N   0  0  0  0  0  0  0  0  0  0  0  0
  1  2  1  0  0  0  0
  1  5  1  0  0  0  0
  2  3  1  0  0  0  0
  3 10  1  6  0  0  0
  3  4  1  0  0  0  0
  4  5  1  0  0  0  0
  4  6  1  6  0  0  0
  6  7  1  0  0  0  0
  6  8  1  0  0  0  0
  6  9  1  0  0  0  0
 10 11  2  0  0  0  0
 10 14  1  0  0  0  0
 11 12  1  0  0  0  0
 12 13  1  0  0  0  0
 13 14  2  0  0  0  0
M  CHG  2   6   1  12  -1
M  END
>  <CHROM.0>
-52.20109806,-60.91512048,-58.47257466,-54.65457450,-55.41509562,-59.69417745
-59.46047761,-50.84836670,-168.04535306,160.48712978

>  <CHROM.1>
35.06037388,-44.80958275,19.20172703,-18.39275909,4.12615543,1.25284466,0.83065292
1.83016309

>  <Name>
P92298492

>  <RI>
0

>  <Rbt.Current_Directory>
/home/fstefaniak/projects/zuza/docking/adenine/1Y26

>  <Rbt.Executable>
rbdock ($Id: //depot/dev/client3/rdock/2013.1/src/exe/rbdock.cxx#4 $)

>  <Rbt.Library>
libRbt.so (2013.1, Build901 2013/11/27)

>  <Rbt.Parameter_File>
/home/fstefaniak/progs/rDock//data/scripts/dock_solv.prm

>  <Rbt.Receptor>
1y26.prm

>  <SCORE>
-52.1264

>  <SCORE.INTER>
-26.4442

>  <SCORE.INTER.CONST>
1

>  <SCORE.INTER.POLAR>
-3.51392

>  <SCORE.INTER.ROT>
1

>  <SCORE.INTER.SOLV>
17.2042

>  <SCORE.INTER.VDW>
-15.9178

>  <SCORE.INTER.norm>
-2.40402

>  <SCORE.INTRA>
-3.41327

>  <SCORE.INTRA.DIHEDRAL>
0.215161

>  <SCORE.INTRA.DIHEDRAL.0>
0.390423

>  <SCORE.INTRA.POLAR>
-0.515128

>  <SCORE.INTRA.POLAR.0>
-0.0498415

>  <SCORE.INTRA.REPUL>
0

>  <SCORE.INTRA.REPUL.0>
0

>  <SCORE.INTRA.SOLV>
-3.70671

>  <SCORE.INTRA.SOLV.lig_0>
-23.693

>  <SCORE.INTRA.VDW>
0.083935

>  <SCORE.INTRA.VDW.0>
-0.602652

>  <SCORE.INTRA.norm>
-0.310298

>  <SCORE.RESTR>
0

>  <SCORE.RESTR.CAVITY>
0

>  <SCORE.RESTR.norm>
0

>  <SCORE.SYSTEM>
-22.2689

>  <SCORE.SYSTEM.CONST>
0

>  <SCORE.SYSTEM.DIHEDRAL>
5.22451

>  <SCORE.SYSTEM.POLAR>
-3.38772

>  <SCORE.SYSTEM.SOLV>
0.654537

>  <SCORE.SYSTEM.VDW>
-5.5132

>  <SCORE.SYSTEM.norm>
-2.02444

>  <SCORE.heavy>
11

>  <SCORE.norm>
-4.73876

$$$$
P92298492
 OpenBabel12072022103D
libRbt.so/2013.1/901 2013/11/27
 14 15  0  0  0  0  0  0  0  0999 V2000
   19.9203  -17.7803    6.9004 C   0  0  0  0  0  0  0  0  0  0  0  0
   20.5265  -17.7364    5.5016 C   0  0  0  0  0  0  0  0  0  0  0  0
   19.7246  -18.7509    4.6716 C   0  0  1  0  0  0  0  0  0  0  0  0
   18.9473  -19.6250    5.7038 C   0  0  1  0  0  0  0  0  0  0  0  0
   19.5131  -19.2368    7.0666 C   0  0  0  0  0  0  0  0  0  0  0  0
   17.4723  -19.3732    5.6994 N   0  3  0  0  0  0  0  0  0  0  0  0
   16.9901  -19.9425    6.4305 H   0  0  0  0  0  0  0  0  0  0  0  0
   17.2961  -18.4381    6.1413 H   0  0  0  0  0  0  0  0  0  0  0  0
   16.9672  -19.4217    4.8162 H   0  0  0  0  0  0  0  0  0  0  0  0
   18.7558  -18.1514    3.7158 C   0  0  0  0  0  0  0  0  0  0  0  0
   19.2622  -17.4838    2.6529 N   0  0  0  0  0  0  0  0  0  0  0  0
   18.4856  -17.8618    1.6143 N   0  5  0  0  0  0  0  0  0  0  0  0
   17.4993  -18.6653    2.0602 N   0  0  0  0  0  0  0  0  0  0  0  0
   17.6310  -18.8378    3.3936 N   0  0  0  0  0  0  0  0  0  0  0  0
  1  2  1  0  0  0  0
  1  5  1  0  0  0  0
  2  3  1  0  0  0  0
  3 10  1  6  0  0  0
  3  4  1  0  0  0  0
  4  5  1  0  0  0  0
  4  6  1  1  0  0  0
  6  7  1  0  0  0  0
  6  8  1  0  0  0  0
  6  9  1  0  0  0  0
 10 11  2  0  0  0  0
 10 14  1  0  0  0  0
 11 12  1  0  0  0  0
 12 13  1  0  0  0  0
 13 14  2  0  0  0  0
M  CHG  2   6   1  12  -1
M  END
>  <CHROM.0>
-49.39272333,-57.40394357,-56.52484252,-52.55004192,-54.59903462,-176.76168837
-56.29057856,-178.12517401,-165.34101721,160.39897454

>  <CHROM.1>
68.87364073,-177.42992525,18.84602692,-18.51097231,4.48018631,-1.21908760
-0.56241731,-1.25903976

>  <Name>
P92298492

>  <RI>
0

>  <Rbt.Current_Directory>
/home/fstefaniak/projects/zuza/docking/adenine/1Y26

>  <Rbt.Executable>
rbdock ($Id: //depot/dev/client3/rdock/2013.1/src/exe/rbdock.cxx#4 $)

>  <Rbt.Library>
libRbt.so (2013.1, Build901 2013/11/27)

>  <Rbt.Parameter_File>
/home/fstefaniak/progs/rDock//data/scripts/dock_solv.prm

>  <Rbt.Receptor>
1y26.prm

>  <SCORE>
-51.6316

>  <SCORE.INTER>
-28.1562

>  <SCORE.INTER.CONST>
1

>  <SCORE.INTER.POLAR>
-5.04754

>  <SCORE.INTER.ROT>
1

>  <SCORE.INTER.SOLV>
19.3298

>  <SCORE.INTER.VDW>
-12.6556

>  <SCORE.INTER.norm>
-2.55966

>  <SCORE.INTRA>
-1.13177

>  <SCORE.INTRA.DIHEDRAL>
0.38486

>  <SCORE.INTRA.DIHEDRAL.0>
0.390423

>  <SCORE.INTRA.POLAR>
-0.417154

>  <SCORE.INTRA.POLAR.0>
-0.0498415

>  <SCORE.INTRA.REPUL>
0

>  <SCORE.INTRA.REPUL.0>
0

>  <SCORE.INTRA.SOLV>
-3.19013

>  <SCORE.INTRA.SOLV.lig_0>
-23.693

>  <SCORE.INTRA.VDW>
1.68919

>  <SCORE.INTRA.VDW.0>
-0.602652

>  <SCORE.INTRA.norm>
-0.102888

>  <SCORE.RESTR>
0

>  <SCORE.RESTR.CAVITY>
0

>  <SCORE.RESTR.norm>
0

>  <SCORE.SYSTEM>
-22.3436

>  <SCORE.SYSTEM.CONST>
0

>  <SCORE.SYSTEM.DIHEDRAL>
5.7649

>  <SCORE.SYSTEM.POLAR>
-3.46662

>  <SCORE.SYSTEM.SOLV>
0.322047

>  <SCORE.SYSTEM.VDW>
-5.36931

>  <SCORE.SYSTEM.norm>
-2.03124

>  <SCORE.heavy>
11

>  <SCORE.norm>
-4.69378

$$$$
P92298492
 OpenBabel12072022103D
libRbt.so/2013.1/901 2013/11/27
 14 15  0  0  0  0  0  0  0  0999 V2000
   19.9100  -17.7995    6.9050 C   0  0  0  0  0  0  0  0  0  0  0  0
   20.5199  -17.7460    5.5081 C   0  0  0  0  0  0  0  0  0  0  0  0
   19.7227  -18.7574    4.6700 C   0  0  1  0  0  0  0  0  0  0  0  0
   18.9444  -19.6393    5.6948 C   0  0  1  0  0  0  0  0  0  0  0  0
   19.5057  -19.2579    7.0615 C   0  0  0  0  0  0  0  0  0  0  0  0
   17.4689  -19.3908    5.6879 N   0  3  0  0  0  0  0  0  0  0  0  0
   16.9888  -19.9483    6.4293 H   0  0  0  0  0  0  0  0  0  0  0  0
   17.2913  -18.4485    6.1137 H   0  0  0  0  0  0  0  0  0  0  0  0
   16.9628  -19.4556    4.8063 H   0  0  0  0  0  0  0  0  0  0  0  0
   18.7551  -18.1545    3.7151 C   0  0  0  0  0  0  0  0  0  0  0  0
   19.2629  -17.4902    2.6507 N   0  0  0  0  0  0  0  0  0  0  0  0
   18.4830  -17.8657    1.6137 N   0  5  0  0  0  0  0  0  0  0  0  0
   17.4937  -18.6643    2.0619 N   0  0  0  0  0  0  0  0  0  0  0  0
   17.6267  -18.8360    3.3953 N   0  0  0  0  0  0  0  0  0  0  0  0
  1  2  1  0  0  0  0
  1  5  1  0  0  0  0
  2  3  1  0  0  0  0
  3 10  1  6  0  0  0
  3  4  1  0  0  0  0
  4  5  1  0  0  0  0
  4  6  1  1  0  0  0
  6  7  1  0  0  0  0
  6  8  1  0  0  0  0
  6  9  1  0  0  0  0
 10 11  2  0  0  0  0
 10 14  1  0  0  0  0
 11 12  1  0  0  0  0
 12 13  1  0  0  0  0
 13 14  2  0  0  0  0
M  CHG  2   6   1  12  -1
M  END
>  <CHROM.0>
-49.20984124,-60.47390535,-55.76038892,-52.06584409,-57.15498528,-54.78681918
-59.23591378,-53.91120364,-167.60091094,160.06421814

>  <CHROM.1>
69.47821707,-176.08045351,18.84188294,-18.52015986,4.47853494,-1.21981211
-0.56264925,-1.25584684

>  <Name>
P92298492

>  <RI>
0

>  <Rbt.Current_Directory>
/home/fstefaniak/projects/zuza/docking/adenine/1Y26

>  <Rbt.Executable>
rbdock ($Id: //depot/dev/client3/rdock/2013.1/src/exe/rbdock.cxx#4 $)

>  <Rbt.Library>
libRbt.so (2013.1, Build901 2013/11/27)

>  <Rbt.Parameter_File>
/home/fstefaniak/progs/rDock//data/scripts/dock_solv.prm

>  <Rbt.Receptor>
1y26.prm

>  <SCORE>
-51.5027

>  <SCORE.INTER>
-28.2903

>  <SCORE.INTER.CONST>
1

>  <SCORE.INTER.POLAR>
-4.96938

>  <SCORE.INTER.ROT>
1

>  <SCORE.INTER.SOLV>
19.3717

>  <SCORE.INTER.VDW>
-13.0195

>  <SCORE.INTER.norm>
-2.57185

>  <SCORE.INTRA>
-1.01398

>  <SCORE.INTRA.DIHEDRAL>
0.377165

>  <SCORE.INTRA.DIHEDRAL.0>
0.390423

>  <SCORE.INTRA.POLAR>
-0.398797

>  <SCORE.INTRA.POLAR.0>
-0.0498415

>  <SCORE.INTRA.REPUL>
0

>  <SCORE.INTRA.REPUL.0>
0

>  <SCORE.INTRA.SOLV>
-3.17725

>  <SCORE.INTRA.SOLV.lig_0>
-23.693

>  <SCORE.INTRA.VDW>
1.74197

>  <SCORE.INTRA.VDW.0>
-0.602652

>  <SCORE.INTRA.norm>
-0.09218

>  <SCORE.RESTR>
0

>  <SCORE.RESTR.CAVITY>
0

>  <SCORE.RESTR.norm>
0

>  <SCORE.SYSTEM>
-22.1984

>  <SCORE.SYSTEM.CONST>
0

>  <SCORE.SYSTEM.DIHEDRAL>
5.67398

>  <SCORE.SYSTEM.POLAR>
-3.50457

>  <SCORE.SYSTEM.SOLV>
0.67203

>  <SCORE.SYSTEM.VDW>
-5.23237

>  <SCORE.SYSTEM.norm>
-2.01804

>  <SCORE.heavy>
11

>  <SCORE.norm>
-4.68206

$$$$
P92298493
 OpenBabel12072022103D
libRbt.so/2013.1/901 2013/11/27
 14 15  0  0  0  0  0  0  0  0999 V2000
   23.1071  -12.9386    4.3656 C   0  0  0  0  0  0  0  0  0  0  0  0
   21.8231  -13.7322    4.0639 C   0  0  0  0  0  0  0  0  0  0  0  0
   22.1092  -15.1295    4.5968 C   0  0  2  0  0  0  0  0  0  0  0  0
   23.5943  -15.2771    4.2755 C   0  0  1  0  0  0  0  0  0  0  0  0
   24.1718  -13.9678    4.7752 C   0  0  0  0  0  0  0  0  0  0  0  0
   24.1834  -16.4648    4.9339 N   0  3  0  0  0  0  0  0  0  0  0  0
   23.6850  -17.3414    4.7521 H   0  0  0  0  0  0  0  0  0  0  0  0
   25.1200  -16.5855    4.4703 H   0  0  0  0  0  0  0  0  0  0  0  0
   24.3701  -16.3431    5.9317 H   0  0  0  0  0  0  0  0  0  0  0  0
   21.3371  -16.2375    4.0152 C   0  0  0  0  0  0  0  0  0  0  0  0
   20.8450  -17.2139    4.8165 N   0  0  0  0  0  0  0  0  0  0  0  0
   19.9393  -17.8368    4.0420 N   0  5  0  0  0  0  0  0  0  0  0  0
   19.8976  -17.2339    2.8314 N   0  0  0  0  0  0  0  0  0  0  0  0
   20.7709  -16.1987    2.8046 N   0  0  0  0  0  0  0  0  0  0  0  0
  1  2  1  0  0  0  0
  1  5  1  0  0  0  0
  2  3  1  0  0  0  0
  3 10  1  6  0  0  0
  3  4  1  0  0  0  0
  4  5  1  0  0  0  0
  4  6  1  1  0  0  0
  6  7  1  0  0  0  0
  6  8  1  0  0  0  0
  6  9  1  0  0  0  0
 10 11  2  0  0  0  0
 10 14  1  0  0  0  0
 11 12  1  0  0  0  0
 12 13  1  0  0  0  0
 13 14  2  0  0  0  0
M  CHG  2   6   1  12  -1
M  END
>  <CHROM.0>
-47.85387084,166.44784971,-55.06019837,-53.28449342,-56.36366268,-57.80833979
-58.53233146,-50.36157624,-166.00188490,160.86543807

>  <CHROM.1>
-137.90749448,53.16808516,22.02504200,-15.67651327,4.15412080,0.67694224
-0.40795749,-0.15883160

>  <Name>
P92298493

>  <RI>
0

>  <Rbt.Current_Directory>
/home/fstefaniak/projects/zuza/docking/adenine/1Y26

>  <Rbt.Executable>
rbdock ($Id: //depot/dev/client3/rdock/2013.1/src/exe/rbdock.cxx#4 $)

>  <Rbt.Library>
libRbt.so (2013.1, Build901 2013/11/27)

>  <Rbt.Parameter_File>
/home/fstefaniak/progs/rDock//data/scripts/dock_solv.prm

>  <Rbt.Receptor>
1y26.prm

>  <SCORE>
-51.1621

>  <SCORE.INTER>
-31.313

>  <SCORE.INTER.CONST>
1

>  <SCORE.INTER.POLAR>
-4.48517

>  <SCORE.INTER.ROT>
1

>  <SCORE.INTER.SOLV>
15.3645

>  <SCORE.INTER.VDW>
-15.3129

>  <SCORE.INTER.norm>
-2.84664

>  <SCORE.INTRA>
1.83752

>  <SCORE.INTRA.DIHEDRAL>
0.923341

>  <SCORE.INTRA.DIHEDRAL.0>
1.02163

>  <SCORE.INTRA.POLAR>
0.763587

>  <SCORE.INTRA.POLAR.0>
-0.763587

>  <SCORE.INTRA.REPUL>
0

>  <SCORE.INTRA.REPUL.0>
0

>  <SCORE.INTRA.SOLV>
-1.5051

>  <SCORE.INTRA.SOLV.lig_0>
-28.5849

>  <SCORE.INTRA.VDW>
-0.467793

>  <SCORE.INTRA.VDW.0>
-0.477911

>  <SCORE.INTRA.norm>
0.167047

>  <SCORE.RESTR>
0

>  <SCORE.RESTR.CAVITY>
0

>  <SCORE.RESTR.norm>
0

>  <SCORE.SYSTEM>
-21.6866

>  <SCORE.SYSTEM.CONST>
0

>  <SCORE.SYSTEM.DIHEDRAL>
6.85041

>  <SCORE.SYSTEM.POLAR>
-3.51249

>  <SCORE.SYSTEM.SOLV>
0.636161

>  <SCORE.SYSTEM.VDW>
-5.24496

>  <SCORE.SYSTEM.norm>
-1.97151

>  <SCORE.heavy>
11

>  <SCORE.norm>
-4.6511

$$$$
P92298493
 OpenBabel12072022103D
libRbt.so/2013.1/901 2013/11/27
 14 15  0  0  0  0  0  0  0  0999 V2000
   18.7982  -19.0517    6.8365 C   0  0  0  0  0  0  0  0  0  0  0  0
   18.2797  -19.3551    5.4192 C   0  0  0  0  0  0  0  0  0  0  0  0
   19.3761  -18.8386    4.4978 C   0  0  2  0  0  0  0  0  0  0  0  0
   19.8478  -17.5993    5.2545 C   0  0  1  0  0  0  0  0  0  0  0  0
   20.0066  -18.1176    6.6700 C   0  0  0  0  0  0  0  0  0  0  0  0
   21.1017  -17.0538    4.6877 N   0  3  0  0  0  0  0  0  0  0  0  0
   20.9653  -16.3437    3.9616 H   0  0  0  0  0  0  0  0  0  0  0  0
   21.5504  -16.5390    5.4879 H   0  0  0  0  0  0  0  0  0  0  0  0
   21.7733  -17.7652    4.3908 H   0  0  0  0  0  0  0  0  0  0  0  0
   18.9858  -18.4930    3.1229 C   0  0  0  0  0  0  0  0  0  0  0  0
   18.3423  -19.4038    2.3523 N   0  0  0  0  0  0  0  0  0  0  0  0
   17.8472  -18.6722    1.3385 N   0  5  0  0  0  0  0  0  0  0  0  0
   18.1825  -17.3740    1.5201 N   0  0  0  0  0  0  0  0  0  0  0  0
   18.8938  -17.2400    2.6652 N   0  0  0  0  0  0  0  0  0  0  0  0
  1  2  1  0  0  0  0
  1  5  1  0  0  0  0
  2  3  1  0  0  0  0
  3 10  1  6  0  0  0
  3  4  1  0  0  0  0
  4  5  1  0  0  0  0
  4  6  1  6  0  0  0
  6  7  1  0  0  0  0
  6  8  1  0  0  0  0
  6  9  1  0  0  0  0
 10 11  2  0  0  0  0
 10 14  1  0  0  0  0
 11 12  1  0  0  0  0
 12 13  1  0  0  0  0
 13 14  2  0  0  0  0
M  CHG  2   6   1  12  -1
M  END
>  <CHROM.0>
-47.50601744,-60.54951488,-55.42890123,-52.01233518,-172.67911833,-61.23044766
-58.16881905,-49.90159903,-167.12223131,160.28805095

>  <CHROM.1>
-54.06453488,91.12055399,19.10074738,-18.26153143,4.04647518,1.11988699,0.76675035
1.91389219

>  <Name>
P92298493

>  <RI>
0

>  <Rbt.Current_Directory>
/home/fstefaniak/projects/zuza/docking/adenine/1Y26

>  <Rbt.Executable>
rbdock ($Id: //depot/dev/client3/rdock/2013.1/src/exe/rbdock.cxx#4 $)

>  <Rbt.Library>
libRbt.so (2013.1, Build901 2013/11/27)

>  <Rbt.Parameter_File>
/home/fstefaniak/progs/rDock//data/scripts/dock_solv.prm

>  <Rbt.Receptor>
1y26.prm

>  <SCORE>
-50.2906

>  <SCORE.INTER>
-30.846

>  <SCORE.INTER.CONST>
1

>  <SCORE.INTER.POLAR>
-3.54779

>  <SCORE.INTER.ROT>
1

>  <SCORE.INTER.SOLV>
17.2591

>  <SCORE.INTER.VDW>
-18.7578

>  <SCORE.INTER.norm>
-2.80418

>  <SCORE.INTRA>
2.74373

>  <SCORE.INTRA.DIHEDRAL>
1.34111

>  <SCORE.INTRA.DIHEDRAL.0>
1.02163

>  <SCORE.INTRA.POLAR>
0.763587

>  <SCORE.INTRA.POLAR.0>
-0.763587

>  <SCORE.INTRA.REPUL>
0

>  <SCORE.INTRA.REPUL.0>
0

>  <SCORE.INTRA.SOLV>
-1.21458

>  <SCORE.INTRA.SOLV.lig_0>
-28.5849

>  <SCORE.INTRA.VDW>
0.0842658

>  <SCORE.INTRA.VDW.0>
-0.477911

>  <SCORE.INTRA.norm>
0.24943

>  <SCORE.RESTR>
0

>  <SCORE.RESTR.CAVITY>
0

>  <SCORE.RESTR.norm>
0

>  <SCORE.SYSTEM>
-22.1883

>  <SCORE.SYSTEM.CONST>
0

>  <SCORE.SYSTEM.DIHEDRAL>
6.28092

>  <SCORE.SYSTEM.POLAR>
-3.54013

>  <SCORE.SYSTEM.SOLV>
0.503761

>  <SCORE.SYSTEM.VDW>
-5.25334

>  <SCORE.SYSTEM.norm>
-2.01712

>  <SCORE.heavy>
11

>  <SCORE.norm>
-4.57187

$$$$
P92298493
 OpenBabel12072022103D
libRbt.so/2013.1/901 2013/11/27
 14 15  0  0  0  0  0  0  0  0999 V2000
   18.8590  -19.0644    6.8347 C   0  0  0  0  0  0  0  0  0  0  0  0
   18.3497  -19.3804    5.4168 C   0  0  0  0  0  0  0  0  0  0  0  0
   19.4256  -18.8211    4.4961 C   0  0  2  0  0  0  0  0  0  0  0  0
   19.8536  -17.5689    5.2574 C   0  0  1  0  0  0  0  0  0  0  0  0
   20.0329  -18.0869    6.6705 C   0  0  0  0  0  0  0  0  0  0  0  0
   21.0864  -16.9764    4.6913 N   0  3  0  0  0  0  0  0  0  0  0  0
   20.9235  -16.2306    4.0079 H   0  0  0  0  0  0  0  0  0  0  0  0
   21.5479  -16.4989    5.5072 H   0  0  0  0  0  0  0  0  0  0  0  0
   21.7596  -17.6615    4.3408 H   0  0  0  0  0  0  0  0  0  0  0  0
   19.0213  -18.4841    3.1231 C   0  0  0  0  0  0  0  0  0  0  0  0
   18.3717  -19.4004    2.3642 N   0  0  0  0  0  0  0  0  0  0  0  0
   17.8656  -18.6754    1.3511 N   0  5  0  0  0  0  0  0  0  0  0  0
   18.2006  -17.3756    1.5218 N   0  0  0  0  0  0  0  0  0  0  0  0
   18.9229  -17.2340    2.6591 N   0  0  0  0  0  0  0  0  0  0  0  0
  1  2  1  0  0  0  0
  1  5  1  0  0  0  0
  2  3  1  0  0  0  0
  3 10  1  6  0  0  0
  3  4  1  0  0  0  0
  4  5  1  0  0  0  0
  4  6  1  6  0  0  0
  6  7  1  0  0  0  0
  6  8  1  0  0  0  0
  6  9  1  0  0  0  0
 10 11  2  0  0  0  0
 10 14  1  0  0  0  0
 11 12  1  0  0  0  0
 12 13  1  0  0  0  0
 13 14  2  0  0  0  0
M  CHG  2   6   1  12  -1
M  END
>  <CHROM.0>
-47.50277994,-59.47190117,-50.77026554,-52.87887298,-57.09095694,-57.22598942
-54.99034361,-51.46643832,-166.86007163,160.37567784

>  <CHROM.1>
-51.96149935,94.49735166,19.12953620,-18.24824420,4.04852510,1.10349716,0.79442037
1.93144088

>  <Name>
P92298493

>  <RI>
0

>  <Rbt.Current_Directory>
/home/fstefaniak/projects/zuza/docking/adenine/1Y26

>  <Rbt.Executable>
rbdock ($Id: //depot/dev/client3/rdock/2013.1/src/exe/rbdock.cxx#4 $)

>  <Rbt.Library>
libRbt.so (2013.1, Build901 2013/11/27)

>  <Rbt.Parameter_File>
/home/fstefaniak/progs/rDock//data/scripts/dock_solv.prm

>  <Rbt.Receptor>
1y26.prm

>  <SCORE>
-50.0452

>  <SCORE.INTER>
-30.8892

>  <SCORE.INTER.CONST>
1

>  <SCORE.INTER.POLAR>
-3.57534

>  <SCORE.INTER.ROT>
1

>  <SCORE.INTER.SOLV>
17.1206

>  <SCORE.INTER.VDW>
-18.6485

>  <SCORE.INTER.norm>
-2.8081

>  <SCORE.INTRA>
3.03027

>  <SCORE.INTRA.DIHEDRAL>
1.6946

>  <SCORE.INTRA.DIHEDRAL.0>
1.02163

>  <SCORE.INTRA.POLAR>
0.763587

>  <SCORE.INTRA.POLAR.0>
-0.763587

>  <SCORE.INTRA.REPUL>
0

>  <SCORE.INTRA.REPUL.0>
0

>  <SCORE.INTRA.SOLV>
-1.18889

>  <SCORE.INTRA.SOLV.lig_0>
-28.5849

>  <SCORE.INTRA.VDW>
0.181224

>  <SCORE.INTRA.VDW.0>
-0.477911

>  <SCORE.INTRA.norm>
0.275479

>  <SCORE.RESTR>
0

>  <SCORE.RESTR.CAVITY>
0

>  <SCORE.RESTR.norm>
0

>  <SCORE.SYSTEM>
-22.1864

>  <SCORE.SYSTEM.CONST>
0

>  <SCORE.SYSTEM.DIHEDRAL>
6.33691

>  <SCORE.SYSTEM.POLAR>
-3.57251

>  <SCORE.SYSTEM.SOLV>
0.688114

>  <SCORE.SYSTEM.VDW>
-5.22421

>  <SCORE.SYSTEM.norm>
-2.01694

>  <SCORE.heavy>
11

>  <SCORE.norm>
-4.54957

$$$$
P93947832
 OpenBabel12072022103D
libRbt.so/2013.1/901 2013/11/27
 16 16  0  0  0  0  0  0  0  0999 V2000
   18.2307  -18.3782    1.6327 C   0  0  0  0  0  0  0  0  0  0  0  0
   18.7749  -18.6109    3.0437 C   0  0  1  0  0  0  0  0  0  0  0  0
   19.8100  -17.5747    3.4173 C   0  0  0  0  0  0  0  0  0  0  0  0
   19.5435  -16.1796    3.6486 C   0  0  0  0  0  0  0  0  0  0  0  0
   20.6756  -15.4652    3.9706 C   0  0  0  0  0  0  0  0  0  0  0  0
   22.0667  -16.4545    4.0054 S   0  0  0  0  0  0  0  0  0  0  0  0
   21.1581  -17.8409    3.5853 C   0  0  0  0  0  0  0  0  0  0  0  0
   17.7318  -18.5614    4.0545 N   0  0  0  0  0  0  0  0  0  0  0  0
   18.0160  -18.8624    5.3629 C   0  0  0  0  0  0  0  0  0  0  0  0
   19.0809  -18.6258    5.9208 O   0  0  0  0  0  0  0  0  0  0  0  0
   16.9407  -19.4793    5.9893 N   0  0  0  0  0  0  0  0  0  0  0  0
   16.0388  -18.6795    6.7350 N   0  0  0  0  0  0  0  0  0  0  0  0
   17.0414  -17.8321    3.9423 H   0  0  0  0  0  0  0  0  0  0  0  0
   17.0871  -20.4335    6.3074 H   0  0  0  0  0  0  0  0  0  0  0  0
   16.5992  -17.9534    7.1936 H   0  0  0  0  0  0  0  0  0  0  0  0
   15.7186  -19.2525    7.5269 H   0  0  0  0  0  0  0  0  0  0  0  0
  2  1  1  6  0  0  0
  2  3  1  0  0  0  0
  2  8  1  0  0  0  0
  3  4  1  0  0  0  0
  3  7  2  0  0  0  0
  4  5  2  0  0  0  0
  5  6  1  0  0  0  0
  6  7  1  0  0  0  0
  8  9  1  0  0  0  0
  8 13  1  0  0  0  0
  9 10  2  0  0  0  0
  9 11  1  0  0  0  0
 11 12  1  0  0  0  0
 11 14  1  0  0  0  0
 12 15  1  0  0  0  0
 12 16  1  0  0  0  0
M  END
>  <CHROM.0>
62.50112380,-174.72559436,-53.95655532,-49.45453702,-172.44246416,-65.53384370
-54.97907450,-50.51272014,-166.94217060,161.30829455

>  <CHROM.1>
68.59197317,174.34912025,33.39772554,-94.92530955,-36.77018105,19.22833644
-17.79585187,4.31233730,2.76590321,0.52927453,1.53587073

>  <Name>
P93947832

>  <RI>
0

>  <Rbt.Current_Directory>
/home/fstefaniak/projects/zuza/docking/adenine/1Y26

>  <Rbt.Executable>
rbdock ($Id: //depot/dev/client3/rdock/2013.1/src/exe/rbdock.cxx#4 $)

>  <Rbt.Library>
libRbt.so (2013.1, Build901 2013/11/27)

>  <Rbt.Parameter_File>
/home/fstefaniak/progs/rDock//data/scripts/dock_solv.prm

>  <Rbt.Receptor>
1y26.prm

>  <SCORE>
-63.3848

>  <SCORE.INTER>
-41.4405

>  <SCORE.INTER.CONST>
1

>  <SCORE.INTER.POLAR>
-5.71812

>  <SCORE.INTER.ROT>
5

>  <SCORE.INTER.SOLV>
16.6166

>  <SCORE.INTER.VDW>
-21.0388

>  <SCORE.INTER.norm>
-3.45337

>  <SCORE.INTRA>
-0.706037

>  <SCORE.INTRA.DIHEDRAL>
-0.25065

>  <SCORE.INTRA.DIHEDRAL.0>
3.70088

>  <SCORE.INTRA.POLAR>
0

>  <SCORE.INTRA.POLAR.0>
0

>  <SCORE.INTRA.REPUL>
0

>  <SCORE.INTRA.REPUL.0>
0

>  <SCORE.INTRA.SOLV>
0.463463

>  <SCORE.INTRA.SOLV.lig_0>
-18.5501

>  <SCORE.INTRA.VDW>
-0.812444

>  <SCORE.INTRA.VDW.0>
-0.445886

>  <SCORE.INTRA.norm>
-0.0588364

>  <SCORE.RESTR>
0

>  <SCORE.RESTR.CAVITY>
0

>  <SCORE.RESTR.norm>
0

>  <SCORE.SYSTEM>
-21.2382

>  <SCORE.SYSTEM.CONST>
0

>  <SCORE.SYSTEM.DIHEDRAL>
6.05699

>  <SCORE.SYSTEM.POLAR>
-3.31427

>  <SCORE.SYSTEM.SOLV>
0.419077

>  <SCORE.SYSTEM.VDW>
-5.26994

>  <SCORE.SYSTEM.norm>
-1.76985

>  <SCORE.heavy>
12

>  <SCORE.norm>
-5.28206

$$$$
P93947832
 OpenBabel12072022103D
libRbt.so/2013.1/901 2013/11/27
 16 16  0  0  0  0  0  0  0  0999 V2000
   18.2451  -18.4172    1.6507 C   0  0  0  0  0  0  0  0  0  0  0  0
   18.7935  -18.6342    3.0625 C   0  0  1  0  0  0  0  0  0  0  0  0
   19.8242  -17.5894    3.4243 C   0  0  0  0  0  0  0  0  0  0  0  0
   19.5423  -16.2070    3.7074 C   0  0  0  0  0  0  0  0  0  0  0  0
   20.6735  -15.4805    4.0042 C   0  0  0  0  0  0  0  0  0  0  0  0
   22.0825  -16.4434    3.9534 S   0  0  0  0  0  0  0  0  0  0  0  0
   21.1826  -17.8344    3.5297 C   0  0  0  0  0  0  0  0  0  0  0  0
   17.7522  -18.5805    4.0751 N   0  0  0  0  0  0  0  0  0  0  0  0
   18.0369  -18.8852    5.3826 C   0  0  0  0  0  0  0  0  0  0  0  0
   19.1078  -18.6655    5.9360 O   0  0  0  0  0  0  0  0  0  0  0  0
   16.9544  -19.4842    6.0138 N   0  0  0  0  0  0  0  0  0  0  0  0
   16.0344  -18.6619    6.7113 N   0  0  0  0  0  0  0  0  0  0  0  0
   17.0658  -17.8473    3.9652 H   0  0  0  0  0  0  0  0  0  0  0  0
   17.1009  -20.4241    6.3719 H   0  0  0  0  0  0  0  0  0  0  0  0
   16.5885  -17.9576    7.2100 H   0  0  0  0  0  0  0  0  0  0  0  0
   15.6488  -19.2305    7.4767 H   0  0  0  0  0  0  0  0  0  0  0  0
  2  1  1  6  0  0  0
  2  3  1  0  0  0  0
  2  8  1  0  0  0  0
  3  4  1  0  0  0  0
  3  7  2  0  0  0  0
  4  5  2  0  0  0  0
  5  6  1  0  0  0  0
  6  7  1  0  0  0  0
  8  9  1  0  0  0  0
  8 13  1  0  0  0  0
  9 10  2  0  0  0  0
  9 11  1  0  0  0  0
 11 12  1  0  0  0  0
 11 14  1  0  0  0  0
 12 15  1  0  0  0  0
 12 16  1  0  0  0  0
M  END
>  <CHROM.0>
58.39835584,56.45805696,-53.98136300,-50.81960786,-53.94756663,-57.96983420
-56.15758898,-175.79901876,-166.72132452,161.54032285

>  <CHROM.1>
71.80858840,173.48539695,32.75654421,-92.06429826,-41.07202067,19.24164647
-17.80757406,4.31362434,2.77306530,0.53582954,1.51308686

>  <Name>
P93947832

>  <RI>
0

>  <Rbt.Current_Directory>
/home/fstefaniak/projects/zuza/docking/adenine/1Y26

>  <Rbt.Executable>
rbdock ($Id: //depot/dev/client3/rdock/2013.1/src/exe/rbdock.cxx#4 $)

>  <Rbt.Library>
libRbt.so (2013.1, Build901 2013/11/27)

>  <Rbt.Parameter_File>
/home/fstefaniak/progs/rDock//data/scripts/dock_solv.prm

>  <Rbt.Receptor>
1y26.prm

>  <SCORE>
-62.7404

>  <SCORE.INTER>
-40.9292

>  <SCORE.INTER.CONST>
1

>  <SCORE.INTER.POLAR>
-5.70441

>  <SCORE.INTER.ROT>
5

>  <SCORE.INTER.SOLV>
16.5526

>  <SCORE.INTER.VDW>
-20.7223

>  <SCORE.INTER.norm>
-3.41076

>  <SCORE.INTRA>
-0.836754

>  <SCORE.INTRA.DIHEDRAL>
-0.371872

>  <SCORE.INTRA.DIHEDRAL.0>
3.70088

>  <SCORE.INTRA.POLAR>
0

>  <SCORE.INTRA.POLAR.0>
0

>  <SCORE.INTRA.REPUL>
0

>  <SCORE.INTRA.REPUL.0>
0

>  <SCORE.INTRA.SOLV>
0.458104

>  <SCORE.INTRA.SOLV.lig_0>
-18.5501

>  <SCORE.INTRA.VDW>
-0.87987

>  <SCORE.INTRA.VDW.0>
-0.445886

>  <SCORE.INTRA.norm>
-0.0697295

>  <SCORE.RESTR>
0

>  <SCORE.RESTR.CAVITY>
0

>  <SCORE.RESTR.norm>
0

>  <SCORE.SYSTEM>
-20.9745

>  <SCORE.SYSTEM.CONST>
0

>  <SCORE.SYSTEM.DIHEDRAL>
5.25576

>  <SCORE.SYSTEM.POLAR>
-3.25717

>  <SCORE.SYSTEM.SOLV>
0.502698

>  <SCORE.SYSTEM.VDW>
-5.04527

>  <SCORE.SYSTEM.norm>
-1.74788

>  <SCORE.heavy>
12

>  <SCORE.norm>
-5.22837

$$$$
P93947832
 OpenBabel12072022103D
libRbt.so/2013.1/901 2013/11/27
 16 16  0  0  0  0  0  0  0  0999 V2000
   18.2880  -18.4259    1.6526 C   0  0  0  0  0  0  0  0  0  0  0  0
   18.8248  -18.6362    3.0699 C   0  0  1  0  0  0  0  0  0  0  0  0
   19.8487  -17.5866    3.4370 C   0  0  0  0  0  0  0  0  0  0  0  0
   19.5542  -16.2158    3.7612 C   0  0  0  0  0  0  0  0  0  0  0  0
   20.6816  -15.4814    4.0532 C   0  0  0  0  0  0  0  0  0  0  0  0
   22.1021  -16.4229    3.9485 S   0  0  0  0  0  0  0  0  0  0  0  0
   21.2122  -17.8151    3.5079 C   0  0  0  0  0  0  0  0  0  0  0  0
   17.7746  -18.5826    4.0731 N   0  0  0  0  0  0  0  0  0  0  0  0
   18.0534  -18.8613    5.3877 C   0  0  0  0  0  0  0  0  0  0  0  0
   19.1144  -18.6111    5.9471 O   0  0  0  0  0  0  0  0  0  0  0  0
   16.9775  -19.4726    6.0185 N   0  0  0  0  0  0  0  0  0  0  0  0
   16.0320  -18.6584    6.6908 N   0  0  0  0  0  0  0  0  0  0  0  0
   17.0775  -17.8624    3.9457 H   0  0  0  0  0  0  0  0  0  0  0  0
   17.1409  -20.4023    6.3955 H   0  0  0  0  0  0  0  0  0  0  0  0
   16.5665  -17.9523    7.2079 H   0  0  0  0  0  0  0  0  0  0  0  0
   15.6275  -19.2319    7.4428 H   0  0  0  0  0  0  0  0  0  0  0  0
  2  1  1  6  0  0  0
  2  3  1  0  0  0  0
  2  8  1  0  0  0  0
  3  4  1  0  0  0  0
  3  7  2  0  0  0  0
  4  5  2  0  0  0  0
  5  6  1  0  0  0  0
  6  7  1  0  0  0  0
  8  9  1  0  0  0  0
  8 13  1  0  0  0  0
  9 10  2  0  0  0  0
  9 11  1  0  0  0  0
 11 12  1  0  0  0  0
 11 14  1  0  0  0  0
 12 15  1  0  0  0  0
 12 16  1  0  0  0  0
M  END
>  <CHROM.0>
59.83514686,-63.57134515,-57.49172748,-52.89557340,-57.80488597,-59.28323367
-62.17502027,63.95734307,-167.48539896,160.02021613

>  <CHROM.1>
74.25273651,174.51959630,33.03015656,-91.84176901,-42.95042305,19.26072176
-17.79671630,4.31976440,2.78903211,0.54125730,1.48689360

>  <Name>
P93947832

>  <RI>
0

>  <Rbt.Current_Directory>
/home/fstefaniak/projects/zuza/docking/adenine/1Y26

>  <Rbt.Executable>
rbdock ($Id: //depot/dev/client3/rdock/2013.1/src/exe/rbdock.cxx#4 $)

>  <Rbt.Library>
libRbt.so (2013.1, Build901 2013/11/27)

>  <Rbt.Parameter_File>
/home/fstefaniak/progs/rDock//data/scripts/dock_solv.prm

>  <Rbt.Receptor>
1y26.prm

>  <SCORE>
-62.1456

>  <SCORE.INTER>
-40.7695

>  <SCORE.INTER.CONST>
1

>  <SCORE.INTER.POLAR>
-5.67726

>  <SCORE.INTER.ROT>
5

>  <SCORE.INTER.SOLV>
16.484

>  <SCORE.INTER.VDW>
-20.6835

>  <SCORE.INTER.norm>
-3.39746

>  <SCORE.INTRA>
-0.821469

>  <SCORE.INTRA.DIHEDRAL>
-0.406943

>  <SCORE.INTRA.DIHEDRAL.0>
3.70088

>  <SCORE.INTRA.POLAR>
0

>  <SCORE.INTRA.POLAR.0>
0

>  <SCORE.INTRA.REPUL>
0

>  <SCORE.INTRA.REPUL.0>
0

>  <SCORE.INTRA.SOLV>
0.475447

>  <SCORE.INTRA.SOLV.lig_0>
-18.5501

>  <SCORE.INTRA.VDW>
-0.855721

>  <SCORE.INTRA.VDW.0>
-0.445886

>  <SCORE.INTRA.norm>
-0.0684557

>  <SCORE.RESTR>
0

>  <SCORE.RESTR.CAVITY>
0

>  <SCORE.RESTR.norm>
0

>  <SCORE.SYSTEM>
-20.5547

>  <SCORE.SYSTEM.CONST>
0

>  <SCORE.SYSTEM.DIHEDRAL>
4.87643

>  <SCORE.SYSTEM.POLAR>
-3.19844

>  <SCORE.SYSTEM.SOLV>
0.394213

>  <SCORE.SYSTEM.VDW>
-4.79851

>  <SCORE.SYSTEM.norm>
-1.71289

>  <SCORE.heavy>
12

>  <SCORE.norm>
-5.1788

$$$$
P94260767
 OpenBabel12072022103D
libRbt.so/2013.1/901 2013/11/27
 18 18  0  0  0  0  0  0  0  0999 V2000
   24.1000  -17.0048    3.8553 C   0  0  0  0  0  0  0  0  0  0  0  0
   23.4401  -15.7291    4.3041 C   0  0  0  0  0  0  0  0  0  0  0  0
   24.2300  -14.5676    4.3964 C   0  0  0  0  0  0  0  0  0  0  0  0
   23.6902  -13.3483    4.8090 C   0  0  0  0  0  0  0  0  0  0  0  0
   22.3392  -13.2846    5.1280 C   0  0  0  0  0  0  0  0  0  0  0  0
   21.5387  -14.4312    5.0413 C   0  0  0  0  0  0  0  0  0  0  0  0
   22.0709  -15.6592    4.6338 C   0  0  0  0  0  0  0  0  0  0  0  0
   21.2890  -16.8306    4.5493 N   0  0  0  0  0  0  0  0  0  0  0  0
   20.4482  -17.2342    3.5397 C   0  0  0  0  0  0  0  0  0  0  0  0
   20.2279  -16.6599    2.4796 O   0  0  0  0  0  0  0  0  0  0  0  0
   19.8028  -18.4354    3.8060 N   0  0  0  0  0  0  0  0  0  0  0  0
   19.8915  -19.1607    5.0065 N   0  0  0  0  0  0  0  0  0  0  0  0
   24.5806  -12.3121    4.8544 O   0  0  0  0  0  0  0  0  0  0  0  0
   24.0832  -11.0600    5.3102 C   0  0  0  0  0  0  0  0  0  0  0  0
   21.3556  -17.4901    5.3035 H   0  0  0  0  0  0  0  0  0  0  0  0
   19.1568  -18.7428    3.0801 H   0  0  0  0  0  0  0  0  0  0  0  0
   19.9470  -20.1606    4.8058 H   0  0  0  0  0  0  0  0  0  0  0  0
   19.0784  -18.9668    5.5922 H   0  0  0  0  0  0  0  0  0  0  0  0
  1  2  1  0  0  0  0
  2  3  2  0  0  0  0
  2  7  1  0  0  0  0
  3  4  1  0  0  0  0
  4  5  2  0  0  0  0
  4 13  1  0  0  0  0
  5  6  1  0  0  0  0
  6  7  2  0  0  0  0
  7  8  1  0  0  0  0
  8  9  1  0  0  0  0
  8 15  1  0  0  0  0
  9 10  2  0  0  0  0
  9 11  1  0  0  0  0
 11 12  1  0  0  0  0
 11 16  1  0  0  0  0
 12 17  1  0  0  0  0
 12 18  1  0  0  0  0
 13 14  1  0  0  0  0
M  END
>  <CHROM.0>
-177.55809612,-61.31080207,-55.87550296,-51.45154033,-55.15412448,-61.78548020
-62.62453477,-175.39378693,-166.19759614,160.74040966

>  <CHROM.1>
-178.07196360,-98.84759455,-139.91409418,22.22683496,-15.46244938,4.39750441
-2.15542076,0.01562572,0.18580032

>  <Name>
P94260767

>  <RI>
0

>  <Rbt.Current_Directory>
/home/fstefaniak/projects/zuza/docking/adenine/1Y26

>  <Rbt.Executable>
rbdock ($Id: //depot/dev/client3/rdock/2013.1/src/exe/rbdock.cxx#4 $)

>  <Rbt.Library>
libRbt.so (2013.1, Build901 2013/11/27)

>  <Rbt.Parameter_File>
/home/fstefaniak/progs/rDock//data/scripts/dock_solv.prm

>  <Rbt.Receptor>
1y26.prm

>  <SCORE>
-38.1624

>  <SCORE.INTER>
-21.802

>  <SCORE.INTER.CONST>
1

>  <SCORE.INTER.POLAR>
-2.14209

>  <SCORE.INTER.ROT>
3

>  <SCORE.INTER.SOLV>
12.2242

>  <SCORE.INTER.VDW>
-17.0691

>  <SCORE.INTER.norm>
-1.55729

>  <SCORE.INTRA>
4.11058

>  <SCORE.INTRA.DIHEDRAL>
12.4943

>  <SCORE.INTRA.DIHEDRAL.0>
0.489232

>  <SCORE.INTRA.POLAR>
-0.18154

>  <SCORE.INTRA.POLAR.0>
0

>  <SCORE.INTRA.REPUL>
0

>  <SCORE.INTRA.REPUL.0>
0

>  <SCORE.INTRA.SOLV>
-0.287858

>  <SCORE.INTRA.SOLV.lig_0>
-20.5172

>  <SCORE.INTRA.VDW>
-1.37542

>  <SCORE.INTRA.VDW.0>
2.18768

>  <SCORE.INTRA.norm>
0.293613

>  <SCORE.RESTR>
1.16416

>  <SCORE.RESTR.CAVITY>
1.16416

>  <SCORE.RESTR.norm>
0.0831543

>  <SCORE.SYSTEM>
-21.6352

>  <SCORE.SYSTEM.CONST>
0

>  <SCORE.SYSTEM.DIHEDRAL>
5.17246

>  <SCORE.SYSTEM.POLAR>
-3.24102

>  <SCORE.SYSTEM.SOLV>
0.392886

>  <SCORE.SYSTEM.VDW>
-5.47515

>  <SCORE.SYSTEM.norm>
-1.54537

>  <SCORE.heavy>
14

>  <SCORE.norm>
-2.72589

$$$$
P94260767
 OpenBabel12072022103D
libRbt.so/2013.1/901 2013/11/27
 18 18  0  0  0  0  0  0  0  0999 V2000
   19.2146  -18.0318    2.6330 C   0  0  0  0  0  0  0  0  0  0  0  0
   19.1221  -18.2582    4.1177 C   0  0  0  0  0  0  0  0  0  0  0  0
   17.9097  -18.7441    4.6429 C   0  0  0  0  0  0  0  0  0  0  0  0
   17.7465  -18.9750    6.0097 C   0  0  0  0  0  0  0  0  0  0  0  0
   18.8118  -18.7241    6.8661 C   0  0  0  0  0  0  0  0  0  0  0  0
   20.0254  -18.2405    6.3598 C   0  0  0  0  0  0  0  0  0  0  0  0
   20.1978  -18.0008    4.9923 C   0  0  0  0  0  0  0  0  0  0  0  0
   21.4056  -17.5034    4.4590 N   0  0  0  0  0  0  0  0  0  0  0  0
   21.8279  -16.1997    4.3522 C   0  0  0  0  0  0  0  0  0  0  0  0
   21.2407  -15.1931    4.7318 O   0  0  0  0  0  0  0  0  0  0  0  0
   23.0667  -16.0694    3.7369 N   0  0  0  0  0  0  0  0  0  0  0  0
   23.8148  -17.1200    3.1784 N   0  0  0  0  0  0  0  0  0  0  0  0
   16.5130  -19.4412    6.3700 O   0  0  0  0  0  0  0  0  0  0  0  0
   15.9161  -18.8516    7.5185 C   0  0  0  0  0  0  0  0  0  0  0  0
   22.0785  -18.1713    4.1286 H   0  0  0  0  0  0  0  0  0  0  0  0
   23.3897  -15.1091    3.6268 H   0  0  0  0  0  0  0  0  0  0  0  0
   24.0334  -17.8120    3.8970 H   0  0  0  0  0  0  0  0  0  0  0  0
   24.6768  -16.7561    2.7704 H   0  0  0  0  0  0  0  0  0  0  0  0
  1  2  1  0  0  0  0
  2  3  2  0  0  0  0
  2  7  1  0  0  0  0
  3  4  1  0  0  0  0
  4  5  2  0  0  0  0
  4 13  1  0  0  0  0
  5  6  1  0  0  0  0
  6  7  2  0  0  0  0
  7  8  1  0  0  0  0
  8  9  1  0  0  0  0
  8 15  1  0  0  0  0
  9 10  2  0  0  0  0
  9 11  1  0  0  0  0
 11 12  1  0  0  0  0
 11 16  1  0  0  0  0
 12 17  1  0  0  0  0
 12 18  1  0  0  0  0
 13 14  1  0  0  0  0
M  END
>  <CHROM.0>
63.34125364,-63.24093173,-54.12030431,-53.26694284,179.10849321,53.02306460
-62.20224892,-175.49059469,-167.07745329,160.78175923

>  <CHROM.1>
-135.91934555,94.75826009,-60.05412689,19.82371895,-17.77649007,4.97185749
0.31479321,-0.49794384,-1.78396787

>  <Name>
P94260767

>  <RI>
0

>  <Rbt.Current_Directory>
/home/fstefaniak/projects/zuza/docking/adenine/1Y26

>  <Rbt.Executable>
rbdock ($Id: //depot/dev/client3/rdock/2013.1/src/exe/rbdock.cxx#4 $)

>  <Rbt.Library>
libRbt.so (2013.1, Build901 2013/11/27)

>  <Rbt.Parameter_File>
/home/fstefaniak/progs/rDock//data/scripts/dock_solv.prm

>  <Rbt.Receptor>
1y26.prm

>  <SCORE>
-37.4142

>  <SCORE.INTER>
-21.3179

>  <SCORE.INTER.CONST>
1

>  <SCORE.INTER.POLAR>
-2.52341

>  <SCORE.INTER.ROT>
3

>  <SCORE.INTER.SOLV>
15.3748

>  <SCORE.INTER.VDW>
-16.5255

>  <SCORE.INTER.norm>
-1.5227

>  <SCORE.INTRA>
4.62912

>  <SCORE.INTRA.DIHEDRAL>
15.0602

>  <SCORE.INTRA.DIHEDRAL.0>
0.489232

>  <SCORE.INTRA.POLAR>
-0.0960006

>  <SCORE.INTRA.POLAR.0>
0

>  <SCORE.INTRA.REPUL>
0

>  <SCORE.INTRA.REPUL.0>
0

>  <SCORE.INTRA.SOLV>
-0.174002

>  <SCORE.INTRA.SOLV.lig_0>
-20.5172

>  <SCORE.INTRA.VDW>
-2.48756

>  <SCORE.INTRA.VDW.0>
2.18768

>  <SCORE.INTRA.norm>
0.330652

>  <SCORE.RESTR>
0

>  <SCORE.RESTR.CAVITY>
0

>  <SCORE.RESTR.norm>
0

>  <SCORE.SYSTEM>
-20.7254

>  <SCORE.SYSTEM.CONST>
0

>  <SCORE.SYSTEM.DIHEDRAL>
5.18202

>  <SCORE.SYSTEM.POLAR>
-3.21068

>  <SCORE.SYSTEM.SOLV>
0.0932748

>  <SCORE.SYSTEM.VDW>
-4.87313

>  <SCORE.SYSTEM.norm>
-1.48039

>  <SCORE.heavy>
14

>  <SCORE.norm>
-2.67244

$$$$
P94260767
 OpenBabel12072022103D
libRbt.so/2013.1/901 2013/11/27
 18 18  0  0  0  0  0  0  0  0999 V2000
   19.2123  -17.9764    2.6240 C   0  0  0  0  0  0  0  0  0  0  0  0
   19.1155  -18.2303    4.1041 C   0  0  0  0  0  0  0  0  0  0  0  0
   17.8973  -18.7130    4.6186 C   0  0  0  0  0  0  0  0  0  0  0  0
   17.7299  -18.9684    5.9805 C   0  0  0  0  0  0  0  0  0  0  0  0
   18.7967  -18.7453    6.8426 C   0  0  0  0  0  0  0  0  0  0  0  0
   20.0161  -18.2653    6.3471 C   0  0  0  0  0  0  0  0  0  0  0  0
   20.1928  -18.0013    4.9846 C   0  0  0  0  0  0  0  0  0  0  0  0
   21.4065  -17.5067    4.4622 N   0  0  0  0  0  0  0  0  0  0  0  0
   21.8463  -16.2066    4.3880 C   0  0  0  0  0  0  0  0  0  0  0  0
   21.2733  -15.2021    4.7941 O   0  0  0  0  0  0  0  0  0  0  0  0
   23.0860  -16.0774    3.7742 N   0  0  0  0  0  0  0  0  0  0  0  0
   23.8191  -17.1234    3.1878 N   0  0  0  0  0  0  0  0  0  0  0  0
   16.4910  -19.4280    6.3305 O   0  0  0  0  0  0  0  0  0  0  0  0
   15.9219  -18.8931    7.5192 C   0  0  0  0  0  0  0  0  0  0  0  0
   22.0699  -18.1750    4.1137 H   0  0  0  0  0  0  0  0  0  0  0  0
   23.4218  -15.1190    3.6881 H   0  0  0  0  0  0  0  0  0  0  0  0
   24.0446  -17.8278    3.8920 H   0  0  0  0  0  0  0  0  0  0  0  0
   24.6768  -16.7580    2.7722 H   0  0  0  0  0  0  0  0  0  0  0  0
  1  2  1  0  0  0  0
  2  3  2  0  0  0  0
  2  7  1  0  0  0  0
  3  4  1  0  0  0  0
  4  5  2  0  0  0  0
  4 13  1  0  0  0  0
  5  6  1  0  0  0  0
  6  7  2  0  0  0  0
  7  8  1  0  0  0  0
  8  9  1  0  0  0  0
  8 15  1  0  0  0  0
  9 10  2  0  0  0  0
  9 11  1  0  0  0  0
 11 12  1  0  0  0  0
 11 16  1  0  0  0  0
 12 17  1  0  0  0  0
 12 18  1  0  0  0  0
 13 14  1  0  0  0  0
M  END
>  <CHROM.0>
-51.34472239,-60.63909264,176.20382892,-53.72029617,-55.78368306,-173.13717615
75.40256937,-51.93401184,-165.54310320,160.73116782

>  <CHROM.1>
-138.35607503,95.18461129,-61.13034593,19.82373874,-17.77563080,4.97193902
0.31778658,-0.48880236,-1.76170012

>  <Name>
P94260767

>  <RI>
0

>  <Rbt.Current_Directory>
/home/fstefaniak/projects/zuza/docking/adenine/1Y26

>  <Rbt.Executable>
rbdock ($Id: //depot/dev/client3/rdock/2013.1/src/exe/rbdock.cxx#4 $)

>  <Rbt.Library>
libRbt.so (2013.1, Build901 2013/11/27)

>  <Rbt.Parameter_File>
/home/fstefaniak/progs/rDock//data/scripts/dock_solv.prm

>  <Rbt.Receptor>
1y26.prm

>  <SCORE>
-37.3976

>  <SCORE.INTER>
-21.1891

>  <SCORE.INTER.CONST>
1

>  <SCORE.INTER.POLAR>
-2.51161

>  <SCORE.INTER.ROT>
3

>  <SCORE.INTER.SOLV>
15.3675

>  <SCORE.INTER.VDW>
-16.4765

>  <SCORE.INTER.norm>
-1.51351

>  <SCORE.INTRA>
4.56951

>  <SCORE.INTRA.DIHEDRAL>
14.8386

>  <SCORE.INTRA.DIHEDRAL.0>
0.489232

>  <SCORE.INTRA.POLAR>
-0.0994897

>  <SCORE.INTRA.POLAR.0>
0

>  <SCORE.INTRA.REPUL>
0

>  <SCORE.INTRA.REPUL.0>
0

>  <SCORE.INTRA.SOLV>
-0.178226

>  <SCORE.INTRA.SOLV.lig_0>
-20.5172

>  <SCORE.INTRA.VDW>
-2.42241

>  <SCORE.INTRA.VDW.0>
2.18768

>  <SCORE.INTRA.norm>
0.326393

>  <SCORE.RESTR>
0

>  <SCORE.RESTR.CAVITY>
0

>  <SCORE.RESTR.norm>
0

>  <SCORE.SYSTEM>
-20.778

>  <SCORE.SYSTEM.CONST>
0

>  <SCORE.SYSTEM.DIHEDRAL>
6.83626

>  <SCORE.SYSTEM.POLAR>
-3.70116

>  <SCORE.SYSTEM.SOLV>
0.354112

>  <SCORE.SYSTEM.VDW>
-3.9116

>  <SCORE.SYSTEM.norm>
-1.48414

>  <SCORE.heavy>
14

>  <SCORE.norm>
-2.67126

$$$$
P94512349
 OpenBabel12072022103D
libRbt.so/2013.1/901 2013/11/27
 13 13  0  0  0  0  0  0  0  0999 V2000
   22.8883  -14.2035    4.5823 C   0  0  0  0  0  0  0  0  0  0  0  0
   21.6456  -14.9749    4.1836 C   0  0  0  0  0  0  0  0  0  0  0  0
   21.8110  -16.3953    4.4099 N   0  0  0  0  0  0  0  0  0  0  0  0
   20.9913  -17.2857    3.7638 C   0  0  0  0  0  0  0  0  0  0  0  0
   21.0740  -17.5202    2.5621 O   0  0  0  0  0  0  0  0  0  0  0  0
   20.0780  -17.9055    4.5782 N   0  0  0  0  0  0  0  0  0  0  0  0
   19.1360  -18.8684    4.0405 C   0  0  0  0  0  0  0  0  0  0  0  0
   18.2028  -19.1713    5.2000 C   0  0  0  0  0  0  0  0  0  0  0  0
   19.1210  -19.0543    6.4128 C   0  0  1  0  0  0  0  0  0  0  0  0
   20.0371  -17.8885    6.0345 C   0  0  0  0  0  0  0  0  0  0  0  0
   18.3845  -18.7897    7.5939 O   0  0  0  0  0  0  0  0  0  0  0  0
   22.0558  -16.6752    5.3471 H   0  0  0  0  0  0  0  0  0  0  0  0
   17.8688  -17.9787    7.4414 H   0  0  0  0  0  0  0  0  0  0  0  0
  1  2  1  0  0  0  0
  2  3  1  0  0  0  0
  3  4  1  0  0  0  0
  3 12  1  0  0  0  0
  4  5  2  0  0  0  0
  4  6  1  0  0  0  0
  6  7  1  0  0  0  0
  6 10  1  0  0  0  0
  7  8  1  0  0  0  0
  8  9  1  0  0  0  0
  9 10  1  0  0  0  0
  9 11  1  1  0  0  0
 11 13  1  0  0  0  0
M  END
>  <CHROM.0>
-176.81794856,-61.61949241,-52.03405551,-54.98680821,55.34263530,-62.86980345
-63.06679595,63.46765803,-166.95254792,161.80775342

>  <CHROM.1>
-160.65187935,71.79691953,-56.60465267,20.30265950,-17.44679134,4.87867002
-0.16292531,0.86869824,1.23666402

>  <Name>
P94512349

>  <RI>
0

>  <Rbt.Current_Directory>
/home/fstefaniak/projects/zuza/docking/adenine/1Y26

>  <Rbt.Executable>
rbdock ($Id: //depot/dev/client3/rdock/2013.1/src/exe/rbdock.cxx#4 $)

>  <Rbt.Library>
libRbt.so (2013.1, Build901 2013/11/27)

>  <Rbt.Parameter_File>
/home/fstefaniak/progs/rDock//data/scripts/dock_solv.prm

>  <Rbt.Receptor>
1y26.prm

>  <SCORE>
-52.4941

>  <SCORE.INTER>
-33.42

>  <SCORE.INTER.CONST>
1

>  <SCORE.INTER.POLAR>
-3.99379

>  <SCORE.INTER.ROT>
2

>  <SCORE.INTER.SOLV>
12.4521

>  <SCORE.INTER.VDW>
-18.0514

>  <SCORE.INTER.norm>
-3.03818

>  <SCORE.INTRA>
-0.307689

>  <SCORE.INTRA.DIHEDRAL>
0.104963

>  <SCORE.INTRA.DIHEDRAL.0>
0.815271

>  <SCORE.INTRA.POLAR>
0

>  <SCORE.INTRA.POLAR.0>
0

>  <SCORE.INTRA.REPUL>
0

>  <SCORE.INTRA.REPUL.0>
0

>  <SCORE.INTRA.SOLV>
-0.0212587

>  <SCORE.INTRA.SOLV.lig_0>
-15.4579

>  <SCORE.INTRA.VDW>
-0.349542

>  <SCORE.INTRA.VDW.0>
0.765689

>  <SCORE.INTRA.norm>
-0.0279718

>  <SCORE.RESTR>
0

>  <SCORE.RESTR.CAVITY>
0

>  <SCORE.RESTR.norm>
0

>  <SCORE.SYSTEM>
-18.7664

>  <SCORE.SYSTEM.CONST>
0

>  <SCORE.SYSTEM.DIHEDRAL>
4.94578

>  <SCORE.SYSTEM.POLAR>
-3.16361

>  <SCORE.SYSTEM.SOLV>
0.163491

>  <SCORE.SYSTEM.VDW>
-3.66868

>  <SCORE.SYSTEM.norm>
-1.70604

>  <SCORE.heavy>
11

>  <SCORE.norm>
-4.77219

$$$$
P94512349
 OpenBabel12072022103D
libRbt.so/2013.1/901 2013/11/27
 13 13  0  0  0  0  0  0  0  0999 V2000
   22.9744  -13.9185    4.7282 C   0  0  0  0  0  0  0  0  0  0  0  0
   21.6407  -14.4720    4.2666 C   0  0  0  0  0  0  0  0  0  0  0  0
   21.6358  -15.9197    4.2836 N   0  0  0  0  0  0  0  0  0  0  0  0
   20.6537  -16.6033    3.6126 C   0  0  0  0  0  0  0  0  0  0  0  0
   20.4749  -16.5011    2.4029 O   0  0  0  0  0  0  0  0  0  0  0  0
   19.8947  -17.4249    4.4066 N   0  0  0  0  0  0  0  0  0  0  0  0
   18.8114  -18.2082    3.8442 C   0  0  0  0  0  0  0  0  0  0  0  0
   18.1211  -18.8191    5.0513 C   0  0  0  0  0  0  0  0  0  0  0  0
   19.2738  -19.0337    6.0276 C   0  0  1  0  0  0  0  0  0  0  0  0
   20.1547  -17.8056    5.7888 C   0  0  0  0  0  0  0  0  0  0  0  0
   18.8110  -19.1037    7.3649 O   0  0  0  0  0  0  0  0  0  0  0  0
   21.9206  -16.3596    5.1450 H   0  0  0  0  0  0  0  0  0  0  0  0
   18.3758  -18.2575    7.5683 H   0  0  0  0  0  0  0  0  0  0  0  0
  1  2  1  0  0  0  0
  2  3  1  0  0  0  0
  3  4  1  0  0  0  0
  3 12  1  0  0  0  0
  4  5  2  0  0  0  0
  4  6  1  0  0  0  0
  6  7  1  0  0  0  0
  6 10  1  0  0  0  0
  7  8  1  0  0  0  0
  8  9  1  0  0  0  0
  9 10  1  0  0  0  0
  9 11  1  1  0  0  0
 11 13  1  0  0  0  0
M  END
>  <CHROM.0>
-53.94221435,-59.24965067,-55.11072271,-53.42906328,-56.85714789,-59.27170845
-56.41381207,-176.39465109,-167.64782806,159.66995045

>  <CHROM.1>
-164.64673467,60.01883674,-60.61844088,20.22493517,-17.06831471,4.73821692
-0.52221762,0.83134006,1.79102365

>  <Name>
P94512349

>  <RI>
0

>  <Rbt.Current_Directory>
/home/fstefaniak/projects/zuza/docking/adenine/1Y26

>  <Rbt.Executable>
rbdock ($Id: //depot/dev/client3/rdock/2013.1/src/exe/rbdock.cxx#4 $)

>  <Rbt.Library>
libRbt.so (2013.1, Build901 2013/11/27)

>  <Rbt.Parameter_File>
/home/fstefaniak/progs/rDock//data/scripts/dock_solv.prm

>  <Rbt.Receptor>
1y26.prm

>  <SCORE>
-50.2655

>  <SCORE.INTER>
-27.9105

>  <SCORE.INTER.CONST>
1

>  <SCORE.INTER.POLAR>
-2.90586

>  <SCORE.INTER.ROT>
2

>  <SCORE.INTER.SOLV>
12.6647

>  <SCORE.INTER.VDW>
-18.0757

>  <SCORE.INTER.norm>
-2.53731

>  <SCORE.INTRA>
0.233383

>  <SCORE.INTRA.DIHEDRAL>
-0.00682077

>  <SCORE.INTRA.DIHEDRAL.0>
0.815271

>  <SCORE.INTRA.POLAR>
0

>  <SCORE.INTRA.POLAR.0>
0

>  <SCORE.INTRA.REPUL>
0

>  <SCORE.INTRA.REPUL.0>
0

>  <SCORE.INTRA.SOLV>
-0.0192652

>  <SCORE.INTRA.SOLV.lig_0>
-15.4579

>  <SCORE.INTRA.VDW>
0.246426

>  <SCORE.INTRA.VDW.0>
0.765689

>  <SCORE.INTRA.norm>
0.0212166

>  <SCORE.RESTR>
0

>  <SCORE.RESTR.CAVITY>
0

>  <SCORE.RESTR.norm>
0

>  <SCORE.SYSTEM>
-22.5884

>  <SCORE.SYSTEM.CONST>
0

>  <SCORE.SYSTEM.DIHEDRAL>
5.12994

>  <SCORE.SYSTEM.POLAR>
-3.38965

>  <SCORE.SYSTEM.SOLV>
0.456063

>  <SCORE.SYSTEM.VDW>
-5.62212

>  <SCORE.SYSTEM.norm>
-2.05349

>  <SCORE.heavy>
11

>  <SCORE.norm>
-4.56959

$$$$
P94512349
 OpenBabel12072022103D
libRbt.so/2013.1/901 2013/11/27
 13 13  0  0  0  0  0  0  0  0999 V2000
   23.4243  -14.5986    4.6392 C   0  0  0  0  0  0  0  0  0  0  0  0
   22.0487  -15.1279    4.2848 C   0  0  0  0  0  0  0  0  0  0  0  0
   21.9374  -16.5425    4.5721 N   0  0  0  0  0  0  0  0  0  0  0  0
   21.0829  -17.3204    3.8326 C   0  0  0  0  0  0  0  0  0  0  0  0
   21.2137  -17.4955    2.6250 O   0  0  0  0  0  0  0  0  0  0  0  0
   20.0751  -17.9003    4.5602 N   0  0  0  0  0  0  0  0  0  0  0  0
   19.0865  -18.7454    3.9181 C   0  0  0  0  0  0  0  0  0  0  0  0
   18.0662  -19.0273    5.0074 C   0  0  0  0  0  0  0  0  0  0  0  0
   18.9204  -19.0582    6.2712 C   0  0  1  0  0  0  0  0  0  0  0  0
   19.9527  -17.9592    6.0108 C   0  0  0  0  0  0  0  0  0  0  0  0
   18.1430  -18.7942    7.4259 O   0  0  0  0  0  0  0  0  0  0  0  0
   21.9918  -16.8092    5.5429 H   0  0  0  0  0  0  0  0  0  0  0  0
   18.6744  -19.0484    8.2005 H   0  0  0  0  0  0  0  0  0  0  0  0
  1  2  1  0  0  0  0
  2  3  1  0  0  0  0
  3  4  1  0  0  0  0
  3 12  1  0  0  0  0
  4  5  2  0  0  0  0
  4  6  1  0  0  0  0
  6  7  1  0  0  0  0
  6 10  1  0  0  0  0
  7  8  1  0  0  0  0
  8  9  1  0  0  0  0
  9 10  1  0  0  0  0
  9 11  1  1  0  0  0
 11 13  1  0  0  0  0
M  END
>  <CHROM.0>
-37.21935410,-59.91964944,-55.26628367,-51.96527960,-172.81098797,-59.04477393
-61.20693553,-177.68553644,-166.28713128,160.60957688

>  <CHROM.1>
-151.15815190,62.73942021,165.74008907,20.36117182,-17.50164658,4.86479831
-0.20131103,0.75019695,1.33074111

>  <Name>
P94512349

>  <RI>
0

>  <Rbt.Current_Directory>
/home/fstefaniak/projects/zuza/docking/adenine/1Y26

>  <Rbt.Executable>
rbdock ($Id: //depot/dev/client3/rdock/2013.1/src/exe/rbdock.cxx#4 $)

>  <Rbt.Library>
libRbt.so (2013.1, Build901 2013/11/27)

>  <Rbt.Parameter_File>
/home/fstefaniak/progs/rDock//data/scripts/dock_solv.prm

>  <Rbt.Receptor>
1y26.prm

>  <SCORE>
-49.6154

>  <SCORE.INTER>
-27.5144

>  <SCORE.INTER.CONST>
1

>  <SCORE.INTER.POLAR>
-2.94031

>  <SCORE.INTER.ROT>
2

>  <SCORE.INTER.SOLV>
12.2223

>  <SCORE.INTER.VDW>
-17.5494

>  <SCORE.INTER.norm>
-2.50131

>  <SCORE.INTRA>
0.18965

>  <SCORE.INTRA.DIHEDRAL>
1.27834

>  <SCORE.INTRA.DIHEDRAL.0>
0.815271

>  <SCORE.INTRA.POLAR>
0

>  <SCORE.INTRA.POLAR.0>
0

>  <SCORE.INTRA.REPUL>
0

>  <SCORE.INTRA.REPUL.0>
0

>  <SCORE.INTRA.SOLV>
0.0313951

>  <SCORE.INTRA.SOLV.lig_0>
-15.4579

>  <SCORE.INTRA.VDW>
-0.465219

>  <SCORE.INTRA.VDW.0>
0.765689

>  <SCORE.INTRA.norm>
0.0172409

>  <SCORE.RESTR>
0

>  <SCORE.RESTR.CAVITY>
0

>  <SCORE.RESTR.norm>
0

>  <SCORE.SYSTEM>
-22.2906

>  <SCORE.SYSTEM.CONST>
0

>  <SCORE.SYSTEM.DIHEDRAL>
7.39667

>  <SCORE.SYSTEM.POLAR>
-3.65031

>  <SCORE.SYSTEM.SOLV>
0.298039

>  <SCORE.SYSTEM.VDW>
-5.2576

>  <SCORE.SYSTEM.norm>
-2.02642

>  <SCORE.heavy>
11

>  <SCORE.norm>
-4.51049

$$$$
P94512424
 OpenBabel12072022103D
libRbt.so/2013.1/901 2013/11/27
 14 14  0  0  0  0  0  0  0  0999 V2000
   22.3180  -13.8346    4.8450 C   0  0  0  0  0  0  0  0  0  0  0  0
   21.9920  -15.1602    4.1647 C   0  0  0  0  0  0  0  0  0  0  0  0
   23.1734  -16.1234    4.2626 C   0  0  0  0  0  0  0  0  0  0  0  0
   20.7994  -15.7437    4.7642 N   0  0  0  0  0  0  0  0  0  0  0  0
   19.9781  -16.5764    4.0505 C   0  0  0  0  0  0  0  0  0  0  0  0
   19.5653  -16.3014    2.9279 O   0  0  0  0  0  0  0  0  0  0  0  0
   19.6169  -17.7282    4.7032 N   0  0  0  0  0  0  0  0  0  0  0  0
   19.9823  -18.1552    6.0466 C   0  0  0  0  0  0  0  0  0  0  0  0
   19.3970  -19.5557    6.1867 C   0  0  0  0  0  0  0  0  0  0  0  0
   18.1941  -19.5227    5.2518 C   0  0  2  0  0  0  0  0  0  0  0  0
   18.6913  -18.6702    4.0838 C   0  0  0  0  0  0  0  0  0  0  0  0
   17.0945  -18.9000    5.9183 O   0  0  0  0  0  0  0  0  0  0  0  0
   20.8181  -15.8810    5.7608 H   0  0  0  0  0  0  0  0  0  0  0  0
   16.8442  -19.4680    6.6703 H   0  0  0  0  0  0  0  0  0  0  0  0
  1  2  1  0  0  0  0
  2  3  1  0  0  0  0
  2  4  1  0  0  0  0
  4  5  1  0  0  0  0
  4 13  1  0  0  0  0
  5  6  2  0  0  0  0
  5  7  1  0  0  0  0
  7  8  1  0  0  0  0
  7 11  1  0  0  0  0
  8  9  1  0  0  0  0
  9 10  1  0  0  0  0
 10 11  1  0  0  0  0
 10 12  1  1  0  0  0
 12 14  1  0  0  0  0
M  END
>  <CHROM.0>
-47.37513412,-61.04069296,-55.36078140,-53.54366796,-56.88727967,-55.90144350
-58.73721470,-51.45317950,-167.17948937,160.97825245

>  <CHROM.1>
152.40917096,-48.83583654,-64.75721574,20.04465009,-17.18404101,4.78276274
-0.69374270,0.49506015,2.34085642

>  <Name>
P94512424

>  <RI>
0

>  <Rbt.Current_Directory>
/home/fstefaniak/projects/zuza/docking/adenine/1Y26

>  <Rbt.Executable>
rbdock ($Id: //depot/dev/client3/rdock/2013.1/src/exe/rbdock.cxx#4 $)

>  <Rbt.Library>
libRbt.so (2013.1, Build901 2013/11/27)

>  <Rbt.Parameter_File>
/home/fstefaniak/progs/rDock//data/scripts/dock_solv.prm

>  <Rbt.Receptor>
1y26.prm

>  <SCORE>
-60.684

>  <SCORE.INTER>
-36.7555

>  <SCORE.INTER.CONST>
1

>  <SCORE.INTER.POLAR>
-3.98448

>  <SCORE.INTER.ROT>
2

>  <SCORE.INTER.SOLV>
13.8421

>  <SCORE.INTER.VDW>
-20.7694

>  <SCORE.INTER.norm>
-3.06296

>  <SCORE.INTRA>
-1.71924

>  <SCORE.INTRA.DIHEDRAL>
-1.65137

>  <SCORE.INTRA.DIHEDRAL.0>
2.93818

>  <SCORE.INTRA.POLAR>
0

>  <SCORE.INTRA.POLAR.0>
0

>  <SCORE.INTRA.REPUL>
0

>  <SCORE.INTRA.REPUL.0>
0

>  <SCORE.INTRA.SOLV>
-0.0196495

>  <SCORE.INTRA.SOLV.lig_0>
-14.4313

>  <SCORE.INTRA.VDW>
-0.883726

>  <SCORE.INTRA.VDW.0>
0.920594

>  <SCORE.INTRA.norm>
-0.14327

>  <SCORE.RESTR>
0

>  <SCORE.RESTR.CAVITY>
0

>  <SCORE.RESTR.norm>
0

>  <SCORE.SYSTEM>
-22.2093

>  <SCORE.SYSTEM.CONST>
0

>  <SCORE.SYSTEM.DIHEDRAL>
5.83649

>  <SCORE.SYSTEM.POLAR>
-3.49984

>  <SCORE.SYSTEM.SOLV>
0.673333

>  <SCORE.SYSTEM.VDW>
-5.31001

>  <SCORE.SYSTEM.norm>
-1.85077

>  <SCORE.heavy>
12

>  <SCORE.norm>
-5.057

$$$$
P94512424
 OpenBabel12072022103D
libRbt.so/2013.1/901 2013/11/27
 14 14  0  0  0  0  0  0  0  0999 V2000
   22.3310  -13.8118    4.7736 C   0  0  0  0  0  0  0  0  0  0  0  0
   22.0112  -15.1567    4.1290 C   0  0  0  0  0  0  0  0  0  0  0  0
   23.1884  -16.1192    4.2735 C   0  0  0  0  0  0  0  0  0  0  0  0
   20.8084  -15.7189    4.7283 N   0  0  0  0  0  0  0  0  0  0  0  0
   19.9786  -16.5461    4.0180 C   0  0  0  0  0  0  0  0  0  0  0  0
   19.5508  -16.2615    2.9034 O   0  0  0  0  0  0  0  0  0  0  0  0
   19.6273  -17.7042    4.6650 N   0  0  0  0  0  0  0  0  0  0  0  0
   20.0108  -18.1428    5.9995 C   0  0  0  0  0  0  0  0  0  0  0  0
   19.4290  -19.5452    6.1346 C   0  0  0  0  0  0  0  0  0  0  0  0
   18.2137  -19.5052    5.2160 C   0  0  2  0  0  0  0  0  0  0  0  0
   18.6946  -18.6416    4.0494 C   0  0  0  0  0  0  0  0  0  0  0  0
   17.1224  -18.8898    5.9025 O   0  0  0  0  0  0  0  0  0  0  0  0
   20.8212  -15.8483    5.7260 H   0  0  0  0  0  0  0  0  0  0  0  0
   16.8895  -19.4597    6.6588 H   0  0  0  0  0  0  0  0  0  0  0  0
  1  2  1  0  0  0  0
  2  3  1  0  0  0  0
  2  4  1  0  0  0  0
  4  5  1  0  0  0  0
  4 13  1  0  0  0  0
  5  6  2  0  0  0  0
  5  7  1  0  0  0  0
  7  8  1  0  0  0  0
  7 11  1  0  0  0  0
  8  9  1  0  0  0  0
  9 10  1  0  0  0  0
 10 11  1  0  0  0  0
 10 12  1  1  0  0  0
 12 14  1  0  0  0  0
M  END
>  <CHROM.0>
-53.18663115,-65.56460349,-52.93098919,-51.80003733,-174.80658996,-58.45007786
-64.78399110,-46.86501640,-167.88760449,159.92400583

>  <CHROM.1>
150.86268495,-50.46995419,-64.10019438,20.05835750,-17.16494442,4.74889942
-0.70820624,0.47589167,2.36889920

>  <Name>
P94512424

>  <RI>
0

>  <Rbt.Current_Directory>
/home/fstefaniak/projects/zuza/docking/adenine/1Y26

>  <Rbt.Executable>
rbdock ($Id: //depot/dev/client3/rdock/2013.1/src/exe/rbdock.cxx#4 $)

>  <Rbt.Library>
libRbt.so (2013.1, Build901 2013/11/27)

>  <Rbt.Parameter_File>
/home/fstefaniak/progs/rDock//data/scripts/dock_solv.prm

>  <Rbt.Receptor>
1y26.prm

>  <SCORE>
-60.6789

>  <SCORE.INTER>
-36.8597

>  <SCORE.INTER.CONST>
1

>  <SCORE.INTER.POLAR>
-3.99639

>  <SCORE.INTER.ROT>
2

>  <SCORE.INTER.SOLV>
13.8107

>  <SCORE.INTER.VDW>
-20.7888

>  <SCORE.INTER.norm>
-3.07165

>  <SCORE.INTRA>
-1.78292

>  <SCORE.INTRA.DIHEDRAL>
-1.64165

>  <SCORE.INTRA.DIHEDRAL.0>
2.93818

>  <SCORE.INTRA.POLAR>
0

>  <SCORE.INTRA.POLAR.0>
0

>  <SCORE.INTRA.REPUL>
0

>  <SCORE.INTRA.REPUL.0>
0

>  <SCORE.INTRA.SOLV>
-0.0228971

>  <SCORE.INTRA.SOLV.lig_0>
-14.4313

>  <SCORE.INTRA.VDW>
-0.950646

>  <SCORE.INTRA.VDW.0>
0.920594

>  <SCORE.INTRA.norm>
-0.148577

>  <SCORE.RESTR>
0

>  <SCORE.RESTR.CAVITY>
0

>  <SCORE.RESTR.norm>
0

>  <SCORE.SYSTEM>
-22.0362

>  <SCORE.SYSTEM.CONST>
0

>  <SCORE.SYSTEM.DIHEDRAL>
6.32081

>  <SCORE.SYSTEM.POLAR>
-3.50072

>  <SCORE.SYSTEM.SOLV>
0.487584

>  <SCORE.SYSTEM.VDW>
-5.29121

>  <SCORE.SYSTEM.norm>
-1.83635

>  <SCORE.heavy>
12

>  <SCORE.norm>
-5.05657

$$$$
P94512424
 OpenBabel12072022103D
libRbt.so/2013.1/901 2013/11/27
 14 14  0  0  0  0  0  0  0  0999 V2000
   22.2367  -13.7472    4.5802 C   0  0  0  0  0  0  0  0  0  0  0  0
   22.0242  -15.1804    4.1034 C   0  0  0  0  0  0  0  0  0  0  0  0
   23.2368  -16.0470    4.4376 C   0  0  0  0  0  0  0  0  0  0  0  0
   20.8165  -15.7283    4.7063 N   0  0  0  0  0  0  0  0  0  0  0  0
   19.9720  -16.5411    3.9967 C   0  0  0  0  0  0  0  0  0  0  0  0
   19.5312  -16.2397    2.8917 O   0  0  0  0  0  0  0  0  0  0  0  0
   19.6219  -17.7052    4.6336 N   0  0  0  0  0  0  0  0  0  0  0  0
   20.0204  -18.1632    5.9572 C   0  0  0  0  0  0  0  0  0  0  0  0
   19.4314  -19.5636    6.0823 C   0  0  0  0  0  0  0  0  0  0  0  0
   18.2043  -19.5042    5.1807 C   0  0  2  0  0  0  0  0  0  0  0  0
   18.6751  -18.6288    4.0187 C   0  0  0  0  0  0  0  0  0  0  0  0
   17.1262  -18.8908    5.8895 O   0  0  0  0  0  0  0  0  0  0  0  0
   20.8322  -15.8618    5.7034 H   0  0  0  0  0  0  0  0  0  0  0  0
   16.9174  -19.4554    6.6567 H   0  0  0  0  0  0  0  0  0  0  0  0
  1  2  1  0  0  0  0
  2  3  1  0  0  0  0
  2  4  1  0  0  0  0
  4  5  1  0  0  0  0
  4 13  1  0  0  0  0
  5  6  2  0  0  0  0
  5  7  1  0  0  0  0
  7  8  1  0  0  0  0
  7 11  1  0  0  0  0
  8  9  1  0  0  0  0
  9 10  1  0  0  0  0
 10 11  1  0  0  0  0
 10 12  1  1  0  0  0
 12 14  1  0  0  0  0
M  END
>  <CHROM.0>
-51.06731057,-59.52372669,-50.89537371,-51.92848845,-55.68474258,-57.35762549
-58.40716558,-51.65462434,-165.87656347,162.27899158

>  <CHROM.1>
141.47651443,-51.29768357,-62.44524654,20.05255336,-17.15544224,4.72325567
0.73239114,-0.44727218,-0.72747121

>  <Name>
P94512424

>  <RI>
0

>  <Rbt.Current_Directory>
/home/fstefaniak/projects/zuza/docking/adenine/1Y26

>  <Rbt.Executable>
rbdock ($Id: //depot/dev/client3/rdock/2013.1/src/exe/rbdock.cxx#4 $)

>  <Rbt.Library>
libRbt.so (2013.1, Build901 2013/11/27)

>  <Rbt.Parameter_File>
/home/fstefaniak/progs/rDock//data/scripts/dock_solv.prm

>  <Rbt.Receptor>
1y26.prm

>  <SCORE>
-60.5713

>  <SCORE.INTER>
-36.7158

>  <SCORE.INTER.CONST>
1

>  <SCORE.INTER.POLAR>
-4.03306

>  <SCORE.INTER.ROT>
2

>  <SCORE.INTER.SOLV>
13.7858

>  <SCORE.INTER.VDW>
-20.5623

>  <SCORE.INTER.norm>
-3.05965

>  <SCORE.INTRA>
-1.72569

>  <SCORE.INTRA.DIHEDRAL>
-1.38559

>  <SCORE.INTRA.DIHEDRAL.0>
2.93818

>  <SCORE.INTRA.POLAR>
0

>  <SCORE.INTRA.POLAR.0>
0

>  <SCORE.INTRA.REPUL>
0

>  <SCORE.INTRA.REPUL.0>
0

>  <SCORE.INTRA.SOLV>
-0.035222

>  <SCORE.INTRA.SOLV.lig_0>
-14.4313

>  <SCORE.INTRA.VDW>
-1.01528

>  <SCORE.INTRA.VDW.0>
0.920594

>  <SCORE.INTRA.norm>
-0.143807

>  <SCORE.RESTR>
0

>  <SCORE.RESTR.CAVITY>
0

>  <SCORE.RESTR.norm>
0

>  <SCORE.SYSTEM>
-22.1298

>  <SCORE.SYSTEM.CONST>
0

>  <SCORE.SYSTEM.DIHEDRAL>
5.80027

>  <SCORE.SYSTEM.POLAR>
-3.47639

>  <SCORE.SYSTEM.SOLV>
0.679713

>  <SCORE.SYSTEM.VDW>
-5.32521

>  <SCORE.SYSTEM.norm>
-1.84415

>  <SCORE.heavy>
12

>  <SCORE.norm>
-5.04761

$$$$
P94524995
 OpenBabel12072022103D
libRbt.so/2013.1/901 2013/11/27
 14 14  0  0  0  0  0  0  0  0999 V2000
   25.0118  -16.8352    4.8195 C   0  0  0  0  0  0  0  0  0  0  0  0
   23.8311  -15.8813    4.8539 C   0  0  0  0  0  0  0  0  0  0  0  0
   22.6386  -16.4895    4.3139 N   0  0  0  0  0  0  0  0  0  0  0  0
   21.4218  -15.8413    4.2853 C   0  0  0  0  0  0  0  0  0  0  0  0
   21.2712  -14.6597    4.5828 O   0  0  0  0  0  0  0  0  0  0  0  0
   20.2705  -16.7135    3.7702 C   0  0  0  0  0  0  0  0  0  0  0  0
   20.1442  -17.9661    4.5518 N   0  0  0  0  0  0  0  0  0  0  0  0
   19.9494  -17.7052    5.9868 C   0  0  0  0  0  0  0  0  0  0  0  0
   19.4594  -19.0530    6.4886 C   0  0  0  0  0  0  0  0  0  0  0  0
   18.5092  -19.5084    5.3908 C   0  0  2  0  0  0  0  0  0  0  0  0
   18.9485  -18.7252    4.1435 C   0  0  0  0  0  0  0  0  0  0  0  0
   17.1779  -19.1602    5.7668 O   0  0  0  0  0  0  0  0  0  0  0  0
   22.5877  -17.4986    4.1979 H   0  0  0  0  0  0  0  0  0  0  0  0
   16.9593  -19.6638    6.5696 H   0  0  0  0  0  0  0  0  0  0  0  0
  1  2  1  0  0  0  0
  2  3  1  0  0  0  0
  3  4  1  0  0  0  0
  3 13  1  0  0  0  0
  4  5  2  0  0  0  0
  4  6  1  0  0  0  0
  6  7  1  0  0  0  0
  7  8  1  0  0  0  0
  7 11  1  0  0  0  0
  8  9  1  0  0  0  0
  9 10  1  0  0  0  0
 10 11  1  0  0  0  0
 10 12  1  1  0  0  0
 12 14  1  0  0  0  0
M  END
>  <CHROM.0>
-48.92423206,-59.55158765,-53.88523678,-52.08951388,-55.69882698,56.14651200
-59.78756678,-175.18819160,-166.38174595,159.39211104

>  <CHROM.1>
177.37287254,55.61716827,57.17370104,-63.98458387,20.70382492,-17.38395004
4.92845804,-0.54719122,0.08933899,2.69842399

>  <Name>
P94524995

>  <RI>
0

>  <Rbt.Current_Directory>
/home/fstefaniak/projects/zuza/docking/adenine/1Y26

>  <Rbt.Executable>
rbdock ($Id: //depot/dev/client3/rdock/2013.1/src/exe/rbdock.cxx#4 $)

>  <Rbt.Library>
libRbt.so (2013.1, Build901 2013/11/27)

>  <Rbt.Parameter_File>
/home/fstefaniak/progs/rDock//data/scripts/dock_solv.prm

>  <Rbt.Receptor>
1y26.prm

>  <SCORE>
-51.3831

>  <SCORE.INTER>
-31.0308

>  <SCORE.INTER.CONST>
1

>  <SCORE.INTER.POLAR>
-2.53295

>  <SCORE.INTER.ROT>
3

>  <SCORE.INTER.SOLV>
14.6249

>  <SCORE.INTER.VDW>
-22.719

>  <SCORE.INTER.norm>
-2.5859

>  <SCORE.INTRA>
1.39741

>  <SCORE.INTRA.DIHEDRAL>
0.339193

>  <SCORE.INTRA.DIHEDRAL.0>
2.19065

>  <SCORE.INTRA.POLAR>
0.170251

>  <SCORE.INTRA.POLAR.0>
-0.175644

>  <SCORE.INTRA.REPUL>
0

>  <SCORE.INTRA.REPUL.0>
0

>  <SCORE.INTRA.SOLV>
-0.29063

>  <SCORE.INTRA.SOLV.lig_0>
-17.6086

>  <SCORE.INTRA.VDW>
0.794275

>  <SCORE.INTRA.VDW.0>
-0.952511

>  <SCORE.INTRA.norm>
0.116451

>  <SCORE.RESTR>
0

>  <SCORE.RESTR.CAVITY>
0

>  <SCORE.RESTR.norm>
0

>  <SCORE.SYSTEM>
-21.7497

>  <SCORE.SYSTEM.CONST>
0

>  <SCORE.SYSTEM.DIHEDRAL>
5.95121

>  <SCORE.SYSTEM.POLAR>
-3.50865

>  <SCORE.SYSTEM.SOLV>
0.296887

>  <SCORE.SYSTEM.VDW>
-4.887

>  <SCORE.SYSTEM.norm>
-1.81248

>  <SCORE.heavy>
12

>  <SCORE.norm>
-4.28192

$$$$
P94524995
 OpenBabel12072022103D
libRbt.so/2013.1/901 2013/11/27
 14 14  0  0  0  0  0  0  0  0999 V2000
   22.5631  -12.4878    4.0926 C   0  0  0  0  0  0  0  0  0  0  0  0
   22.8374  -13.9802    4.0434 C   0  0  0  0  0  0  0  0  0  0  0  0
   21.6187  -14.7419    3.9087 N   0  0  0  0  0  0  0  0  0  0  0  0
   21.5407  -16.0813    4.2278 C   0  0  0  0  0  0  0  0  0  0  0  0
   22.4444  -16.7056    4.7765 O   0  0  0  0  0  0  0  0  0  0  0  0
   20.1820  -16.7142    3.9039 C   0  0  0  0  0  0  0  0  0  0  0  0
   20.0127  -18.0191    4.5854 N   0  0  0  0  0  0  0  0  0  0  0  0
   19.9672  -17.8767    6.0492 C   0  0  0  0  0  0  0  0  0  0  0  0
   19.4042  -19.2207    6.4794 C   0  0  0  0  0  0  0  0  0  0  0  0
   18.3255  -19.4943    5.4415 C   0  0  2  0  0  0  0  0  0  0  0  0
   18.7232  -18.6378    4.2290 C   0  0  0  0  0  0  0  0  0  0  0  0
   17.0682  -19.0753    5.9694 O   0  0  0  0  0  0  0  0  0  0  0  0
   20.8647  -14.3990    3.3186 H   0  0  0  0  0  0  0  0  0  0  0  0
   16.8991  -19.5977    6.7722 H   0  0  0  0  0  0  0  0  0  0  0  0
  1  2  1  0  0  0  0
  2  3  1  0  0  0  0
  3  4  1  0  0  0  0
  3 13  1  0  0  0  0
  4  5  2  0  0  0  0
  4  6  1  0  0  0  0
  6  7  1  0  0  0  0
  7  8  1  0  0  0  0
  7 11  1  0  0  0  0
  8  9  1  0  0  0  0
  9 10  1  0  0  0  0
 10 11  1  0  0  0  0
 10 12  1  1  0  0  0
 12 14  1  0  0  0  0
M  END
>  <CHROM.0>
-52.31929691,-60.96637005,-54.43226994,-54.30353519,-56.42443266,-57.20320247
-55.39147395,-50.31698327,-168.44144465,161.02332684

>  <CHROM.1>
-160.50374288,-164.44841764,65.24998806,-60.91737089,20.36966764,-16.91167560
4.82363982,0.90294795,-0.19262069,-0.45275645

>  <Name>
P94524995

>  <RI>
0

>  <Rbt.Current_Directory>
/home/fstefaniak/projects/zuza/docking/adenine/1Y26

>  <Rbt.Executable>
rbdock ($Id: //depot/dev/client3/rdock/2013.1/src/exe/rbdock.cxx#4 $)

>  <Rbt.Library>
libRbt.so (2013.1, Build901 2013/11/27)

>  <Rbt.Parameter_File>
/home/fstefaniak/progs/rDock//data/scripts/dock_solv.prm

>  <Rbt.Receptor>
1y26.prm

>  <SCORE>
-51.289

>  <SCORE.INTER>
-30.2383

>  <SCORE.INTER.CONST>
1

>  <SCORE.INTER.POLAR>
-3.07355

>  <SCORE.INTER.ROT>
3

>  <SCORE.INTER.SOLV>
13.2043

>  <SCORE.INTER.VDW>
-19.9151

>  <SCORE.INTER.norm>
-2.51986

>  <SCORE.INTRA>
1.0968

>  <SCORE.INTRA.DIHEDRAL>
-0.0439903

>  <SCORE.INTRA.DIHEDRAL.0>
2.19065

>  <SCORE.INTRA.POLAR>
0.175644

>  <SCORE.INTRA.POLAR.0>
-0.175644

>  <SCORE.INTRA.REPUL>
0

>  <SCORE.INTRA.REPUL.0>
0

>  <SCORE.INTRA.SOLV>
-0.77289

>  <SCORE.INTRA.SOLV.lig_0>
-17.6086

>  <SCORE.INTRA.VDW>
0.908051

>  <SCORE.INTRA.VDW.0>
-0.952511

>  <SCORE.INTRA.norm>
0.0914

>  <SCORE.RESTR>
0

>  <SCORE.RESTR.CAVITY>
0

>  <SCORE.RESTR.norm>
0

>  <SCORE.SYSTEM>
-22.1474

>  <SCORE.SYSTEM.CONST>
0

>  <SCORE.SYSTEM.DIHEDRAL>
5.39253

>  <SCORE.SYSTEM.POLAR>
-3.41292

>  <SCORE.SYSTEM.SOLV>
0.675428

>  <SCORE.SYSTEM.VDW>
-5.4112

>  <SCORE.SYSTEM.norm>
-1.84562

>  <SCORE.heavy>
12

>  <SCORE.norm>
-4.27408

$$$$
P94524995
 OpenBabel12072022103D
libRbt.so/2013.1/901 2013/11/27
 14 14  0  0  0  0  0  0  0  0999 V2000
   22.6858  -12.5757    4.1930 C   0  0  0  0  0  0  0  0  0  0  0  0
   22.9013  -14.0437    3.8709 C   0  0  0  0  0  0  0  0  0  0  0  0
   21.6534  -14.7674    3.8222 N   0  0  0  0  0  0  0  0  0  0  0  0
   21.5454  -16.0885    4.2028 C   0  0  0  0  0  0  0  0  0  0  0  0
   22.4515  -16.7201    4.7390 O   0  0  0  0  0  0  0  0  0  0  0  0
   20.1535  -16.6868    3.9655 C   0  0  0  0  0  0  0  0  0  0  0  0
   20.0043  -18.0007    4.6344 N   0  0  0  0  0  0  0  0  0  0  0  0
   19.9379  -17.8714    6.0986 C   0  0  0  0  0  0  0  0  0  0  0  0
   19.3990  -19.2308    6.5110 C   0  0  0  0  0  0  0  0  0  0  0  0
   18.3391  -19.5189    5.4578 C   0  0  2  0  0  0  0  0  0  0  0  0
   18.7328  -18.6439    4.2572 C   0  0  0  0  0  0  0  0  0  0  0  0
   17.0668  -19.1315    5.9736 O   0  0  0  0  0  0  0  0  0  0  0  0
   20.8857  -14.4237    3.2505 H   0  0  0  0  0  0  0  0  0  0  0  0
   16.8926  -19.6745    6.7615 H   0  0  0  0  0  0  0  0  0  0  0  0
  1  2  1  0  0  0  0
  2  3  1  0  0  0  0
  3  4  1  0  0  0  0
  3 13  1  0  0  0  0
  4  5  2  0  0  0  0
  4  6  1  0  0  0  0
  6  7  1  0  0  0  0
  7  8  1  0  0  0  0
  7 11  1  0  0  0  0
  8  9  1  0  0  0  0
  9 10  1  0  0  0  0
 10 11  1  0  0  0  0
 10 12  1  1  0  0  0
 12 14  1  0  0  0  0
M  END
>  <CHROM.0>
-52.58902273,-61.50857673,-60.09078165,-52.74352350,-179.19102611,-67.89298836
-61.49836200,-52.97816959,-167.91734933,160.64286933

>  <CHROM.1>
-147.13477264,-168.37432727,70.65628036,-61.84504384,20.38533609,-16.93326958
4.82515629,0.88488447,-0.23412176,-0.50356166

>  <Name>
P94524995

>  <RI>
0

>  <Rbt.Current_Directory>
/home/fstefaniak/projects/zuza/docking/adenine/1Y26

>  <Rbt.Executable>
rbdock ($Id: //depot/dev/client3/rdock/2013.1/src/exe/rbdock.cxx#4 $)

>  <Rbt.Library>
libRbt.so (2013.1, Build901 2013/11/27)

>  <Rbt.Parameter_File>
/home/fstefaniak/progs/rDock//data/scripts/dock_solv.prm

>  <Rbt.Receptor>
1y26.prm

>  <SCORE>
-51.2608

>  <SCORE.INTER>
-30.0315

>  <SCORE.INTER.CONST>
1

>  <SCORE.INTER.POLAR>
-3.08656

>  <SCORE.INTER.ROT>
3

>  <SCORE.INTER.SOLV>
13.257

>  <SCORE.INTER.VDW>
-19.7514

>  <SCORE.INTER.norm>
-2.50262

>  <SCORE.INTRA>
0.911597

>  <SCORE.INTRA.DIHEDRAL>
0.175798

>  <SCORE.INTRA.DIHEDRAL.0>
2.19065

>  <SCORE.INTRA.POLAR>
0.175644

>  <SCORE.INTRA.POLAR.0>
-0.175644

>  <SCORE.INTRA.REPUL>
0

>  <SCORE.INTRA.REPUL.0>
0

>  <SCORE.INTRA.SOLV>
-0.795959

>  <SCORE.INTRA.SOLV.lig_0>
-17.6086

>  <SCORE.INTRA.VDW>
0.624489

>  <SCORE.INTRA.VDW.0>
-0.952511

>  <SCORE.INTRA.norm>
0.0759664

>  <SCORE.RESTR>
0

>  <SCORE.RESTR.CAVITY>
0

>  <SCORE.RESTR.norm>
0

>  <SCORE.SYSTEM>
-22.141

>  <SCORE.SYSTEM.CONST>
0

>  <SCORE.SYSTEM.DIHEDRAL>
5.33386

>  <SCORE.SYSTEM.POLAR>
-3.40047

>  <SCORE.SYSTEM.SOLV>
0.464272

>  <SCORE.SYSTEM.VDW>
-5.35844

>  <SCORE.SYSTEM.norm>
-1.84508

>  <SCORE.heavy>
12

>  <SCORE.norm>
-4.27174

$$$$
P94526040
 OpenBabel12072022103D
libRbt.so/2013.1/901 2013/11/27
 14 14  0  0  0  0  0  0  0  0999 V2000
   20.3453  -16.2236    3.7217 C   0  0  0  0  0  0  0  0  0  0  0  0
   20.3820  -17.7340    3.4731 C   0  0  2  0  0  0  0  0  0  0  0  0
   19.9098  -18.0606    2.0372 C   0  0  0  0  0  0  0  0  0  0  0  0
   18.7384  -18.1475    1.6856 O   0  0  0  0  0  0  0  0  0  0  0  0
   20.9268  -18.1866    1.1276 N   0  0  0  0  0  0  0  0  0  0  0  0
   19.6428  -18.5808    4.4389 N   0  0  0  0  0  0  0  0  0  0  0  0
   20.0928  -18.4513    5.8224 C   0  0  0  0  0  0  0  0  0  0  0  0
   19.0136  -19.2037    6.5764 C   0  0  0  0  0  0  0  0  0  0  0  0
   17.7370  -18.7591    5.8790 C   0  0  1  0  0  0  0  0  0  0  0  0
   18.1782  -18.4268    4.4444 C   0  0  0  0  0  0  0  0  0  0  0  0
   16.7526  -19.7796    5.9162 O   0  0  0  0  0  0  0  0  0  0  0  0
   21.2014  -19.1338    0.8872 H   0  0  0  0  0  0  0  0  0  0  0  0
   20.9976  -17.4691    0.4206 H   0  0  0  0  0  0  0  0  0  0  0  0
   16.7442  -20.1431    6.8182 H   0  0  0  0  0  0  0  0  0  0  0  0
  2  3  1  0  0  0  0
  2  6  1  0  0  0  0
  2  1  1  1  0  0  0
  3  4  2  0  0  0  0
  3  5  1  0  0  0  0
  5 12  1  0  0  0  0
  5 13  1  0  0  0  0
  6  7  1  0  0  0  0
  6 10  1  0  0  0  0
  7  8  1  0  0  0  0
  8  9  1  0  0  0  0
  9 10  1  0  0  0  0
  9 11  1  6  0  0  0
 11 14  1  0  0  0  0
M  END
>  <CHROM.0>
-55.36309664,-66.55840293,-59.47562747,-53.13574856,-58.48414325,-61.89170254
-62.81993389,-175.31544214,-168.92940106,161.26899430

>  <CHROM.1>
-81.91786753,-59.14729136,100.75962214,44.49015291,19.21808506,-18.34127762
4.08481920,-1.00653289,0.51055909,1.60597842

>  <Name>
P94526040

>  <RI>
0

>  <Rbt.Current_Directory>
/home/fstefaniak/projects/zuza/docking/adenine/1Y26

>  <Rbt.Executable>
rbdock ($Id: //depot/dev/client3/rdock/2013.1/src/exe/rbdock.cxx#4 $)

>  <Rbt.Library>
libRbt.so (2013.1, Build901 2013/11/27)

>  <Rbt.Parameter_File>
/home/fstefaniak/progs/rDock//data/scripts/dock_solv.prm

>  <Rbt.Receptor>
1y26.prm

>  <SCORE>
-46.9236

>  <SCORE.INTER>
-25.5773

>  <SCORE.INTER.CONST>
1

>  <SCORE.INTER.POLAR>
-4.24605

>  <SCORE.INTER.ROT>
3

>  <SCORE.INTER.SOLV>
15.6147

>  <SCORE.INTER.VDW>
-13.7029

>  <SCORE.INTER.norm>
-2.3252

>  <SCORE.INTRA>
1.23857

>  <SCORE.INTRA.DIHEDRAL>
2.03203

>  <SCORE.INTRA.DIHEDRAL.0>
1.56335

>  <SCORE.INTRA.POLAR>
0.0716951

>  <SCORE.INTRA.POLAR.0>
-0.0716951

>  <SCORE.INTRA.REPUL>
0

>  <SCORE.INTRA.REPUL.0>
0

>  <SCORE.INTRA.SOLV>
-0.379333

>  <SCORE.INTRA.SOLV.lig_0>
-16.709

>  <SCORE.INTRA.VDW>
0.168457

>  <SCORE.INTRA.VDW.0>
1.47335

>  <SCORE.INTRA.norm>
0.112597

>  <SCORE.RESTR>
0

>  <SCORE.RESTR.CAVITY>
0

>  <SCORE.RESTR.norm>
0

>  <SCORE.SYSTEM>
-22.5849

>  <SCORE.SYSTEM.CONST>
0

>  <SCORE.SYSTEM.DIHEDRAL>
4.79978

>  <SCORE.SYSTEM.POLAR>
-3.30048

>  <SCORE.SYSTEM.SOLV>
0.420377

>  <SCORE.SYSTEM.VDW>
-5.79505

>  <SCORE.SYSTEM.norm>
-2.05317

>  <SCORE.heavy>
11

>  <SCORE.norm>
-4.26578

$$$$
P94526040
 OpenBabel12072022103D
libRbt.so/2013.1/901 2013/11/27
 14 14  0  0  0  0  0  0  0  0999 V2000
   21.0526  -16.1734    3.6709 C   0  0  0  0  0  0  0  0  0  0  0  0
   20.5543  -17.6169    3.5582 C   0  0  2  0  0  0  0  0  0  0  0  0
   19.9785  -17.8849    2.1483 C   0  0  0  0  0  0  0  0  0  0  0  0
   18.7919  -17.8110    1.8483 O   0  0  0  0  0  0  0  0  0  0  0  0
   20.9270  -18.1572    1.1976 N   0  0  0  0  0  0  0  0  0  0  0  0
   19.5782  -18.0608    4.5812 N   0  0  0  0  0  0  0  0  0  0  0  0
   19.0660  -19.4136    4.3792 C   0  0  0  0  0  0  0  0  0  0  0  0
   18.3284  -19.6685    5.6794 C   0  0  0  0  0  0  0  0  0  0  0  0
   19.2671  -19.0847    6.7242 C   0  0  1  0  0  0  0  0  0  0  0  0
   20.0249  -17.9722    5.9817 C   0  0  0  0  0  0  0  0  0  0  0  0
   18.5450  -18.5908    7.8407 O   0  0  0  0  0  0  0  0  0  0  0  0
   21.0750  -19.1369    0.9766 H   0  0  0  0  0  0  0  0  0  0  0  0
   21.0474  -17.4733    0.4646 H   0  0  0  0  0  0  0  0  0  0  0  0
   17.9244  -17.9182    7.5114 H   0  0  0  0  0  0  0  0  0  0  0  0
  2  3  1  0  0  0  0
  2  6  1  0  0  0  0
  2  1  1  6  0  0  0
  3  4  2  0  0  0  0
  3  5  1  0  0  0  0
  5 12  1  0  0  0  0
  5 13  1  0  0  0  0
  6  7  1  0  0  0  0
  6 10  1  0  0  0  0
  7  8  1  0  0  0  0
  8  9  1  0  0  0  0
  9 10  1  0  0  0  0
  9 11  1  1  0  0  0
 11 14  1  0  0  0  0
M  END
>  <CHROM.0>
-52.44899349,-61.73821728,-55.19631433,-51.22138142,-56.40380025,-58.29834945
-55.36734042,-51.94296937,-166.65718291,161.06961726

>  <CHROM.1>
-95.58333164,176.11002041,99.13636371,-58.22912503,19.63058012,-18.20953337
4.32893386,-1.14150924,0.84738886,1.47804017

>  <Name>
P94526040

>  <RI>
0

>  <Rbt.Current_Directory>
/home/fstefaniak/projects/zuza/docking/adenine/1Y26

>  <Rbt.Executable>
rbdock ($Id: //depot/dev/client3/rdock/2013.1/src/exe/rbdock.cxx#4 $)

>  <Rbt.Library>
libRbt.so (2013.1, Build901 2013/11/27)

>  <Rbt.Parameter_File>
/home/fstefaniak/progs/rDock//data/scripts/dock_solv.prm

>  <Rbt.Receptor>
1y26.prm

>  <SCORE>
-46.4161

>  <SCORE.INTER>
-24.0242

>  <SCORE.INTER.CONST>
1

>  <SCORE.INTER.POLAR>
-3.68658

>  <SCORE.INTER.ROT>
3

>  <SCORE.INTER.SOLV>
15.574

>  <SCORE.INTER.VDW>
-14.5189

>  <SCORE.INTER.norm>
-2.18402

>  <SCORE.INTRA>
-0.163242

>  <SCORE.INTRA.DIHEDRAL>
0.361343

>  <SCORE.INTRA.DIHEDRAL.0>
1.56335

>  <SCORE.INTRA.POLAR>
0.0716951

>  <SCORE.INTRA.POLAR.0>
-0.0716951

>  <SCORE.INTRA.REPUL>
0

>  <SCORE.INTRA.REPUL.0>
0

>  <SCORE.INTRA.SOLV>
-0.247062

>  <SCORE.INTRA.SOLV.lig_0>
-16.709

>  <SCORE.INTRA.VDW>
-0.464146

>  <SCORE.INTRA.VDW.0>
1.47335

>  <SCORE.INTRA.norm>
-0.0148402

>  <SCORE.RESTR>
0

>  <SCORE.RESTR.CAVITY>
0

>  <SCORE.RESTR.norm>
0

>  <SCORE.SYSTEM>
-22.2286

>  <SCORE.SYSTEM.CONST>
0

>  <SCORE.SYSTEM.DIHEDRAL>
5.58903

>  <SCORE.SYSTEM.POLAR>
-3.4735

>  <SCORE.SYSTEM.SOLV>
0.675157

>  <SCORE.SYSTEM.VDW>
-5.32882

>  <SCORE.SYSTEM.norm>
-2.02079

>  <SCORE.heavy>
11

>  <SCORE.norm>
-4.21964

$$$$
P94526040
 OpenBabel12072022103D
libRbt.so/2013.1/901 2013/11/27
 14 14  0  0  0  0  0  0  0  0999 V2000
   20.1621  -16.5263    3.4168 C   0  0  0  0  0  0  0  0  0  0  0  0
   19.9455  -18.0041    3.0794 C   0  0  2  0  0  0  0  0  0  0  0  0
   19.2054  -18.1510    1.7297 C   0  0  0  0  0  0  0  0  0  0  0  0
   17.9988  -18.0027    1.5703 O   0  0  0  0  0  0  0  0  0  0  0  0
   20.0284  -18.4030    0.6634 N   0  0  0  0  0  0  0  0  0  0  0  0
   19.2614  -18.8232    4.1077 N   0  0  0  0  0  0  0  0  0  0  0  0
   19.9603  -18.8903    5.3885 C   0  0  0  0  0  0  0  0  0  0  0  0
   18.9237  -19.5477    6.2788 C   0  0  0  0  0  0  0  0  0  0  0  0
   17.6318  -18.8610    5.8629 C   0  0  1  0  0  0  0  0  0  0  0  0
   17.8633  -18.4620    4.3965 C   0  0  0  0  0  0  0  0  0  0  0  0
   16.5202  -19.7288    6.0151 O   0  0  0  0  0  0  0  0  0  0  0  0
   20.6439  -17.6469    0.3808 H   0  0  0  0  0  0  0  0  0  0  0  0
   20.3475  -19.3541    0.5487 H   0  0  0  0  0  0  0  0  0  0  0  0
   16.5878  -20.1368    6.8953 H   0  0  0  0  0  0  0  0  0  0  0  0
  2  3  1  0  0  0  0
  2  6  1  0  0  0  0
  2  1  1  1  0  0  0
  3  4  2  0  0  0  0
  3  5  1  0  0  0  0
  5 12  1  0  0  0  0
  5 13  1  0  0  0  0
  6  7  1  0  0  0  0
  6 10  1  0  0  0  0
  7  8  1  0  0  0  0
  8  9  1  0  0  0  0
  9 10  1  0  0  0  0
  9 11  1  6  0  0  0
 11 14  1  0  0  0  0
M  END
>  <CHROM.0>
-53.24986495,-176.49490101,-54.19036736,-52.01783534,-55.07973402,-61.01817081
-56.94386588,-52.30156349,-166.97282415,161.32822101

>  <CHROM.1>
-78.69654479,-60.55520121,-68.50630916,47.29321170,18.83466940,-18.50340232
3.85565443,-1.17681404,0.33251422,1.75358697

>  <Name>
P94526040

>  <RI>
0

>  <Rbt.Current_Directory>
/home/fstefaniak/projects/zuza/docking/adenine/1Y26

>  <Rbt.Executable>
rbdock ($Id: //depot/dev/client3/rdock/2013.1/src/exe/rbdock.cxx#4 $)

>  <Rbt.Library>
libRbt.so (2013.1, Build901 2013/11/27)

>  <Rbt.Parameter_File>
/home/fstefaniak/progs/rDock//data/scripts/dock_solv.prm

>  <Rbt.Receptor>
1y26.prm

>  <SCORE>
-45.3689

>  <SCORE.INTER>
-23.9076

>  <SCORE.INTER.CONST>
1

>  <SCORE.INTER.POLAR>
-4.15333

>  <SCORE.INTER.ROT>
3

>  <SCORE.INTER.SOLV>
16.1827

>  <SCORE.INTER.VDW>
-13.0882

>  <SCORE.INTER.norm>
-2.17342

>  <SCORE.INTRA>
0.880882

>  <SCORE.INTRA.DIHEDRAL>
1.79133

>  <SCORE.INTRA.DIHEDRAL.0>
1.56335

>  <SCORE.INTRA.POLAR>
0.0716951

>  <SCORE.INTRA.POLAR.0>
-0.0716951

>  <SCORE.INTRA.REPUL>
0

>  <SCORE.INTRA.REPUL.0>
0

>  <SCORE.INTRA.SOLV>
-0.391141

>  <SCORE.INTRA.SOLV.lig_0>
-16.709

>  <SCORE.INTRA.VDW>
-0.0629756

>  <SCORE.INTRA.VDW.0>
1.47335

>  <SCORE.INTRA.norm>
0.0800802

>  <SCORE.RESTR>
0

>  <SCORE.RESTR.CAVITY>
0

>  <SCORE.RESTR.norm>
0

>  <SCORE.SYSTEM>
-22.3422

>  <SCORE.SYSTEM.CONST>
0

>  <SCORE.SYSTEM.DIHEDRAL>
5.45556

>  <SCORE.SYSTEM.POLAR>
-3.43453

>  <SCORE.SYSTEM.SOLV>
0.610066

>  <SCORE.SYSTEM.VDW>
-5.46823

>  <SCORE.SYSTEM.norm>
-2.03111

>  <SCORE.heavy>
11

>  <SCORE.norm>
-4.12444

$$$$
P94526490
 OpenBabel12072022103D
libRbt.so/2013.1/901 2013/11/27
 11 12  0  0  0  0  0  0  0  0999 V2000
   22.8904  -13.6894    4.8340 C   0  0  0  0  0  0  0  0  0  0  0  0
   21.6377  -14.5594    4.7288 C   0  0  0  0  0  0  0  0  0  0  0  0
   22.0870  -15.7984    4.0786 N   0  0  0  0  0  0  0  0  0  0  0  0
   23.4478  -16.0173    4.5991 C   0  0  0  0  0  0  0  0  0  0  0  0
   24.0417  -14.6172    4.4640 C   0  0  1  0  0  0  0  0  0  0  0  0
   24.4155  -14.3806    3.1040 O   0  0  0  0  0  0  0  0  0  0  0  0
   21.1732  -16.9117    4.3496 C   0  0  0  0  0  0  0  0  0  0  0  0
   19.8592  -16.6873    3.6681 C   0  0  2  0  0  0  0  0  0  0  0  0
   18.9827  -17.8428    3.2637 C   0  0  0  0  0  0  0  0  0  0  0  0
   19.8009  -17.1479    2.3102 O   0  0  0  0  0  0  0  0  0  0  0  0
   25.2696  -14.8420    2.9892 H   0  0  0  0  0  0  0  0  0  0  0  0
  1  2  1  0  0  0  0
  1  5  1  0  0  0  0
  2  3  1  0  0  0  0
  3  4  1  0  0  0  0
  3  7  1  0  0  0  0
  4  5  1  0  0  0  0
  5  6  1  6  0  0  0
  6 11  1  0  0  0  0
  8  9  1  0  0  0  0
  8 10  1  0  0  0  0
  8  7  1  1  0  0  0
  9 10  1  0  0  0  0
M  END
>  <CHROM.0>
-49.14628128,-62.73351620,-56.13281649,-53.45858476,-55.98310708,-57.79887274
-63.16503075,-52.87477978,-168.39032737,160.50096654

>  <CHROM.1>
68.32702237,167.43607001,153.19620947,21.86368321,-15.76024407,3.89757122
0.52727292,0.35736550,0.87599272

>  <Name>
P94526490

>  <RI>
0

>  <Rbt.Current_Directory>
/home/fstefaniak/projects/zuza/docking/adenine/1Y26

>  <Rbt.Executable>
rbdock ($Id: //depot/dev/client3/rdock/2013.1/src/exe/rbdock.cxx#4 $)

>  <Rbt.Library>
libRbt.so (2013.1, Build901 2013/11/27)

>  <Rbt.Parameter_File>
/home/fstefaniak/progs/rDock//data/scripts/dock_solv.prm

>  <Rbt.Receptor>
1y26.prm

>  <SCORE>
-48.7205

>  <SCORE.INTER>
-26.2228

>  <SCORE.INTER.CONST>
1

>  <SCORE.INTER.POLAR>
-2.8269

>  <SCORE.INTER.ROT>
2

>  <SCORE.INTER.SOLV>
8.52636

>  <SCORE.INTER.VDW>
-15.8343

>  <SCORE.INTER.norm>
-2.62228

>  <SCORE.INTRA>
-0.206331

>  <SCORE.INTRA.DIHEDRAL>
0.0984678

>  <SCORE.INTRA.DIHEDRAL.0>
3.67346

>  <SCORE.INTRA.POLAR>
0.047351

>  <SCORE.INTRA.POLAR.0>
-0.047351

>  <SCORE.INTRA.REPUL>
0

>  <SCORE.INTRA.REPUL.0>
0

>  <SCORE.INTRA.SOLV>
0.0435408

>  <SCORE.INTRA.SOLV.lig_0>
-11.6873

>  <SCORE.INTRA.VDW>
-0.438328

>  <SCORE.INTRA.VDW.0>
0.492532

>  <SCORE.INTRA.norm>
-0.0206331

>  <SCORE.RESTR>
0

>  <SCORE.RESTR.CAVITY>
0

>  <SCORE.RESTR.norm>
0

>  <SCORE.SYSTEM>
-22.2914

>  <SCORE.SYSTEM.CONST>
0

>  <SCORE.SYSTEM.DIHEDRAL>
5.50833

>  <SCORE.SYSTEM.POLAR>
-3.45273

>  <SCORE.SYSTEM.SOLV>
0.654977

>  <SCORE.SYSTEM.VDW>
-5.40626

>  <SCORE.SYSTEM.norm>
-2.22914

>  <SCORE.heavy>
10

>  <SCORE.norm>
-4.87205

$$$$
P94526490
 OpenBabel12072022103D
libRbt.so/2013.1/901 2013/11/27
 11 12  0  0  0  0  0  0  0  0999 V2000
   22.9409  -13.7000    4.8587 C   0  0  0  0  0  0  0  0  0  0  0  0
   21.6596  -14.5309    4.7855 C   0  0  0  0  0  0  0  0  0  0  0  0
   22.0585  -15.7918    4.1448 N   0  0  0  0  0  0  0  0  0  0  0  0
   23.4202  -16.0473    4.6462 C   0  0  0  0  0  0  0  0  0  0  0  0
   24.0559  -14.6688    4.4827 C   0  0  1  0  0  0  0  0  0  0  0  0
   24.4144  -14.4618    3.1138 O   0  0  0  0  0  0  0  0  0  0  0  0
   21.1145  -16.8718    4.4455 C   0  0  0  0  0  0  0  0  0  0  0  0
   19.8463  -16.6883    3.6713 C   0  0  2  0  0  0  0  0  0  0  0  0
   18.9963  -17.8663    3.2757 C   0  0  0  0  0  0  0  0  0  0  0  0
   19.8735  -17.2220    2.3394 O   0  0  0  0  0  0  0  0  0  0  0  0
   25.2688  -14.9230    3.0003 H   0  0  0  0  0  0  0  0  0  0  0  0
  1  2  1  0  0  0  0
  1  5  1  0  0  0  0
  2  3  1  0  0  0  0
  3  4  1  0  0  0  0
  3  7  1  0  0  0  0
  4  5  1  0  0  0  0
  5  6  1  6  0  0  0
  6 11  1  0  0  0  0
  8  9  1  0  0  0  0
  8 10  1  0  0  0  0
  8  7  1  1  0  0  0
  9 10  1  0  0  0  0
M  END
>  <CHROM.0>
-51.31088435,-60.56483343,-58.45499346,-54.25504581,-57.33087862,-59.81397708
-60.52166475,63.15569680,-166.88826287,160.72471024

>  <CHROM.1>
74.13535731,165.32179840,151.66218033,21.86897337,-15.78189223,3.93361270
0.52495830,0.36502946,0.89023627

>  <Name>
P94526490

>  <RI>
0

>  <Rbt.Current_Directory>
/home/fstefaniak/projects/zuza/docking/adenine/1Y26

>  <Rbt.Executable>
rbdock ($Id: //depot/dev/client3/rdock/2013.1/src/exe/rbdock.cxx#4 $)

>  <Rbt.Library>
libRbt.so (2013.1, Build901 2013/11/27)

>  <Rbt.Parameter_File>
/home/fstefaniak/progs/rDock//data/scripts/dock_solv.prm

>  <Rbt.Receptor>
1y26.prm

>  <SCORE>
-47.9163

>  <SCORE.INTER>
-26.1298

>  <SCORE.INTER.CONST>
1

>  <SCORE.INTER.POLAR>
-2.80605

>  <SCORE.INTER.ROT>
2

>  <SCORE.INTER.SOLV>
8.59291

>  <SCORE.INTER.VDW>
-15.864

>  <SCORE.INTER.norm>
-2.61298

>  <SCORE.INTRA>
-0.266136

>  <SCORE.INTRA.DIHEDRAL>
0.465016

>  <SCORE.INTRA.DIHEDRAL.0>
3.67346

>  <SCORE.INTRA.POLAR>
0.047351

>  <SCORE.INTRA.POLAR.0>
-0.047351

>  <SCORE.INTRA.REPUL>
0

>  <SCORE.INTRA.REPUL.0>
0

>  <SCORE.INTRA.SOLV>
0.0435293

>  <SCORE.INTRA.SOLV.lig_0>
-11.6873

>  <SCORE.INTRA.VDW>
-0.681402

>  <SCORE.INTRA.VDW.0>
0.492532

>  <SCORE.INTRA.norm>
-0.0266136

>  <SCORE.RESTR>
0

>  <SCORE.RESTR.CAVITY>
0

>  <SCORE.RESTR.norm>
0

>  <SCORE.SYSTEM>
-21.5204

>  <SCORE.SYSTEM.CONST>
0

>  <SCORE.SYSTEM.DIHEDRAL>
5.0065

>  <SCORE.SYSTEM.POLAR>
-3.37884

>  <SCORE.SYSTEM.SOLV>
0.418059

>  <SCORE.SYSTEM.VDW>
-4.89231

>  <SCORE.SYSTEM.norm>
-2.15204

>  <SCORE.heavy>
10

>  <SCORE.norm>
-4.79163

$$$$
P94526490
 OpenBabel12072022103D
libRbt.so/2013.1/901 2013/11/27
 11 12  0  0  0  0  0  0  0  0999 V2000
   22.8971  -13.7345    4.9211 C   0  0  0  0  0  0  0  0  0  0  0  0
   21.6440  -14.6028    4.8051 C   0  0  0  0  0  0  0  0  0  0  0  0
   22.0850  -15.8178    4.1060 N   0  0  0  0  0  0  0  0  0  0  0  0
   23.4539  -16.0519    4.5980 C   0  0  0  0  0  0  0  0  0  0  0  0
   24.0439  -14.6469    4.5020 C   0  0  1  0  0  0  0  0  0  0  0  0
   24.3966  -14.3631    3.1455 O   0  0  0  0  0  0  0  0  0  0  0  0
   21.1770  -16.9415    4.3524 C   0  0  0  0  0  0  0  0  0  0  0  0
   19.8838  -16.7377    3.6260 C   0  0  2  0  0  0  0  0  0  0  0  0
   19.0159  -17.9044    3.2358 C   0  0  0  0  0  0  0  0  0  0  0  0
   19.8633  -17.2441    2.2834 O   0  0  0  0  0  0  0  0  0  0  0  0
   25.2481  -14.8209    3.0012 H   0  0  0  0  0  0  0  0  0  0  0  0
  1  2  1  0  0  0  0
  1  5  1  0  0  0  0
  2  3  1  0  0  0  0
  3  4  1  0  0  0  0
  3  7  1  0  0  0  0
  4  5  1  0  0  0  0
  5  6  1  6  0  0  0
  6 11  1  0  0  0  0
  8  9  1  0  0  0  0
  8 10  1  0  0  0  0
  8  7  1  1  0  0  0
  9 10  1  0  0  0  0
M  END
>  <CHROM.0>
-50.34589228,-61.61999399,-53.18631618,-50.38227924,-57.19318593,-58.60572197
-56.62738880,63.56587359,-166.96405564,161.34460025

>  <CHROM.1>
71.98714615,167.59610863,155.07989200,21.87613596,-15.79910056,3.91502112
0.53785830,0.37714704,0.90804911

>  <Name>
P94526490

>  <RI>
0

>  <Rbt.Current_Directory>
/home/fstefaniak/projects/zuza/docking/adenine/1Y26

>  <Rbt.Executable>
rbdock ($Id: //depot/dev/client3/rdock/2013.1/src/exe/rbdock.cxx#4 $)

>  <Rbt.Library>
libRbt.so (2013.1, Build901 2013/11/27)

>  <Rbt.Parameter_File>
/home/fstefaniak/progs/rDock//data/scripts/dock_solv.prm

>  <Rbt.Receptor>
1y26.prm

>  <SCORE>
-47.731

>  <SCORE.INTER>
-26.0874

>  <SCORE.INTER.CONST>
1

>  <SCORE.INTER.POLAR>
-2.81463

>  <SCORE.INTER.ROT>
2

>  <SCORE.INTER.SOLV>
8.49064

>  <SCORE.INTER.VDW>
-15.773

>  <SCORE.INTER.norm>
-2.60874

>  <SCORE.INTRA>
-0.27279

>  <SCORE.INTRA.DIHEDRAL>
0.266471

>  <SCORE.INTRA.DIHEDRAL.0>
3.67346

>  <SCORE.INTRA.POLAR>
0.047351

>  <SCORE.INTRA.POLAR.0>
-0.047351

>  <SCORE.INTRA.REPUL>
0

>  <SCORE.INTRA.REPUL.0>
0

>  <SCORE.INTRA.SOLV>
0.0305057

>  <SCORE.INTRA.SOLV.lig_0>
-11.6873

>  <SCORE.INTRA.VDW>
-0.582272

>  <SCORE.INTRA.VDW.0>
0.492532

>  <SCORE.INTRA.norm>
-0.027279

>  <SCORE.RESTR>
0

>  <SCORE.RESTR.CAVITY>
0

>  <SCORE.RESTR.norm>
0

>  <SCORE.SYSTEM>
-21.3708

>  <SCORE.SYSTEM.CONST>
0

>  <SCORE.SYSTEM.DIHEDRAL>
5.54841

>  <SCORE.SYSTEM.POLAR>
-3.48342

>  <SCORE.SYSTEM.SOLV>
0.445827

>  <SCORE.SYSTEM.VDW>
-4.63389

>  <SCORE.SYSTEM.norm>
-2.13708

>  <SCORE.heavy>
10

>  <SCORE.norm>
-4.7731

$$$$
P94938241
 OpenBabel12072022103D
libRbt.so/2013.1/901 2013/11/27
 15 15  0  0  0  0  0  0  0  0999 V2000
   18.4727  -18.6011    1.2572 C   0  0  0  0  0  0  0  0  0  0  0  0
   18.6173  -18.0738    2.6819 C   0  0  1  0  0  0  0  0  0  0  0  0
   19.0997  -19.2037    3.6130 C   0  0  0  0  0  0  0  0  0  0  0  0
   19.3625  -18.7076    4.9679 N   0  0  0  0  0  0  0  0  0  0  0  0
   20.6289  -17.9848    5.0944 C   0  0  0  0  0  0  0  0  0  0  0  0
   20.4423  -16.4903    4.8711 C   0  0  0  0  0  0  0  0  0  0  0  0
   19.4625  -16.1164    3.7640 C   0  0  0  0  0  0  0  0  0  0  0  0
   19.5438  -16.9722    2.6236 O   0  0  0  0  0  0  0  0  0  0  0  0
   18.4933  -18.7856    6.0264 C   0  0  0  0  0  0  0  0  0  0  0  0
   18.8017  -18.4006    7.2334 N   0  0  0  0  0  0  0  0  0  0  0  0
   17.7204  -18.5753    8.1151 O   0  0  0  0  0  0  0  0  0  0  0  0
   17.2641  -19.2923    5.7325 N   0  0  0  0  0  0  0  0  0  0  0  0
   17.1546  -17.8154    7.8846 H   0  0  0  0  0  0  0  0  0  0  0  0
   16.6529  -19.3015    6.5356 H   0  0  0  0  0  0  0  0  0  0  0  0
   17.4066  -20.2464    5.4070 H   0  0  0  0  0  0  0  0  0  0  0  0
  2  1  1  6  0  0  0
  2  3  1  0  0  0  0
  2  8  1  0  0  0  0
  3  4  1  0  0  0  0
  4  5  1  0  0  0  0
  4  9  1  0  0  0  0
  5  6  1  0  0  0  0
  6  7  1  0  0  0  0
  7  8  1  0  0  0  0
  9 10  2  0  0  0  0
  9 12  1  0  0  0  0
 10 11  1  0  0  0  0
 11 13  1  0  0  0  0
 12 14  1  0  0  0  0
 12 15  1  0  0  0  0
M  END
>  <CHROM.0>
-172.82802992,-60.06167041,-56.51600069,-52.13711584,-51.59668568,-57.79747368
-59.93503540,-50.50005626,-166.14466246,160.85960251

>  <CHROM.1>
-178.15083298,-77.42527869,18.95584428,-18.10555321,4.69043243,1.25485918
-0.81791483,-1.59714909

>  <Name>
P94938241

>  <RI>
0

>  <Rbt.Current_Directory>
/home/fstefaniak/projects/zuza/docking/adenine/1Y26

>  <Rbt.Executable>
rbdock ($Id: //depot/dev/client3/rdock/2013.1/src/exe/rbdock.cxx#4 $)

>  <Rbt.Library>
libRbt.so (2013.1, Build901 2013/11/27)

>  <Rbt.Parameter_File>
/home/fstefaniak/progs/rDock//data/scripts/dock_solv.prm

>  <Rbt.Receptor>
1y26.prm

>  <SCORE>
-41.6584

>  <SCORE.INTER>
-20.892

>  <SCORE.INTER.CONST>
1

>  <SCORE.INTER.POLAR>
-4.8027

>  <SCORE.INTER.ROT>
1

>  <SCORE.INTER.SOLV>
13.5658

>  <SCORE.INTER.VDW>
-6.7076

>  <SCORE.INTER.norm>
-1.741

>  <SCORE.INTRA>
0.282191

>  <SCORE.INTRA.DIHEDRAL>
-1.88124

>  <SCORE.INTRA.DIHEDRAL.0>
2.45565

>  <SCORE.INTRA.POLAR>
0.260211

>  <SCORE.INTRA.POLAR.0>
-0.261431

>  <SCORE.INTRA.REPUL>
0

>  <SCORE.INTRA.REPUL.0>
0

>  <SCORE.INTRA.SOLV>
0.0254428

>  <SCORE.INTRA.SOLV.lig_0>
-10.6076

>  <SCORE.INTRA.VDW>
0.32537

>  <SCORE.INTRA.VDW.0>
-0.381057

>  <SCORE.INTRA.norm>
0.0235159

>  <SCORE.RESTR>
0

>  <SCORE.RESTR.CAVITY>
0

>  <SCORE.RESTR.norm>
0

>  <SCORE.SYSTEM>
-21.0486

>  <SCORE.SYSTEM.CONST>
0

>  <SCORE.SYSTEM.DIHEDRAL>
5.79178

>  <SCORE.SYSTEM.POLAR>
-3.26689

>  <SCORE.SYSTEM.SOLV>
0.616705

>  <SCORE.SYSTEM.VDW>
-5.27892

>  <SCORE.SYSTEM.norm>
-1.75405

>  <SCORE.heavy>
12

>  <SCORE.norm>
-3.47153

$$$$
P94938241
 OpenBabel12072022103D
libRbt.so/2013.1/901 2013/11/27
 15 15  0  0  0  0  0  0  0  0999 V2000
   18.4224  -18.6038    1.2599 C   0  0  0  0  0  0  0  0  0  0  0  0
   18.5823  -18.0810    2.6847 C   0  0  1  0  0  0  0  0  0  0  0  0
   19.0693  -19.2153    3.6080 C   0  0  0  0  0  0  0  0  0  0  0  0
   19.3466  -18.7239    4.9618 N   0  0  0  0  0  0  0  0  0  0  0  0
   20.6169  -18.0061    5.0783 C   0  0  0  0  0  0  0  0  0  0  0  0
   20.4337  -16.5103    4.8609 C   0  0  0  0  0  0  0  0  0  0  0  0
   19.4449  -16.1297    3.7641 C   0  0  0  0  0  0  0  0  0  0  0  0
   19.5124  -16.9826    2.6206 O   0  0  0  0  0  0  0  0  0  0  0  0
   18.4872  -18.8017    6.0282 C   0  0  0  0  0  0  0  0  0  0  0  0
   18.8084  -18.4212    7.2332 N   0  0  0  0  0  0  0  0  0  0  0  0
   17.7348  -18.5944    8.1246 O   0  0  0  0  0  0  0  0  0  0  0  0
   17.2534  -19.3031    5.7445 N   0  0  0  0  0  0  0  0  0  0  0  0
   17.1751  -17.8255    7.9093 H   0  0  0  0  0  0  0  0  0  0  0  0
   16.6611  -19.3442    6.5606 H   0  0  0  0  0  0  0  0  0  0  0  0
   17.3919  -20.2440    5.3813 H   0  0  0  0  0  0  0  0  0  0  0  0
  2  1  1  6  0  0  0
  2  3  1  0  0  0  0
  2  8  1  0  0  0  0
  3  4  1  0  0  0  0
  4  5  1  0  0  0  0
  4  9  1  0  0  0  0
  5  6  1  0  0  0  0
  6  7  1  0  0  0  0
  7  8  1  0  0  0  0
  9 10  2  0  0  0  0
  9 12  1  0  0  0  0
 10 11  1  0  0  0  0
 11 13  1  0  0  0  0
 12 14  1  0  0  0  0
 12 15  1  0  0  0  0
M  END
>  <CHROM.0>
-172.07586056,-62.39579261,-52.63884022,-51.92521986,-174.80433770,-59.79713267
-59.89676009,-49.58080498,-166.49579463,161.82327817

>  <CHROM.1>
179.72038404,-78.10620728,18.93977191,-18.11966957,4.68968445,1.26883351
-0.81467458,-1.58431623

>  <Name>
P94938241

>  <RI>
0

>  <Rbt.Current_Directory>
/home/fstefaniak/projects/zuza/docking/adenine/1Y26

>  <Rbt.Executable>
rbdock ($Id: //depot/dev/client3/rdock/2013.1/src/exe/rbdock.cxx#4 $)

>  <Rbt.Library>
libRbt.so (2013.1, Build901 2013/11/27)

>  <Rbt.Parameter_File>
/home/fstefaniak/progs/rDock//data/scripts/dock_solv.prm

>  <Rbt.Receptor>
1y26.prm

>  <SCORE>
-41.626

>  <SCORE.INTER>
-20.9089

>  <SCORE.INTER.CONST>
1

>  <SCORE.INTER.POLAR>
-4.80601

>  <SCORE.INTER.ROT>
1

>  <SCORE.INTER.SOLV>
13.5678

>  <SCORE.INTER.VDW>
-6.70846

>  <SCORE.INTER.norm>
-1.74241

>  <SCORE.INTRA>
0.285606

>  <SCORE.INTRA.DIHEDRAL>
-1.89062

>  <SCORE.INTRA.DIHEDRAL.0>
2.45565

>  <SCORE.INTRA.POLAR>
0.256544

>  <SCORE.INTRA.POLAR.0>
-0.261431

>  <SCORE.INTRA.REPUL>
0

>  <SCORE.INTRA.REPUL.0>
0

>  <SCORE.INTRA.SOLV>
0.0253117

>  <SCORE.INTRA.SOLV.lig_0>
-10.6076

>  <SCORE.INTRA.VDW>
0.346011

>  <SCORE.INTRA.VDW.0>
-0.381057

>  <SCORE.INTRA.norm>
0.0238005

>  <SCORE.RESTR>
0

>  <SCORE.RESTR.CAVITY>
0

>  <SCORE.RESTR.norm>
0

>  <SCORE.SYSTEM>
-21.0028

>  <SCORE.SYSTEM.CONST>
0

>  <SCORE.SYSTEM.DIHEDRAL>
5.77225

>  <SCORE.SYSTEM.POLAR>
-3.26583

>  <SCORE.SYSTEM.SOLV>
0.450313

>  <SCORE.SYSTEM.VDW>
-5.18992

>  <SCORE.SYSTEM.norm>
-1.75023

>  <SCORE.heavy>
12

>  <SCORE.norm>
-3.46884

$$$$
P94938241
 OpenBabel12072022103D
libRbt.so/2013.1/901 2013/11/27
 15 15  0  0  0  0  0  0  0  0999 V2000
   18.4863  -18.5782    1.2550 C   0  0  0  0  0  0  0  0  0  0  0  0
   18.6280  -18.0592    2.6831 C   0  0  1  0  0  0  0  0  0  0  0  0
   19.1038  -19.1958    3.6094 C   0  0  0  0  0  0  0  0  0  0  0  0
   19.3638  -18.7079    4.9679 N   0  0  0  0  0  0  0  0  0  0  0  0
   20.6321  -17.9899    5.1024 C   0  0  0  0  0  0  0  0  0  0  0  0
   20.4510  -16.4936    4.8868 C   0  0  0  0  0  0  0  0  0  0  0  0
   19.4759  -16.1104    3.7787 C   0  0  0  0  0  0  0  0  0  0  0  0
   19.5582  -16.9602    2.6338 O   0  0  0  0  0  0  0  0  0  0  0  0
   18.4910  -18.7891    6.0231 C   0  0  0  0  0  0  0  0  0  0  0  0
   18.7968  -18.4117    7.2332 N   0  0  0  0  0  0  0  0  0  0  0  0
   17.7121  -18.5879    8.1105 O   0  0  0  0  0  0  0  0  0  0  0  0
   17.2612  -19.2903    5.7226 N   0  0  0  0  0  0  0  0  0  0  0  0
   17.1403  -17.8359    7.8688 H   0  0  0  0  0  0  0  0  0  0  0  0
   16.6469  -19.3006    6.5233 H   0  0  0  0  0  0  0  0  0  0  0  0
   17.4016  -20.2435    5.3936 H   0  0  0  0  0  0  0  0  0  0  0  0
  2  1  1  6  0  0  0
  2  3  1  0  0  0  0
  2  8  1  0  0  0  0
  3  4  1  0  0  0  0
  4  5  1  0  0  0  0
  4  9  1  0  0  0  0
  5  6  1  0  0  0  0
  6  7  1  0  0  0  0
  7  8  1  0  0  0  0
  9 10  2  0  0  0  0
  9 12  1  0  0  0  0
 10 11  1  0  0  0  0
 11 13  1  0  0  0  0
 12 14  1  0  0  0  0
 12 15  1  0  0  0  0
M  END
>  <CHROM.0>
-172.93765575,-60.12366541,-50.91630273,-49.08716346,-53.06141743,-50.17343037
-51.80039823,-46.14381147,-166.37220209,161.42427569

>  <CHROM.1>
-178.06211336,-76.24187554,18.95992743,-18.10315728,4.69237303,1.25024448
-0.81454572,-1.59484194

>  <Name>
P94938241

>  <RI>
0

>  <Rbt.Current_Directory>
/home/fstefaniak/projects/zuza/docking/adenine/1Y26

>  <Rbt.Executable>
rbdock ($Id: //depot/dev/client3/rdock/2013.1/src/exe/rbdock.cxx#4 $)

>  <Rbt.Library>
libRbt.so (2013.1, Build901 2013/11/27)

>  <Rbt.Parameter_File>
/home/fstefaniak/progs/rDock//data/scripts/dock_solv.prm

>  <Rbt.Receptor>
1y26.prm

>  <SCORE>
-41.2054

>  <SCORE.INTER>
-20.9444

>  <SCORE.INTER.CONST>
1

>  <SCORE.INTER.POLAR>
-4.84244

>  <SCORE.INTER.ROT>
1

>  <SCORE.INTER.SOLV>
13.5604

>  <SCORE.INTER.VDW>
-6.60831

>  <SCORE.INTER.norm>
-1.74537

>  <SCORE.INTRA>
0.324091

>  <SCORE.INTRA.DIHEDRAL>
-1.86294

>  <SCORE.INTRA.DIHEDRAL.0>
2.45565

>  <SCORE.INTRA.POLAR>
0.261431

>  <SCORE.INTRA.POLAR.0>
-0.261431

>  <SCORE.INTRA.REPUL>
0

>  <SCORE.INTRA.REPUL.0>
0

>  <SCORE.INTRA.SOLV>
0.0260578

>  <SCORE.INTRA.SOLV.lig_0>
-10.6076

>  <SCORE.INTRA.VDW>
0.353663

>  <SCORE.INTRA.VDW.0>
-0.381057

>  <SCORE.INTRA.norm>
0.0270076

>  <SCORE.RESTR>
0

>  <SCORE.RESTR.CAVITY>
0

>  <SCORE.RESTR.norm>
0

>  <SCORE.SYSTEM>
-20.585

>  <SCORE.SYSTEM.CONST>
0

>  <SCORE.SYSTEM.DIHEDRAL>
7.31712

>  <SCORE.SYSTEM.POLAR>
-3.44261

>  <SCORE.SYSTEM.SOLV>
0.66003

>  <SCORE.SYSTEM.VDW>
-4.90703

>  <SCORE.SYSTEM.norm>
-1.71542

>  <SCORE.heavy>
12

>  <SCORE.norm>
-3.43378

$$$$
P96217416
 OpenBabel12072022103D
libRbt.so/2013.1/901 2013/11/27
 13 13  0  0  0  0  0  0  0  0999 V2000
   20.8211  -17.9506    2.8386 C   0  0  0  0  0  0  0  0  0  0  0  0
   19.5848  -17.3721    3.5128 C   0  0  0  0  0  0  0  0  0  0  0  0
   20.0729  -15.6644    3.8280 S   0  0  0  0  0  0  0  0  0  0  0  0
   21.7294  -16.1714    3.8702 C   0  0  0  0  0  0  0  0  0  0  0  0
   22.0409  -17.3269    3.3999 N   0  0  0  0  0  0  0  0  0  0  0  0
   22.5768  -15.2640    4.4278 N   0  0  0  0  0  0  0  0  0  0  0  0
   23.9292  -15.3540    4.6601 C   0  0  0  0  0  0  0  0  0  0  0  0
   24.5737  -14.3148    4.8347 O   0  0  0  0  0  0  0  0  0  0  0  0
   24.5931  -16.7364    4.6383 C   0  0  0  0  0  0  0  0  0  0  0  0
   25.8073  -16.7255    5.4729 N   0  0  0  0  0  0  0  0  0  0  0  0
   22.2082  -14.3301    4.5348 H   0  0  0  0  0  0  0  0  0  0  0  0
   25.9912  -17.6856    5.7754 H   0  0  0  0  0  0  0  0  0  0  0  0
   25.6307  -16.1795    6.3131 H   0  0  0  0  0  0  0  0  0  0  0  0
  1  2  1  0  0  0  0
  1  5  1  0  0  0  0
  2  3  1  0  0  0  0
  3  4  1  0  0  0  0
  4  5  2  0  0  0  0
  4  6  1  0  0  0  0
  6  7  1  0  0  0  0
  6 11  1  0  0  0  0
  7  8  2  0  0  0  0
  7  9  1  0  0  0  0
  9 10  1  0  0  0  0
 10 12  1  0  0  0  0
 10 13  1  0  0  0  0
M  END
>  <CHROM.0>
-48.28086515,-60.22503863,-54.80035506,-52.62987354,-55.54795499,-175.16594935
-62.25962295,63.19590971,-166.82596151,161.72128419

>  <CHROM.1>
177.61258005,-154.12912345,155.55829528,22.34640988,-16.20193474,4.14392567
-2.90318269,-0.26801918,0.23059672

>  <Name>
P96217416

>  <RI>
0

>  <Rbt.Current_Directory>
/home/fstefaniak/projects/zuza/docking/adenine/1Y26

>  <Rbt.Executable>
rbdock ($Id: //depot/dev/client3/rdock/2013.1/src/exe/rbdock.cxx#4 $)

>  <Rbt.Library>
libRbt.so (2013.1, Build901 2013/11/27)

>  <Rbt.Parameter_File>
/home/fstefaniak/progs/rDock//data/scripts/dock_solv.prm

>  <Rbt.Receptor>
1y26.prm

>  <SCORE>
-48.8116

>  <SCORE.INTER>
-28.0669

>  <SCORE.INTER.CONST>
1

>  <SCORE.INTER.POLAR>
-3.09303

>  <SCORE.INTER.ROT>
3

>  <SCORE.INTER.SOLV>
13.475

>  <SCORE.INTER.VDW>
-18.4929

>  <SCORE.INTER.norm>
-2.80669

>  <SCORE.INTRA>
0.482008

>  <SCORE.INTRA.DIHEDRAL>
1.06333

>  <SCORE.INTRA.DIHEDRAL.0>
2.6552

>  <SCORE.INTRA.POLAR>
0

>  <SCORE.INTRA.POLAR.0>
0

>  <SCORE.INTRA.REPUL>
0

>  <SCORE.INTRA.REPUL.0>
0

>  <SCORE.INTRA.SOLV>
-0.00327968

>  <SCORE.INTRA.SOLV.lig_0>
-17.754

>  <SCORE.INTRA.VDW>
-0.0480185

>  <SCORE.INTRA.VDW.0>
-0.358972

>  <SCORE.INTRA.norm>
0.0482008

>  <SCORE.RESTR>
0

>  <SCORE.RESTR.CAVITY>
0

>  <SCORE.RESTR.norm>
0

>  <SCORE.SYSTEM>
-21.2266

>  <SCORE.SYSTEM.CONST>
0

>  <SCORE.SYSTEM.DIHEDRAL>
5.55477

>  <SCORE.SYSTEM.POLAR>
-3.44455

>  <SCORE.SYSTEM.SOLV>
0.287412

>  <SCORE.SYSTEM.VDW>
-4.61664

>  <SCORE.SYSTEM.norm>
-2.12266

>  <SCORE.heavy>
10

>  <SCORE.norm>
-4.88116

$$$$
P96217416
 OpenBabel12072022103D
libRbt.so/2013.1/901 2013/11/27
 13 13  0  0  0  0  0  0  0  0999 V2000
   17.7217  -19.1337    5.9009 C   0  0  0  0  0  0  0  0  0  0  0  0
   18.8851  -19.0944    6.8820 C   0  0  0  0  0  0  0  0  0  0  0  0
   20.1009  -18.0883    6.0084 S   0  0  0  0  0  0  0  0  0  0  0  0
   19.3975  -18.5869    4.5053 C   0  0  0  0  0  0  0  0  0  0  0  0
   18.2326  -19.1315    4.5113 N   0  0  0  0  0  0  0  0  0  0  0  0
   20.1809  -18.3524    3.4174 N   0  0  0  0  0  0  0  0  0  0  0  0
   19.8207  -18.1205    2.1107 C   0  0  0  0  0  0  0  0  0  0  0  0
   20.6354  -17.5802    1.3555 O   0  0  0  0  0  0  0  0  0  0  0  0
   18.4032  -18.4910    1.6571 C   0  0  0  0  0  0  0  0  0  0  0  0
   18.4547  -19.1812    0.3564 N   0  0  0  0  0  0  0  0  0  0  0  0
   21.1508  -18.1510    3.6126 H   0  0  0  0  0  0  0  0  0  0  0  0
   18.6108  -18.4766   -0.3691 H   0  0  0  0  0  0  0  0  0  0  0  0
   17.5495  -19.6053    0.1668 H   0  0  0  0  0  0  0  0  0  0  0  0
  1  2  1  0  0  0  0
  1  5  1  0  0  0  0
  2  3  1  0  0  0  0
  3  4  1  0  0  0  0
  4  5  2  0  0  0  0
  4  6  1  0  0  0  0
  6  7  1  0  0  0  0
  6 11  1  0  0  0  0
  7  8  2  0  0  0  0
  7  9  1  0  0  0  0
  9 10  1  0  0  0  0
 10 12  1  0  0  0  0
 10 13  1  0  0  0  0
M  END
>  <CHROM.0>
-45.71182501,-64.41701976,-56.14502138,-51.41651457,-175.80946379,-59.00249186
-56.16818497,-176.47938001,-167.87548420,160.31271001

>  <CHROM.1>
-152.04610706,-135.36379076,-76.85761578,19.29299596,-18.51716082,3.86799827
1.59180664,0.47748674,1.60511868

>  <Name>
P96217416

>  <RI>
0

>  <Rbt.Current_Directory>
/home/fstefaniak/projects/zuza/docking/adenine/1Y26

>  <Rbt.Executable>
rbdock ($Id: //depot/dev/client3/rdock/2013.1/src/exe/rbdock.cxx#4 $)

>  <Rbt.Library>
libRbt.so (2013.1, Build901 2013/11/27)

>  <Rbt.Parameter_File>
/home/fstefaniak/progs/rDock//data/scripts/dock_solv.prm

>  <Rbt.Receptor>
1y26.prm

>  <SCORE>
-46.5927

>  <SCORE.INTER>
-27.0503

>  <SCORE.INTER.CONST>
1

>  <SCORE.INTER.POLAR>
-3.16058

>  <SCORE.INTER.ROT>
3

>  <SCORE.INTER.SOLV>
14.422

>  <SCORE.INTER.VDW>
-17.9056

>  <SCORE.INTER.norm>
-2.70503

>  <SCORE.INTRA>
2.99918

>  <SCORE.INTRA.DIHEDRAL>
6.6311

>  <SCORE.INTRA.DIHEDRAL.0>
2.6552

>  <SCORE.INTRA.POLAR>
0

>  <SCORE.INTRA.POLAR.0>
0

>  <SCORE.INTRA.REPUL>
0

>  <SCORE.INTRA.REPUL.0>
0

>  <SCORE.INTRA.SOLV>
-0.0106483

>  <SCORE.INTRA.SOLV.lig_0>
-17.754

>  <SCORE.INTRA.VDW>
-0.311048

>  <SCORE.INTRA.VDW.0>
-0.358972

>  <SCORE.INTRA.norm>
0.299918

>  <SCORE.RESTR>
0

>  <SCORE.RESTR.CAVITY>
0

>  <SCORE.RESTR.norm>
0

>  <SCORE.SYSTEM>
-22.5416

>  <SCORE.SYSTEM.CONST>
0

>  <SCORE.SYSTEM.DIHEDRAL>
6.01081

>  <SCORE.SYSTEM.POLAR>
-3.52333

>  <SCORE.SYSTEM.SOLV>
0.30028

>  <SCORE.SYSTEM.VDW>
-5.38698

>  <SCORE.SYSTEM.norm>
-2.25416

>  <SCORE.heavy>
10

>  <SCORE.norm>
-4.65927

$$$$
P96217416
 OpenBabel12072022103D
libRbt.so/2013.1/901 2013/11/27
 13 13  0  0  0  0  0  0  0  0999 V2000
   20.7100  -18.0323    2.6199 C   0  0  0  0  0  0  0  0  0  0  0  0
   19.4283  -17.5454    3.2818 C   0  0  0  0  0  0  0  0  0  0  0  0
   19.8371  -15.8451    3.7244 S   0  0  0  0  0  0  0  0  0  0  0  0
   21.5097  -16.2921    3.7977 C   0  0  0  0  0  0  0  0  0  0  0  0
   21.8832  -17.4020    3.2667 N   0  0  0  0  0  0  0  0  0  0  0  0
   22.3000  -15.3925    4.4446 N   0  0  0  0  0  0  0  0  0  0  0  0
   23.6601  -15.4059    4.6470 C   0  0  0  0  0  0  0  0  0  0  0  0
   24.2301  -14.3475    4.9313 O   0  0  0  0  0  0  0  0  0  0  0  0
   24.4233  -16.7226    4.4576 C   0  0  0  0  0  0  0  0  0  0  0  0
   25.6058  -16.7505    5.3362 N   0  0  0  0  0  0  0  0  0  0  0  0
   21.8661  -14.5074    4.6631 H   0  0  0  0  0  0  0  0  0  0  0  0
   26.2480  -16.0171    5.0247 H   0  0  0  0  0  0  0  0  0  0  0  0
   26.0899  -17.6374    5.2174 H   0  0  0  0  0  0  0  0  0  0  0  0
  1  2  1  0  0  0  0
  1  5  1  0  0  0  0
  2  3  1  0  0  0  0
  3  4  1  0  0  0  0
  4  5  2  0  0  0  0
  4  6  1  0  0  0  0
  6  7  1  0  0  0  0
  6 11  1  0  0  0  0
  7  8  2  0  0  0  0
  7  9  1  0  0  0  0
  9 10  1  0  0  0  0
 10 12  1  0  0  0  0
 10 13  1  0  0  0  0
M  END
>  <CHROM.0>
-47.43244129,-60.23888971,-51.62874820,-52.71372006,-56.91909873,-60.62730291
-58.16694332,-175.68026585,-167.33625802,161.16013733

>  <CHROM.1>
-177.65371679,-150.54673012,-65.48268031,22.13538326,-16.29578911,4.03763419
-2.85014331,-0.24790962,0.33110929

>  <Name>
P96217416

>  <RI>
0

>  <Rbt.Current_Directory>
/home/fstefaniak/projects/zuza/docking/adenine/1Y26

>  <Rbt.Executable>
rbdock ($Id: //depot/dev/client3/rdock/2013.1/src/exe/rbdock.cxx#4 $)

>  <Rbt.Library>
libRbt.so (2013.1, Build901 2013/11/27)

>  <Rbt.Parameter_File>
/home/fstefaniak/progs/rDock//data/scripts/dock_solv.prm

>  <Rbt.Receptor>
1y26.prm

>  <SCORE>
-46.351

>  <SCORE.INTER>
-23.3362

>  <SCORE.INTER.CONST>
1

>  <SCORE.INTER.POLAR>
-2.45566

>  <SCORE.INTER.ROT>
3

>  <SCORE.INTER.SOLV>
13.424

>  <SCORE.INTER.VDW>
-17.4466

>  <SCORE.INTER.norm>
-2.33362

>  <SCORE.INTRA>
-0.392061

>  <SCORE.INTRA.DIHEDRAL>
-0.522583

>  <SCORE.INTRA.DIHEDRAL.0>
2.6552

>  <SCORE.INTRA.POLAR>
0

>  <SCORE.INTRA.POLAR.0>
0

>  <SCORE.INTRA.REPUL>
0

>  <SCORE.INTRA.REPUL.0>
0

>  <SCORE.INTRA.SOLV>
-0.0381619

>  <SCORE.INTRA.SOLV.lig_0>
-17.754

>  <SCORE.INTRA.VDW>
-0.111688

>  <SCORE.INTRA.VDW.0>
-0.358972

>  <SCORE.INTRA.norm>
-0.0392061

>  <SCORE.RESTR>
0

>  <SCORE.RESTR.CAVITY>
0

>  <SCORE.RESTR.norm>
0

>  <SCORE.SYSTEM>
-22.6228

>  <SCORE.SYSTEM.CONST>
0

>  <SCORE.SYSTEM.DIHEDRAL>
5.74375

>  <SCORE.SYSTEM.POLAR>
-3.49217

>  <SCORE.SYSTEM.SOLV>
0.46334

>  <SCORE.SYSTEM.VDW>
-5.5103

>  <SCORE.SYSTEM.norm>
-2.26228

>  <SCORE.heavy>
10

>  <SCORE.norm>
-4.6351

$$$$
P96377371
 OpenBabel12072022103D
libRbt.so/2013.1/901 2013/11/27
 11 11  0  0  0  0  0  0  0  0999 V2000
   19.9404  -17.9353    5.5865 C   0  0  0  0  0  0  0  0  0  0  0  0
   19.4866  -19.1057    6.4842 C   0  0  0  0  0  0  0  0  0  0  0  0
   18.8203  -19.7109    5.2299 C   0  0  0  0  0  0  0  0  0  0  0  0
   18.9125  -18.3793    4.6555 N   0  0  0  0  0  0  0  0  0  0  0  0
   18.7073  -17.9369    3.3880 C   0  0  0  0  0  0  0  0  0  0  0  0
   18.1157  -18.5701    2.5230 O   0  0  0  0  0  0  0  0  0  0  0  0
   19.2123  -16.7047    3.1262 N   0  0  0  0  0  0  0  0  0  0  0  0
   18.6029  -18.7738    7.5827 O   0  0  0  0  0  0  0  0  0  0  0  0
   18.8256  -15.9272    3.6394 H   0  0  0  0  0  0  0  0  0  0  0  0
   20.2177  -16.6957    3.0112 H   0  0  0  0  0  0  0  0  0  0  0  0
   18.0142  -18.0848    7.2246 H   0  0  0  0  0  0  0  0  0  0  0  0
  1  2  1  0  0  0  0
  1  4  1  0  0  0  0
  2  3  1  0  0  0  0
  2  8  1  0  0  0  0
  3  4  1  0  0  0  0
  4  5  1  0  0  0  0
  5  6  2  0  0  0  0
  5  7  1  0  0  0  0
  7  9  1  0  0  0  0
  7 10  1  0  0  0  0
  8 11  1  0  0  0  0
M  END
>  <CHROM.0>
-171.00772788,-58.81757848,-53.85638078,-52.66773211,-56.49105158,-67.94439943
-52.23453587,-176.40637430,-165.46979537,159.75684646

>  <CHROM.1>
37.70750536,157.89440091,-63.60261027,18.95515551,-18.36238695,4.83549910
-1.40876762,-1.07006897,-1.13631628

>  <Name>
P96377371

>  <RI>
0

>  <Rbt.Current_Directory>
/home/fstefaniak/projects/zuza/docking/adenine/1Y26

>  <Rbt.Executable>
rbdock ($Id: //depot/dev/client3/rdock/2013.1/src/exe/rbdock.cxx#4 $)

>  <Rbt.Library>
libRbt.so (2013.1, Build901 2013/11/27)

>  <Rbt.Parameter_File>
/home/fstefaniak/progs/rDock//data/scripts/dock_solv.prm

>  <Rbt.Receptor>
1y26.prm

>  <SCORE>
-57.6371

>  <SCORE.INTER>
-36.8519

>  <SCORE.INTER.CONST>
1

>  <SCORE.INTER.POLAR>
-5.38972

>  <SCORE.INTER.ROT>
2

>  <SCORE.INTER.SOLV>
13.0518

>  <SCORE.INTER.VDW>
-15.8861

>  <SCORE.INTER.norm>
-4.60648

>  <SCORE.INTRA>
0.425494

>  <SCORE.INTRA.DIHEDRAL>
0.792333

>  <SCORE.INTRA.DIHEDRAL.0>
2.79528

>  <SCORE.INTRA.POLAR>
0

>  <SCORE.INTRA.POLAR.0>
0

>  <SCORE.INTRA.REPUL>
0

>  <SCORE.INTRA.REPUL.0>
0

>  <SCORE.INTRA.SOLV>
0.0372779

>  <SCORE.INTRA.SOLV.lig_0>
-18.4608

>  <SCORE.INTRA.VDW>
0.010689

>  <SCORE.INTRA.VDW.0>
0.250528

>  <SCORE.INTRA.norm>
0.0531868

>  <SCORE.RESTR>
0

>  <SCORE.RESTR.CAVITY>
0

>  <SCORE.RESTR.norm>
0

>  <SCORE.SYSTEM>
-21.2107

>  <SCORE.SYSTEM.CONST>
0

>  <SCORE.SYSTEM.DIHEDRAL>
6.20593

>  <SCORE.SYSTEM.POLAR>
-3.27537

>  <SCORE.SYSTEM.SOLV>
0.398868

>  <SCORE.SYSTEM.VDW>
-5.42419

>  <SCORE.SYSTEM.norm>
-2.65134

>  <SCORE.heavy>
8

>  <SCORE.norm>
-7.20464

$$$$
P96377371
 OpenBabel12072022103D
libRbt.so/2013.1/901 2013/11/27
 11 11  0  0  0  0  0  0  0  0999 V2000
   18.8487  -18.6396    3.6658 C   0  0  0  0  0  0  0  0  0  0  0  0
   19.7161  -17.5427    3.0132 C   0  0  0  0  0  0  0  0  0  0  0  0
   20.6811  -17.7001    4.2080 C   0  0  0  0  0  0  0  0  0  0  0  0
   19.5746  -18.3463    4.8935 N   0  0  0  0  0  0  0  0  0  0  0  0
   19.5296  -19.0417    6.0592 C   0  0  0  0  0  0  0  0  0  0  0  0
   19.8202  -18.5750    7.1532 O   0  0  0  0  0  0  0  0  0  0  0  0
   19.1260  -20.3317    5.9374 N   0  0  0  0  0  0  0  0  0  0  0  0
   19.1010  -16.2412    2.8529 O   0  0  0  0  0  0  0  0  0  0  0  0
   18.1402  -20.5199    6.0380 H   0  0  0  0  0  0  0  0  0  0  0  0
   19.5927  -20.8329    5.1923 H   0  0  0  0  0  0  0  0  0  0  0  0
   18.9150  -15.9439    3.7620 H   0  0  0  0  0  0  0  0  0  0  0  0
  1  2  1  0  0  0  0
  1  4  1  0  0  0  0
  2  3  1  0  0  0  0
  2  8  1  0  0  0  0
  3  4  1  0  0  0  0
  4  5  1  0  0  0  0
  5  6  2  0  0  0  0
  5  7  1  0  0  0  0
  7  9  1  0  0  0  0
  7 10  1  0  0  0  0
  8 11  1  0  0  0  0
M  END
>  <CHROM.0>
-149.53731489,-154.72139560,-50.75323729,-50.76156443,-170.49398965,-49.26114661
-46.50349190,-47.21369453,-165.19936147,165.40847081

>  <CHROM.1>
62.66059108,-157.44735880,-91.48896718,19.52822512,-18.28604764,4.73097433
1.59687026,-1.09938288,-0.91476580

>  <Name>
P96377371

>  <RI>
0

>  <Rbt.Current_Directory>
/home/fstefaniak/projects/zuza/docking/adenine/1Y26

>  <Rbt.Executable>
rbdock ($Id: //depot/dev/client3/rdock/2013.1/src/exe/rbdock.cxx#4 $)

>  <Rbt.Library>
libRbt.so (2013.1, Build901 2013/11/27)

>  <Rbt.Parameter_File>
/home/fstefaniak/progs/rDock//data/scripts/dock_solv.prm

>  <Rbt.Receptor>
1y26.prm

>  <SCORE>
-52.7744

>  <SCORE.INTER>
-34.68

>  <SCORE.INTER.CONST>
1

>  <SCORE.INTER.POLAR>
-5.24405

>  <SCORE.INTER.ROT>
2

>  <SCORE.INTER.SOLV>
14.8692

>  <SCORE.INTER.VDW>
-15.5296

>  <SCORE.INTER.norm>
-4.33501

>  <SCORE.INTRA>
-0.39635

>  <SCORE.INTRA.DIHEDRAL>
-0.689688

>  <SCORE.INTRA.DIHEDRAL.0>
2.79528

>  <SCORE.INTRA.POLAR>
0

>  <SCORE.INTRA.POLAR.0>
0

>  <SCORE.INTRA.REPUL>
0

>  <SCORE.INTRA.REPUL.0>
0

>  <SCORE.INTRA.SOLV>
0.065067

>  <SCORE.INTRA.SOLV.lig_0>
-18.4608

>  <SCORE.INTRA.VDW>
-0.0840389

>  <SCORE.INTRA.VDW.0>
0.250528

>  <SCORE.INTRA.norm>
-0.0495437

>  <SCORE.RESTR>
0

>  <SCORE.RESTR.CAVITY>
0

>  <SCORE.RESTR.norm>
0

>  <SCORE.SYSTEM>
-17.698

>  <SCORE.SYSTEM.CONST>
0

>  <SCORE.SYSTEM.DIHEDRAL>
13.5218

>  <SCORE.SYSTEM.POLAR>
-3.32832

>  <SCORE.SYSTEM.SOLV>
0.430008

>  <SCORE.SYSTEM.VDW>
-5.35491

>  <SCORE.SYSTEM.norm>
-2.21226

>  <SCORE.heavy>
8

>  <SCORE.norm>
-6.59681

$$$$
P96377371
 OpenBabel12072022103D
libRbt.so/2013.1/901 2013/11/27
 11 11  0  0  0  0  0  0  0  0999 V2000
   19.3684  -18.3994    3.6254 C   0  0  0  0  0  0  0  0  0  0  0  0
   20.1276  -17.0606    3.5126 C   0  0  0  0  0  0  0  0  0  0  0  0
   20.4868  -17.2248    5.0051 C   0  0  0  0  0  0  0  0  0  0  0  0
   19.3935  -18.1802    5.0647 N   0  0  0  0  0  0  0  0  0  0  0  0
   19.0248  -19.0566    6.0345 C   0  0  0  0  0  0  0  0  0  0  0  0
   18.7477  -18.7381    7.1838 O   0  0  0  0  0  0  0  0  0  0  0  0
   18.9765  -20.3544    5.6407 N   0  0  0  0  0  0  0  0  0  0  0  0
   19.3385  -15.8961    3.1674 O   0  0  0  0  0  0  0  0  0  0  0  0
   18.0652  -20.7567    5.4823 H   0  0  0  0  0  0  0  0  0  0  0  0
   19.6856  -20.5974    4.9607 H   0  0  0  0  0  0  0  0  0  0  0  0
   19.9597  -15.1488    3.2381 H   0  0  0  0  0  0  0  0  0  0  0  0
  1  2  1  0  0  0  0
  1  4  1  0  0  0  0
  2  3  1  0  0  0  0
  2  8  1  0  0  0  0
  3  4  1  0  0  0  0
  4  5  1  0  0  0  0
  5  6  2  0  0  0  0
  5  7  1  0  0  0  0
  7  9  1  0  0  0  0
  7 10  1  0  0  0  0
  8 11  1  0  0  0  0
M  END
>  <CHROM.0>
-165.41992012,-63.23785162,-58.62237331,-51.11322362,-58.19674519,-58.33678013
-61.48322446,-179.53050260,-167.97214242,160.65507960

>  <CHROM.1>
174.09367127,-161.04146796,-104.20942241,19.41575920,-18.09783234,4.89682961
0.29129342,-1.36052223,-2.04124459

>  <Name>
P96377371

>  <RI>
0

>  <Rbt.Current_Directory>
/home/fstefaniak/projects/zuza/docking/adenine/1Y26

>  <Rbt.Executable>
rbdock ($Id: //depot/dev/client3/rdock/2013.1/src/exe/rbdock.cxx#4 $)

>  <Rbt.Library>
libRbt.so (2013.1, Build901 2013/11/27)

>  <Rbt.Parameter_File>
/home/fstefaniak/progs/rDock//data/scripts/dock_solv.prm

>  <Rbt.Receptor>
1y26.prm

>  <SCORE>
-52.2234

>  <SCORE.INTER>
-30.4792

>  <SCORE.INTER.CONST>
1

>  <SCORE.INTER.POLAR>
-4.19818

>  <SCORE.INTER.ROT>
2

>  <SCORE.INTER.SOLV>
14.1617

>  <SCORE.INTER.VDW>
-15.9795

>  <SCORE.INTER.norm>
-3.8099

>  <SCORE.INTRA>
-0.543775

>  <SCORE.INTRA.DIHEDRAL>
-0.595759

>  <SCORE.INTRA.DIHEDRAL.0>
2.79528

>  <SCORE.INTRA.POLAR>
0

>  <SCORE.INTRA.POLAR.0>
0

>  <SCORE.INTRA.REPUL>
0

>  <SCORE.INTRA.REPUL.0>
0

>  <SCORE.INTRA.SOLV>
0.0175382

>  <SCORE.INTRA.SOLV.lig_0>
-18.4608

>  <SCORE.INTRA.VDW>
-0.254665

>  <SCORE.INTRA.VDW.0>
0.250528

>  <SCORE.INTRA.norm>
-0.0679719

>  <SCORE.RESTR>
0

>  <SCORE.RESTR.CAVITY>
0

>  <SCORE.RESTR.norm>
0

>  <SCORE.SYSTEM>
-21.2004

>  <SCORE.SYSTEM.CONST>
0

>  <SCORE.SYSTEM.DIHEDRAL>
5.73624

>  <SCORE.SYSTEM.POLAR>
-3.21572

>  <SCORE.SYSTEM.SOLV>
0.38922

>  <SCORE.SYSTEM.VDW>
-5.45634

>  <SCORE.SYSTEM.norm>
-2.65005

>  <SCORE.heavy>
8

>  <SCORE.norm>
-6.52793

$$$$
adenine
 OpenBabel12072022103D
libRbt.so/2013.1/901 2013/11/27
 13 14  0  0  0  0  0  0  0  0999 V2000
   19.3228  -19.0799    6.8501 C   0  0  0  0  0  0  0  0  0  0  0  0
   18.7998  -19.7234    5.7608 N   0  0  0  0  0  0  0  0  0  0  0  0
   18.3480  -20.6251    5.7449 H   0  0  0  0  0  0  0  0  0  0  0  0
   18.9938  -18.9193    4.6760 C   0  0  0  0  0  0  0  0  0  0  0  0
   19.6516  -17.8048    5.1658 C   0  0  0  0  0  0  0  0  0  0  0  0
   19.8425  -17.9130    6.5301 N   0  0  0  0  0  0  0  0  0  0  0  0
   19.9766  -16.8085    4.2303 C   0  0  0  0  0  0  0  0  0  0  0  0
   19.6110  -16.9915    2.9400 N   0  0  0  0  0  0  0  0  0  0  0  0
   18.9749  -18.1382    2.6092 C   0  0  0  0  0  0  0  0  0  0  0  0
   18.6220  -19.1642    3.4116 N   0  0  0  0  0  0  0  0  0  0  0  0
   20.6362  -15.6326    4.5665 N   0  0  0  0  0  0  0  0  0  0  0  0
   20.8922  -15.0733    3.7605 H   0  0  0  0  0  0  0  0  0  0  0  0
   21.3391  -15.7834    5.2776 H   0  0  0  0  0  0  0  0  0  0  0  0
  1  2  1  0  0  0  0
  1  6  2  0  0  0  0
  2  3  1  0  0  0  0
  2  4  1  0  0  0  0
  4  5  2  0  0  0  0
  4 10  1  0  0  0  0
  5  6  1  0  0  0  0
  5  7  1  0  0  0  0
  7  8  2  0  0  0  0
  7 11  1  0  0  0  0
  8  9  1  0  0  0  0
  9 10  2  0  0  0  0
 11 12  1  0  0  0  0
 11 13  1  0  0  0  0
M  END
>  <CHROM.0>
-51.36442886,-171.09366010,-53.06867749,-52.92688683,-57.82919300,-60.94242943
-59.68529151,-177.89468473,-166.66210661,160.52960919

>  <CHROM.1>
173.08960444,19.45986692,-17.99737936,4.67818151,-2.03568958,-1.06593793
-1.20367932

>  <Name>
adenine

>  <RI>
0

>  <Rbt.Current_Directory>
/home/fstefaniak/projects/zuza/docking/adenine/1Y26

>  <Rbt.Executable>
rbdock ($Id: //depot/dev/client3/rdock/2013.1/src/exe/rbdock.cxx#4 $)

>  <Rbt.Library>
libRbt.so (2013.1, Build901 2013/11/27)

>  <Rbt.Parameter_File>
/home/fstefaniak/progs/rDock//data/scripts/dock_solv.prm

>  <Rbt.Receptor>
1y26.prm

>  <SCORE>
-67.3837

>  <SCORE.INTER>
-44.5618

>  <SCORE.INTER.CONST>
1

>  <SCORE.INTER.POLAR>
-5.36425

>  <SCORE.INTER.ROT>
1

>  <SCORE.INTER.SOLV>
13.2827

>  <SCORE.INTER.VDW>
-20.5213

>  <SCORE.INTER.norm>
-4.45618

>  <SCORE.INTRA>
0.000101323

>  <SCORE.INTRA.DIHEDRAL>
0.0214401

>  <SCORE.INTRA.DIHEDRAL.0>
0.467566

>  <SCORE.INTRA.POLAR>
0

>  <SCORE.INTRA.POLAR.0>
0

>  <SCORE.INTRA.REPUL>
0

>  <SCORE.INTRA.REPUL.0>
0

>  <SCORE.INTRA.SOLV>
0.00671708

>  <SCORE.INTRA.SOLV.lig_0>
-16.6672

>  <SCORE.INTRA.VDW>
-0.0139772

>  <SCORE.INTRA.VDW.0>
-0.139743

>  <SCORE.INTRA.norm>
1.01323e-05

>  <SCORE.RESTR>
0

>  <SCORE.RESTR.CAVITY>
0

>  <SCORE.RESTR.norm>
0

>  <SCORE.SYSTEM>
-22.822

>  <SCORE.SYSTEM.CONST>
0

>  <SCORE.SYSTEM.DIHEDRAL>
5.68119

>  <SCORE.SYSTEM.POLAR>
-3.45021

>  <SCORE.SYSTEM.SOLV>
0.386859

>  <SCORE.SYSTEM.VDW>
-5.73666

>  <SCORE.SYSTEM.norm>
-2.2822

>  <SCORE.heavy>
10

>  <SCORE.norm>
-6.73837

$$$$
adenine
 OpenBabel12072022103D
libRbt.so/2013.1/901 2013/11/27
 13 14  0  0  0  0  0  0  0  0999 V2000
   19.4246  -19.1489    6.7688 C   0  0  0  0  0  0  0  0  0  0  0  0
   18.8657  -19.7517    5.6741 N   0  0  0  0  0  0  0  0  0  0  0  0
   18.4198  -20.6558    5.6379 H   0  0  0  0  0  0  0  0  0  0  0  0
   19.0135  -18.9025    4.6168 C   0  0  0  0  0  0  0  0  0  0  0  0
   19.6815  -17.8034    5.1273 C   0  0  0  0  0  0  0  0  0  0  0  0
   19.9240  -17.9656    6.4779 N   0  0  0  0  0  0  0  0  0  0  0  0
   19.9646  -16.7671    4.2221 C   0  0  0  0  0  0  0  0  0  0  0  0
   19.5523  -16.9004    2.9398 N   0  0  0  0  0  0  0  0  0  0  0  0
   18.9121  -18.0378    2.5859 C   0  0  0  0  0  0  0  0  0  0  0  0
   18.5964  -19.0986    3.3581 N   0  0  0  0  0  0  0  0  0  0  0  0
   20.6282  -15.6004    4.5817 N   0  0  0  0  0  0  0  0  0  0  0  0
   20.8881  -15.0272    3.7868 H   0  0  0  0  0  0  0  0  0  0  0  0
   21.3292  -15.7675    5.2911 H   0  0  0  0  0  0  0  0  0  0  0  0
  1  2  1  0  0  0  0
  1  6  2  0  0  0  0
  2  3  1  0  0  0  0
  2  4  1  0  0  0  0
  4  5  2  0  0  0  0
  4 10  1  0  0  0  0
  5  6  1  0  0  0  0
  5  7  1  0  0  0  0
  7  8  2  0  0  0  0
  7 11  1  0  0  0  0
  8  9  1  0  0  0  0
  9 10  2  0  0  0  0
 11 12  1  0  0  0  0
 11 13  1  0  0  0  0
M  END
>  <CHROM.0>
-49.03975984,-170.61101562,-57.87864748,-51.98287414,-56.70468276,-62.21537517
-61.16965640,-51.35461976,-167.24090179,160.33081332

>  <CHROM.1>
170.42695805,19.47312959,-17.97764940,4.63979847,-1.95963536,-1.05760297
-1.09665457

>  <Name>
adenine

>  <RI>
0

>  <Rbt.Current_Directory>
/home/fstefaniak/projects/zuza/docking/adenine/1Y26

>  <Rbt.Executable>
rbdock ($Id: //depot/dev/client3/rdock/2013.1/src/exe/rbdock.cxx#4 $)

>  <Rbt.Library>
libRbt.so (2013.1, Build901 2013/11/27)

>  <Rbt.Parameter_File>
/home/fstefaniak/progs/rDock//data/scripts/dock_solv.prm

>  <Rbt.Receptor>
1y26.prm

>  <SCORE>
-66.8526

>  <SCORE.INTER>
-44.4607

>  <SCORE.INTER.CONST>
1

>  <SCORE.INTER.POLAR>
-5.38729

>  <SCORE.INTER.ROT>
1

>  <SCORE.INTER.SOLV>
13.5306

>  <SCORE.INTER.VDW>
-20.4597

>  <SCORE.INTER.norm>
-4.44607

>  <SCORE.INTRA>
0.00442121

>  <SCORE.INTRA.DIHEDRAL>
0.022546

>  <SCORE.INTRA.DIHEDRAL.0>
0.467566

>  <SCORE.INTRA.POLAR>
0

>  <SCORE.INTRA.POLAR.0>
0

>  <SCORE.INTRA.REPUL>
0

>  <SCORE.INTRA.REPUL.0>
0

>  <SCORE.INTRA.SOLV>
0.005337

>  <SCORE.INTRA.SOLV.lig_0>
-16.6672

>  <SCORE.INTRA.VDW>
-0.00952027

>  <SCORE.INTRA.VDW.0>
-0.139743

>  <SCORE.INTRA.norm>
0.000442121

>  <SCORE.RESTR>
0

>  <SCORE.RESTR.CAVITY>
0

>  <SCORE.RESTR.norm>
0

>  <SCORE.SYSTEM>
-22.3963

>  <SCORE.SYSTEM.CONST>
0

>  <SCORE.SYSTEM.DIHEDRAL>
6.13056

>  <SCORE.SYSTEM.POLAR>
-3.49197

>  <SCORE.SYSTEM.SOLV>
0.588534

>  <SCORE.SYSTEM.VDW>
-5.53068

>  <SCORE.SYSTEM.norm>
-2.23963

>  <SCORE.heavy>
10

>  <SCORE.norm>
-6.68526

$$$$
adenine
 OpenBabel12072022103D
libRbt.so/2013.1/901 2013/11/27
 13 14  0  0  0  0  0  0  0  0999 V2000
   19.3417  -19.0963    6.8343 C   0  0  0  0  0  0  0  0  0  0  0  0
   18.7548  -19.7342    5.7749 N   0  0  0  0  0  0  0  0  0  0  0  0
   18.2516  -20.6083    5.7929 H   0  0  0  0  0  0  0  0  0  0  0  0
   18.9666  -18.9690    4.6655 C   0  0  0  0  0  0  0  0  0  0  0  0
   19.6997  -17.8832    5.1107 C   0  0  0  0  0  0  0  0  0  0  0  0
   19.9191  -17.9695    6.4722 N   0  0  0  0  0  0  0  0  0  0  0  0
   20.0572  -16.9301    4.1425 C   0  0  0  0  0  0  0  0  0  0  0  0
   19.6486  -17.1226    2.8666 N   0  0  0  0  0  0  0  0  0  0  0  0
   18.9393  -18.2379    2.5806 C   0  0  0  0  0  0  0  0  0  0  0  0
   18.5489  -19.2222    3.4172 N   0  0  0  0  0  0  0  0  0  0  0  0
   20.7917  -15.7868    4.4325 N   0  0  0  0  0  0  0  0  0  0  0  0
   21.0970  -15.7421    5.3983 H   0  0  0  0  0  0  0  0  0  0  0  0
   20.3743  -14.9575    4.0317 H   0  0  0  0  0  0  0  0  0  0  0  0
  1  2  1  0  0  0  0
  1  6  2  0  0  0  0
  2  3  1  0  0  0  0
  2  4  1  0  0  0  0
  4  5  2  0  0  0  0
  4 10  1  0  0  0  0
  5  6  1  0  0  0  0
  5  7  1  0  0  0  0
  7  8  2  0  0  0  0
  7 11  1  0  0  0  0
  8  9  1  0  0  0  0
  9 10  2  0  0  0  0
 11 12  1  0  0  0  0
 11 13  1  0  0  0  0
M  END
>  <CHROM.0>
-47.78684237,-168.96983612,-57.14667620,-52.80518010,-173.42113194,-63.12796761
-54.53021111,-174.57949631,-167.90191077,161.05013288

>  <CHROM.1>
3.95045759,19.47660328,-18.07204208,4.63806459,-2.02201240,-1.01876668,-1.21746473

>  <Name>
adenine

>  <RI>
0

>  <Rbt.Current_Directory>
/home/fstefaniak/projects/zuza/docking/adenine/1Y26

>  <Rbt.Executable>
rbdock ($Id: //depot/dev/client3/rdock/2013.1/src/exe/rbdock.cxx#4 $)

>  <Rbt.Library>
libRbt.so (2013.1, Build901 2013/11/27)

>  <Rbt.Parameter_File>
/home/fstefaniak/progs/rDock//data/scripts/dock_solv.prm

>  <Rbt.Receptor>
1y26.prm

>  <SCORE>
-66.8088

>  <SCORE.INTER>
-44.2592

>  <SCORE.INTER.CONST>
1

>  <SCORE.INTER.POLAR>
-5.30967

>  <SCORE.INTER.ROT>
1

>  <SCORE.INTER.SOLV>
13.1686

>  <SCORE.INTER.VDW>
-20.4634

>  <SCORE.INTER.norm>
-4.42592

>  <SCORE.INTRA>
-0.00461094

>  <SCORE.INTRA.DIHEDRAL>
0.00947017

>  <SCORE.INTRA.DIHEDRAL.0>
0.467566

>  <SCORE.INTRA.POLAR>
0

>  <SCORE.INTRA.POLAR.0>
0

>  <SCORE.INTRA.REPUL>
0

>  <SCORE.INTRA.REPUL.0>
0

>  <SCORE.INTRA.SOLV>
-0.0192445

>  <SCORE.INTRA.SOLV.lig_0>
-16.6672

>  <SCORE.INTRA.VDW>
0.000276206

>  <SCORE.INTRA.VDW.0>
-0.139743

>  <SCORE.INTRA.norm>
-0.000461094

>  <SCORE.RESTR>
0

>  <SCORE.RESTR.CAVITY>
0

>  <SCORE.RESTR.norm>
0

>  <SCORE.SYSTEM>
-22.545

>  <SCORE.SYSTEM.CONST>
0

>  <SCORE.SYSTEM.DIHEDRAL>
6.30313

>  <SCORE.SYSTEM.POLAR>
-3.44606

>  <SCORE.SYSTEM.SOLV>
0.226907

>  <SCORE.SYSTEM.VDW>
-5.71983

>  <SCORE.SYSTEM.norm>
-2.2545

>  <SCORE.heavy>
10

>  <SCORE.norm>
-6.68088

$$$$
guanine
 OpenBabel12072022103D
libRbt.so/2013.1/901 2013/11/27
 15 16  0  0  0  0  0  0  0  0999 V2000
   19.1662  -18.5088    6.4326 C   0  0  0  0  0  0  0  0  0  0  0  0
   20.2483  -18.0486    5.7298 N   0  0  0  0  0  0  0  0  0  0  0  0
   21.1159  -17.6948    6.1114 H   0  0  0  0  0  0  0  0  0  0  0  0
   19.9308  -18.1601    4.4097 C   0  0  0  0  0  0  0  0  0  0  0  0
   20.6689  -17.8358    3.2486 C   0  0  0  0  0  0  0  0  0  0  0  0
   21.8052  -17.3780    3.2398 O   0  0  0  0  0  0  0  0  0  0  0  0
   19.9552  -18.0985    2.1047 N   0  0  0  0  0  0  0  0  0  0  0  0
   20.4335  -17.9384    1.2345 H   0  0  0  0  0  0  0  0  0  0  0  0
   18.6933  -18.6443    2.1077 C   0  0  0  0  0  0  0  0  0  0  0  0
   18.0127  -18.9543    3.1722 N   0  0  0  0  0  0  0  0  0  0  0  0
   18.6726  -18.6896    4.3737 C   0  0  0  0  0  0  0  0  0  0  0  0
   18.1955  -18.9019    5.6334 N   0  0  0  0  0  0  0  0  0  0  0  0
   18.1429  -18.8558    0.8826 N   0  0  0  0  0  0  0  0  0  0  0  0
   18.2457  -18.1064    0.2113 H   0  0  0  0  0  0  0  0  0  0  0  0
   17.1763  -19.1613    0.9669 H   0  0  0  0  0  0  0  0  0  0  0  0
  1  2  1  0  0  0  0
  1 12  2  0  0  0  0
  2  3  1  0  0  0  0
  2  4  1  0  0  0  0
  4  5  1  0  0  0  0
  4 11  2  0  0  0  0
  5  6  2  0  0  0  0
  5  7  1  0  0  0  0
  7  8  1  0  0  0  0
  7  9  1  0  0  0  0
  9 10  2  0  0  0  0
  9 13  1  0  0  0  0
 10 11  1  0  0  0  0
 11 12  1  0  0  0  0
 13 14  1  0  0  0  0
 13 15  1  0  0  0  0
M  END
>  <CHROM.0>
-50.36226665,-61.01064461,-56.63522834,-50.96771144,-55.62012356,-58.45050453
-59.58407917,-52.73493539,-166.40667501,161.10009769

>  <CHROM.1>
-44.27833548,19.43272074,-18.35465972,3.70176692,1.40551494,0.39149151,1.59159626

>  <Name>
guanine

>  <RI>
0

>  <Rbt.Current_Directory>
/home/fstefaniak/projects/zuza/docking/adenine/1Y26

>  <Rbt.Executable>
rbdock ($Id: //depot/dev/client3/rdock/2013.1/src/exe/rbdock.cxx#4 $)

>  <Rbt.Library>
libRbt.so (2013.1, Build901 2013/11/27)

>  <Rbt.Parameter_File>
/home/fstefaniak/progs/rDock//data/scripts/dock_solv.prm

>  <Rbt.Receptor>
1y26.prm

>  <SCORE>
-61.9095

>  <SCORE.INTER>
-39.6326

>  <SCORE.INTER.CONST>
1

>  <SCORE.INTER.POLAR>
-4.94597

>  <SCORE.INTER.ROT>
1

>  <SCORE.INTER.SOLV>
14.5587

>  <SCORE.INTER.VDW>
-19.0547

>  <SCORE.INTER.norm>
-3.60296

>  <SCORE.INTRA>
-0.00689152

>  <SCORE.INTRA.DIHEDRAL>
0.000792456

>  <SCORE.INTRA.DIHEDRAL.0>
0.476907

>  <SCORE.INTRA.POLAR>
0

>  <SCORE.INTRA.POLAR.0>
0

>  <SCORE.INTRA.REPUL>
0

>  <SCORE.INTRA.REPUL.0>
0

>  <SCORE.INTRA.SOLV>
-0.0015224

>  <SCORE.INTRA.SOLV.lig_0>
-19.5088

>  <SCORE.INTRA.VDW>
-0.00652655

>  <SCORE.INTRA.VDW.0>
-0.187702

>  <SCORE.INTRA.norm>
-0.000626502

>  <SCORE.RESTR>
0

>  <SCORE.RESTR.CAVITY>
0

>  <SCORE.RESTR.norm>
0

>  <SCORE.SYSTEM>
-22.2701

>  <SCORE.SYSTEM.CONST>
0

>  <SCORE.SYSTEM.DIHEDRAL>
5.6072

>  <SCORE.SYSTEM.POLAR>
-3.48409

>  <SCORE.SYSTEM.SOLV>
0.666351

>  <SCORE.SYSTEM.VDW>
-5.32426

>  <SCORE.SYSTEM.norm>
-2.02455

>  <SCORE.heavy>
11

>  <SCORE.norm>
-5.62814

$$$$
guanine
 OpenBabel12072022103D
libRbt.so/2013.1/901 2013/11/27
 15 16  0  0  0  0  0  0  0  0999 V2000
   19.1672  -18.4784    6.4158 C   0  0  0  0  0  0  0  0  0  0  0  0
   20.2385  -17.9985    5.7096 N   0  0  0  0  0  0  0  0  0  0  0  0
   21.0979  -17.6227    6.0887 H   0  0  0  0  0  0  0  0  0  0  0  0
   19.9235  -18.1260    4.3904 C   0  0  0  0  0  0  0  0  0  0  0  0
   20.6540  -17.7929    3.2270 C   0  0  0  0  0  0  0  0  0  0  0  0
   21.7796  -17.3096    3.2148 O   0  0  0  0  0  0  0  0  0  0  0  0
   19.9462  -18.0792    2.0850 N   0  0  0  0  0  0  0  0  0  0  0  0
   20.4207  -17.9142    1.2136 H   0  0  0  0  0  0  0  0  0  0  0  0
   18.6970  -18.6535    2.0920 C   0  0  0  0  0  0  0  0  0  0  0  0
   18.0237  -18.9716    3.1587 N   0  0  0  0  0  0  0  0  0  0  0  0
   18.6776  -18.6841    4.3583 C   0  0  0  0  0  0  0  0  0  0  0  0
   18.2056  -18.8986    5.6194 N   0  0  0  0  0  0  0  0  0  0  0  0
   18.1514  -18.8855    0.8685 N   0  0  0  0  0  0  0  0  0  0  0  0
   18.2645  -18.1511    0.1824 H   0  0  0  0  0  0  0  0  0  0  0  0
   17.1817  -19.1809    0.9537 H   0  0  0  0  0  0  0  0  0  0  0  0
  1  2  1  0  0  0  0
  1 12  2  0  0  0  0
  2  3  1  0  0  0  0
  2  4  1  0  0  0  0
  4  5  1  0  0  0  0
  4 11  2  0  0  0  0
  5  6  2  0  0  0  0
  5  7  1  0  0  0  0
  7  8  1  0  0  0  0
  7  9  1  0  0  0  0
  9 10  2  0  0  0  0
  9 13  1  0  0  0  0
 10 11  1  0  0  0  0
 11 12  1  0  0  0  0
 13 14  1  0  0  0  0
 13 15  1  0  0  0  0
M  END
>  <CHROM.0>
-51.60194757,-62.91165953,-55.99638005,-51.63604794,-175.40865252,-60.01512846
-59.58638408,-53.83689536,-166.26997342,160.84805868

>  <CHROM.1>
-42.28563272,19.42997200,-18.33637130,3.68383956,1.40532196,0.41392732,1.58518213

>  <Name>
guanine

>  <RI>
0

>  <Rbt.Current_Directory>
/home/fstefaniak/projects/zuza/docking/adenine/1Y26

>  <Rbt.Executable>
rbdock ($Id: //depot/dev/client3/rdock/2013.1/src/exe/rbdock.cxx#4 $)

>  <Rbt.Library>
libRbt.so (2013.1, Build901 2013/11/27)

>  <Rbt.Parameter_File>
/home/fstefaniak/progs/rDock//data/scripts/dock_solv.prm

>  <Rbt.Receptor>
1y26.prm

>  <SCORE>
-61.8817

>  <SCORE.INTER>
-39.6253

>  <SCORE.INTER.CONST>
1

>  <SCORE.INTER.POLAR>
-4.97063

>  <SCORE.INTER.ROT>
1

>  <SCORE.INTER.SOLV>
14.5433

>  <SCORE.INTER.VDW>
-18.9625

>  <SCORE.INTER.norm>
-3.6023

>  <SCORE.INTRA>
-0.00413083

>  <SCORE.INTRA.DIHEDRAL>
0.000429905

>  <SCORE.INTRA.DIHEDRAL.0>
0.476907

>  <SCORE.INTRA.POLAR>
0

>  <SCORE.INTRA.POLAR.0>
0

>  <SCORE.INTRA.REPUL>
0

>  <SCORE.INTRA.REPUL.0>
0

>  <SCORE.INTRA.SOLV>
-0.000849212

>  <SCORE.INTRA.SOLV.lig_0>
-19.5088

>  <SCORE.INTRA.VDW>
-0.00392118

>  <SCORE.INTRA.VDW.0>
-0.187702

>  <SCORE.INTRA.norm>
-0.00037553

>  <SCORE.RESTR>
0

>  <SCORE.RESTR.CAVITY>
0

>  <SCORE.RESTR.norm>
0

>  <SCORE.SYSTEM>
-22.2524

>  <SCORE.SYSTEM.CONST>
0

>  <SCORE.SYSTEM.DIHEDRAL>
5.49119

>  <SCORE.SYSTEM.POLAR>
-3.46009

>  <SCORE.SYSTEM.SOLV>
0.493577

>  <SCORE.SYSTEM.VDW>
-5.29619

>  <SCORE.SYSTEM.norm>
-2.02294

>  <SCORE.heavy>
11

>  <SCORE.norm>
-5.62561

$$$$
guanine
 OpenBabel12072022103D
libRbt.so/2013.1/901 2013/11/27
 15 16  0  0  0  0  0  0  0  0999 V2000
   19.1764  -18.4737    6.4001 C   0  0  0  0  0  0  0  0  0  0  0  0
   20.2581  -18.0187    5.6931 N   0  0  0  0  0  0  0  0  0  0  0  0
   21.1235  -17.6563    6.0716 H   0  0  0  0  0  0  0  0  0  0  0  0
   19.9436  -18.1493    4.3741 C   0  0  0  0  0  0  0  0  0  0  0  0
   20.6827  -17.8378    3.2102 C   0  0  0  0  0  0  0  0  0  0  0  0
   21.8172  -17.3756    3.1973 O   0  0  0  0  0  0  0  0  0  0  0  0
   19.9723  -18.1187    2.0685 N   0  0  0  0  0  0  0  0  0  0  0  0
   20.4516  -17.9685    1.1971 H   0  0  0  0  0  0  0  0  0  0  0  0
   18.7126  -18.6695    2.0765 C   0  0  0  0  0  0  0  0  0  0  0  0
   18.0310  -18.9678    3.1438 N   0  0  0  0  0  0  0  0  0  0  0  0
   18.6876  -18.6843    4.3428 C   0  0  0  0  0  0  0  0  0  0  0  0
   18.2089  -18.8814    5.6044 N   0  0  0  0  0  0  0  0  0  0  0  0
   18.1654  -18.8997    0.8533 N   0  0  0  0  0  0  0  0  0  0  0  0
   18.2804  -18.1657    0.1672 H   0  0  0  0  0  0  0  0  0  0  0  0
   17.1947  -19.1919    0.9392 H   0  0  0  0  0  0  0  0  0  0  0  0
  1  2  1  0  0  0  0
  1 12  2  0  0  0  0
  2  3  1  0  0  0  0
  2  4  1  0  0  0  0
  4  5  1  0  0  0  0
  4 11  2  0  0  0  0
  5  6  2  0  0  0  0
  5  7  1  0  0  0  0
  7  8  1  0  0  0  0
  7  9  1  0  0  0  0
  9 10  2  0  0  0  0
  9 13  1  0  0  0  0
 10 11  1  0  0  0  0
 11 12  1  0  0  0  0
 13 14  1  0  0  0  0
 13 15  1  0  0  0  0
M  END
>  <CHROM.0>
-47.01758896,-66.15654223,-56.27245451,-52.45856902,-54.27903002,-56.78924498
-61.58888793,-49.46106017,-167.16092960,160.74123986

>  <CHROM.1>
-43.26214754,19.44773289,-18.35532320,3.66786779,1.40777016,0.39539727,1.57730960

>  <Name>
guanine

>  <RI>
0

>  <Rbt.Current_Directory>
/home/fstefaniak/projects/zuza/docking/adenine/1Y26

>  <Rbt.Executable>
rbdock ($Id: //depot/dev/client3/rdock/2013.1/src/exe/rbdock.cxx#4 $)

>  <Rbt.Library>
libRbt.so (2013.1, Build901 2013/11/27)

>  <Rbt.Parameter_File>
/home/fstefaniak/progs/rDock//data/scripts/dock_solv.prm

>  <Rbt.Receptor>
1y26.prm

>  <SCORE>
-61.7941

>  <SCORE.INTER>
-39.6096

>  <SCORE.INTER.CONST>
1

>  <SCORE.INTER.POLAR>
-4.9748

>  <SCORE.INTER.ROT>
1

>  <SCORE.INTER.SOLV>
14.5725

>  <SCORE.INTER.VDW>
-18.9479

>  <SCORE.INTER.norm>
-3.60087

>  <SCORE.INTRA>
-0.00552658

>  <SCORE.INTRA.DIHEDRAL>
0.000604191

>  <SCORE.INTRA.DIHEDRAL.0>
0.476907

>  <SCORE.INTRA.POLAR>
0

>  <SCORE.INTRA.POLAR.0>
0

>  <SCORE.INTRA.REPUL>
0

>  <SCORE.INTRA.REPUL.0>
0

>  <SCORE.INTRA.SOLV>
-0.00117663

>  <SCORE.INTRA.SOLV.lig_0>
-19.5088

>  <SCORE.INTRA.VDW>
-0.00524036

>  <SCORE.INTRA.VDW.0>
-0.187702

>  <SCORE.INTRA.norm>
-0.000502416

>  <SCORE.RESTR>
0

>  <SCORE.RESTR.CAVITY>
0

>  <SCORE.RESTR.norm>
0

>  <SCORE.SYSTEM>
-22.179

>  <SCORE.SYSTEM.CONST>
0

>  <SCORE.SYSTEM.DIHEDRAL>
6.36611

>  <SCORE.SYSTEM.POLAR>
-3.5353

>  <SCORE.SYSTEM.SOLV>
0.66457

>  <SCORE.SYSTEM.VDW>
-5.34521

>  <SCORE.SYSTEM.norm>
-2.01627

>  <SCORE.heavy>
11

>  <SCORE.norm>
-5.61764

$$$$
hypoxanthine
 OpenBabel12072022103D
libRbt.so/2013.1/901 2013/11/27
 12 13  0  0  0  0  0  0  0  0999 V2000
   20.5652  -16.2512    3.6823 C   0  0  0  0  0  0  0  0  0  0  0  0
   20.7334  -16.7007    4.9654 N   0  0  0  0  0  0  0  0  0  0  0  0
   21.4415  -16.4053    5.6249 H   0  0  0  0  0  0  0  0  0  0  0  0
   19.7585  -17.6274    5.1846 C   0  0  0  0  0  0  0  0  0  0  0  0
   19.4634  -18.4055    6.3296 C   0  0  0  0  0  0  0  0  0  0  0  0
   20.0809  -18.3703    7.3865 O   0  0  0  0  0  0  0  0  0  0  0  0
   18.3818  -19.2247    6.1199 N   0  0  0  0  0  0  0  0  0  0  0  0
   18.1061  -19.8138    6.8910 H   0  0  0  0  0  0  0  0  0  0  0  0
   17.6956  -19.2544    4.9248 C   0  0  0  0  0  0  0  0  0  0  0  0
   17.9503  -18.5511    3.8679 N   0  0  0  0  0  0  0  0  0  0  0  0
   19.0441  -17.6954    4.0207 C   0  0  0  0  0  0  0  0  0  0  0  0
   19.5472  -16.8390    3.0878 N   0  0  0  0  0  0  0  0  0  0  0  0
  1  2  1  0  0  0  0
  1 12  2  0  0  0  0
  2  3  1  0  0  0  0
  2  4  1  0  0  0  0
  4  5  1  0  0  0  0
  4 11  2  0  0  0  0
  5  6  2  0  0  0  0
  5  7  1  0  0  0  0
  7  8  1  0  0  0  0
  7  9  1  0  0  0  0
  9 10  2  0  0  0  0
 10 11  1  0  0  0  0
 11 12  1  0  0  0  0
M  END
>  <CHROM.0>
-49.94176964,-62.06542117,-58.43326742,-51.93538300,-60.07661915,-62.37025827
-57.77646534,-175.96603653,-166.57269495,161.14774513

>  <CHROM.1>
19.33822416,-17.90344137,5.01154421,-1.13456085,0.65549268,2.00305152

>  <Name>
hypoxanthine

>  <RI>
0

>  <Rbt.Current_Directory>
/home/fstefaniak/projects/zuza/docking/adenine/1Y26

>  <Rbt.Executable>
rbdock ($Id: //depot/dev/client3/rdock/2013.1/src/exe/rbdock.cxx#4 $)

>  <Rbt.Library>
libRbt.so (2013.1, Build901 2013/11/27)

>  <Rbt.Parameter_File>
/home/fstefaniak/progs/rDock//data/scripts/dock_solv.prm

>  <Rbt.Receptor>
1y26.prm

>  <SCORE>
-52.7071

>  <SCORE.INTER>
-30.0205

>  <SCORE.INTER.CONST>
1

>  <SCORE.INTER.POLAR>
-3.63706

>  <SCORE.INTER.ROT>
0

>  <SCORE.INTER.SOLV>
12.1375

>  <SCORE.INTER.VDW>
-15.5359

>  <SCORE.INTER.norm>
-3.00205

>  <SCORE.INTRA>
0

>  <SCORE.INTRA.DIHEDRAL>
0

>  <SCORE.INTRA.DIHEDRAL.0>
0

>  <SCORE.INTRA.POLAR>
0

>  <SCORE.INTRA.POLAR.0>
0

>  <SCORE.INTRA.REPUL>
0

>  <SCORE.INTRA.REPUL.0>
0

>  <SCORE.INTRA.SOLV>
0

>  <SCORE.INTRA.SOLV.lig_0>
-17.0136

>  <SCORE.INTRA.VDW>
0

>  <SCORE.INTRA.VDW.0>
0

>  <SCORE.INTRA.norm>
0

>  <SCORE.RESTR>
0

>  <SCORE.RESTR.CAVITY>
0

>  <SCORE.RESTR.norm>
0

>  <SCORE.SYSTEM>
-22.6867

>  <SCORE.SYSTEM.CONST>
0

>  <SCORE.SYSTEM.DIHEDRAL>
5.30802

>  <SCORE.SYSTEM.POLAR>
-3.43145

>  <SCORE.SYSTEM.SOLV>
0.443377

>  <SCORE.SYSTEM.VDW>
-5.6034

>  <SCORE.SYSTEM.norm>
-2.26867

>  <SCORE.heavy>
10

>  <SCORE.norm>
-5.27071

$$$$
hypoxanthine
 OpenBabel12072022103D
libRbt.so/2013.1/901 2013/11/27
 12 13  0  0  0  0  0  0  0  0999 V2000
   20.5224  -16.2355    3.6619 C   0  0  0  0  0  0  0  0  0  0  0  0
   20.7157  -16.6895    4.9399 N   0  0  0  0  0  0  0  0  0  0  0  0
   21.4336  -16.3929    5.5881 H   0  0  0  0  0  0  0  0  0  0  0  0
   19.7502  -17.6228    5.1721 C   0  0  0  0  0  0  0  0  0  0  0  0
   19.4796  -18.4075    6.3186 C   0  0  0  0  0  0  0  0  0  0  0  0
   20.1153  -18.3733    7.3647 O   0  0  0  0  0  0  0  0  0  0  0  0
   18.3991  -19.2320    6.1244 N   0  0  0  0  0  0  0  0  0  0  0  0
   18.1404  -19.8260    6.8976 H   0  0  0  0  0  0  0  0  0  0  0  0
   17.6923  -19.2606    4.9414 C   0  0  0  0  0  0  0  0  0  0  0  0
   17.9244  -18.5513    3.8833 N   0  0  0  0  0  0  0  0  0  0  0  0
   19.0158  -17.6899    4.0206 C   0  0  0  0  0  0  0  0  0  0  0  0
   19.4975  -16.8267    3.0828 N   0  0  0  0  0  0  0  0  0  0  0  0
  1  2  1  0  0  0  0
  1 12  2  0  0  0  0
  2  3  1  0  0  0  0
  2  4  1  0  0  0  0
  4  5  1  0  0  0  0
  4 11  2  0  0  0  0
  5  6  2  0  0  0  0
  5  7  1  0  0  0  0
  7  8  1  0  0  0  0
  7  9  1  0  0  0  0
  9 10  2  0  0  0  0
 10 11  1  0  0  0  0
 11 12  1  0  0  0  0
M  END
>  <CHROM.0>
-49.67714395,-61.95341717,-56.63946093,-53.26974568,-57.56436249,-61.80563476
-61.05958767,-176.04252468,-166.63046565,161.17897852

>  <CHROM.1>
19.32843531,-17.90051834,5.00522687,-1.15765842,0.65318242,2.02145909

>  <Name>
hypoxanthine

>  <RI>
0

>  <Rbt.Current_Directory>
/home/fstefaniak/projects/zuza/docking/adenine/1Y26

>  <Rbt.Executable>
rbdock ($Id: //depot/dev/client3/rdock/2013.1/src/exe/rbdock.cxx#4 $)

>  <Rbt.Library>
libRbt.so (2013.1, Build901 2013/11/27)

>  <Rbt.Parameter_File>
/home/fstefaniak/progs/rDock//data/scripts/dock_solv.prm

>  <Rbt.Receptor>
1y26.prm

>  <SCORE>
-52.7008

>  <SCORE.INTER>
-29.9527

>  <SCORE.INTER.CONST>
1

>  <SCORE.INTER.POLAR>
-3.58223

>  <SCORE.INTER.ROT>
0

>  <SCORE.INTER.SOLV>
12.1617

>  <SCORE.INTER.VDW>
-15.6816

>  <SCORE.INTER.norm>
-2.99527

>  <SCORE.INTRA>
0

>  <SCORE.INTRA.DIHEDRAL>
0

>  <SCORE.INTRA.DIHEDRAL.0>
0

>  <SCORE.INTRA.POLAR>
0

>  <SCORE.INTRA.POLAR.0>
0

>  <SCORE.INTRA.REPUL>
0

>  <SCORE.INTRA.REPUL.0>
0

>  <SCORE.INTRA.SOLV>
0

>  <SCORE.INTRA.SOLV.lig_0>
-17.0136

>  <SCORE.INTRA.VDW>
0

>  <SCORE.INTRA.VDW.0>
0

>  <SCORE.INTRA.norm>
0

>  <SCORE.RESTR>
0

>  <SCORE.RESTR.CAVITY>
0

>  <SCORE.RESTR.norm>
0

>  <SCORE.SYSTEM>
-22.7481

>  <SCORE.SYSTEM.CONST>
0

>  <SCORE.SYSTEM.DIHEDRAL>
5.26857

>  <SCORE.SYSTEM.POLAR>
-3.41641

>  <SCORE.SYSTEM.SOLV>
0.440351

>  <SCORE.SYSTEM.VDW>
-5.68035

>  <SCORE.SYSTEM.norm>
-2.27481

>  <SCORE.heavy>
10

>  <SCORE.norm>
-5.27008

$$$$
hypoxanthine
 OpenBabel12072022103D
libRbt.so/2013.1/901 2013/11/27
 12 13  0  0  0  0  0  0  0  0999 V2000
   20.5483  -16.2351    3.6773 C   0  0  0  0  0  0  0  0  0  0  0  0
   20.7260  -16.6878    4.9580 N   0  0  0  0  0  0  0  0  0  0  0  0
   21.4363  -16.3911    5.6144 H   0  0  0  0  0  0  0  0  0  0  0  0
   19.7568  -17.6199    5.1798 C   0  0  0  0  0  0  0  0  0  0  0  0
   19.4719  -18.4029    6.3239 C   0  0  0  0  0  0  0  0  0  0  0  0
   20.0952  -18.3681    7.3774 O   0  0  0  0  0  0  0  0  0  0  0  0
   18.3930  -19.2267    6.1178 N   0  0  0  0  0  0  0  0  0  0  0  0
   18.1245  -19.8195    6.8886 H   0  0  0  0  0  0  0  0  0  0  0  0
   17.7002  -19.2559    4.9266 C   0  0  0  0  0  0  0  0  0  0  0  0
   17.9456  -18.5481    3.8705 N   0  0  0  0  0  0  0  0  0  0  0  0
   19.0361  -17.6877    4.0197 C   0  0  0  0  0  0  0  0  0  0  0  0
   19.5298  -16.8260    3.0867 N   0  0  0  0  0  0  0  0  0  0  0  0
  1  2  1  0  0  0  0
  1 12  2  0  0  0  0
  2  3  1  0  0  0  0
  2  4  1  0  0  0  0
  4  5  1  0  0  0  0
  4 11  2  0  0  0  0
  5  6  2  0  0  0  0
  5  7  1  0  0  0  0
  7  8  1  0  0  0  0
  7  9  1  0  0  0  0
  9 10  2  0  0  0  0
 10 11  1  0  0  0  0
 11 12  1  0  0  0  0
M  END
>  <CHROM.0>
-48.33759676,-60.05072491,-53.66256835,-52.84762486,-59.54557666,-61.33339883
-61.08944219,-178.15448022,-168.04714243,160.36091862

>  <CHROM.1>
19.33684736,-17.89738630,5.00823599,-1.14359428,0.65744608,2.01170410

>  <Name>
hypoxanthine

>  <RI>
0

>  <Rbt.Current_Directory>
/home/fstefaniak/projects/zuza/docking/adenine/1Y26

>  <Rbt.Executable>
rbdock ($Id: //depot/dev/client3/rdock/2013.1/src/exe/rbdock.cxx#4 $)

>  <Rbt.Library>
libRbt.so (2013.1, Build901 2013/11/27)

>  <Rbt.Parameter_File>
/home/fstefaniak/progs/rDock//data/scripts/dock_solv.prm

>  <Rbt.Receptor>
1y26.prm

>  <SCORE>
-52.6719

>  <SCORE.INTER>
-29.9979

>  <SCORE.INTER.CONST>
1

>  <SCORE.INTER.POLAR>
-3.61466

>  <SCORE.INTER.ROT>
0

>  <SCORE.INTER.SOLV>
12.1452

>  <SCORE.INTER.VDW>
-15.5981

>  <SCORE.INTER.norm>
-2.99979

>  <SCORE.INTRA>
0

>  <SCORE.INTRA.DIHEDRAL>
0

>  <SCORE.INTRA.DIHEDRAL.0>
0

>  <SCORE.INTRA.POLAR>
0

>  <SCORE.INTRA.POLAR.0>
0

>  <SCORE.INTRA.REPUL>
0

>  <SCORE.INTRA.REPUL.0>
0

>  <SCORE.INTRA.SOLV>
0

>  <SCORE.INTRA.SOLV.lig_0>
-17.0136

>  <SCORE.INTRA.VDW>
0

>  <SCORE.INTRA.VDW.0>
0

>  <SCORE.INTRA.norm>
0

>  <SCORE.RESTR>
0

>  <SCORE.RESTR.CAVITY>
0

>  <SCORE.RESTR.norm>
0

>  <SCORE.SYSTEM>
-22.6741

>  <SCORE.SYSTEM.CONST>
0

>  <SCORE.SYSTEM.DIHEDRAL>
5.42266

>  <SCORE.SYSTEM.POLAR>
-3.4716

>  <SCORE.SYSTEM.SOLV>
0.448609

>  <SCORE.SYSTEM.VDW>
-5.50115

>  <SCORE.SYSTEM.norm>
-2.26741

>  <SCORE.heavy>
10

>  <SCORE.norm>
-5.26719

$$$$
purine
 OpenBabel12072022103D
libRbt.so/2013.1/901 2013/11/27
 10 11  0  0  0  0  0  0  0  0999 V2000
   19.9808  -16.8681    4.0510 C   0  0  0  0  0  0  0  0  0  0  0  0
   19.6979  -17.8426    5.0015 C   0  0  0  0  0  0  0  0  0  0  0  0
   19.0023  -18.9510    4.5475 C   0  0  0  0  0  0  0  0  0  0  0  0
   18.8496  -19.7465    5.6450 N   0  0  0  0  0  0  0  0  0  0  0  0
   18.3811  -20.6397    5.6573 H   0  0  0  0  0  0  0  0  0  0  0  0
   19.4434  -19.1085    6.7004 C   0  0  0  0  0  0  0  0  0  0  0  0
   19.9670  -17.9531    6.3458 N   0  0  0  0  0  0  0  0  0  0  0  0
   18.5685  -19.1984    3.3024 N   0  0  0  0  0  0  0  0  0  0  0  0
   18.9004  -18.1867    2.4728 C   0  0  0  0  0  0  0  0  0  0  0  0
   19.5720  -17.0501    2.7673 N   0  0  0  0  0  0  0  0  0  0  0  0
  1  2  2  0  0  0  0
  1 10  1  0  0  0  0
  2  3  1  0  0  0  0
  2  7  1  0  0  0  0
  3  4  1  0  0  0  0
  3  8  2  0  0  0  0
  4  5  1  0  0  0  0
  4  6  1  0  0  0  0
  6  7  2  0  0  0  0
  8  9  1  0  0  0  0
  9 10  2  0  0  0  0
M  END
>  <CHROM.0>
-49.00426524,-174.15808283,-56.41625009,-53.95880128,-56.86320646,-61.90537987
-61.82921793,-178.06897609,-166.57664347,160.37823896

>  <CHROM.1>
19.32000290,-18.34638660,4.54176902,-1.65283591,1.04421196,2.00308334

>  <Name>
purine

>  <RI>
0

>  <Rbt.Current_Directory>
/home/fstefaniak/projects/zuza/docking/adenine/1Y26

>  <Rbt.Executable>
rbdock ($Id: //depot/dev/client3/rdock/2013.1/src/exe/rbdock.cxx#4 $)

>  <Rbt.Library>
libRbt.so (2013.1, Build901 2013/11/27)

>  <Rbt.Parameter_File>
/home/fstefaniak/progs/rDock//data/scripts/dock_solv.prm

>  <Rbt.Receptor>
1y26.prm

>  <SCORE>
-60.9159

>  <SCORE.INTER>
-38.0011

>  <SCORE.INTER.CONST>
1

>  <SCORE.INTER.POLAR>
-4.17355

>  <SCORE.INTER.ROT>
0

>  <SCORE.INTER.SOLV>
11.6136

>  <SCORE.INTER.VDW>
-18.8934

>  <SCORE.INTER.norm>
-4.22235

>  <SCORE.INTRA>
0

>  <SCORE.INTRA.DIHEDRAL>
0

>  <SCORE.INTRA.DIHEDRAL.0>
0

>  <SCORE.INTRA.POLAR>
0

>  <SCORE.INTRA.POLAR.0>
0

>  <SCORE.INTRA.REPUL>
0

>  <SCORE.INTRA.REPUL.0>
0

>  <SCORE.INTRA.SOLV>
0

>  <SCORE.INTRA.SOLV.lig_0>
-13.6323

>  <SCORE.INTRA.VDW>
0

>  <SCORE.INTRA.VDW.0>
0

>  <SCORE.INTRA.norm>
0

>  <SCORE.RESTR>
0

>  <SCORE.RESTR.CAVITY>
0

>  <SCORE.RESTR.norm>
0

>  <SCORE.SYSTEM>
-22.9147

>  <SCORE.SYSTEM.CONST>
0

>  <SCORE.SYSTEM.DIHEDRAL>
5.54371

>  <SCORE.SYSTEM.POLAR>
-3.43857

>  <SCORE.SYSTEM.SOLV>
0.379128

>  <SCORE.SYSTEM.VDW>
-5.78887

>  <SCORE.SYSTEM.norm>
-2.54608

>  <SCORE.heavy>
9

>  <SCORE.norm>
-6.76843

$$$$
purine
 OpenBabel12072022103D
libRbt.so/2013.1/901 2013/11/27
 10 11  0  0  0  0  0  0  0  0999 V2000
   19.9737  -16.9352    4.0190 C   0  0  0  0  0  0  0  0  0  0  0  0
   19.6713  -17.8744    4.9986 C   0  0  0  0  0  0  0  0  0  0  0  0
   18.9451  -18.9772    4.5801 C   0  0  0  0  0  0  0  0  0  0  0  0
   18.7783  -19.7367    5.7008 N   0  0  0  0  0  0  0  0  0  0  0  0
   18.2873  -20.6169    5.7412 H   0  0  0  0  0  0  0  0  0  0  0  0
   19.3939  -19.0840    6.7346 C   0  0  0  0  0  0  0  0  0  0  0  0
   19.9448  -17.9531    6.3442 N   0  0  0  0  0  0  0  0  0  0  0  0
   18.4984  -19.2491    3.3447 N   0  0  0  0  0  0  0  0  0  0  0  0
   18.8514  -18.2705    2.4847 C   0  0  0  0  0  0  0  0  0  0  0  0
   19.5533  -17.1435    2.7431 N   0  0  0  0  0  0  0  0  0  0  0  0
  1  2  2  0  0  0  0
  1 10  1  0  0  0  0
  2  3  1  0  0  0  0
  2  7  1  0  0  0  0
  3  4  1  0  0  0  0
  3  8  2  0  0  0  0
  4  5  1  0  0  0  0
  4  6  1  0  0  0  0
  6  7  2  0  0  0  0
  8  9  1  0  0  0  0
  9 10  2  0  0  0  0
M  END
>  <CHROM.0>
-50.93259735,-176.60845370,-55.56406634,-53.40332162,-56.27757371,-62.13139910
-61.00952498,-176.70737450,-166.53294073,160.68596836

>  <CHROM.1>
19.27811629,-18.38135251,4.55540428,-1.64199352,1.01878297,1.96496476

>  <Name>
purine

>  <RI>
0

>  <Rbt.Current_Directory>
/home/fstefaniak/projects/zuza/docking/adenine/1Y26

>  <Rbt.Executable>
rbdock ($Id: //depot/dev/client3/rdock/2013.1/src/exe/rbdock.cxx#4 $)

>  <Rbt.Library>
libRbt.so (2013.1, Build901 2013/11/27)

>  <Rbt.Parameter_File>
/home/fstefaniak/progs/rDock//data/scripts/dock_solv.prm

>  <Rbt.Receptor>
1y26.prm

>  <SCORE>
-60.8566

>  <SCORE.INTER>
-37.9412

>  <SCORE.INTER.CONST>
1

>  <SCORE.INTER.POLAR>
-4.17604

>  <SCORE.INTER.ROT>
0

>  <SCORE.INTER.SOLV>
11.558

>  <SCORE.INTER.VDW>
-18.8267

>  <SCORE.INTER.norm>
-4.21569

>  <SCORE.INTRA>
0

>  <SCORE.INTRA.DIHEDRAL>
0

>  <SCORE.INTRA.DIHEDRAL.0>
0

>  <SCORE.INTRA.POLAR>
0

>  <SCORE.INTRA.POLAR.0>
0

>  <SCORE.INTRA.REPUL>
0

>  <SCORE.INTRA.REPUL.0>
0

>  <SCORE.INTRA.SOLV>
0

>  <SCORE.INTRA.SOLV.lig_0>
-13.6323

>  <SCORE.INTRA.VDW>
0

>  <SCORE.INTRA.VDW.0>
0

>  <SCORE.INTRA.norm>
0

>  <SCORE.RESTR>
0

>  <SCORE.RESTR.CAVITY>
0

>  <SCORE.RESTR.norm>
0

>  <SCORE.SYSTEM>
-22.9153

>  <SCORE.SYSTEM.CONST>
0

>  <SCORE.SYSTEM.DIHEDRAL>
5.32294

>  <SCORE.SYSTEM.POLAR>
-3.42344

>  <SCORE.SYSTEM.SOLV>
0.384348

>  <SCORE.SYSTEM.VDW>
-5.76784

>  <SCORE.SYSTEM.norm>
-2.54615

>  <SCORE.heavy>
9

>  <SCORE.norm>
-6.76184

$$$$
purine
 OpenBabel12072022103D
libRbt.so/2013.1/901 2013/11/27
 10 11  0  0  0  0  0  0  0  0999 V2000
   19.9725  -16.8987    4.0277 C   0  0  0  0  0  0  0  0  0  0  0  0
   19.6821  -17.8586    4.9907 C   0  0  0  0  0  0  0  0  0  0  0  0
   18.9696  -18.9629    4.5530 C   0  0  0  0  0  0  0  0  0  0  0  0
   18.8126  -19.7439    5.6603 N   0  0  0  0  0  0  0  0  0  0  0  0
   18.3326  -20.6306    5.6853 H   0  0  0  0  0  0  0  0  0  0  0  0
   19.4204  -19.1018    6.7053 C   0  0  0  0  0  0  0  0  0  0  0  0
   19.9571  -17.9574    6.3347 N   0  0  0  0  0  0  0  0  0  0  0  0
   18.5259  -19.2186    3.3132 N   0  0  0  0  0  0  0  0  0  0  0  0
   18.8664  -18.2208    2.4704 C   0  0  0  0  0  0  0  0  0  0  0  0
   19.5544  -17.0899    2.7483 N   0  0  0  0  0  0  0  0  0  0  0  0
  1  2  2  0  0  0  0
  1 10  1  0  0  0  0
  2  3  1  0  0  0  0
  2  7  1  0  0  0  0
  3  4  1  0  0  0  0
  3  8  2  0  0  0  0
  4  5  1  0  0  0  0
  4  6  1  0  0  0  0
  6  7  2  0  0  0  0
  8  9  1  0  0  0  0
  9 10  2  0  0  0  0
M  END
>  <CHROM.0>
-51.48591202,-173.17620839,-56.98179658,-51.93479032,-57.55806769,-62.46494939
-62.78027068,-176.06307650,-165.81679188,160.42938699

>  <CHROM.1>
19.29517999,-18.36256134,4.53874240,-1.65185218,1.03009199,1.99088440

>  <Name>
purine

>  <RI>
0

>  <Rbt.Current_Directory>
/home/fstefaniak/projects/zuza/docking/adenine/1Y26

>  <Rbt.Executable>
rbdock ($Id: //depot/dev/client3/rdock/2013.1/src/exe/rbdock.cxx#4 $)

>  <Rbt.Library>
libRbt.so (2013.1, Build901 2013/11/27)

>  <Rbt.Parameter_File>
/home/fstefaniak/progs/rDock//data/scripts/dock_solv.prm

>  <Rbt.Receptor>
1y26.prm

>  <SCORE>
-60.8429

>  <SCORE.INTER>
-37.9778

>  <SCORE.INTER.CONST>
1

>  <SCORE.INTER.POLAR>
-4.17355

>  <SCORE.INTER.ROT>
0

>  <SCORE.INTER.SOLV>
11.609

>  <SCORE.INTER.VDW>
-18.8763

>  <SCORE.INTER.norm>
-4.21975

>  <SCORE.INTRA>
0

>  <SCORE.INTRA.DIHEDRAL>
0

>  <SCORE.INTRA.DIHEDRAL.0>
0

>  <SCORE.INTRA.POLAR>
0

>  <SCORE.INTRA.POLAR.0>
0

>  <SCORE.INTRA.REPUL>
0

>  <SCORE.INTRA.REPUL.0>
0

>  <SCORE.INTRA.SOLV>
0

>  <SCORE.INTRA.SOLV.lig_0>
-13.6323

>  <SCORE.INTRA.VDW>
0

>  <SCORE.INTRA.VDW.0>
0

>  <SCORE.INTRA.norm>
0

>  <SCORE.RESTR>
0

>  <SCORE.RESTR.CAVITY>
0

>  <SCORE.RESTR.norm>
0

>  <SCORE.SYSTEM>
-22.8651

>  <SCORE.SYSTEM.CONST>
0

>  <SCORE.SYSTEM.DIHEDRAL>
5.63469

>  <SCORE.SYSTEM.POLAR>
-3.43883

>  <SCORE.SYSTEM.SOLV>
0.372899

>  <SCORE.SYSTEM.VDW>
-5.78316

>  <SCORE.SYSTEM.norm>
-2.54057

>  <SCORE.heavy>
9

>  <SCORE.norm>
-6.76032

$$$$
xanthine
 OpenBabel12072022103D
libRbt.so/2013.1/901 2013/11/27
 14 15  0  0  0  0  0  0  0  0999 V2000
   19.0358  -18.5840    1.8829 C   0  0  0  0  0  0  0  0  0  0  0  0
   20.0062  -17.7860    2.4398 N   0  0  0  0  0  0  0  0  0  0  0  0
   20.6523  -17.1809    1.9490 H   0  0  0  0  0  0  0  0  0  0  0  0
   19.9292  -17.9687    3.7880 C   0  0  0  0  0  0  0  0  0  0  0  0
   18.9191  -18.8644    3.9676 C   0  0  0  0  0  0  0  0  0  0  0  0
   18.3589  -19.2524    2.7984 N   0  0  0  0  0  0  0  0  0  0  0  0
   18.5684  -19.2772    5.2156 N   0  0  0  0  0  0  0  0  0  0  0  0
   17.8164  -19.9419    5.3225 H   0  0  0  0  0  0  0  0  0  0  0  0
   19.2302  -18.7950    6.3172 C   0  0  0  0  0  0  0  0  0  0  0  0
   18.9384  -19.1472    7.4573 O   0  0  0  0  0  0  0  0  0  0  0  0
   20.2488  -17.8879    6.0915 N   0  0  0  0  0  0  0  0  0  0  0  0
   20.7286  -17.5398    6.9063 H   0  0  0  0  0  0  0  0  0  0  0  0
   20.6712  -17.4146    4.8647 C   0  0  0  0  0  0  0  0  0  0  0  0
   21.5840  -16.6082    4.7372 O   0  0  0  0  0  0  0  0  0  0  0  0
  1  2  1  0  0  0  0
  1  6  2  0  0  0  0
  2  3  1  0  0  0  0
  2  4  1  0  0  0  0
  4  5  2  0  0  0  0
  4 13  1  0  0  0  0
  5  6  1  0  0  0  0
  5  7  1  0  0  0  0
  7  8  1  0  0  0  0
  7  9  1  0  0  0  0
  9 10  2  0  0  0  0
  9 11  1  0  0  0  0
 11 12  1  0  0  0  0
 11 13  1  0  0  0  0
 13 14  2  0  0  0  0
M  END
>  <CHROM.0>
-170.06046622,64.02747788,-54.81440780,-53.75317766,-55.83562681,-60.81347435
-59.14419420,-176.03934168,-166.90456036,159.88837641

>  <CHROM.1>
19.60891657,-18.31388541,4.55658520,1.59414523,-0.71502806,-1.48519302

>  <Name>
xanthine

>  <RI>
0

>  <Rbt.Current_Directory>
/home/fstefaniak/projects/zuza/docking/adenine/1Y26

>  <Rbt.Executable>
rbdock ($Id: //depot/dev/client3/rdock/2013.1/src/exe/rbdock.cxx#4 $)

>  <Rbt.Library>
libRbt.so (2013.1, Build901 2013/11/27)

>  <Rbt.Parameter_File>
/home/fstefaniak/progs/rDock//data/scripts/dock_solv.prm

>  <Rbt.Receptor>
1y26.prm

>  <SCORE>
-54.3433

>  <SCORE.INTER>
-33.551

>  <SCORE.INTER.CONST>
1

>  <SCORE.INTER.POLAR>
-4.16443

>  <SCORE.INTER.ROT>
0

>  <SCORE.INTER.SOLV>
13.2993

>  <SCORE.INTER.VDW>
-16.519

>  <SCORE.INTER.norm>
-3.05009

>  <SCORE.INTRA>
0

>  <SCORE.INTRA.DIHEDRAL>
0

>  <SCORE.INTRA.DIHEDRAL.0>
0

>  <SCORE.INTRA.POLAR>
0

>  <SCORE.INTRA.POLAR.0>
0

>  <SCORE.INTRA.REPUL>
0

>  <SCORE.INTRA.REPUL.0>
0

>  <SCORE.INTRA.SOLV>
0

>  <SCORE.INTRA.SOLV.lig_0>
-20.3028

>  <SCORE.INTRA.VDW>
0

>  <SCORE.INTRA.VDW.0>
0

>  <SCORE.INTRA.norm>
0

>  <SCORE.RESTR>
0

>  <SCORE.RESTR.CAVITY>
0

>  <SCORE.RESTR.norm>
0

>  <SCORE.SYSTEM>
-20.7923

>  <SCORE.SYSTEM.CONST>
0

>  <SCORE.SYSTEM.DIHEDRAL>
5.53021

>  <SCORE.SYSTEM.POLAR>
-3.21415

>  <SCORE.SYSTEM.SOLV>
0.419513

>  <SCORE.SYSTEM.VDW>
-5.13095

>  <SCORE.SYSTEM.norm>
-1.89021

>  <SCORE.heavy>
11

>  <SCORE.norm>
-4.9403

$$$$
xanthine
 OpenBabel12072022103D
libRbt.so/2013.1/901 2013/11/27
 14 15  0  0  0  0  0  0  0  0999 V2000
   19.0513  -18.6043    1.8881 C   0  0  0  0  0  0  0  0  0  0  0  0
   20.0069  -17.7877    2.4435 N   0  0  0  0  0  0  0  0  0  0  0  0
   20.6444  -17.1746    1.9514 H   0  0  0  0  0  0  0  0  0  0  0  0
   19.9291  -17.9647    3.7925 C   0  0  0  0  0  0  0  0  0  0  0  0
   18.9333  -18.8759    3.9739 C   0  0  0  0  0  0  0  0  0  0  0  0
   18.3828  -19.2791    2.8052 N   0  0  0  0  0  0  0  0  0  0  0  0
   18.5859  -19.2880    5.2230 N   0  0  0  0  0  0  0  0  0  0  0  0
   17.8445  -19.9644    5.3313 H   0  0  0  0  0  0  0  0  0  0  0  0
   19.2365  -18.7893    6.3240 C   0  0  0  0  0  0  0  0  0  0  0  0
   18.9473  -19.1404    7.4650 O   0  0  0  0  0  0  0  0  0  0  0  0
   20.2408  -17.8668    6.0963 N   0  0  0  0  0  0  0  0  0  0  0  0
   20.7125  -17.5067    6.9107 H   0  0  0  0  0  0  0  0  0  0  0  0
   20.6588  -17.3930    4.8683 C   0  0  0  0  0  0  0  0  0  0  0  0
   21.5586  -16.5723    4.7391 O   0  0  0  0  0  0  0  0  0  0  0  0
  1  2  1  0  0  0  0
  1  6  2  0  0  0  0
  2  3  1  0  0  0  0
  2  4  1  0  0  0  0
  4  5  2  0  0  0  0
  4 13  1  0  0  0  0
  5  6  1  0  0  0  0
  5  7  1  0  0  0  0
  7  8  1  0  0  0  0
  7  9  1  0  0  0  0
  9 10  2  0  0  0  0
  9 11  1  0  0  0  0
 11 12  1  0  0  0  0
 11 13  1  0  0  0  0
 13 14  2  0  0  0  0
M  END
>  <CHROM.0>
-170.85768213,64.68269013,-52.55406862,-52.33789704,-55.51654616,-176.01900002
-59.82682145,-52.17556478,-168.34229851,160.14513297

>  <CHROM.1>
19.61231413,-18.31112946,4.56191777,1.59223041,-0.73159835,-1.49162280

>  <Name>
xanthine

>  <RI>
0

>  <Rbt.Current_Directory>
/home/fstefaniak/projects/zuza/docking/adenine/1Y26

>  <Rbt.Executable>
rbdock ($Id: //depot/dev/client3/rdock/2013.1/src/exe/rbdock.cxx#4 $)

>  <Rbt.Library>
libRbt.so (2013.1, Build901 2013/11/27)

>  <Rbt.Parameter_File>
/home/fstefaniak/progs/rDock//data/scripts/dock_solv.prm

>  <Rbt.Receptor>
1y26.prm

>  <SCORE>
-53.7018

>  <SCORE.INTER>
-33.5931

>  <SCORE.INTER.CONST>
1

>  <SCORE.INTER.POLAR>
-4.214

>  <SCORE.INTER.ROT>
0

>  <SCORE.INTER.SOLV>
13.3033

>  <SCORE.INTER.VDW>
-16.3831

>  <SCORE.INTER.norm>
-3.05392

>  <SCORE.INTRA>
0

>  <SCORE.INTRA.DIHEDRAL>
0

>  <SCORE.INTRA.DIHEDRAL.0>
0

>  <SCORE.INTRA.POLAR>
0

>  <SCORE.INTRA.POLAR.0>
0

>  <SCORE.INTRA.REPUL>
0

>  <SCORE.INTRA.REPUL.0>
0

>  <SCORE.INTRA.SOLV>
0

>  <SCORE.INTRA.SOLV.lig_0>
-20.3028

>  <SCORE.INTRA.VDW>
0

>  <SCORE.INTRA.VDW.0>
0

>  <SCORE.INTRA.norm>
0

>  <SCORE.RESTR>
0

>  <SCORE.RESTR.CAVITY>
0

>  <SCORE.RESTR.norm>
0

>  <SCORE.SYSTEM>
-20.1087

>  <SCORE.SYSTEM.CONST>
0

>  <SCORE.SYSTEM.DIHEDRAL>
5.7978

>  <SCORE.SYSTEM.POLAR>
-3.26667

>  <SCORE.SYSTEM.SOLV>
0.49476

>  <SCORE.SYSTEM.VDW>
-4.61441

>  <SCORE.SYSTEM.norm>
-1.82806

>  <SCORE.heavy>
11

>  <SCORE.norm>
-4.88198

$$$$
xanthine
 OpenBabel12072022103D
libRbt.so/2013.1/901 2013/11/27
 14 15  0  0  0  0  0  0  0  0999 V2000
   21.3292  -16.3091    3.3597 C   0  0  0  0  0  0  0  0  0  0  0  0
   20.5293  -17.2948    2.8332 N   0  0  0  0  0  0  0  0  0  0  0  0
   20.4028  -17.5179    1.8541 H   0  0  0  0  0  0  0  0  0  0  0  0
   19.9364  -17.9166    3.8910 C   0  0  0  0  0  0  0  0  0  0  0  0
   20.4111  -17.2723    4.9930 C   0  0  0  0  0  0  0  0  0  0  0  0
   21.2725  -16.2771    4.6784 N   0  0  0  0  0  0  0  0  0  0  0  0
   20.0170  -17.6446    6.2408 N   0  0  0  0  0  0  0  0  0  0  0  0
   20.3830  -17.1513    7.0417 H   0  0  0  0  0  0  0  0  0  0  0  0
   19.1312  -18.6796    6.4085 C   0  0  0  0  0  0  0  0  0  0  0  0
   18.7554  -19.0404    7.5209 O   0  0  0  0  0  0  0  0  0  0  0  0
   18.6735  -19.3069    5.2646 N   0  0  0  0  0  0  0  0  0  0  0  0
   18.0237  -20.0654    5.3981 H   0  0  0  0  0  0  0  0  0  0  0  0
   19.0179  -18.9974    3.9635 C   0  0  0  0  0  0  0  0  0  0  0  0
   18.5725  -19.5970    2.9931 O   0  0  0  0  0  0  0  0  0  0  0  0
  1  2  1  0  0  0  0
  1  6  2  0  0  0  0
  2  3  1  0  0  0  0
  2  4  1  0  0  0  0
  4  5  2  0  0  0  0
  4 13  1  0  0  0  0
  5  6  1  0  0  0  0
  5  7  1  0  0  0  0
  7  8  1  0  0  0  0
  7  9  1  0  0  0  0
  9 10  2  0  0  0  0
  9 11  1  0  0  0  0
 11 12  1  0  0  0  0
 11 13  1  0  0  0  0
 13 14  2  0  0  0  0
M  END
>  <CHROM.0>
-173.64600782,74.39954782,-55.92897841,-52.18542877,-175.03770511,-57.83760008
-61.16474408,-49.37072609,-166.76304166,160.40025037

>  <CHROM.1>
19.75143006,-18.06997113,4.75972822,-0.73459587,0.86751306,1.49576471

>  <Name>
xanthine

>  <RI>
0

>  <Rbt.Current_Directory>
/home/fstefaniak/projects/zuza/docking/adenine/1Y26

>  <Rbt.Executable>
rbdock ($Id: //depot/dev/client3/rdock/2013.1/src/exe/rbdock.cxx#4 $)

>  <Rbt.Library>
libRbt.so (2013.1, Build901 2013/11/27)

>  <Rbt.Parameter_File>
/home/fstefaniak/progs/rDock//data/scripts/dock_solv.prm

>  <Rbt.Receptor>
1y26.prm

>  <SCORE>
-53.6399

>  <SCORE.INTER>
-33.7828

>  <SCORE.INTER.CONST>
1

>  <SCORE.INTER.POLAR>
-4.28752

>  <SCORE.INTER.ROT>
0

>  <SCORE.INTER.SOLV>
13.5299

>  <SCORE.INTER.VDW>
-16.3401

>  <SCORE.INTER.norm>
-3.07116

>  <SCORE.INTRA>
0

>  <SCORE.INTRA.DIHEDRAL>
0

>  <SCORE.INTRA.DIHEDRAL.0>
0

>  <SCORE.INTRA.POLAR>
0

>  <SCORE.INTRA.POLAR.0>
0

>  <SCORE.INTRA.REPUL>
0

>  <SCORE.INTRA.REPUL.0>
0

>  <SCORE.INTRA.SOLV>
0

>  <SCORE.INTRA.SOLV.lig_0>
-20.3028

>  <SCORE.INTRA.VDW>
0

>  <SCORE.INTRA.VDW.0>
0

>  <SCORE.INTRA.norm>
0

>  <SCORE.RESTR>
0

>  <SCORE.RESTR.CAVITY>
0

>  <SCORE.RESTR.norm>
0

>  <SCORE.SYSTEM>
-19.8571

>  <SCORE.SYSTEM.CONST>
0

>  <SCORE.SYSTEM.DIHEDRAL>
6.60113

>  <SCORE.SYSTEM.POLAR>
-3.27884

>  <SCORE.SYSTEM.SOLV>
0.444319

>  <SCORE.SYSTEM.VDW>
-4.65708

>  <SCORE.SYSTEM.norm>
-1.80519

>  <SCORE.heavy>
11

>  <SCORE.norm>
-4.87635

$$$$
