@<TRIPOS>MOLECULE
4XNR.pdb
2258 2433 71 0 0
NUCLEIC_ACID
AMBER ff14SB


@<TRIPOS>ATOM
      1 O5'        23.8360    6.8110   -1.8270 O.3       1   G13      -0.6223
      2 C5'        24.5150    7.3550   -2.9500 C.3       1   G13       0.0558
      3 C4'        24.5090    6.3960   -4.1130 C.3       1   G13       0.1065
      4 O4'        25.2720    5.2100   -3.7710 O.3       1   G13      -0.3548
      5 C3'        23.1450    5.8560   -4.5190 C.3       1   G13       0.2022
      6 O3'        22.4220    6.7460   -5.3520 O.3       1   G13      -0.5246
      7 C2'        23.4950    4.5370   -5.1920 C.3       1   G13       0.0670
      8 O2'        23.9660    4.7570   -6.5130 O.3       1   G13      -0.6139
      9 C1'        24.6680    4.0650   -4.3340 C.3       1   G13       0.0191
     10 N9         24.2330    3.1840   -3.2340 N.ar      1   G13       0.0492
     11 C8         24.2610    3.4740   -1.8920 C.ar      1   G13       0.1374
     12 N7         23.8160    2.5010   -1.1450 N.ar      1   G13      -0.5709
     13 C5         23.4740    1.5050   -2.0490 C.ar      1   G13       0.1744
     14 C6         22.9340    0.2120   -1.8270 C.2       1   G13       0.4770
     15 O6         22.6430   -0.3290   -0.7530 O.2       1   G13      -0.5597
     16 N1         22.7390   -0.4710   -3.0230 N.am      1   G13      -0.4787
     17 C2         23.0240    0.0230   -4.2710 C.2       1   G13       0.7657
     18 N2         22.7640   -0.7930   -5.3040 N.pl3     1   G13      -0.9672
     19 N3         23.5270    1.2270   -4.4920 N.2       1   G13      -0.6323
     20 C4         23.7270    1.9090   -3.3440 C.ar      1   G13       0.1222
     21 H5'        25.5470    7.5681   -2.6714 H         1   G13       0.0679
     22 H5''       24.0263    8.2824   -3.2486 H         1   G13       0.0679
     23 H4'        24.9705    6.8792   -4.9742 H         1   G13       0.1174
     24 H3'        22.5604    5.6539   -3.6215 H         1   G13       0.0615
     25 H2'        22.6629    3.8334   -5.1677 H         1   G13       0.0972
     26 H1'        25.3905    3.5402   -4.9590 H         1   G13       0.2006
     27 H8         24.6158    4.4134   -1.4946 H         1   G13       0.1640
     28 H1         22.3574   -1.4045   -2.9685 H         1   G13       0.3424
     29 H21        22.3803   -1.7123   -5.1372 H         1   G13       0.4364
     30 H22        22.9520   -0.4879   -6.2483 H         1   G13       0.4364
     31 HO2'       23.2403    5.0546   -7.0666 H         1   G13       0.4186
     32 HO5'       24.1266    7.0021   -0.9322 H         1   G13       0.4295
     33 P          20.8420    6.9460   -5.1400 P.3       2   G14       1.1662
     34 OP1        20.4260    8.1530   -5.8990 O.co2     2   G14      -0.7760
     35 OP2        20.5630    6.8620   -3.6830 O.co2     2   G14      -0.7760
     36 O5'        20.1920    5.6730   -5.8430 O.3       2   G14      -0.4989
     37 C5'        20.2670    5.4990   -7.2500 C.3       2   G14       0.0558
     38 C4'        19.8050    4.1240   -7.6640 C.3       2   G14       0.1065
     39 O4'        20.6870    3.1190   -7.0970 O.3       2   G14      -0.3548
     40 C3'        18.4220    3.7100   -7.1840 C.3       2   G14       0.2022
     41 O3'        17.3720    4.2360   -7.9760 O.3       2   G14      -0.5246
     42 C2'        18.5050    2.1920   -7.2090 C.3       2   G14       0.0670
     43 O2'        18.3780    1.7050   -8.5370 O.3       2   G14      -0.6139
     44 C1'        19.9450    1.9680   -6.7490 C.3       2   G14       0.0191
     45 N9         20.0240    1.7860   -5.2880 N.ar      2   G14       0.0492
     46 C8         20.4990    2.6860   -4.3640 C.ar      2   G14       0.1374
     47 N7         20.4370    2.2410   -3.1390 N.ar      2   G14      -0.5709
     48 C5         19.8850    0.9740   -3.2600 C.ar      2   G14       0.1744
     49 C6         19.5760    0.0060   -2.2690 C.2       2   G14       0.4770
     50 O6         19.7340    0.0790   -1.0450 O.2       2   G14      -0.5597
     51 N1         19.0280   -1.1430   -2.8310 N.am      2   G14      -0.4787
     52 C2         18.8060   -1.3400   -4.1710 C.2       2   G14       0.7657
     53 N2         18.2690   -2.5190   -4.5160 N.pl3     2   G14      -0.9672
     54 N3         19.0900   -0.4470   -5.1040 N.2       2   G14      -0.6323
     55 C4         19.6230    0.6780   -4.5810 C.ar      2   G14       0.1222
     56 H5'        21.3003    5.6359   -7.5688 H         2   G14       0.0679
     57 H5''       19.6412    6.2474   -7.7362 H         2   G14       0.0679
     58 H4'        19.8387    4.0517   -8.7511 H         2   G14       0.1174
     59 H3'        18.2899    4.0413   -6.1540 H         2   G14       0.0615
     60 H2'        17.7836    1.7317   -6.5338 H         2   G14       0.0972
     61 H1'        20.3611    1.0952   -7.2522 H         2   G14       0.2006
     62 H8         20.8838    3.6608   -4.6250 H         2   G14       0.1640
     63 H1         18.7733   -1.8917   -2.2027 H         2   G14       0.3424
     64 H21        18.0516   -3.2023   -3.8048 H         2   G14       0.4364
     65 H22        18.0819   -2.7238   -5.4871 H         2   G14       0.4364
     66 HO2'       17.4776    1.8381   -8.8424 H         2   G14       0.4186
     67 P          15.9750    4.6410   -7.2930 P.3       3   G15       1.1662
     68 OP1        15.1320    5.2980   -8.3240 O.co2     3   G15      -0.7760
     69 OP2        16.2760    5.3550   -6.0260 O.co2     3   G15      -0.7760
     70 O5'        15.3050    3.2440   -6.9210 O.3       3   G15      -0.4989
     71 C5'        14.9010    2.3360   -7.9360 C.3       3   G15       0.0558
     72 C4'        14.4580    1.0140   -7.3590 C.3       3   G15       0.1065
     73 O4'        15.5640    0.3830   -6.6610 O.3       3   G15      -0.3548
     74 C3'        13.3540    1.0710   -6.3160 C.3       3   G15       0.2022
     75 O3'        12.0600    1.2110   -6.8770 O.3       3   G15      -0.5246
     76 C2'        13.5530   -0.2320   -5.5550 C.3       3   G15       0.0670
     77 O2'        13.0260   -1.3280   -6.2880 O.3       3   G15      -0.6139
     78 C1'        15.0780   -0.3440   -5.5500 C.3       3   G15       0.0191
     79 N9         15.6610    0.2240   -4.3200 N.ar      3   G15       0.0492
     80 C8         16.3220    1.4200   -4.1850 C.ar      3   G15       0.1374
     81 N7         16.7190    1.6490   -2.9620 N.ar      3   G15      -0.5709
     82 C5         16.2920    0.5390   -2.2470 C.ar      3   G15       0.1744
     83 C6         16.4340    0.2190   -0.8720 C.2       3   G15       0.4770
     84 O6         16.9820    0.8770    0.0200 O.2       3   G15      -0.5597
     85 N1         15.8510   -1.0080   -0.5690 N.am      3   G15      -0.4787
     86 C2         15.2150   -1.8240   -1.4710 C.2       3   G15       0.7657
     87 N2         14.7180   -2.9700   -0.9840 N.pl3     3   G15      -0.9672
     88 N3         15.0770   -1.5380   -2.7550 N.2       3   G15      -0.6323
     89 C4         15.6350   -0.3500   -3.0710 C.ar      3   G15       0.1222
     90 H5'        14.0721    2.7740   -8.4919 H         3   G15       0.0679
     91 H5''       15.7361    2.1665   -8.6157 H         3   G15       0.0679
     92 H4'        14.1392    0.3637   -8.1736 H         3   G15       0.1174
     93 H3'        13.5427    1.9080   -5.6437 H         3   G15       0.0615
     94 H2'        13.1442   -0.1817   -4.5458 H         3   G15       0.0972
     95 H1'        15.3681   -1.3906   -5.6426 H         3   G15       0.2006
     96 H8         16.4956    2.1008   -5.0052 H         3   G15       0.1640
     97 H1         15.8998   -1.3225    0.3895 H         3   G15       0.3424
     98 H21        14.8228   -3.1897   -0.0038 H         3   G15       0.4364
     99 H22        14.2388   -3.6136   -1.5973 H         3   G15       0.4364
    100 HO2'       12.0676   -1.2734   -6.3013 H         3   G15       0.4186
    101 P          10.9240    2.0220   -6.0800 P.3       4   A16       1.1662
    102 OP1         9.7450    2.1660   -6.9720 O.co2     4   A16      -0.7760
    103 OP2        11.5540    3.2320   -5.4950 O.co2     4   A16      -0.7760
    104 O5'        10.5230    1.0510   -4.8820 O.3       4   A16      -0.4989
    105 C5'         9.8720   -0.1860   -5.1340 C.3       4   A16       0.0558
    106 C4'         9.7650   -1.0260   -3.8850 C.3       4   A16       0.1065
    107 O4'        11.0900   -1.3430   -3.3860 O.3       4   A16      -0.3548
    108 C3'         9.0730   -0.3800   -2.6950 C.3       4   A16       0.2022
    109 O3'         7.6600   -0.4080   -2.7850 O.3       4   A16      -0.5246
    110 C2'         9.6270   -1.1770   -1.5220 C.3       4   A16       0.0670
    111 O2'         8.9810   -2.4380   -1.4230 O.3       4   A16      -0.6139
    112 C1'        11.0690   -1.4080   -1.9750 C.3       4   A16       0.0394
    113 N9         11.9820   -0.3820   -1.4370 N.ar      4   A16      -0.0251
    114 C8         12.5020    0.7130   -2.0820 C.ar      4   A16       0.2006
    115 N7         13.2860    1.4460   -1.3280 N.ar      4   A16      -0.6073
    116 C5         13.2790    0.7920   -0.1040 C.ar      4   A16       0.0515
    117 C6         13.9160    1.0640    1.1210 C.ar      4   A16       0.7009
    118 N6         14.7170    2.1130    1.3230 N.pl3     4   A16      -0.9019
    119 N1         13.6990    0.2100    2.1460 N.ar      4   A16      -0.7615
    120 C2         12.8960   -0.8420    1.9440 C.ar      4   A16       0.5875
    121 N3         12.2420   -1.2030    0.8420 N.ar      4   A16      -0.6997
    122 C4         12.4790   -0.3350   -0.1570 C.ar      4   A16       0.3053
    123 H5'         8.8694    0.0134   -5.5122 H         4   A16       0.0679
    124 H5''       10.4341   -0.7376   -5.8876 H         4   A16       0.0679
    125 H4'         9.2499   -1.9550   -4.1293 H         4   A16       0.1174
    126 H3'         9.4037    0.6551   -2.6098 H         4   A16       0.0615
    127 H2'         9.5768   -0.6177   -0.5878 H         4   A16       0.0972
    128 H1'        11.3989   -2.3951   -1.6509 H         4   A16       0.2007
    129 H8         12.2857    0.9486   -3.1135 H         4   A16       0.1553
    130 H2         12.7592   -1.4904    2.7968 H         4   A16       0.0473
    131 HO2'        8.4478   -2.4631   -0.6251 H         4   A16       0.4186
    132 H61        14.9372    1.8714    2.2786 H         4   A16       0.4115
    133 H62        15.0022    2.8786    0.7292 H         4   A16       0.4115
    134 P           6.7860    0.7370   -2.0720 P.3       5   A17       1.1662
    135 OP1         5.3890    0.6260   -2.5660 O.co2     5   A17      -0.7760
    136 OP2         7.5150    2.0230   -2.2110 O.co2     5   A17      -0.7760
    137 O5'         6.7940    0.3280   -0.5320 O.3       5   A17      -0.4989
    138 C5'         6.1770   -0.8750   -0.0980 C.3       5   A17       0.0558
    139 C4'         6.5560   -1.2160    1.3210 C.3       5   A17       0.1065
    140 O4'         7.9940   -1.3870    1.4220 O.3       5   A17      -0.3548
    141 C3'         6.2400   -0.1640    2.3720 C.3       5   A17       0.2022
    142 O3'         4.8820   -0.1690    2.7770 O.3       5   A17      -0.5246
    143 C2'         7.2130   -0.5160    3.4880 C.3       5   A17       0.0670
    144 O2'         6.7480   -1.6390    4.2240 O.3       5   A17      -0.6139
    145 C1'         8.4420   -0.9410    2.6860 C.3       5   A17       0.0394
    146 N9          9.3760    0.1820    2.4890 N.ar      5   A17      -0.0251
    147 C8          9.5810    0.9270    1.3540 C.ar      5   A17       0.2006
    148 N7         10.4820    1.8700    1.4980 N.ar      5   A17      -0.6073
    149 C5         10.8940    1.7380    2.8180 C.ar      5   A17       0.0515
    150 C6         11.8340    2.4400    3.5930 C.ar      5   A17       0.7009
    151 N6         12.5610    3.4600    3.1320 N.pl3     5   A17      -0.9019
    152 N1         12.0040    2.0540    4.8770 N.ar      5   A17      -0.7615
    153 C2         11.2750    1.0300    5.3410 C.ar      5   A17       0.5875
    154 N3         10.3630    0.2940    4.7120 N.ar      5   A17      -0.6997
    155 C4         10.2190    0.7030    3.4390 C.ar      5   A17       0.3053
    156 H5'         6.4903   -1.6885   -0.7523 H         5   A17       0.0679
    157 H5''        5.0946   -0.7634   -0.1610 H         5   A17       0.0679
    158 H4'         6.0696   -2.1505    1.6006 H         5   A17       0.1174
    159 H3'         6.4909    0.8207    1.9776 H         5   A17       0.0615
    160 H2'         7.4211    0.3376    4.1330 H         5   A17       0.0972
    161 H1'         8.9519   -1.7548    3.2016 H         5   A17       0.2007
    162 H8          9.0505    0.7532    0.4295 H         5   A17       0.1553
    163 H2         11.4533    0.7645    6.3725 H         5   A17       0.0473
    164 HO2'        6.8832   -1.4857    5.1620 H         5   A17       0.4186
    165 H61        12.9725    3.6414    4.0364 H         5   A17       0.4115
    166 H62        12.6616    3.8883    2.2229 H         5   A17       0.4115
    167 P           4.1790    1.1950    3.2580 P.3       6   G18       1.1662
    168 OP1         2.7340    0.9180    3.4550 O.co2     6   G18      -0.7760
    169 OP2         4.5980    2.2830    2.3380 O.co2     6   G18      -0.7760
    170 O5'         4.8240    1.4790    4.6880 O.3       6   G18      -0.4989
    171 C5'         4.6280    0.5730    5.7630 C.3       6   G18       0.0558
    172 C4'         5.5350    0.8790    6.9290 C.3       6   G18       0.1065
    173 O4'         6.9240    0.7930    6.5190 O.3       6   G18      -0.3548
    174 C3'         5.4180    2.2710    7.5250 C.3       6   G18       0.2022
    175 O3'         4.3050    2.4130    8.3890 O.3       6   G18      -0.5246
    176 C2'         6.7600    2.4420    8.2240 C.3       6   G18       0.0670
    177 O2'         6.7760    1.7410    9.4590 O.3       6   G18      -0.6139
    178 C1'         7.6970    1.7240    7.2510 C.3       6   G18       0.0191
    179 N9          8.3340    2.6630    6.3080 N.ar      6   G18       0.0492
    180 C8          8.0420    2.8460    4.9780 C.ar      6   G18       0.1374
    181 N7          8.7850    3.7590    4.4130 N.ar      6   G18      -0.5709
    182 C5          9.6180    4.2060    5.4310 C.ar      6   G18       0.1744
    183 C6         10.6390    5.1930    5.4220 C.2       6   G18       0.4770
    184 O6         11.0260    5.8940    4.4790 O.2       6   G18      -0.5597
    185 N1         11.2310    5.3270    6.6730 N.am      6   G18      -0.4787
    186 C2         10.8890    4.6080    7.7910 C.2       6   G18       0.7657
    187 N2         11.5780    4.8830    8.9080 N.pl3     6   G18      -0.9672
    188 N3          9.9400    3.6860    7.8130 N.2       6   G18      -0.6323
    189 C4          9.3510    3.5390    6.6070 C.ar      6   G18       0.1222
    190 H5'         4.8333   -0.4386    5.4130 H         6   G18       0.0679
    191 H5''        3.5910    0.6318    6.0936 H         6   G18       0.0679
    192 H4'         5.3554    0.1451    7.7147 H         6   G18       0.1174
    193 H3'         5.3396    2.9999    6.7183 H         6   G18       0.0615
    194 H2'         7.0255    3.4920    8.3469 H         6   G18       0.0972
    195 H1'         8.4671    1.1948    7.8123 H         6   G18       0.2006
    196 H8          7.2771    2.2920    4.4541 H         6   G18       0.1640
    197 H1         11.9715    6.0075    6.7664 H         6   G18       0.3424
    198 H21        12.3028    5.5863    8.8940 H         6   G18       0.4364
    199 H22        11.3722    4.3869    9.7633 H         6   G18       0.4364
    200 HO2'        6.8333    2.3687   10.1831 H         6   G18       0.4186
    201 P           3.6320    3.8560    8.6030 P.3       7   A19       1.1662
    202 OP1         2.3160    3.6590    9.2630 O.co2     7   A19      -0.7760
    203 OP2         3.7050    4.5930    7.3160 O.co2     7   A19      -0.7760
    204 O5'         4.6000    4.5800    9.6400 O.3       7   A19      -0.4989
    205 C5'         4.8440    4.0160   10.9200 C.3       7   A19       0.0558
    206 C4'         5.9940    4.7000   11.6160 C.3       7   A19       0.1065
    207 O4'         7.2190    4.4930   10.8650 O.3       7   A19      -0.3548
    208 C3'         5.8920    6.2110   11.7400 C.3       7   A19       0.2022
    209 O3'         5.0580    6.6270   12.8070 O.3       7   A19      -0.5246
    210 C2'         7.3470    6.6260   11.8990 C.3       7   A19       0.0670
    211 O2'         7.7980    6.3760   13.2220 O.3       7   A19      -0.6139
    212 C1'         8.0400    5.6390   10.9590 C.3       7   A19       0.0394
    213 N9          8.2160    6.2030    9.6080 N.ar      7   A19      -0.0251
    214 C8          7.4770    5.9370    8.4810 C.ar      7   A19       0.2006
    215 N7          7.8740    6.5980    7.4210 N.ar      7   A19      -0.6073
    216 C5          8.9450    7.3530    7.8800 C.ar      7   A19       0.0515
    217 C6          9.8020    8.2680    7.2430 C.ar      7   A19       0.7009
    218 N6          9.7100    8.5930    5.9510 N.pl3     7   A19      -0.9019
    219 N1         10.7690    8.8460    7.9880 N.ar      7   A19      -0.7615
    220 C2         10.8610    8.5210    9.2840 C.ar      7   A19       0.5875
    221 N3         10.1170    7.6770    9.9950 N.ar      7   A19      -0.6997
    222 C4          9.1660    7.1190    9.2260 C.ar      7   A19       0.3053
    223 H5'         3.9472    4.1222   11.5304 H         7   A19       0.0679
    224 H5''        5.0748    2.9569   10.8055 H         7   A19       0.0679
    225 H4'         6.1118    4.2703   12.6108 H         7   A19       0.1174
    226 H3'         5.5055    6.6194   10.8062 H         7   A19       0.0615
    227 H2'         7.5122    7.6609   11.5993 H         7   A19       0.0972
    228 H1'         9.0108    5.3617   11.3697 H         7   A19       0.2007
    229 H8          6.6460    5.2473    8.4694 H         7   A19       0.1553
    230 H2         11.6517    9.0141    9.8300 H         7   A19       0.0473
    231 H61        10.5502    9.1047    5.7224 H         7   A19       0.4115
    232 H62         8.9492    8.3706    5.3250 H         7   A19       0.4115
    233 HO2'        7.3722    6.9880   13.8267 H         7   A19       0.4186
    234 P           4.1000    7.9050   12.6270 P.3       8   U20       1.1662
    235 OP1         3.1980    7.9780   13.8040 O.co2     8   U20      -0.7760
    236 OP2         3.5230    7.8590   11.2590 O.co2     8   U20      -0.7760
    237 O5'         5.0990    9.1430   12.6990 O.3       8   U20      -0.4989
    238 C5'         5.8960    9.3640   13.8530 C.3       8   U20       0.0558
    239 C4'         6.8990   10.4670   13.6300 C.3       8   U20       0.1065
    240 O4'         7.8810   10.0540   12.6440 O.3       8   U20      -0.3548
    241 C3'         6.3470   11.7670   13.0710 C.3       8   U20       0.2022
    242 O3'         5.7240   12.5760   14.0530 O.3       8   U20      -0.5246
    243 C2'         7.5780   12.4020   12.4400 C.3       8   U20       0.0670
    244 O2'         8.4020   12.9950   13.4330 O.3       8   U20      -0.6139
    245 C1'         8.2990   11.1720   11.8860 C.3       8   U20       0.0674
    246 N1          7.9740   10.9350   10.4610 N.am      8   U20       0.0418
    247 C2          8.6600   11.6800    9.5200 C.2       8   U20       0.4687
    248 O2          9.5080   12.5030    9.8180 O.2       8   U20      -0.5477
    249 N3          8.3190   11.4270    8.2150 N.am      8   U20      -0.3549
    250 C4          7.3800   10.5230    7.7630 C.2       8   U20       0.5952
    251 O4          7.1840   10.4090    6.5510 O.2       8   U20      -0.5761
    252 C5          6.7110    9.7930    8.7960 C.2       8   U20      -0.3635
    253 C6          7.0230   10.0180   10.0770 C.2       8   U20      -0.1126
    254 H5'         5.2467    9.6389   14.6842 H         8   U20       0.0679
    255 H5''        6.4257    8.4447   14.1026 H         8   U20       0.0679
    256 H4'         7.4092   10.6756   14.5704 H         8   U20       0.1174
    257 H3'         5.6240   11.5385   12.2879 H         8   U20       0.0615
    258 H2'         7.3144   13.1089   11.6533 H         8   U20       0.0972
    259 H1'         9.3756   11.3026   11.9957 H         8   U20       0.1824
    260 H3          8.8079   11.9598    7.5099 H         8   U20       0.3154
    261 H5          5.9568    9.0629    8.5422 H         8   U20       0.1811
    262 H6          6.5069    9.4565   10.8417 H         8   U20       0.2188
    263 HO2'        7.9638   13.7700   13.7921 H         8   U20       0.4186
    264 P           4.3760   13.3740   13.6970 P.3       9   A21       1.1662
    265 OP1         3.9070   14.0600   14.9290 O.co2     9   A21      -0.7760
    266 OP2         3.4640   12.4460   12.9800 O.co2     9   A21      -0.7760
    267 O5'         4.8550   14.4960   12.6730 O.3       9   A21      -0.4989
    268 C5'         5.7630   15.5060   13.0830 C.3       9   A21       0.0558
    269 C4'         6.1500   16.4100   11.9400 C.3       9   A21       0.1065
    270 O4'         7.0050   15.7070   11.0080 O.3       9   A21      -0.3548
    271 C3'         5.0140   16.9260   11.0750 C.3       9   A21       0.2022
    272 O3'         4.3300   18.0150   11.6700 O.3       9   A21      -0.5246
    273 C2'         5.7230   17.2920    9.7740 C.3       9   A21       0.0670
    274 O2'         6.3250   18.5710    9.8730 O.3       9   A21      -0.6139
    275 C1'         6.8340   16.2380    9.7120 C.3       9   A21       0.0394
    276 N9          6.5270   15.1510    8.7640 N.ar      9   A21      -0.0251
    277 C8          5.7730   14.0190    8.9510 C.ar      9   A21       0.2006
    278 N7          5.6980   13.2590    7.8840 N.ar      9   A21      -0.6073
    279 C5          6.4500   13.9380    6.9340 C.ar      9   A21       0.0515
    280 C6          6.7660   13.6620    5.5910 C.ar      9   A21       0.7009
    281 N6          6.3450   12.5760    4.9400 N.pl3     9   A21      -0.9019
    282 N1          7.5400   14.5520    4.9290 N.ar      9   A21      -0.7615
    283 C2          7.9650   15.6420    5.5790 C.ar      9   A21       0.5875
    284 N3          7.7350   16.0110    6.8360 N.ar      9   A21      -0.6997
    285 C4          6.9620   15.1070    7.4640 C.ar      9   A21       0.3053
    286 H5'         6.6619   15.0327   13.4780 H         9   A21       0.0679
    287 H5''        5.3004   16.1033   13.8687 H         9   A21       0.0679
    288 H4'         6.6981   17.2628   12.3405 H         9   A21       0.1174
    289 H3'         4.3085   16.1169   10.8860 H         9   A21       0.0615
    290 H2'         5.0539   17.2253    8.9161 H         9   A21       0.0972
    291 H1'         7.7612   16.7216    9.4046 H         9   A21       0.2007
    292 H8          5.2886   13.7775    9.8856 H         9   A21       0.1553
    293 H2          8.5808   16.3162    5.0022 H         9   A21       0.0473
    294 HO2'        5.6469   19.2336   10.0238 H         9   A21       0.4186
    295 H61         6.9455   12.7461    4.1459 H         9   A21       0.4115
    296 H62         5.6750   11.8528    5.1596 H         9   A21       0.4115
    297 P           2.7690   17.8930   12.0300 P.3      10   U22       1.1662
    298 OP1         2.3850   19.1030   12.8010 O.co2    10   U22      -0.7760
    299 OP2         2.5290   16.5450   12.6060 O.co2    10   U22      -0.7760
    300 O5'         2.0480   17.9660   10.6130 O.3      10   U22      -0.4989
    301 C5'         0.7570   17.4010   10.4140 C.3      10   U22       0.0558
    302 C4'         0.5430   17.0120    8.9720 C.3      10   U22       0.1065
    303 O4'         0.7130   18.1890    8.1360 O.3      10   U22      -0.3548
    304 C3'         1.5130   15.9630    8.4330 C.3      10   U22       0.2022
    305 O3'         0.8500   15.1590    7.4610 O.3      10   U22      -0.5246
    306 C2'         2.5810   16.8130    7.7520 C.3      10   U22       0.0670
    307 O2'         3.3010   16.1500    6.7340 O.3      10   U22      -0.6139
    308 C1'         1.7500   17.9680    7.1980 C.3      10   U22       0.0674
    309 N1          2.5050   19.2210    7.0550 N.am     10   U22       0.0418
    310 C2          2.7690   19.6820    5.7800 C.2      10   U22       0.4687
    311 O2          2.4010   19.0940    4.7780 O.2      10   U22      -0.5477
    312 N3          3.4800   20.8560    5.7240 N.am     10   U22      -0.3549
    313 C4          3.9420   21.5980    6.7940 C.2      10   U22       0.5952
    314 O4          4.5700   22.6370    6.5870 O.2      10   U22      -0.5761
    315 C5          3.6280   21.0530    8.0790 C.2      10   U22      -0.3635
    316 C6          2.9380   19.9120    8.1630 C.2      10   U22      -0.1126
    317 H5'         0.6582   16.5135   11.0391 H        10   U22       0.0679
    318 H5''       -0.0006   18.1290   10.7042 H        10   U22       0.0679
    319 H4'        -0.4756   16.6419    8.8552 H        10   U22       0.1174
    320 H3'         1.9342   15.3568    9.2350 H        10   U22       0.0615
    321 H2'         3.2762   17.1920    8.5011 H        10   U22       0.0972
    322 H1'         1.3219   17.6849    6.2364 H        10   U22       0.1824
    323 H3          3.6870   21.2149    4.8029 H        10   U22       0.3154
    324 H5          3.9472   21.5615    8.9768 H        10   U22       0.1811
    325 H6          2.7107   19.5156    9.1416 H        10   U22       0.2188
    326 HO2'        3.8104   15.4322    7.1172 H        10   U22       0.4186
    327 P           0.0780   13.8220    7.9080 P.3      11   A23       1.1662
    328 OP1         0.2040   13.6800    9.3810 O.co2    11   A23      -0.7760
    329 OP2         0.5270   12.7160    7.0230 O.co2    11   A23      -0.7760
    330 O5'        -1.4460   14.1320    7.5710 O.3      11   A23      -0.4989
    331 C5'        -1.8030   14.7900    6.3650 C.3      11   A23       0.0558
    332 C4'        -3.1240   15.5040    6.4920 C.3      11   A23       0.1065
    333 O4'        -3.1070   16.3530    7.6660 O.3      11   A23      -0.3548
    334 C3'        -3.4760   16.4500    5.3550 C.3      11   A23       0.2022
    335 O3'        -4.0280   15.7840    4.2300 O.3      11   A23      -0.5246
    336 C2'        -4.4400   17.4340    6.0120 C.3      11   A23       0.0670
    337 O2'        -5.7540   16.8980    6.0530 O.3      11   A23      -0.6139
    338 C1'        -3.8960   17.5020    7.4430 C.3      11   A23       0.0394
    339 N9         -3.0880   18.7110    7.7180 N.ar     11   A23      -0.0251
    340 C8         -3.1590   19.4460    8.8750 C.ar     11   A23       0.2006
    341 N7         -2.3530   20.4750    8.9160 N.ar     11   A23      -0.6073
    342 C5         -1.6930   20.4210    7.7000 C.ar     11   A23       0.0515
    343 C6         -0.7010   21.2470    7.1400 C.ar     11   A23       0.7009
    344 N6         -0.1970   22.3160    7.7590 N.pl3    11   A23      -0.9019
    345 N1         -0.2390   20.9360    5.9100 N.ar     11   A23      -0.7615
    346 C2         -0.7490   19.8630    5.2950 C.ar     11   A23       0.5875
    347 N3         -1.6800   19.0130    5.7200 N.ar     11   A23      -0.6997
    348 C4         -2.1280   19.3410    6.9460 C.ar     11   A23       0.3053
    349 H5'        -1.8760   14.0508    5.5672 H        11   A23       0.0679
    350 H5''       -1.0289   15.5141    6.1109 H        11   A23       0.0679
    351 H4'        -3.9185   14.7654    6.5989 H        11   A23       0.1174
    352 H3'        -2.5777   16.9847    5.0463 H        11   A23       0.0615
    353 H2'        -4.4166   18.4086    5.5245 H        11   A23       0.0972
    354 H1'        -4.7381   17.4835    8.1349 H        11   A23       0.2007
    355 H8         -3.8266   19.1948    9.6860 H        11   A23       0.1553
    356 H2         -0.3477   19.6575    4.3136 H        11   A23       0.0473
    357 H61         0.4308   23.0646    7.5029 H        11   A23       0.4115
    358 H62        -1.0468   22.8585    7.8188 H        11   A23       0.4115
    359 HO2'       -6.1082   16.8494    5.1621 H        11   A23       0.4186
    360 P          -3.1270   15.4710    2.9340 P.3      12   A24       1.1662
    361 OP1        -3.8130   14.4020    2.1630 O.co2    12   A24      -0.7760
    362 OP2        -1.7240   15.2640    3.3720 O.co2    12   A24      -0.7760
    363 O5'        -3.1890   16.8090    2.0670 O.3      12   A24      -0.4989
    364 C5'        -2.4870   17.9790    2.4670 C.3      12   A24       0.0558
    365 C4'        -1.6600   18.5450    1.3420 C.3      12   A24       0.1065
    366 O4'        -0.6530   17.5840    0.9430 O.3      12   A24      -0.3548
    367 C3'        -2.4060   18.8610    0.0550 C.3      12   A24       0.2022
    368 O3'        -3.0550   20.1210    0.1070 O.3      12   A24      -0.5246
    369 C2'        -1.3060   18.7950   -0.9990 C.3      12   A24       0.0670
    370 O2'        -0.5690   20.0070   -1.0310 O.3      12   A24      -0.6139
    371 C1'        -0.3980   17.6990   -0.4390 C.3      12   A24       0.0394
    372 N9         -0.6100   16.3860   -1.0770 N.ar     12   A24      -0.0251
    373 C8         -1.1260   15.2450   -0.5130 C.ar     12   A24       0.2006
    374 N7         -1.1720   14.2260   -1.3360 N.ar     12   A24      -0.6073
    375 C5         -0.6430   14.7280   -2.5170 C.ar     12   A24       0.0515
    376 C6         -0.4170   14.1460   -3.7760 C.ar     12   A24       0.7009
    377 N6         -0.7050   12.8760   -4.0620 N.pl3    12   A24      -0.9019
    378 N1          0.1270   14.9200   -4.7410 N.ar     12   A24      -0.7615
    379 C2          0.4190   16.1940   -4.4510 C.ar     12   A24       0.5875
    380 N3          0.2540   16.8550   -3.3070 N.ar     12   A24      -0.6997
    381 C4         -0.2870   16.0560   -2.3710 C.ar     12   A24       0.3053
    382 H5'        -3.2079   18.7308    2.7881 H        12   A24       0.0679
    383 H5''       -1.8317   17.7335    3.3027 H        12   A24       0.0679
    384 H4'        -1.1633   19.4500    1.6917 H        12   A24       0.1174
    385 H3'        -3.1422   18.0810   -0.1390 H        12   A24       0.0615
    386 H2'        -1.6999   18.5334   -1.9811 H        12   A24       0.0972
    387 H1'         0.6411   17.9959   -0.5816 H        12   A24       0.2007
    388 H8         -1.4622   15.1924    0.5120 H        12   A24       0.1553
    389 H2          0.8493   16.7666   -5.2594 H        12   A24       0.0473
    390 H61        -1.1100   12.2786   -3.3555 H        12   A24       0.4115
    391 H62        -0.5182   12.5114   -4.9852 H        12   A24       0.4115
    392 HO2'       -0.0653   20.0538   -1.8469 H        12   A24       0.4186
    393 P          -4.6190   20.2560   -0.2360 P.3      13   U25       1.1662
    394 OP1        -5.1380   18.9160   -0.6080 O.co2    13   U25      -0.7760
    395 OP2        -4.7770   21.3930   -1.1780 O.co2    13   U25      -0.7760
    396 O5'        -5.2810   20.6800    1.1500 O.3      13   U25      -0.4989
    397 C5'        -5.6540   19.7020    2.1100 C.3      13   U25       0.0558
    398 C4'        -5.5830   20.2470    3.5140 C.3      13   U25       0.1065
    399 O4'        -4.1960   20.3650    3.9300 O.3      13   U25      -0.3548
    400 C3'        -6.1480   21.6440    3.7180 C.3      13   U25       0.2022
    401 O3'        -7.5600   21.6590    3.8400 O.3      13   U25      -0.5246
    402 C2'        -5.4220   22.1150    4.9690 C.3      13   U25       0.0670
    403 O2'        -6.0030   21.5410    6.1310 O.3      13   U25      -0.6139
    404 C1'        -4.0390   21.4940    4.7660 C.3      13   U25       0.0674
    405 N1         -3.0950   22.4340    4.1180 N.am     13   U25       0.0418
    406 C2         -2.5560   23.4500    4.8860 C.2      13   U25       0.4687
    407 O2         -2.8240   23.6070    6.0650 O.2      13   U25      -0.5477
    408 N3         -1.6900   24.2830    4.2230 N.am     13   U25      -0.3549
    409 C4         -1.3120   24.2070    2.8990 C.2      13   U25       0.5952
    410 O4         -0.5180   25.0340    2.4460 O.2      13   U25      -0.5761
    411 C5         -1.9100   23.1300    2.1720 C.2      13   U25      -0.3635
    412 C6         -2.7570   22.3020    2.7920 C.2      13   U25      -0.1126
    413 H5'        -6.6751   19.3790    1.9073 H        13   U25       0.0679
    414 H5''       -4.9852   18.8455    2.0253 H        13   U25       0.0679
    415 H4'        -6.0951   19.5581    4.1858 H        13   U25       0.1174
    416 H3'        -5.8557   22.2734    2.8775 H        13   U25       0.0615
    417 H2'        -5.3765   23.2024    5.0297 H        13   U25       0.0972
    418 H1'        -3.6363   21.1803    5.7291 H        13   U25       0.1824
    419 H3         -1.2853   25.0338    4.7639 H        13   U25       0.3154
    420 H5         -1.6783   22.9864    1.1270 H        13   U25       0.1811
    421 H6         -3.1952   21.4934    2.2259 H        13   U25       0.2188
    422 HO2'       -6.4465   22.2246    6.6386 H        13   U25       0.4186
    423 P          -8.4050   22.9170    3.3040 P.3      14   C26       1.1662
    424 OP1        -9.8460   22.5720    3.4040 O.co2    14   C26      -0.7760
    425 OP2        -7.8350   23.3380    1.9990 O.co2    14   C26      -0.7760
    426 O5'        -8.1020   24.0690    4.3610 O.3      14   C26      -0.4989
    427 C5'        -8.4940   23.9350    5.7180 C.3      14   C26       0.0558
    428 C4'        -7.8680   25.0000    6.5820 C.3      14   C26       0.1065
    429 O4'        -6.4210   24.8930    6.5220 O.3      14   C26      -0.3548
    430 C3'        -8.1450   26.4380    6.1730 C.3      14   C26       0.2022
    431 O3'        -9.4110   26.9060    6.6050 O.3      14   C26      -0.5246
    432 C2'        -6.9730   27.1890    6.7900 C.3      14   C26       0.0670
    433 O2'        -7.1790   27.3860    8.1810 O.3      14   C26      -0.6139
    434 C1'        -5.8390   26.1780    6.6090 C.3      14   C26       0.0066
    435 N1         -5.0580   26.4330    5.3770 N.am     14   C26      -0.0484
    436 C2         -4.1080   27.4600    5.3840 C.2      14   C26       0.7538
    437 O2         -3.9460   28.1270    6.4180 O.2      14   C26      -0.6252
    438 N3         -3.3880   27.7030    4.2650 N.2      14   C26      -0.7584
    439 C4         -3.5870   26.9670    3.1710 C.2      14   C26       0.8185
    440 N4         -2.8540   27.2440    2.0910 N.pl3    14   C26      -0.9530
    441 C5         -4.5460   25.9150    3.1360 C.2      14   C26      -0.5215
    442 C6         -5.2520   25.6850    4.2500 C.2      14   C26       0.0053
    443 H5'        -9.5788   24.0188    5.7830 H        14   C26       0.0679
    444 H5''       -8.1890   22.9542    6.0827 H        14   C26       0.0679
    445 H4'        -8.1917   24.8559    7.6128 H        14   C26       0.1174
    446 H3'        -8.0872   26.5172    5.0874 H        14   C26       0.0615
    447 H2'        -6.7706   28.1260    6.2711 H        14   C26       0.0972
    448 H1'        -5.1761   26.2181    7.4733 H        14   C26       0.2029
    449 H5         -4.6981   25.3249    2.2444 H        14   C26       0.1928
    450 H6         -5.9877   24.8944    4.2581 H        14   C26       0.1958
    451 H41        -2.1748   27.9910    2.1196 H        14   C26       0.4234
    452 H42        -2.9784   26.7067    1.2449 H        14   C26       0.4234
    453 HO2'       -7.2669   28.3246    8.3622 H        14   C26       0.4186
    454 P         -10.1600   28.0720    5.7910 P.3      15   C27       1.1662
    455 OP1       -11.5560   28.1620    6.2920 O.co2    15   C27      -0.7760
    456 OP2        -9.9080   27.8580    4.3430 O.co2    15   C27      -0.7760
    457 O5'        -9.3900   29.3990    6.2180 O.3      15   C27      -0.4989
    458 C5'        -9.3450   29.8140    7.5740 C.3      15   C27       0.0558
    459 C4'        -8.4270   30.9960    7.7570 C.3      15   C27       0.1065
    460 O4'        -7.0640   30.6220    7.4250 O.3      15   C27      -0.3548
    461 C3'        -8.7030   32.1970    6.8680 C.3      15   C27       0.2022
    462 O3'        -9.7640   33.0070    7.3430 O.3      15   C27      -0.5246
    463 C2'        -7.3560   32.9080    6.8440 C.3      15   C27       0.0670
    464 O2'        -7.1610   33.6560    8.0350 O.3      15   C27      -0.6139
    465 C1'        -6.3880   31.7230    6.8540 C.3      15   C27       0.0066
    466 N1         -5.9410   31.3580    5.4890 N.am     15   C27      -0.0484
    467 C2         -4.9780   32.1530    4.8540 C.2      15   C27       0.7538
    468 O2         -4.5190   33.1440    5.4430 O.2      15   C27      -0.6252
    469 N3         -4.5660   31.8240    3.6080 N.2      15   C27      -0.7584
    470 C4         -5.0750   30.7540    2.9960 C.2      15   C27       0.8185
    471 N4         -4.6360   30.4700    1.7670 N.pl3    15   C27      -0.9530
    472 C5         -6.0540   29.9260    3.6170 C.2      15   C27      -0.5215
    473 C6         -6.4540   30.2620    4.8510 C.2      15   C27       0.0053
    474 H5'       -10.3494   30.0923    7.8931 H        15   C27       0.0679
    475 H5''       -8.9905   28.9872    8.1895 H        15   C27       0.0679
    476 H4'        -8.4624   31.3126    8.7994 H        15   C27       0.1174
    477 H3'        -8.9414   31.8498    5.8627 H        15   C27       0.0615
    478 H2'        -7.2365   33.5237    5.9525 H        15   C27       0.0972
    479 H1'        -5.5197   31.9705    7.4647 H        15   C27       0.2029
    480 H5         -6.4582   29.0608    3.1126 H        15   C27       0.1928
    481 H6         -7.1952   29.6563    5.3512 H        15   C27       0.1958
    482 H41        -3.9411   31.0587    1.3304 H        15   C27       0.4234
    483 H42        -4.9989   29.6665    1.2742 H        15   C27       0.4234
    484 HO2'       -7.1906   34.5940    7.8328 H        15   C27       0.4186
    485 P         -10.7350   33.7600    6.3060 P.3      16   U28       1.1662
    486 OP1       -11.8630   34.3480    7.0730 O.co2    16   U28      -0.7760
    487 OP2       -11.0170   32.8340    5.1810 O.co2    16   U28      -0.7760
    488 O5'        -9.8450   34.9540    5.7420 O.3      16   U28      -0.4989
    489 C5'        -9.2700   35.9120    6.6180 C.3      16   U28       0.0558
    490 C4'        -8.2130   36.7290    5.9210 C.3      16   U28       0.1065
    491 O4'        -7.1090   35.8760    5.5240 O.3      16   U28      -0.3548
    492 C3'        -8.6410   37.4020    4.6280 C.3      16   U28       0.2022
    493 O3'        -9.3610   38.6010    4.8470 O.3      16   U28      -0.5246
    494 C2'        -7.3160   37.6020    3.9030 C.3      16   U28       0.0670
    495 O2'        -6.6240   38.7270    4.4230 O.3      16   U28      -0.6139
    496 C1'        -6.5560   36.3380    4.3080 C.3      16   U28       0.0674
    497 N1         -6.6710   35.2640    3.2950 N.am     16   U28       0.0418
    498 C2         -5.8340   35.3250    2.1970 C.2      16   U28       0.4687
    499 O2         -5.0200   36.2170    2.0340 O.2      16   U28      -0.5477
    500 N3         -5.9830   34.3020    1.2930 N.am     16   U28      -0.3549
    501 C4         -6.8670   33.2460    1.3740 C.2      16   U28       0.5952
    502 O4         -6.8830   32.4010    0.4770 O.2      16   U28      -0.5761
    503 C5         -7.6990   33.2520    2.5390 C.2      16   U28      -0.3635
    504 C6         -7.5730   34.2350    3.4360 C.2      16   U28      -0.1126
    505 H5'       -10.0536   36.5788    6.9779 H        16   U28       0.0679
    506 H5''       -8.8214   35.3963    7.4671 H        16   U28       0.0679
    507 H4'        -7.8427   37.4889    6.6092 H        16   U28       0.1174
    508 H3'        -9.2611   36.7127    4.0549 H        16   U28       0.0615
    509 H2'        -7.4487   37.6690    2.8232 H        16   U28       0.0972
    510 H1'        -5.5043   36.5814    4.4587 H        16   U28       0.1824
    511 H3         -5.3811   34.3252    0.4823 H        16   U28       0.3154
    512 H5         -8.4244   32.4667    2.6923 H        16   U28       0.1811
    513 H6         -8.2073   34.2207    4.3100 H        16   U28       0.2188
    514 HO2'       -6.6099   39.4265    3.7657 H        16   U28       0.4186
    515 P         -10.5030   39.0570    3.8150 P.3      17   A29       1.1662
    516 OP1       -11.4150   39.9910    4.5240 O.co2    17   A29      -0.7760
    517 OP2       -11.0550   37.8390    3.1680 O.co2    17   A29      -0.7760
    518 O5'        -9.7060   39.8830    2.7110 O.3      17   A29      -0.4989
    519 C5'        -8.8370   40.9420    3.0830 C.3      17   A29       0.0558
    520 C4'        -7.9670   41.3690    1.9290 C.3      17   A29       0.1065
    521 O4'        -6.9680   40.3520    1.6620 O.3      17   A29      -0.3548
    522 C3'        -8.6800   41.5460    0.5990 C.3      17   A29       0.2022
    523 O3'        -9.3430   42.7930    0.4920 O.3      17   A29      -0.5246
    524 C2'        -7.5550   41.3540   -0.4090 C.3      17   A29       0.0670
    525 O2'        -6.7660   42.5300   -0.5120 O.3      17   A29      -0.6139
    526 C1'        -6.7210   40.2710    0.2740 C.3      17   A29       0.0394
    527 N9         -7.0820   38.9160   -0.1860 N.ar     17   A29      -0.0251
    528 C8         -7.9370   38.0260    0.4160 C.ar     17   A29       0.2006
    529 N7         -8.0590   36.8910   -0.2280 N.ar     17   A29      -0.6073
    530 C5         -7.2270   37.0410   -1.3270 C.ar     17   A29       0.0515
    531 C6         -6.9130   36.1870   -2.3990 C.ar     17   A29       0.7009
    532 N6         -7.4240   34.9620   -2.5430 N.pl3    17   A29      -0.9019
    533 N1         -6.0460   36.6410   -3.3320 N.ar     17   A29      -0.7615
    534 C2         -5.5350   37.8700   -3.1870 C.ar     17   A29       0.5875
    535 N3         -5.7530   38.7640   -2.2250 N.ar     17   A29      -0.6997
    536 C4         -6.6190   38.2830   -1.3150 C.ar     17   A29       0.3053
    537 H5'        -8.2006   40.6075    3.9022 H        17   A29       0.0679
    538 H5''       -9.4318   41.7924    3.4164 H        17   A29       0.0679
    539 H4'        -7.4644   42.3006    2.1891 H        17   A29       0.1174
    540 H3'        -9.4082   40.7443    0.4763 H        17   A29       0.0615
    541 H2'        -7.9291   41.0283   -1.3796 H        17   A29       0.0972
    542 H1'        -5.6633   40.4508    0.0816 H        17   A29       0.2007
    543 H8         -8.4608   38.2414    1.3356 H        17   A29       0.1553
    544 H2         -4.8482   38.1803   -3.9606 H        17   A29       0.0473
    545 H61        -6.9990   34.2242   -3.0862 H        17   A29       0.4115
    546 H62        -8.2964   34.7590   -2.0762 H        17   A29       0.4115
    547 HO2'       -7.2761   43.2217   -0.9397 H        17   A29       0.4186
    548 P         -10.7000   42.9170   -0.3600 P.3      18   A30       1.1662
    549 OP1       -11.5000   44.0290    0.2120 O.co2    18   A30      -0.7760
    550 OP2       -11.3020   41.5650   -0.4810 O.co2    18   A30      -0.7760
    551 O5'       -10.1980   43.3600   -1.8040 O.3      18   A30      -0.4989
    552 C5'       -10.6230   42.6710   -2.9690 C.3      18   A30       0.0558
    553 C4'        -9.4690   42.4170   -3.9050 C.3      18   A30       0.1065
    554 O4'        -8.6630   41.3180   -3.4050 O.3      18   A30      -0.3548
    555 C3'        -9.8410   41.9880   -5.3140 C.3      18   A30       0.2022
    556 O3'       -10.2000   43.0770   -6.1440 O.3      18   A30      -0.5246
    557 C2'        -8.5910   41.2520   -5.7750 C.3      18   A30       0.0670
    558 O2'        -7.5770   42.1730   -6.1490 O.3      18   A30      -0.6139
    559 C1'        -8.1610   40.5580   -4.4840 C.3      18   A30       0.0394
    560 N9         -8.7070   39.1910   -4.3870 N.ar     18   A30      -0.0251
    561 C8         -9.5950   38.7060   -3.4590 C.ar     18   A30       0.2006
    562 N7         -9.9000   37.4430   -3.6270 N.ar     18   A30      -0.6073
    563 C5         -9.1630   37.0690   -4.7410 C.ar     18   A30       0.0515
    564 C6         -9.0470   35.8490   -5.4320 C.ar     18   A30       0.7009
    565 N6         -9.7000   34.7370   -5.0860 N.pl3    18   A30      -0.9019
    566 N1         -8.2270   35.8110   -6.5050 N.ar     18   A30      -0.7615
    567 C2         -7.5740   36.9270   -6.8520 C.ar     18   A30       0.5875
    568 N3         -7.6000   38.1300   -6.2820 N.ar     18   A30      -0.6997
    569 C4         -8.4230   38.1350   -5.2190 C.ar     18   A30       0.3053
    570 H5'       -11.3722   43.2724   -3.4839 H        18   A30       0.0679
    571 H5''      -11.0659   41.7179   -2.6798 H        18   A30       0.0679
    572 H4'        -8.8518   43.3138   -3.9586 H        18   A30       0.1174
    573 H3'       -10.6728   41.2852   -5.2661 H        18   A30       0.0615
    574 H2'        -8.8074   40.5381   -6.5697 H        18   A30       0.0972
    575 H1'        -7.0728   40.5224   -4.4321 H        18   A30       0.2007
    576 H8        -10.0047   39.3104   -2.6632 H        18   A30       0.1553
    577 H2         -6.9348   36.8389   -7.7180 H        18   A30       0.0473
    578 H61        -9.2228   33.9474   -5.4970 H        18   A30       0.4115
    579 H62       -10.5295   34.6930   -4.5114 H        18   A30       0.4115
    580 HO2'       -7.8321   42.6186   -6.9602 H        18   A30       0.4186
    581 P         -11.5170   42.9900   -7.0580 P.3      19   U31       1.1662
    582 OP1       -11.6290   44.2530   -7.8310 O.co2    19   U31      -0.7760
    583 OP2       -12.6450   42.5510   -6.1960 O.co2    19   U31      -0.7760
    584 O5'       -11.1940   41.8120   -8.0800 O.3      19   U31      -0.4989
    585 C5'       -10.0910   41.9000   -8.9690 C.3      19   U31       0.0558
    586 C4'        -9.8930   40.6130   -9.7280 C.3      19   U31       0.1065
    587 O4'        -9.4590   39.5640   -8.8230 O.3      19   U31      -0.3548
    588 C3'       -11.1350   40.0370  -10.3860 C.3      19   U31       0.2022
    589 O3'       -11.4550   40.6660  -11.6130 O.3      19   U31      -0.5246
    590 C2'       -10.7820   38.5630  -10.5250 C.3      19   U31       0.0670
    591 O2'        -9.9150   38.3560  -11.6300 O.3      19   U31      -0.6139
    592 C1'        -9.9910   38.3220   -9.2380 C.3      19   U31       0.0674
    593 N1        -10.8420   37.7800   -8.1530 N.am     19   U31       0.0418
    594 C2        -11.1460   36.4320   -8.1910 C.2      19   U31       0.4687
    595 O2        -10.7470   35.6870   -9.0690 O.2      19   U31      -0.5477
    596 N3        -11.9370   35.9850   -7.1620 N.am     19   U31      -0.3549
    597 C4        -12.4440   36.7320   -6.1200 C.2      19   U31       0.5952
    598 O4        -13.1430   36.1840   -5.2670 O.2      19   U31      -0.5761
    599 C5        -12.0860   38.1180   -6.1510 C.2      19   U31      -0.3635
    600 C6        -11.3160   38.5820   -7.1410 C.2      19   U31      -0.1126
    601 H5'       -10.2718   42.7065   -9.6796 H        19   U31       0.0679
    602 H5''       -9.1888   42.1213   -8.3987 H        19   U31       0.0679
    603 H4'        -9.1269   40.7643  -10.4885 H        19   U31       0.1174
    604 H3'       -11.9788   40.1381   -9.7035 H        19   U31       0.0615
    605 H2'       -11.6708   37.9345  -10.5809 H        19   U31       0.0972
    606 H1'        -9.1751   37.6278   -9.4392 H        19   U31       0.1824
    607 H3        -12.1730   35.0030   -7.1690 H        19   U31       0.3154
    608 H5        -12.4364   38.7859   -5.3780 H        19   U31       0.1811
    609 H6        -11.0555   39.6301   -7.1462 H        19   U31       0.2188
    610 HO2'       -9.5837   37.4551  -11.6122 H        19   U31       0.4186
    611 P         -12.9910   40.8460  -12.0430 P.3      20   G32       1.1662
    612 OP1       -13.0360   41.7510  -13.2200 O.co2    20   G32      -0.7760
    613 OP2       -13.7730   41.1850  -10.8260 O.co2    20   G32      -0.7760
    614 O5'       -13.4240   39.3900  -12.5210 O.3      20   G32      -0.4989
    615 C5'       -12.7540   38.7520  -13.5970 C.3      20   G32       0.0558
    616 C4'       -13.1890   37.3180  -13.7490 C.3      20   G32       0.1065
    617 O4'       -12.7420   36.5390  -12.6100 O.3      20   G32      -0.3548
    618 C3'       -14.6880   37.0760  -13.7900 C.3      20   G32       0.2022
    619 O3'       -15.2550   37.3460  -15.0590 O.3      20   G32      -0.5246
    620 C2'       -14.8000   35.6180  -13.3630 C.3      20   G32       0.0670
    621 O2'       -14.4890   34.7540  -14.4450 O.3      20   G32      -0.6139
    622 C1'       -13.6790   35.5190  -12.3280 C.3      20   G32       0.0191
    623 N9        -14.1730   35.6930  -10.9480 N.ar     20   G32       0.0492
    624 C8        -14.2270   36.8580  -10.2210 C.ar     20   G32       0.1374
    625 N7        -14.7170   36.6900   -9.0220 N.ar     20   G32      -0.5709
    626 C5        -15.0050   35.3330   -8.9530 C.ar     20   G32       0.1744
    627 C6        -15.5570   34.5610   -7.8980 C.2      20   G32       0.4770
    628 O6        -15.9150   34.9330   -6.7740 O.2      20   G32      -0.5597
    629 N1        -15.6800   33.2220   -8.2530 N.am     20   G32      -0.4787
    630 C2        -15.3200   32.6900   -9.4670 C.2      20   G32       0.7657
    631 N2        -15.5180   31.3730   -9.6180 N.pl3    20   G32      -0.9672
    632 N3        -14.8040   33.3990  -10.4580 N.2      20   G32      -0.6323
    633 C4        -14.6760   34.7040  -10.1350 C.ar     20   G32       0.1222
    634 H5'       -12.9759   39.2885  -14.5195 H        20   G32       0.0679
    635 H5''      -11.6795   38.7818  -13.4163 H        20   G32       0.0679
    636 H4'       -12.7410   36.9079  -14.6541 H        20   G32       0.1174
    637 H3'       -15.1714   37.7048  -13.0423 H        20   G32       0.0615
    638 H2'       -15.7750   35.3941  -12.9302 H        20   G32       0.0972
    639 H1'       -13.1919   34.5479  -12.4164 H        20   G32       0.2006
    640 H8        -13.8982   37.8137  -10.6018 H        20   G32       0.1640
    641 H1        -16.0642   32.5913   -7.5640 H        20   G32       0.3424
    642 H21       -15.9118   30.8315   -8.8618 H        20   G32       0.4364
    643 H22       -15.2734   30.9220  -10.4880 H        20   G32       0.4364
    644 HO2'      -15.2852   34.5737  -14.9501 H        20   G32       0.4186
    645 P         -16.8510   37.3600  -15.2390 P.3      21   A33       1.1662
    646 OP1       -17.1710   38.0560  -16.5120 O.co2    21   A33      -0.7760
    647 OP2       -17.4510   37.8400  -13.9670 O.co2    21   A33      -0.7760
    648 O5'       -17.2230   35.8220  -15.4110 O.3      21   A33      -0.4989
    649 C5'       -18.5150   35.3390  -15.0800 C.3      21   A33       0.0558
    650 C4'       -18.5400   33.8330  -15.0480 C.3      21   A33       0.1065
    651 O4'       -17.6680   33.3450  -13.9970 O.3      21   A33      -0.3548
    652 C3'       -19.8840   33.1960  -14.7390 C.3      21   A33       0.2022
    653 O3'       -20.7270   33.1320  -15.8760 O.3      21   A33      -0.5246
    654 C2'       -19.4890   31.8290  -14.1960 C.3      21   A33       0.0670
    655 O2'       -19.1780   30.9370  -15.2560 O.3      21   A33      -0.6139
    656 C1'       -18.1950   32.1570  -13.4470 C.3      21   A33       0.0394
    657 N9        -18.4160   32.3530  -12.0010 N.ar     21   A33      -0.0251
    658 C8        -18.2340   33.4980  -11.2640 C.ar     21   A33       0.2006
    659 N7        -18.5110   33.3550   -9.9910 N.ar     21   A33      -0.6073
    660 C5        -18.8970   32.0260   -9.8800 C.ar     21   A33       0.0515
    661 C6        -19.3140   31.2470   -8.7850 C.ar     21   A33       0.7009
    662 N6        -19.4180   31.7140   -7.5380 N.pl3    21   A33      -0.9019
    663 N1        -19.6280   29.9540   -9.0170 N.ar     21   A33      -0.7615
    664 C2        -19.5270   29.4820  -10.2660 C.ar     21   A33       0.5875
    665 N3        -19.1450   30.1130  -11.3730 N.ar     21   A33      -0.6997
    666 C4        -18.8410   31.3970  -11.1100 C.ar     21   A33       0.3053
    667 H5'       -18.7967   35.7204  -14.0985 H        21   A33       0.0679
    668 H5''      -19.2310   35.6937  -15.8214 H        21   A33       0.0679
    669 H4'       -18.1829   33.4545  -16.0058 H        21   A33       0.1174
    670 H3'       -20.3808   33.7658  -13.9537 H        21   A33       0.0615
    671 H2'       -20.2504   31.4204  -13.5316 H        21   A33       0.0972
    672 H1'       -17.4809   31.3467  -13.5937 H        21   A33       0.2007
    673 H8        -17.8944   34.4289  -11.6935 H        21   A33       0.1553
    674 H2        -19.7931   28.4430  -10.3924 H        21   A33       0.0473
    675 HO2'      -19.3324   30.0336  -14.9703 H        21   A33       0.4186
    676 H61       -19.8849   31.0139   -6.9794 H        21   A33       0.4115
    677 H62       -19.0875   32.6106   -7.2108 H        21   A33       0.4115
    678 P         -22.3050   33.3970  -15.7350 P.3      22   U34       1.1662
    679 OP1       -22.8590   33.5890  -17.0990 O.co2    22   U34      -0.7760
    680 OP2       -22.5110   34.4460  -14.7030 O.co2    22   U34      -0.7760
    681 O5'       -22.8710   32.0230  -15.1640 O.3      22   U34      -0.4989
    682 C5'       -22.5170   30.7840  -15.7700 C.3      22   U34       0.0558
    683 C4'       -22.8360   29.6120  -14.8770 C.3      22   U34       0.1065
    684 O4'       -22.2080   29.8110  -13.5810 O.3      22   U34      -0.3548
    685 C3'       -24.3220   29.3860  -14.6070 C.3      22   U34       0.2022
    686 O3'       -24.5890   27.9890  -14.5400 O.3      22   U34      -0.5246
    687 C2'       -24.5210   30.0120  -13.2310 C.3      22   U34       0.0670
    688 O2'       -25.5970   29.4720  -12.4920 O.3      22   U34      -0.6139
    689 C1'       -23.1830   29.7280  -12.5590 C.3      22   U34       0.0674
    690 N1        -22.8430   30.7030  -11.5140 N.am     22   U34       0.0418
    691 C2        -22.8550   30.2770  -10.2010 C.2      22   U34       0.4687
    692 O2        -23.1190   29.1320   -9.8780 O.2      22   U34      -0.5477
    693 N3        -22.5400   31.2450   -9.2790 N.am     22   U34      -0.3549
    694 C4        -22.2280   32.5650   -9.5340 C.2      22   U34       0.5952
    695 O4        -21.9650   33.3170   -8.5950 O.2      22   U34      -0.5761
    696 C5        -22.2420   32.9260  -10.9180 C.2      22   U34      -0.3635
    697 C6        -22.5460   32.0050  -11.8370 C.2      22   U34      -0.1126
    698 H5'       -23.0702   30.6771  -16.7031 H        22   U34       0.0679
    699 H5''      -21.4489   30.7860  -15.9873 H        22   U34       0.0679
    700 H4'       -22.4236   28.7094  -15.3279 H        22   U34       0.1174
    701 H3'       -24.9417   29.8738  -15.3594 H        22   U34       0.0615
    702 H2'       -24.6549   31.0886  -13.3362 H        22   U34       0.0972
    703 H1'       -23.1891   28.7231  -12.1369 H        22   U34       0.1824
    704 H3        -22.5363   30.9602   -8.3100 H        22   U34       0.3154
    705 H5        -22.0083   33.9367  -11.2183 H        22   U34       0.1811
    706 H6        -22.5588   32.2961  -12.8770 H        22   U34       0.2188
    707 HO2'      -26.3075   29.2302  -13.0906 H        22   U34       0.4186
    708 P         -25.3350   27.2630  -15.7630 P.3      23   A35       1.1662
    709 OP1       -24.5430   27.5100  -16.9950 O.co2    23   A35      -0.7760
    710 OP2       -26.7700   27.6470  -15.7230 O.co2    23   A35      -0.7760
    711 O5'       -25.2280   25.7160  -15.4110 O.3      23   A35      -0.4989
    712 C5'       -24.0200   24.9960  -15.6280 C.3      23   A35       0.0558
    713 C4'       -24.1690   23.5450  -15.2420 C.3      23   A35       0.1065
    714 O4'       -24.3480   23.4530  -13.8040 O.3      23   A35      -0.3548
    715 C3'       -25.3630   22.8300  -15.8680 C.3      23   A35       0.2022
    716 O3'       -25.0280   21.4620  -16.0970 O.3      23   A35      -0.5246
    717 C2'       -26.4260   22.9290  -14.7760 C.3      23   A35       0.0670
    718 O2'       -27.4170   21.9250  -14.8300 O.3      23   A35      -0.6139
    719 C1'       -25.5810   22.8230  -13.5090 C.3      23   A35       0.0394
    720 N9        -26.1570   23.4990  -12.3420 N.ar     23   A35      -0.0251
    721 C8        -26.0110   24.8190  -11.9930 C.ar     23   A35       0.2006
    722 N7        -26.6280   25.1480  -10.8830 N.ar     23   A35      -0.6073
    723 C5        -27.2140   23.9610  -10.4670 C.ar     23   A35       0.0515
    724 C6        -28.0100   23.6400   -9.3520 C.ar     23   A35       0.7009
    725 N6        -28.3660   24.5220   -8.4160 N.pl3    23   A35      -0.9019
    726 N1        -28.4340   22.3620   -9.2310 N.ar     23   A35      -0.7615
    727 C2        -28.0770   21.4760  -10.1690 C.ar     23   A35       0.5875
    728 N3        -27.3340   21.6570  -11.2600 N.ar     23   A35      -0.6997
    729 C4        -26.9250   22.9350  -11.3510 C.ar     23   A35       0.3053
    730 H5'       -23.2276   25.4433  -15.0278 H        23   A35       0.0679
    731 H5''      -23.7498   25.0599  -16.6821 H        23   A35       0.0679
    732 H4'       -23.2580   23.0134  -15.5170 H        23   A35       0.1174
    733 H3'       -25.6863   23.3211  -16.7858 H        23   A35       0.0615
    734 H2'       -26.8993   23.9100  -14.8167 H        23   A35       0.0972
    735 H1'       -25.4070   21.7731  -13.2734 H        23   A35       0.2007
    736 H8        -25.4396   25.5231  -12.5796 H        23   A35       0.1553
    737 H2        -28.4436   20.4711  -10.0201 H        23   A35       0.0473
    738 H61       -28.0614   25.4825   -8.4852 H        23   A35       0.4115
    739 H62       -28.9401   24.2291   -7.6384 H        23   A35       0.4115
    740 HO2'      -27.9276   22.0218  -15.6372 H        23   A35       0.4186
    741 P         -24.5670   20.9760  -17.5580 P.3      24   U36       1.1662
    742 OP1       -25.7020   21.1940  -18.4920 O.co2    24   U36      -0.7760
    743 OP2       -23.9730   19.6220  -17.4240 O.co2    24   U36      -0.7760
    744 O5'       -23.3970   21.9820  -17.9580 O.3      24   U36      -0.4989
    745 C5'       -22.0330   21.5770  -17.8860 C.3      24   U36       0.0558
    746 C4'       -21.1940   22.2080  -18.9730 C.3      24   U36       0.1065
    747 O4'       -21.8490   22.0150  -20.2570 O.3      24   U36      -0.3548
    748 C3'       -20.9590   23.7120  -18.8360 C.3      24   U36       0.2022
    749 O3'       -19.6590   24.0340  -19.3310 O.3      24   U36      -0.5246
    750 C2'       -22.0110   24.3010  -19.7690 C.3      24   U36       0.0670
    751 O2'       -21.7090   25.5920  -20.2550 O.3      24   U36      -0.6139
    752 C1'       -22.0350   23.2660  -20.8890 C.3      24   U36       0.0674
    753 N1        -23.2960   23.2260  -21.6420 N.am     24   U36       0.0418
    754 C2        -23.2260   23.4110  -23.0090 C.2      24   U36       0.4687
    755 O2        -22.1740   23.5950  -23.5960 O.2      24   U36      -0.5477
    756 N3        -24.4320   23.3670  -23.6630 N.am     24   U36      -0.3549
    757 C4        -25.6750   23.1640  -23.0980 C.2      24   U36       0.5952
    758 O4        -26.6730   23.1520  -23.8210 O.2      24   U36      -0.5761
    759 C5        -25.6630   22.9850  -21.6780 C.2      24   U36      -0.3635
    760 C6        -24.5020   23.0220  -21.0140 C.2      24   U36      -0.1126
    761 H5'       -21.9826   20.4930  -17.9881 H        24   U36       0.0679
    762 H5''      -21.6286   21.8616  -16.9146 H        24   U36       0.0679
    763 H4'       -20.2263   21.7070  -18.9988 H        24   U36       0.1174
    764 H3'       -21.0953   24.0502  -17.8088 H        24   U36       0.0615
    765 H2'       -22.9777   24.3171  -19.2657 H        24   U36       0.0972
    766 H1'       -21.2084   23.4532  -21.5744 H        24   U36       0.1824
    767 H3        -24.4073   23.4970  -24.6643 H        24   U36       0.3154
    768 H5        -26.5876   22.8207  -21.1445 H        24   U36       0.1811
    769 H6        -24.5126   22.8863  -19.9426 H        24   U36       0.2188
    770 HO2'      -21.7025   26.2157  -19.5252 H        24   U36       0.4186
    771 P         -18.3900   24.0250  -18.3450 P.3      25   G37       1.1662
    772 OP1       -17.2160   24.5350  -19.0970 O.co2    25   G37      -0.7760
    773 OP2       -18.3240   22.6920  -17.6940 O.co2    25   G37      -0.7760
    774 O5'       -18.7630   25.0950  -17.2270 O.3      25   G37      -0.4989
    775 C5'       -18.6720   26.4890  -17.4840 C.3      25   G37       0.0558
    776 C4'       -18.8980   27.2860  -16.2250 C.3      25   G37       0.1065
    777 O4'       -20.2400   27.0400  -15.7310 O.3      25   G37      -0.3548
    778 C3'       -17.9950   26.9300  -15.0530 C.3      25   G37       0.2022
    779 O3'       -16.7350   27.5720  -15.1210 O.3      25   G37      -0.5246
    780 C2'       -18.8270   27.3420  -13.8460 C.3      25   G37       0.0670
    781 O2'       -18.7490   28.7440  -13.6370 O.3      25   G37      -0.6139
    782 C1'       -20.2390   27.0000  -14.3200 C.3      25   G37       0.0191
    783 N9        -20.6550   25.6500  -13.8990 N.ar     25   G37       0.0492
    784 C8        -20.4490   24.4750  -14.5810 C.ar     25   G37       0.1374
    785 N7        -20.9310   23.4320  -13.9630 N.ar     25   G37      -0.5709
    786 C5        -21.4910   23.9490  -12.8040 C.ar     25   G37       0.1744
    787 C6        -22.1630   23.2950  -11.7400 C.2      25   G37       0.4770
    788 O6        -22.4060   22.0890  -11.6080 O.2      25   G37      -0.5597
    789 N1        -22.5690   24.1970  -10.7630 N.am     25   G37      -0.4787
    790 C2        -22.3580   25.5530  -10.8010 C.2      25   G37       0.7657
    791 N2        -22.8290   26.2530   -9.7590 N.pl3    25   G37      -0.9672
    792 N3        -21.7330   26.1760  -11.7870 N.2      25   G37      -0.6323
    793 C4        -21.3290   25.3180  -12.7480 C.ar     25   G37       0.1222
    794 H5'       -19.4260   26.7655  -18.2209 H        25   G37       0.0679
    795 H5''      -17.6825   26.7170  -17.8802 H        25   G37       0.0679
    796 H4'       -18.7893   28.3470  -16.4499 H        25   G37       0.1174
    797 H3'       -17.8454   25.8505  -15.0322 H        25   G37       0.0615
    798 H2'       -18.5516   26.7820  -12.9523 H        25   G37       0.0972
    799 H1'       -20.9430   27.7367  -13.9330 H        25   G37       0.2006
    800 H8        -19.9399   24.4205  -15.5319 H        25   G37       0.1640
    801 H1        -23.0581   23.8250   -9.9615 H        25   G37       0.3424
    802 H21       -23.3065   25.7783   -9.0061 H        25   G37       0.4364
    803 H22       -22.7063   27.2550   -9.7269 H        25   G37       0.4364
    804 HO2'      -19.1489   28.9649  -12.7927 H        25   G37       0.4186
    805 P         -15.4090   26.8050  -14.6400 P.3      26   G38       1.1662
    806 OP1       -14.2430   27.6340  -15.0390 O.co2    26   G38      -0.7760
    807 OP2       -15.4990   25.3920  -15.0870 O.co2    26   G38      -0.7760
    808 O5'       -15.5100   26.8240  -13.0510 O.3      26   G38      -0.4989
    809 C5'       -15.5310   28.0530  -12.3420 C.3      26   G38       0.0558
    810 C4'       -15.9770   27.8640  -10.9150 C.3      26   G38       0.1065
    811 O4'       -17.3300   27.3440  -10.8840 O.3      26   G38      -0.3548
    812 C3'       -15.1850   26.8670  -10.0880 C.3      26   G38       0.2022
    813 O3'       -13.9700   27.4040   -9.5970 O.3      26   G38      -0.5246
    814 C2'       -16.1720   26.4910   -8.9890 C.3      26   G38       0.0670
    815 O2'       -16.2080   27.4940   -7.9850 O.3      26   G38      -0.6139
    816 C1'       -17.5010   26.5190   -9.7500 C.3      26   G38       0.0191
    817 N9        -17.9180   25.1750  -10.1900 N.ar     26   G38       0.0492
    818 C8        -17.4740   24.4700  -11.2830 C.ar     26   G38       0.1374
    819 N7        -18.0360   23.2970  -11.3970 N.ar     26   G38      -0.5709
    820 C5        -18.9000   23.2200  -10.3130 C.ar     26   G38       0.1744
    821 C6        -19.7800   22.1840   -9.9030 C.2      26   G38       0.4770
    822 O6        -19.9830   21.0860  -10.4360 O.2      26   G38      -0.5597
    823 N1        -20.4720   22.5260   -8.7460 N.am     26   G38      -0.4787
    824 C2        -20.3350   23.7110   -8.0650 C.2      26   G38       0.7657
    825 N2        -21.0900   23.8550   -6.9660 N.pl3    26   G38      -0.9672
    826 N3        -19.5180   24.6830   -8.4350 N.2      26   G38      -0.6323
    827 C4        -18.8360   24.3710   -9.5570 C.ar     26   G38       0.1222
    828 H5'       -16.2190   28.7364  -12.8397 H        26   G38       0.0679
    829 H5''      -14.5307   28.4860  -12.3488 H        26   G38       0.0679
    830 H4'       -15.9604   28.8303  -10.4109 H        26   G38       0.1174
    831 H3'       -14.9701   25.9872  -10.6945 H        26   G38       0.0615
    832 H2'       -15.9619   25.5057   -8.5728 H        26   G38       0.0972
    833 H1'       -18.2737   26.9437   -9.1092 H        26   G38       0.2006
    834 H8        -16.7365   24.8472  -11.9760 H        26   G38       0.1640
    835 H1        -21.1263   21.8503   -8.3779 H        26   G38       0.3424
    836 H21       -21.7147   23.1140   -6.6818 H        26   G38       0.4364
    837 H22       -21.0339   24.7045   -6.4225 H        26   G38       0.4364
    838 HO2'      -15.3808   27.4897   -7.4979 H        26   G38       0.4186
    839 P         -12.6180   26.5370   -9.6510 P.3      27   U39       1.1662
    840 OP1       -12.9530   25.1960  -10.1950 O.co2    27   U39      -0.7760
    841 OP2       -11.9540   26.6480   -8.3280 O.co2    27   U39      -0.7760
    842 O5'       -11.7150   27.2950  -10.7240 O.3      27   U39      -0.4989
    843 C5'       -11.9950   27.1970  -12.1130 C.3      27   U39       0.0558
    844 C4'       -11.6480   28.4720  -12.8410 C.3      27   U39       0.1065
    845 O4'       -12.5460   29.5360  -12.4330 O.3      27   U39      -0.3548
    846 C3'       -10.2620   29.0370  -12.5780 C.3      27   U39       0.2022
    847 O3'        -9.2540   28.3950  -13.3390 O.3      27   U39      -0.5246
    848 C2'       -10.4330   30.5120  -12.9200 C.3      27   U39       0.0670
    849 O2'       -10.3780   30.7120  -14.3250 O.3      27   U39      -0.6139
    850 C1'       -11.8650   30.7730  -12.4500 C.3      27   U39       0.0674
    851 N1        -11.9170   31.3670  -11.0930 N.am     27   U39       0.0418
    852 C2        -11.5960   32.7060  -10.9580 C.2      27   U39       0.4687
    853 O2        -11.2650   33.4120  -11.8940 O.2      27   U39      -0.5477
    854 N3        -11.6690   33.1940   -9.6780 N.am     27   U39      -0.3549
    855 C4        -12.0280   32.4980   -8.5430 C.2      27   U39       0.5952
    856 O4        -12.0460   33.0820   -7.4580 O.2      27   U39      -0.5761
    857 C5        -12.3500   31.1220   -8.7650 C.2      27   U39      -0.3635
    858 C6        -12.2870   30.6170  -10.0010 C.2      27   U39      -0.1126
    859 H5'       -11.4109   26.3790  -12.5346 H        27   U39       0.0679
    860 H5''      -13.0556   26.9855  -12.2493 H        27   U39       0.0679
    861 H4'       -11.7626   28.3071  -13.9123 H        27   U39       0.1174
    862 H3'       -10.0292   28.9387  -11.5177 H        27   U39       0.0615
    863 H2'        -9.7125   31.1371  -12.3926 H        27   U39       0.0972
    864 H1'       -12.3571   31.4438  -13.1543 H        27   U39       0.1824
    865 H3        -11.4344   34.1685   -9.5534 H        27   U39       0.3154
    866 H5        -12.6429   30.4935   -7.9370 H        27   U39       0.1811
    867 H6        -12.5370   29.5767  -10.1484 H        27   U39       0.2188
    868 HO2'      -10.6314   31.6150  -14.5298 H        27   U39       0.4186
    869 P          -7.7730   28.2130  -12.7400 P.3      28   U40       1.1662
    870 OP1        -6.9710   27.4640  -13.7400 O.co2    28   U40      -0.7760
    871 OP2        -7.8900   27.6920  -11.3540 O.co2    28   U40      -0.7760
    872 O5'        -7.2010   29.6980  -12.6640 O.3      28   U40      -0.4989
    873 C5'        -6.9860   30.4570  -13.8440 C.3      28   U40       0.0558
    874 C4'        -6.6310   31.8870  -13.5260 C.3      28   U40       0.1065
    875 O4'        -7.7260   32.5250  -12.8180 O.3      28   U40      -0.3548
    876 C3'        -5.4350   32.0900  -12.6100 C.3      28   U40       0.2022
    877 O3'        -4.1960   31.9760  -13.2900 O.3      28   U40      -0.5246
    878 C2'        -5.6940   33.4760  -12.0290 C.3      28   U40       0.0670
    879 O2'        -5.3300   34.4860  -12.9570 O.3      28   U40      -0.6139
    880 C1'        -7.2180   33.4700  -11.8980 C.3      28   U40       0.0674
    881 N1         -7.6630   33.0990  -10.5350 N.am     28   U40       0.0418
    882 C2         -7.6480   34.0850   -9.5670 C.2      28   U40       0.4687
    883 O2         -7.2860   35.2280   -9.7880 O.2      28   U40      -0.5477
    884 N3         -8.0730   33.6860   -8.3240 N.am     28   U40      -0.3549
    885 C4         -8.5030   32.4270   -7.9600 C.2      28   U40       0.5952
    886 O4         -8.8550   32.2210   -6.7980 O.2      28   U40      -0.5761
    887 C5         -8.4900   31.4630   -9.0170 C.2      28   U40      -0.3635
    888 C6         -8.0820   31.8240  -10.2380 C.2      28   U40      -0.1126
    889 H5'        -6.1701   30.0075  -14.4100 H        28   U40       0.0679
    890 H5''       -7.8923   30.4402  -14.4494 H        28   U40       0.0679
    891 H4'        -6.4552   32.4223  -14.4591 H        28   U40       0.1174
    892 H3'        -5.4709   31.3537  -11.8071 H        28   U40       0.0615
    893 H2'        -5.2029   33.6120  -11.0655 H        28   U40       0.0972
    894 H1'        -7.6047   34.4583  -12.1465 H        28   U40       0.1824
    895 H3         -8.0705   34.3892   -7.5990 H        28   U40       0.3154
    896 H5         -8.8083   30.4482   -8.8295 H        28   U40       0.1811
    897 H6         -8.0816   31.0830  -11.0237 H        28   U40       0.2188
    898 HO2'       -4.4118   34.7307  -12.8205 H        28   U40       0.4186
    899 P          -2.8410   31.7150  -12.4660 P.3      29   U41       1.1662
    900 OP1        -1.7450   31.5100  -13.4470 O.co2    29   U41      -0.7760
    901 OP2        -3.1060   30.6780  -11.4360 O.co2    29   U41      -0.7760
    902 O5'        -2.5790   33.1000  -11.7270 O.3      29   U41      -0.4989
    903 C5'        -1.8690   33.1540  -10.5010 C.3      29   U41       0.0558
    904 C4'        -1.9540   34.5270   -9.8870 C.3      29   U41       0.1065
    905 O4'        -3.3370   34.8460   -9.5790 O.3      29   U41      -0.3548
    906 C3'        -1.2320   34.7110   -8.5630 C.3      29   U41       0.2022
    907 O3'         0.1610   34.9160   -8.7180 O.3      29   U41      -0.5246
    908 C2'        -1.9640   35.8960   -7.9500 C.3      29   U41       0.0670
    909 O2'        -1.5300   37.1120   -8.5410 O.3      29   U41      -0.6139
    910 C1'        -3.4000   35.6270   -8.4040 C.3      29   U41       0.0674
    911 N1         -4.1770   34.8880   -7.3830 N.am     29   U41       0.0418
    912 C2         -4.6190   35.5870   -6.2750 C.2      29   U41       0.4687
    913 O2         -4.4010   36.7750   -6.1040 O.2      29   U41      -0.5477
    914 N3         -5.3340   34.8450   -5.3680 N.am     29   U41      -0.3549
    915 C4         -5.6450   33.5040   -5.4520 C.2      29   U41       0.5952
    916 O4         -6.2980   32.9760   -4.5510 O.2      29   U41      -0.5761
    917 C5         -5.1530   32.8510   -6.6260 C.2      29   U41      -0.3635
    918 C6         -4.4550   33.5480   -7.5270 C.2      29   U41      -0.1126
    919 H5'        -2.2963   32.4276   -9.8097 H        29   U41       0.0679
    920 H5''       -0.8230   32.9057  -10.6810 H        29   U41       0.0679
    921 H4'        -1.5737   35.2574  -10.6011 H        29   U41       0.1174
    922 H3'        -1.3960   33.8304   -7.9419 H        29   U41       0.0615
    923 H2'        -1.8750   35.9144   -6.8638 H        29   U41       0.0972
    924 H1'        -3.8951   36.5731   -8.6228 H        29   U41       0.1824
    925 H3         -5.6687   35.3343   -4.5503 H        29   U41       0.3154
    926 H5         -5.3449   31.7999   -6.7831 H        29   U41       0.1811
    927 H6         -4.0930   33.0373   -8.4071 H        29   U41       0.2188
    928 HO2'       -1.0979   37.6545   -7.8773 H        29   U41       0.4186
    929 P           1.1780   34.4310   -7.5740 P.3      30   G42       1.1662
    930 OP1         2.5500   34.4640   -8.1410 O.co2    30   G42      -0.7760
    931 OP2         0.6540   33.1700   -6.9900 O.co2    30   G42      -0.7760
    932 O5'         1.0700   35.5670   -6.4630 O.3      30   G42      -0.4989
    933 C5'         1.3710   36.9170   -6.7800 C.3      30   G42       0.0558
    934 C4'         1.0700   37.8410   -5.6270 C.3      30   G42       0.1065
    935 O4'        -0.3650   37.9740   -5.4520 O.3      30   G42      -0.3548
    936 C3'         1.5590   37.3930   -4.2600 C.3      30   G42       0.2022
    937 O3'         2.9420   37.6160   -4.0570 O.3      30   G42      -0.5246
    938 C2'         0.6640   38.1890   -3.3220 C.3      30   G42       0.0670
    939 O2'         1.1000   39.5380   -3.2380 O.3      30   G42      -0.6139
    940 C1'        -0.6630   38.1570   -4.0810 C.3      30   G42       0.0191
    941 N9         -1.5180   37.0450   -3.6250 N.ar     30   G42       0.0492
    942 C8         -1.7360   35.8390   -4.2450 C.ar     30   G42       0.1374
    943 N7         -2.5440   35.0620   -3.5750 N.ar     30   G42      -0.5709
    944 C5         -2.8740   35.7970   -2.4450 C.ar     30   G42       0.1744
    945 C6         -3.7160   35.4780   -1.3470 C.2      30   G42       0.4770
    946 O6         -4.3620   34.4440   -1.1450 O.2      30   G42      -0.5597
    947 N1         -3.7650   36.5160   -0.4220 N.am     30   G42      -0.4787
    948 C2         -3.0940   37.7090   -0.5340 C.2      30   G42       0.7657
    949 N2         -3.2690   38.5870    0.4640 N.pl3    30   G42      -0.9672
    950 N3         -2.3080   38.0180   -1.5510 N.2      30   G42      -0.6323
    951 C4         -2.2450   37.0230   -2.4610 C.ar     30   G42       0.1222
    952 H5'         0.7736   37.2194   -7.6401 H        30   G42       0.0679
    953 H5''        2.4280   36.9965   -7.0342 H        30   G42       0.0679
    954 H4'         1.4895   38.8230   -5.8454 H        30   G42       0.1174
    955 H3'         1.3480   36.3307   -4.1371 H        30   G42       0.0615
    956 H2'         0.5844   37.7232   -2.3397 H        30   G42       0.0972
    957 H1'        -1.1871   39.1027   -3.9429 H        30   G42       0.2006
    958 H8         -1.2866   35.5624   -5.1873 H        30   G42       0.1640
    959 H1         -4.3400   36.3814    0.3974 H        30   G42       0.3424
    960 H21        -3.8688   38.3538    1.2425 H        30   G42       0.4364
    961 H22        -2.8011   39.4817    0.4374 H        30   G42       0.4364
    962 HO2'        1.9336   39.5764   -2.7635 H        30   G42       0.4186
    963 P           3.7980   36.5800   -3.1770 P.3      31   G43       1.1662
    964 OP1         5.2220   36.9980   -3.2350 O.co2    31   G43      -0.7760
    965 OP2         3.4170   35.2040   -3.5860 O.co2    31   G43      -0.7760
    966 O5'         3.2800   36.8190   -1.6900 O.3      31   G43      -0.4989
    967 C5'         3.4830   38.0680   -1.0490 C.3      31   G43       0.0558
    968 C4'         2.6910   38.1810    0.2300 C.3      31   G43       0.1065
    969 O4'         1.2670   38.1100   -0.0510 O.3      31   G43      -0.3548
    970 C3'         2.9060   37.0830    1.2570 C.3      31   G43       0.2022
    971 O3'         4.1040   37.2240    1.9960 O.3      31   G43      -0.5246
    972 C2'         1.6450   37.1860    2.1010 C.3      31   G43       0.0670
    973 O2'         1.7120   38.3060    2.9710 O.3      31   G43      -0.6139
    974 C1'         0.6010   37.4770    1.0240 C.3      31   G43       0.0191
    975 N9         -0.0110   36.2270    0.5390 N.ar     31   G43       0.0492
    976 C8          0.2170   35.5750   -0.6480 C.ar     31   G43       0.1374
    977 N7         -0.4780   34.4750   -0.7630 N.ar     31   G43      -0.5709
    978 C5         -1.1970   34.3930    0.4230 C.ar     31   G43       0.1744
    979 C6         -2.1250   33.4200    0.8790 C.2      31   G43       0.4770
    980 O6         -2.5120   32.3950    0.3070 O.2      31   G43      -0.5597
    981 N1         -2.6160   33.7330    2.1420 N.am     31   G43      -0.4787
    982 C2         -2.2650   34.8380    2.8760 C.2      31   G43       0.7657
    983 N2         -2.8500   34.9660    4.0760 N.pl3    31   G43      -0.9672
    984 N3         -1.4040   35.7520    2.4630 N.2      31   G43      -0.6323
    985 C4         -0.9150   35.4670    1.2380 C.ar     31   G43       0.1222
    986 H5'         4.5426   38.1768   -0.8176 H        31   G43       0.0679
    987 H5''        3.1825   38.8681   -1.7255 H        31   G43       0.0679
    988 H4'         2.9094   39.1428    0.6940 H        31   G43       0.1174
    989 H3'         2.9145   36.1189    0.7486 H        31   G43       0.0615
    990 H2'         1.4339   36.2612    2.6380 H        31   G43       0.0972
    991 H1'        -0.1695   38.1367    1.4230 H        31   G43       0.2006
    992 H8          0.8982   35.9335   -1.4055 H        31   G43       0.1640
    993 H1         -3.2843   33.0961    2.5517 H        31   G43       0.3424
    994 H21        -3.5086   34.2693    4.3936 H        31   G43       0.4364
    995 H22        -2.6320   35.7591    4.6621 H        31   G43       0.4364
    996 HO2'        1.3880   38.0569    3.8397 H        31   G43       0.4186
    997 P           4.8860   35.9130    2.5010 P.3      32   G44       1.1662
    998 OP1         6.2220   36.3390    2.9910 O.co2    32   G44      -0.7760
    999 OP2         4.7860   34.8790    1.4390 O.co2    32   G44      -0.7760
   1000 O5'         4.0320   35.4150    3.7510 O.3      32   G44      -0.4989
   1001 C5'         3.8330   36.2610    4.8730 C.3      32   G44       0.0558
   1002 C4'         2.6930   35.7890    5.7410 C.3      32   G44       0.1065
   1003 O4'         1.4910   35.6230    4.9440 O.3      32   G44      -0.3548
   1004 C3'         2.8680   34.4390    6.4150 C.3      32   G44       0.2022
   1005 O3'         3.6930   34.4890    7.5650 O.3      32   G44      -0.5246
   1006 C2'         1.4300   34.0390    6.7130 C.3      32   G44       0.0670
   1007 O2'         0.9400   34.7380    7.8480 O.3      32   G44      -0.6139
   1008 C1'         0.7100   34.5700    5.4720 C.3      32   G44       0.0191
   1009 N9          0.5580   33.5220    4.4460 N.ar     32   G44       0.0492
   1010 C8          1.1940   33.4250    3.2310 C.ar     32   G44       0.1374
   1011 N7          0.8390   32.3650    2.5540 N.ar     32   G44      -0.5709
   1012 C5         -0.0820   31.7240    3.3720 C.ar     32   G44       0.1744
   1013 C6         -0.8130   30.5230    3.1770 C.2      32   G44       0.4770
   1014 O6         -0.7920   29.7550    2.2060 O.2      32   G44      -0.5597
   1015 N1         -1.6360   30.2420    4.2630 N.am     32   G44      -0.4787
   1016 C2         -1.7460   31.0140    5.3940 C.2      32   G44       0.7657
   1017 N2         -2.5960   30.5750    6.3340 N.pl3    32   G44      -0.9672
   1018 N3         -1.0710   32.1340    5.5870 N.2      32   G44      -0.6323
   1019 C4         -0.2650   32.4260    4.5440 C.ar     32   G44       0.1222
   1020 H5'         4.7458   36.2761    5.4685 H        32   G44       0.0679
   1021 H5''        3.6194   37.2711    4.5235 H        32   G44       0.0679
   1022 H4'         2.5031   36.5403    6.5075 H        32   G44       0.1174
   1023 H3'         3.2939   33.7351    5.7000 H        32   G44       0.0615
   1024 H2'         1.3197   32.9598    6.8188 H        32   G44       0.0972
   1025 H1'        -0.2720   34.9498    5.7542 H        32   G44       0.2006
   1026 H8          1.9116   34.1487    2.8736 H        32   G44       0.1640
   1027 H1         -2.1973   29.4036    4.2161 H        32   G44       0.3424
   1028 H21        -3.1124   29.7194    6.1880 H        32   G44       0.4364
   1029 H22        -2.7197   31.1000    7.1879 H        32   G44       0.4364
   1030 HO2'        0.7584   34.1142    8.5547 H        32   G44       0.4186
   1031 P           4.4650   33.1690    8.0610 P.3      33   A45       1.1662
   1032 OP1         5.4150   33.5630    9.1320 O.co2    33   A45      -0.7760
   1033 OP2         4.9680   32.4510    6.8620 O.co2    33   A45      -0.7760
   1034 O5'         3.3230   32.2800    8.7260 O.3      33   A45      -0.4989
   1035 C5'         2.5940   32.7500    9.8500 C.3      33   A45       0.0558
   1036 C4'         1.4600   31.8210   10.1990 C.3      33   A45       0.1065
   1037 O4'         0.5440   31.7220    9.0780 O.3      33   A45      -0.3548
   1038 C3'         1.8500   30.3800   10.4860 C.3      33   A45       0.2022
   1039 O3'         2.3220   30.1920   11.8090 O.3      33   A45      -0.5246
   1040 C2'         0.5650   29.6200   10.1830 C.3      33   A45       0.0670
   1041 O2'        -0.3500   29.7320   11.2630 O.3      33   A45      -0.6139
   1042 C1'         0.0150   30.4150    9.0000 C.3      33   A45       0.0394
   1043 N9          0.4090   29.8260    7.7070 N.ar     33   A45      -0.0251
   1044 C8          1.2740   30.3410    6.7740 C.ar     33   A45       0.2006
   1045 N7          1.4230   29.5810    5.7160 N.ar     33   A45      -0.6073
   1046 C5          0.6010   28.4920    5.9700 C.ar     33   A45       0.0515
   1047 C6          0.3130   27.3300    5.2330 C.ar     33   A45       0.7009
   1048 N6          0.8440   27.0590    4.0390 N.pl3    33   A45      -0.9019
   1049 N1         -0.5510   26.4420    5.7720 N.ar     33   A45      -0.7615
   1050 C2         -1.0840   26.7120    6.9700 C.ar     33   A45       0.5875
   1051 N3         -0.8940   27.7680    7.7570 N.ar     33   A45      -0.6997
   1052 C4         -0.0310   28.6300    7.1930 C.ar     33   A45       0.3053
   1053 H5'         2.1874   33.7353    9.6218 H        33   A45       0.0679
   1054 H5''        3.2664   32.8299   10.7042 H        33   A45       0.0679
   1055 H4'         0.9251   32.2219   11.0599 H        33   A45       0.1174
   1056 H3'         2.6232   30.0712    9.7825 H        33   A45       0.0615
   1057 H2'         0.7592   28.5802    9.9199 H        33   A45       0.0972
   1058 H1'        -1.0723   30.4579    9.0642 H        33   A45       0.2007
   1059 H8          1.7844   31.2845    6.8996 H        33   A45       0.1553
   1060 H2         -1.7654   25.9664    7.3522 H        33   A45       0.0473
   1061 H61         0.2802   26.3887    3.5361 H        33   A45       0.4115
   1062 H62         1.6963   27.4696    3.6853 H        33   A45       0.4115
   1063 HO2'       -0.0190   29.2372   12.0161 H        33   A45       0.4186
   1064 P           3.6140   29.2780   12.0870 P.3      34   G46       1.1662
   1065 OP1         3.8880   29.3080   13.5470 O.co2    34   G46      -0.7760
   1066 OP2         4.6800   29.6780   11.1340 O.co2    34   G46      -0.7760
   1067 O5'         3.1350   27.8080   11.7030 O.3      34   G46      -0.4989
   1068 C5'         2.0460   27.1970   12.3770 C.3      34   G46       0.0558
   1069 C4'         1.5930   25.9440   11.6710 C.3      34   G46       0.1065
   1070 O4'         1.0940   26.2720   10.3490 O.3      34   G46      -0.3548
   1071 C3'         2.6700   24.9050   11.4110 C.3      34   G46       0.2022
   1072 O3'         2.9430   24.1060   12.5470 O.3      34   G46      -0.5246
   1073 C2'         2.1010   24.1220   10.2340 C.3      34   G46       0.0670
   1074 O2'         1.1210   23.1940   10.6770 O.3      34   G46      -0.6139
   1075 C1'         1.4000   25.2300    9.4460 C.3      34   G46       0.0191
   1076 N9          2.2520   25.7740    8.3710 N.ar     34   G46       0.0492
   1077 C8          3.0930   26.8570    8.4540 C.ar     34   G46       0.1374
   1078 N7          3.7230   27.1040    7.3380 N.ar     34   G46      -0.5709
   1079 C5          3.2720   26.1240    6.4640 C.ar     34   G46       0.1744
   1080 C6          3.6030   25.8830    5.1060 C.2      34   G46       0.4770
   1081 O6          4.3860   26.5090    4.3830 O.2      34   G46      -0.5597
   1082 N1          2.9170   24.7850    4.5960 N.am     34   G46      -0.4787
   1083 C2          2.0260   24.0190    5.3050 C.2      34   G46       0.7657
   1084 N2          1.4630   23.0010    4.6390 N.pl3    34   G46      -0.9672
   1085 N3          1.7080   24.2330    6.5720 N.2      34   G46      -0.6323
   1086 C4          2.3640   25.2940    7.0870 C.ar     34   G46       0.1222
   1087 H5'         2.3555   26.9405   13.3902 H        34   G46       0.0679
   1088 H5''        1.2150   27.9007   12.4245 H        34   G46       0.0679
   1089 H4'         0.7903   25.4842   12.2475 H        34   G46       0.1174
   1090 H3'         3.5851   25.4078   11.0982 H        34   G46       0.0615
   1091 H2'         2.8841   23.6393    9.6493 H        34   G46       0.0972
   1092 H1'         0.4774   24.8407    9.0155 H        34   G46       0.2006
   1093 H8          3.2199   27.4443    9.3514 H        34   G46       0.1640
   1094 H1          3.0874   24.5332    3.6329 H        34   G46       0.3424
   1095 H21         1.7035   22.8356    3.6721 H        34   G46       0.4364
   1096 H22         0.7983   22.3994    5.1041 H        34   G46       0.4364
   1097 HO2'        0.8178   22.6685    9.9330 H        34   G46       0.4186
   1098 P           4.3250   24.2880   13.3450 P.3      35   U47       1.1662
   1099 OP1         4.0770   23.9810   14.7770 O.co2    35   U47      -0.7760
   1100 OP2         4.9090   25.5990   12.9650 O.co2    35   U47      -0.7760
   1101 O5'         5.2590   23.1450   12.7500 O.3      35   U47      -0.4989
   1102 C5'         4.8860   21.7750   12.8450 C.3      35   U47       0.0558
   1103 C4'         5.9370   20.8690   12.2530 C.3      35   U47       0.1065
   1104 O4'         6.0150   21.1010   10.8200 O.3      35   U47      -0.3548
   1105 C3'         7.3510   21.0660   12.7960 C.3      35   U47       0.2022
   1106 O3'         8.0210   19.8070   12.8360 O.3      35   U47      -0.5246
   1107 C2'         7.9990   21.9530   11.7360 C.3      35   U47       0.0670
   1108 O2'         9.4060   21.8660   11.6760 O.3      35   U47      -0.6139
   1109 C1'         7.3440   21.4300   10.4610 C.3      35   U47       0.0674
   1110 N1          7.2990   22.4020    9.3600 N.am     35   U47       0.0418
   1111 C2          7.7180   21.9680    8.1170 C.2      35   U47       0.4687
   1112 O2          8.1080   20.8320    7.9130 O.2      35   U47      -0.5477
   1113 N3          7.6590   22.9120    7.1220 N.am     35   U47      -0.3549
   1114 C4          7.2350   24.2190    7.2440 C.2      35   U47       0.5952
   1115 O4          7.2410   24.9510    6.2530 O.2      35   U47      -0.5761
   1116 C5          6.8190   24.5920    8.5620 C.2      35   U47      -0.3635
   1117 C6          6.8650   23.6930    9.5510 C.2      35   U47      -0.1126
   1118 H5'         4.7492   21.5182   13.8954 H        35   U47       0.0679
   1119 H5''        3.9454   21.6239   12.3154 H        35   U47       0.0679
   1120 H4'         5.6400   19.8340   12.4225 H        35   U47       0.1174
   1121 H3'         7.3427   21.5483   13.7735 H        35   U47       0.0615
   1122 H2'         7.7044   22.9898   11.8984 H        35   U47       0.0972
   1123 H1'         7.8631   20.5307   10.1295 H        35   U47       0.1824
   1124 H3          7.9578   22.6184    6.2030 H        35   U47       0.3154
   1125 H5          6.4695   25.5951    8.7568 H        35   U47       0.1811
   1126 H6          6.5487   23.9927   10.5392 H        35   U47       0.2188
   1127 HO2'        9.7929   22.5276   12.2541 H        35   U47       0.4186
   1128 P           8.0440   18.9480   14.1940 P.3      36   U48       1.1662
   1129 OP1         8.5290   17.5820   13.8680 O.co2    36   U48      -0.7760
   1130 OP2         6.7350   19.1270   14.8740 O.co2    36   U48      -0.7760
   1131 O5'         9.1550   19.6630   15.0810 O.3      36   U48      -0.4989
   1132 C5'        10.4660   19.8770   14.5710 C.3      36   U48       0.0558
   1133 C4'        11.0840   21.1280   15.1400 C.3      36   U48       0.1065
   1134 O4'        11.4190   20.9000   16.5360 O.3      36   U48      -0.3548
   1135 C3'        12.3740   21.5790   14.4610 C.3      36   U48       0.2022
   1136 O3'        12.4430   23.0040   14.4700 O.3      36   U48      -0.5246
   1137 C2'        13.4540   21.0080   15.3730 C.3      36   U48       0.0670
   1138 O2'        14.6880   21.6890   15.3160 O.3      36   U48      -0.6139
   1139 C1'        12.7980   21.1390   16.7440 C.3      36   U48       0.0674
   1140 N1         13.2870   20.1670   17.7320 N.am     36   U48       0.0418
   1141 C2         13.6910   20.6480   18.9620 C.2      36   U48       0.4687
   1142 O2         13.6500   21.8310   19.2540 O.2      36   U48      -0.5477
   1143 N3         14.1400   19.6920   19.8410 N.am     36   U48      -0.3549
   1144 C4         14.2280   18.3330   19.6170 C.2      36   U48       0.5952
   1145 O4         14.6570   17.5990   20.5090 O.2      36   U48      -0.5761
   1146 C5         13.7950   17.9150   18.3180 C.2      36   U48      -0.3635
   1147 C6         13.3510   18.8240   17.4420 C.2      36   U48      -0.1126
   1148 H5'        11.0911   19.0231   14.8324 H        36   U48       0.0679
   1149 H5''       10.4170   19.9647   13.4856 H        36   U48       0.0679
   1150 H4'        10.3556   21.9368   15.0817 H        36   U48       0.1174
   1151 H3'        12.4536   21.1812   13.4493 H        36   U48       0.0615
   1152 H2'        13.6077   19.9541   15.1412 H        36   U48       0.0972
   1153 H1'        12.9413   22.1507   17.1235 H        36   U48       0.1824
   1154 H3         14.4378   20.0191   20.7490 H        36   U48       0.3154
   1155 H5         13.8266   16.8703   18.0461 H        36   U48       0.1811
   1156 H6         13.0296   18.4892   16.4668 H        36   U48       0.2188
   1157 HO2'       15.0711   21.5855   14.4419 H        36   U48       0.4186
   1158 P          11.8270   23.8480   13.2480 P.3      37   U49       1.1662
   1159 OP1        12.5320   25.1540   13.1880 O.co2    37   U49      -0.7760
   1160 OP2        10.3480   23.8160   13.3680 O.co2    37   U49      -0.7760
   1161 O5'        12.2350   23.0110   11.9550 O.3      37   U49      -0.4989
   1162 C5'        13.5610   23.0630   11.4410 C.3      37   U49       0.0558
   1163 C4'        13.6110   22.7380    9.9680 C.3      37   U49       0.1065
   1164 O4'        13.5130   21.2980    9.7810 O.3      37   U49      -0.3548
   1165 C3'        12.5030   23.3600    9.1160 C.3      37   U49       0.2022
   1166 O3'        13.0350   23.7450    7.8510 O.3      37   U49      -0.5246
   1167 C2'        11.5310   22.1990    8.9210 C.3      37   U49       0.0670
   1168 O2'        10.7330   22.2950    7.7600 O.3      37   U49      -0.6139
   1169 C1'        12.4840   21.0120    8.8550 C.3      37   U49       0.0674
   1170 N1         11.8700   19.7240    9.2120 N.am     37   U49       0.0418
   1171 C2         12.0740   18.6650    8.3490 C.2      37   U49       0.4687
   1172 O2         12.7410   18.7610    7.3340 O.2      37   U49      -0.5477
   1173 N3         11.4770   17.4870    8.7220 N.am     37   U49      -0.3549
   1174 C4         10.7070   17.2680    9.8450 C.2      37   U49       0.5952
   1175 O4         10.2350   16.1480   10.0440 O.2      37   U49      -0.5761
   1176 C5         10.5370   18.4140   10.6850 C.2      37   U49      -0.3635
   1177 C6         11.1090   19.5750   10.3470 C.2      37   U49      -0.1126
   1178 H5'        13.9579   24.0667   11.5932 H        37   U49       0.0679
   1179 H5''       14.1809   22.3494   11.9838 H        37   U49       0.0679
   1180 H4'        14.5723   23.0701    9.5760 H        37   U49       0.1174
   1181 H3'        12.0289   24.1995    9.6245 H        37   U49       0.0615
   1182 H2'        10.8910   22.1062    9.7984 H        37   U49       0.0972
   1183 H1'        12.9081   20.9446    7.8532 H        37   U49       0.1824
   1184 H3         11.6163   16.6965    8.1090 H        37   U49       0.3154
   1185 H5          9.9493   18.3418   11.5882 H        37   U49       0.1811
   1186 H6         10.9672   20.4297   10.9918 H        37   U49       0.2188
   1187 HO2'       10.6788   23.2127    7.4834 H        37   U49       0.4186
   1188 P          12.5130   25.0840    7.1320 P.3      38   C50       1.1662
   1189 OP1        13.0710   26.2490    7.8640 O.co2    38   C50      -0.7760
   1190 OP2        11.0420   24.9660    6.9540 O.co2    38   C50      -0.7760
   1191 O5'        13.1900   25.0320    5.6920 O.3      38   C50      -0.4989
   1192 C5'        14.5710   25.3160    5.5240 C.3      38   C50       0.0558
   1193 C4'        15.1390   24.5970    4.3280 C.3      38   C50       0.1065
   1194 O4'        15.2850   23.1830    4.6240 O.3      38   C50      -0.3548
   1195 C3'        14.2860   24.6230    3.0700 C.3      38   C50       0.2022
   1196 O3'        14.4090   25.8290    2.3370 O.3      38   C50      -0.5246
   1197 C2'        14.7740   23.3950    2.3140 C.3      38   C50       0.0670
   1198 O2'        16.0090   23.6620    1.6660 O.3      38   C50      -0.6139
   1199 C1'        15.0330   22.4190    3.4620 C.3      38   C50       0.0066
   1200 N1         13.8730   21.5350    3.7190 N.am     38   C50      -0.0484
   1201 C2         13.5870   20.5010    2.8190 C.2      38   C50       0.7538
   1202 O2         14.3040   20.3450    1.8200 O.2      38   C50      -0.6252
   1203 N3         12.5280   19.6940    3.0560 N.2      38   C50      -0.7584
   1204 C4         11.7720   19.8810    4.1380 C.2      38   C50       0.8185
   1205 N4         10.7400   19.0550    4.3260 N.pl3    38   C50      -0.9530
   1206 C5         12.0420   20.9210    5.0740 C.2      38   C50      -0.5215
   1207 C6         13.0910   21.7140    4.8260 C.2      38   C50       0.0053
   1208 H5'        15.1093   24.9985    6.4170 H        38   C50       0.0679
   1209 H5''       14.7015   26.3899    5.3908 H        38   C50       0.0679
   1210 H4'        16.1199   25.0131    4.0985 H        38   C50       0.1174
   1211 H3'        13.2413   24.4792    3.3456 H        38   C50       0.0615
   1212 H2'        14.0226   23.0181    1.6201 H        38   C50       0.0972
   1213 H1'        15.9078   21.8113    3.2308 H        38   C50       0.2029
   1214 H5         11.4247   21.0635    5.9486 H        38   C50       0.1928
   1215 H6         13.3248   22.5122    5.5149 H        38   C50       0.1958
   1216 H41        10.5540   18.3194    3.6594 H        38   C50       0.4234
   1217 H42        10.1453   19.1658    5.1348 H        38   C50       0.4234
   1218 HO2'       15.8646   24.2745    0.9410 H        38   C50       0.4186
   1219 P          13.0940   26.6080    1.8390 P.3      39   U51       1.1662
   1220 OP1        13.5350   27.7820    1.0450 O.co2    39   U51      -0.7760
   1221 OP2        12.2050   26.8050    3.0120 O.co2    39   U51      -0.7760
   1222 O5'        12.3870   25.5820    0.8430 O.3      39   U51      -0.4989
   1223 C5'        12.9900   25.2370   -0.3950 C.3      39   U51       0.0558
   1224 C4'        12.4060   23.9690   -0.9680 C.3      39   U51       0.1065
   1225 O4'        12.4830   22.9040    0.0150 O.3      39   U51      -0.3548
   1226 C3'        10.9330   24.0150   -1.3450 C.3      39   U51       0.2022
   1227 O3'        10.7000   24.6230   -2.6040 O.3      39   U51      -0.5246
   1228 C2'        10.5340   22.5460   -1.2980 C.3      39   U51       0.0670
   1229 O2'        10.9570   21.8740   -2.4750 O.3      39   U51      -0.6139
   1230 C1'        11.3740   22.0410   -0.1240 C.3      39   U51       0.0674
   1231 N1         10.6110   22.0350    1.1450 N.am     39   U51       0.0418
   1232 C2          9.7410   20.9830    1.3600 C.2      39   U51       0.4687
   1233 O2          9.5830   20.0790    0.5580 O.2      39   U51      -0.5477
   1234 N3          9.0600   21.0270    2.5510 N.am     39   U51      -0.3549
   1235 C4          9.1560   21.9950    3.5280 C.2      39   U51       0.5952
   1236 O4          8.4730   21.8930    4.5480 O.2      39   U51      -0.5761
   1237 C5         10.0760   23.0510    3.2310 C.2      39   U51      -0.3635
   1238 C6         10.7550   23.0340    2.0800 C.2      39   U51      -0.1126
   1239 H5'        14.0592   25.0939   -0.2389 H        39   U51       0.0679
   1240 H5''       12.8392   26.0510   -1.1040 H        39   U51       0.0679
   1241 H4'        12.9848   23.6803   -1.8454 H        39   U51       0.1174
   1242 H3'        10.3838   24.5599   -0.5772 H        39   U51       0.0615
   1243 H2'         9.4663   22.4197   -1.1186 H        39   U51       0.0972
   1244 H1'        11.7259   21.0320   -0.3389 H        39   U51       0.1824
   1245 H3          8.4189   20.2677    2.7312 H        39   U51       0.3154
   1246 H5         10.2207   23.8579    3.9341 H        39   U51       0.1811
   1247 H6         11.4459   23.8384    1.8752 H        39   U51       0.2188
   1248 HO2'       10.1914   21.6517   -3.0098 H        39   U51       0.4186
   1249 P           9.3410   25.4410   -2.8700 P.3      40   A52       1.1662
   1250 OP1         9.4210   26.0360   -4.2290 O.co2    40   A52      -0.7760
   1251 OP2         9.0960   26.3180   -1.6970 O.co2    40   A52      -0.7760
   1252 O5'         8.2060   24.3210   -2.8960 O.3      40   A52      -0.4989
   1253 C5'         8.1340   23.3720   -3.9510 C.3      40   A52       0.0558
   1254 C4'         7.1660   22.2610   -3.6260 C.3      40   A52       0.1065
   1255 O4'         7.5520   21.6360   -2.3750 O.3      40   A52      -0.3548
   1256 C3'         5.7200   22.6840   -3.4080 C.3      40   A52       0.2022
   1257 O3'         5.0010   22.8050   -4.6240 O.3      40   A52      -0.5246
   1258 C2'         5.1780   21.5900   -2.4950 C.3      40   A52       0.0670
   1259 O2'         4.8270   20.4370   -3.2460 O.3      40   A52      -0.6139
   1260 C1'         6.4060   21.2600   -1.6450 C.3      40   A52       0.0394
   1261 N9          6.4150   21.9810   -0.3570 N.ar     40   A52      -0.0251
   1262 C8          7.1300   23.1070   -0.0340 C.ar     40   A52       0.2006
   1263 N7          6.9420   23.5200    1.1950 N.ar     40   A52      -0.6073
   1264 C5          6.0460   22.6020    1.7190 C.ar     40   A52       0.0515
   1265 C6          5.4470   22.4840    2.9860 C.ar     40   A52       0.7009
   1266 N6          5.6750   23.3320    3.9930 N.pl3    40   A52      -0.9019
   1267 N1          4.5960   21.4520    3.1870 N.ar     40   A52      -0.7615
   1268 C2          4.3700   20.6030    2.1750 C.ar     40   A52       0.5875
   1269 N3          4.8730   20.6100    0.9420 N.ar     40   A52      -0.6997
   1270 C4          5.7130   21.6460    0.7760 C.ar     40   A52       0.3053
   1271 H5'         9.1237   22.9444   -4.1116 H        40   A52       0.0679
   1272 H5''        7.8092   23.8742   -4.8623 H        40   A52       0.0679
   1273 H4'         7.2016   21.5158   -4.4206 H        40   A52       0.1174
   1274 H3'         5.6989   23.6375   -2.8802 H        40   A52       0.0615
   1275 H2'         4.3470   21.9454   -1.8858 H        40   A52       0.0972
   1276 H1'         6.4354   20.1868   -1.4568 H        40   A52       0.2007
   1277 H8          7.7877   23.6071   -0.7295 H        40   A52       0.1553
   1278 H2          3.6821   19.7987    2.3900 H        40   A52       0.0473
   1279 H61         5.1144   23.1586    4.8151 H        40   A52       0.4115
   1280 H62         6.3496   24.0816    3.9370 H        40   A52       0.4115
   1281 HO2'        4.0565   20.6284   -3.7857 H        40   A52       0.4186
   1282 P           4.1660   24.1380   -4.9560 P.3      41   C53       1.1662
   1283 OP1         3.8270   24.1080   -6.4020 O.co2    41   C53      -0.7760
   1284 OP2         4.9070   25.3000   -4.4030 O.co2    41   C53      -0.7760
   1285 O5'         2.8160   23.9740   -4.1230 O.3      41   C53      -0.4989
   1286 C5'         1.9040   22.9200   -4.3990 C.3      41   C53       0.0558
   1287 C4'         1.0970   22.5570   -3.1760 C.3      41   C53       0.1065
   1288 O4'         1.9970   22.2430   -2.0840 O.3      41   C53      -0.3548
   1289 C3'         0.1960   23.6500   -2.6180 C.3      41   C53       0.2022
   1290 O3'        -1.0540   23.7200   -3.2810 O.3      41   C53      -0.5246
   1291 C2'         0.0630   23.2630   -1.1490 C.3      41   C53       0.0670
   1292 O2'        -0.9220   22.2530   -0.9840 O.3      41   C53      -0.6139
   1293 C1'         1.4360   22.6560   -0.8580 C.3      41   C53       0.0066
   1294 N1          2.3530   23.6210   -0.2110 N.am     41   C53      -0.0484
   1295 C2          2.3440   23.6990    1.1830 C.2      41   C53       0.7538
   1296 O2          1.5740   22.9610    1.8160 O.2      41   C53      -0.6252
   1297 N3          3.1710   24.5700    1.8050 N.2      41   C53      -0.7584
   1298 C4          3.9820   25.3440    1.0850 C.2      41   C53       0.8185
   1299 N4          4.7800   26.1900    1.7410 N.pl3    41   C53      -0.9530
   1300 C5          4.0120   25.2860   -0.3400 C.2      41   C53      -0.5215
   1301 C6          3.1900   24.4180   -0.9420 C.2      41   C53       0.0053
   1302 H5'         1.2251   23.2366   -5.1908 H        41   C53       0.0679
   1303 H5''        2.4601   22.0442   -4.7335 H        41   C53       0.0679
   1304 H4'         0.4914   21.6787   -3.3993 H        41   C53       0.1174
   1305 H3'         0.7022   24.6122   -2.6954 H        41   C53       0.0615
   1306 H2'        -0.1374   24.1298   -0.5192 H        41   C53       0.0972
   1307 H1'         1.3138   21.7883   -0.2098 H        41   C53       0.2029
   1308 H5          4.6738   25.9193   -0.9122 H        41   C53       0.1928
   1309 H6          3.1877   24.3461   -2.0196 H        41   C53       0.1958
   1310 H41         4.7555   26.2277    2.7500 H        41   C53       0.4234
   1311 H42         5.4081   26.7922    1.2282 H        41   C53       0.4234
   1312 HO2'       -0.5477   21.3996   -1.2147 H        41   C53       0.4186
   1313 P          -1.3160   24.7970   -4.4430 P.3      42   C54       1.1662
   1314 OP1        -0.0270   25.4410   -4.8030 O.co2    42   C54      -0.7760
   1315 OP2        -2.4580   25.6500   -4.0250 O.co2    42   C54      -0.7760
   1316 O5'        -1.8030   23.9040   -5.6710 O.3      42   C54      -0.4989
   1317 C5'        -1.1480   23.9790   -6.9270 C.3      42   C54       0.0558
   1318 C4'        -0.9170   22.6140   -7.5310 C.3      42   C54       0.1065
   1319 O4'        -0.5130   21.6660   -6.5080 O.3      42   C54      -0.3548
   1320 C3'        -2.1110   21.9400   -8.1850 C.3      42   C54       0.2022
   1321 O3'        -2.4130   22.4560   -9.4700 O.3      42   C54      -0.5246
   1322 C2'        -1.6840   20.4790   -8.2030 C.3      42   C54       0.0670
   1323 O2'        -0.7540   20.2450   -9.2500 O.3      42   C54      -0.6139
   1324 C1'        -0.9420   20.3670   -6.8700 C.3      42   C54       0.0066
   1325 N1         -1.8040   19.8130   -5.8010 N.am     42   C54      -0.0484
   1326 C2         -2.0370   18.4330   -5.7930 C.2      42   C54       0.7538
   1327 O2         -1.5180   17.7240   -6.6680 O.2      42   C54      -0.6252
   1328 N3         -2.8210   17.8980   -4.8300 N.2      42   C54      -0.7584
   1329 C4         -3.3640   18.6850   -3.9030 C.2      42   C54       0.8185
   1330 N4         -4.1310   18.1090   -2.9740 N.pl3    42   C54      -0.9530
   1331 C5         -3.1460   20.0940   -3.8870 C.2      42   C54      -0.5215
   1332 C6         -2.3670   20.6120   -4.8470 C.2      42   C54       0.0053
   1333 H5'        -0.1847   24.4708   -6.7918 H        42   C54       0.0679
   1334 H5''       -1.7565   24.5714   -7.6102 H        42   C54       0.0679
   1335 H4'        -0.1168   22.6916   -8.2670 H        42   C54       0.1174
   1336 H3'        -2.9828   22.0508   -7.5402 H        42   C54       0.0615
   1337 H2'        -2.5377   19.8033   -8.2547 H        42   C54       0.0972
   1338 H1'        -0.0710   19.7242   -6.9974 H        42   C54       0.2029
   1339 H5         -3.5922   20.7209   -3.1292 H        42   C54       0.1928
   1340 H6         -2.1820   21.6759   -4.8664 H        42   C54       0.1958
   1341 H41        -4.2813   17.1104   -2.9914 H        42   C54       0.4234
   1342 H42        -4.5608   18.6719   -2.2540 H        42   C54       0.4234
   1343 HO2'       -1.1326   19.6312   -9.8837 H        42   C54       0.4186
   1344 P          -3.8960   22.3030  -10.0710 P.3      43   A55       1.1662
   1345 OP1        -3.9700   23.1090  -11.3170 O.co2    43   A55      -0.7760
   1346 OP2        -4.8670   22.5490   -8.9740 O.co2    43   A55      -0.7760
   1347 O5'        -3.9970   20.7650  -10.4740 O.3      43   A55      -0.4989
   1348 C5'        -3.1600   20.2200  -11.4820 C.3      43   A55       0.0558
   1349 C4'        -3.3100   18.7220  -11.5760 C.3      43   A55       0.1065
   1350 O4'        -2.9310   18.1080  -10.3170 O.3      43   A55      -0.3548
   1351 C3'        -4.7190   18.2100  -11.8260 C.3      43   A55       0.2022
   1352 O3'        -5.0920   18.2800  -13.1900 O.3      43   A55      -0.5246
   1353 C2'        -4.6590   16.7890  -11.2800 C.3      43   A55       0.0670
   1354 O2'        -4.0320   15.9190  -12.2110 O.3      43   A55      -0.6139
   1355 C1'        -3.7250   16.9640  -10.0820 C.3      43   A55       0.0394
   1356 N9         -4.4660   17.1520   -8.8200 N.ar     43   A55      -0.0251
   1357 C8         -4.6550   18.3160   -8.1160 C.ar     43   A55       0.2006
   1358 N7         -5.3600   18.1610   -7.0220 N.ar     43   A55      -0.6073
   1359 C5         -5.6550   16.8050   -7.0020 C.ar     43   A55       0.0515
   1360 C6         -6.3770   16.0030   -6.0980 C.ar     43   A55       0.7009
   1361 N6         -6.9590   16.4710   -4.9920 N.pl3    43   A55      -0.9019
   1362 N1         -6.4830   14.6840   -6.3730 N.ar     43   A55      -0.7615
   1363 C2         -5.9000   14.2130   -7.4820 C.ar     43   A55       0.5875
   1364 N3         -5.1970   14.8640   -8.4060 N.ar     43   A55      -0.6997
   1365 C4         -5.1100   16.1710   -8.1040 C.ar     43   A55       0.3053
   1366 H5'        -2.1225   20.4577  -11.2472 H        43   A55       0.0679
   1367 H5''       -3.4202   20.6659  -12.4420 H        43   A55       0.0679
   1368 H4'        -2.6538   18.3496  -12.3626 H        43   A55       0.1174
   1369 H3'        -5.4227   18.7928  -11.2317 H        43   A55       0.0615
   1370 H2'        -5.6421   16.4255  -10.9807 H        43   A55       0.0972
   1371 H1'        -3.0808   16.0890   -9.9955 H        43   A55       0.2007
   1372 H8         -4.2598   19.2695   -8.4340 H        43   A55       0.1553
   1373 H2         -6.0167   13.1528   -7.6514 H        43   A55       0.0473
   1374 HO2'       -4.6908   15.3422  -12.6045 H        43   A55       0.4186
   1375 H61        -7.1479   15.7112   -4.3540 H        43   A55       0.4115
   1376 H62        -7.1782   17.4416   -4.8186 H        43   A55       0.4115
   1377 P          -6.6190   18.5690  -13.5960 P.3      44   A56       1.1662
   1378 OP1        -6.6410   18.9380  -15.0340 O.co2    44   A56      -0.7760
   1379 OP2        -7.1980   19.4970  -12.5910 O.co2    44   A56      -0.7760
   1380 O5'        -7.3300   17.1520  -13.4370 O.3      44   A56      -0.4989
   1381 C5'        -6.9440   16.0520  -14.2470 C.3      44   A56       0.0558
   1382 C4'        -7.4320   14.7420  -13.6800 C.3      44   A56       0.1065
   1383 O4'        -6.8680   14.5380  -12.3580 O.3      44   A56      -0.3548
   1384 C3'        -8.9320   14.6210  -13.4590 C.3      44   A56       0.2022
   1385 O3'        -9.6510   14.3140  -14.6410 O.3      44   A56      -0.5246
   1386 C2'        -9.0190   13.5400  -12.3940 C.3      44   A56       0.0670
   1387 O2'        -8.8150   12.2570  -12.9660 O.3      44   A56      -0.6139
   1388 C1'        -7.8050   13.8800  -11.5310 C.3      44   A56       0.0394
   1389 N9         -8.1690   14.7850  -10.4260 N.ar     44   A56      -0.0251
   1390 C8         -8.0160   16.1480  -10.3700 C.ar     44   A56       0.2006
   1391 N7         -8.4430   16.6800   -9.2510 N.ar     44   A56      -0.6073
   1392 C5         -8.9130   15.5940   -8.5240 C.ar     44   A56       0.0515
   1393 C6         -9.4960   15.4870   -7.2490 C.ar     44   A56       0.7009
   1394 N6         -9.7140   16.5300   -6.4440 N.pl3    44   A56      -0.9019
   1395 N1         -9.8510   14.2550   -6.8210 N.ar     44   A56      -0.7615
   1396 C2         -9.6320   13.2080   -7.6270 C.ar     44   A56       0.5875
   1397 N3         -9.0940   13.1810   -8.8440 N.ar     44   A56      -0.6997
   1398 C4         -8.7530   14.4210   -9.2390 C.ar     44   A56       0.3053
   1399 H5'        -7.3642   16.1834  -15.2442 H        44   A56       0.0679
   1400 H5''       -5.8567   16.0264  -14.3188 H        44   A56       0.0679
   1401 H4'        -7.1050   13.9319  -14.3318 H        44   A56       0.1174
   1402 H3'        -9.3077   15.5576  -13.0470 H        44   A56       0.0615
   1403 H2'        -9.9504   13.5940  -11.8304 H        44   A56       0.0972
   1404 H1'        -7.3674   12.9652  -11.1312 H        44   A56       0.2007
   1405 H8         -7.5843   16.7275  -11.1727 H        44   A56       0.1553
   1406 H2         -9.9352   12.2491   -7.2333 H        44   A56       0.0473
   1407 HO2'       -9.4663   11.6437  -12.6178 H        44   A56       0.4186
   1408 H61        -9.7496   16.0555   -5.5531 H        44   A56       0.4115
   1409 H62        -9.8144   17.5108   -6.6630 H        44   A56       0.4115
   1410 P         -11.1430   14.8770  -14.8440 P.3      45   G57       1.1662
   1411 OP1       -11.5750   14.5360  -16.2240 O.co2    45   G57      -0.7760
   1412 OP2       -11.1670   16.2940  -14.4010 O.co2    45   G57      -0.7760
   1413 O5'       -12.0220   14.0260  -13.8220 O.3      45   G57      -0.4989
   1414 C5'       -12.2450   12.6400  -14.0330 C.3      45   G57       0.0558
   1415 C4'       -12.7900   11.9610  -12.8000 C.3      45   G57       0.1065
   1416 O4'       -11.9210   12.2180  -11.6660 O.3      45   G57      -0.3548
   1417 C3'       -14.1570   12.4220  -12.3180 C.3      45   G57       0.2022
   1418 O3'       -15.2330   11.8680  -13.0550 O.3      45   G57      -0.5246
   1419 C2'       -14.1410   12.0020  -10.8560 C.3      45   G57       0.0670
   1420 O2'       -14.3670   10.6050  -10.7320 O.3      45   G57      -0.6139
   1421 C1'       -12.6880   12.2880  -10.4810 C.3      45   G57       0.0191
   1422 N9        -12.5380   13.6320   -9.8930 N.ar     45   G57       0.0492
   1423 C8        -12.0340   14.7610  -10.4920 C.ar     45   G57       0.1374
   1424 N7        -12.0410   15.8030   -9.7050 N.ar     45   G57      -0.5709
   1425 C5        -12.5880   15.3350   -8.5170 C.ar     45   G57       0.1744
   1426 C6        -12.8470   16.0070   -7.2940 C.2      45   G57       0.4770
   1427 O6        -12.6400   17.1930   -7.0070 O.2      45   G57      -0.5597
   1428 N1        -13.4080   15.1520   -6.3500 N.am     45   G57      -0.4787
   1429 C2        -13.6840   13.8230   -6.5520 C.2      45   G57       0.7657
   1430 N2        -14.2250   13.1660   -5.5170 N.pl3    45   G57      -0.9672
   1431 N3        -13.4460   13.1850   -7.6870 N.2      45   G57      -0.6323
   1432 C4        -12.9020   13.9970   -8.6180 C.ar     45   G57       0.1222
   1433 H5'       -11.3004   12.1692  -14.3055 H        45   G57       0.0679
   1434 H5''      -12.9542   12.5143  -14.8512 H        45   G57       0.0679
   1435 H4'       -12.8252   10.8862  -12.9782 H        45   G57       0.1174
   1436 H3'       -14.2075   13.5093  -12.3761 H        45   G57       0.0615
   1437 H2'       -14.8403   12.5841  -10.2558 H        45   G57       0.0972
   1438 H1'       -12.3377   11.5370   -9.7729 H        45   G57       0.2006
   1439 H8        -11.6698   14.7843  -11.5085 H        45   G57       0.1640
   1440 H1        -13.6296   15.5405   -5.4444 H        45   G57       0.3424
   1441 H21       -14.4071   13.6514   -4.6502 H        45   G57       0.4364
   1442 H22       -14.4507   12.1854   -5.6037 H        45   G57       0.4364
   1443 HO2'      -14.9648   10.4409   -9.9990 H        45   G57       0.4186
   1444 P         -16.6050   12.6910  -13.2190 P.3      46   A58       1.1662
   1445 OP1       -17.4710   11.9460  -14.1680 O.co2    46   A58      -0.7760
   1446 OP2       -16.2640   14.1090  -13.4970 O.co2    46   A58      -0.7760
   1447 O5'       -17.2790   12.6230  -11.7760 O.3      46   A58      -0.4989
   1448 C5'       -17.7770   11.3970  -11.2620 C.3      46   A58       0.0558
   1449 C4'       -17.9940   11.4600   -9.7690 C.3      46   A58       0.1065
   1450 O4'       -16.8010   11.9730   -9.1170 O.3      46   A58      -0.3548
   1451 C3'       -19.0980   12.3860   -9.2830 C.3      46   A58       0.2022
   1452 O3'       -20.3950   11.8270   -9.4030 O.3      46   A58      -0.5246
   1453 C2'       -18.6840   12.6570   -7.8440 C.3      46   A58       0.0670
   1454 O2'       -19.0060   11.5520   -7.0120 O.3      46   A58      -0.6139
   1455 C1'       -17.1640   12.7300   -7.9810 C.3      46   A58       0.0394
   1456 N9        -16.7020   14.1200   -8.1640 N.ar     46   A58      -0.0251
   1457 C8        -16.2370   14.7210   -9.3070 C.ar     46   A58       0.2006
   1458 N7        -15.9080   15.9800   -9.1440 N.ar     46   A58      -0.6073
   1459 C5        -16.1780   16.2270   -7.8050 C.ar     46   A58       0.0515
   1460 C6        -16.0450   17.3760   -7.0040 C.ar     46   A58       0.7009
   1461 N6        -15.5850   18.5450   -7.4550 N.pl3    46   A58      -0.9019
   1462 N1        -16.4050   17.2830   -5.7050 N.ar     46   A58      -0.7615
   1463 C2        -16.8650   16.1110   -5.2490 C.ar     46   A58       0.5875
   1464 N3        -17.0350   14.9640   -5.9030 N.ar     46   A58      -0.6997
   1465 C4        -16.6690   15.0900   -7.1900 C.ar     46   A58       0.3053
   1466 H5'       -18.7268   11.1714  -11.7469 H        46   A58       0.0679
   1467 H5''      -17.0655   10.6020  -11.4852 H        46   A58       0.0679
   1468 H4'       -18.1913   10.4536   -9.3997 H        46   A58       0.1174
   1469 H3'       -19.0571   13.3174   -9.8477 H        46   A58       0.0615
   1470 H2'       -19.1052   13.5888   -7.4665 H        46   A58       0.0972
   1471 H1'       -16.6965   12.3037   -7.0934 H        46   A58       0.2007
   1472 H8        -16.1502   14.2054  -10.2520 H        46   A58       0.1553
   1473 H2        -17.1362   16.0939   -4.2037 H        46   A58       0.0473
   1474 HO2'      -19.3265   11.8711   -6.1652 H        46   A58       0.4186
   1475 H61       -15.3980   18.9263   -6.5386 H        46   A58       0.4115
   1476 H62       -15.4658   18.9176   -8.3861 H        46   A58       0.4115
   1477 P         -21.6720   12.7890   -9.5770 P.3      47   G59       1.1662
   1478 OP1       -22.8530   11.9430   -9.8880 O.co2    47   G59      -0.7760
   1479 OP2       -21.2920   13.8850  -10.5040 O.co2    47   G59      -0.7760
   1480 O5'       -21.8880   13.4190   -8.1290 O.3      47   G59      -0.4989
   1481 C5'       -22.2190   12.5990   -7.0180 C.3      47   G59       0.0558
   1482 C4'       -21.9970   13.3170   -5.7100 C.3      47   G59       0.1065
   1483 O4'       -20.6610   13.8810   -5.6810 O.3      47   G59      -0.3548
   1484 C3'       -22.9070   14.5050   -5.4340 C.3      47   G59       0.2022
   1485 O3'       -24.1720   14.1190   -4.9210 O.3      47   G59      -0.5246
   1486 C2'       -22.0850   15.3360   -4.4560 C.3      47   G59       0.0670
   1487 O2'       -22.1790   14.8040   -3.1420 O.3      47   G59      -0.6139
   1488 C1'       -20.6650   15.1000   -4.9710 C.3      47   G59       0.0191
   1489 N9        -20.2050   16.1760   -5.8710 N.ar     47   G59       0.0492
   1490 C8        -19.9440   16.0740   -7.2170 C.ar     47   G59       0.1374
   1491 N7        -19.5430   17.1970   -7.7480 N.ar     47   G59      -0.5709
   1492 C5        -19.5330   18.0950   -6.6900 C.ar     47   G59       0.1744
   1493 C6        -19.1850   19.4710   -6.6540 C.2      47   G59       0.4770
   1494 O6        -18.8030   20.1940   -7.5820 O.2      47   G59      -0.5597
   1495 N1        -19.3180   20.0000   -5.3760 N.am     47   G59      -0.4787
   1496 C2        -19.7310   19.2990   -4.2710 C.2      47   G59       0.7657
   1497 N2        -19.7960   19.9890   -3.1240 N.pl3    47   G59      -0.9672
   1498 N3        -20.0580   18.0170   -4.2890 N.2      47   G59      -0.6323
   1499 C4        -19.9370   17.4810   -5.5230 C.ar     47   G59       0.1222
   1500 H5'       -21.5957   11.7051   -7.0405 H        47   G59       0.0679
   1501 H5''      -23.2663   12.3056   -7.0906 H        47   G59       0.0679
   1502 H4'       -22.0950   12.6010   -4.8940 H        47   G59       0.1174
   1503 H3'       -23.0497   15.0704   -6.3549 H        47   G59       0.0615
   1504 H2'       -22.3591   16.3905   -4.4882 H        47   G59       0.0972
   1505 H1'       -19.9835   15.0245   -4.1237 H        47   G59       0.2006
   1506 H8        -20.0590   15.1582   -7.7778 H        47   G59       0.1640
   1507 H1        -19.0932   20.9766   -5.2506 H        47   G59       0.3424
   1508 H21       -19.5474   20.9678   -3.1087 H        47   G59       0.4364
   1509 H22       -20.0936   19.5302   -2.2748 H        47   G59       0.4364
   1510 HO2'      -23.0660   14.9437   -2.8024 H        47   G59       0.4186
   1511 P         -25.5010   14.9240   -5.3330 P.3      48   C60       1.1662
   1512 OP1       -26.6590   14.2610   -4.6810 O.co2    48   C60      -0.7760
   1513 OP2       -25.4950   15.1080   -6.8060 O.co2    48   C60      -0.7760
   1514 O5'       -25.3150   16.3540   -4.6550 O.3      48   C60      -0.4989
   1515 C5'       -25.2710   16.4940   -3.2420 C.3      48   C60       0.0558
   1516 C4'       -24.7820   17.8630   -2.8430 C.3      48   C60       0.1065
   1517 O4'       -23.4450   18.0750   -3.3670 O.3      48   C60      -0.3548
   1518 C3'       -25.5850   19.0360   -3.3850 C.3      48   C60       0.2022
   1519 O3'       -26.7430   19.3120   -2.6180 O.3      48   C60      -0.5246
   1520 C2'       -24.5670   20.1680   -3.3850 C.3      48   C60       0.0670
   1521 O2'       -24.4130   20.7040   -2.0790 O.3      48   C60      -0.6139
   1522 C1'       -23.2840   19.4220   -3.7560 C.3      48   C60       0.0066
   1523 N1        -23.0090   19.4610   -5.2120 N.am     48   C60      -0.0484
   1524 C2        -22.4720   20.6220   -5.7800 C.2      48   C60       0.7538
   1525 O2        -22.2440   21.6010   -5.0540 O.2      48   C60      -0.6252
   1526 N3        -22.2170   20.6510   -7.1090 N.2      48   C60      -0.7584
   1527 C4        -22.4740   19.5820   -7.8650 C.2      48   C60       0.8185
   1528 N4        -22.2060   19.6560   -9.1710 N.pl3    48   C60      -0.9530
   1529 C5        -23.0160   18.3860   -7.3150 C.2      48   C60      -0.5215
   1530 C6        -23.2630   18.3710   -5.9990 C.2      48   C60       0.0053
   1531 H5'       -24.5966   15.7425   -2.8315 H        48   C60       0.0679
   1532 H5''      -26.2703   16.3383   -2.8356 H        48   C60       0.0679
   1533 H4'       -24.7513   17.9261   -1.7553 H        48   C60       0.1174
   1534 H3'       -25.8802   18.8218   -4.4122 H        48   C60       0.0615
   1535 H2'       -24.8152   20.9387   -4.1147 H        48   C60       0.0972
   1536 H1'       -22.4428   19.8571   -3.2164 H        48   C60       0.2029
   1537 H5        -23.2198   17.5251   -7.9344 H        48   C60       0.1928
   1538 H6        -23.6719   17.4785   -5.5487 H        48   C60       0.1958
   1539 H41       -22.3886   18.8633   -9.7697 H        48   C60       0.4234
   1540 H42       -21.8207   20.5046   -9.5602 H        48   C60       0.4234
   1541 HO2'      -24.7785   21.5913   -2.0516 H        48   C60       0.4186
   1542 P         -28.0740   19.8630   -3.3310 P.3      49   C61       1.1662
   1543 OP1       -29.1780   19.8290   -2.3370 O.co2    49   C61      -0.7760
   1544 OP2       -28.2300   19.1530   -4.6260 O.co2    49   C61      -0.7760
   1545 O5'       -27.7410   21.3880   -3.6410 O.3      49   C61      -0.4989
   1546 C5'       -27.4310   22.2960   -2.5940 C.3      49   C61       0.0558
   1547 C4'       -26.8910   23.5950   -3.1350 C.3      49   C61       0.1065
   1548 O4'       -25.6320   23.3580   -3.8150 O.3      49   C61      -0.3548
   1549 C3'       -27.7540   24.2870   -4.1780 C.3      49   C61       0.2022
   1550 O3'       -28.7980   25.0510   -3.5990 O.3      49   C61      -0.5246
   1551 C2'       -26.7440   25.1280   -4.9490 C.3      49   C61       0.0670
   1552 O2'       -26.4510   26.3260   -4.2460 O.3      49   C61      -0.6139
   1553 C1'       -25.5040   24.2310   -4.9160 C.3      49   C61       0.0066
   1554 N1        -25.3520   23.4230   -6.1480 N.am     49   C61      -0.0484
   1555 C2        -24.8030   24.0190   -7.2870 C.2      49   C61       0.7538
   1556 O2        -24.4650   25.2110   -7.2400 O.2      49   C61      -0.6252
   1557 N3        -24.6560   23.2850   -8.4140 N.2      49   C61      -0.7584
   1558 C4        -25.0280   22.0050   -8.4310 C.2      49   C61       0.8185
   1559 N4        -24.8630   21.3200   -9.5650 N.pl3    49   C61      -0.9530
   1560 C5        -25.5870   21.3690   -7.2850 C.2      49   C61      -0.5215
   1561 C6        -25.7270   22.1080   -6.1770 C.2      49   C61       0.0053
   1562 H5'       -28.3359   22.4993   -2.0214 H        49   C61       0.0679
   1563 H5''      -26.6865   21.8448   -1.9380 H        49   C61       0.0679
   1564 H4'       -26.7212   24.2807   -2.3049 H        49   C61       0.1174
   1565 H3'       -28.1827   23.5386   -4.8445 H        49   C61       0.0615
   1566 H2'       -27.0747   25.3261   -5.9685 H        49   C61       0.0972
   1567 H1'       -24.6170   24.8501   -4.7815 H        49   C61       0.2029
   1568 H5        -25.8861   20.3315   -7.3090 H        49   C61       0.1928
   1569 H6        -26.1442   21.6568   -5.2889 H        49   C61       0.1958
   1570 H41       -24.4667   21.7735  -10.3758 H        49   C61       0.4234
   1571 H42       -25.1345   20.3483   -9.6121 H        49   C61       0.4234
   1572 HO2'      -25.5930   26.6573   -4.5210 H        49   C61       0.4186
   1573 P         -30.3340   24.7200   -3.9330 P.3      50   U62       1.1662
   1574 OP1       -31.1730   25.3500   -2.8820 O.co2    50   U62      -0.7760
   1575 OP2       -30.4560   23.2630   -4.1930 O.co2    50   U62      -0.7760
   1576 O5'       -30.6050   25.4890   -5.3010 O.3      50   U62      -0.4989
   1577 C5'       -31.9320   25.7000   -5.7680 C.3      50   U62       0.0558
   1578 C4'       -31.9570   26.0220   -7.2410 C.3      50   U62       0.1065
   1579 O4'       -31.3490   24.9240   -7.9750 O.3      50   U62      -0.3548
   1580 C3'       -33.3480   26.2160   -7.8390 C.3      50   U62       0.2022
   1581 O3'       -33.2830   27.1890   -8.8810 O.3      50   U62      -0.5246
   1582 C2'       -33.6510   24.8450   -8.4340 C.3      50   U62       0.0670
   1583 O2'       -34.5950   24.8550   -9.4840 O.3      50   U62      -0.6139
   1584 C1'       -32.2710   24.4060   -8.9150 C.3      50   U62       0.0674
   1585 N1        -32.0970   22.9470   -8.9660 N.am     50   U62       0.0418
   1586 C2        -31.8350   22.3640  -10.1910 C.2      50   U62       0.4687
   1587 O2        -31.7420   23.0050  -11.2240 O.2      50   U62      -0.5477
   1588 N3        -31.6850   20.9990  -10.1600 N.am     50   U62      -0.3549
   1589 C4        -31.7700   20.1780   -9.0530 C.2      50   U62       0.5952
   1590 O4        -31.6110   18.9630   -9.1850 O.2      50   U62      -0.5761
   1591 C5        -32.0440   20.8580   -7.8250 C.2      50   U62      -0.3635
   1592 C6        -32.1950   22.1860   -7.8250 C.2      50   U62      -0.1126
   1593 H5'       -32.5162   24.7965   -5.5935 H        50   U62       0.0679
   1594 H5''      -32.3782   26.5261   -5.2143 H        50   U62       0.0679
   1595 H4'       -31.3720   26.9255   -7.4127 H        50   U62       0.1174
   1596 H3'       -34.0769   26.4924   -7.0772 H        50   U62       0.0615
   1597 H2'       -33.9915   24.1738   -7.6455 H        50   U62       0.0972
   1598 H1'       -32.0720   24.8336   -9.8977 H        50   U62       0.1824
   1599 H3        -31.4916   20.5470  -11.0423 H        50   U62       0.3154
   1600 H5        -32.1284   20.3017   -6.9031 H        50   U62       0.1811
   1601 H6        -32.4029   22.6826   -6.8887 H        50   U62       0.2188
   1602 HO2'      -35.4484   25.1352   -9.1451 H        50   U62       0.4186
   1603 P         -33.8900   28.6590   -8.6510 P.3      51   U63       1.1662
   1604 OP1       -34.0730   28.8550   -7.1900 O.co2    51   U63      -0.7760
   1605 OP2       -35.0490   28.8260   -9.5640 O.co2    51   U63      -0.7760
   1606 O5'       -32.7320   29.6380   -9.1390 O.3      51   U63      -0.4989
   1607 C5'       -31.7990   30.1910   -8.2140 C.3      51   U63       0.0558
   1608 C4'       -30.6100   30.8110   -8.9110 C.3      51   U63       0.1065
   1609 O4'       -29.7290   29.7600   -9.3920 O.3      51   U63      -0.3548
   1610 C3'       -30.9350   31.6840  -10.1230 C.3      51   U63       0.2022
   1611 O3'       -29.9940   32.7540  -10.2050 O.3      51   U63      -0.5246
   1612 C2'       -30.7110   30.7280  -11.2910 C.3      51   U63       0.0670
   1613 O2'       -30.4200   31.3590  -12.5200 O.3      51   U63      -0.6139
   1614 C1'       -29.5310   29.9030  -10.7850 C.3      51   U63       0.0674
   1615 N1        -29.4410   28.5610  -11.3750 N.am     51   U63       0.0418
   1616 C2        -28.5620   28.3780  -12.4230 C.2      51   U63       0.4687
   1617 O2        -27.8770   29.2800  -12.8750 O.2      51   U63      -0.5477
   1618 N3        -28.5220   27.1010  -12.9270 N.am     51   U63      -0.3549
   1619 C4        -29.2540   26.0150  -12.4930 C.2      51   U63       0.5952
   1620 O4        -29.1070   24.9250  -13.0480 O.2      51   U63      -0.5761
   1621 C5        -30.1370   26.2870  -11.4000 C.2      51   U63      -0.3635
   1622 C6        -30.1980   27.5210  -10.8900 C.2      51   U63      -0.1126
   1623 H5'       -32.3008   30.9585   -7.6247 H        51   U63       0.0679
   1624 H5''      -31.4492   29.4027   -7.5474 H        51   U63       0.0679
   1625 H4'       -30.0628   31.4154   -8.1875 H        51   U63       0.1174
   1626 H3'       -31.9611   32.0505  -10.0927 H        51   U63       0.0615
   1627 H2'       -31.5828   30.0844  -11.4084 H        51   U63       0.0972
   1628 H1'       -28.6028   30.4444  -10.9675 H        51   U63       0.1824
   1629 H3        -27.8892   26.9397  -13.6975 H        51   U63       0.3154
   1630 H5        -30.7510   25.4991  -10.9893 H        51   U63       0.1811
   1631 H6        -30.8685   27.7084  -10.0643 H        51   U63       0.2188
   1632 HO2'      -31.1819   31.8675  -12.8075 H        51   U63       0.4186
   1633 P         -30.3150   34.1770   -9.5290 P.3      52   A64       1.1662
   1634 OP1       -31.7090   34.5530   -9.8780 O.co2    52   A64      -0.7760
   1635 OP2       -29.2000   35.1010   -9.8570 O.co2    52   A64      -0.7760
   1636 O5'       -30.2650   33.8780   -7.9650 O.3      52   A64      -0.4989
   1637 C5'       -29.5720   34.7420   -7.0780 C.3      52   A64       0.0558
   1638 C4'       -29.1440   34.0150   -5.8280 C.3      52   A64       0.1065
   1639 O4'       -29.4540   32.6060   -5.9540 O.3      52   A64      -0.3548
   1640 C3'       -27.6550   34.0480   -5.5210 C.3      52   A64       0.2022
   1641 O3'       -27.2730   35.2410   -4.8570 O.3      52   A64      -0.5246
   1642 C2'       -27.4430   32.7880   -4.6840 C.3      52   A64       0.0670
   1643 O2'       -27.7670   33.0300   -3.3230 O.3      52   A64      -0.6139
   1644 C1'       -28.4920   31.8350   -5.2690 C.3      52   A64       0.0394
   1645 N9        -27.9360   30.8210   -6.1920 N.ar     52   A64      -0.0251
   1646 C8        -28.0140   29.4600   -6.0200 C.ar     52   A64       0.2006
   1647 N7        -27.4620   28.7600   -6.9790 N.ar     52   A64      -0.6073
   1648 C5        -26.9900   29.7260   -7.8550 C.ar     52   A64       0.0515
   1649 C6        -26.3040   29.6250   -9.0780 C.ar     52   A64       0.7009
   1650 N6        -25.9650   28.4630   -9.6420 N.pl3    52   A64      -0.9019
   1651 N1        -25.9720   30.7720   -9.7100 N.ar     52   A64      -0.7615
   1652 C2        -26.3130   31.9340   -9.1420 C.ar     52   A64       0.5875
   1653 N3        -26.9590   32.1550   -7.9990 N.ar     52   A64      -0.6997
   1654 C4        -27.2750   30.9990   -7.3900 C.ar     52   A64       0.3053
   1655 H5'       -30.2280   35.5674   -6.8016 H        52   A64       0.0679
   1656 H5''      -28.6901   35.1388   -7.5810 H        52   A64       0.0679
   1657 H4'       -29.6898   34.4227   -4.9771 H        52   A64       0.1174
   1658 H3'       -27.0944   33.9596   -6.4516 H        52   A64       0.0615
   1659 H2'       -26.4327   32.3943   -4.7951 H        52   A64       0.0972
   1660 H1'       -28.9861   31.3185   -4.4461 H        52   A64       0.2007
   1661 H8        -28.4912   29.0052   -5.1645 H        52   A64       0.1553
   1662 H2        -26.0229   32.8192   -9.6885 H        52   A64       0.0473
   1663 H61       -26.3232   27.5534   -9.8960 H        52   A64       0.4115
   1664 H62       -24.9937   28.5115   -9.9148 H        52   A64       0.4115
   1665 HO2'      -27.1190   33.6261   -2.9404 H        52   A64       0.4186
   1666 P         -25.9650   36.0530   -5.3160 P.3      53   A65       1.1662
   1667 OP1       -26.1590   37.4760   -4.9390 O.co2    53   A65      -0.7760
   1668 OP2       -25.6740   35.7070   -6.7310 O.co2    53   A65      -0.7760
   1669 O5'       -24.8070   35.4580   -4.3980 O.3      53   A65      -0.4989
   1670 C5'       -24.9370   35.4560   -2.9800 C.3      53   A65       0.0558
   1671 C4'       -24.0070   34.4630   -2.3230 C.3      53   A65       0.1065
   1672 O4'       -24.2150   33.1440   -2.9050 O.3      53   A65      -0.3548
   1673 C3'       -22.5130   34.7580   -2.4690 C.3      53   A65       0.2022
   1674 O3'       -21.8370   34.3040   -1.2960 O.3      53   A65      -0.5246
   1675 C2'       -22.1180   33.8690   -3.6410 C.3      53   A65       0.0670
   1676 O2'       -20.7450   33.5480   -3.7040 O.3      53   A65      -0.6139
   1677 C1'       -22.9780   32.6410   -3.3720 C.3      53   A65       0.0394
   1678 N9        -23.2100   31.7860   -4.5380 N.ar     53   A65      -0.0251
   1679 C8        -23.0440   32.0830   -5.8680 C.ar     53   A65       0.2006
   1680 N7        -23.3270   31.0820   -6.6670 N.ar     53   A65      -0.6073
   1681 C5        -23.6980   30.0590   -5.8040 C.ar     53   A65       0.0515
   1682 C6        -24.1140   28.7330   -6.0210 C.ar     53   A65       0.7009
   1683 N6        -24.2310   28.1820   -7.2300 N.pl3    53   A65      -0.9019
   1684 N1        -24.4080   27.9800   -4.9390 N.ar     53   A65      -0.7615
   1685 C2        -24.2900   28.5290   -3.7230 C.ar     53   A65       0.5875
   1686 N3        -23.9110   29.7600   -3.3910 N.ar     53   A65      -0.6997
   1687 C4        -23.6270   30.4800   -4.4900 C.ar     53   A65       0.3053
   1688 H5'       -24.7070   36.4533   -2.6051 H        53   A65       0.0679
   1689 H5''      -25.9652   35.2066   -2.7180 H        53   A65       0.0679
   1690 H4'       -24.2476   34.4142   -1.2610 H        53   A65       0.1174
   1691 H3'       -22.3210   35.8118   -2.6708 H        53   A65       0.0615
   1692 H2'       -22.4283   34.3359   -4.5758 H        53   A65       0.0972
   1693 H1'       -22.5146   32.0484   -2.5832 H        53   A65       0.2007
   1694 H8        -22.7124   33.0478   -6.2223 H        53   A65       0.1553
   1695 H2        -24.5375   27.8808   -2.8954 H        53   A65       0.0473
   1696 HO2'      -20.2287   34.2794   -3.3575 H        53   A65       0.4186
   1697 H61       -23.6004   28.5077   -7.9486 H        53   A65       0.4115
   1698 H62       -24.9211   27.4691   -7.4189 H        53   A65       0.4115
   1699 P         -20.5150   35.0530   -0.7740 P.3      54   A66       1.1662
   1700 OP1       -20.9010   35.9050    0.3800 O.co2    54   A66      -0.7760
   1701 OP2       -19.8370   35.6640   -1.9460 O.co2    54   A66      -0.7760
   1702 O5'       -19.5930   33.8750   -0.2210 O.3      54   A66      -0.4989
   1703 C5'       -19.0810   32.8690   -1.0840 C.3      54   A66       0.0558
   1704 C4'       -19.5350   31.4960   -0.6550 C.3      54   A66       0.1065
   1705 O4'       -20.7390   31.1260   -1.3810 O.3      54   A66      -0.3548
   1706 C3'       -18.5790   30.3470   -0.9360 C.3      54   A66       0.2022
   1707 O3'       -17.5210   30.2480    0.0030 O.3      54   A66      -0.5246
   1708 C2'       -19.5140   29.1470   -0.9330 C.3      54   A66       0.0670
   1709 O2'       -19.8760   28.7960    0.3940 O.3      54   A66      -0.6139
   1710 C1'       -20.7400   29.7340   -1.6280 C.3      54   A66       0.0394
   1711 N9        -20.6800   29.5120   -3.0840 N.ar     54   A66      -0.0251
   1712 C8        -20.3870   30.4190   -4.0720 C.ar     54   A66       0.2006
   1713 N7        -20.4000   29.9070   -5.2800 N.ar     54   A66      -0.6073
   1714 C5        -20.7110   28.5710   -5.0720 C.ar     54   A66       0.0515
   1715 C6        -20.8750   27.4860   -5.9530 C.ar     54   A66       0.7009
   1716 N6        -20.7420   27.5810   -7.2780 N.pl3    54   A66      -0.9019
   1717 N1        -21.1850   26.2840   -5.4200 N.ar     54   A66      -0.7615
   1718 C2        -21.3190   26.1860   -4.0910 C.ar     54   A66       0.5875
   1719 N3        -21.1900   27.1310   -3.1620 N.ar     54   A66      -0.6997
   1720 C4        -20.8820   28.3130   -3.7240 C.ar     54   A66       0.3053
   1721 H5'       -17.9918   32.9050   -1.0642 H        54   A66       0.0679
   1722 H5''      -19.4269   33.0591   -2.1000 H        54   A66       0.0679
   1723 H4'       -19.7585   31.5158    0.4116 H        54   A66       0.1174
   1724 H3'       -18.1590   30.4690   -1.9344 H        54   A66       0.0615
   1725 H2'       -19.0977   28.3019   -1.4812 H        54   A66       0.0972
   1726 H1'       -21.6467   29.2859   -1.2216 H        54   A66       0.2007
   1727 H8        -20.1663   31.4574   -3.8734 H        54   A66       0.1553
   1728 H2        -21.5665   25.2021   -3.7208 H        54   A66       0.0473
   1729 H61       -20.3551   28.4566   -7.6001 H        54   A66       0.4115
   1730 H62       -20.0610   26.8549   -7.4486 H        54   A66       0.4115
   1731 HO2'      -19.1150   28.4245    0.8462 H        54   A66       0.4186
   1732 P         -15.9960   30.1340   -0.5000 P.3      55   C67       1.1662
   1733 OP1       -15.1300   30.7700    0.5240 O.co2    55   C67      -0.7760
   1734 OP2       -15.9370   30.6050   -1.9070 O.co2    55   C67      -0.7760
   1735 O5'       -15.6910   28.5690   -0.4880 O.3      55   C67      -0.4989
   1736 C5'       -16.0510   27.7440   -1.5860 C.3      55   C67       0.0558
   1737 C4'       -17.0510   26.6910   -1.1810 C.3      55   C67       0.1065
   1738 O4'       -17.9430   26.4060   -2.2870 O.3      55   C67      -0.3548
   1739 C3'       -16.4920   25.3310   -0.7940 C.3      55   C67       0.2022
   1740 O3'       -16.0120   25.2970    0.5390 O.3      55   C67      -0.5246
   1741 C2'       -17.6770   24.4030   -1.0330 C.3      55   C67       0.0670
   1742 O2'       -18.5870   24.4640    0.0560 O.3      55   C67      -0.6139
   1743 C1'       -18.3380   25.0530   -2.2520 C.3      55   C67       0.0066
   1744 N1        -17.9440   24.4080   -3.5250 N.am     55   C67      -0.0484
   1745 C2        -18.6090   23.2430   -3.9150 C.2      55   C67       0.7538
   1746 O2        -19.4970   22.7870   -3.1800 O.2      55   C67      -0.6252
   1747 N3        -18.2670   22.6420   -5.0780 N.2      55   C67      -0.7584
   1748 C4        -17.3070   23.1650   -5.8410 C.2      55   C67       0.8185
   1749 N4        -17.0050   22.5360   -6.9790 N.pl3    55   C67      -0.9530
   1750 C5        -16.6140   24.3540   -5.4710 C.2      55   C67      -0.5215
   1751 C6        -16.9630   24.9390   -4.3170 C.2      55   C67       0.0053
   1752 H5'       -16.4881   28.3655   -2.3675 H        55   C67       0.0679
   1753 H5''      -15.1569   27.2568   -1.9751 H        55   C67       0.0679
   1754 H4'       -17.6411   27.0740   -0.3484 H        55   C67       0.1174
   1755 H3'       -15.6834   25.0663   -1.4753 H        55   C67       0.0615
   1756 H2'       -17.3582   23.3814   -1.2398 H        55   C67       0.0972
   1757 H1'       -19.4212   24.9989   -2.1434 H        55   C67       0.2029
   1758 H5        -15.8371   24.7678   -6.0968 H        55   C67       0.1928
   1759 H6        -16.4618   25.8441   -4.0072 H        55   C67       0.1958
   1760 H41       -17.4987   21.6934   -7.2367 H        55   C67       0.4234
   1761 H42       -16.2828   22.9027   -7.5824 H        55   C67       0.4234
   1762 HO2'      -19.3914   23.9923   -0.1723 H        55   C67       0.4186
   1763 P         -14.8400   24.2800    0.9580 P.3      56   U68       1.1662
   1764 OP1       -14.4280   24.6100    2.3460 O.co2    56   U68      -0.7760
   1765 OP2       -13.8270   24.2690   -0.1280 O.co2    56   U68      -0.7760
   1766 O5'       -15.5500   22.8540    0.9800 O.3      56   U68      -0.4989
   1767 C5'       -16.5150   22.5320    1.9710 C.3      56   U68       0.0558
   1768 C4'       -17.0880   21.1530    1.7570 C.3      56   U68       0.1065
   1769 O4'       -17.7990   21.1090    0.4920 O.3      56   U68      -0.3548
   1770 C3'       -16.0780   20.0200    1.6510 C.3      56   U68       0.2022
   1771 O3'       -15.6190   19.5620    2.9110 O.3      56   U68      -0.5246
   1772 C2'       -16.8440   18.9660    0.8640 C.3      56   U68       0.0670
   1773 O2'       -17.7500   18.2700    1.7070 O.3      56   U68      -0.6139
   1774 C1'       -17.6510   19.8350   -0.1000 C.3      56   U68       0.0674
   1775 N1        -16.9790   19.9920   -1.4110 N.am     56   U68       0.0418
   1776 C2        -17.0090   18.9260   -2.2930 C.2      56   U68       0.4687
   1777 O2        -17.5550   17.8660   -2.0420 O.2      56   U68      -0.5477
   1778 N3        -16.3720   19.1450   -3.4890 N.am     56   U68      -0.3549
   1779 C4        -15.7230   20.2940   -3.8880 C.2      56   U68       0.5952
   1780 O4        -15.1960   20.3370   -5.0000 O.2      56   U68      -0.5761
   1781 C5        -15.7370   21.3510   -2.9230 C.2      56   U68      -0.3635
   1782 C6        -16.3490   21.1670   -1.7500 C.2      56   U68      -0.1126
   1783 H5'       -17.3234   23.2619    1.9284 H        56   U68       0.0679
   1784 H5''      -16.0459   22.5754    2.9539 H        56   U68       0.0679
   1785 H4'       -17.7864   20.9306    2.5637 H        56   U68       0.1174
   1786 H3'       -15.2252   20.3561    1.0611 H        56   U68       0.0615
   1787 H2'       -16.1751   18.2862    0.3363 H        56   U68       0.0972
   1788 H1'       -18.6348   19.3901   -0.2497 H        56   U68       0.1824
   1789 H3        -16.3796   18.3806   -4.1491 H        56   U68       0.3154
   1790 H5        -15.2553   22.2924   -3.1421 H        56   U68       0.1811
   1791 H6        -16.3492   21.9770   -1.0357 H        56   U68       0.2188
   1792 HO2'      -17.7629   17.3409    1.4658 H        56   U68       0.4186
   1793 P         -14.1700   18.8770    3.0430 P.3      57   C69       1.1662
   1794 OP1       -13.8820   18.6940    4.4880 O.co2    57   C69      -0.7760
   1795 OP2       -13.2210   19.6480    2.1990 O.co2    57   C69      -0.7760
   1796 O5'       -14.3560   17.4370    2.3840 O.3      57   C69      -0.4989
   1797 C5'       -15.2490   16.4860    2.9450 C.3      57   C69       0.0558
   1798 C4'       -15.5430   15.3580    1.9850 C.3      57   C69       0.1065
   1799 O4'       -16.0700   15.8890    0.7420 O.3      57   C69      -0.3548
   1800 C3'       -14.3530   14.5170    1.5510 C.3      57   C69       0.2022
   1801 O3'       -13.9990   13.5330    2.5080 O.3      57   C69      -0.5246
   1802 C2'       -14.8250   13.9310    0.2260 C.3      57   C69       0.0670
   1803 O2'       -15.6870   12.8250    0.4450 O.3      57   C69      -0.6139
   1804 C1'       -15.6550   15.0830   -0.3410 C.3      57   C69       0.0066
   1805 N1        -14.8890   15.9180   -1.2950 N.am     57   C69      -0.0484
   1806 C2        -14.7150   15.4650   -2.6080 C.2      57   C69       0.7538
   1807 O2        -15.1990   14.3720   -2.9420 O.2      57   C69      -0.6252
   1808 N3        -14.0200   16.2260   -3.4850 N.2      57   C69      -0.7584
   1809 C4        -13.5130   17.3970   -3.0960 C.2      57   C69       0.8185
   1810 N4        -12.8360   18.1140   -3.9950 N.pl3    57   C69      -0.9530
   1811 C5        -13.6750   17.8850   -1.7680 C.2      57   C69      -0.5215
   1812 C6        -14.3650   17.1210   -0.9110 C.2      57   C69       0.0053
   1813 H5'       -16.1837   16.9864    3.1980 H        57   C69       0.0679
   1814 H5''      -14.8076   16.0752    3.8530 H        57   C69       0.0679
   1815 H4'       -16.2911   14.7031    2.4318 H        57   C69       0.1174
   1816 H3'       -13.4979   15.1688    1.3719 H        57   C69       0.0615
   1817 H2'       -13.9897   13.6728   -0.4249 H        57   C69       0.0972
   1818 H1'       -16.5333   14.6784   -0.8439 H        57   C69       0.2029
   1819 H5        -13.2580   18.8337   -1.4638 H        57   C69       0.1928
   1820 H6        -14.5103   17.4620    0.1034 H        57   C69       0.1958
   1821 H41       -12.7216   17.7658   -4.9361 H        57   C69       0.4234
   1822 H42       -12.4380   19.0049   -3.7343 H        57   C69       0.4234
   1823 HO2'      -15.2730   12.0253    0.1123 H        57   C69       0.4186
   1824 P         -12.4960   12.9670    2.5750 P.3      58   U70       1.1662
   1825 OP1       -12.3760   12.1460    3.8070 O.co2    58   U70      -0.7760
   1826 OP2       -11.5640   14.1020    2.3550 O.co2    58   U70      -0.7760
   1827 O5'       -12.3910   11.9920    1.3180 O.3      58   U70      -0.4989
   1828 C5'       -13.2140   10.8390    1.2150 C.3      58   U70       0.0558
   1829 C4'       -13.0700   10.1770   -0.1320 C.3      58   U70       0.1065
   1830 O4'       -13.5150   11.0810   -1.1750 O.3      58   U70      -0.3548
   1831 C3'       -11.6530    9.8080   -0.5410 C.3      58   U70       0.2022
   1832 O3'       -11.2250    8.5850    0.0300 O.3      58   U70      -0.5246
   1833 C2'       -11.7390    9.7720   -2.0620 C.3      58   U70       0.0670
   1834 O2'       -12.3080    8.5490   -2.5050 O.3      58   U70      -0.6139
   1835 C1'       -12.7370   10.8980   -2.3390 C.3      58   U70       0.0674
   1836 N1        -12.0750   12.1800   -2.6740 N.am     58   U70       0.0418
   1837 C2        -11.5540   12.3380   -3.9470 C.2      58   U70       0.4687
   1838 O2        -11.6020   11.4680   -4.8010 O.2      58   U70      -0.5477
   1839 N3        -10.9660   13.5560   -4.1850 N.am     58   U70      -0.3549
   1840 C4        -10.8520   14.6110   -3.3030 C.2      58   U70       0.5952
   1841 O4        -10.2930   15.6480   -3.6650 O.2      58   U70      -0.5761
   1842 C5        -11.4180   14.3720   -2.0120 C.2      58   U70      -0.3635
   1843 C6        -11.9970   13.1960   -1.7520 C.2      58   U70      -0.1126
   1844 H5'       -14.2542   11.1325    1.3561 H        58   U70       0.0679
   1845 H5''      -12.9342   10.1294    1.9937 H        58   U70       0.0679
   1846 H4'       -13.6892    9.2802   -0.1533 H        58   U70       0.1174
   1847 H3'       -10.9726   10.6038   -0.2381 H        58   U70       0.0615
   1848 H2'       -10.7722    9.9625   -2.5280 H        58   U70       0.0972
   1849 H1'       -13.3881   10.6051   -3.1627 H        58   U70       0.1824
   1850 H3        -10.5745   13.6946   -5.1056 H        58   U70       0.3154
   1851 H5        -11.3778   15.1375   -1.2512 H        58   U70       0.1811
   1852 H6        -12.4231   13.0368   -0.7725 H        58   U70       0.2188
   1853 HO2'      -11.6358    8.0237   -2.9452 H        58   U70       0.4186
   1854 P          -9.6910    8.3850    0.4610 P.3      59   U71       1.1662
   1855 OP1        -9.5920    7.0980    1.1950 O.co2    59   U71      -0.7760
   1856 OP2        -9.2180    9.6410    1.0990 O.co2    59   U71      -0.7760
   1857 O5'        -8.9240    8.2180   -0.9240 O.3      59   U71      -0.4989
   1858 C5'        -9.2090    7.1260   -1.7840 C.3      59   U71       0.0558
   1859 C4'        -8.5840    7.3190   -3.1410 C.3      59   U71       0.1065
   1860 O4'        -9.1970    8.4530   -3.8070 O.3      59   U71      -0.3548
   1861 C3'        -7.1010    7.6470   -3.1470 C.3      59   U71       0.2022
   1862 O3'        -6.2830    6.5010   -2.9860 O.3      59   U71      -0.5246
   1863 C2'        -6.9220    8.3490   -4.4870 C.3      59   U71       0.0670
   1864 O2'        -6.8640    7.4030   -5.5450 O.3      59   U71      -0.6139
   1865 C1'        -8.2390    9.1190   -4.6030 C.3      59   U71       0.0674
   1866 N1         -8.1160   10.5190   -4.1340 N.am     59   U71       0.0418
   1867 C2         -7.6530   11.4540   -5.0400 C.2      59   U71       0.4687
   1868 O2         -7.3490   11.1690   -6.1840 O.2      59   U71      -0.5477
   1869 N3         -7.5600   12.7370   -4.5600 N.am     59   U71      -0.3549
   1870 C4         -7.8750   13.1710   -3.2890 C.2      59   U71       0.5952
   1871 O4         -7.7370   14.3620   -3.0070 O.2      59   U71      -0.5761
   1872 C5         -8.3470   12.1460   -2.4090 C.2      59   U71      -0.3635
   1873 C6         -8.4490   10.8880   -2.8510 C.2      59   U71      -0.1126
   1874 H5'       -10.2893    7.0385   -1.9002 H        59   U71       0.0679
   1875 H5''       -8.8217    6.2095   -1.3388 H        59   U71       0.0679
   1876 H4'        -8.7515    6.4234   -3.7392 H        59   U71       0.1174
   1877 H3'        -6.8886    8.3525   -2.3437 H        59   U71       0.0615
   1878 H2'        -6.0588    9.0146   -4.4869 H        59   U71       0.0972
   1879 H1'        -8.5684    9.1148   -5.6420 H        59   U71       0.1824
   1880 H3         -7.2254   13.4375   -5.2061 H        59   U71       0.3154
   1881 H5         -8.6197   12.3874   -1.3922 H        59   U71       0.1811
   1882 H6         -8.8082   10.1291   -2.1717 H        59   U71       0.2188
   1883 HO2'       -5.9874    7.4131   -5.9362 H        59   U71       0.4186
   1884 P          -4.8690    6.6160   -2.2310 P.3      60   G72       1.1662
   1885 OP1        -4.3770    5.2430   -1.9540 O.co2    60   G72      -0.7760
   1886 OP2        -5.0130    7.5850   -1.1140 O.co2    60   G72      -0.7760
   1887 O5'        -3.9080    7.2550   -3.3250 O.3      60   G72      -0.4989
   1888 C5'        -3.7350    6.6290   -4.5870 C.3      60   G72       0.0558
   1889 C4'        -2.9930    7.5240   -5.5440 C.3      60   G72       0.1065
   1890 O4'        -3.8280    8.6490   -5.9170 O.3      60   G72      -0.3548
   1891 C3'        -1.7300    8.1670   -4.9990 C.3      60   G72       0.2022
   1892 O3'        -0.6190    7.2880   -5.0200 O.3      60   G72      -0.5246
   1893 C2'        -1.5700    9.3910   -5.8920 C.3      60   G72       0.0670
   1894 O2'        -1.0130    9.0280   -7.1470 O.3      60   G72      -0.6139
   1895 C1'        -3.0290    9.7980   -6.1110 C.3      60   G72       0.0191
   1896 N9         -3.4660   10.8410   -5.1640 N.ar     60   G72       0.0492
   1897 C8         -4.0750   10.6590   -3.9450 C.ar     60   G72       0.1374
   1898 N7         -4.3420   11.7810   -3.3330 N.ar     60   G72      -0.5709
   1899 C5         -3.8830   12.7640   -4.1990 C.ar     60   G72       0.1744
   1900 C6         -3.8970   14.1790   -4.0780 C.2      60   G72       0.4770
   1901 O6         -4.3340   14.8710   -3.1500 O.2      60   G72      -0.5597
   1902 N1         -3.3280   14.7920   -5.1890 N.am     60   G72      -0.4787
   1903 C2         -2.8100   14.1330   -6.2760 C.2      60   G72       0.7657
   1904 N2         -2.3030   14.9030   -7.2500 N.pl3    60   G72      -0.9672
   1905 N3         -2.7920   12.8170   -6.4010 N.2      60   G72      -0.6323
   1906 C4         -3.3410   12.2000   -5.3340 C.ar     60   G72       0.1222
   1907 H5'        -4.7144    6.3965   -5.0052 H        60   G72       0.0679
   1908 H5''       -3.1739    5.7041   -4.4538 H        60   G72       0.0679
   1909 H4'        -2.7432    6.9555   -6.4398 H        60   G72       0.1174
   1910 H3'        -1.9085    8.4930   -3.9743 H        60   G72       0.0615
   1911 H2'        -0.9961   10.1789   -5.4042 H        60   G72       0.0972
   1912 H1'        -3.1553   10.1592   -7.1316 H        60   G72       0.2006
   1913 H8         -4.3087    9.6873   -3.5355 H        60   G72       0.1640
   1914 H1         -3.2931   15.8014   -5.1967 H        60   G72       0.3424
   1915 H21        -2.3163   15.9086   -7.1573 H        60   G72       0.4364
   1916 H22        -1.9078   14.4772   -8.0762 H        60   G72       0.4364
   1917 HO2'       -0.0556    9.0799   -7.0997 H        60   G72       0.4186
   1918 P           0.6510    7.5630   -4.0750 P.3      61   A73       1.1662
   1919 OP1         1.3610    6.2750   -3.8660 O.co2    61   A73      -0.7760
   1920 OP2         0.2020    8.3490   -2.8980 O.co2    61   A73      -0.7760
   1921 O5'         1.5790    8.4990   -4.9640 O.3      61   A73      -0.4989
   1922 C5'         2.7970    9.0160   -4.4540 C.3      61   A73       0.0558
   1923 C4'         3.1280   10.3410   -5.0870 C.3      61   A73       0.1065
   1924 O4'         2.1260   11.3250   -4.7190 O.3      61   A73      -0.3548
   1925 C3'         4.4400   10.9730   -4.6590 C.3      61   A73       0.2022
   1926 O3'         5.5540   10.4290   -5.3430 O.3      61   A73      -0.5246
   1927 C2'         4.2050   12.4500   -4.9490 C.3      61   A73       0.0670
   1928 O2'         4.3550   12.7170   -6.3360 O.3      61   A73      -0.6139
   1929 C1'         2.7270   12.5960   -4.5890 C.3      61   A73       0.0394
   1930 N9          2.5280   13.0680   -3.2050 N.ar     61   A73      -0.0251
   1931 C8          2.0070   12.3670   -2.1450 C.ar     61   A73       0.2006
   1932 N7          1.9460   13.0570   -1.0320 N.ar     61   A73      -0.6073
   1933 C5          2.4590   14.2980   -1.3810 C.ar     61   A73       0.0515
   1934 C6          2.6640   15.4780   -0.6440 C.ar     61   A73       0.7009
   1935 N6          2.3640   15.6060    0.6510 N.pl3    61   A73      -0.9019
   1936 N1          3.1940   16.5390   -1.2920 N.ar     61   A73      -0.7615
   1937 C2          3.4950   16.4130   -2.5920 C.ar     61   A73       0.5875
   1938 N3          3.3490   15.3570   -3.3900 N.ar     61   A73      -0.6997
   1939 C4          2.8190   14.3210   -2.7170 C.ar     61   A73       0.3053
   1940 H5'         3.6000    8.3098   -4.6652 H        61   A73       0.0679
   1941 H5''        2.7079    9.1459   -3.3754 H        61   A73       0.0679
   1942 H4'         3.1283   10.2249   -6.1708 H        61   A73       0.1174
   1943 H3'         4.5734   10.8337   -3.5862 H        61   A73       0.0615
   1944 H2'         4.8396   13.0923   -4.3384 H        61   A73       0.0972
   1945 H1'         2.2532   13.2927   -5.2806 H        61   A73       0.2007
   1946 H8          1.6777   11.3413   -2.2214 H        61   A73       0.1553
   1947 H2          3.9153   17.2920   -3.0581 H        61   A73       0.0473
   1948 H61         1.9664   14.8273    1.1566 H        61   A73       0.4115
   1949 H62         2.5348   16.4815    1.1248 H        61   A73       0.4115
   1950 HO2'        5.2791   12.6299   -6.5810 H        61   A73       0.4186
   1951 P           6.9360   10.1770   -4.5640 P.3      62   U74       1.1662
   1952 OP1         7.8320    9.4010   -5.4590 O.co2    62   U74      -0.7760
   1953 OP2         6.6170    9.6600   -3.2080 O.co2    62   U74      -0.7760
   1954 O5'         7.5550   11.6360   -4.4110 O.3      62   U74      -0.4989
   1955 C5'         7.8110   12.4380   -5.5540 C.3      62   U74       0.0558
   1956 C4'         8.0000   13.8840   -5.1770 C.3      62   U74       0.1065
   1957 O4'         6.7870   14.3910   -4.5630 O.3      62   U74      -0.3548
   1958 C3'         9.0790   14.1580   -4.1440 C.3      62   U74       0.2022
   1959 O3'        10.3800   14.2000   -4.7030 O.3      62   U74      -0.5246
   1960 C2'         8.6300   15.4800   -3.5360 C.3      62   U74       0.0670
   1961 O2'         8.9670   16.5650   -4.3880 O.3      62   U74      -0.6139
   1962 C1'         7.1110   15.3150   -3.5460 C.3      62   U74       0.0674
   1963 N1          6.5930   14.8010   -2.2570 N.am     62   U74       0.0418
   1964 C2          6.4760   15.6970   -1.2120 C.2      62   U74       0.4687
   1965 O2          6.7830   16.8730   -1.3110 O.2      62   U74      -0.5477
   1966 N3          5.9850   15.1650   -0.0450 N.am     62   U74      -0.3549
   1967 C4          5.6070   13.8570    0.1790 C.2      62   U74       0.5952
   1968 O4          5.1830   13.5320    1.2900 O.2      62   U74      -0.5761
   1969 C5          5.7570   12.9920   -0.9510 C.2      62   U74      -0.3635
   1970 C6          6.2310   13.4820   -2.1010 C.2      62   U74      -0.1126
   1971 H5'         8.7153   12.0781   -6.0448 H        62   U74       0.0679
   1972 H5''        6.9718   12.3550   -6.2446 H        62   U74       0.0679
   1973 H4'         8.2126   14.4619   -6.0764 H        62   U74       0.1174
   1974 H3'         9.0446   13.3832   -3.3781 H        62   U74       0.0615
   1975 H2'         9.0187   15.6178   -2.5270 H        62   U74       0.0972
   1976 H1'         6.6441   16.2748   -3.7668 H        62   U74       0.1824
   1977 H3          5.8902   15.8005    0.7343 H        62   U74       0.3154
   1978 H5          5.4887   11.9486   -0.8752 H        62   U74       0.1811
   1979 H6          6.3343   12.8145   -2.9437 H        62   U74       0.2188
   1980 HO2'        9.9196   16.6837   -4.3941 H        62   U74       0.4186
   1981 P          11.6280   13.6010   -3.8880 P.3      63   U75       1.1662
   1982 OP1        12.8190   13.6320   -4.7760 O.co2    63   U75      -0.7760
   1983 OP2        11.2040   12.3180   -3.2720 O.co2    63   U75      -0.7760
   1984 O5'        11.8580   14.6550   -2.7160 O.3      63   U75      -0.4989
   1985 C5'        12.1690   16.0100   -3.0050 C.3      63   U75       0.0558
   1986 C4'        12.0940   16.8660   -1.7670 C.3      63   U75       0.1065
   1987 O4'        10.7210   16.9460   -1.3040 O.3      63   U75      -0.3548
   1988 C3'        12.8590   16.3520   -0.5590 C.3      63   U75       0.2022
   1989 O3'        14.2460   16.6350   -0.6180 O.3      63   U75      -0.5246
   1990 C2'        12.1410   17.0300    0.6000 C.3      63   U75       0.0670
   1991 O2'        12.5550   18.3820    0.7270 O.3      63   U75      -0.6139
   1992 C1'        10.6930   17.0110    0.1070 C.3      63   U75       0.0674
   1993 N1          9.9450   15.8420    0.6250 N.am     63   U75       0.0418
   1994 C2          9.4620   15.9210    1.9160 C.2      63   U75       0.4687
   1995 O2          9.6270   16.9010    2.6230 O.2      63   U75      -0.5477
   1996 N3          8.7790   14.8130    2.3510 N.am     63   U75      -0.3549
   1997 C4          8.5370   13.6560    1.6400 C.2      63   U75       0.5952
   1998 O4          7.9040   12.7420    2.1700 O.2      63   U75      -0.5761
   1999 C5          9.0680   13.6510    0.3110 C.2      63   U75      -0.3635
   2000 C6          9.7380   14.7180   -0.1390 C.2      63   U75      -0.1126
   2001 H5'        11.4593   16.3877   -3.7410 H        63   U75       0.0679
   2002 H5''       13.1762   16.0656   -3.4179 H        63   U75       0.0679
   2003 H4'        12.4455   17.8692   -2.0082 H        63   U75       0.1174
   2004 H3'        12.7191   15.2738   -0.4820 H        63   U75       0.0615
   2005 H2'        12.2611   16.4781    1.5322 H        63   U75       0.0972
   2006 H1'        10.1924   17.9281    0.4176 H        63   U75       0.1824
   2007 H3          8.4146   14.8485    3.2923 H        63   U75       0.3154
   2008 H5          8.9285   12.7899   -0.3257 H        63   U75       0.1811
   2009 H6         10.1326   14.6954   -1.1441 H        63   U75       0.2188
   2010 HO2'       12.3706   18.6914    1.6169 H        63   U75       0.4186
   2011 P          15.3040   15.5850   -0.0180 P.3      64   A76       1.1662
   2012 OP1        16.6540   15.9590   -0.5130 O.co2    64   A76      -0.7760
   2013 OP2        14.7850   14.2160   -0.2650 O.co2    64   A76      -0.7760
   2014 O5'        15.2550   15.8480    1.5520 O.3      64   A76      -0.4989
   2015 C5'        15.5670   17.1260    2.0860 C.3      64   A76       0.0558
   2016 C4'        15.3090   17.1810    3.5710 C.3      64   A76       0.1065
   2017 O4'        13.8800   17.2030    3.8250 O.3      64   A76      -0.3548
   2018 C3'        15.8060   15.9930    4.3770 C.3      64   A76       0.2022
   2019 O3'        17.1920   16.0590    4.6630 O.3      64   A76      -0.5246
   2020 C2'        14.9200   16.0380    5.6150 C.3      64   A76       0.0670
   2021 O2'        15.3720   17.0350    6.5190 O.3      64   A76      -0.6139
   2022 C1'        13.5910   16.4980    5.0140 C.3      64   A76       0.0394
   2023 N9         12.7110   15.3610    4.6830 N.ar     64   A76      -0.0251
   2024 C8         12.5790   14.7210    3.4750 C.ar     64   A76       0.2006
   2025 N7         11.7140   13.7370    3.4890 N.ar     64   A76      -0.6073
   2026 C5         11.2440   13.7260    4.7960 C.ar     64   A76       0.0515
   2027 C6         10.3030   12.9170    5.4570 C.ar     64   A76       0.7009
   2028 N6          9.6400   11.9200    4.8680 N.pl3    64   A76      -0.9019
   2029 N1         10.0650   13.1700    6.7620 N.ar     64   A76      -0.7615
   2030 C2         10.7310   14.1700    7.3540 C.ar     64   A76       0.5875
   2031 N3         11.6360   14.9990    6.8400 N.ar     64   A76      -0.6997
   2032 C4         11.8510   14.7200    5.5420 C.ar     64   A76       0.3053
   2033 H5'        16.6197   17.3399    1.9011 H        64   A76       0.0679
   2034 H5''       14.9564   17.8798    1.5890 H        64   A76       0.0679
   2035 H4'        15.7533   18.0914    3.9732 H        64   A76       0.1174
   2036 H3'        15.5996   15.0764    3.8245 H        64   A76       0.0615
   2037 H2'        14.8359   15.0618    6.0926 H        64   A76       0.0972
   2038 H1'        13.0832   17.1596    5.7158 H        64   A76       0.2007
   2039 H8         13.1370   15.0030    2.5944 H        64   A76       0.1553
   2040 H2         10.5005   14.3257    8.3976 H        64   A76       0.0473
   2041 HO2'       14.6285   17.5732    6.8005 H        64   A76       0.4186
   2042 H61         8.7782   11.5601    5.2527 H        64   A76       0.4115
   2043 H62        10.0081   11.5162    4.0186 H        64   A76       0.4115
   2044 P          18.0820   14.7220    4.6480 P.3      65   U77       1.1662
   2045 OP1        19.5120   15.1220    4.6440 O.co2    65   U77      -0.7760
   2046 OP2        17.5650   13.8370    3.5720 O.co2    65   U77      -0.7760
   2047 O5'        17.7640   14.0340    6.0490 O.3      65   U77      -0.4989
   2048 C5'        18.0550   14.7020    7.2670 C.3      65   U77       0.0558
   2049 C4'        17.4110   14.0170    8.4460 C.3      65   U77       0.1065
   2050 O4'        15.9660   14.1340    8.3580 O.3      65   U77      -0.3548
   2051 C3'        17.6490   12.5210    8.5640 C.3      65   U77       0.2022
   2052 O3'        18.9120   12.1990    9.1180 O.3      65   U77      -0.5246
   2053 C2'        16.4720   12.0680    9.4160 C.3      65   U77       0.0670
   2054 O2'        16.6950   12.3740   10.7850 O.3      65   U77      -0.6139
   2055 C1'        15.3570   12.9760    8.8950 C.3      65   U77       0.0674
   2056 N1         14.5610   12.3200    7.8330 N.am     65   U77       0.0418
   2057 C2         13.5680   11.4450    8.2280 C.2      65   U77       0.4687
   2058 O2         13.3250   11.2030    9.3980 O.2      65   U77      -0.5477
   2059 N3         12.8640   10.8640    7.2020 N.am     65   U77      -0.3549
   2060 C4         13.0510   11.0620    5.8490 C.2      65   U77       0.5952
   2061 O4         12.3350   10.4640    5.0440 O.2      65   U77      -0.5761
   2062 C5         14.0980   11.9800    5.5200 C.2      65   U77      -0.3635
   2063 C6         14.7990   12.5610    6.4990 C.2      65   U77      -0.1126
   2064 H5'        17.6832   15.7248    7.2064 H        65   U77       0.0679
   2065 H5''       19.1350   14.7231    7.4130 H        65   U77       0.0679
   2066 H4'        17.7486   14.5010    9.3624 H        65   U77       0.1174
   2067 H3'        17.5680   12.0686    7.5756 H        65   U77       0.0615
   2068 H2'        16.2423   11.0131    9.2661 H        65   U77       0.0972
   2069 H1'        14.7020   13.2580    9.7193 H        65   U77       0.1824
   2070 H3         12.1300   10.2224    7.4661 H        65   U77       0.3154
   2071 H5         14.3207   12.2023    4.4869 H        65   U77       0.1811
   2072 H6         15.5867   13.2497    6.2313 H        65   U77       0.2188
   2073 HO2'       16.4350   11.6256   11.3271 H        65   U77       0.4186
   2074 P          19.6730   10.8590    8.6600 P.3      66   C78       1.1662
   2075 OP1        21.0440   10.8930    9.2300 O.co2    66   C78      -0.7760
   2076 OP2        19.4910   10.7010    7.1940 O.co2    66   C78      -0.7760
   2077 O5'        18.8640    9.6920    9.3830 O.3      66   C78      -0.4989
   2078 C5'        18.7930    9.6280   10.7990 C.3      66   C78       0.0558
   2079 C4'        17.7240    8.6710   11.2640 C.3      66   C78       0.1065
   2080 O4'        16.4230    9.1110   10.7950 O.3      66   C78      -0.3548
   2081 C3'        17.8290    7.2440   10.7530 C.3      66   C78       0.2022
   2082 O3'        18.7850    6.4680   11.4530 O.3      66   C78      -0.5246
   2083 C2'        16.4010    6.7360   10.9030 C.3      66   C78       0.0670
   2084 O2'        16.1270    6.4000   12.2550 O.3      66   C78      -0.6139
   2085 C1'        15.5990    7.9890   10.5470 C.3      66   C78       0.0066
   2086 N1         15.1850    7.9980    9.1250 N.am     66   C78      -0.0484
   2087 C2         14.0500    7.2660    8.7630 C.2      66   C78       0.7538
   2088 O2         13.4330    6.6420    9.6390 O.2      66   C78      -0.6252
   2089 N3         13.6520    7.2560    7.4700 N.2      66   C78      -0.7584
   2090 C4         14.3400    7.9390    6.5550 C.2      66   C78       0.8185
   2091 N4         13.9090    7.9000    5.2920 N.pl3    66   C78      -0.9530
   2092 C5         15.5020    8.6930    6.8960 C.2      66   C78      -0.5215
   2093 C6         15.8840    8.6950    8.1790 C.2      66   C78       0.0053
   2094 H5'        19.7563    9.2955   11.1857 H        66   C78       0.0679
   2095 H5''       18.5760   10.6220   11.1901 H        66   C78       0.0679
   2096 H4'        17.7174    8.6543   12.3539 H        66   C78       0.1174
   2097 H3'        18.0911    7.2628    9.6952 H        66   C78       0.0615
   2098 H2'        16.1885    5.9090   10.2255 H        66   C78       0.0972
   2099 H1'        14.7141    8.0436   11.1811 H        66   C78       0.2029
   2100 H5         16.0531    9.2419    6.1468 H        66   C78       0.1928
   2101 H6         16.7589    9.2565    8.4717 H        66   C78       0.1958
   2102 H41        13.0858    7.3647    5.0556 H        66   C78       0.4234
   2103 H42        14.4062    8.4058    4.5729 H        66   C78       0.4234
   2104 HO2'       15.9513    5.4586   12.3220 H        66   C78       0.4186
   2105 P          19.4570    5.1930   10.7430 P.3      67   U79       1.1662
   2106 OP1        20.6410    4.7870   11.5430 O.co2    67   U79      -0.7760
   2107 OP2        19.6150    5.5040    9.3000 O.co2    67   U79      -0.7760
   2108 O5'        18.3530    4.0520   10.8800 O.3      67   U79      -0.4989
   2109 C5'        17.9130    3.6160   12.1570 C.3      67   U79       0.0558
   2110 C4'        16.7470    2.6660   12.0490 C.3      67   U79       0.1065
   2111 O4'        15.5920    3.3580   11.5080 O.3      67   U79      -0.3548
   2112 C3'        16.9320    1.4830   11.1150 C.3      67   U79       0.2022
   2113 O3'        17.6890    0.4330   11.6890 O.3      67   U79      -0.5246
   2114 C2'        15.4970    1.0950   10.7870 C.3      67   U79       0.0670
   2115 O2'        14.9200    0.3580   11.8540 O.3      67   U79      -0.6139
   2116 C1'        14.8220    2.4670   10.7260 C.3      67   U79       0.0674
   2117 N1         14.7420    2.9870    9.3410 N.am     67   U79       0.0418
   2118 C2         13.7090    2.5240    8.5480 C.2      67   U79       0.4687
   2119 O2         12.8790    1.7220    8.9420 O.2      67   U79      -0.5477
   2120 N3         13.6800    3.0340    7.2740 N.am     67   U79      -0.3549
   2121 C4         14.5600    3.9410    6.7220 C.2      67   U79       0.5952
   2122 O4         14.4000    4.3060    5.5560 O.2      67   U79      -0.5761
   2123 C5         15.6020    4.3720    7.6040 C.2      67   U79      -0.3635
   2124 C6         15.6550    3.8920    8.8510 C.2      67   U79      -0.1126
   2125 H5'        17.6085    4.4843   12.7413 H        67   U79       0.0679
   2126 H5''       18.7361    3.1143   12.6659 H        67   U79       0.0679
   2127 H4'        16.5014    2.2947   13.0439 H        67   U79       0.1174
   2128 H3'        17.4263    1.8219   10.2046 H        67   U79       0.0615
   2129 H2'        15.4253    0.5629    9.8384 H        67   U79       0.0972
   2130 H1'        13.8178    2.3947   11.1436 H        67   U79       0.1824
   2131 H3         12.9333    2.7099    6.6761 H        67   U79       0.3154
   2132 H5         16.3418    5.0815    7.2639 H        67   U79       0.1811
   2133 H6         16.4486    4.2292    9.5013 H        67   U79       0.2188
   2134 HO2'       14.7737   -0.5488   11.5748 H        67   U79       0.4186
   2135 P          18.6220   -0.4850   10.7580 P.3      68   U80       1.1662
   2136 OP1        19.4910   -1.3050   11.6400 O.co2    68   U80      -0.7760
   2137 OP2        19.2370    0.3880    9.7250 O.co2    68   U80      -0.7760
   2138 O5'        17.5950   -1.4610   10.0300 O.3      68   U80      -0.4989
   2139 C5'        16.7660   -2.3350   10.7810 C.3      68   U80       0.0558
   2140 C4'        15.6870   -2.9490    9.9240 C.3      68   U80       0.1065
   2141 O4'        14.8050   -1.9110    9.4210 O.3      68   U80      -0.3548
   2142 C3'        16.1580   -3.6690    8.6710 C.3      68   U80       0.2022
   2143 O3'        16.6350   -4.9780    8.9280 O.3      68   U80      -0.5246
   2144 C2'        14.9220   -3.6290    7.7830 C.3      68   U80       0.0670
   2145 O2'        13.9860   -4.6210    8.1810 O.3      68   U80      -0.6139
   2146 C1'        14.3470   -2.2550    8.1290 C.3      68   U80       0.0674
   2147 N1         14.7870   -1.2110    7.1740 N.am     68   U80       0.0418
   2148 C2         14.1190   -1.1240    5.9680 C.2      68   U80       0.4687
   2149 O2         13.1960   -1.8610    5.6670 O.2      68   U80      -0.5477
   2150 N3         14.5700   -0.1400    5.1240 N.am     68   U80      -0.3549
   2151 C4         15.6010    0.7480    5.3570 C.2      68   U80       0.5952
   2152 O4         15.8910    1.5800    4.4950 O.2      68   U80      -0.5761
   2153 C5         16.2420    0.5940    6.6270 C.2      68   U80      -0.3635
   2154 C6         15.8230   -0.3560    7.4700 C.2      68   U80      -0.1126
   2155 H5'        17.3804   -3.1315   11.2008 H        68   U80       0.0679
   2156 H5''       16.3018   -1.7763   11.5936 H        68   U80       0.0679
   2157 H4'        15.1055   -3.6422   10.5318 H        68   U80       0.1174
   2158 H3'        16.9515   -3.0866    8.2029 H        68   U80       0.0615
   2159 H2'        15.1767   -3.7098    6.7263 H        68   U80       0.0972
   2160 H1'        13.2583   -2.3078    8.1323 H        68   U80       0.1824
   2161 H3         14.0961   -0.0565    4.2360 H        68   U80       0.3154
   2162 H5         17.0605    1.2420    6.9036 H        68   U80       0.1811
   2163 H6         16.3193   -0.4561    8.4240 H        68   U80       0.2188
   2164 HO2'       13.9285   -5.2978    7.5026 H        68   U80       0.4186
   2165 P          17.8390   -5.5820    8.0520 P.3      69   C81       1.1662
   2166 OP1        18.3160   -6.8220    8.7150 O.co2    69   C81      -0.7760
   2167 OP2        18.8000   -4.4850    7.7730 O.co2    69   C81      -0.7760
   2168 O5'        17.1460   -5.9910    6.6770 O.3      69   C81      -0.4989
   2169 C5'        16.1050   -6.9560    6.6460 C.3      69   C81       0.0558
   2170 C4'        15.4280   -7.0000    5.2990 C.3      69   C81       0.1065
   2171 O4'        14.7470   -5.7430    5.0470 O.3      69   C81      -0.3548
   2172 C3'        16.3430   -7.1690    4.0970 C.3      69   C81       0.2022
   2173 O3'        16.7390   -8.5130    3.8870 O.3      69   C81      -0.5246
   2174 C2'        15.5100   -6.5910    2.9610 C.3      69   C81       0.0670
   2175 O2'        14.5330   -7.5270    2.5300 O.3      69   C81      -0.6139
   2176 C1'        14.7950   -5.4380    3.6680 C.3      69   C81       0.0066
   2177 N1         15.5010   -4.1480    3.4890 N.am     69   C81      -0.0484
   2178 C2         15.3260   -3.4420    2.2950 C.2      69   C81       0.7538
   2179 O2         14.5860   -3.9150    1.4180 O.2      69   C81      -0.6252
   2180 N3         15.9660   -2.2630    2.1220 N.2      69   C81      -0.7584
   2181 C4         16.7540   -1.7830    3.0850 C.2      69   C81       0.8185
   2182 N4         17.3660   -0.6160    2.8710 N.pl3    69   C81      -0.9530
   2183 C5         16.9510   -2.4790    4.3120 C.2      69   C81      -0.5215
   2184 C6         16.3110   -3.6450    4.4700 C.2      69   C81       0.0053
   2185 H5'        15.3652   -6.7025    7.4053 H        69   C81       0.0679
   2186 H5''       16.5222   -7.9382    6.8680 H        69   C81       0.0679
   2187 H4'        14.6935   -7.8054    5.2994 H        69   C81       0.1174
   2188 H3'        17.2316   -6.5533    4.2363 H        69   C81       0.0615
   2189 H2'        16.1314   -6.2413    2.1366 H        69   C81       0.0972
   2190 H1'        13.7796   -5.3510    3.2815 H        69   C81       0.2029
   2191 H5         17.5918   -2.0818    5.0853 H        69   C81       0.1928
   2192 H6         16.4368   -4.1983    5.3889 H        69   C81       0.1958
   2193 H41        17.2252   -0.1242    2.0001 H        69   C81       0.4234
   2194 H42        17.9698   -0.2249    3.5800 H        69   C81       0.4234
   2195 HO2'       14.7529   -7.8367    1.6483 H        69   C81       0.4186
   2196 P          18.1730   -8.8380    3.2410 P.3      70   C82       1.1662
   2197 OP1        18.4630  -10.2770    3.4660 O.co2    70   C82      -0.7760
   2198 OP2        19.1360   -7.8110    3.7160 O.co2    70   C82      -0.7760
   2199 O5'        17.9500   -8.6150    1.6790 O.3      70   C82      -0.4989
   2200 C5'        17.0020   -9.3900    0.9620 C.3      70   C82       0.0558
   2201 C4'        16.7670   -8.8380   -0.4210 C.3      70   C82       0.1065
   2202 O4'        16.1840   -7.5120   -0.3300 O.3      70   C82      -0.3548
   2203 C3'        18.0060   -8.6350   -1.2790 C.3      70   C82       0.2022
   2204 O3'        18.4610   -9.8310   -1.8880 O.3      70   C82      -0.5246
   2205 C2'        17.5510   -7.5760   -2.2740 C.3      70   C82       0.0670
   2206 O2'        16.7590   -8.1580   -3.2990 O.3      70   C82      -0.6139
   2207 C1'        16.6450   -6.7090   -1.3980 C.3      70   C82       0.0066
   2208 N1         17.3590   -5.5380   -0.8400 N.am     70   C82      -0.0484
   2209 C2         17.5180   -4.4030   -1.6420 C.2      70   C82       0.7538
   2210 O2         17.0590   -4.4120   -2.7940 O.2      70   C82      -0.6252
   2211 N3         18.1680   -3.3260   -1.1450 N.2      70   C82      -0.7584
   2212 C4         18.6490   -3.3520    0.0990 C.2      70   C82       0.8185
   2213 N4         19.2830   -2.2660    0.5480 N.pl3    70   C82      -0.9530
   2214 C5         18.5020   -4.4930    0.9390 C.2      70   C82      -0.5215
   2215 C6         17.8560   -5.5520    0.4340 C.2      70   C82       0.0053
   2216 H5'        17.3722  -10.4117    0.8769 H        70   C82       0.0679
   2217 H5''       16.0591   -9.3963    1.5089 H        70   C82       0.0679
   2218 H4'        16.0745   -9.4929   -0.9498 H        70   C82       0.1174
   2219 H3'        18.8041   -8.2238   -0.6609 H        70   C82       0.0615
   2220 H2'        18.3898   -7.0098   -2.6788 H        70   C82       0.0972
   2221 H1'        15.7937   -6.3666   -1.9863 H        70   C82       0.2029
   2222 H5         18.8963   -4.5037    1.9444 H        70   C82       0.1928
   2223 H6         17.7251   -6.4334    1.0442 H        70   C82       0.1958
   2224 H41        19.3861   -1.4582   -0.0495 H        70   C82       0.4234
   2225 H42        19.6595   -2.2523    1.4851 H        70   C82       0.4234
   2226 HO2'       16.3581   -7.4636   -3.8268 H        70   C82       0.4186
   2227 P          20.0310  -10.0590   -2.1430 P.3      71   C83       1.1662
   2228 OP1        20.2300  -11.4680   -2.5660 O.co2    71   C83      -0.7760
   2229 OP2        20.7720   -9.5340   -0.9670 O.co2    71   C83      -0.7760
   2230 O5'        20.3580   -9.1220   -3.3890 O.3      71   C83      -0.4989
   2231 C5'        19.7500   -9.3490   -4.6520 C.3      71   C83       0.0558
   2232 C4'        20.0600   -8.2360   -5.6200 C.3      71   C83       0.1065
   2233 O4'        19.4870   -6.9930   -5.1360 O.3      71   C83      -0.3548
   2234 C3'        21.5350   -7.9130   -5.8100 C.3      71   C83       0.2022
   2235 O3'        22.1830   -8.7900   -6.7140 O.3      71   C83      -0.6541
   2236 C2'        21.5020   -6.4640   -6.2800 C.3      71   C83       0.0670
   2237 O2'        21.1700   -6.3910   -7.6590 O.3      71   C83      -0.6139
   2238 C1'        20.3280   -5.9100   -5.4700 C.3      71   C83       0.0066
   2239 N1         20.7710   -5.2480   -4.2200 N.am     71   C83      -0.0484
   2240 C2         21.2470   -3.9360   -4.2840 C.2      71   C83       0.7538
   2241 O2         21.2890   -3.3620   -5.3830 O.2      71   C83      -0.6252
   2242 N3         21.6520   -3.3220   -3.1470 N.2      71   C83      -0.7584
   2243 C4         21.5940   -3.9670   -1.9810 C.2      71   C83       0.8185
   2244 N4         22.0040   -3.3220   -0.8870 N.pl3    71   C83      -0.9530
   2245 C5         21.1120   -5.3040   -1.8860 C.2      71   C83      -0.5215
   2246 C6         20.7140   -5.8990   -3.0180 C.2      71   C83       0.0053
   2247 H5'        20.1223  -10.2883   -5.0609 H        71   C83       0.0679
   2248 H5''       18.6701   -9.4189   -4.5215 H        71   C83       0.0679
   2249 H4'        19.6214   -8.4756   -6.5887 H        71   C83       0.1174
   2250 H3'        22.0375   -7.9625   -4.8440 H        71   C83       0.0615
   2251 H2'        22.4327   -5.9423   -6.0571 H        71   C83       0.0972
   2252 H1'        19.7734   -5.1966   -6.0795 H        71   C83       0.2029
   2253 H5         21.0691   -5.8183   -0.9373 H        71   C83       0.1928
   2254 H6         20.3410   -6.9119   -2.9813 H        71   C83       0.1958
   2255 H41        22.3452   -2.3740   -0.9578 H        71   C83       0.4234
   2256 H42        21.9731   -3.7818    0.0117 H        71   C83       0.4234
   2257 HO3'       23.1066   -8.5412   -6.7955 H        71   C83       0.4376
   2258 HO2'       21.8974   -6.7354   -8.1824 H        71   C83       0.4186
@<TRIPOS>BOND
     1    1    2 1
     2    2    3 1
     3    3    5 1
     4    3    4 1
     5    4    9 1
     6    5    7 1
     7    5    6 1
     8    7    9 1
     9    7    8 1
    10    9   10 1
    11   10   20 ar
    12   10   11 ar
    13   11   12 ar
    14   12   13 ar
    15   13   20 ar
    16   13   14 1
    17   14   15 2
    18   14   16 am
    19   16   17 1
    20   17   18 2
    21   17   19 2
    22   19   20 1
    23   33   35 1
    24   33   34 1
    25   33   36 1
    26   36   37 1
    27   37   38 1
    28   38   40 1
    29   38   39 1
    30   39   44 1
    31   40   41 1
    32   40   42 1
    33   42   43 1
    34   42   44 1
    35   44   45 1
    36   45   46 ar
    37   45   55 ar
    38   46   47 ar
    39   47   48 ar
    40   48   55 ar
    41   48   49 1
    42   49   50 2
    43   49   51 am
    44   51   52 1
    45   52   53 2
    46   52   54 2
    47   54   55 1
    48   33    6 1
    49   67   69 1
    50   67   68 1
    51   67   70 1
    52   70   71 1
    53   71   72 1
    54   72   74 1
    55   72   73 1
    56   73   78 1
    57   74   75 1
    58   74   76 1
    59   76   77 1
    60   76   78 1
    61   78   79 1
    62   79   80 ar
    63   79   89 ar
    64   80   81 ar
    65   81   82 ar
    66   82   89 ar
    67   82   83 1
    68   83   84 2
    69   83   85 am
    70   85   86 1
    71   86   87 2
    72   86   88 2
    73   88   89 1
    74   41   67 1
    75  101  102 1
    76  101  103 1
    77  101  104 1
    78  104  105 1
    79  105  106 1
    80  106  108 1
    81  106  107 1
    82  107  112 1
    83  108  110 1
    84  108  109 1
    85  110  112 1
    86  110  111 1
    87  112  113 1
    88  113  122 ar
    89  113  114 ar
    90  114  115 ar
    91  115  116 ar
    92  116  122 ar
    93  116  117 ar
    94  117  119 ar
    95  117  118 1
    96  119  120 ar
    97  120  121 ar
    98  121  122 ar
    99   75  101 1
   100  134  135 1
   101  134  136 1
   102  134  137 1
   103  137  138 1
   104  138  139 1
   105  139  141 1
   106  139  140 1
   107  140  145 1
   108  141  143 1
   109  141  142 1
   110  143  145 1
   111  143  144 1
   112  145  146 1
   113  146  155 ar
   114  146  147 ar
   115  147  148 ar
   116  148  149 ar
   117  149  155 ar
   118  149  150 ar
   119  150  152 ar
   120  150  151 1
   121  152  153 ar
   122  153  154 ar
   123  154  155 ar
   124  109  134 1
   125  167  169 1
   126  167  168 1
   127  167  170 1
   128  170  171 1
   129  171  172 1
   130  172  174 1
   131  172  173 1
   132  173  178 1
   133  174  175 1
   134  174  176 1
   135  176  177 1
   136  176  178 1
   137  178  179 1
   138  179  180 ar
   139  179  189 ar
   140  180  181 ar
   141  181  182 ar
   142  182  189 ar
   143  182  183 1
   144  183  184 2
   145  183  185 am
   146  185  186 1
   147  186  187 2
   148  186  188 2
   149  188  189 1
   150  142  167 1
   151  201  202 1
   152  201  203 1
   153  201  204 1
   154  204  205 1
   155  205  206 1
   156  206  208 1
   157  206  207 1
   158  207  212 1
   159  208  210 1
   160  208  209 1
   161  210  212 1
   162  210  211 1
   163  212  213 1
   164  213  222 ar
   165  213  214 ar
   166  214  215 ar
   167  215  216 ar
   168  216  222 ar
   169  216  217 ar
   170  217  219 ar
   171  217  218 1
   172  219  220 ar
   173  220  221 ar
   174  221  222 ar
   175  175  201 1
   176  234  235 1
   177  234  236 1
   178  234  237 1
   179  237  238 1
   180  238  239 1
   181  239  241 1
   182  239  240 1
   183  240  245 1
   184  241  243 1
   185  241  242 1
   186  243  244 1
   187  243  245 1
   188  245  246 1
   189  246  247 am
   190  246  253 1
   191  247  248 2
   192  247  249 am
   193  249  250 am
   194  250  252 1
   195  250  251 2
   196  252  253 2
   197  209  234 1
   198  264  265 1
   199  264  266 1
   200  264  267 1
   201  267  268 1
   202  268  269 1
   203  269  271 1
   204  269  270 1
   205  270  275 1
   206  271  273 1
   207  271  272 1
   208  273  275 1
   209  273  274 1
   210  275  276 1
   211  276  285 ar
   212  276  277 ar
   213  277  278 ar
   214  278  279 ar
   215  279  285 ar
   216  279  280 ar
   217  280  282 ar
   218  280  281 1
   219  282  283 ar
   220  283  284 ar
   221  284  285 ar
   222  242  264 1
   223  297  298 1
   224  297  299 1
   225  297  300 1
   226  300  301 1
   227  301  302 1
   228  302  304 1
   229  302  303 1
   230  303  308 1
   231  304  306 1
   232  304  305 1
   233  306  307 1
   234  306  308 1
   235  308  309 1
   236  309  310 am
   237  309  316 1
   238  310  311 2
   239  310  312 am
   240  312  313 am
   241  313  315 1
   242  313  314 2
   243  315  316 2
   244  272  297 1
   245  327  328 1
   246  327  329 1
   247  327  330 1
   248  330  331 1
   249  331  332 1
   250  332  334 1
   251  332  333 1
   252  333  338 1
   253  334  336 1
   254  334  335 1
   255  336  338 1
   256  336  337 1
   257  338  339 1
   258  339  348 ar
   259  339  340 ar
   260  340  341 ar
   261  341  342 ar
   262  342  348 ar
   263  342  343 ar
   264  343  345 ar
   265  343  344 1
   266  345  346 ar
   267  346  347 ar
   268  347  348 ar
   269  305  327 1
   270  360  361 1
   271  360  362 1
   272  360  363 1
   273  363  364 1
   274  364  365 1
   275  365  367 1
   276  365  366 1
   277  366  371 1
   278  367  369 1
   279  367  368 1
   280  369  371 1
   281  369  370 1
   282  371  372 1
   283  372  381 ar
   284  372  373 ar
   285  373  374 ar
   286  374  375 ar
   287  375  381 ar
   288  375  376 ar
   289  376  378 ar
   290  376  377 1
   291  378  379 ar
   292  379  380 ar
   293  380  381 ar
   294  335  360 1
   295  393  394 1
   296  393  395 1
   297  393  396 1
   298  396  397 1
   299  397  398 1
   300  398  400 1
   301  398  399 1
   302  399  404 1
   303  400  402 1
   304  400  401 1
   305  402  403 1
   306  402  404 1
   307  404  405 1
   308  405  406 am
   309  405  412 1
   310  406  407 2
   311  406  408 am
   312  408  409 am
   313  409  411 1
   314  409  410 2
   315  411  412 2
   316  368  393 1
   317  423  424 1
   318  423  425 1
   319  423  426 1
   320  426  427 1
   321  427  428 1
   322  428  430 1
   323  428  429 1
   324  429  434 1
   325  430  432 1
   326  430  431 1
   327  432  433 1
   328  432  434 1
   329  434  435 1
   330  435  436 am
   331  435  442 1
   332  436  438 1
   333  436  437 2
   334  438  439 2
   335  439  441 2
   336  439  440 2
   337  441  442 2
   338  401  423 1
   339  454  455 1
   340  454  456 1
   341  454  457 1
   342  457  458 1
   343  458  459 1
   344  459  461 1
   345  459  460 1
   346  460  465 1
   347  461  463 1
   348  461  462 1
   349  463  464 1
   350  463  465 1
   351  465  466 1
   352  466  467 am
   353  466  473 1
   354  467  469 1
   355  467  468 2
   356  469  470 2
   357  470  472 2
   358  470  471 2
   359  472  473 2
   360  431  454 1
   361  485  486 1
   362  485  487 1
   363  485  488 1
   364  488  489 1
   365  489  490 1
   366  490  492 1
   367  490  491 1
   368  491  496 1
   369  492  494 1
   370  492  493 1
   371  494  495 1
   372  494  496 1
   373  496  497 1
   374  497  498 am
   375  497  504 1
   376  498  499 2
   377  498  500 am
   378  500  501 am
   379  501  503 1
   380  501  502 2
   381  503  504 2
   382  462  485 1
   383  515  516 1
   384  515  517 1
   385  515  518 1
   386  518  519 1
   387  519  520 1
   388  520  522 1
   389  520  521 1
   390  521  526 1
   391  522  524 1
   392  522  523 1
   393  524  526 1
   394  524  525 1
   395  526  527 1
   396  527  536 ar
   397  527  528 ar
   398  528  529 ar
   399  529  530 ar
   400  530  536 ar
   401  530  531 ar
   402  531  533 ar
   403  531  532 1
   404  533  534 ar
   405  534  535 ar
   406  535  536 ar
   407  493  515 1
   408  548  549 1
   409  548  550 1
   410  548  551 1
   411  551  552 1
   412  552  553 1
   413  553  555 1
   414  553  554 1
   415  554  559 1
   416  555  557 1
   417  555  556 1
   418  557  559 1
   419  557  558 1
   420  559  560 1
   421  560  569 ar
   422  560  561 ar
   423  561  562 ar
   424  562  563 ar
   425  563  569 ar
   426  563  564 ar
   427  564  566 ar
   428  564  565 1
   429  566  567 ar
   430  567  568 ar
   431  568  569 ar
   432  523  548 1
   433  581  582 1
   434  581  583 1
   435  581  584 1
   436  584  585 1
   437  585  586 1
   438  586  588 1
   439  586  587 1
   440  587  592 1
   441  588  590 1
   442  588  589 1
   443  590  591 1
   444  590  592 1
   445  592  593 1
   446  593  594 am
   447  593  600 1
   448  594  595 2
   449  594  596 am
   450  596  597 am
   451  597  599 1
   452  597  598 2
   453  599  600 2
   454  556  581 1
   455  611  613 1
   456  611  612 1
   457  611  614 1
   458  614  615 1
   459  615  616 1
   460  616  618 1
   461  616  617 1
   462  617  622 1
   463  618  619 1
   464  618  620 1
   465  620  621 1
   466  620  622 1
   467  622  623 1
   468  623  624 ar
   469  623  633 ar
   470  624  625 ar
   471  625  626 ar
   472  626  633 ar
   473  626  627 1
   474  627  628 2
   475  627  629 am
   476  629  630 1
   477  630  631 2
   478  630  632 2
   479  632  633 1
   480  589  611 1
   481  645  646 1
   482  645  647 1
   483  645  648 1
   484  648  649 1
   485  649  650 1
   486  650  652 1
   487  650  651 1
   488  651  656 1
   489  652  654 1
   490  652  653 1
   491  654  656 1
   492  654  655 1
   493  656  657 1
   494  657  666 ar
   495  657  658 ar
   496  658  659 ar
   497  659  660 ar
   498  660  666 ar
   499  660  661 ar
   500  661  663 ar
   501  661  662 1
   502  663  664 ar
   503  664  665 ar
   504  665  666 ar
   505  619  645 1
   506  678  679 1
   507  678  680 1
   508  678  681 1
   509  681  682 1
   510  682  683 1
   511  683  685 1
   512  683  684 1
   513  684  689 1
   514  685  687 1
   515  685  686 1
   516  687  688 1
   517  687  689 1
   518  689  690 1
   519  690  691 am
   520  690  697 1
   521  691  692 2
   522  691  693 am
   523  693  694 am
   524  694  696 1
   525  694  695 2
   526  696  697 2
   527  653  678 1
   528  708  709 1
   529  708  710 1
   530  708  711 1
   531  711  712 1
   532  712  713 1
   533  713  715 1
   534  713  714 1
   535  714  719 1
   536  715  717 1
   537  715  716 1
   538  717  719 1
   539  717  718 1
   540  719  720 1
   541  720  729 ar
   542  720  721 ar
   543  721  722 ar
   544  722  723 ar
   545  723  729 ar
   546  723  724 ar
   547  724  726 ar
   548  724  725 1
   549  726  727 ar
   550  727  728 ar
   551  728  729 ar
   552  686  708 1
   553  741  742 1
   554  741  743 1
   555  741  744 1
   556  744  745 1
   557  745  746 1
   558  746  748 1
   559  746  747 1
   560  747  752 1
   561  748  750 1
   562  748  749 1
   563  750  751 1
   564  750  752 1
   565  752  753 1
   566  753  754 am
   567  753  760 1
   568  754  755 2
   569  754  756 am
   570  756  757 am
   571  757  759 1
   572  757  758 2
   573  759  760 2
   574  716  741 1
   575  771  773 1
   576  771  772 1
   577  771  774 1
   578  774  775 1
   579  775  776 1
   580  776  778 1
   581  776  777 1
   582  777  782 1
   583  778  779 1
   584  778  780 1
   585  780  781 1
   586  780  782 1
   587  782  783 1
   588  783  784 ar
   589  783  793 ar
   590  784  785 ar
   591  785  786 ar
   592  786  793 ar
   593  786  787 1
   594  787  788 2
   595  787  789 am
   596  789  790 1
   597  790  791 2
   598  790  792 2
   599  792  793 1
   600  749  771 1
   601  805  807 1
   602  805  806 1
   603  805  808 1
   604  808  809 1
   605  809  810 1
   606  810  812 1
   607  810  811 1
   608  811  816 1
   609  812  813 1
   610  812  814 1
   611  814  815 1
   612  814  816 1
   613  816  817 1
   614  817  818 ar
   615  817  827 ar
   616  818  819 ar
   617  819  820 ar
   618  820  827 ar
   619  820  821 1
   620  821  822 2
   621  821  823 am
   622  823  824 1
   623  824  825 2
   624  824  826 2
   625  826  827 1
   626  779  805 1
   627  839  840 1
   628  839  841 1
   629  839  842 1
   630  842  843 1
   631  843  844 1
   632  844  846 1
   633  844  845 1
   634  845  850 1
   635  846  848 1
   636  846  847 1
   637  848  849 1
   638  848  850 1
   639  850  851 1
   640  851  852 am
   641  851  858 1
   642  852  853 2
   643  852  854 am
   644  854  855 am
   645  855  857 1
   646  855  856 2
   647  857  858 2
   648  813  839 1
   649  869  870 1
   650  869  871 1
   651  869  872 1
   652  872  873 1
   653  873  874 1
   654  874  876 1
   655  874  875 1
   656  875  880 1
   657  876  878 1
   658  876  877 1
   659  878  879 1
   660  878  880 1
   661  880  881 1
   662  881  882 am
   663  881  888 1
   664  882  883 2
   665  882  884 am
   666  884  885 am
   667  885  887 1
   668  885  886 2
   669  887  888 2
   670  847  869 1
   671  899  900 1
   672  899  901 1
   673  899  902 1
   674  902  903 1
   675  903  904 1
   676  904  906 1
   677  904  905 1
   678  905  910 1
   679  906  908 1
   680  906  907 1
   681  908  909 1
   682  908  910 1
   683  910  911 1
   684  911  912 am
   685  911  918 1
   686  912  913 2
   687  912  914 am
   688  914  915 am
   689  915  917 1
   690  915  916 2
   691  917  918 2
   692  877  899 1
   693  929  931 1
   694  929  930 1
   695  929  932 1
   696  932  933 1
   697  933  934 1
   698  934  936 1
   699  934  935 1
   700  935  940 1
   701  936  937 1
   702  936  938 1
   703  938  939 1
   704  938  940 1
   705  940  941 1
   706  941  942 ar
   707  941  951 ar
   708  942  943 ar
   709  943  944 ar
   710  944  951 ar
   711  944  945 1
   712  945  946 2
   713  945  947 am
   714  947  948 1
   715  948  949 2
   716  948  950 2
   717  950  951 1
   718  907  929 1
   719  963  965 1
   720  963  964 1
   721  963  966 1
   722  966  967 1
   723  967  968 1
   724  968  970 1
   725  968  969 1
   726  969  974 1
   727  970  971 1
   728  970  972 1
   729  972  973 1
   730  972  974 1
   731  974  975 1
   732  975  976 ar
   733  975  985 ar
   734  976  977 ar
   735  977  978 ar
   736  978  985 ar
   737  978  979 1
   738  979  980 2
   739  979  981 am
   740  981  982 1
   741  982  983 2
   742  982  984 2
   743  984  985 1
   744  937  963 1
   745  997  999 1
   746  997  998 1
   747  997 1000 1
   748 1000 1001 1
   749 1001 1002 1
   750 1002 1004 1
   751 1002 1003 1
   752 1003 1008 1
   753 1004 1005 1
   754 1004 1006 1
   755 1006 1007 1
   756 1006 1008 1
   757 1008 1009 1
   758 1009 1010 ar
   759 1009 1019 ar
   760 1010 1011 ar
   761 1011 1012 ar
   762 1012 1019 ar
   763 1012 1013 1
   764 1013 1014 2
   765 1013 1015 am
   766 1015 1016 1
   767 1016 1017 2
   768 1016 1018 2
   769 1018 1019 1
   770  971  997 1
   771 1031 1032 1
   772 1031 1033 1
   773 1031 1034 1
   774 1034 1035 1
   775 1035 1036 1
   776 1036 1038 1
   777 1036 1037 1
   778 1037 1042 1
   779 1038 1040 1
   780 1038 1039 1
   781 1040 1042 1
   782 1040 1041 1
   783 1042 1043 1
   784 1043 1052 ar
   785 1043 1044 ar
   786 1044 1045 ar
   787 1045 1046 ar
   788 1046 1052 ar
   789 1046 1047 ar
   790 1047 1049 ar
   791 1047 1048 1
   792 1049 1050 ar
   793 1050 1051 ar
   794 1051 1052 ar
   795 1005 1031 1
   796 1064 1066 1
   797 1064 1065 1
   798 1064 1067 1
   799 1067 1068 1
   800 1068 1069 1
   801 1069 1071 1
   802 1069 1070 1
   803 1070 1075 1
   804 1071 1072 1
   805 1071 1073 1
   806 1073 1074 1
   807 1073 1075 1
   808 1075 1076 1
   809 1076 1077 ar
   810 1076 1086 ar
   811 1077 1078 ar
   812 1078 1079 ar
   813 1079 1086 ar
   814 1079 1080 1
   815 1080 1081 2
   816 1080 1082 am
   817 1082 1083 1
   818 1083 1084 2
   819 1083 1085 2
   820 1085 1086 1
   821 1039 1064 1
   822 1098 1099 1
   823 1098 1100 1
   824 1098 1101 1
   825 1101 1102 1
   826 1102 1103 1
   827 1103 1105 1
   828 1103 1104 1
   829 1104 1109 1
   830 1105 1107 1
   831 1105 1106 1
   832 1107 1108 1
   833 1107 1109 1
   834 1109 1110 1
   835 1110 1111 am
   836 1110 1117 1
   837 1111 1112 2
   838 1111 1113 am
   839 1113 1114 am
   840 1114 1116 1
   841 1114 1115 2
   842 1116 1117 2
   843 1072 1098 1
   844 1128 1129 1
   845 1128 1130 1
   846 1128 1131 1
   847 1131 1132 1
   848 1132 1133 1
   849 1133 1135 1
   850 1133 1134 1
   851 1134 1139 1
   852 1135 1137 1
   853 1135 1136 1
   854 1137 1138 1
   855 1137 1139 1
   856 1139 1140 1
   857 1140 1141 am
   858 1140 1147 1
   859 1141 1142 2
   860 1141 1143 am
   861 1143 1144 am
   862 1144 1146 1
   863 1144 1145 2
   864 1146 1147 2
   865 1106 1128 1
   866 1158 1159 1
   867 1158 1160 1
   868 1158 1161 1
   869 1161 1162 1
   870 1162 1163 1
   871 1163 1165 1
   872 1163 1164 1
   873 1164 1169 1
   874 1165 1167 1
   875 1165 1166 1
   876 1167 1168 1
   877 1167 1169 1
   878 1169 1170 1
   879 1170 1171 am
   880 1170 1177 1
   881 1171 1172 2
   882 1171 1173 am
   883 1173 1174 am
   884 1174 1176 1
   885 1174 1175 2
   886 1176 1177 2
   887 1136 1158 1
   888 1188 1189 1
   889 1188 1190 1
   890 1188 1191 1
   891 1191 1192 1
   892 1192 1193 1
   893 1193 1195 1
   894 1193 1194 1
   895 1194 1199 1
   896 1195 1197 1
   897 1195 1196 1
   898 1197 1198 1
   899 1197 1199 1
   900 1199 1200 1
   901 1200 1201 am
   902 1200 1207 1
   903 1201 1203 1
   904 1201 1202 2
   905 1203 1204 2
   906 1204 1206 2
   907 1204 1205 2
   908 1206 1207 2
   909 1166 1188 1
   910 1219 1220 1
   911 1219 1221 1
   912 1219 1222 1
   913 1222 1223 1
   914 1223 1224 1
   915 1224 1226 1
   916 1224 1225 1
   917 1225 1230 1
   918 1226 1228 1
   919 1226 1227 1
   920 1228 1229 1
   921 1228 1230 1
   922 1230 1231 1
   923 1231 1232 am
   924 1231 1238 1
   925 1232 1233 2
   926 1232 1234 am
   927 1234 1235 am
   928 1235 1237 1
   929 1235 1236 2
   930 1237 1238 2
   931 1196 1219 1
   932 1249 1250 1
   933 1249 1251 1
   934 1249 1252 1
   935 1252 1253 1
   936 1253 1254 1
   937 1254 1256 1
   938 1254 1255 1
   939 1255 1260 1
   940 1256 1258 1
   941 1256 1257 1
   942 1258 1260 1
   943 1258 1259 1
   944 1260 1261 1
   945 1261 1270 ar
   946 1261 1262 ar
   947 1262 1263 ar
   948 1263 1264 ar
   949 1264 1270 ar
   950 1264 1265 ar
   951 1265 1267 ar
   952 1265 1266 1
   953 1267 1268 ar
   954 1268 1269 ar
   955 1269 1270 ar
   956 1227 1249 1
   957 1282 1283 1
   958 1282 1284 1
   959 1282 1285 1
   960 1285 1286 1
   961 1286 1287 1
   962 1287 1289 1
   963 1287 1288 1
   964 1288 1293 1
   965 1289 1291 1
   966 1289 1290 1
   967 1291 1292 1
   968 1291 1293 1
   969 1293 1294 1
   970 1294 1295 am
   971 1294 1301 1
   972 1295 1297 1
   973 1295 1296 2
   974 1297 1298 2
   975 1298 1300 2
   976 1298 1299 2
   977 1300 1301 2
   978 1257 1282 1
   979 1313 1314 1
   980 1313 1315 1
   981 1313 1316 1
   982 1316 1317 1
   983 1317 1318 1
   984 1318 1320 1
   985 1318 1319 1
   986 1319 1324 1
   987 1320 1322 1
   988 1320 1321 1
   989 1322 1323 1
   990 1322 1324 1
   991 1324 1325 1
   992 1325 1326 am
   993 1325 1332 1
   994 1326 1328 1
   995 1326 1327 2
   996 1328 1329 2
   997 1329 1331 2
   998 1329 1330 2
   999 1331 1332 2
  1000 1290 1313 1
  1001 1344 1345 1
  1002 1344 1346 1
  1003 1344 1347 1
  1004 1347 1348 1
  1005 1348 1349 1
  1006 1349 1351 1
  1007 1349 1350 1
  1008 1350 1355 1
  1009 1351 1353 1
  1010 1351 1352 1
  1011 1353 1355 1
  1012 1353 1354 1
  1013 1355 1356 1
  1014 1356 1365 ar
  1015 1356 1357 ar
  1016 1357 1358 ar
  1017 1358 1359 ar
  1018 1359 1365 ar
  1019 1359 1360 ar
  1020 1360 1362 ar
  1021 1360 1361 1
  1022 1362 1363 ar
  1023 1363 1364 ar
  1024 1364 1365 ar
  1025 1321 1344 1
  1026 1377 1378 1
  1027 1377 1379 1
  1028 1377 1380 1
  1029 1380 1381 1
  1030 1381 1382 1
  1031 1382 1384 1
  1032 1382 1383 1
  1033 1383 1388 1
  1034 1384 1386 1
  1035 1384 1385 1
  1036 1386 1388 1
  1037 1386 1387 1
  1038 1388 1389 1
  1039 1389 1398 ar
  1040 1389 1390 ar
  1041 1390 1391 ar
  1042 1391 1392 ar
  1043 1392 1398 ar
  1044 1392 1393 ar
  1045 1393 1395 ar
  1046 1393 1394 1
  1047 1395 1396 ar
  1048 1396 1397 ar
  1049 1397 1398 ar
  1050 1352 1377 1
  1051 1410 1412 1
  1052 1410 1411 1
  1053 1410 1413 1
  1054 1413 1414 1
  1055 1414 1415 1
  1056 1415 1417 1
  1057 1415 1416 1
  1058 1416 1421 1
  1059 1417 1418 1
  1060 1417 1419 1
  1061 1419 1420 1
  1062 1419 1421 1
  1063 1421 1422 1
  1064 1422 1423 ar
  1065 1422 1432 ar
  1066 1423 1424 ar
  1067 1424 1425 ar
  1068 1425 1432 ar
  1069 1425 1426 1
  1070 1426 1427 2
  1071 1426 1428 am
  1072 1428 1429 1
  1073 1429 1430 2
  1074 1429 1431 2
  1075 1431 1432 1
  1076 1385 1410 1
  1077 1444 1445 1
  1078 1444 1446 1
  1079 1444 1447 1
  1080 1447 1448 1
  1081 1448 1449 1
  1082 1449 1451 1
  1083 1449 1450 1
  1084 1450 1455 1
  1085 1451 1453 1
  1086 1451 1452 1
  1087 1453 1455 1
  1088 1453 1454 1
  1089 1455 1456 1
  1090 1456 1465 ar
  1091 1456 1457 ar
  1092 1457 1458 ar
  1093 1458 1459 ar
  1094 1459 1465 ar
  1095 1459 1460 ar
  1096 1460 1462 ar
  1097 1460 1461 1
  1098 1462 1463 ar
  1099 1463 1464 ar
  1100 1464 1465 ar
  1101 1418 1444 1
  1102 1477 1479 1
  1103 1477 1478 1
  1104 1477 1480 1
  1105 1480 1481 1
  1106 1481 1482 1
  1107 1482 1484 1
  1108 1482 1483 1
  1109 1483 1488 1
  1110 1484 1485 1
  1111 1484 1486 1
  1112 1486 1487 1
  1113 1486 1488 1
  1114 1488 1489 1
  1115 1489 1490 ar
  1116 1489 1499 ar
  1117 1490 1491 ar
  1118 1491 1492 ar
  1119 1492 1499 ar
  1120 1492 1493 1
  1121 1493 1494 2
  1122 1493 1495 am
  1123 1495 1496 1
  1124 1496 1497 2
  1125 1496 1498 2
  1126 1498 1499 1
  1127 1452 1477 1
  1128 1511 1512 1
  1129 1511 1513 1
  1130 1511 1514 1
  1131 1514 1515 1
  1132 1515 1516 1
  1133 1516 1518 1
  1134 1516 1517 1
  1135 1517 1522 1
  1136 1518 1520 1
  1137 1518 1519 1
  1138 1520 1521 1
  1139 1520 1522 1
  1140 1522 1523 1
  1141 1523 1524 am
  1142 1523 1530 1
  1143 1524 1526 1
  1144 1524 1525 2
  1145 1526 1527 2
  1146 1527 1529 2
  1147 1527 1528 2
  1148 1529 1530 2
  1149 1485 1511 1
  1150 1542 1543 1
  1151 1542 1544 1
  1152 1542 1545 1
  1153 1545 1546 1
  1154 1546 1547 1
  1155 1547 1549 1
  1156 1547 1548 1
  1157 1548 1553 1
  1158 1549 1551 1
  1159 1549 1550 1
  1160 1551 1552 1
  1161 1551 1553 1
  1162 1553 1554 1
  1163 1554 1555 am
  1164 1554 1561 1
  1165 1555 1557 1
  1166 1555 1556 2
  1167 1557 1558 2
  1168 1558 1560 2
  1169 1558 1559 2
  1170 1560 1561 2
  1171 1519 1542 1
  1172 1573 1574 1
  1173 1573 1575 1
  1174 1573 1576 1
  1175 1576 1577 1
  1176 1577 1578 1
  1177 1578 1580 1
  1178 1578 1579 1
  1179 1579 1584 1
  1180 1580 1582 1
  1181 1580 1581 1
  1182 1582 1583 1
  1183 1582 1584 1
  1184 1584 1585 1
  1185 1585 1586 am
  1186 1585 1592 1
  1187 1586 1587 2
  1188 1586 1588 am
  1189 1588 1589 am
  1190 1589 1591 1
  1191 1589 1590 2
  1192 1591 1592 2
  1193 1550 1573 1
  1194 1603 1604 1
  1195 1603 1605 1
  1196 1603 1606 1
  1197 1606 1607 1
  1198 1607 1608 1
  1199 1608 1610 1
  1200 1608 1609 1
  1201 1609 1614 1
  1202 1610 1612 1
  1203 1610 1611 1
  1204 1612 1613 1
  1205 1612 1614 1
  1206 1614 1615 1
  1207 1615 1616 am
  1208 1615 1622 1
  1209 1616 1617 2
  1210 1616 1618 am
  1211 1618 1619 am
  1212 1619 1621 1
  1213 1619 1620 2
  1214 1621 1622 2
  1215 1581 1603 1
  1216 1633 1634 1
  1217 1633 1635 1
  1218 1633 1636 1
  1219 1636 1637 1
  1220 1637 1638 1
  1221 1638 1640 1
  1222 1638 1639 1
  1223 1639 1644 1
  1224 1640 1642 1
  1225 1640 1641 1
  1226 1642 1644 1
  1227 1642 1643 1
  1228 1644 1645 1
  1229 1645 1654 ar
  1230 1645 1646 ar
  1231 1646 1647 ar
  1232 1647 1648 ar
  1233 1648 1654 ar
  1234 1648 1649 ar
  1235 1649 1651 ar
  1236 1649 1650 1
  1237 1651 1652 ar
  1238 1652 1653 ar
  1239 1653 1654 ar
  1240 1611 1633 1
  1241 1666 1667 1
  1242 1666 1668 1
  1243 1666 1669 1
  1244 1669 1670 1
  1245 1670 1671 1
  1246 1671 1673 1
  1247 1671 1672 1
  1248 1672 1677 1
  1249 1673 1675 1
  1250 1673 1674 1
  1251 1675 1677 1
  1252 1675 1676 1
  1253 1677 1678 1
  1254 1678 1687 ar
  1255 1678 1679 ar
  1256 1679 1680 ar
  1257 1680 1681 ar
  1258 1681 1687 ar
  1259 1681 1682 ar
  1260 1682 1684 ar
  1261 1682 1683 1
  1262 1684 1685 ar
  1263 1685 1686 ar
  1264 1686 1687 ar
  1265 1641 1666 1
  1266 1699 1700 1
  1267 1699 1701 1
  1268 1699 1702 1
  1269 1702 1703 1
  1270 1703 1704 1
  1271 1704 1706 1
  1272 1704 1705 1
  1273 1705 1710 1
  1274 1706 1708 1
  1275 1706 1707 1
  1276 1708 1710 1
  1277 1708 1709 1
  1278 1710 1711 1
  1279 1711 1720 ar
  1280 1711 1712 ar
  1281 1712 1713 ar
  1282 1713 1714 ar
  1283 1714 1720 ar
  1284 1714 1715 ar
  1285 1715 1717 ar
  1286 1715 1716 1
  1287 1717 1718 ar
  1288 1718 1719 ar
  1289 1719 1720 ar
  1290 1674 1699 1
  1291 1732 1733 1
  1292 1732 1734 1
  1293 1732 1735 1
  1294 1735 1736 1
  1295 1736 1737 1
  1296 1737 1739 1
  1297 1737 1738 1
  1298 1738 1743 1
  1299 1739 1741 1
  1300 1739 1740 1
  1301 1741 1742 1
  1302 1741 1743 1
  1303 1743 1744 1
  1304 1744 1745 am
  1305 1744 1751 1
  1306 1745 1747 1
  1307 1745 1746 2
  1308 1747 1748 2
  1309 1748 1750 2
  1310 1748 1749 2
  1311 1750 1751 2
  1312 1707 1732 1
  1313 1763 1764 1
  1314 1763 1765 1
  1315 1763 1766 1
  1316 1766 1767 1
  1317 1767 1768 1
  1318 1768 1770 1
  1319 1768 1769 1
  1320 1769 1774 1
  1321 1770 1772 1
  1322 1770 1771 1
  1323 1772 1773 1
  1324 1772 1774 1
  1325 1774 1775 1
  1326 1775 1776 am
  1327 1775 1782 1
  1328 1776 1777 2
  1329 1776 1778 am
  1330 1778 1779 am
  1331 1779 1781 1
  1332 1779 1780 2
  1333 1781 1782 2
  1334 1740 1763 1
  1335 1793 1794 1
  1336 1793 1795 1
  1337 1793 1796 1
  1338 1796 1797 1
  1339 1797 1798 1
  1340 1798 1800 1
  1341 1798 1799 1
  1342 1799 1804 1
  1343 1800 1802 1
  1344 1800 1801 1
  1345 1802 1803 1
  1346 1802 1804 1
  1347 1804 1805 1
  1348 1805 1806 am
  1349 1805 1812 1
  1350 1806 1808 1
  1351 1806 1807 2
  1352 1808 1809 2
  1353 1809 1811 2
  1354 1809 1810 2
  1355 1811 1812 2
  1356 1771 1793 1
  1357 1824 1825 1
  1358 1824 1826 1
  1359 1824 1827 1
  1360 1827 1828 1
  1361 1828 1829 1
  1362 1829 1831 1
  1363 1829 1830 1
  1364 1830 1835 1
  1365 1831 1833 1
  1366 1831 1832 1
  1367 1833 1834 1
  1368 1833 1835 1
  1369 1835 1836 1
  1370 1836 1837 am
  1371 1836 1843 1
  1372 1837 1838 2
  1373 1837 1839 am
  1374 1839 1840 am
  1375 1840 1842 1
  1376 1840 1841 2
  1377 1842 1843 2
  1378 1801 1824 1
  1379 1854 1855 1
  1380 1854 1856 1
  1381 1854 1857 1
  1382 1857 1858 1
  1383 1858 1859 1
  1384 1859 1861 1
  1385 1859 1860 1
  1386 1860 1865 1
  1387 1861 1863 1
  1388 1861 1862 1
  1389 1863 1864 1
  1390 1863 1865 1
  1391 1865 1866 1
  1392 1866 1867 am
  1393 1866 1873 1
  1394 1867 1868 2
  1395 1867 1869 am
  1396 1869 1870 am
  1397 1870 1872 1
  1398 1870 1871 2
  1399 1872 1873 2
  1400 1832 1854 1
  1401 1884 1886 1
  1402 1884 1885 1
  1403 1884 1887 1
  1404 1887 1888 1
  1405 1888 1889 1
  1406 1889 1891 1
  1407 1889 1890 1
  1408 1890 1895 1
  1409 1891 1892 1
  1410 1891 1893 1
  1411 1893 1894 1
  1412 1893 1895 1
  1413 1895 1896 1
  1414 1896 1897 ar
  1415 1896 1906 ar
  1416 1897 1898 ar
  1417 1898 1899 ar
  1418 1899 1906 ar
  1419 1899 1900 1
  1420 1900 1901 2
  1421 1900 1902 am
  1422 1902 1903 1
  1423 1903 1904 2
  1424 1903 1905 2
  1425 1905 1906 1
  1426 1862 1884 1
  1427 1918 1919 1
  1428 1918 1920 1
  1429 1918 1921 1
  1430 1921 1922 1
  1431 1922 1923 1
  1432 1923 1925 1
  1433 1923 1924 1
  1434 1924 1929 1
  1435 1925 1927 1
  1436 1925 1926 1
  1437 1927 1929 1
  1438 1927 1928 1
  1439 1929 1930 1
  1440 1930 1939 ar
  1441 1930 1931 ar
  1442 1931 1932 ar
  1443 1932 1933 ar
  1444 1933 1939 ar
  1445 1933 1934 ar
  1446 1934 1936 ar
  1447 1934 1935 1
  1448 1936 1937 ar
  1449 1937 1938 ar
  1450 1938 1939 ar
  1451 1892 1918 1
  1452 1951 1952 1
  1453 1951 1953 1
  1454 1951 1954 1
  1455 1954 1955 1
  1456 1955 1956 1
  1457 1956 1958 1
  1458 1956 1957 1
  1459 1957 1962 1
  1460 1958 1960 1
  1461 1958 1959 1
  1462 1960 1961 1
  1463 1960 1962 1
  1464 1962 1963 1
  1465 1963 1964 am
  1466 1963 1970 1
  1467 1964 1965 2
  1468 1964 1966 am
  1469 1966 1967 am
  1470 1967 1969 1
  1471 1967 1968 2
  1472 1969 1970 2
  1473 1926 1951 1
  1474 1981 1982 1
  1475 1981 1983 1
  1476 1981 1984 1
  1477 1984 1985 1
  1478 1985 1986 1
  1479 1986 1988 1
  1480 1986 1987 1
  1481 1987 1992 1
  1482 1988 1990 1
  1483 1988 1989 1
  1484 1990 1991 1
  1485 1990 1992 1
  1486 1992 1993 1
  1487 1993 1994 am
  1488 1993 2000 1
  1489 1994 1995 2
  1490 1994 1996 am
  1491 1996 1997 am
  1492 1997 1999 1
  1493 1997 1998 2
  1494 1999 2000 2
  1495 1959 1981 1
  1496 2011 2012 1
  1497 2011 2013 1
  1498 2011 2014 1
  1499 2014 2015 1
  1500 2015 2016 1
  1501 2016 2018 1
  1502 2016 2017 1
  1503 2017 2022 1
  1504 2018 2020 1
  1505 2018 2019 1
  1506 2020 2022 1
  1507 2020 2021 1
  1508 2022 2023 1
  1509 2023 2032 ar
  1510 2023 2024 ar
  1511 2024 2025 ar
  1512 2025 2026 ar
  1513 2026 2032 ar
  1514 2026 2027 ar
  1515 2027 2029 ar
  1516 2027 2028 1
  1517 2029 2030 ar
  1518 2030 2031 ar
  1519 2031 2032 ar
  1520 1989 2011 1
  1521 2044 2045 1
  1522 2044 2046 1
  1523 2044 2047 1
  1524 2047 2048 1
  1525 2048 2049 1
  1526 2049 2051 1
  1527 2049 2050 1
  1528 2050 2055 1
  1529 2051 2053 1
  1530 2051 2052 1
  1531 2053 2054 1
  1532 2053 2055 1
  1533 2055 2056 1
  1534 2056 2057 am
  1535 2056 2063 1
  1536 2057 2058 2
  1537 2057 2059 am
  1538 2059 2060 am
  1539 2060 2062 1
  1540 2060 2061 2
  1541 2062 2063 2
  1542 2019 2044 1
  1543 2074 2075 1
  1544 2074 2076 1
  1545 2074 2077 1
  1546 2077 2078 1
  1547 2078 2079 1
  1548 2079 2081 1
  1549 2079 2080 1
  1550 2080 2085 1
  1551 2081 2083 1
  1552 2081 2082 1
  1553 2083 2084 1
  1554 2083 2085 1
  1555 2085 2086 1
  1556 2086 2087 am
  1557 2086 2093 1
  1558 2087 2089 1
  1559 2087 2088 2
  1560 2089 2090 2
  1561 2090 2092 2
  1562 2090 2091 2
  1563 2092 2093 2
  1564 2052 2074 1
  1565 2105 2106 1
  1566 2105 2107 1
  1567 2105 2108 1
  1568 2108 2109 1
  1569 2109 2110 1
  1570 2110 2112 1
  1571 2110 2111 1
  1572 2111 2116 1
  1573 2112 2114 1
  1574 2112 2113 1
  1575 2114 2115 1
  1576 2114 2116 1
  1577 2116 2117 1
  1578 2117 2118 am
  1579 2117 2124 1
  1580 2118 2119 2
  1581 2118 2120 am
  1582 2120 2121 am
  1583 2121 2123 1
  1584 2121 2122 2
  1585 2123 2124 2
  1586 2082 2105 1
  1587 2135 2136 1
  1588 2135 2137 1
  1589 2135 2138 1
  1590 2138 2139 1
  1591 2139 2140 1
  1592 2140 2142 1
  1593 2140 2141 1
  1594 2141 2146 1
  1595 2142 2144 1
  1596 2142 2143 1
  1597 2144 2145 1
  1598 2144 2146 1
  1599 2146 2147 1
  1600 2147 2148 am
  1601 2147 2154 1
  1602 2148 2149 2
  1603 2148 2150 am
  1604 2150 2151 am
  1605 2151 2153 1
  1606 2151 2152 2
  1607 2153 2154 2
  1608 2113 2135 1
  1609 2165 2166 1
  1610 2165 2167 1
  1611 2165 2168 1
  1612 2168 2169 1
  1613 2169 2170 1
  1614 2170 2172 1
  1615 2170 2171 1
  1616 2171 2176 1
  1617 2172 2174 1
  1618 2172 2173 1
  1619 2174 2175 1
  1620 2174 2176 1
  1621 2176 2177 1
  1622 2177 2178 am
  1623 2177 2184 1
  1624 2178 2180 1
  1625 2178 2179 2
  1626 2180 2181 2
  1627 2181 2183 2
  1628 2181 2182 2
  1629 2183 2184 2
  1630 2143 2165 1
  1631 2196 2197 1
  1632 2196 2198 1
  1633 2196 2199 1
  1634 2199 2200 1
  1635 2200 2201 1
  1636 2201 2203 1
  1637 2201 2202 1
  1638 2202 2207 1
  1639 2203 2205 1
  1640 2203 2204 1
  1641 2205 2206 1
  1642 2205 2207 1
  1643 2207 2208 1
  1644 2208 2209 am
  1645 2208 2215 1
  1646 2209 2211 1
  1647 2209 2210 2
  1648 2211 2212 2
  1649 2212 2214 2
  1650 2212 2213 2
  1651 2214 2215 2
  1652 2173 2196 1
  1653 2230 2231 1
  1654 2231 2232 1
  1655 2232 2234 1
  1656 2232 2233 1
  1657 2233 2238 1
  1658 2234 2236 1
  1659 2234 2235 1
  1660 2236 2237 1
  1661 2236 2238 1
  1662 2238 2239 1
  1663 2239 2246 1
  1664 2239 2240 am
  1665 2240 2241 2
  1666 2240 2242 1
  1667 2242 2243 2
  1668 2243 2245 2
  1669 2243 2244 2
  1670 2245 2246 2
  1671 2227 2228 1
  1672 2227 2229 1
  1673 2227 2230 1
  1674 2204 2227 1
  1675   21    2 1
  1676   22    2 1
  1677   23    3 1
  1678   24    5 1
  1679   25    7 1
  1680   26    9 1
  1681   27   11 1
  1682   28   16 1
  1683   56   37 1
  1684   57   37 1
  1685   58   38 1
  1686   59   40 1
  1687   60   42 1
  1688   61   44 1
  1689   62   46 1
  1690   63   51 1
  1691   90   71 1
  1692   91   71 1
  1693   92   72 1
  1694   93   74 1
  1695   94   76 1
  1696   95   78 1
  1697   96   80 1
  1698   97   85 1
  1699  123  105 1
  1700  124  105 1
  1701  125  106 1
  1702  126  108 1
  1703  127  110 1
  1704  128  112 1
  1705  129  114 1
  1706  130  120 1
  1707  156  138 1
  1708  157  138 1
  1709  158  139 1
  1710  159  141 1
  1711  160  143 1
  1712  161  145 1
  1713  162  147 1
  1714  163  153 1
  1715  190  171 1
  1716  191  171 1
  1717  192  172 1
  1718  193  174 1
  1719  194  176 1
  1720  195  178 1
  1721  196  180 1
  1722  197  185 1
  1723  223  205 1
  1724  224  205 1
  1725  225  206 1
  1726  226  208 1
  1727  227  210 1
  1728  228  212 1
  1729  229  214 1
  1730  230  220 1
  1731  254  238 1
  1732  255  238 1
  1733  256  239 1
  1734  257  241 1
  1735  258  243 1
  1736  259  245 1
  1737  260  249 1
  1738  261  252 1
  1739  262  253 1
  1740  286  268 1
  1741  287  268 1
  1742  288  269 1
  1743  289  271 1
  1744  290  273 1
  1745  291  275 1
  1746  292  277 1
  1747  293  283 1
  1748  317  301 1
  1749  318  301 1
  1750  319  302 1
  1751  320  304 1
  1752  321  306 1
  1753  322  308 1
  1754  323  312 1
  1755  324  315 1
  1756  325  316 1
  1757  349  331 1
  1758  350  331 1
  1759  351  332 1
  1760  352  334 1
  1761  353  336 1
  1762  354  338 1
  1763  355  340 1
  1764  356  346 1
  1765  382  364 1
  1766  383  364 1
  1767  384  365 1
  1768  385  367 1
  1769  386  369 1
  1770  387  371 1
  1771  388  373 1
  1772  389  379 1
  1773  413  397 1
  1774  414  397 1
  1775  415  398 1
  1776  416  400 1
  1777  417  402 1
  1778  418  404 1
  1779  419  408 1
  1780  420  411 1
  1781  421  412 1
  1782  443  427 1
  1783  444  427 1
  1784  445  428 1
  1785  446  430 1
  1786  447  432 1
  1787  448  434 1
  1788  449  441 1
  1789  450  442 1
  1790  474  458 1
  1791  475  458 1
  1792  476  459 1
  1793  477  461 1
  1794  478  463 1
  1795  479  465 1
  1796  480  472 1
  1797  481  473 1
  1798  505  489 1
  1799  506  489 1
  1800  507  490 1
  1801  508  492 1
  1802  509  494 1
  1803  510  496 1
  1804  511  500 1
  1805  512  503 1
  1806  513  504 1
  1807  537  519 1
  1808  538  519 1
  1809  539  520 1
  1810  540  522 1
  1811  541  524 1
  1812  542  526 1
  1813  543  528 1
  1814  544  534 1
  1815  570  552 1
  1816  571  552 1
  1817  572  553 1
  1818  573  555 1
  1819  574  557 1
  1820  575  559 1
  1821  576  561 1
  1822  577  567 1
  1823  601  585 1
  1824  602  585 1
  1825  603  586 1
  1826  604  588 1
  1827  605  590 1
  1828  606  592 1
  1829  607  596 1
  1830  608  599 1
  1831  609  600 1
  1832  634  615 1
  1833  635  615 1
  1834  636  616 1
  1835  637  618 1
  1836  638  620 1
  1837  639  622 1
  1838  640  624 1
  1839  641  629 1
  1840  667  649 1
  1841  668  649 1
  1842  669  650 1
  1843  670  652 1
  1844  671  654 1
  1845  672  656 1
  1846  673  658 1
  1847  674  664 1
  1848  698  682 1
  1849  699  682 1
  1850  700  683 1
  1851  701  685 1
  1852  702  687 1
  1853  703  689 1
  1854  704  693 1
  1855  705  696 1
  1856  706  697 1
  1857  730  712 1
  1858  731  712 1
  1859  732  713 1
  1860  733  715 1
  1861  734  717 1
  1862  735  719 1
  1863  736  721 1
  1864  737  727 1
  1865  761  745 1
  1866  762  745 1
  1867  763  746 1
  1868  764  748 1
  1869  765  750 1
  1870  766  752 1
  1871  767  756 1
  1872  768  759 1
  1873  769  760 1
  1874  794  775 1
  1875  795  775 1
  1876  796  776 1
  1877  797  778 1
  1878  798  780 1
  1879  799  782 1
  1880  800  784 1
  1881  801  789 1
  1882  828  809 1
  1883  829  809 1
  1884  830  810 1
  1885  831  812 1
  1886  832  814 1
  1887  833  816 1
  1888  834  818 1
  1889  835  823 1
  1890  859  843 1
  1891  860  843 1
  1892  861  844 1
  1893  862  846 1
  1894  863  848 1
  1895  864  850 1
  1896  865  854 1
  1897  866  857 1
  1898  867  858 1
  1899  889  873 1
  1900  890  873 1
  1901  891  874 1
  1902  892  876 1
  1903  893  878 1
  1904  894  880 1
  1905  895  884 1
  1906  896  887 1
  1907  897  888 1
  1908  919  903 1
  1909  920  903 1
  1910  921  904 1
  1911  922  906 1
  1912  923  908 1
  1913  924  910 1
  1914  925  914 1
  1915  926  917 1
  1916  927  918 1
  1917  952  933 1
  1918  953  933 1
  1919  954  934 1
  1920  955  936 1
  1921  956  938 1
  1922  957  940 1
  1923  958  942 1
  1924  959  947 1
  1925  986  967 1
  1926  987  967 1
  1927  988  968 1
  1928  989  970 1
  1929  990  972 1
  1930  991  974 1
  1931  992  976 1
  1932  993  981 1
  1933 1020 1001 1
  1934 1021 1001 1
  1935 1022 1002 1
  1936 1023 1004 1
  1937 1024 1006 1
  1938 1025 1008 1
  1939 1026 1010 1
  1940 1027 1015 1
  1941 1053 1035 1
  1942 1054 1035 1
  1943 1055 1036 1
  1944 1056 1038 1
  1945 1057 1040 1
  1946 1058 1042 1
  1947 1059 1044 1
  1948 1060 1050 1
  1949 1087 1068 1
  1950 1088 1068 1
  1951 1089 1069 1
  1952 1090 1071 1
  1953 1091 1073 1
  1954 1092 1075 1
  1955 1093 1077 1
  1956 1094 1082 1
  1957 1118 1102 1
  1958 1119 1102 1
  1959 1120 1103 1
  1960 1121 1105 1
  1961 1122 1107 1
  1962 1123 1109 1
  1963 1124 1113 1
  1964 1125 1116 1
  1965 1126 1117 1
  1966 1148 1132 1
  1967 1149 1132 1
  1968 1150 1133 1
  1969 1151 1135 1
  1970 1152 1137 1
  1971 1153 1139 1
  1972 1154 1143 1
  1973 1155 1146 1
  1974 1156 1147 1
  1975 1178 1162 1
  1976 1179 1162 1
  1977 1180 1163 1
  1978 1181 1165 1
  1979 1182 1167 1
  1980 1183 1169 1
  1981 1184 1173 1
  1982 1185 1176 1
  1983 1186 1177 1
  1984 1208 1192 1
  1985 1209 1192 1
  1986 1210 1193 1
  1987 1211 1195 1
  1988 1212 1197 1
  1989 1213 1199 1
  1990 1214 1206 1
  1991 1215 1207 1
  1992 1239 1223 1
  1993 1240 1223 1
  1994 1241 1224 1
  1995 1242 1226 1
  1996 1243 1228 1
  1997 1244 1230 1
  1998 1245 1234 1
  1999 1246 1237 1
  2000 1247 1238 1
  2001 1271 1253 1
  2002 1272 1253 1
  2003 1273 1254 1
  2004 1274 1256 1
  2005 1275 1258 1
  2006 1276 1260 1
  2007 1277 1262 1
  2008 1278 1268 1
  2009 1302 1286 1
  2010 1303 1286 1
  2011 1304 1287 1
  2012 1305 1289 1
  2013 1306 1291 1
  2014 1307 1293 1
  2015 1308 1300 1
  2016 1309 1301 1
  2017 1333 1317 1
  2018 1334 1317 1
  2019 1335 1318 1
  2020 1336 1320 1
  2021 1337 1322 1
  2022 1338 1324 1
  2023 1339 1331 1
  2024 1340 1332 1
  2025 1366 1348 1
  2026 1367 1348 1
  2027 1368 1349 1
  2028 1369 1351 1
  2029 1370 1353 1
  2030 1371 1355 1
  2031 1372 1357 1
  2032 1373 1363 1
  2033 1399 1381 1
  2034 1400 1381 1
  2035 1401 1382 1
  2036 1402 1384 1
  2037 1403 1386 1
  2038 1404 1388 1
  2039 1405 1390 1
  2040 1406 1396 1
  2041 1433 1414 1
  2042 1434 1414 1
  2043 1435 1415 1
  2044 1436 1417 1
  2045 1437 1419 1
  2046 1438 1421 1
  2047 1439 1423 1
  2048 1440 1428 1
  2049 1466 1448 1
  2050 1467 1448 1
  2051 1468 1449 1
  2052 1469 1451 1
  2053 1470 1453 1
  2054 1471 1455 1
  2055 1472 1457 1
  2056 1473 1463 1
  2057 1500 1481 1
  2058 1501 1481 1
  2059 1502 1482 1
  2060 1503 1484 1
  2061 1504 1486 1
  2062 1505 1488 1
  2063 1506 1490 1
  2064 1507 1495 1
  2065 1531 1515 1
  2066 1532 1515 1
  2067 1533 1516 1
  2068 1534 1518 1
  2069 1535 1520 1
  2070 1536 1522 1
  2071 1537 1529 1
  2072 1538 1530 1
  2073 1562 1546 1
  2074 1563 1546 1
  2075 1564 1547 1
  2076 1565 1549 1
  2077 1566 1551 1
  2078 1567 1553 1
  2079 1568 1560 1
  2080 1569 1561 1
  2081 1593 1577 1
  2082 1594 1577 1
  2083 1595 1578 1
  2084 1596 1580 1
  2085 1597 1582 1
  2086 1598 1584 1
  2087 1599 1588 1
  2088 1600 1591 1
  2089 1601 1592 1
  2090 1623 1607 1
  2091 1624 1607 1
  2092 1625 1608 1
  2093 1626 1610 1
  2094 1627 1612 1
  2095 1628 1614 1
  2096 1629 1618 1
  2097 1630 1621 1
  2098 1631 1622 1
  2099 1655 1637 1
  2100 1656 1637 1
  2101 1657 1638 1
  2102 1658 1640 1
  2103 1659 1642 1
  2104 1660 1644 1
  2105 1661 1646 1
  2106 1662 1652 1
  2107 1688 1670 1
  2108 1689 1670 1
  2109 1690 1671 1
  2110 1691 1673 1
  2111 1692 1675 1
  2112 1693 1677 1
  2113 1694 1679 1
  2114 1695 1685 1
  2115 1721 1703 1
  2116 1722 1703 1
  2117 1723 1704 1
  2118 1724 1706 1
  2119 1725 1708 1
  2120 1726 1710 1
  2121 1727 1712 1
  2122 1728 1718 1
  2123 1752 1736 1
  2124 1753 1736 1
  2125 1754 1737 1
  2126 1755 1739 1
  2127 1756 1741 1
  2128 1757 1743 1
  2129 1758 1750 1
  2130 1759 1751 1
  2131 1783 1767 1
  2132 1784 1767 1
  2133 1785 1768 1
  2134 1786 1770 1
  2135 1787 1772 1
  2136 1788 1774 1
  2137 1789 1778 1
  2138 1790 1781 1
  2139 1791 1782 1
  2140 1813 1797 1
  2141 1814 1797 1
  2142 1815 1798 1
  2143 1816 1800 1
  2144 1817 1802 1
  2145 1818 1804 1
  2146 1819 1811 1
  2147 1820 1812 1
  2148 1844 1828 1
  2149 1845 1828 1
  2150 1846 1829 1
  2151 1847 1831 1
  2152 1848 1833 1
  2153 1849 1835 1
  2154 1850 1839 1
  2155 1851 1842 1
  2156 1852 1843 1
  2157 1874 1858 1
  2158 1875 1858 1
  2159 1876 1859 1
  2160 1877 1861 1
  2161 1878 1863 1
  2162 1879 1865 1
  2163 1880 1869 1
  2164 1881 1872 1
  2165 1882 1873 1
  2166 1907 1888 1
  2167 1908 1888 1
  2168 1909 1889 1
  2169 1910 1891 1
  2170 1911 1893 1
  2171 1912 1895 1
  2172 1913 1897 1
  2173 1914 1902 1
  2174 1940 1922 1
  2175 1941 1922 1
  2176 1942 1923 1
  2177 1943 1925 1
  2178 1944 1927 1
  2179 1945 1929 1
  2180 1946 1931 1
  2181 1947 1937 1
  2182 1971 1955 1
  2183 1972 1955 1
  2184 1973 1956 1
  2185 1974 1958 1
  2186 1975 1960 1
  2187 1976 1962 1
  2188 1977 1966 1
  2189 1978 1969 1
  2190 1979 1970 1
  2191 2001 1985 1
  2192 2002 1985 1
  2193 2003 1986 1
  2194 2004 1988 1
  2195 2005 1990 1
  2196 2006 1992 1
  2197 2007 1996 1
  2198 2008 1999 1
  2199 2009 2000 1
  2200 2033 2015 1
  2201 2034 2015 1
  2202 2035 2016 1
  2203 2036 2018 1
  2204 2037 2020 1
  2205 2038 2022 1
  2206 2039 2024 1
  2207 2040 2030 1
  2208 2064 2048 1
  2209 2065 2048 1
  2210 2066 2049 1
  2211 2067 2051 1
  2212 2068 2053 1
  2213 2069 2055 1
  2214 2070 2059 1
  2215 2071 2062 1
  2216 2072 2063 1
  2217 2094 2078 1
  2218 2095 2078 1
  2219 2096 2079 1
  2220 2097 2081 1
  2221 2098 2083 1
  2222 2099 2085 1
  2223 2100 2092 1
  2224 2101 2093 1
  2225 2125 2109 1
  2226 2126 2109 1
  2227 2127 2110 1
  2228 2128 2112 1
  2229 2129 2114 1
  2230 2130 2116 1
  2231 2131 2120 1
  2232 2132 2123 1
  2233 2133 2124 1
  2234 2155 2139 1
  2235 2156 2139 1
  2236 2157 2140 1
  2237 2158 2142 1
  2238 2159 2144 1
  2239 2160 2146 1
  2240 2161 2150 1
  2241 2162 2153 1
  2242 2163 2154 1
  2243 2185 2169 1
  2244 2186 2169 1
  2245 2187 2170 1
  2246 2188 2172 1
  2247 2189 2174 1
  2248 2190 2176 1
  2249 2191 2183 1
  2250 2192 2184 1
  2251 2216 2200 1
  2252 2217 2200 1
  2253 2218 2201 1
  2254 2219 2203 1
  2255 2220 2205 1
  2256 2221 2207 1
  2257 2222 2214 1
  2258 2223 2215 1
  2259 2247 2231 1
  2260 2248 2231 1
  2261 2249 2232 1
  2262 2250 2234 1
  2263 2251 2236 1
  2264 2252 2238 1
  2265 2253 2245 1
  2266 2254 2246 1
  2267   29   18 1
  2268   30   18 1
  2269   64   53 1
  2270   65   53 1
  2271   98   87 1
  2272   99   87 1
  2273  198  187 1
  2274  199  187 1
  2275  451  440 1
  2276  452  440 1
  2277  482  471 1
  2278  483  471 1
  2279  642  631 1
  2280  643  631 1
  2281  802  791 1
  2282  803  791 1
  2283  836  825 1
  2284  837  825 1
  2285  960  949 1
  2286  961  949 1
  2287  994  983 1
  2288  995  983 1
  2289 1028 1017 1
  2290 1029 1017 1
  2291 1095 1084 1
  2292 1096 1084 1
  2293 1216 1205 1
  2294 1217 1205 1
  2295 1310 1299 1
  2296 1311 1299 1
  2297 1341 1330 1
  2298 1342 1330 1
  2299 1441 1430 1
  2300 1442 1430 1
  2301 1508 1497 1
  2302 1509 1497 1
  2303 1539 1528 1
  2304 1540 1528 1
  2305 1570 1559 1
  2306 1571 1559 1
  2307 1760 1749 1
  2308 1761 1749 1
  2309 1821 1810 1
  2310 1822 1810 1
  2311 1915 1904 1
  2312 1916 1904 1
  2313 2102 2091 1
  2314 2103 2091 1
  2315 2193 2182 1
  2316 2194 2182 1
  2317 2224 2213 1
  2318 2225 2213 1
  2319 2255 2244 1
  2320 2256 2244 1
  2321  707  688 1
  2322 2010 1991 1
  2323  804  781 1
  2324 1572 1552 1
  2325  294  274 1
  2326 1127 1108 1
  2327  675  655 1
  2328 1187 1168 1
  2329 1696 1676 1
  2330 1792 1773 1
  2331  644  621 1
  2332  200  177 1
  2333 1474 1454 1
  2334 1374 1354 1
  2335 2104 2084 1
  2336  131  111 1
  2337  514  495 1
  2338 1823 1803 1
  2339 1443 1420 1
  2340 1343 1323 1
  2341 2041 2021 1
  2342 2073 2054 1
  2343 1030 1007 1
  2344 2195 2175 1
  2345 1883 1864 1
  2346  898  879 1
  2347 1097 1074 1
  2348  453  433 1
  2349 2134 2115 1
  2350  996  973 1
  2351  164  144 1
  2352  484  464 1
  2353 1407 1387 1
  2354 1853 1834 1
  2355 1541 1521 1
  2356  422  403 1
  2357  928  909 1
  2358 2164 2145 1
  2359 1248 1229 1
  2360 1917 1894 1
  2361 1312 1292 1
  2362 1475 1461 1
  2363 1476 1461 1
  2364 1697 1683 1
  2365 1698 1683 1
  2366  165  151 1
  2367  166  151 1
  2368  545  532 1
  2369  546  532 1
  2370 2042 2028 1
  2371 2043 2028 1
  2372 1061 1048 1
  2373 1062 1048 1
  2374  390  377 1
  2375  391  377 1
  2376 1663 1650 1
  2377 1664 1650 1
  2378 1279 1266 1
  2379 1280 1266 1
  2380  231  218 1
  2381  232  218 1
  2382  132  118 1
  2383  133  118 1
  2384 1948 1935 1
  2385 1949 1935 1
  2386  295  281 1
  2387  296  281 1
  2388 1729 1716 1
  2389 1730 1716 1
  2390  676  662 1
  2391  677  662 1
  2392 1408 1394 1
  2393 1409 1394 1
  2394  357  344 1
  2395  358  344 1
  2396 1375 1361 1
  2397 1376 1361 1
  2398  578  565 1
  2399  579  565 1
  2400  738  725 1
  2401  739  725 1
  2402  392  370 1
  2403   66   43 1
  2404  547  525 1
  2405 1980 1961 1
  2406  233  211 1
  2407  868  849 1
  2408 1510 1487 1
  2409  100   77 1
  2410  263  244 1
  2411 1218 1198 1
  2412 1063 1041 1
  2413 1602 1583 1
  2414  610  591 1
  2415 1731 1709 1
  2416  962  939 1
  2417 1665 1643 1
  2418 1281 1259 1
  2419  326  307 1
  2420 1762 1742 1
  2421  838  815 1
  2422   31    8 1
  2423 1157 1138 1
  2424 1632 1613 1
  2425  770  751 1
  2426 1950 1928 1
  2427  359  337 1
  2428 2226 2206 1
  2429  580  558 1
  2430 2257 2235 1
  2431 2258 2237 1
  2432  740  718 1
  2433   32    1 1
@<TRIPOS>SUBSTRUCTURE
     1   G13       3 RESIDUE           4 X       G     1 ROOT
     2   G14      38 RESIDUE           4 X       G     2
     3   G15      72 RESIDUE           4 X       G     2
     4   A16     106 RESIDUE           4 X       A     2
     5   A17     139 RESIDUE           4 X       A     2
     6   G18     172 RESIDUE           4 X       G     2
     7   A19     206 RESIDUE           4 X       A     2
     8   U20     239 RESIDUE           4 X       U     2
     9   A21     269 RESIDUE           4 X       A     2
    10   U22     302 RESIDUE           4 X       U     2
    11   A23     332 RESIDUE           4 X       A     2
    12   A24     365 RESIDUE           4 X       A     2
    13   U25     398 RESIDUE           4 X       U     2
    14   C26     428 RESIDUE           4 X       C     2
    15   C27     459 RESIDUE           4 X       C     2
    16   U28     490 RESIDUE           4 X       U     2
    17   A29     520 RESIDUE           4 X       A     2
    18   A30     553 RESIDUE           4 X       A     2
    19   U31     586 RESIDUE           4 X       U     2
    20   G32     616 RESIDUE           4 X       G     2
    21   A33     650 RESIDUE           4 X       A     2
    22   U34     683 RESIDUE           4 X       U     2
    23   A35     713 RESIDUE           4 X       A     2
    24   U36     746 RESIDUE           4 X       U     2
    25   G37     776 RESIDUE           4 X       G     2
    26   G38     810 RESIDUE           4 X       G     2
    27   U39     844 RESIDUE           4 X       U     2
    28   U40     874 RESIDUE           4 X       U     2
    29   U41     904 RESIDUE           4 X       U     2
    30   G42     934 RESIDUE           4 X       G     2
    31   G43     968 RESIDUE           4 X       G     2
    32   G44    1002 RESIDUE           4 X       G     2
    33   A45    1036 RESIDUE           4 X       A     2
    34   G46    1069 RESIDUE           4 X       G     2
    35   U47    1103 RESIDUE           4 X       U     2
    36   U48    1133 RESIDUE           4 X       U     2
    37   U49    1163 RESIDUE           4 X       U     2
    38   C50    1193 RESIDUE           4 X       C     2
    39   U51    1224 RESIDUE           4 X       U     2
    40   A52    1254 RESIDUE           4 X       A     2
    41   C53    1287 RESIDUE           4 X       C     2
    42   C54    1318 RESIDUE           4 X       C     2
    43   A55    1349 RESIDUE           4 X       A     2
    44   A56    1382 RESIDUE           4 X       A     2
    45   G57    1415 RESIDUE           4 X       G     2
    46   A58    1449 RESIDUE           4 X       A     2
    47   G59    1482 RESIDUE           4 X       G     2
    48   C60    1516 RESIDUE           4 X       C     2
    49   C61    1547 RESIDUE           4 X       C     2
    50   U62    1578 RESIDUE           4 X       U     2
    51   U63    1608 RESIDUE           4 X       U     2
    52   A64    1638 RESIDUE           4 X       A     2
    53   A65    1671 RESIDUE           4 X       A     2
    54   A66    1704 RESIDUE           4 X       A     2
    55   C67    1737 RESIDUE           4 X       C     2
    56   U68    1768 RESIDUE           4 X       U     2
    57   C69    1798 RESIDUE           4 X       C     2
    58   U70    1829 RESIDUE           4 X       U     2
    59   U71    1859 RESIDUE           4 X       U     2
    60   G72    1889 RESIDUE           4 X       G     2
    61   A73    1923 RESIDUE           4 X       A     2
    62   U74    1956 RESIDUE           4 X       U     2
    63   U75    1986 RESIDUE           4 X       U     2
    64   A76    2016 RESIDUE           4 X       A     2
    65   U77    2049 RESIDUE           4 X       U     2
    66   C78    2079 RESIDUE           4 X       C     2
    67   U79    2110 RESIDUE           4 X       U     2
    68   U80    2140 RESIDUE           4 X       U     2
    69   C81    2170 RESIDUE           4 X       C     2
    70   C82    2201 RESIDUE           4 X       C     2
    71   C83    2232 RESIDUE           4 X       C     1
