@<TRIPOS>MOLECULE
6MCE.pdb
964 1038 30 0 0
NUCLEIC_ACID
AMBER ff14SB


@<TRIPOS>ATOM
      1 O5'         2.3880   -0.7160   -1.4400 O.3       1   G16      -0.6223
      2 C5'         1.9260   -1.1000   -2.7310 C.3       1   G16       0.0558
      3 C4'         2.2790   -0.0850   -3.8270 C.3       1   G16       0.1065
      4 O4'         1.7290    1.2100   -3.5840 O.3       1   G16      -0.3548
      5 C3'         3.7830    0.1050   -4.0310 C.3       1   G16       0.2022
      6 O3'         4.4050   -0.9540   -4.7530 O.3       1   G16      -0.5246
      7 C2'         3.7500    1.4240   -4.8150 C.3       1   G16       0.0670
      8 O2'         3.3490    1.2470   -6.1760 O.3       1   G16      -0.6139
      9 C1'         2.6320    2.1890   -4.1020 C.3       1   G16       0.0191
     10 N9          3.1690    3.0320   -3.0030 N.ar      1   G16       0.0492
     11 C8          3.1650    2.7820   -1.6520 C.ar      1   G16       0.1374
     12 N7          3.6350    3.7580   -0.9200 N.ar      1   G16      -0.5709
     13 C5          3.9920    4.7320   -1.8620 C.ar      1   G16       0.1744
     14 C6          4.5580    6.0460   -1.7000 C.2       1   G16       0.4770
     15 O6          4.8240    6.6570   -0.6660 O.2       1   G16      -0.5597
     16 N1          4.8420    6.6750   -2.8940 N.am      1   G16      -0.4787
     17 C2          4.5730    6.1370   -4.1080 C.2       1   G16       0.7657
     18 N2          4.9300    6.8340   -5.1530 N.pl3     1   G16      -0.9672
     19 N3          3.9990    4.9490   -4.3080 N.2       1   G16      -0.6323
     20 C4          3.7380    4.2810   -3.1410 C.ar      1   G16       0.1222
     21 H5'         0.8430   -1.2410   -2.7120 H         1   G16       0.0679
     22 H5''        2.3870   -2.0490   -3.0020 H         1   G16       0.0679
     23 H4'         1.8660   -0.4580   -4.7660 H         1   G16       0.1174
     24 H3'         4.2620    0.2580   -3.0620 H         1   G16       0.0615
     25 H2'         4.7020    1.9480   -4.7450 H         1   G16       0.0972
     26 HO2'        3.7710    0.4380   -6.5150 H         1   G16       0.4186
     27 H1'         2.1310    2.8410   -4.8220 H         1   G16       0.2006
     28 H8          2.7850    1.8600   -1.2350 H         1   G16       0.1640
     29 H1          5.2650    7.5920   -2.8410 H         1   G16       0.3424
     30 H21         5.4310    7.7130   -5.0310 H         1   G16       0.4364
     31 H22         4.7380    6.4560   -6.0660 H         1   G16       0.4364
     32 HO5'        1.7030   -0.1700   -1.0090 H         1   G16       0.4295
     33 P           5.9730   -1.2510   -4.5790 P.3       2   G17       1.1662
     34 OP1         6.3410   -2.3550   -5.4950 O.co2     2   G17      -0.7760
     35 OP2         6.2530   -1.3900   -3.1370 O.co2     2   G17      -0.7760
     36 O5'         6.6800    0.1000   -5.0650 O.3       2   G17      -0.4989
     37 C5'         6.7350    0.4480   -6.4370 C.3       2   G17       0.0558
     38 C4'         7.3450    1.8390   -6.6390 C.3       2   G17       0.1065
     39 O4'         6.5910    2.8940   -6.0500 O.3       2   G17      -0.3548
     40 C3'         8.7410    1.9680   -6.0440 C.3       2   G17       0.2022
     41 O3'         9.7040    1.2130   -6.7530 O.3       2   G17      -0.5246
     42 C2'         8.9030    3.4910   -6.1130 C.3       2   G17       0.0670
     43 O2'         9.1050    4.0020   -7.4300 O.3       2   G17      -0.6139
     44 C1'         7.5050    3.9170   -5.6480 C.3       2   G17       0.0191
     45 N9          7.4940    4.1060   -4.1760 N.ar      2   G17       0.0492
     46 C8          7.0140    3.2860   -3.1830 C.ar      2   G17       0.1374
     47 N7          7.1090    3.7930   -1.9780 N.ar      2   G17      -0.5709
     48 C5          7.7320    5.0330   -2.1830 C.ar      2   G17       0.1744
     49 C6          8.1000    6.0960   -1.2760 C.2       2   G17       0.4770
     50 O6          7.8990    6.1970   -0.0630 O.2       2   G17      -0.5597
     51 N1          8.7460    7.1440   -1.9010 N.am      2   G17      -0.4787
     52 C2          8.9660    7.2060   -3.2370 C.2       2   G17       0.7657
     53 N2          9.6200    8.2360   -3.7020 N.pl3     2   G17      -0.9672
     54 N3          8.5970    6.2810   -4.1150 N.2       2   G17      -0.6323
     55 C4          7.9890    5.2100   -3.5260 C.ar      2   G17       0.1222
     56 H5'         5.7380    0.4360   -6.8750 H         2   G17       0.0679
     57 H5''        7.3480   -0.2810   -6.9690 H         2   G17       0.0679
     58 H4'         7.4170    2.0210   -7.7120 H         2   G17       0.1174
     59 H3'         8.7100    1.6640   -4.9970 H         2   G17       0.0615
     60 H2'         9.6750    3.8410   -5.4300 H         2   G17       0.0972
     61 HO2'       10.0060    3.7770   -7.7170 H         2   G17       0.4186
     62 H1'         7.2510    4.8710   -6.1180 H         2   G17       0.2006
     63 H8          6.5810    2.3150   -3.3910 H         2   G17       0.1640
     64 H1          9.0430    7.9170   -1.3260 H         2   G17       0.3424
     65 H21         9.9990    8.9380   -3.0720 H         2   G17       0.4364
     66 H22         9.7900    8.2710   -4.6910 H         2   G17       0.4364
     67 P          11.0500    0.7480   -6.0390 P.3       3   G18       1.1662
     68 OP1        11.7350   -0.2070   -6.9400 O.co2     3   G18      -0.7760
     69 OP2        10.7330    0.3170   -4.6550 O.co2     3   G18      -0.7760
     70 O5'        11.9170    2.0930   -5.9630 O.3       3   G18      -0.4989
     71 C5'        12.4370    2.6950   -7.1410 C.3       3   G18       0.0558
     72 C4'        13.0240    4.0840   -6.8560 C.3       3   G18       0.1065
     73 O4'        12.0910    4.9420   -6.2000 O.3       3   G18      -0.3548
     74 C3'        14.2890    4.0340   -6.0010 C.3       3   G18       0.2022
     75 O3'        15.4370    3.7230   -6.7870 O.3       3   G18      -0.5246
     76 C2'        14.2830    5.4570   -5.4170 C.3       3   G18       0.0670
     77 O2'        14.7850    6.4490   -6.3170 O.3       3   G18      -0.6139
     78 C1'        12.7840    5.7170   -5.2250 C.3       3   G18       0.0191
     79 N9         12.3290    5.3680   -3.8550 N.ar      3   G18       0.0492
     80 C8         11.6210    4.2700   -3.4280 C.ar      3   G18       0.1374
     81 N7         11.2400    4.3240   -2.1790 N.ar      3   G18      -0.5709
     82 C5         11.7640    5.5410   -1.7300 C.ar      3   G18       0.1744
     83 C6         11.6870    6.1970   -0.4500 C.2       3   G18       0.4770
     84 O6         11.0910    5.8480    0.5650 O.2       3   G18      -0.5597
     85 N1         12.3880    7.3810   -0.3950 N.am      3   G18      -0.4787
     86 C2         13.0630    7.9070   -1.4430 C.2       3   G18       0.7657
     87 N2         13.7440    8.9990   -1.2180 N.pl3     3   G18      -0.9672
     88 N3         13.1350    7.3580   -2.6570 N.2       3   G18      -0.6323
     89 C4         12.4620    6.1680   -2.7410 C.ar      3   G18       0.1222
     90 H5'        11.6500    2.7940   -7.8870 H         3   G18       0.0679
     91 H5''       13.2190    2.0600   -7.5610 H         3   G18       0.0679
     92 H4'        13.2940    4.5440   -7.8080 H         3   G18       0.1174
     93 H3'        14.1490    3.3070   -5.1970 H         3   G18       0.0615
     94 H2'        14.8130    5.4860   -4.4660 H         3   G18       0.0972
     95 HO2'       15.0270    7.2470   -5.8110 H         3   G18       0.4186
     96 H1'        12.5840    6.7800   -5.3800 H         3   G18       0.2006
     97 H8         11.3770    3.4450   -4.0810 H         3   G18       0.1640
     98 H1         12.3920    7.8680    0.4880 H         3   G18       0.3424
     99 H21        13.7810    9.3910   -0.2800 H         3   G18       0.4364
    100 H22        14.2620    9.3990   -1.9810 H         3   G18       0.4364
    101 P          16.7340    3.0430   -6.1400 P.3       4   C19       1.1662
    102 OP1        17.7440    2.8840   -7.2170 O.co2     4   C19      -0.7760
    103 OP2        16.2950    1.8400   -5.3930 O.co2     4   C19      -0.7760
    104 O5'        17.2860    4.1090   -5.0710 O.3       4   C19      -0.4989
    105 C5'        17.9440    5.3010   -5.4700 C.3       4   C19       0.0558
    106 C4'        18.1960    6.2410   -4.2790 C.3       4   C19       0.1065
    107 O4'        16.9840    6.7310   -3.7030 O.3       4   C19      -0.3548
    108 C3'        18.9900    5.6060   -3.1330 C.3       4   C19       0.2022
    109 O3'        20.3880    5.5180   -3.3720 O.3       4   C19      -0.5246
    110 C2'        18.6400    6.5870   -2.0060 C.3       4   C19       0.0670
    111 O2'        19.3460    7.8230   -2.1080 O.3       4   C19      -0.6139
    112 C1'        17.1620    6.8690   -2.2910 C.3       4   C19       0.0066
    113 N1         16.2750    5.9360   -1.5310 N.am      4   C19      -0.0484
    114 C2         15.8660    6.2980   -0.2410 C.2       4   C19       0.7538
    115 O2         16.2670    7.3230    0.3120 O.2       4   C19      -0.6252
    116 N3         15.0070    5.5180    0.4560 N.2       4   C19      -0.7584
    117 C4         14.6110    4.3840   -0.0790 C.2       4   C19       0.8185
    118 N4         13.7640    3.6840    0.6170 N.pl3     4   C19      -0.9530
    119 C5         15.0150    3.9360   -1.3600 C.2       4   C19      -0.5215
    120 C6         15.8530    4.7380   -2.0570 C.2       4   C19       0.0053
    121 H5'        17.3440    5.8280   -6.2120 H         4   C19       0.0679
    122 H5''       18.9030    5.0480   -5.9250 H         4   C19       0.0679
    123 H4'        18.7680    7.0960   -4.6430 H         4   C19       0.1174
    124 H3'        18.5700    4.6260   -2.9070 H         4   C19       0.0615
    125 H2'        18.7850    6.1340   -1.0250 H         4   C19       0.0972
    126 HO2'       20.2830    7.6260   -2.2860 H         4   C19       0.4186
    127 H1'        16.9390    7.8950   -1.9860 H         4   C19       0.2029
    128 H41        13.4530    4.0740    1.5020 H         4   C19       0.4234
    129 H42        13.3430    2.8730    0.2100 H         4   C19       0.4234
    130 H5         14.6890    3.0000   -1.7830 H         4   C19       0.1928
    131 H6         16.1840    4.4350   -3.0360 H         4   C19       0.1958
    132 P          21.2760    4.4150   -2.6150 P.3       5   A20       1.1662
    133 OP1        22.6770    4.5750   -3.0740 O.co2     5   A20      -0.7760
    134 OP2        20.6180    3.0980   -2.7760 O.co2     5   A20      -0.7760
    135 O5'        21.1860    4.8240   -1.0610 O.3       5   A20      -0.4989
    136 C5'        21.9620    5.8910   -0.5370 C.3       5   A20       0.0558
    137 C4'        21.6570    6.1670    0.9410 C.3       5   A20       0.1065
    138 O4'        20.3100    6.5850    1.1580 O.3       5   A20      -0.3548
    139 C3'        21.8850    4.9760    1.8750 C.3       5   A20       0.2022
    140 O3'        23.2520    4.6950    2.1320 O.3       5   A20      -0.5246
    141 C2'        21.1240    5.4820    3.1060 C.3       5   A20       0.0670
    142 O2'        21.8180    6.5070    3.8180 O.3       5   A20      -0.6139
    143 C1'        19.8940    6.1010    2.4350 C.3       5   A20       0.0394
    144 N9         18.8240    5.0850    2.2730 N.ar      5   A20      -0.0251
    145 C8         18.5190    4.3020    1.1820 C.ar      5   A20       0.2006
    146 N7         17.4900    3.5150    1.3570 N.ar      5   A20      -0.6073
    147 C5         17.1030    3.7860    2.6790 C.ar      5   A20       0.0515
    148 C6         16.0810    3.3210    3.5450 C.ar      5   A20       0.7009
    149 N6         15.1440    2.4580    3.2050 N.pl3     5   A20      -0.9019
    150 N1         15.9820    3.7670    4.8000 N.ar      5   A20      -0.7615
    151 C2         16.8720    4.6580    5.2140 C.ar      5   A20       0.5875
    152 N3         17.8670    5.2020    4.5220 N.ar      5   A20      -0.6997
    153 C4         17.9270    4.7210    3.2480 C.ar      5   A20       0.3053
    154 H5'        21.7750    6.8010   -1.1060 H         5   A20       0.0679
    155 H5''       23.0210    5.6460   -0.6270 H         5   A20       0.0679
    156 H4'        22.3170    6.9720    1.2680 H         5   A20       0.1174
    157 H3'        21.3750    4.0970    1.4730 H         5   A20       0.0615
    158 H2'        20.8510    4.6630    3.7710 H         5   A20       0.0972
    159 HO2'       22.7250    6.2000    3.9950 H         5   A20       0.4186
    160 H1'        19.5140    6.9140    3.0590 H         5   A20       0.2007
    161 H8         19.0750    4.3440    0.2560 H         5   A20       0.1553
    162 H61        14.4090    2.2360    3.8670 H         5   A20       0.4115
    163 H62        15.1290    2.1100    2.2630 H         5   A20       0.4115
    164 H2         16.7650    4.9970    6.2370 H         5   A20       0.0473
    165 P          23.7110    3.2160    2.5560 P.3       6   G21       1.1662
    166 OP1        25.1880    3.2280    2.6960 O.co2     6   G21      -0.7760
    167 OP2        23.0910    2.2480    1.6210 O.co2     6   G21      -0.7760
    168 O5'        23.0500    3.0000    4.0060 O.3       6   G21      -0.4989
    169 C5'        23.6310    3.5810    5.1620 C.3       6   G21       0.0558
    170 C4'        22.8490    3.2750    6.4430 C.3       6   G21       0.1065
    171 O4'        21.5590    3.8800    6.4810 O.3       6   G21      -0.3548
    172 C3'        22.6200    1.7870    6.7310 C.3       6   G21       0.2022
    173 O3'        23.7930    1.0920    7.1100 O.3       6   G21      -0.5246
    174 C2'        21.5760    1.9240    7.8450 C.3       6   G21       0.0670
    175 O2'        22.1050    2.4120    9.0790 O.3       6   G21      -0.6139
    176 C1'        20.6970    3.0210    7.2300 C.3       6   G21       0.0191
    177 N9         19.6990    2.3980    6.3300 N.ar      6   G21       0.0492
    178 C8         19.7490    2.2350    4.9650 C.ar      6   G21       0.1374
    179 N7         18.7540    1.5510    4.4690 N.ar      6   G21      -0.5709
    180 C5         17.9880    1.2290    5.5960 C.ar      6   G21       0.1744
    181 C6         16.7800    0.4650    5.7350 C.2       6   G21       0.4770
    182 O6         16.1200   -0.0990    4.8690 O.2       6   G21      -0.5597
    183 N1         16.3410    0.3460    7.0380 N.am      6   G21      -0.4787
    184 C2         17.0060    0.8530    8.1020 C.2       6   G21       0.7657
    185 N2         16.5320    0.5640    9.2860 N.pl3     6   G21      -0.9672
    186 N3         18.1250    1.5730    8.0260 N.2       6   G21      -0.6323
    187 C4         18.5650    1.7350    6.7400 C.ar      6   G21       0.1222
    188 H5'        23.6950    4.6620    5.0410 H         6   G21       0.0679
    189 H5''       24.6430    3.1940    5.2850 H         6   G21       0.0679
    190 H4'        23.4320    3.6810    7.2710 H         6   G21       0.1174
    191 H3'        22.1520    1.3030    5.8720 H         6   G21       0.0615
    192 H2'        21.0270    0.9920    7.9890 H         6   G21       0.0972
    193 HO2'       22.9460    1.9570    9.2610 H         6   G21       0.4186
    194 H1'        20.1750    3.5640    8.0210 H         6   G21       0.2006
    195 H8         20.5550    2.6270    4.3590 H         6   G21       0.1640
    196 H1         15.5130   -0.2040    7.2040 H         6   G21       0.3424
    197 H21        15.7220   -0.0420    9.3940 H         6   G21       0.4364
    198 H22        17.0330    0.9110   10.0860 H         6   G21       0.4364
    199 P          23.9320   -0.4860    6.8450 P.3       7   A22       1.1662
    200 OP1        25.3380   -0.8510    7.1450 O.co2     7   A22      -0.7760
    201 OP2        23.3860   -0.8030    5.5040 O.co2     7   A22      -0.7760
    202 O5'        22.9510   -1.1570    7.9340 O.3       7   A22      -0.4989
    203 C5'        23.1620   -1.0020    9.3310 C.3       7   A22       0.0558
    204 C4'        22.2200   -1.8820   10.1700 C.3       7   A22       0.1065
    205 O4'        20.8920   -1.3560   10.1460 O.3       7   A22      -0.3548
    206 C3'        22.1350   -3.3570    9.7470 C.3       7   A22       0.2022
    207 O3'        23.0920   -4.2360   10.3250 O.3       7   A22      -0.5246
    208 C2'        20.7380   -3.7240   10.2660 C.3       7   A22       0.0670
    209 O2'        20.7220   -4.0330   11.6590 O.3       7   A22      -0.6139
    210 C1'        19.9550   -2.4270   10.0630 C.3       7   A22       0.0394
    211 N9         19.2650   -2.4000    8.7500 N.ar      7   A22      -0.0251
    212 C8         19.6570   -1.7830    7.5840 C.ar      7   A22       0.2006
    213 N7         18.7780   -1.8520    6.6220 N.ar      7   A22      -0.6073
    214 C5         17.7610   -2.6420    7.1730 C.ar      7   A22       0.0515
    215 C6         16.5630   -3.2060    6.6710 C.ar      7   A22       0.7009
    216 N6         16.1130   -2.9940    5.4530 N.pl3     7   A22      -0.9019
    217 N1         15.8140   -4.0240    7.4100 N.ar      7   A22      -0.7615
    218 C2         16.2200   -4.2650    8.6530 C.ar      7   A22       0.5875
    219 N3         17.3090   -3.8040    9.2670 N.ar      7   A22      -0.6997
    220 C4         18.0560   -2.9980    8.4600 C.ar      7   A22       0.3053
    221 H5'        23.0040    0.0350    9.6160 H         7   A22       0.0679
    222 H5''       24.1920   -1.2440    9.5790 H         7   A22       0.0679
    223 H4'        22.5680   -1.8590   11.2040 H         7   A22       0.1174
    224 H3'        22.1350   -3.4360    8.6590 H         7   A22       0.0615
    225 H2'        20.3110   -4.5470    9.6870 H         7   A22       0.0972
    226 HO2'       21.4080   -4.7060   11.8220 H         7   A22       0.4186
    227 H1'        19.2000   -2.3410   10.8490 H         7   A22       0.2007
    228 H8         20.6140   -1.2950    7.4640 H         7   A22       0.1553
    229 H61        15.2530   -3.4270    5.1430 H         7   A22       0.4115
    230 H62        16.5170   -2.2290    4.9320 H         7   A22       0.4115
    231 H2         15.5900   -4.9230    9.2360 H         7   A22       0.0473
    232 P          24.4850   -4.5680    9.6090 P.3       8   U23       1.1662
    233 OP1        25.0640   -5.7120   10.3460 O.co2     8   U23      -0.7760
    234 OP2        25.2960   -3.3400    9.4890 O.co2     8   U23      -0.7760
    235 O5'        24.0220   -5.0600    8.1210 O.3       8   U23      -0.4989
    236 C5'        24.5180   -6.2650    7.5350 C.3       8   U23       0.0558
    237 C4'        23.8860   -7.5470    8.1210 C.3       8   U23       0.1065
    238 O4'        22.4900   -7.5220    7.8410 O.3       8   U23      -0.3548
    239 C3'        24.4740   -8.8370    7.4980 C.3       8   U23       0.2022
    240 O3'        24.6170   -9.8800    8.4580 O.3       8   U23      -0.5246
    241 C2'        23.4020   -9.2280    6.4770 C.3       8   U23       0.0670
    242 O2'        23.3080  -10.6250    6.1930 O.3       8   U23      -0.6139
    243 C1'        22.1470   -8.7220    7.1770 C.3       8   U23       0.0674
    244 N1         21.0570   -8.5110    6.1980 N.am      8   U23       0.0418
    245 C2         19.9300   -9.3250    6.3040 C.2       8   U23       0.4687
    246 O2         19.7120  -10.0700    7.2600 O.2       8   U23      -0.5477
    247 N3         19.0330   -9.2720    5.2630 N.am      8   U23      -0.3549
    248 C4         19.1420   -8.4810    4.1460 C.2       8   U23       0.5952
    249 O4         18.2980   -8.5490    3.2640 O.2       8   U23      -0.5761
    250 C5         20.3080   -7.6310    4.1210 C.2       8   U23      -0.3635
    251 C6         21.2200   -7.6580    5.1260 C.2       8   U23      -0.1126
    252 H5'        25.6000   -6.3090    7.6700 H         8   U23       0.0679
    253 H5''       24.3150   -6.2410    6.4650 H         8   U23       0.0679
    254 H4'        24.0430   -7.5760    9.1950 H         8   U23       0.1174
    255 H3'        25.4100   -8.6400    6.9730 H         8   U23       0.0615
    256 H2'        23.5830   -8.6700    5.5580 H         8   U23       0.0972
    257 HO2'       23.7910  -11.0920    6.9050 H         8   U23       0.4186
    258 H1'        21.8600   -9.4690    7.9230 H         8   U23       0.1824
    259 H3         18.2260   -9.8700    5.3480 H         8   U23       0.3154
    260 H5         20.4430   -6.9690    3.2770 H         8   U23       0.1811
    261 H6         22.0900   -7.0100    5.0870 H         8   U23       0.2188
    262 P          26.0360  -10.2050    9.1420 P.3       9   U25       1.1662
    263 OP1        27.0080   -9.1430    8.7860 O.co2     9   U25      -0.7760
    264 OP2        26.3730  -11.6110    8.8200 O.co2     9   U25      -0.7760
    265 O5'        25.7670  -10.1230   10.7250 O.3       9   U25      -0.4989
    266 C5'        25.2550   -8.9420   11.3160 C.3       9   U25       0.0558
    267 C4'        25.5260   -8.8990   12.8240 C.3       9   U25       0.1065
    268 O4'        26.8290   -8.3880   13.0840 O.3       9   U25      -0.3548
    269 C3'        24.5510   -7.9560   13.5280 C.3       9   U25       0.2022
    270 O3'        23.3180   -8.5950   13.8220 O.3       9   U25      -0.5246
    271 C2'        25.3490   -7.5420   14.7780 C.3       9   U25       0.0670
    272 O2'        25.1790   -8.4380   15.8820 O.3       9   U25      -0.6139
    273 C1'        26.8080   -7.6450   14.2990 C.3       9   U25       0.0674
    274 N1         27.4470   -6.3110   14.1030 N.am      9   U25       0.0418
    275 C2         28.5990   -6.0060   14.8460 C.2       9   U25       0.4687
    276 O2         29.1290   -6.7850   15.6410 O.2       9   U25      -0.5477
    277 N3         29.1500   -4.7530   14.6670 N.am      9   U25      -0.3549
    278 C4         28.6690   -3.7740   13.8280 C.2       9   U25       0.5952
    279 O4         29.2450   -2.6910   13.7510 O.2       9   U25      -0.5761
    280 C5         27.4810   -4.1510   13.0950 C.2       9   U25      -0.3635
    281 C6         26.9090   -5.3760   13.2430 C.2       9   U25      -0.1126
    282 H5'        24.1800   -8.8940   11.1330 H         9   U25       0.0679
    283 H5''       25.7250   -8.0700   10.8620 H         9   U25       0.0679
    284 H4'        25.4200   -9.8950   13.2550 H         9   U25       0.1174
    285 H3'        24.3860   -7.0860   12.8900 H         9   U25       0.0615
    286 H2'        25.0920   -6.5180   15.0610 H         9   U25       0.0972
    287 HO2'       25.4860   -8.0090   16.7050 H         9   U25       0.4186
    288 H1'        27.3690   -8.2050   15.0520 H         9   U25       0.1824
    289 H3         29.9750   -4.5310   15.1950 H         9   U25       0.3154
    290 H5         27.0500   -3.4340   12.4100 H         9   U25       0.1811
    291 H6         26.0270   -5.6280   12.6670 H         9   U25       0.2188
    292 P          21.9660   -7.7500   13.9750 P.3      10   G26       1.1662
    293 OP1        22.2980   -6.3930   14.4760 O.co2    10   G26      -0.7760
    294 OP2        20.9920   -8.5770   14.7280 O.co2    10   G26      -0.7760
    295 O5'        21.4920   -7.6260   12.4340 O.3      10   G26      -0.4989
    296 C5'        21.1130   -8.7580   11.6510 C.3      10   G26       0.0558
    297 C4'        19.6760   -9.2260   11.8790 C.3      10   G26       0.1065
    298 O4'        18.7200   -8.1930   11.6370 O.3      10   G26      -0.3548
    299 C3'        19.2940  -10.4250   10.9950 C.3      10   G26       0.2022
    300 O3'        19.6590  -11.6770   11.5720 O.3      10   G26      -0.5246
    301 C2'        17.7740  -10.2400   10.9170 C.3      10   G26       0.0670
    302 O2'        17.0980  -10.7190   12.0780 O.3      10   G26      -0.6139
    303 C1'        17.6290   -8.7200   10.8850 C.3      10   G26       0.0191
    304 N9         17.6710   -8.1870    9.5010 N.ar     10   G26       0.0492
    305 C8         18.6740   -7.4790    8.8960 C.ar     10   G26       0.1374
    306 N7         18.3840   -7.0320    7.7010 N.ar     10   G26      -0.5709
    307 C5         17.1060   -7.5530    7.4640 C.ar     10   G26       0.1744
    308 C6         16.2570   -7.4990    6.3010 C.2      10   G26       0.4770
    309 O6         16.4410   -6.9040    5.2360 O.2      10   G26      -0.5597
    310 N1         15.1020   -8.2480    6.4330 N.am     10   G26      -0.4787
    311 C2         14.7620   -8.9030    7.5750 C.2      10   G26       0.7657
    312 N2         13.6550   -9.5940    7.5810 N.pl3    10   G26      -0.9672
    313 N3         15.4930   -8.9460    8.6850 N.2      10   G26      -0.6323
    314 C4         16.6720   -8.2690    8.5600 C.ar     10   G26       0.1222
    315 H5'        21.7980   -9.5870   11.8350 H        10   G26       0.0679
    316 H5''       21.1710   -8.4980   10.6080 H        10   G26       0.0679
    317 H4'        19.6070   -9.5390   12.9050 H        10   G26       0.1174
    318 H3'        19.7170  -10.2980    9.9950 H        10   G26       0.0615
    319 H2'        17.3790  -10.6850   10.0050 H        10   G26       0.0972
    320 HO2'       17.5640  -11.5160   12.3870 H        10   G26       0.4186
    321 H1'        16.6730   -8.4390   11.3330 H        10   G26       0.2006
    322 H8         19.6190   -7.3220    9.3900 H        10   G26       0.1640
    323 H1         14.5190   -8.3500    5.6160 H        10   G26       0.3424
    324 H21        13.1180   -9.7110    6.7260 H        10   G26       0.4364
    325 H22        13.4280  -10.1010    8.4210 H        10   G26       0.4364
    326 P          19.8870  -12.9930   10.6710 P.3      11   A27       1.1662
    327 OP1        20.2560  -14.0990   11.5900 O.co2    11   A27      -0.7760
    328 OP2        20.8220  -12.6370    9.5780 O.co2    11   A27      -0.7760
    329 O5'        18.4520  -13.3050   10.0240 O.3      11   A27      -0.4989
    330 C5'        17.4400  -13.9710   10.7630 C.3      11   A27       0.0558
    331 C4'        16.2350  -14.3100    9.8830 C.3      11   A27       0.1065
    332 O4'        15.5370  -13.1540    9.4270 O.3      11   A27      -0.3548
    333 C3'        16.6100  -15.1100    8.6340 C.3      11   A27       0.2022
    334 O3'        16.9160  -16.4740    8.8890 O.3      11   A27      -0.5246
    335 C2'        15.3210  -14.9110    7.8320 C.3      11   A27       0.0670
    336 O2'        14.2400  -15.7180    8.2990 O.3      11   A27      -0.6139
    337 C1'        14.9950  -13.4440    8.1390 C.3      11   A27       0.0394
    338 N9         15.5980  -12.5700    7.1060 N.ar     11   A27      -0.0251
    339 C8         16.7130  -11.7660    7.1870 C.ar     11   A27       0.2006
    340 N7         17.0060  -11.1520    6.0710 N.ar     11   A27      -0.6073
    341 C5         16.0270  -11.6070    5.1820 C.ar     11   A27       0.0515
    342 C6         15.7580  -11.4100    3.8080 C.ar     11   A27       0.7009
    343 N6         16.4640  -10.6450    3.0030 N.pl3    11   A27      -0.9019
    344 N1         14.7400  -12.0220    3.2060 N.ar     11   A27      -0.7615
    345 C2         13.9760  -12.8180    3.9420 C.ar     11   A27       0.5875
    346 N3         14.1000  -13.1040    5.2340 N.ar     11   A27      -0.6997
    347 C4         15.1600  -12.4620    5.8040 C.ar     11   A27       0.3053
    348 H5'        17.1120  -13.3580   11.6010 H        11   A27       0.0679
    349 H5''       17.8370  -14.9080   11.1580 H        11   A27       0.0679
    350 H4'        15.5460  -14.9150   10.4750 H        11   A27       0.1174
    351 H3'        17.4340  -14.6120    8.1190 H        11   A27       0.0615
    352 H2'        15.5100  -15.0560    6.7700 H        11   A27       0.0972
    353 HO2'       14.5740  -16.6200    8.4480 H        11   A27       0.4186
    354 H1'        13.9100  -13.3090    8.1270 H        11   A27       0.2007
    355 H8         17.2970  -11.6500    8.0950 H        11   A27       0.1553
    356 H61        16.1970  -10.5320    2.0360 H        11   A27       0.4115
    357 H62        17.1970  -10.0470    3.3620 H        11   A27       0.4115
    358 H2         13.1550  -13.2980    3.4250 H        11   A27       0.0473
    359 P          17.8880  -17.2990    7.9090 P.3      12   G28       1.1662
    360 OP1        18.0470  -18.6620    8.4720 O.co2    12   G28      -0.7760
    361 OP2        19.1010  -16.4890    7.6510 O.co2    12   G28      -0.7760
    362 O5'        17.0710  -17.4070    6.5300 O.3      12   G28      -0.4989
    363 C5'        15.9360  -18.2500    6.4230 C.3      12   G28       0.0558
    364 C4'        15.1580  -18.0130    5.1250 C.3      12   G28       0.1065
    365 O4'        14.8320  -16.6410    4.9230 O.3      12   G28      -0.3548
    366 C3'        15.8590  -18.4880    3.8520 C.3      12   G28       0.2022
    367 O3'        15.8370  -19.9020    3.7230 O.3      12   G28      -0.5246
    368 C2'        15.0180  -17.7260    2.8180 C.3      12   G28       0.0670
    369 O2'        13.7060  -18.2580    2.6050 O.3      12   G28      -0.6139
    370 C1'        14.8670  -16.3760    3.5250 C.3      12   G28       0.0191
    371 N9         16.0030  -15.4900    3.1740 N.ar     12   G28       0.0492
    372 C8         17.0740  -15.0890    3.9320 C.ar     12   G28       0.1374
    373 N7         17.8650  -14.2190    3.3490 N.ar     12   G28      -0.5709
    374 C5         17.2970  -14.0970    2.0780 C.ar     12   G28       0.1744
    375 C6         17.7150  -13.3330    0.9450 C.2      12   G28       0.4770
    376 O6         18.6640  -12.5540    0.8830 O.2      12   G28      -0.5597
    377 N1         16.9390  -13.5510   -0.1810 N.am     12   G28      -0.4787
    378 C2         15.8730  -14.3910   -0.2030 C.2      12   G28       0.7657
    379 N2         15.2370  -14.5530   -1.3310 N.pl3    12   G28      -0.9672
    380 N3         15.4230  -15.0780    0.8390 N.2      12   G28      -0.6323
    381 C4         16.1860  -14.8970    1.9540 C.ar     12   G28       0.1222
    382 H5'        15.2630  -18.0690    7.2600 H        12   G28       0.0679
    383 H5''       16.2490  -19.2950    6.4630 H        12   G28       0.0679
    384 H4'        14.2220  -18.5710    5.1990 H        12   G28       0.1174
    385 H3'        16.8840  -18.1080    3.8010 H        12   G28       0.0615
    386 H2'        15.5720  -17.6210    1.8850 H        12   G28       0.0972
    387 HO2'       13.3070  -17.8300    1.8250 H        12   G28       0.4186
    388 H1'        13.9420  -15.8940    3.2000 H        12   G28       0.2006
    389 H8         17.2330  -15.4740    4.9270 H        12   G28       0.1640
    390 H1         17.1860  -13.0830   -1.0380 H        12   G28       0.3424
    391 H21        15.5230  -14.0690   -2.1800 H        12   G28       0.4364
    392 H22        14.4520  -15.1790   -1.3220 H        12   G28       0.4364
    393 P          16.9110  -20.6580    2.8090 P.3      13   C29       1.1662
    394 OP1        16.5960  -22.1080    2.8470 O.co2    13   C29      -0.7760
    395 OP2        18.2640  -20.2100    3.2180 O.co2    13   C29      -0.7760
    396 O5'        16.6300  -20.1020    1.3310 O.3      13   C29      -0.4989
    397 C5'        15.4290  -20.4220    0.6470 C.3      13   C29       0.0558
    398 C4'        15.3740  -19.7700   -0.7390 C.3      13   C29       0.1065
    399 O4'        15.4770  -18.3460   -0.7240 O.3      13   C29      -0.3548
    400 C3'        16.4930  -20.2820   -1.6370 C.3      13   C29       0.2022
    401 O3'        16.2280  -21.6170   -2.0570 O.3      13   C29      -0.5246
    402 C2'        16.4410  -19.2010   -2.7270 C.3      13   C29       0.0670
    403 O2'        15.3690  -19.3690   -3.6510 O.3      13   C29      -0.6139
    404 C1'        16.1580  -17.9310   -1.9100 C.3      13   C29       0.0066
    405 N1         17.4060  -17.1580   -1.6010 N.am     13   C29      -0.0484
    406 C2         17.9370  -16.3110   -2.5940 C.2      13   C29       0.7538
    407 O2         17.5000  -16.2840   -3.7470 O.2      13   C29      -0.6252
    408 N3         18.9710  -15.4800   -2.3190 N.2      13   C29      -0.7584
    409 C4         19.4990  -15.5130   -1.1120 C.2      13   C29       0.8185
    410 N4         20.4700  -14.6770   -0.8870 N.pl3    13   C29      -0.9530
    411 C5         19.0360  -16.3680   -0.0750 C.2      13   C29      -0.5215
    412 C6         17.9860  -17.1820   -0.3490 C.2      13   C29       0.0053
    413 H5'        14.5650  -20.1040    1.2250 H        13   C29       0.0679
    414 H5''       15.3610  -21.5040    0.5220 H        13   C29       0.0679
    415 H4'        14.4250  -20.0390   -1.2040 H        13   C29       0.1174
    416 H3'        17.4400  -20.2120   -1.1010 H        13   C29       0.0615
    417 H2'        17.3910  -19.1230   -3.2490 H        13   C29       0.0972
    418 HO2'       15.6520  -20.0010   -4.3350 H        13   C29       0.4186
    419 H1'        15.5030  -17.2900   -2.5070 H        13   C29       0.2029
    420 H41        20.7620  -14.0650   -1.6410 H        13   C29       0.4234
    421 H42        20.8890  -14.6120    0.0220 H        13   C29       0.4234
    422 H5         19.4810  -16.3790    0.9080 H        13   C29       0.1928
    423 H6         17.5950  -17.8330    0.4340 H        13   C29       0.1958
    424 P          17.4070  -22.6430   -2.4130 P.3      14   C30       1.1662
    425 OP1        16.8130  -23.9970   -2.5410 O.co2    14   C30      -0.7760
    426 OP2        18.5330  -22.4390   -1.4700 O.co2    14   C30      -0.7760
    427 O5'        17.8810  -22.1540   -3.8590 O.3      14   C30      -0.4989
    428 C5'        17.0550  -22.3360   -4.9970 C.3      14   C30       0.0558
    429 C4'        17.5160  -21.4290   -6.1380 C.3      14   C30       0.1065
    430 O4'        17.5030  -20.0610   -5.7420 O.3      14   C30      -0.3548
    431 C3'        18.9280  -21.7370   -6.6410 C.3      14   C30       0.2022
    432 O3'        18.9400  -22.8280   -7.5530 O.3      14   C30      -0.5246
    433 C2'        19.2690  -20.4000   -7.3090 C.3      14   C30       0.0670
    434 O2'        18.6910  -20.2830   -8.6070 O.3      14   C30      -0.6139
    435 C1'        18.5610  -19.3820   -6.4040 C.3      14   C30       0.0066
    436 N1         19.5000  -18.7340   -5.4400 N.am     14   C30      -0.0484
    437 C2         20.1540  -17.5710   -5.8600 C.2      14   C30       0.7538
    438 O2         19.9980  -17.1060   -6.9880 O.2      14   C30      -0.6252
    439 N3         21.0080  -16.9180   -5.0400 N.2      14   C30      -0.7584
    440 C4         21.2100  -17.3940   -3.8310 C.2      14   C30       0.8185
    441 N4         22.0820  -16.7490   -3.1150 N.pl3    14   C30      -0.9530
    442 C5         20.5950  -18.5770   -3.3440 C.2      14   C30      -0.5215
    443 C6         19.7470  -19.2270   -4.1790 C.2      14   C30       0.0053
    444 H5'        16.0210  -22.0860   -4.7520 H        14   C30       0.0679
    445 H5''       17.0930  -23.3760   -5.3210 H        14   C30       0.0679
    446 H4'        16.8290  -21.5520   -6.9770 H        14   C30       0.1174
    447 H3'        19.6020  -21.9040   -5.7980 H        14   C30       0.0615
    448 H2'        20.3500  -20.2440   -7.3370 H        14   C30       0.0972
    449 HO2'       18.7220  -21.1610   -9.0280 H        14   C30       0.4186
    450 H1'        18.1350  -18.6060   -7.0460 H        14   C30       0.2029
    451 H41        22.5330  -15.9510   -3.5460 H        14   C30       0.4234
    452 H42        22.3910  -17.1270   -2.2390 H        14   C30       0.4234
    453 H5         20.7820  -18.9640   -2.3540 H        14   C30       0.1928
    454 H6         19.2430  -20.1210   -3.8320 H        14   C30       0.1958
    455 P          20.2350  -23.7560   -7.7090 P.3      15   U31       1.1662
    456 OP1        19.9530  -24.7570   -8.7680 O.co2    15   U31      -0.7760
    457 OP2        20.6300  -24.2330   -6.3620 O.co2    15   U31      -0.7760
    458 O5'        21.3700  -22.7500   -8.2300 O.3      15   U31      -0.4989
    459 C5'        21.4110  -22.3020   -9.5790 C.3      15   U31       0.0558
    460 C4'        22.5270  -21.2700   -9.7830 C.3      15   U31       0.1065
    461 O4'        22.3030  -20.0800   -9.0330 O.3      15   U31      -0.3548
    462 C3'        23.9070  -21.8020   -9.3920 C.3      15   U31       0.2022
    463 O3'        24.4550  -22.6170  -10.4200 O.3      15   U31      -0.5246
    464 C2'        24.6620  -20.4870   -9.1580 C.3      15   U31       0.0670
    465 O2'        25.1500  -19.9500  -10.3830 O.3      15   U31      -0.6139
    466 C1'        23.5620  -19.5540   -8.6190 C.3      15   U31       0.0674
    467 N1         23.5950  -19.4180   -7.1320 N.am     15   U31       0.0418
    468 C2         24.0500  -18.2080   -6.5870 C.2      15   U31       0.4687
    469 O2         24.2640  -17.1950   -7.2550 O.2      15   U31      -0.5477
    470 N3         24.2340  -18.1670   -5.2180 N.am     15   U31      -0.3549
    471 C4         23.9860  -19.2000   -4.3440 C.2      15   U31       0.5952
    472 O4         24.2320  -19.0710   -3.1490 O.2      15   U31      -0.5761
    473 C5         23.4080  -20.3750   -4.9600 C.2      15   U31      -0.3635
    474 C6         23.2220  -20.4570   -6.3030 C.2      15   U31      -0.1126
    475 H5'        20.4600  -21.8540   -9.8600 H        15   U31       0.0679
    476 H5''       21.5990  -23.1520  -10.2380 H        15   U31       0.0679
    477 H4'        22.5610  -21.0020  -10.8410 H        15   U31       0.1174
    478 H3'        23.8340  -22.3540   -8.4550 H        15   U31       0.0615
    479 H2'        25.4760  -20.6310   -8.4400 H        15   U31       0.0972
    480 HO2'       25.4670  -20.6950  -10.9240 H        15   U31       0.4186
    481 H1'        23.7080  -18.5710   -9.0720 H        15   U31       0.1824
    482 H3         24.5140  -17.2920   -4.8130 H        15   U31       0.3154
    483 H5         23.1230  -21.1990   -4.3230 H        15   U31       0.1811
    484 H6         22.7660  -21.3440   -6.7280 H        15   U31       0.2188
    485 P          25.7080  -23.5750  -10.1480 P.3      16   G32       1.1662
    486 OP1        25.8860  -24.4220  -11.3530 O.co2    16   G32      -0.7760
    487 OP2        25.5160  -24.2340   -8.8330 O.co2    16   G32      -0.7760
    488 O5'        26.9550  -22.5620  -10.0690 O.3      16   G32      -0.4989
    489 C5'        27.7870  -22.4860   -8.9220 C.3      16   G32       0.0558
    490 C4'        29.1230  -21.7780   -9.2120 C.3      16   G32       0.1065
    491 O4'        29.7780  -22.3160  -10.3610 O.3      16   G32      -0.3548
    492 C3'        28.9910  -20.2580   -9.3890 C.3      16   G32       0.2022
    493 O3'        29.4480  -19.5860   -8.2180 O.3      16   G32      -0.5246
    494 C2'        29.8550  -19.9810  -10.6330 C.3      16   G32       0.0670
    495 O2'        31.2310  -19.7330  -10.3500 O.3      16   G32      -0.6139
    496 C1'        29.8040  -21.3190  -11.3800 C.3      16   G32       0.0191
    497 N9         28.6500  -21.4830  -12.3070 N.ar     16   G32       0.0492
    498 C8         27.5840  -20.6470  -12.5510 C.ar     16   G32       0.1374
    499 N7         26.7520  -21.0740  -13.4640 N.ar     16   G32      -0.5709
    500 C5         27.3040  -22.2990  -13.8630 C.ar     16   G32       0.1744
    501 C6         26.8680  -23.2710  -14.8350 C.2      16   G32       0.4770
    502 O6         25.8720  -23.2570  -15.5640 O.2      16   G32      -0.5597
    503 N1         27.7180  -24.3570  -14.9510 N.am     16   G32      -0.4787
    504 C2         28.8600  -24.4940  -14.2300 C.2      16   G32       0.7657
    505 N2         29.5920  -25.5590  -14.4470 N.pl3    16   G32      -0.9672
    506 N3         29.3100  -23.6170  -13.3340 N.2      16   G32      -0.6323
    507 C4         28.4780  -22.5410  -13.1780 C.ar     16   G32       0.1222
    508 H5'        28.0180  -23.4940   -8.5730 H        16   G32       0.0679
    509 H5''       27.2560  -21.9530   -8.1280 H        16   G32       0.0679
    510 H4'        29.7730  -21.9520   -8.3540 H        16   G32       0.1174
    511 H3'        27.9520  -20.0070   -9.6120 H        16   G32       0.0615
    512 H2'        29.4340  -19.1630  -11.2210 H        16   G32       0.0972
    513 HO2'       31.3030  -18.8390   -9.9750 H        16   G32       0.4186
    514 H1'        30.7140  -21.4290  -11.9740 H        16   G32       0.2006
    515 H8         27.4340  -19.7200  -12.0140 H        16   G32       0.1640
    516 H1         27.4630  -25.0690  -15.6080 H        16   G32       0.3424
    517 H21        29.3120  -26.2610  -15.1150 H        16   G32       0.4364
    518 H22        30.4420  -25.6560  -13.9130 H        16   G32       0.4364
    519 P          28.8190  -18.1900   -7.7550 P.3      17   G33       1.1662
    520 OP1        29.4520  -17.8220   -6.4630 O.co2    17   G33      -0.7760
    521 OP2        27.3450  -18.3200   -7.8130 O.co2    17   G33      -0.7760
    522 O5'        29.2890  -17.1490   -8.8890 O.3      17   G33      -0.4989
    523 C5'        30.5960  -16.5910   -8.8880 C.3      17   G33       0.0558
    524 C4'        30.9380  -15.9150  -10.2270 C.3      17   G33       0.1065
    525 O4'        30.7920  -16.8380  -11.3050 O.3      17   G33      -0.3548
    526 C3'        30.1230  -14.6570  -10.5670 C.3      17   G33       0.2022
    527 O3'        30.7110  -13.4490  -10.0930 O.3      17   G33      -0.5246
    528 C2'        30.1750  -14.6800  -12.1030 C.3      17   G33       0.0670
    529 O2'        31.3570  -14.0760  -12.6290 O.3      17   G33      -0.6139
    530 C1'        30.2260  -16.1750  -12.4290 C.3      17   G33       0.0191
    531 N9         28.8740  -16.6990  -12.7430 N.ar     17   G33       0.0492
    532 C8         27.8200  -16.9550  -11.8990 C.ar     17   G33       0.1374
    533 N7         26.7120  -17.2830  -12.5100 N.ar     17   G33      -0.5709
    534 C5         27.0590  -17.2730  -13.8670 C.ar     17   G33       0.1744
    535 C6         26.2930  -17.5520  -15.0580 C.2      17   G33       0.4770
    536 O6         25.1030  -17.8590  -15.1700 O.2      17   G33      -0.5597
    537 N1         27.0280  -17.4420  -16.2240 N.am     17   G33      -0.4787
    538 C2         28.3400  -17.0950  -16.2550 C.2      17   G33       0.7657
    539 N2         28.9220  -17.0190  -17.4260 N.pl3    17   G33      -0.9672
    540 N3         29.0830  -16.8200  -15.1850 N.2      17   G33      -0.6323
    541 C4         28.3880  -16.9300  -14.0120 C.ar     17   G33       0.1222
    542 H5'        31.3290  -17.3780   -8.7030 H        17   G33       0.0679
    543 H5''       30.6860  -15.8630   -8.0810 H        17   G33       0.0679
    544 H4'        31.9850  -15.6130  -10.1880 H        17   G33       0.1174
    545 H3'        29.0870  -14.7670  -10.2370 H        17   G33       0.0615
    546 H2'        29.2830  -14.2080  -12.5220 H        17   G33       0.0972
    547 HO2'       31.5120  -13.2510  -12.1290 H        17   G33       0.4186
    548 H1'        30.8590  -16.3210  -13.3090 H        17   G33       0.2006
    549 H8         27.9080  -16.9010  -10.8230 H        17   G33       0.1640
    550 H1         26.5480  -17.6260  -17.0850 H        17   G33       0.3424
    551 H21        28.4180  -17.2120  -18.2770 H        17   G33       0.4364
    552 H22        29.8960  -16.7580  -17.4440 H        17   G33       0.4364
    553 P          30.0620  -12.6060   -8.8970 P.3      18   G34       1.1662
    554 OP1        31.0460  -11.5650   -8.5110 O.co2    18   G34      -0.7760
    555 OP2        29.5590  -13.5410   -7.8690 O.co2    18   G34      -0.7760
    556 O5'        28.8010  -11.8780   -9.5810 O.3      18   G34      -0.4989
    557 C5'        27.9660  -11.0270   -8.8100 C.3      18   G34       0.0558
    558 C4'        26.7870  -10.4960   -9.6210 C.3      18   G34       0.1065
    559 O4'        25.8190  -11.5200   -9.8570 O.3      18   G34      -0.3548
    560 C3'        26.0580   -9.2840   -8.9990 C.3      18   G34       0.2022
    561 O3'        26.5000   -8.0530   -9.5430 O.3      18   G34      -0.5246
    562 C2'        24.5990   -9.6010   -9.3320 C.3      18   G34       0.0670
    563 O2'        24.2100   -9.2150  -10.6530 O.3      18   G34      -0.6139
    564 C1'        24.5920  -11.1310   -9.2570 C.3      18   G34       0.0191
    565 N9         24.5050  -11.7480   -7.8990 N.ar     18   G34       0.0492
    566 C8         25.2170  -11.4960   -6.7430 C.ar     18   G34       0.1374
    567 N7         25.0100  -12.3440   -5.7760 N.ar     18   G34      -0.5709
    568 C5         24.0500  -13.2080   -6.3030 C.ar     18   G34       0.1744
    569 C6         23.3910  -14.3500   -5.7310 C.2      18   G34       0.4770
    570 O6         23.5700  -14.8820   -4.6350 O.2      18   G34      -0.5597
    571 N1         22.4180  -14.8830   -6.5480 N.am     18   G34      -0.4787
    572 C2         22.1610  -14.4430   -7.8020 C.2      18   G34       0.7657
    573 N2         21.2010  -15.0430   -8.4510 N.pl3    18   G34      -0.9672
    574 N3         22.7720  -13.4150   -8.3920 N.2      18   G34      -0.6323
    575 C4         23.7090  -12.8290   -7.5860 C.ar     18   G34       0.1222
    576 H5'        28.5560  -10.1980   -8.4220 H        18   G34       0.0679
    577 H5''       27.5530  -11.5840   -7.9870 H        18   G34       0.0679
    578 H4'        27.1850  -10.1720  -10.5700 H        18   G34       0.1174
    579 H3'        26.0790   -9.2500   -7.9080 H        18   G34       0.0615
    580 H2'        23.9390   -9.1630   -8.5840 H        18   G34       0.0972
    581 HO2'       24.7770   -9.6770  -11.2950 H        18   G34       0.4186
    582 H1'        23.7490  -11.5050   -9.8430 H        18   G34       0.2006
    583 H8         25.9330  -10.6970   -6.6370 H        18   G34       0.1640
    584 H1         21.8980  -15.6710   -6.1890 H        18   G34       0.3424
    585 H21        20.6970  -15.8060   -8.0080 H        18   G34       0.4364
    586 H22        20.9240  -14.6810   -9.3450 H        18   G34       0.4364
    587 P          27.9680   -7.4740   -9.2750 P.3      19   A35       1.1662
    588 OP1        28.8800   -8.0420  -10.2970 O.co2    19   A35      -0.7760
    589 OP2        28.3130   -7.6260   -7.8400 O.co2    19   A35      -0.7760
    590 O5'        27.7880   -5.9110   -9.6130 O.3      19   A35      -0.4989
    591 C5'        27.1380   -5.0090   -8.7270 C.3      19   A35       0.0558
    592 C4'        25.8870   -4.3640   -9.3470 C.3      19   A35       0.1065
    593 O4'        26.1620   -3.8050  -10.6310 O.3      19   A35      -0.3548
    594 C3'        24.6670   -5.2890   -9.4550 C.3      19   A35       0.2022
    595 O3'        23.7350   -5.0710   -8.4010 O.3      19   A35      -0.5246
    596 C2'        24.0640   -4.9050  -10.8140 C.3      19   A35       0.0670
    597 O2'        23.0930   -3.8660  -10.7110 O.3      19   A35      -0.6139
    598 C1'        25.2650   -4.3550  -11.5880 C.3      19   A35       0.0394
    599 N9         25.9620   -5.3410  -12.4610 N.ar     19   A35      -0.0251
    600 C8         26.0260   -6.7190  -12.3990 C.ar     19   A35       0.2006
    601 N7         26.6460   -7.2790  -13.4090 N.ar     19   A35      -0.6073
    602 C5         27.0300   -6.1820  -14.1960 C.ar     19   A35       0.0515
    603 C6         27.7250   -6.0190  -15.4230 C.ar     19   A35       0.7009
    604 N6         28.2200   -6.9980  -16.1600 N.pl3    19   A35      -0.9019
    605 N1         27.9310   -4.8110  -15.9510 N.ar     19   A35      -0.7615
    606 C2         27.4630   -3.7600  -15.2880 C.ar     19   A35       0.5875
    607 N3         26.7960   -3.7490  -14.1350 N.ar     19   A35      -0.6997
    608 C4         26.6160   -5.0050  -13.6280 C.ar     19   A35       0.3053
    609 H5'        27.8390   -4.2140   -8.4720 H        19   A35       0.0679
    610 H5''       26.8520   -5.5070   -7.8000 H        19   A35       0.0679
    611 H4'        25.5980   -3.5380   -8.6950 H        19   A35       0.1174
    612 H3'        24.9660   -6.3290   -9.5030 H        19   A35       0.0615
    613 H2'        23.6360   -5.7810  -11.3060 H        19   A35       0.0972
    614 HO2'       22.5390   -4.0540   -9.9300 H        19   A35       0.4186
    615 H1'        24.9050   -3.5520  -12.2380 H        19   A35       0.2007
    616 H8         25.6060   -7.3030  -11.5900 H        19   A35       0.1553
    617 H61        28.6930   -6.7600  -17.0170 H        19   A35       0.4115
    618 H62        28.1150   -7.9530  -15.8490 H        19   A35       0.4115
    619 H2         27.6420   -2.7930  -15.7420 H        19   A35       0.0473
    620 P          23.5580   -6.1080   -7.1850 P.3      20   G36       1.1662
    621 OP1        23.0750   -5.2810   -6.0550 O.co2    20   G36      -0.7760
    622 OP2        24.7820   -6.9140   -7.0130 O.co2    20   G36      -0.7760
    623 O5'        22.3490   -7.0840   -7.6200 O.3      20   G36      -0.4989
    624 C5'        21.8950   -7.1580   -8.9660 C.3      20   G36       0.0558
    625 C4'        20.8910   -8.2920   -9.2110 C.3      20   G36       0.1065
    626 O4'        21.4990   -9.5750   -9.0680 O.3      20   G36      -0.3548
    627 C3'        19.6450   -8.2680   -8.3160 C.3      20   G36       0.2022
    628 O3'        18.6260   -7.3710   -8.7680 O.3      20   G36      -0.5246
    629 C2'        19.2350   -9.7410   -8.4600 C.3      20   G36       0.0670
    630 O2'        18.5880  -10.0190   -9.7020 O.3      20   G36      -0.6139
    631 C1'        20.5740  -10.4740   -8.4730 C.3      20   G36       0.0191
    632 N9         20.9950  -10.8240   -7.0960 N.ar     20   G36       0.0492
    633 C8         21.9840  -10.2480   -6.3370 C.ar     20   G36       0.1374
    634 N7         22.1070  -10.7730   -5.1440 N.ar     20   G36      -0.5709
    635 C5         21.1520  -11.7990   -5.1240 C.ar     20   G36       0.1744
    636 C6         20.8130  -12.7800   -4.1200 C.2      20   G36       0.4770
    637 O6         21.2820  -12.9340   -2.9990 O.2      20   G36      -0.5597
    638 N1         19.8190  -13.6550   -4.5010 N.am     20   G36      -0.4787
    639 C2         19.2170  -13.6150   -5.7120 C.2      20   G36       0.7657
    640 N2         18.2800  -14.4980   -5.9310 N.pl3    20   G36      -0.9672
    641 N3         19.4900  -12.7300   -6.6720 N.2      20   G36      -0.6323
    642 C4         20.4740  -11.8430   -6.3230 C.ar     20   G36       0.1222
    643 H5'        22.7450   -7.3140   -9.6290 H        20   G36       0.0679
    644 H5''       21.4220   -6.2130   -9.2350 H        20   G36       0.0679
    645 H4'        20.5480   -8.2060  -10.2430 H        20   G36       0.1174
    646 H3'        19.9490   -8.0610   -7.2860 H        20   G36       0.0615
    647 H2'        18.6410  -10.0600   -7.6100 H        20   G36       0.0972
    648 HO2'       18.0660   -9.2370   -9.9500 H        20   G36       0.4186
    649 H1'        20.4830  -11.3950   -9.0550 H        20   G36       0.2006
    650 H8         22.6180   -9.4500   -6.7210 H        20   G36       0.1640
    651 H1         19.5280  -14.3510   -3.8260 H        20   G36       0.3424
    652 H21        18.0430  -15.1840   -5.2190 H        20   G36       0.4364
    653 H22        17.8620  -14.5210   -6.8450 H        20   G36       0.4364
    654 P          17.4840   -6.8090   -7.7780 P.3      21   C37       1.1662
    655 OP1        16.5690   -5.9390   -8.5530 O.co2    21   C37      -0.7760
    656 OP2        18.1400   -6.2500   -6.5820 O.co2    21   C37      -0.7760
    657 O5'        16.6500   -8.0980   -7.2990 O.3      21   C37      -0.4989
    658 C5'        15.7900   -8.7760   -8.2050 C.3      21   C37       0.0558
    659 C4'        15.2380  -10.1010   -7.6630 C.3      21   C37       0.1065
    660 O4'        16.2350  -11.0600   -7.3080 O.3      21   C37      -0.3548
    661 C3'        14.3570   -9.9390   -6.4310 C.3      21   C37       0.2022
    662 O3'        13.0900   -9.3820   -6.7380 O.3      21   C37      -0.5246
    663 C2'        14.3250  -11.3980   -5.9500 C.3      21   C37       0.0670
    664 O2'        13.4820  -12.2660   -6.7130 O.3      21   C37      -0.6139
    665 C1'        15.7840  -11.8120   -6.1750 C.3      21   C37       0.0066
    666 N1         16.6130  -11.5570   -4.9520 N.am     21   C37      -0.0484
    667 C2         16.4750  -12.4110   -3.8470 C.2      21   C37       0.7538
    668 O2         15.6530  -13.3240   -3.8310 O.2      21   C37      -0.6252
    669 N3         17.2430  -12.2530   -2.7390 N.2      21   C37      -0.7584
    670 C4         18.1480  -11.3000   -2.7320 C.2      21   C37       0.8185
    671 N4         18.8790  -11.1730   -1.6610 N.pl3    21   C37      -0.9530
    672 C5         18.3600  -10.4250   -3.8260 C.2      21   C37      -0.5215
    673 C6         17.5600  -10.5640   -4.9100 C.2      21   C37       0.0053
    674 H5'        16.3170   -8.9820   -9.1330 H        21   C37       0.0679
    675 H5''       14.9470   -8.1270   -8.4480 H        21   C37       0.0679
    676 H4'        14.6230  -10.5310   -8.4540 H        21   C37       0.1174
    677 H3'        14.8890   -9.3260   -5.7010 H        21   C37       0.0615
    678 H2'        14.0620  -11.4550   -4.8990 H        21   C37       0.0972
    679 HO2'       13.6890  -12.1870   -7.6610 H        21   C37       0.4186
    680 H1'        15.8180  -12.8840   -6.3900 H        21   C37       0.2029
    681 H41        18.7360  -11.7830   -0.8650 H        21   C37       0.4234
    682 H42        19.6010  -10.4830   -1.6540 H        21   C37       0.4234
    683 H5         19.1260   -9.6710   -3.8180 H        21   C37       0.1928
    684 H6         17.6760   -9.9010   -5.7550 H        21   C37       0.1958
    685 P          12.2390   -8.6150   -5.6230 P.3      22   U38       1.1662
    686 OP1        11.0470   -8.0350   -6.2840 O.co2    22   U38      -0.7760
    687 OP2        13.1650   -7.7120   -4.8960 O.co2    22   U38      -0.7760
    688 O5'        11.7630   -9.7490   -4.6010 O.3      22   U38      -0.4989
    689 C5'        10.8600  -10.7700   -4.9940 C.3      22   U38       0.0558
    690 C4'        10.6670  -11.8100   -3.8810 C.3      22   U38       0.1065
    691 O4'        11.8750  -12.4800   -3.5300 O.3      22   U38      -0.3548
    692 C3'        10.0750  -11.2210   -2.5990 C.3      22   U38       0.2022
    693 O3'         8.6590  -11.1800   -2.6630 O.3      22   U38      -0.5246
    694 C2'        10.5450  -12.2470   -1.5660 C.3      22   U38       0.0670
    695 O2'         9.7200  -13.4130   -1.5340 O.3      22   U38      -0.6139
    696 C1'        11.9160  -12.6550   -2.1140 C.3      22   U38       0.0674
    697 N1         13.0030  -11.8590   -1.4780 N.am     22   U38       0.0418
    698 C2         13.3530  -12.1760   -0.1600 C.2      22   U38       0.4687
    699 O2         12.7660  -13.0140    0.5230 O.2      22   U38      -0.5477
    700 N3         14.4220  -11.5000    0.3800 N.am     22   U38      -0.3549
    701 C4         15.1840  -10.5560   -0.2620 C.2      22   U38       0.5952
    702 O4         16.1430  -10.0480    0.3010 O.2      22   U38      -0.5761
    703 C5         14.7460  -10.2430   -1.5950 C.2      22   U38      -0.3635
    704 C6         13.6890  -10.8750   -2.1590 C.2      22   U38      -0.1126
    705 H5'        11.2350  -11.2770   -5.8840 H        22   U38       0.0679
    706 H5''        9.8910  -10.3280   -5.2340 H        22   U38       0.0679
    707 H4'         9.9670  -12.5620   -4.2470 H        22   U38       0.1174
    708 H3'        10.5150  -10.2440   -2.3700 H        22   U38       0.0615
    709 H2'        10.6250  -11.7830   -0.5790 H        22   U38       0.0972
    710 HO2'        8.8030  -13.1340   -1.7130 H        22   U38       0.4186
    711 H1'        12.0840  -13.7080   -1.8760 H        22   U38       0.1824
    712 H3         14.6450  -11.7110    1.3410 H        22   U38       0.3154
    713 H5         15.2860   -9.4950   -2.1470 H        22   U38       0.1811
    714 H6         13.3950  -10.6100   -3.1610 H        22   U38       0.2188
    715 P           7.8270  -10.1040   -1.8400 P.3      23   C39       1.1662
    716 OP1         6.4480  -10.6300   -1.7620 O.co2    23   C39      -0.7760
    717 OP2         8.0180   -8.7870   -2.4830 O.co2    23   C39      -0.7760
    718 O5'         8.4640  -10.0790   -0.3670 O.3      23   C39      -0.4989
    719 C5'         8.0610  -11.0440    0.5890 C.3      23   C39       0.0558
    720 C4'         8.7740  -10.9330    1.9370 C.3      23   C39       0.1065
    721 O4'        10.1620  -11.2480    1.9080 O.3      23   C39      -0.3548
    722 C3'         8.7280   -9.5630    2.6070 C.3      23   C39       0.2022
    723 O3'         7.4220   -9.0990    2.9070 O.3      23   C39      -0.5246
    724 C2'         9.6250   -9.8970    3.8050 C.3      23   C39       0.0670
    725 O2'         9.0080  -10.7200    4.7980 O.3      23   C39      -0.6139
    726 C1'        10.7270  -10.7200    3.1100 C.3      23   C39       0.0066
    727 N1         11.9200   -9.8550    2.8670 N.am     23   C39      -0.0484
    728 C2         12.7070   -9.5270    3.9780 C.2      23   C39       0.7538
    729 O2         12.4720   -9.9840    5.0930 O.2      23   C39      -0.6252
    730 N3         13.7510   -8.6740    3.8740 N.2      23   C39      -0.7584
    731 C4         14.0220   -8.1640    2.6930 C.2      23   C39       0.8185
    732 N4         15.0510   -7.3640    2.6640 N.pl3    23   C39      -0.9530
    733 C5         13.2580   -8.4470    1.5210 C.2      23   C39      -0.5215
    734 C6         12.2090   -9.3060    1.6380 C.2      23   C39       0.0053
    735 H5'         8.2210  -12.0470    0.1980 H        23   C39       0.0679
    736 H5''        6.9940  -10.9240    0.7750 H        23   C39       0.0679
    737 H4'         8.2770  -11.6460    2.5990 H        23   C39       0.1174
    738 H3'         9.2510   -8.8270    1.9940 H        23   C39       0.0615
    739 H2'        10.0170   -8.9860    4.2520 H        23   C39       0.0972
    740 HO2'        9.4880  -10.6140    5.6400 H        23   C39       0.4186
    741 H1'        11.0170  -11.5410    3.7720 H        23   C39       0.2029
    742 H41        15.5700   -7.2270    3.5260 H        23   C39       0.4234
    743 H42        15.3530   -6.9730    1.7920 H        23   C39       0.4234
    744 H5         13.4890   -8.0050    0.5650 H        23   C39       0.1928
    745 H6         11.5990   -9.5650    0.7700 H        23   C39       0.1958
    746 P           7.1760   -7.5560    3.2400 P.3      24   U40       1.1662
    747 OP1         5.7230   -7.3310    3.4230 O.co2    24   U40      -0.7760
    748 OP2         7.9240   -6.7100    2.2820 O.co2    24   U40      -0.7760
    749 O5'         7.9110   -7.3320    4.6440 O.3      24   U40      -0.4989
    750 C5'         7.4350   -7.9140    5.8430 C.3      24   U40       0.0558
    751 C4'         8.4150   -7.6610    6.9970 C.3      24   U40       0.1065
    752 O4'         9.7240   -8.1710    6.7410 O.3      24   U40      -0.3548
    753 C3'         8.6160   -6.1850    7.3420 C.3      24   U40       0.2022
    754 O3'         7.4870   -5.5860    7.9600 O.3      24   U40      -0.5246
    755 C2'         9.8660   -6.3100    8.2220 C.3      24   U40       0.0670
    756 O2'         9.6120   -6.8580    9.5190 O.3      24   U40      -0.6139
    757 C1'        10.6750   -7.3220    7.3900 C.3      24   U40       0.0674
    758 N1         11.5630   -6.6030    6.4220 N.am     24   U40       0.0418
    759 C2         12.7220   -6.0070    6.9440 C.2      24   U40       0.4687
    760 O2         13.0680   -6.1070    8.1210 O.2      24   U40      -0.5477
    761 N3         13.4960   -5.2660    6.0810 N.am     24   U40      -0.3549
    762 C4         13.2290   -5.0480    4.7530 C.2      24   U40       0.5952
    763 O4         13.9580   -4.3150    4.0940 O.2      24   U40      -0.5761
    764 C5         12.0480   -5.7230    4.2630 C.2      24   U40      -0.3635
    765 C6         11.2580   -6.4730    5.0780 C.2      24   U40      -0.1126
    766 H5'         7.3120   -8.9890    5.7130 H        24   U40       0.0679
    767 H5''        6.4660   -7.4860    6.1000 H        24   U40       0.0679
    768 H4'         8.0190   -8.1570    7.8850 H        24   U40       0.1174
    769 H3'         8.8890   -5.6360    6.4410 H        24   U40       0.0615
    770 H2'        10.3760   -5.3490    8.3050 H        24   U40       0.0972
    771 HO2'       10.3850   -6.7050   10.0940 H        24   U40       0.4186
    772 H1'        11.3030   -7.9160    8.0590 H        24   U40       0.1824
    773 H3         14.3220   -4.8310    6.4720 H        24   U40       0.3154
    774 H5         11.7920   -5.6010    3.2210 H        24   U40       0.1811
    775 H6         10.3750   -6.9550    4.6650 H        24   U40       0.2188
    776 P           7.2650   -4.0030    7.8950 P.3      25   C41       1.1662
    777 OP1         5.9550   -3.6980    8.5200 O.co2    25   C41      -0.7760
    778 OP2         7.5150   -3.5690    6.5000 O.co2    25   C41      -0.7760
    779 O5'         8.4320   -3.3910    8.8090 O.3      25   C41      -0.4989
    780 C5'         8.4510   -3.5950   10.2130 C.3      25   C41       0.0558
    781 C4'         9.7010   -2.9950   10.8710 C.3      25   C41       0.1065
    782 O4'        10.9150   -3.5820   10.3970 O.3      25   C41      -0.3548
    783 C3'         9.8390   -1.4810   10.6850 C.3      25   C41       0.2022
    784 O3'         9.0030   -0.7280   11.5560 O.3      25   C41      -0.5246
    785 C2'        11.3290   -1.3230   11.0120 C.3      25   C41       0.0670
    786 O2'        11.6010   -1.3990   12.4110 O.3      25   C41      -0.6139
    787 C1'        11.9260   -2.5720   10.3470 C.3      25   C41       0.0066
    788 N1         12.3480   -2.2750    8.9440 N.am     25   C41      -0.0484
    789 C2         13.5420   -1.5630    8.7430 C.2      25   C41       0.7538
    790 O2         14.2790   -1.2290    9.6710 O.2      25   C41      -0.6252
    791 N3         13.9260   -1.1940    7.5010 N.2      25   C41      -0.7584
    792 C4         13.1680   -1.5380    6.4830 C.2      25   C41       0.8185
    793 N4         13.5790   -1.1420    5.3220 N.pl3    25   C41      -0.9530
    794 C5         11.9760   -2.2900    6.6070 C.2      25   C41      -0.5215
    795 C6         11.5900   -2.6450    7.8550 C.2      25   C41       0.0053
    796 H5'         8.4210   -4.6640   10.4310 H        25   C41       0.0679
    797 H5''        7.5690   -3.1320   10.6580 H        25   C41       0.0679
    798 H4'         9.6350   -3.1870   11.9430 H        25   C41       0.1174
    799 H3'         9.6640   -1.2220    9.6400 H        25   C41       0.0615
    800 H2'        11.7270   -0.4000   10.5860 H        25   C41       0.0972
    801 HO2'       10.9270   -0.8770   12.8810 H        25   C41       0.4186
    802 H1'        12.8030   -2.8860   10.9190 H        25   C41       0.2029
    803 H41        14.4520   -0.6390    5.2610 H        25   C41       0.4234
    804 H42        13.0030   -1.2170    4.4960 H        25   C41       0.4234
    805 H5         11.3890   -2.5840    5.7540 H        25   C41       0.1928
    806 H6         10.6830   -3.2220    7.9860 H        25   C41       0.1958
    807 P           8.5030    0.7430   11.1530 P.3      26   U42       1.1662
    808 OP1         7.6490    1.2440   12.2570 O.co2    26   U42      -0.7760
    809 OP2         7.9350    0.6820    9.7850 O.co2    26   U42      -0.7760
    810 O5'         9.8430    1.6310   11.0920 O.3      26   U42      -0.4989
    811 C5'        10.5000    2.0540   12.2760 C.3      26   U42       0.0558
    812 C4'        11.8070    2.8020   11.9810 C.3      26   U42       0.1065
    813 O4'        12.7440    2.0040   11.2570 O.3      26   U42      -0.3548
    814 C3'        11.6380    4.0970   11.1810 C.3      26   U42       0.2022
    815 O3'        11.1280    5.1800   11.9490 O.3      26   U42      -0.5246
    816 C2'        13.0930    4.3030   10.7440 C.3      26   U42       0.0670
    817 O2'        13.9290    4.7780   11.8000 O.3      26   U42      -0.6139
    818 C1'        13.5120    2.8630   10.4120 C.3      26   U42       0.0674
    819 N1         13.2990    2.5710    8.9640 N.am     26   U42       0.0418
    820 C2         14.2690    3.0360    8.0660 C.2      26   U42       0.4687
    821 O2         15.2730    3.6640    8.4030 O.2      26   U42      -0.5477
    822 N3         14.0630    2.7730    6.7330 N.am     26   U42      -0.3549
    823 C4         12.9760    2.1380    6.1950 C.2      26   U42       0.5952
    824 O4         12.9070    1.9930    4.9830 O.2      26   U42      -0.5761
    825 C5         12.0000    1.6960    7.1660 C.2      26   U42      -0.3635
    826 C6         12.1760    1.9130    8.4970 C.2      26   U42      -0.1126
    827 H5'        10.7290    1.1910   12.9010 H        26   U42       0.0679
    828 H5''        9.8430    2.7170   12.8400 H        26   U42       0.0679
    829 H4'        12.2580    3.0660   12.9390 H        26   U42       0.1174
    830 H3'        11.0160    3.9060   10.3040 H        26   U42       0.0615
    831 H2'        13.1550    4.9580    9.8740 H        26   U42       0.0972
    832 HO2'       13.4700    5.5100   12.2490 H        26   U42       0.4186
    833 H1'        14.5750    2.7500   10.6350 H        26   U42       0.1824
    834 H3         14.7440    3.1260    6.0790 H        26   U42       0.3154
    835 H5         11.1180    1.1860    6.8070 H        26   U42       0.1811
    836 H6         11.4250    1.5670    9.1970 H        26   U42       0.2188
    837 P          10.3830    6.4150   11.2440 P.3      27   G43       1.1662
    838 OP1         9.9060    7.3220   12.3160 O.co2    27   G43      -0.7760
    839 OP2         9.3960    5.8740   10.2800 O.co2    27   G43      -0.7760
    840 O5'        11.5300    7.1670   10.4040 O.3      27   G43      -0.4989
    841 C5'        12.4960    7.9890   11.0460 C.3      27   G43       0.0558
    842 C4'        13.5380    8.5280   10.0570 C.3      27   G43       0.1065
    843 O4'        14.2080    7.4760    9.3670 O.3      27   G43      -0.3548
    844 C3'        12.9610    9.4630    8.9910 C.3      27   G43       0.2022
    845 O3'        12.7050   10.7730    9.4890 O.3      27   G43      -0.5246
    846 C2'        14.0930    9.3960    7.9530 C.3      27   G43       0.0670
    847 O2'        15.2250   10.2020    8.2850 O.3      27   G43      -0.6139
    848 C1'        14.5140    7.9240    8.0510 C.3      27   G43       0.0191
    849 N9         13.8220    7.0930    7.0350 N.ar     27   G43       0.0492
    850 C8         12.7490    6.2400    7.1750 C.ar     27   G43       0.1374
    851 N7         12.4400    5.5790    6.0850 N.ar     27   G43      -0.5709
    852 C5         13.3730    6.0450    5.1530 C.ar     27   G43       0.1744
    853 C6         13.5720    5.7040    3.7750 C.2      27   G43       0.4770
    854 O6         12.9700    4.8720    3.1030 O.2      27   G43      -0.5597
    855 N1         14.5660    6.4370    3.1610 N.am     27   G43      -0.4787
    856 C2         15.3130    7.3690    3.7980 C.2      27   G43       0.7657
    857 N2         16.1920    8.0160    3.0810 N.pl3    27   G43      -0.9672
    858 N3         15.1920    7.6920    5.0850 N.2      27   G43      -0.6323
    859 C4         14.1950    6.9950    5.7150 C.ar     27   G43       0.1222
    860 H5'        13.0110    7.4210   11.8200 H        27   G43       0.0679
    861 H5''       11.9970    8.8360   11.5200 H        27   G43       0.0679
    862 H4'        14.2810    9.0950   10.6210 H        27   G43       0.1174
    863 H3'        12.0560    9.0160    8.5790 H        27   G43       0.0615
    864 H2'        13.7200    9.6390    6.9570 H        27   G43       0.0972
    865 HO2'       15.7710   10.3340    7.4870 H        27   G43       0.4186
    866 H1'        15.5890    7.8480    7.8680 H        27   G43       0.2006
    867 H8         12.2210    6.1150    8.1130 H        27   G43       0.1640
    868 H1         14.7350    6.2560    2.1840 H        27   G43       0.3424
    869 H21        16.2720    7.8320    2.0830 H        27   G43       0.4364
    870 H22        16.7590    8.7070    3.5390 H        27   G43       0.4364
    871 P          11.6570   11.7520    8.7700 P.3      28   C44       1.1662
    872 OP1        11.6350   13.0260    9.5310 O.co2    28   C44      -0.7760
    873 OP2        10.3850   11.0090    8.5980 O.co2    28   C44      -0.7760
    874 O5'        12.2490   12.0440    7.3030 O.3      28   C44      -0.4989
    875 C5'        13.3620   12.9010    7.0990 C.3      28   C44       0.0558
    876 C4'        13.8500   12.8820    5.6410 C.3      28   C44       0.1065
    877 O4'        14.3270   11.5940    5.2440 O.3      28   C44      -0.3548
    878 C3'        12.8010   13.2960    4.6000 C.3      28   C44       0.2022
    879 O3'        12.5950   14.7010    4.4950 O.3      28   C44      -0.5246
    880 C2'        13.4570   12.7110    3.3430 C.3      28   C44       0.0670
    881 O2'        14.5590   13.4900    2.8780 O.3      28   C44      -0.6139
    882 C1'        14.0150   11.3850    3.8650 C.3      28   C44       0.0066
    883 N1         13.0290   10.2790    3.6750 N.am     28   C44      -0.0484
    884 C2         12.9950    9.6080    2.4450 C.2      28   C44       0.7538
    885 O2         13.6980    9.9420    1.4910 O.2      28   C44      -0.6252
    886 N3         12.1710    8.5510    2.2600 N.2      28   C44      -0.7584
    887 C4         11.3850    8.1800    3.2490 C.2      28   C44       0.8185
    888 N4         10.6560    7.1280    3.0390 N.pl3    28   C44      -0.9530
    889 C5         11.3370    8.8380    4.5010 C.2      28   C44      -0.5215
    890 C6         12.1680    9.8930    4.6750 C.2      28   C44       0.0053
    891 H5'        14.1850   12.5950    7.7460 H        28   C44       0.0679
    892 H5''       13.0850   13.9240    7.3610 H        28   C44       0.0679
    893 H4'        14.6810   13.5850    5.5620 H        28   C44       0.1174
    894 H3'        11.8630   12.7750    4.8020 H        28   C44       0.0615
    895 H2'        12.7220   12.5540    2.5570 H        28   C44       0.0972
    896 HO2'       14.3000   14.4290    2.9080 H        28   C44       0.4186
    897 H1'        14.9240   11.1470    3.3040 H        28   C44       0.2029
    898 H41        10.7480    6.6750    2.1350 H        28   C44       0.4234
    899 H42        10.1010    6.7440    3.7830 H        28   C44       0.4234
    900 H5         10.6780    8.5310    5.2980 H        28   C44       0.1928
    901 H6         12.1620   10.4250    5.6120 H        28   C44       0.1958
    902 P          11.2270   15.2900    3.8880 P.3      29   C45       1.1662
    903 OP1        11.3370   16.7710    3.8940 O.co2    29   C45      -0.7760
    904 OP2        10.0950   14.6590    4.6060 O.co2    29   C45      -0.7760
    905 O5'        11.1810   14.7840    2.3600 O.3      29   C45      -0.4989
    906 C5'        11.9860   15.3800    1.3540 C.3      29   C45       0.0558
    907 C4'        11.9650   14.5910    0.0350 C.3      29   C45       0.1065
    908 O4'        12.3680   13.2320    0.2000 O.3      29   C45      -0.3548
    909 C3'        10.6150   14.5590   -0.6910 C.3      29   C45       0.2022
    910 O3'        10.3210   15.7730   -1.3700 O.3      29   C45      -0.5246
    911 C2'        10.8790   13.3860   -1.6440 C.3      29   C45       0.0670
    912 O2'        11.7240   13.7370   -2.7380 O.3      29   C45      -0.6139
    913 C1'        11.6600   12.4250   -0.7410 C.3      29   C45       0.0066
    914 N1         10.7520   11.4460   -0.0660 N.am     29   C45      -0.0484
    915 C2         10.3700   10.3050   -0.7810 C.2      29   C45       0.7538
    916 O2         10.7290   10.1160   -1.9400 O.2      29   C45      -0.6252
    917 N3          9.5700    9.3670   -0.2230 N.2      29   C45      -0.7584
    918 C4          9.1410    9.5570    1.0050 C.2      29   C45       0.8185
    919 N4          8.3650    8.6280    1.4850 N.pl3    29   C45      -0.9530
    920 C5          9.4630   10.7050    1.7780 C.2      29   C45      -0.5215
    921 C6         10.2720   11.6330    1.2090 C.2      29   C45       0.0053
    922 H5'        13.0180   15.4410    1.6970 H        29   C45       0.0679
    923 H5''       11.6350   16.3950    1.1610 H        29   C45       0.0679
    924 H4'        12.6780   15.0700   -0.6390 H        29   C45       0.1174
    925 H3'         9.8210   14.2870    0.0070 H        29   C45       0.0615
    926 H2'         9.9460   12.9460   -1.9980 H        29   C45       0.0972
    927 HO2'       11.4310   14.5990   -3.0840 H        29   C45       0.4186
    928 H1'        12.3710   11.8710   -1.3600 H        29   C45       0.2029
    929 H41         8.1980    7.8110    0.9080 H        29   C45       0.4234
    930 H42         8.0370    8.7010    2.4310 H        29   C45       0.4234
    931 H5          9.0930   10.8540    2.7800 H        29   C45       0.1928
    932 H6         10.5450   12.5210    1.7650 H        29   C45       0.1958
    933 P           8.8090   16.1820   -1.7120 P.3      30   C46       1.1662
    934 OP1         8.8390   17.5100   -2.3730 O.co2    30   C46      -0.7760
    935 OP2         7.9930   16.0160   -0.4860 O.co2    30   C46      -0.7760
    936 O5'         8.3190   15.0850   -2.7790 O.3      30   C46      -0.4989
    937 C5'         8.7380   15.1260   -4.1360 C.3      30   C46       0.0558
    938 C4'         8.1670   13.9530   -4.9460 C.3      30   C46       0.1065
    939 O4'         8.6290   12.6890   -4.4760 O.3      30   C46      -0.3548
    940 C3'         6.6360   13.8910   -4.9410 C.3      30   C46       0.2022
    941 O3'         6.0200   14.8190   -5.8350 O.3      30   C46      -0.6541
    942 C2'         6.4210   12.4300   -5.3590 C.3      30   C46       0.0670
    943 O2'         6.5370   12.2340   -6.7680 O.3      30   C46      -0.6139
    944 C1'         7.6000   11.7200   -4.6730 C.3      30   C46       0.0066
    945 N1          7.1670   11.1040   -3.3840 N.am     30   C46      -0.0484
    946 C2          6.5600    9.8390   -3.4270 C.2      30   C46       0.7538
    947 O2          6.4100    9.2140   -4.4770 O.2      30   C46      -0.6252
    948 N3          6.0840    9.2610   -2.3000 N.2      30   C46      -0.7584
    949 C4          6.1960    9.9140   -1.1610 C.2      30   C46       0.8185
    950 N4          5.6920    9.3180   -0.1210 N.pl3    30   C46      -0.9530
    951 C5          6.7930   11.1990   -1.0480 C.2      30   C46      -0.5215
    952 C6          7.2700   11.7670   -2.1810 C.2      30   C46       0.0053
    953 H5'         9.8250   15.0970   -4.1960 H        30   C46       0.0679
    954 H5''        8.3960   16.0560   -4.5930 H        30   C46       0.0679
    955 H4'         8.4890   14.0680   -5.9830 H        30   C46       0.1174
    956 H3'         6.2640   14.0350   -3.9240 H        30   C46       0.0615
    957 HO3'        5.0490   14.7530   -5.7310 H        30   C46       0.4376
    958 H2'         5.4600   12.0620   -4.9930 H        30   C46       0.0972
    959 HO2'        5.9850   12.9050   -7.2150 H        30   C46       0.4186
    960 H1'         7.9610   10.9280   -5.3380 H        30   C46       0.2029
    961 H41         5.3190    8.3850   -0.2560 H        30   C46       0.4234
    962 H42         5.7640    9.7450    0.7840 H        30   C46       0.4234
    963 H5          6.8690   11.7220   -0.1060 H        30   C46       0.1928
    964 H6          7.7290   12.7490   -2.1380 H        30   C46       0.1958
@<TRIPOS>BOND
     1    1    2 1
     2    2   21 1
     3    2   22 1
     4    2    3 1
     5    3    5 1
     6    3   23 1
     7    3    4 1
     8    4    9 1
     9    5   24 1
    10    5    7 1
    11    5    6 1
    12    7    9 1
    13    7   25 1
    14    7    8 1
    15    8   26 1
    16    9   27 1
    17    9   10 1
    18   10   20 ar
    19   10   11 ar
    20   11   28 1
    21   11   12 ar
    22   12   13 ar
    23   13   20 ar
    24   13   14 1
    25   14   15 2
    26   14   16 am
    27   16   17 1
    28   16   29 1
    29   17   18 2
    30   17   19 2
    31   18   30 1
    32   18   31 1
    33   19   20 1
    34   32    1 1
    35   33   35 1
    36   33   34 1
    37   33   36 1
    38   36   37 1
    39   37   38 1
    40   37   56 1
    41   37   57 1
    42   38   40 1
    43   38   58 1
    44   38   39 1
    45   39   44 1
    46   40   41 1
    47   40   42 1
    48   40   59 1
    49   42   43 1
    50   42   60 1
    51   42   44 1
    52   43   61 1
    53   44   45 1
    54   44   62 1
    55   45   46 ar
    56   45   55 ar
    57   46   47 ar
    58   46   63 1
    59   47   48 ar
    60   48   55 ar
    61   48   49 1
    62   49   50 2
    63   49   51 am
    64   51   52 1
    65   51   64 1
    66   52   53 2
    67   52   54 2
    68   53   66 1
    69   53   65 1
    70   54   55 1
    71   33    6 1
    72   67   69 1
    73   67   68 1
    74   67   70 1
    75   70   71 1
    76   71   72 1
    77   71   90 1
    78   71   91 1
    79   72   74 1
    80   72   92 1
    81   72   73 1
    82   73   78 1
    83   74   75 1
    84   74   76 1
    85   74   93 1
    86   76   77 1
    87   76   94 1
    88   76   78 1
    89   77   95 1
    90   78   79 1
    91   78   96 1
    92   79   80 ar
    93   79   89 ar
    94   80   81 ar
    95   80   97 1
    96   81   82 ar
    97   82   89 ar
    98   82   83 1
    99   83   84 2
   100   83   85 am
   101   85   86 1
   102   85   98 1
   103   86   87 2
   104   86   88 2
   105   87  100 1
   106   87   99 1
   107   88   89 1
   108   41   67 1
   109  101  102 1
   110  101  103 1
   111  101  104 1
   112  104  105 1
   113  105  121 1
   114  105  122 1
   115  105  106 1
   116  106  108 1
   117  106  123 1
   118  106  107 1
   119  107  112 1
   120  108  124 1
   121  108  110 1
   122  108  109 1
   123  110  125 1
   124  110  111 1
   125  110  112 1
   126  111  126 1
   127  112  127 1
   128  112  113 1
   129  113  114 am
   130  113  120 1
   131  114  116 1
   132  114  115 2
   133  116  117 2
   134  117  119 2
   135  117  118 2
   136  118  128 1
   137  118  129 1
   138  119  120 2
   139  119  130 1
   140  120  131 1
   141   75  101 1
   142  132  133 1
   143  132  134 1
   144  132  135 1
   145  135  136 1
   146  136  154 1
   147  136  155 1
   148  136  137 1
   149  137  139 1
   150  137  156 1
   151  137  138 1
   152  138  143 1
   153  139  157 1
   154  139  141 1
   155  139  140 1
   156  141  143 1
   157  141  158 1
   158  141  142 1
   159  142  159 1
   160  143  160 1
   161  143  144 1
   162  144  153 ar
   163  144  145 ar
   164  145  161 1
   165  145  146 ar
   166  146  147 ar
   167  147  153 ar
   168  147  148 ar
   169  148  150 ar
   170  148  149 1
   171  149  162 1
   172  149  163 1
   173  150  151 ar
   174  151  164 1
   175  151  152 ar
   176  152  153 ar
   177  109  132 1
   178  165  167 1
   179  165  166 1
   180  165  168 1
   181  168  169 1
   182  169  170 1
   183  169  188 1
   184  169  189 1
   185  170  172 1
   186  170  190 1
   187  170  171 1
   188  171  176 1
   189  172  173 1
   190  172  174 1
   191  172  191 1
   192  174  175 1
   193  174  192 1
   194  174  176 1
   195  175  193 1
   196  176  177 1
   197  176  194 1
   198  177  178 ar
   199  177  187 ar
   200  178  179 ar
   201  178  195 1
   202  179  180 ar
   203  180  187 ar
   204  180  181 1
   205  181  182 2
   206  181  183 am
   207  183  184 1
   208  183  196 1
   209  184  185 2
   210  184  186 2
   211  185  198 1
   212  185  197 1
   213  186  187 1
   214  140  165 1
   215  199  200 1
   216  199  201 1
   217  199  202 1
   218  202  203 1
   219  203  221 1
   220  203  222 1
   221  203  204 1
   222  204  206 1
   223  204  223 1
   224  204  205 1
   225  205  210 1
   226  206  224 1
   227  206  208 1
   228  206  207 1
   229  208  210 1
   230  208  225 1
   231  208  209 1
   232  209  226 1
   233  210  227 1
   234  210  211 1
   235  211  220 ar
   236  211  212 ar
   237  212  228 1
   238  212  213 ar
   239  213  214 ar
   240  214  220 ar
   241  214  215 ar
   242  215  217 ar
   243  215  216 1
   244  216  229 1
   245  216  230 1
   246  217  218 ar
   247  218  231 1
   248  218  219 ar
   249  219  220 ar
   250  173  199 1
   251  232  235 1
   252  232  234 1
   253  232  233 1
   254  235  236 1
   255  236  252 1
   256  236  253 1
   257  236  237 1
   258  237  239 1
   259  237  254 1
   260  237  238 1
   261  238  243 1
   262  239  255 1
   263  239  241 1
   264  239  240 1
   265  241  256 1
   266  241  242 1
   267  241  243 1
   268  242  257 1
   269  243  258 1
   270  243  244 1
   271  244  245 am
   272  244  251 1
   273  245  246 2
   274  245  247 am
   275  247  248 am
   276  247  259 1
   277  248  250 1
   278  248  249 2
   279  250  251 2
   280  250  260 1
   281  251  261 1
   282  207  232 1
   283  262  265 1
   284  262  264 1
   285  262  263 1
   286  265  266 1
   287  266  282 1
   288  266  283 1
   289  266  267 1
   290  267  269 1
   291  267  284 1
   292  267  268 1
   293  268  273 1
   294  269  285 1
   295  269  271 1
   296  269  270 1
   297  271  286 1
   298  271  272 1
   299  271  273 1
   300  272  287 1
   301  273  288 1
   302  273  274 1
   303  274  275 am
   304  274  281 1
   305  275  276 2
   306  275  277 am
   307  277  278 am
   308  277  289 1
   309  278  280 1
   310  278  279 2
   311  280  281 2
   312  280  290 1
   313  281  291 1
   314  240  262 1
   315  292  294 1
   316  292  293 1
   317  292  295 1
   318  295  296 1
   319  296  297 1
   320  296  315 1
   321  296  316 1
   322  297  299 1
   323  297  317 1
   324  297  298 1
   325  298  303 1
   326  299  300 1
   327  299  301 1
   328  299  318 1
   329  301  302 1
   330  301  319 1
   331  301  303 1
   332  302  320 1
   333  303  304 1
   334  303  321 1
   335  304  305 ar
   336  304  314 ar
   337  305  306 ar
   338  305  322 1
   339  306  307 ar
   340  307  314 ar
   341  307  308 1
   342  308  309 2
   343  308  310 am
   344  310  311 1
   345  310  323 1
   346  311  312 2
   347  311  313 2
   348  312  325 1
   349  312  324 1
   350  313  314 1
   351  270  292 1
   352  326  327 1
   353  326  328 1
   354  326  329 1
   355  329  330 1
   356  330  348 1
   357  330  349 1
   358  330  331 1
   359  331  333 1
   360  331  350 1
   361  331  332 1
   362  332  337 1
   363  333  351 1
   364  333  335 1
   365  333  334 1
   366  335  337 1
   367  335  352 1
   368  335  336 1
   369  336  353 1
   370  337  354 1
   371  337  338 1
   372  338  347 ar
   373  338  339 ar
   374  339  355 1
   375  339  340 ar
   376  340  341 ar
   377  341  347 ar
   378  341  342 ar
   379  342  344 ar
   380  342  343 1
   381  343  356 1
   382  343  357 1
   383  344  345 ar
   384  345  358 1
   385  345  346 ar
   386  346  347 ar
   387  300  326 1
   388  359  361 1
   389  359  360 1
   390  359  362 1
   391  362  363 1
   392  363  364 1
   393  363  382 1
   394  363  383 1
   395  364  366 1
   396  364  384 1
   397  364  365 1
   398  365  370 1
   399  366  367 1
   400  366  368 1
   401  366  385 1
   402  368  369 1
   403  368  386 1
   404  368  370 1
   405  369  387 1
   406  370  371 1
   407  370  388 1
   408  371  372 ar
   409  371  381 ar
   410  372  373 ar
   411  372  389 1
   412  373  374 ar
   413  374  381 ar
   414  374  375 1
   415  375  376 2
   416  375  377 am
   417  377  378 1
   418  377  390 1
   419  378  379 2
   420  378  380 2
   421  379  392 1
   422  379  391 1
   423  380  381 1
   424  334  359 1
   425  393  394 1
   426  393  395 1
   427  393  396 1
   428  396  397 1
   429  397  413 1
   430  397  414 1
   431  397  398 1
   432  398  400 1
   433  398  415 1
   434  398  399 1
   435  399  404 1
   436  400  416 1
   437  400  402 1
   438  400  401 1
   439  402  417 1
   440  402  403 1
   441  402  404 1
   442  403  418 1
   443  404  419 1
   444  404  405 1
   445  405  406 am
   446  405  412 1
   447  406  408 1
   448  406  407 2
   449  408  409 2
   450  409  411 2
   451  409  410 2
   452  410  420 1
   453  410  421 1
   454  411  412 2
   455  411  422 1
   456  412  423 1
   457  367  393 1
   458  424  425 1
   459  424  426 1
   460  424  427 1
   461  427  428 1
   462  428  444 1
   463  428  445 1
   464  428  429 1
   465  429  431 1
   466  429  446 1
   467  429  430 1
   468  430  435 1
   469  431  447 1
   470  431  433 1
   471  431  432 1
   472  433  448 1
   473  433  434 1
   474  433  435 1
   475  434  449 1
   476  435  450 1
   477  435  436 1
   478  436  437 am
   479  436  443 1
   480  437  439 1
   481  437  438 2
   482  439  440 2
   483  440  442 2
   484  440  441 2
   485  441  451 1
   486  441  452 1
   487  442  443 2
   488  442  453 1
   489  443  454 1
   490  401  424 1
   491  455  458 1
   492  455  457 1
   493  455  456 1
   494  458  459 1
   495  459  475 1
   496  459  476 1
   497  459  460 1
   498  460  462 1
   499  460  477 1
   500  460  461 1
   501  461  466 1
   502  462  478 1
   503  462  464 1
   504  462  463 1
   505  464  479 1
   506  464  465 1
   507  464  466 1
   508  465  480 1
   509  466  481 1
   510  466  467 1
   511  467  468 am
   512  467  474 1
   513  468  469 2
   514  468  470 am
   515  470  471 am
   516  470  482 1
   517  471  473 1
   518  471  472 2
   519  473  474 2
   520  473  483 1
   521  474  484 1
   522  432  455 1
   523  485  487 1
   524  485  486 1
   525  485  488 1
   526  488  489 1
   527  489  490 1
   528  489  508 1
   529  489  509 1
   530  490  492 1
   531  490  510 1
   532  490  491 1
   533  491  496 1
   534  492  493 1
   535  492  494 1
   536  492  511 1
   537  494  495 1
   538  494  512 1
   539  494  496 1
   540  495  513 1
   541  496  497 1
   542  496  514 1
   543  497  498 ar
   544  497  507 ar
   545  498  499 ar
   546  498  515 1
   547  499  500 ar
   548  500  507 ar
   549  500  501 1
   550  501  502 2
   551  501  503 am
   552  503  504 1
   553  503  516 1
   554  504  505 2
   555  504  506 2
   556  505  518 1
   557  505  517 1
   558  506  507 1
   559  463  485 1
   560  519  521 1
   561  519  520 1
   562  519  522 1
   563  522  523 1
   564  523  524 1
   565  523  542 1
   566  523  543 1
   567  524  526 1
   568  524  544 1
   569  524  525 1
   570  525  530 1
   571  526  527 1
   572  526  528 1
   573  526  545 1
   574  528  529 1
   575  528  546 1
   576  528  530 1
   577  529  547 1
   578  530  531 1
   579  530  548 1
   580  531  532 ar
   581  531  541 ar
   582  532  533 ar
   583  532  549 1
   584  533  534 ar
   585  534  541 ar
   586  534  535 1
   587  535  536 2
   588  535  537 am
   589  537  538 1
   590  537  550 1
   591  538  539 2
   592  538  540 2
   593  539  552 1
   594  539  551 1
   595  540  541 1
   596  493  519 1
   597  553  555 1
   598  553  554 1
   599  553  556 1
   600  556  557 1
   601  557  558 1
   602  557  576 1
   603  557  577 1
   604  558  560 1
   605  558  578 1
   606  558  559 1
   607  559  564 1
   608  560  561 1
   609  560  562 1
   610  560  579 1
   611  562  563 1
   612  562  580 1
   613  562  564 1
   614  563  581 1
   615  564  565 1
   616  564  582 1
   617  565  566 ar
   618  565  575 ar
   619  566  567 ar
   620  566  583 1
   621  567  568 ar
   622  568  575 ar
   623  568  569 1
   624  569  570 2
   625  569  571 am
   626  571  572 1
   627  571  584 1
   628  572  573 2
   629  572  574 2
   630  573  586 1
   631  573  585 1
   632  574  575 1
   633  527  553 1
   634  587  588 1
   635  587  589 1
   636  587  590 1
   637  590  591 1
   638  591  609 1
   639  591  610 1
   640  591  592 1
   641  592  594 1
   642  592  611 1
   643  592  593 1
   644  593  598 1
   645  594  612 1
   646  594  596 1
   647  594  595 1
   648  596  598 1
   649  596  613 1
   650  596  597 1
   651  597  614 1
   652  598  615 1
   653  598  599 1
   654  599  608 ar
   655  599  600 ar
   656  600  616 1
   657  600  601 ar
   658  601  602 ar
   659  602  608 ar
   660  602  603 ar
   661  603  605 ar
   662  603  604 1
   663  604  617 1
   664  604  618 1
   665  605  606 ar
   666  606  619 1
   667  606  607 ar
   668  607  608 ar
   669  561  587 1
   670  620  622 1
   671  620  621 1
   672  620  623 1
   673  623  624 1
   674  624  625 1
   675  624  643 1
   676  624  644 1
   677  625  627 1
   678  625  645 1
   679  625  626 1
   680  626  631 1
   681  627  628 1
   682  627  629 1
   683  627  646 1
   684  629  630 1
   685  629  647 1
   686  629  631 1
   687  630  648 1
   688  631  632 1
   689  631  649 1
   690  632  633 ar
   691  632  642 ar
   692  633  634 ar
   693  633  650 1
   694  634  635 ar
   695  635  642 ar
   696  635  636 1
   697  636  637 2
   698  636  638 am
   699  638  639 1
   700  638  651 1
   701  639  640 2
   702  639  641 2
   703  640  653 1
   704  640  652 1
   705  641  642 1
   706  595  620 1
   707  654  655 1
   708  654  656 1
   709  654  657 1
   710  657  658 1
   711  658  674 1
   712  658  675 1
   713  658  659 1
   714  659  661 1
   715  659  676 1
   716  659  660 1
   717  660  665 1
   718  661  677 1
   719  661  663 1
   720  661  662 1
   721  663  678 1
   722  663  664 1
   723  663  665 1
   724  664  679 1
   725  665  680 1
   726  665  666 1
   727  666  667 am
   728  666  673 1
   729  667  669 1
   730  667  668 2
   731  669  670 2
   732  670  672 2
   733  670  671 2
   734  671  681 1
   735  671  682 1
   736  672  673 2
   737  672  683 1
   738  673  684 1
   739  628  654 1
   740  685  688 1
   741  685  687 1
   742  685  686 1
   743  688  689 1
   744  689  705 1
   745  689  706 1
   746  689  690 1
   747  690  692 1
   748  690  707 1
   749  690  691 1
   750  691  696 1
   751  692  708 1
   752  692  694 1
   753  692  693 1
   754  694  709 1
   755  694  695 1
   756  694  696 1
   757  695  710 1
   758  696  711 1
   759  696  697 1
   760  697  698 am
   761  697  704 1
   762  698  699 2
   763  698  700 am
   764  700  701 am
   765  700  712 1
   766  701  703 1
   767  701  702 2
   768  703  704 2
   769  703  713 1
   770  704  714 1
   771  662  685 1
   772  715  716 1
   773  715  717 1
   774  715  718 1
   775  718  719 1
   776  719  735 1
   777  719  736 1
   778  719  720 1
   779  720  722 1
   780  720  737 1
   781  720  721 1
   782  721  726 1
   783  722  738 1
   784  722  724 1
   785  722  723 1
   786  724  739 1
   787  724  725 1
   788  724  726 1
   789  725  740 1
   790  726  741 1
   791  726  727 1
   792  727  728 am
   793  727  734 1
   794  728  730 1
   795  728  729 2
   796  730  731 2
   797  731  733 2
   798  731  732 2
   799  732  742 1
   800  732  743 1
   801  733  734 2
   802  733  744 1
   803  734  745 1
   804  693  715 1
   805  746  749 1
   806  746  748 1
   807  746  747 1
   808  749  750 1
   809  750  766 1
   810  750  767 1
   811  750  751 1
   812  751  753 1
   813  751  768 1
   814  751  752 1
   815  752  757 1
   816  753  769 1
   817  753  755 1
   818  753  754 1
   819  755  770 1
   820  755  756 1
   821  755  757 1
   822  756  771 1
   823  757  772 1
   824  757  758 1
   825  758  759 am
   826  758  765 1
   827  759  760 2
   828  759  761 am
   829  761  762 am
   830  761  773 1
   831  762  764 1
   832  762  763 2
   833  764  765 2
   834  764  774 1
   835  765  775 1
   836  723  746 1
   837  776  777 1
   838  776  778 1
   839  776  779 1
   840  779  780 1
   841  780  796 1
   842  780  797 1
   843  780  781 1
   844  781  783 1
   845  781  798 1
   846  781  782 1
   847  782  787 1
   848  783  799 1
   849  783  785 1
   850  783  784 1
   851  785  800 1
   852  785  786 1
   853  785  787 1
   854  786  801 1
   855  787  802 1
   856  787  788 1
   857  788  789 am
   858  788  795 1
   859  789  791 1
   860  789  790 2
   861  791  792 2
   862  792  794 2
   863  792  793 2
   864  793  803 1
   865  793  804 1
   866  794  795 2
   867  794  805 1
   868  795  806 1
   869  754  776 1
   870  807  810 1
   871  807  809 1
   872  807  808 1
   873  810  811 1
   874  811  827 1
   875  811  828 1
   876  811  812 1
   877  812  814 1
   878  812  829 1
   879  812  813 1
   880  813  818 1
   881  814  830 1
   882  814  816 1
   883  814  815 1
   884  816  831 1
   885  816  817 1
   886  816  818 1
   887  817  832 1
   888  818  833 1
   889  818  819 1
   890  819  820 am
   891  819  826 1
   892  820  821 2
   893  820  822 am
   894  822  823 am
   895  822  834 1
   896  823  825 1
   897  823  824 2
   898  825  826 2
   899  825  835 1
   900  826  836 1
   901  784  807 1
   902  837  839 1
   903  837  838 1
   904  837  840 1
   905  840  841 1
   906  841  842 1
   907  841  860 1
   908  841  861 1
   909  842  844 1
   910  842  862 1
   911  842  843 1
   912  843  848 1
   913  844  845 1
   914  844  846 1
   915  844  863 1
   916  846  847 1
   917  846  864 1
   918  846  848 1
   919  847  865 1
   920  848  849 1
   921  848  866 1
   922  849  850 ar
   923  849  859 ar
   924  850  851 ar
   925  850  867 1
   926  851  852 ar
   927  852  859 ar
   928  852  853 1
   929  853  854 2
   930  853  855 am
   931  855  856 1
   932  855  868 1
   933  856  857 2
   934  856  858 2
   935  857  870 1
   936  857  869 1
   937  858  859 1
   938  815  837 1
   939  871  872 1
   940  871  873 1
   941  871  874 1
   942  874  875 1
   943  875  891 1
   944  875  892 1
   945  875  876 1
   946  876  878 1
   947  876  893 1
   948  876  877 1
   949  877  882 1
   950  878  894 1
   951  878  880 1
   952  878  879 1
   953  880  895 1
   954  880  881 1
   955  880  882 1
   956  881  896 1
   957  882  897 1
   958  882  883 1
   959  883  884 am
   960  883  890 1
   961  884  886 1
   962  884  885 2
   963  886  887 2
   964  887  889 2
   965  887  888 2
   966  888  898 1
   967  888  899 1
   968  889  890 2
   969  889  900 1
   970  890  901 1
   971  845  871 1
   972  902  903 1
   973  902  904 1
   974  902  905 1
   975  905  906 1
   976  906  922 1
   977  906  923 1
   978  906  907 1
   979  907  909 1
   980  907  924 1
   981  907  908 1
   982  908  913 1
   983  909  925 1
   984  909  911 1
   985  909  910 1
   986  911  926 1
   987  911  912 1
   988  911  913 1
   989  912  927 1
   990  913  928 1
   991  913  914 1
   992  914  915 am
   993  914  921 1
   994  915  917 1
   995  915  916 2
   996  917  918 2
   997  918  920 2
   998  918  919 2
   999  919  929 1
  1000  919  930 1
  1001  920  921 2
  1002  920  931 1
  1003  921  932 1
  1004  879  902 1
  1005  936  937 1
  1006  937  953 1
  1007  937  954 1
  1008  937  938 1
  1009  938  940 1
  1010  938  955 1
  1011  938  939 1
  1012  939  944 1
  1013  940  956 1
  1014  940  942 1
  1015  940  941 1
  1016  942  958 1
  1017  942  943 1
  1018  942  944 1
  1019  943  959 1
  1020  944  960 1
  1021  944  945 1
  1022  945  952 1
  1023  945  946 am
  1024  946  947 2
  1025  946  948 1
  1026  948  949 2
  1027  949  951 2
  1028  949  950 2
  1029  950  961 1
  1030  950  962 1
  1031  951  952 2
  1032  951  963 1
  1033  952  964 1
  1034  933  934 1
  1035  933  935 1
  1036  933  936 1
  1037  957  941 1
  1038  910  933 1
@<TRIPOS>SUBSTRUCTURE
     1   G16       3 RESIDUE           4 A       G     1 ROOT
     2   G17      38 RESIDUE           4 A       G     2
     3   G18      72 RESIDUE           4 A       G     2
     4   C19     106 RESIDUE           4 A       C     2
     5   A20     137 RESIDUE           4 A       A     2
     6   G21     170 RESIDUE           4 A       G     2
     7   A22     204 RESIDUE           4 A       A     2
     8   U23     237 RESIDUE           4 A       U     2
     9   U25     267 RESIDUE           4 A       U     2
    10   G26     297 RESIDUE           4 A       G     2
    11   A27     331 RESIDUE           4 A       A     2
    12   G28     364 RESIDUE           4 A       G     2
    13   C29     398 RESIDUE           4 A       C     2
    14   C30     429 RESIDUE           4 A       C     2
    15   U31     460 RESIDUE           4 A       U     2
    16   G32     490 RESIDUE           4 A       G     2
    17   G33     524 RESIDUE           4 A       G     2
    18   G34     558 RESIDUE           4 A       G     2
    19   A35     592 RESIDUE           4 A       A     2
    20   G36     625 RESIDUE           4 A       G     2
    21   C37     659 RESIDUE           4 A       C     2
    22   U38     690 RESIDUE           4 A       U     2
    23   C39     720 RESIDUE           4 A       C     2
    24   U40     751 RESIDUE           4 A       U     2
    25   C41     781 RESIDUE           4 A       C     2
    26   U42     812 RESIDUE           4 A       U     2
    27   G43     842 RESIDUE           4 A       G     2
    28   C44     876 RESIDUE           4 A       C     2
    29   C45     907 RESIDUE           4 A       C     2
    30   C46     938 RESIDUE           4 A       C     1
