@<TRIPOS>MOLECULE
4FE5.pdb
2145 2312 67 0 0
NUCLEIC_ACID
AMBER ff14SB


@<TRIPOS>ATOM
      1 O5'         3.7940    4.3340   21.5050 O.3       1   G15      -0.6223
      2 C5'         4.8930    3.7800   22.2330 C.3       1   G15       0.0558
      3 C4'         4.9800    2.2760   22.1100 C.3       1   G15       0.1065
      4 O4'         3.7220    1.6810   22.5490 O.3       1   G15      -0.3548
      5 C3'         5.1670    1.7420   20.6990 C.3       1   G15       0.2022
      6 O3'         6.5200    1.8490   20.2410 O.3       1   G15      -0.5246
      7 C2'         4.6030    0.3330   20.8310 C.3       1   G15       0.0670
      8 O2'         5.4330   -0.5710   21.5310 O.3       1   G15      -0.6139
      9 C1'         3.3620    0.6170   21.6760 C.3       1   G15       0.0191
     10 N9          2.2300    1.0550   20.8640 N.ar      1   G15       0.0492
     11 C8          1.7940    2.3450   20.6750 C.ar      1   G15       0.1374
     12 N7          0.7630    2.4260   19.8790 N.ar      1   G15      -0.5709
     13 C5          0.4980    1.1110   19.5230 C.ar      1   G15       0.1744
     14 C6         -0.5090    0.5700   18.6770 C.2       1   G15       0.4770
     15 O6         -1.3940    1.1660   18.0500 O.2       1   G15      -0.5597
     16 N1         -0.4190   -0.8150   18.5990 N.am      1   G15      -0.4787
     17 C2          0.5150   -1.5840   19.2470 C.2       1   G15       0.7657
     18 N2          0.4290   -2.9060   19.0460 N.pl3     1   G15      -0.9672
     19 N3          1.4600   -1.0940   20.0340 N.2       1   G15      -0.6323
     20 C4          1.3920    0.2510   20.1260 C.ar      1   G15       0.1222
     21 H5'         5.8172    4.2143   21.8517 H         1   G15       0.0679
     22 H5''        4.7875    4.0426   23.2856 H         1   G15       0.0679
     23 H4'         5.7894    1.9106   22.7420 H         1   G15       0.1174
     24 H3'         4.5264    2.3106   20.0249 H         1   G15       0.0615
     25 H2'         4.3263   -0.0681   19.8560 H         1   G15       0.0972
     26 H1'         3.0904   -0.2668   22.2532 H         1   G15       0.2006
     27 H8          2.2574    3.2037   21.1380 H         1   G15       0.1640
     28 H1         -1.0942   -1.2931   18.0197 H         1   G15       0.3424
     29 H21        -0.2925   -3.2797   18.4462 H         1   G15       0.4364
     30 H22         1.0857   -3.5287   19.4943 H         1   G15       0.4364
     31 HO2'        5.6662   -1.3033   20.9557 H         1   G15       0.4186
     32 HO5'        3.9838    5.2491   21.2854 H         1   G15       0.4295
     33 P           7.6440    0.8220   20.7630 P.3       2   G16       1.1662
     34 OP1         7.4640    0.6030   22.2210 O.co2     2   G16      -0.7760
     35 OP2         8.9500    1.3130   20.2530 O.co2     2   G16      -0.7760
     36 O5'         7.3070   -0.5370   20.0030 O.3       2   G16      -0.4989
     37 C5'         7.8800   -1.7700   20.4260 C.3       2   G16       0.0558
     38 C4'         7.2910   -2.9220   19.6450 C.3       2   G16       0.1065
     39 O4'         5.8420   -2.9060   19.7440 O.3       2   G16      -0.3548
     40 C3'         7.5240   -2.8930   18.1470 C.3       2   G16       0.2022
     41 O3'         8.8260   -3.3600   17.8200 O.3       2   G16      -0.5246
     42 C2'         6.4510   -3.8570   17.6550 C.3       2   G16       0.0670
     43 O2'         6.8160   -5.2140   17.8000 O.3       2   G16      -0.6139
     44 C1'         5.2870   -3.5180   18.5880 C.3       2   G16       0.0191
     45 N9          4.3500   -2.5840   17.9720 N.ar      2   G16       0.0492
     46 C8          4.3680   -1.2130   18.0540 C.ar      2   G16       0.1374
     47 N7          3.4060   -0.6460   17.3780 N.ar      2   G16      -0.5709
     48 C5          2.7100   -1.7070   16.8160 C.ar      2   G16       0.1744
     49 C6          1.5670   -1.7150   15.9740 C.2       2   G16       0.4770
     50 O6          0.9200   -0.7530   15.5410 O.2       2   G16      -0.5597
     51 N1          1.1910   -3.0100   15.6360 N.am      2   G16      -0.4787
     52 C2          1.8280   -4.1520   16.0530 C.2       2   G16       0.7657
     53 N2          1.3090   -5.3100   15.6190 N.pl3     2   G16      -0.9672
     54 N3          2.8930   -4.1600   16.8370 N.2       2   G16      -0.6323
     55 C4          3.2770   -2.9110   17.1770 C.ar      2   G16       0.1222
     56 H5'         8.9573   -1.7396   20.2628 H         2   G16       0.0679
     57 H5''        7.6802   -1.9148   21.4877 H         2   G16       0.0679
     58 H4'         7.6687   -3.8611   20.0495 H         2   G16       0.1174
     59 H3'         7.3591   -1.8922   17.7479 H         2   G16       0.0615
     60 H2'         6.1873   -3.6402   16.6198 H         2   G16       0.0972
     61 H1'         4.7638   -4.4315   18.8705 H         2   G16       0.2006
     62 H8          5.1032   -0.6604   18.6201 H         2   G16       0.1640
     63 H1          0.3856   -3.1191   15.0363 H         2   G16       0.3424
     64 H21         0.4955   -5.3059   15.0204 H         2   G16       0.4364
     65 H22         1.7317   -6.1861   15.8907 H         2   G16       0.4364
     66 HO2'        6.8338   -5.6350   16.9374 H         2   G16       0.4186
     67 P           9.4410   -3.0410   16.3710 P.3       3   A17       1.1662
     68 OP1        10.8680   -3.4530   16.3660 O.co2     3   A17      -0.7760
     69 OP2         9.0800   -1.6390   16.0380 O.co2     3   A17      -0.7760
     70 O5'         8.6300   -4.0000   15.3900 O.3       3   A17      -0.4989
     71 C5'         8.6950   -5.4160   15.5310 C.3       3   A17       0.0558
     72 C4'         7.7140   -6.0800   14.5940 C.3       3   A17       0.1065
     73 O4'         6.3630   -5.7090   14.9730 O.3       3   A17      -0.3548
     74 C3'         7.8270   -5.6660   13.1360 C.3       3   A17       0.2022
     75 O3'         8.8010   -6.4670   12.4770 O.3       3   A17      -0.5246
     76 C2'         6.4270   -5.9540   12.6060 C.3       3   A17       0.0670
     77 O2'         6.2400   -7.3090   12.2510 O.3       3   A17      -0.6139
     78 C1'         5.5570   -5.5980   13.8140 C.3       3   A17       0.0394
     79 N9          5.0160   -4.2410   13.7600 N.ar      3   A17      -0.0251
     80 C8          5.4990   -3.1110   14.3730 C.ar      3   A17       0.2006
     81 N7          4.7880   -2.0360   14.1350 N.ar      3   A17      -0.6073
     82 C5          3.7680   -2.4870   13.3090 C.ar      3   A17       0.0515
     83 C6          2.6800   -1.8330   12.7040 C.ar      3   A17       0.7009
     84 N6          2.4280   -0.5290   12.8440 N.pl3     3   A17      -0.9019
     85 N1          1.8480   -2.5740   11.9400 N.ar      3   A17      -0.7615
     86 C2          2.1010   -3.8810   11.8000 C.ar      3   A17       0.5875
     87 N3          3.0880   -4.6080   12.3160 N.ar      3   A17      -0.6997
     88 C4          3.8960   -3.8430   13.0700 C.ar      3   A17       0.3053
     89 H5'         9.7037   -5.7551   15.2951 H         3   A17       0.0679
     90 H5''        8.4536   -5.6880   16.5585 H         3   A17       0.0679
     91 H4'         7.8230   -7.1620   14.6689 H         3   A17       0.1174
     92 H3'         8.0679   -4.6066   13.0481 H         3   A17       0.0615
     93 H2'         6.1958   -5.3026   11.7632 H         3   A17       0.0972
     94 H1'         4.7332   -6.3084   13.8825 H         3   A17       0.2007
     95 H8          6.3828   -3.1084   14.9937 H         3   A17       0.1553
     96 H2          1.4034   -4.4231   11.1788 H         3   A17       0.0473
     97 H61         1.5934   -0.0886   12.4839 H         3   A17       0.4115
     98 H62         3.1025    0.0427   13.3321 H         3   A17       0.4115
     99 HO2'        6.7900   -7.5206   11.4931 H         3   A17       0.4186
    100 P           9.9730   -5.7620   11.6310 P.3       4   C18       1.1662
    101 OP1        11.1120   -6.7100   11.5180 O.co2     4   C18      -0.7760
    102 OP2        10.1930   -4.4140   12.2130 O.co2     4   C18      -0.7760
    103 O5'         9.3400   -5.5640   10.1850 O.3       4   C18      -0.4989
    104 C5'         8.4130   -4.5170    9.9370 C.3       4   C18       0.0558
    105 C4'         7.3600   -4.9730    8.9560 C.3       4   C18       0.1065
    106 O4'         6.0610   -4.9230    9.6100 O.3       4   C18      -0.3548
    107 C3'         7.2370   -4.0960    7.7160 C.3       4   C18       0.2022
    108 O3'         7.9890   -4.6430    6.6390 O.3       4   C18      -0.5246
    109 C2'         5.7400   -4.1200    7.4280 C.3       4   C18       0.0670
    110 O2'         5.3370   -5.2780    6.7250 O.3       4   C18      -0.6139
    111 C1'         5.1690   -4.1360    8.8440 C.3       4   C18       0.0066
    112 N1          5.0900   -2.7990    9.4570 N.am      4   C18      -0.0484
    113 C2          4.0640   -1.9350    9.0620 C.2       4   C18       0.7538
    114 O2          3.2530   -2.3190    8.2060 O.2       4   C18      -0.6252
    115 N3          3.9830   -0.7060    9.6240 N.2       4   C18      -0.7584
    116 C4          4.8740   -0.3330   10.5450 C.2       4   C18       0.8185
    117 N4          4.7510    0.8830   11.0780 N.pl3     4   C18      -0.9530
    118 C5          5.9300   -1.1930   10.9620 C.2       4   C18      -0.5215
    119 C6          5.9990   -2.4050   10.3990 C.2       4   C18       0.0053
    120 H5'         8.9422   -3.6585    9.5235 H         4   C18       0.0679
    121 H5''        7.9342   -4.2295   10.8730 H         4   C18       0.0679
    122 H4'         7.5709   -5.9984    8.6523 H         4   C18       0.1174
    123 H3'         7.5668   -3.0801    7.9336 H         4   C18       0.0615
    124 H2'         5.4335   -3.2187    6.8972 H         4   C18       0.0972
    125 H1'         4.1817   -4.5979    8.8382 H         4   C18       0.2029
    126 H5          6.6482   -0.8787   11.7048 H         4   C18       0.1928
    127 H6          6.7860   -3.0833   10.6938 H         4   C18       0.1958
    128 H41         4.0009    1.4908   10.7815 H         4   C18       0.4234
    129 H42         5.4080    1.1963   11.7783 H         4   C18       0.4234
    130 HO2'        4.3786   -5.3058    6.6769 H         4   C18       0.4186
    131 P           8.8110   -3.6620    5.6720 P.3       5   A19       1.1662
    132 OP1         9.5060   -4.4730    4.6400 O.co2     5   A19      -0.7760
    133 OP2         9.5950   -2.7510    6.5410 O.co2     5   A19      -0.7760
    134 O5'         7.6790   -2.8020    4.9570 O.3       5   A19      -0.4989
    135 C5'         6.6780   -3.4320    4.1620 C.3       5   A19       0.0558
    136 C4'         5.7370   -2.3970    3.5950 C.3       5   A19       0.1065
    137 O4'         4.8300   -1.9450    4.6360 O.3       5   A19      -0.3548
    138 C3'         6.3970   -1.1170    3.1120 C.3       5   A19       0.2022
    139 O3'         6.9000   -1.2670    1.7930 O.3       5   A19      -0.5246
    140 C2'         5.2370   -0.1350    3.1560 C.3       5   A19       0.0670
    141 O2'         4.3700   -0.2650    2.0470 O.3       5   A19      -0.6139
    142 C1'         4.5260   -0.5740    4.4360 C.3       5   A19       0.0394
    143 N9          4.9660    0.1720    5.6150 N.ar      5   A19      -0.0251
    144 C8          5.9350   -0.1680    6.5270 C.ar      5   A19       0.2006
    145 N7          6.0900    0.7140    7.4860 N.ar      5   A19      -0.6073
    146 C5          5.1610    1.7010    7.1850 C.ar      5   A19       0.0515
    147 C6          4.8180    2.9100    7.8210 C.ar      5   A19       0.7009
    148 N6          5.3880    3.3420    8.9490 N.pl3     5   A19      -0.9019
    149 N1          3.8530    3.6660    7.2540 N.ar      5   A19      -0.7615
    150 C2          3.2710    3.2260    6.1320 C.ar      5   A19       0.5875
    151 N3          3.4990    2.1080    5.4470 N.ar      5   A19      -0.6997
    152 C4          4.4670    1.3820    6.0320 C.ar      5   A19       0.3053
    153 H5'         6.1145   -4.1311    4.7799 H         5   A19       0.0679
    154 H5''        7.1537   -3.9742    3.3448 H         5   A19       0.0679
    155 H4'         5.1623   -2.8377    2.7804 H         5   A19       0.1174
    156 H3'         7.1892   -0.8097    3.7947 H         5   A19       0.0615
    157 H2'         5.5996    0.8890    3.2461 H         5   A19       0.0972
    158 H1'         3.4496   -0.4552    4.3122 H         5   A19       0.2007
    159 H8          6.5152   -1.0765    6.4610 H         5   A19       0.1553
    160 H2          2.5067    3.8707    5.7239 H         5   A19       0.0473
    161 HO2'        4.3621    0.5554    1.5485 H         5   A19       0.4186
    162 H61         4.8505    4.0899    9.3635 H         5   A19       0.4115
    163 H62         6.2434    2.9700    9.3363 H         5   A19       0.4115
    164 P           8.1070   -0.3320    1.2970 P.3       6   U20       1.1662
    165 OP1         8.5090   -0.7730   -0.0650 O.co2     6   U20      -0.7760
    166 OP2         9.1170   -0.2850    2.3840 O.co2     6   U20      -0.7760
    167 O5'         7.4470    1.1110    1.1780 O.3       6   U20      -0.4989
    168 C5'         6.3600    1.3370    0.2860 C.3       6   U20       0.0558
    169 C4'         5.8370    2.7430    0.4420 C.3       6   U20       0.1065
    170 O4'         5.1850    2.8750    1.7310 O.3       6   U20      -0.3548
    171 C3'         6.8850    3.8410    0.4700 C.3       6   U20       0.2022
    172 O3'         7.2950    4.1950   -0.8420 O.3       6   U20      -0.5246
    173 C2'         6.1190    4.9750    1.1340 C.3       6   U20       0.0670
    174 O2'         5.2360    5.6410    0.2530 O.3       6   U20      -0.6139
    175 C1'         5.3230    4.2100    2.1920 C.3       6   U20       0.0674
    176 N1          6.0090    4.1870    3.4880 N.am      6   U20       0.0418
    177 C2          5.8250    5.2720    4.3190 C.2       6   U20       0.4687
    178 O2          5.1240    6.2230    4.0160 O.2       6   U20      -0.5477
    179 N3          6.4910    5.2040    5.5160 N.am      6   U20      -0.3549
    180 C4          7.3070    4.1820    5.9550 C.2       6   U20       0.5952
    181 O4          7.8410    4.2690    7.0590 O.2       6   U20      -0.5761
    182 C5          7.4480    3.0930    5.0350 C.2       6   U20      -0.3635
    183 C6          6.8070    3.1330    3.8610 C.2       6   U20      -0.1126
    184 H5'         5.5607    0.6298    0.5073 H         6   U20       0.0679
    185 H5''        6.6983    1.1897   -0.7396 H         6   U20       0.0679
    186 H4'         5.1173    2.9507   -0.3498 H         6   U20       0.1174
    187 H3'         7.7407    3.5443    1.0765 H         6   U20       0.0615
    188 H2'         6.8040    5.6820    1.6021 H         6   U20       0.0972
    189 H1'         4.3377    4.6617    2.3069 H         6   U20       0.1824
    190 H3          6.3711    5.9863    6.1435 H         6   U20       0.3154
    191 H5          8.0676    2.2452    5.2873 H         6   U20       0.1811
    192 H6          6.9217    2.3032    3.1793 H         6   U20       0.2188
    193 HO2'        5.7426    6.1187   -0.4079 H         6   U20       0.4186
    194 P           8.8100    4.6600   -1.0980 P.3       7   A21       1.1662
    195 OP1         8.9510    4.9790   -2.5400 O.co2     7   A21      -0.7760
    196 OP2         9.7080    3.6520   -0.4740 O.co2     7   A21      -0.7760
    197 O5'         8.9410    6.0180   -0.2750 O.3       7   A21      -0.4989
    198 C5'         8.3110    7.2030   -0.7420 C.3       7   A21       0.0558
    199 C4'         8.4830    8.3240    0.2540 C.3       7   A21       0.1065
    200 O4'         7.8930    7.9760    1.5250 O.3       7   A21      -0.3548
    201 C3'         9.9070    8.6640    0.6500 C.3       7   A21       0.2022
    202 O3'        10.5330    9.4240   -0.3730 O.3       7   A21      -0.5246
    203 C2'         9.6800    9.4950    1.9090 C.3       7   A21       0.0670
    204 O2'         9.3700   10.8430    1.6230 O.3       7   A21      -0.6139
    205 C1'         8.4650    8.7950    2.5310 C.3       7   A21       0.0394
    206 N9          8.8480    7.9570    3.6640 N.ar      7   A21      -0.0251
    207 C8          9.3200    6.6690    3.6610 C.ar      7   A21       0.2006
    208 N7          9.6250    6.2140    4.8530 N.ar      7   A21      -0.6073
    209 C5          9.3220    7.2710    5.6990 C.ar      7   A21       0.0515
    210 C6          9.4290    7.4330    7.0930 C.ar      7   A21       0.7009
    211 N6          9.9030    6.4950    7.9160 N.pl3     7   A21      -0.9019
    212 N1          9.0330    8.6130    7.6200 N.ar      7   A21      -0.7615
    213 C2          8.5680    9.5600    6.7960 C.ar      7   A21       0.5875
    214 N3          8.4310    9.5320    5.4730 N.ar      7   A21      -0.6997
    215 C4          8.8310    8.3460    4.9810 C.ar      7   A21       0.3053
    216 H5'         7.2476    7.0108   -0.8847 H         7   A21       0.0679
    217 H5''        8.7548    7.4956   -1.6936 H         7   A21       0.0679
    218 H4'         7.9967    9.2203   -0.1310 H         7   A21       0.1174
    219 H3'        10.4775    7.7624    0.8732 H         7   A21       0.0615
    220 H2'        10.5422    9.4311    2.5727 H         7   A21       0.0972
    221 H1'         7.7382    9.5400    2.8548 H         7   A21       0.2007
    222 H8          9.4303    6.0835    2.7602 H         7   A21       0.1553
    223 H2          8.2599   10.4783    7.2737 H         7   A21       0.0473
    224 HO2'        8.8123   10.8850    0.8427 H         7   A21       0.4186
    225 H61         9.5460    6.7162    8.8345 H         7   A21       0.4115
    226 H62        10.4999    5.7185    7.6693 H         7   A21       0.4115
    227 P          11.8160    8.8290   -1.1320 P.3       8   U22       1.1662
    228 OP1        12.2030    9.7970   -2.1850 O.co2     8   U22      -0.7760
    229 OP2        11.5270    7.4180   -1.5010 O.co2     8   U22      -0.7760
    230 O5'        12.9410    8.8310   -0.0060 O.3       8   U22      -0.4989
    231 C5'        14.0220    7.9040   -0.0370 C.3       8   U22       0.0558
    232 C4'        14.5820    7.7250    1.3540 C.3       8   U22       0.1065
    233 O4'        14.9860    9.0340    1.8510 O.3       8   U22      -0.3548
    234 C3'        13.5750    7.1920    2.3700 C.3       8   U22       0.2022
    235 O3'        14.2220    6.4570    3.4030 O.3       8   U22      -0.5246
    236 C2'        12.9880    8.4730    2.9470 C.3       8   U22       0.0670
    237 O2'        12.4360    8.2910    4.2330 O.3       8   U22      -0.6139
    238 C1'        14.2280    9.3660    2.9990 C.3       8   U22       0.0674
    239 N1         13.9000   10.7970    2.9380 N.am      8   U22       0.0418
    240 C2         14.1870   11.5740    4.0460 C.2       8   U22       0.4687
    241 O2         14.7400   11.1340    5.0410 O.2       8   U22      -0.5477
    242 N3         13.8020   12.8880    3.9450 N.am      8   U22      -0.3549
    243 C4         13.1860   13.4950    2.8690 C.2       8   U22       0.5952
    244 O4         12.8250   14.6690    2.9630 O.2       8   U22      -0.5761
    245 C5         12.9530   12.6330    1.7520 C.2       8   U22      -0.3635
    246 C6         13.3080   11.3460    1.8230 C.2       8   U22      -0.1126
    247 H5'        14.8038    8.2818   -0.6959 H         8   U22       0.0679
    248 H5''       13.6657    6.9440   -0.4106 H         8   U22       0.0679
    249 H4'        15.4484    7.0647    1.3171 H         8   U22       0.1174
    250 H3'        12.8061    6.5919    1.8834 H         8   U22       0.0615
    251 H2'        12.2446    8.8915    2.2685 H         8   U22       0.0972
    252 H1'        14.8033    9.1533    3.9001 H         8   U22       0.1824
    253 H3         13.9900   13.4746    4.7454 H         8   U22       0.3154
    254 H5         12.4923   13.0199    0.8551 H         8   U22       0.1811
    255 H6         13.1225   10.7104    0.9698 H         8   U22       0.2188
    256 HO2'       11.6608    7.7281    4.1722 H         8   U22       0.4186
    257 P          14.5240    4.8890    3.2110 P.3       9   A23       1.1662
    258 OP1        13.7380    4.3940    2.0460 O.co2     9   A23      -0.7760
    259 OP2        14.3610    4.2370    4.5320 O.co2     9   A23      -0.7760
    260 O5'        16.0700    4.8540    2.8340 O.3       9   A23      -0.4989
    261 C5'        17.0320    5.5190    3.6580 C.3       9   A23       0.0558
    262 C4'        18.2450    5.9110    2.8460 C.3       9   A23       0.1065
    263 O4'        17.8250    6.5850    1.6370 O.3       9   A23      -0.3548
    264 C3'        19.1690    6.9250    3.5030 C.3       9   A23       0.2022
    265 O3'        20.0750    6.2790    4.3910 O.3       9   A23      -0.5246
    266 C2'        19.9190    7.5100    2.3110 C.3       9   A23       0.0670
    267 O2'        21.0560    6.7410    1.9680 O.3       9   A23      -0.6139
    268 C1'        18.8690    7.4330    1.1960 C.3       9   A23       0.0394
    269 N9         18.2920    8.7200    0.8050 N.ar      9   A23      -0.0251
    270 C8         17.9990    9.1300   -0.4730 C.ar      9   A23       0.2006
    271 N7         17.4980   10.3370   -0.5410 N.ar      9   A23      -0.6073
    272 C5         17.4530   10.7550    0.7820 C.ar      9   A23       0.0515
    273 C6         17.0210   11.9510    1.3790 C.ar      9   A23       0.7009
    274 N6         16.5300   12.9870    0.6930 N.pl3     9   A23      -0.9019
    275 N1         17.1110   12.0500    2.7220 N.ar      9   A23      -0.7615
    276 C2         17.5990   11.0090    3.4100 C.ar      9   A23       0.5875
    277 N3         18.0370    9.8330    2.9620 N.ar      9   A23      -0.6997
    278 C4         17.9380    9.7690    1.6230 C.ar      9   A23       0.3053
    279 H5'        17.3395    4.8496    4.4614 H         9   A23       0.0679
    280 H5''       16.5814    6.4138    4.0873 H         9   A23       0.0679
    281 H4'        18.8124    5.0175    2.5856 H         9   A23       0.1174
    282 H3'        18.5977    7.6954    4.0208 H         9   A23       0.0615
    283 H2'        20.1994    8.5455    2.5040 H         9   A23       0.0972
    284 H1'        19.3314    6.9819    0.3180 H         9   A23       0.2007
    285 H8         18.1669    8.5122   -1.3428 H         9   A23       0.1553
    286 H2         17.6438   11.1421    4.4808 H         9   A23       0.0473
    287 H61        16.4415   13.9532    0.9735 H         9   A23       0.4115
    288 H62        16.0228   13.1652   -0.1621 H         9   A23       0.4115
    289 HO2'       21.7053    6.7971    2.6729 H         9   A23       0.4186
    290 P          19.9280    6.4930    5.9770 P.3      10   A24       1.1662
    291 OP1        20.8540    5.5490    6.6490 O.co2    10   A24      -0.7760
    292 OP2        18.4780    6.4590    6.3110 O.co2    10   A24      -0.7760
    293 O5'        20.4890    7.9630    6.2390 O.3      10   A24      -0.4989
    294 C5'        19.7740    9.1160    5.8150 C.3      10   A24       0.0558
    295 C4'        19.5690   10.0520    6.9790 C.3      10   A24       0.1065
    296 O4'        18.6240    9.4570    7.8990 O.3      10   A24      -0.3548
    297 C3'        20.7900   10.3100    7.8480 C.3      10   A24       0.2022
    298 O3'        21.5840   11.3440    7.2750 O.3      10   A24      -0.5246
    299 C2'        20.1460   10.7890    9.1460 C.3      10   A24       0.0670
    300 O2'        19.7580   12.1460    9.0710 O.3      10   A24      -0.6139
    301 C1'        18.8900    9.9170    9.2110 C.3      10   A24       0.0394
    302 N9         19.0000    8.7540   10.0910 N.ar     10   A24      -0.0251
    303 C8         19.0170    7.4260    9.7350 C.ar     10   A24       0.2006
    304 N7         19.0850    6.6060   10.7550 N.ar     10   A24      -0.6073
    305 C5         19.1260    7.4500   11.8570 C.ar     10   A24       0.0515
    306 C6         19.1960    7.1990   13.2370 C.ar     10   A24       0.7009
    307 N6         19.2400    5.9760   13.7670 N.pl3    10   A24      -0.9019
    308 N1         19.2150    8.2640   14.0670 N.ar     10   A24      -0.7615
    309 C2         19.1710    9.4930   13.5360 C.ar     10   A24       0.5875
    310 N3         19.1060    9.8560   12.2580 N.ar     10   A24      -0.6997
    311 C4         19.0830    8.7750   11.4610 C.ar     10   A24       0.3053
    312 H5'        20.3413    9.6266    5.0369 H        10   A24       0.0679
    313 H5''       18.8047    8.8149    5.4177 H        10   A24       0.0679
    314 H4'        19.1743   11.0012    6.6165 H        10   A24       0.1174
    315 H3'        21.3700    9.4001    8.0021 H        10   A24       0.0615
    316 H2'        20.7975   10.6098   10.0013 H        10   A24       0.0972
    317 H1'        18.0533   10.5311    9.5439 H        10   A24       0.2007
    318 H8         18.9779    7.0897    8.7094 H        10   A24       0.1553
    319 H2         19.1912   10.3054   14.2473 H        10   A24       0.0473
    320 H61        19.2252    5.1644   13.1661 H        10   A24       0.4115
    321 H62        19.2881    5.8614   14.7693 H        10   A24       0.4115
    322 HO2'       19.3030   12.3936    9.8792 H        10   A24       0.4186
    323 P          23.1370   11.0790    6.9370 P.3      11   U25       1.1662
    324 OP1        23.4970    9.6960    7.3370 O.co2    11   U25      -0.7760
    325 OP2        23.8910   12.2240    7.5200 O.co2    11   U25      -0.7760
    326 O5'        23.2180   11.2420    5.3530 O.3      11   U25      -0.4989
    327 C5'        23.0770   10.1260    4.4800 C.3      11   U25       0.0558
    328 C4'        22.5100   10.5700    3.1460 C.3      11   U25       0.1065
    329 O4'        21.1160   10.9460    3.3220 O.3      11   U25      -0.3548
    330 C3'        23.1310   11.7960    2.4870 C.3      11   U25       0.2022
    331 O3'        24.2960   11.4640    1.7360 O.3      11   U25      -0.5246
    332 C2'        22.0140   12.2250    1.5490 C.3      11   U25       0.0670
    333 O2'        21.9110   11.3860    0.4160 O.3      11   U25      -0.6139
    334 C1'        20.7900   12.0080    2.4390 C.3      11   U25       0.0674
    335 N1         20.4590   13.1970    3.2350 N.am     11   U25       0.0418
    336 C2         19.9210   14.2810    2.5670 C.2      11   U25       0.4687
    337 O2         19.7020   14.2780    1.3680 O.2      11   U25      -0.5477
    338 N3         19.6460   15.3690    3.3530 N.am     11   U25      -0.3549
    339 C4         19.8470   15.4820    4.7090 C.2      11   U25       0.5952
    340 O4         19.5600   16.5360    5.2750 O.2      11   U25      -0.5761
    341 C5         20.3980   14.3170    5.3310 C.2      11   U25      -0.3635
    342 C6         20.6780   13.2390    4.5890 C.2      11   U25      -0.1126
    343 H5'        24.0534    9.6683    4.3211 H        11   U25       0.0679
    344 H5''       22.4056    9.3963    4.9326 H        11   U25       0.0679
    345 H4'        22.5614    9.7341    2.4484 H        11   U25       0.1174
    346 H3'        23.3456   12.5711    3.2227 H        11   U25       0.0615
    347 H2'        22.1161   13.2713    1.2612 H        11   U25       0.0972
    348 H1'        19.9343   11.7264    1.8253 H        11   U25       0.1824
    349 H3         19.2536   16.1744    2.8867 H        11   U25       0.3154
    350 H5         20.5870   14.3077    6.3943 H        11   U25       0.1811
    351 H6         21.0925   12.3681    5.0748 H        11   U25       0.2188
    352 HO2'       22.6760   11.5155   -0.1493 H        11   U25       0.4186
    353 P          25.3890   12.6010    1.4110 P.3      12   C26       1.1662
    354 OP1        26.6050   11.9100    0.9040 O.co2    12   C26      -0.7760
    355 OP2        25.4940   13.4950    2.5920 O.co2    12   C26      -0.7760
    356 O5'        24.7540   13.4480    0.2200 O.3      12   C26      -0.4989
    357 C5'        24.6630   12.9130   -1.0970 C.3      12   C26       0.0558
    358 C4'        24.1720   13.9720   -2.0610 C.3      12   C26       0.1065
    359 O4'        22.8050   14.3540   -1.7370 O.3      12   C26      -0.3548
    360 C3'        24.9090   15.3000   -2.0310 C.3      12   C26       0.2022
    361 O3'        26.1360   15.2360   -2.7400 O.3      12   C26      -0.5246
    362 C2'        23.8980   16.2030   -2.7200 C.3      12   C26       0.0670
    363 O2'        23.8230   15.9810   -4.1150 O.3      12   C26      -0.6139
    364 C1'        22.6090   15.7320   -2.0500 C.3      12   C26       0.0066
    365 N1         22.3690   16.4670   -0.7990 N.am     12   C26      -0.0484
    366 C2         21.8070   17.7450   -0.8710 C.2      12   C26       0.7538
    367 O2         21.5270   18.2170   -1.9860 O.2      12   C26      -0.6252
    368 N3         21.5850   18.4350    0.2700 N.2      12   C26      -0.7584
    369 C4         21.9070   17.8980    1.4490 C.2      12   C26       0.8185
    370 N4         21.6690   18.6160    2.5480 N.pl3    12   C26      -0.9530
    371 C5         22.4840   16.6000    1.5520 C.2      12   C26      -0.5215
    372 C6         22.6930   15.9240    0.4130 C.2      12   C26       0.0053
    373 H5'        23.9656   12.0753   -1.0974 H        12   C26       0.0679
    374 H5''       25.6460   12.5644   -1.4137 H        12   C26       0.0679
    375 H4'        24.1996   13.5718   -3.0745 H        12   C26       0.1174
    376 H3'        25.0755   15.6237   -1.0036 H        12   C26       0.0615
    377 H2'        24.0944   17.2522   -2.4994 H        12   C26       0.0972
    378 H1'        21.7637   15.8506   -2.7279 H        12   C26       0.2029
    379 H5         22.7433   16.1763    2.5110 H        12   C26       0.1928
    380 H6         23.1242   14.9347    0.4538 H        12   C26       0.1958
    381 H41        21.2586   19.5357    2.4713 H        12   C26       0.4234
    382 H42        21.8992   18.2399    3.4566 H        12   C26       0.4234
    383 HO2'       23.0803   16.4696   -4.4773 H        12   C26       0.4186
    384 P          27.3790   16.1300   -2.2480 P.3      13   G27       1.1662
    385 OP1        28.5160   15.8310   -3.1520 O.co2    13   G27      -0.7760
    386 OP2        27.5370   15.9520   -0.7830 O.co2    13   G27      -0.7760
    387 O5'        26.8930   17.6230   -2.5170 O.3      13   G27      -0.4989
    388 C5'        26.5140   18.0310   -3.8260 C.3      13   G27       0.0558
    389 C4'        26.1340   19.4910   -3.8340 C.3      13   G27       0.1065
    390 O4'        24.8700   19.6760   -3.1470 O.3      13   G27      -0.3548
    391 C3'        27.0680   20.4230   -3.0890 C.3      13   G27       0.2022
    392 O3'        28.2250   20.6970   -3.8630 O.3      13   G27      -0.5246
    393 C2'        26.1780   21.6440   -2.9010 C.3      13   G27       0.0670
    394 O2'        26.0540   22.4220   -4.0740 O.3      13   G27      -0.6139
    395 C1'        24.8340   20.9810   -2.5830 C.3      13   G27       0.0191
    396 N9         24.6070   20.8570   -1.1480 N.ar     13   G27       0.0492
    397 C8         24.8210   19.7530   -0.3580 C.ar     13   G27       0.1374
    398 N7         24.5470   19.9640    0.9020 N.ar     13   G27      -0.5709
    399 C5         24.1210   21.2850    0.9430 C.ar     13   G27       0.1744
    400 C6         23.7000   22.0870    2.0420 C.2      13   G27       0.4770
    401 O6         23.6080   21.7730    3.2370 O.2      13   G27      -0.5597
    402 N1         23.3680   23.3780    1.6350 N.am     13   G27      -0.4787
    403 C2         23.4280   23.8370    0.3420 C.2      13   G27       0.7657
    404 N2         23.0660   25.1170    0.1460 N.pl3    13   G27      -0.9672
    405 N3         23.8160   23.1000   -0.6870 N.2      13   G27      -0.6323
    406 C4         24.1470   21.8460   -0.3150 C.ar     13   G27       0.1222
    407 H5'        27.3506   17.8743   -4.5069 H        13   G27       0.0679
    408 H5''       25.6633   17.4353   -4.1571 H        13   G27       0.0679
    409 H4'        26.0352   19.8306   -4.8650 H        13   G27       0.1174
    410 H3'        27.3443   19.9979   -2.1241 H        13   G27       0.0615
    411 H2'        26.5211   22.2519   -2.0639 H        13   G27       0.0972
    412 H1'        24.0249   21.5547   -3.0350 H        13   G27       0.2006
    413 H8         25.1789   18.8081   -0.7395 H        13   G27       0.1640
    414 H1         23.0595   24.0259    2.3457 H        13   G27       0.3424
    415 H21        22.7700   25.6835    0.9280 H        13   G27       0.4364
    416 H22        23.0900   25.5120   -0.7833 H        13   G27       0.4364
    417 HO2'       26.8961   22.8375   -4.2734 H        13   G27       0.4186
    418 P          29.5540   21.2320   -3.1400 P.3      14   C28       1.1662
    419 OP1        30.5830   21.4630   -4.1870 O.co2    14   C28      -0.7760
    420 OP2        29.8680   20.3470   -1.9810 O.co2    14   C28      -0.7760
    421 O5'        29.0830   22.6520   -2.6070 O.3      14   C28      -0.4989
    422 C5'        29.5680   23.1930   -1.3970 C.3      14   C28       0.0558
    423 C4'        28.8830   24.5060   -1.1480 C.3      14   C28       0.1065
    424 O4'        27.4820   24.2740   -0.8430 O.3      14   C28      -0.3548
    425 C3'        29.3970   25.3300    0.0140 C.3      14   C28       0.2022
    426 O3'        30.5300   26.0750   -0.3960 O.3      14   C28      -0.5246
    427 C2'        28.1900   26.2110    0.2980 C.3      14   C28       0.0670
    428 O2'        28.0390   27.2440   -0.6630 O.3      14   C28      -0.6139
    429 C1'        27.0590   25.1890    0.1550 C.3      14   C28       0.0066
    430 N1         26.8340   24.4370    1.4000 N.am     14   C28      -0.0484
    431 C2         26.2470   25.0980    2.4700 C.2      14   C28       0.7538
    432 O2         25.8940   26.2730    2.3110 O.2      14   C28      -0.6252
    433 N3         26.0720   24.4470    3.6420 N.2      14   C28      -0.7584
    434 C4         26.4530   23.1730    3.7590 C.2      14   C28       0.8185
    435 N4         26.2820   22.5790    4.9390 N.pl3    14   C28      -0.9530
    436 C5         27.0310   22.4580    2.6680 C.2      14   C28      -0.5215
    437 C6         27.2010   23.1230    1.5170 C.2      14   C28       0.0053
    438 H5'        30.6443   23.3491   -1.4705 H        14   C28       0.0679
    439 H5''       29.3530   22.5071   -0.5776 H        14   C28       0.0679
    440 H4'        28.9458   25.1077   -2.0547 H        14   C28       0.1174
    441 H3'        29.6317   24.6977    0.8703 H        14   C28       0.0615
    442 H2'        28.2282   26.6167    1.3090 H        14   C28       0.0972
    443 H1'        26.1400   25.6860   -0.1556 H        14   C28       0.2029
    444 H5         27.3200   21.4220    2.7658 H        14   C28       0.1928
    445 H6         27.6343   22.6146    0.6684 H        14   C28       0.1958
    446 H41        25.8740   23.0913    5.7079 H        14   C28       0.4234
    447 H42        26.5604   21.6163    5.0648 H        14   C28       0.4234
    448 HO2'       27.1971   27.6853   -0.5285 H        14   C28       0.4186
    449 P          31.6440   26.4720    0.6820 P.3      15   G29       1.1662
    450 OP1        32.8580   26.9470   -0.0240 O.co2    15   G29      -0.7760
    451 OP2        31.7580   25.3790    1.6830 O.co2    15   G29      -0.7760
    452 O5'        31.0070   27.7120    1.4450 O.3      15   G29      -0.4989
    453 C5'        30.6380   28.8900    0.7450 C.3      15   G29       0.0558
    454 C4'        29.9840   29.8480    1.6990 C.3      15   G29       0.1065
    455 O4'        28.7230   29.2680    2.1330 O.3      15   G29      -0.3548
    456 C3'        30.7550   30.0730    2.9910 C.3      15   G29       0.2022
    457 O3'        31.7230   31.1020    2.8190 O.3      15   G29      -0.5246
    458 C2'        29.6410   30.4930    3.9360 C.3      15   G29       0.0670
    459 O2'        29.2130   31.8240    3.7070 O.3      15   G29      -0.6139
    460 C1'        28.5250   29.5420    3.5090 C.3      15   G29       0.0191
    461 N9         28.5570   28.2850    4.2450 N.ar     15   G29       0.0492
    462 C8         29.0130   27.0610    3.8120 C.ar     15   G29       0.1374
    463 N7         28.8900   26.1230    4.7130 N.ar     15   G29      -0.5709
    464 C5         28.3150   26.7680    5.8020 C.ar     15   G29       0.1744
    465 C6         27.9320   26.2710    7.0740 C.2      15   G29       0.4770
    466 O6         28.0040   25.1150    7.5070 O.2      15   G29      -0.5597
    467 N1         27.4110   27.2790    7.8800 N.am     15   G29      -0.4787
    468 C2         27.2660   28.5980    7.5070 C.2      15   G29       0.7657
    469 N2         26.7510   29.4260    8.4310 N.pl3    15   G29      -0.9672
    470 N3         27.6040   29.0650    6.3220 N.2      15   G29      -0.6323
    471 C4         28.1180   28.1030    5.5260 C.ar     15   G29       0.1222
    472 H5'        29.9396   28.6362   -0.0524 H        15   G29       0.0679
    473 H5''       31.5272   29.3527    0.3167 H        15   G29       0.0679
    474 H4'        29.8034   30.8016    1.2029 H        15   G29       0.1174
    475 H3'        31.2248   29.1495    3.3295 H        15   G29       0.0615
    476 H2'        29.9213   30.3374    4.9778 H        15   G29       0.0972
    477 H1'        27.5581   30.0249    3.6508 H        15   G29       0.2006
    478 H8         29.4292   26.8933    2.8296 H        15   G29       0.1640
    479 H1         27.1159   27.0239    8.8116 H        15   G29       0.3424
    480 H21        26.4927   29.0700    9.3402 H        15   G29       0.4364
    481 H22        26.6221   30.4045    8.2165 H        15   G29       0.4364
    482 HO2'       29.9060   32.4334    3.9714 H        15   G29       0.4186
    483 P          33.2020   30.9170    3.4140 P.3      16   U30       1.1662
    484 OP1        34.0790   31.9260    2.7570 O.co2    16   U30      -0.7760
    485 OP2        33.5800   29.4730    3.3750 O.co2    16   U30      -0.7760
    486 O5'        33.0520   31.2820    4.9550 O.3      16   U30      -0.4989
    487 C5'        32.7760   32.6170    5.3620 C.3      16   U30       0.0558
    488 C4'        32.3840   32.6420    6.8160 C.3      16   U30       0.1065
    489 O4'        31.1260   31.9310    6.9930 O.3      16   U30      -0.3548
    490 C3'        33.3170   31.8990    7.7570 C.3      16   U30       0.2022
    491 O3'        34.5170   32.6100    8.0500 O.3      16   U30      -0.5246
    492 C2'        32.4110   31.7230    8.9630 C.3      16   U30       0.0670
    493 O2'        32.2050   32.9380    9.6710 O.3      16   U30      -0.6139
    494 C1'        31.1130   31.3050    8.2700 C.3      16   U30       0.0674
    495 N1         31.0480   29.8490    8.0790 N.am     16   U30       0.0418
    496 C2         30.6220   29.1060    9.1560 C.2      16   U30       0.4687
    497 O2         30.2800   29.6130   10.2090 O.2      16   U30      -0.5477
    498 N3         30.6200   27.7460    8.9590 N.am     16   U30      -0.3549
    499 C4         31.0000   27.0720    7.8170 C.2      16   U30       0.5952
    500 O4         31.0270   25.8360    7.8240 O.2      16   U30      -0.5761
    501 C5         31.4060   27.9140    6.7330 C.2      16   U30      -0.3635
    502 C6         31.4130   29.2460    6.8960 C.2      16   U30      -0.1126
    503 H5'        33.6660   33.2295    5.2177 H        16   U30       0.0679
    504 H5''       31.9600   33.0173    4.7604 H        16   U30       0.0679
    505 H4'        32.2725   33.6740    7.1486 H        16   U30       0.1174
    506 H3'        33.5618   30.9236    7.3365 H        16   U30       0.0615
    507 H2'        32.7784   30.9373    9.6231 H        16   U30       0.0972
    508 H1'        30.2532   31.6465    8.8464 H        16   U30       0.1824
    509 H3         30.3066   27.1789    9.7338 H        16   U30       0.3154
    510 H5         31.7047   27.4802    5.7902 H        16   U30       0.1811
    511 H6         31.7165   29.8690    6.0676 H        16   U30       0.2188
    512 HO2'       32.3064   32.7813   10.6127 H        16   U30       0.4186
    513 P          35.8770   31.7910    8.3380 P.3      17   G31       1.1662
    514 OP1        37.0200   32.7360    8.3430 O.co2    17   G31      -0.7760
    515 OP2        35.9040   30.6090    7.4360 O.co2    17   G31      -0.7760
    516 O5'        35.6930   31.2510    9.8190 O.3      17   G31      -0.4989
    517 C5'        35.5780   32.1600   10.9060 C.3      17   G31       0.0558
    518 C4'        34.9640   31.4700   12.0910 C.3      17   G31       0.1065
    519 O4'        33.7020   30.8640   11.7000 O.3      17   G31      -0.3548
    520 C3'        35.7520   30.3020   12.6630 C.3      17   G31       0.2022
    521 O3'        36.8110   30.7530   13.5010 O.3      17   G31      -0.5246
    522 C2'        34.6580   29.6140   13.4620 C.3      17   G31       0.0670
    523 O2'        34.3220   30.3230   14.6380 O.3      17   G31      -0.6139
    524 C1'        33.5000   29.6840   12.4640 C.3      17   G31       0.0191
    525 N9         33.5480   28.5360   11.5700 N.ar     17   G31       0.0492
    526 C8         33.8710   28.4930   10.2330 C.ar     17   G31       0.1374
    527 N7         33.8650   27.2790    9.7460 N.ar     17   G31      -0.5709
    528 C5         33.5070   26.4810   10.8260 C.ar     17   G31       0.1744
    529 C6         33.3460   25.0740   10.9230 C.2      17   G31       0.4770
    530 O6         33.4920   24.2190   10.0380 O.2      17   G31      -0.5597
    531 N1         32.9830   24.6890   12.2120 N.am     17   G31      -0.4787
    532 C2         32.7980   25.5430   13.2690 C.2      17   G31       0.7657
    533 N2         32.4520   24.9950   14.4410 N.pl3    17   G31      -0.9672
    534 N3         32.9430   26.8520   13.1870 N.2      17   G31      -0.6323
    535 C4         33.2990   27.2460   11.9490 C.ar     17   G31       0.1222
    536 H5'        34.9473   32.9983   10.6100 H        17   G31       0.0679
    537 H5''       36.5676   32.5292   11.1751 H        17   G31       0.0679
    538 H4'        34.7827   32.2014   12.8786 H        17   G31       0.1174
    539 H3'        36.1264   29.6544   11.8702 H        17   G31       0.0615
    540 H2'        34.9236   28.5809   13.6864 H        17   G31       0.0972
    541 H1'        32.5444   29.7239   12.9868 H        17   G31       0.2006
    542 H8         34.1049   29.3697    9.6472 H        17   G31       0.1640
    543 H1         32.8452   23.7029   12.3813 H        17   G31       0.3424
    544 H21        32.3383   23.9943   14.5166 H        17   G31       0.4364
    545 H22        32.3048   25.5825   15.2493 H        17   G31       0.4364
    546 HO2'       33.5388   29.9334   15.0335 H        17   G31       0.4186
    547 P          38.1130   29.8340   13.7250 P.3      18   G32       1.1662
    548 OP1        39.0340   30.5960   14.6120 O.co2    18   G32      -0.7760
    549 OP2        38.6070   29.3210   12.4280 O.co2    18   G32      -0.7760
    550 O5'        37.5790   28.5760   14.5460 O.3      18   G32      -0.4989
    551 C5'        37.0030   28.7360   15.8360 C.3      18   G32       0.0558
    552 C4'        36.5890   27.3940   16.3820 C.3      18   G32       0.1065
    553 O4'        35.5310   26.8430   15.5550 O.3      18   G32      -0.3548
    554 C3'        37.6600   26.3230   16.3340 C.3      18   G32       0.2022
    555 O3'        38.5450   26.4510   17.4320 O.3      18   G32      -0.5246
    556 C2'        36.8180   25.0600   16.4100 C.3      18   G32       0.0670
    557 O2'        36.2770   24.8050   17.6930 O.3      18   G32      -0.6139
    558 C1'        35.6900   25.4330   15.4540 C.3      18   G32       0.0191
    559 N9         36.0190   25.1160   14.0700 N.ar     18   G32       0.0492
    560 C8         36.3320   26.0010   13.0650 C.ar     18   G32       0.1374
    561 N7         36.5420   25.4190   11.9160 N.ar     18   G32      -0.5709
    562 C5         36.3670   24.0650   12.1810 C.ar     18   G32       0.1744
    563 C6         36.4570   22.9460   11.3200 C.2      18   G32       0.4770
    564 O6         36.7070   22.9220   10.1100 O.2      18   G32      -0.5597
    565 N1         36.2150   21.7590   12.0020 N.am     18   G32      -0.4787
    566 C2         35.9250   21.6610   13.3370 C.2      18   G32       0.7657
    567 N2         35.7400   20.4170   13.8150 N.pl3    18   G32      -0.9672
    568 N3         35.8260   22.6980   14.1490 N.2      18   G32      -0.6323
    569 C4         36.0570   23.8620   13.5060 C.ar     18   G32       0.1222
    570 H5'        36.1282   29.3822   15.7636 H        18   G32       0.0679
    571 H5''       37.7340   29.1895   16.5054 H        18   G32       0.0679
    572 H4'        36.2317   27.5092   17.4053 H        18   G32       0.1174
    573 H3'        38.2062   26.3660   15.3917 H        18   G32       0.0615
    574 H2'        37.3733   24.1974   16.0416 H        18   G32       0.0972
    575 H1'        34.7685   24.9293   15.7458 H        18   G32       0.2006
    576 H8         36.3974   27.0690   13.2117 H        18   G32       0.1640
    577 H1         36.2563   20.9009   11.4709 H        18   G32       0.3424
    578 H21        35.8164   19.6219   13.1968 H        18   G32       0.4364
    579 H22        35.5247   20.2782   14.7920 H        18   G32       0.4364
    580 HO2'       35.6496   24.0805   17.6373 H        18   G32       0.4186
    581 P          40.0480   25.9390   17.2920 P.3      19   A33       1.1662
    582 OP1        40.7750   26.4460   18.4820 O.co2    19   A33      -0.7760
    583 OP2        40.5730   26.2220   15.9430 O.co2    19   A33      -0.7760
    584 O5'        39.9350   24.3500   17.4150 O.3      19   A33      -0.4989
    585 C5'        39.3530   23.7620   18.5670 C.3      19   A33       0.0558
    586 C4'        39.2800   22.2640   18.4050 C.3      19   A33       0.1065
    587 O4'        38.3840   21.9290   17.3160 O.3      19   A33      -0.3548
    588 C3'        40.5620   21.5750   17.9800 C.3      19   A33       0.2022
    589 O3'        41.4630   21.4600   19.0700 O.3      19   A33      -0.5246
    590 C2'        40.0220   20.2270   17.5240 C.3      19   A33       0.0670
    591 O2'        39.6450   19.4050   18.6140 O.3      19   A33      -0.6139
    592 C1'        38.7620   20.6680   16.7790 C.3      19   A33       0.0394
    593 N9         38.9560   20.8160   15.3360 N.ar     19   A33      -0.0251
    594 C8         39.0030   21.9670   14.5810 C.ar     19   A33       0.2006
    595 N7         39.1510   21.7470   13.2970 N.ar     19   A33      -0.6073
    596 C5         39.2110   20.3620   13.1990 C.ar     19   A33       0.0515
    597 C6         39.3580   19.4960   12.1030 C.ar     19   A33       0.7009
    598 N6         39.4390   19.9080   10.8350 N.pl3    19   A33      -0.9019
    599 N1         39.4070   18.1680   12.3550 N.ar     19   A33      -0.7615
    600 C2         39.2970   17.7520   13.6200 C.ar     19   A33       0.5875
    601 N3         39.1430   18.4650   14.7300 N.ar     19   A33      -0.6997
    602 C4         39.1100   19.7800   14.4480 C.ar     19   A33       0.3053
    603 H5'        39.9611   24.0007   19.4395 H        19   A33       0.0679
    604 H5''       38.3479   24.1598   18.7072 H        19   A33       0.0679
    605 H4'        38.9143   21.8152   19.3286 H        19   A33       0.1174
    606 H3'        41.0275   22.1051   17.1491 H        19   A33       0.0615
    607 H2'        40.7220   19.7181   16.8614 H        19   A33       0.0972
    608 H1'        37.9657   19.9466   16.9621 H        19   A33       0.2007
    609 H8         38.9253   22.9567   15.0063 H        19   A33       0.1553
    610 H2         39.3394   16.6820   13.7601 H        19   A33       0.0473
    611 HO2'       39.5666   18.4954   18.3173 H        19   A33       0.4186
    612 H61        39.3127   19.1254   10.2091 H        19   A33       0.4115
    613 H62        39.6025   20.8615   10.5449 H        19   A33       0.4115
    614 P          43.0390   21.5660   18.8100 P.3      20   U34       1.1662
    615 OP1        43.6990   21.5890   20.1390 O.co2    20   U34      -0.7760
    616 OP2        43.3120   22.6590   17.8350 O.co2    20   U34      -0.7760
    617 O5'        43.4080   20.1980   18.0850 O.3      20   U34      -0.4989
    618 C5'        42.9820   18.9500   18.6170 C.3      20   U34       0.0558
    619 C4'        43.1920   17.8620   17.5960 C.3      20   U34       0.1065
    620 O4'        42.4100   18.1710   16.4120 O.3      20   U34      -0.3548
    621 C3'        44.6330   17.6900   17.1280 C.3      20   U34       0.2022
    622 O3'        44.9490   16.3160   17.0460 O.3      20   U34      -0.5246
    623 C2'        44.6360   18.2950   15.7300 C.3      20   U34       0.0670
    624 O2'        45.5580   17.7010   14.8430 O.3      20   U34      -0.6139
    625 C1'        43.2130   18.0110   15.2640 C.3      20   U34       0.0674
    626 N1         42.8250   19.0240   14.2760 N.am     20   U34       0.0418
    627 C2         42.6940   18.6430   12.9560 C.2      20   U34       0.4687
    628 O2         42.7890   17.4800   12.5790 O.2      20   U34      -0.5477
    629 N3         42.4450   19.6740   12.0850 N.am     20   U34      -0.3549
    630 C4         42.3020   21.0090   12.4010 C.2      20   U34       0.5952
    631 O4         42.1620   21.8320   11.4970 O.2      20   U34      -0.5761
    632 C5         42.4000   21.3060   13.7920 C.2      20   U34      -0.3635
    633 C6         42.6460   20.3270   14.6590 C.2      20   U34      -0.1126
    634 H5'        43.5601   18.7222   19.5126 H        20   U34       0.0679
    635 H5''       41.9241   19.0073   18.8733 H        20   U34       0.0679
    636 H4'        42.8421   16.9171   18.0119 H        20   U34       0.1174
    637 H3'        45.3259   18.2148   17.7857 H        20   U34       0.0615
    638 H2'        44.8063   19.3702   15.7856 H        20   U34       0.0972
    639 H1'        43.1236   17.0045   14.8553 H        20   U34       0.1824
    640 H3         42.3571   19.4292   11.1091 H        20   U34       0.3154
    641 H5         42.2752   22.3206   14.1403 H        20   U34       0.1811
    642 H6         42.7071   20.5701   15.7095 H        20   U34       0.2188
    643 HO2'       46.4468   17.7976   15.1926 H        20   U34       0.4186
    644 P          46.0210   15.6890   18.0530 P.3      21   A35       1.1662
    645 OP1        45.6430   16.0960   19.4250 O.co2    21   A35      -0.7760
    646 OP2        47.3790   15.9890   17.5550 O.co2    21   A35      -0.7760
    647 O5'        45.7930   14.1260   17.8870 O.3      21   A35      -0.4989
    648 C5'        44.5440   13.5280   18.2060 C.3      21   A35       0.0558
    649 C4'        44.6390   12.0400   18.0090 C.3      21   A35       0.1065
    650 O4'        44.5460   11.7530   16.5900 O.3      21   A35      -0.3548
    651 C3'        45.9630   11.4560   18.4830 C.3      21   A35       0.2022
    652 O3'        45.7720   10.1800   19.0830 O.3      21   A35      -0.5246
    653 C2'        46.8050   11.3890   17.2120 C.3      21   A35       0.0670
    654 O2'        47.7460   10.3360   17.2290 O.3      21   A35      -0.6139
    655 C1'        45.7470   11.1610   16.1320 C.3      21   A35       0.0394
    656 N9         46.0940   11.7920   14.8580 N.ar     21   A35      -0.0251
    657 C8         45.8530   13.0940   14.4890 C.ar     21   A35       0.2006
    658 N7         46.2910   13.3940   13.2920 N.ar     21   A35      -0.6073
    659 C5         46.8560   12.2120   12.8380 C.ar     21   A35       0.0515
    660 C6         47.4960   11.8780   11.6340 C.ar     21   A35       0.7009
    661 N6         47.6910   12.7450   10.6350 N.pl3    21   A35      -0.9019
    662 N1         47.9360   10.6070   11.4880 N.ar     21   A35      -0.7615
    663 C2         47.7420    9.7430   12.4920 C.ar     21   A35       0.5875
    664 N3         47.1590    9.9410   13.6750 N.ar     21   A35      -0.6997
    665 C4         46.7340   11.2130   13.7870 C.ar     21   A35       0.3053
    666 H5'        43.7699   13.9325   17.5539 H        21   A35       0.0679
    667 H5''       44.2929   13.7421   19.2449 H        21   A35       0.0679
    668 H4'        43.8179   11.5510   18.5331 H        21   A35       0.1174
    669 H3'        46.4293   12.1334   19.1984 H        21   A35       0.0615
    670 H2'        47.3103   12.3405   17.0466 H        21   A35       0.0972
    671 H1'        45.5969   10.0916   15.9840 H        21   A35       0.2007
    672 H8         45.3488   13.8042   15.1276 H        21   A35       0.1553
    673 H2         48.1103    8.7425   12.3193 H        21   A35       0.0473
    674 H61        47.1644   13.5883   10.8130 H        21   A35       0.4115
    675 H62        48.2748   12.5818    9.8271 H        21   A35       0.4115
    676 HO2'       48.0807   10.2203   18.1213 H        21   A35       0.4186
    677 P          45.7290   10.0570   20.6830 P.3      22   U36       1.1662
    678 OP1        46.9430   10.7200   21.2060 O.co2    22   U36      -0.7760
    679 OP2        45.4610    8.6270   21.0190 O.co2    22   U36      -0.7760
    680 O5'        44.4690   10.9380   21.1070 O.3      22   U36      -0.4989
    681 C5'        43.1990   10.3370   21.3810 C.3      22   U36       0.0558
    682 C4'        42.4420   11.1510   22.4130 C.3      22   U36       0.1065
    683 O4'        43.2050   11.2130   23.6510 O.3      22   U36      -0.3548
    684 C3'        42.1580   12.6020   22.0370 C.3      22   U36       0.2022
    685 O3'        40.9380   12.9990   22.6380 O.3      22   U36      -0.5246
    686 C2'        43.2940   13.3410   22.7270 C.3      22   U36       0.0670
    687 O2'        42.9910   14.7020   22.9700 O.3      22   U36      -0.6139
    688 C1'        43.3730   12.5650   24.0390 C.3      22   U36       0.0674
    689 N1         44.6710   12.6820   24.7190 N.am     22   U36       0.0418
    690 C2         44.6910   13.2610   25.9800 C.2      22   U36       0.4687
    691 O2         43.6860   13.6540   26.5410 O.2      22   U36      -0.5477
    692 N3         45.9350   13.3490   26.5560 N.am     22   U36      -0.3549
    693 C4         47.1280   12.9190   26.0190 C.2      22   U36       0.5952
    694 O4         48.1670   13.0480   26.6700 O.2      22   U36      -0.5761
    695 C5         47.0220   12.3280   24.7200 C.2      22   U36      -0.3635
    696 C6         45.8280   12.2340   24.1280 C.2      22   U36      -0.1126
    697 H5'        43.3540    9.3278   21.7626 H        22   U36       0.0679
    698 H5''       42.6164   10.2893   20.4610 H        22   U36       0.0679
    699 H4'        41.4931   10.6546   22.6164 H        22   U36       0.1174
    700 H3'        42.1579   12.7576   20.9582 H        22   U36       0.0615
    701 H2'        44.2208   13.2441   22.1616 H        22   U36       0.0972
    702 H1'        42.5674   12.8693   24.7072 H        22   U36       0.1824
    703 H3         45.9794   13.7745   27.4709 H        22   U36       0.3154
    704 H5         47.9050   11.9589   24.2195 H        22   U36       0.1811
    705 H6         45.7697   11.7882   23.1460 H        22   U36       0.2188
    706 HO2'       42.9453   15.1741   22.1354 H        22   U36       0.4186
    707 P          39.5490   12.7700   21.8700 P.3      23   G37       1.1662
    708 OP1        38.4710   13.1030   22.8200 O.co2    23   G37      -0.7760
    709 OP2        39.5530   11.4310   21.2100 O.co2    23   G37      -0.7760
    710 O5'        39.5620   13.8570   20.7020 O.3      23   G37      -0.4989
    711 C5'        39.5250   15.2470   20.9890 C.3      23   G37       0.0558
    712 C4'        39.4380   16.0250   19.6990 C.3      23   G37       0.1065
    713 O4'        40.6790   15.8530   18.9630 O.3      23   G37      -0.3548
    714 C3'        38.3640   15.5250   18.7430 C.3      23   G37       0.2022
    715 O3'        37.1200   16.1500   19.0240 O.3      23   G37      -0.5246
    716 C2'        38.9170   15.9570   17.3900 C.3      23   G37       0.0670
    717 O2'        38.7460   17.3520   17.1780 O.3      23   G37      -0.6139
    718 C1'        40.4050   15.6630   17.5810 C.3      23   G37       0.0191
    719 N9         40.7920   14.3000   17.2250 N.ar     23   G37       0.0492
    720 C8         40.7330   13.1830   18.0300 C.ar     23   G37       0.1374
    721 N7         41.1570   12.1030   17.4350 N.ar     23   G37      -0.5709
    722 C5         41.5140   12.5270   16.1630 C.ar     23   G37       0.1744
    723 C6         42.0400   11.7970   15.0660 C.2      23   G37       0.4770
    724 O6         42.3000   10.5890   14.9980 O.2      23   G37      -0.5597
    725 N1         42.2630   12.6140   13.9630 N.am     23   G37      -0.4787
    726 C2         42.0100   13.9610   13.9180 C.2      23   G37       0.7657
    727 N2         42.2940   14.5680   12.7570 N.pl3    23   G37      -0.9672
    728 N3         41.5170   14.6570   14.9340 N.2      23   G37      -0.6323
    729 C4         41.2950   13.8810   16.0180 C.ar     23   G37       0.1222
    730 H5'        38.6536   15.4675   21.6055 H        23   G37       0.0679
    731 H5''       40.4306   15.5317   21.5247 H        23   G37       0.0679
    732 H4'        39.2789   17.0816   19.9142 H        23   G37       0.1174
    733 H3'        38.2731   14.4401   18.7958 H        23   G37       0.0615
    734 H2'        38.4919   15.3707   16.5753 H        23   G37       0.0972
    735 H1'        40.9918   16.3705   16.9951 H        23   G37       0.2006
    736 H8         40.3729   13.2004   19.0481 H        23   G37       0.1640
    737 H1         42.6401   12.1823   13.1315 H        23   G37       0.3424
    738 H21        42.6693   14.0338   11.9864 H        23   G37       0.4364
    739 H22        42.1327   15.5596   12.6529 H        23   G37       0.4364
    740 HO2'       39.0357   17.5793   16.2914 H        23   G37       0.4186
    741 P          35.7540   15.3620   18.7370 P.3      24   G38       1.1662
    742 OP1        34.6290   16.1580   19.2770 O.co2    24   G38      -0.7760
    743 OP2        35.9390   13.9480   19.1780 O.co2    24   G38      -0.7760
    744 O5'        35.6580   15.3410   17.1490 O.3      24   G38      -0.4989
    745 C5'        35.4640   16.5450   16.4150 C.3      24   G38       0.0558
    746 C4'        35.6590   16.2820   14.9430 C.3      24   G38       0.1065
    747 O4'        37.0350   15.9020   14.7070 O.3      24   G38      -0.3548
    748 C3'        34.8380   15.1330   14.3820 C.3      24   G38       0.2022
    749 O3'        33.5420   15.5910   14.0220 O.3      24   G38      -0.5246
    750 C2'        35.6590   14.7270   13.1630 C.3      24   G38       0.0670
    751 O2'        35.4170   15.5090   12.0100 O.3      24   G38      -0.6139
    752 C1'        37.0910   14.9480   13.6620 C.3      24   G38       0.0191
    753 N9         37.6440   13.7060   14.1960 N.ar     24   G38       0.0492
    754 C8         37.4080   13.1380   15.4270 C.ar     24   G38       0.1374
    755 N7         37.9420   11.9500   15.5510 N.ar     24   G38      -0.5709
    756 C5         38.5930   11.7420   14.3430 C.ar     24   G38       0.1744
    757 C6         39.3240   10.6220   13.8720 C.2      24   G38       0.4770
    758 O6         39.5280    9.5470   14.4410 O.2      24   G38      -0.5597
    759 N1         39.8270   10.8370   12.5930 N.am     24   G38      -0.4787
    760 C2         39.6410   11.9800   11.8530 C.2      24   G38       0.7657
    761 N2         40.2080   11.9910   10.6390 N.pl3    24   G38      -0.9672
    762 N3         38.9500   13.0260   12.2760 N.2      24   G38      -0.6323
    763 C4         38.4530   12.8360   13.5150 C.ar     24   G38       0.1222
    764 H5'        34.4527   16.9140   16.5858 H        24   G38       0.0679
    765 H5''       36.1838   17.2927   16.7482 H        24   G38       0.0679
    766 H4'        35.4359   17.1901   14.3830 H        24   G38       0.1174
    767 H3'        34.7755   14.3140   15.0986 H        24   G38       0.0615
    768 H2'        35.4997   13.6721   12.9394 H        24   G38       0.0972
    769 H1'        37.7173   15.3182   12.8503 H        24   G38       0.2006
    770 H8         36.8414   13.6221   16.2087 H        24   G38       0.1640
    771 H1         40.3712   10.0955   12.1758 H        24   G38       0.3424
    772 H21        40.1094   12.8004   10.0429 H        24   G38       0.4364
    773 H22        40.7340   11.1899   10.3200 H        24   G38       0.4364
    774 HO2'       34.5180   15.3628   11.7065 H        24   G38       0.4186
    775 P          32.2470   14.7320   14.4220 P.3      25   C39       1.1662
    776 OP1        32.7040   13.4680   15.0630 O.co2    25   C39      -0.7760
    777 OP2        31.3670   14.6800   13.2290 O.co2    25   C39      -0.7760
    778 O5'        31.5060   15.5820   15.5450 O.3      25   C39      -0.4989
    779 C5'        30.6450   16.6580   15.1960 C.3      25   C39       0.0558
    780 C4'        30.9950   17.8690   16.0160 C.3      25   C39       0.1065
    781 O4'        32.3240   18.3210   15.6500 O.3      25   C39      -0.3548
    782 C3'        30.0850   19.0660   15.7980 C.3      25   C39       0.2022
    783 O3'        28.9940   18.9920   16.7060 O.3      25   C39      -0.5246
    784 C2'        31.0090   20.2240   16.1480 C.3      25   C39       0.0670
    785 O2'        31.1420   20.4000   17.5420 O.3      25   C39      -0.6139
    786 C1'        32.3370   19.7370   15.5680 C.3      25   C39       0.0066
    787 N1         32.5230   20.1270   14.1630 N.am     25   C39      -0.0484
    788 C2         32.6210   21.4800   13.8710 C.2      25   C39       0.7538
    789 O2         32.5590   22.2890   14.8040 O.2      25   C39      -0.6252
    790 N3         32.7800   21.8740   12.5890 N.2      25   C39      -0.7584
    791 C4         32.8450   20.9650   11.6160 C.2      25   C39       0.8185
    792 N4         33.0020   21.4020   10.3610 N.pl3    25   C39      -0.9530
    793 C5         32.7550   19.5690   11.8860 C.2      25   C39      -0.5215
    794 C6         32.5970   19.1980   13.1630 C.2      25   C39       0.0053
    795 H5'        29.6111   16.3736   15.3919 H        25   C39       0.0679
    796 H5''       30.7637   16.8895   14.1375 H        25   C39       0.0679
    797 H4'        30.9865   17.6006   17.0724 H        25   C39       0.1174
    798 H3'        29.7425   19.1254   14.7649 H        25   C39       0.0615
    799 H2'        30.6840   21.1455   15.6651 H        25   C39       0.0972
    800 H1'        33.1601   20.1282   16.1659 H        25   C39       0.2029
    801 H5         32.8119   18.8389   11.0922 H        25   C39       0.1928
    802 H6         32.5269   18.1482   13.4066 H        25   C39       0.1958
    803 H41        33.0662   22.3928   10.1756 H        25   C39       0.4234
    804 H42        33.0563   20.7411    9.5992 H        25   C39       0.4234
    805 HO2'       31.8262   21.0499   17.7184 H        25   C39       0.4186
    806 P          27.5990   19.6910   16.3400 P.3      26   A40       1.1662
    807 OP1        26.6090   19.3430   17.3900 O.co2    26   A40      -0.7760
    808 OP2        27.2930   19.4290   14.9220 O.co2    26   A40      -0.7760
    809 O5'        27.9110   21.2490   16.4710 O.3      26   A40      -0.4989
    810 C5'        28.0190   21.8670   17.7440 C.3      26   A40       0.0558
    811 C4'        28.0570   23.3630   17.5780 C.3      26   A40       0.1065
    812 O4'        29.2810   23.7310   16.8910 O.3      26   A40      -0.3548
    813 C3'        26.9620   23.9500   16.7020 C.3      26   A40       0.2022
    814 O3'        25.7570   24.1170   17.4350 O.3      26   A40      -0.5246
    815 C2'        27.5860   25.2800   16.3150 C.3      26   A40       0.0670
    816 O2'        27.5750   26.2060   17.3890 O.3      26   A40      -0.6139
    817 C1'        29.0170   24.8330   16.0310 C.3      26   A40       0.0394
    818 N9         29.1930   24.3820   14.6550 N.ar     26   A40      -0.0251
    819 C8         29.1860   23.0940   14.1750 C.ar     26   A40       0.2006
    820 N7         29.4300   23.0110   12.8900 N.ar     26   A40      -0.6073
    821 C5         29.5970   24.3320   12.4950 C.ar     26   A40       0.0515
    822 C6         29.8930   24.9220   11.2530 C.ar     26   A40       0.7009
    823 N6         30.1150   24.2410   10.1270 N.pl3    26   A40      -0.9019
    824 N1         29.9670   26.2690   11.2040 N.ar     26   A40      -0.7615
    825 C2         29.7770   26.9670   12.3320 C.ar     26   A40       0.5875
    826 N3         29.5090   26.5280   13.5570 N.ar     26   A40      -0.6997
    827 C4         29.4310   25.1850   13.5690 C.ar     26   A40       0.3053
    828 H5'        28.9343   21.5331   18.2327 H        26   A40       0.0679
    829 H5''       27.1598   21.5913   18.3554 H        26   A40       0.0679
    830 H4'        28.0329   23.8387   18.5584 H        26   A40       0.1174
    831 H3'        26.7965   23.3293   15.8214 H        26   A40       0.0615
    832 H2'        27.1149   25.6969   15.4249 H        26   A40       0.0972
    833 H1'        29.7098   25.6465   16.2466 H        26   A40       0.2007
    834 H8         28.9973   22.2321   14.7978 H        26   A40       0.1553
    835 H2         29.8525   28.0396   12.2309 H        26   A40       0.0473
    836 HO2'       26.9745   26.9266   17.1847 H        26   A40       0.4186
    837 H61        30.4551   24.8230    9.3749 H        26   A40       0.4115
    838 H62        29.9592   23.2472   10.0364 H        26   A40       0.4115
    839 P          24.3460   23.9970   16.6920 P.3      27   C41       1.1662
    840 OP1        23.3080   24.0330   17.7460 O.co2    27   C41      -0.7760
    841 OP2        24.3690   22.8730   15.7180 O.co2    27   C41      -0.7760
    842 O5'        24.2560   25.3400   15.8410 O.3      27   C41      -0.4989
    843 C5'        24.1860   26.6040   16.4910 C.3      27   C41       0.0558
    844 C4'        24.3890   27.7070   15.4860 C.3      27   C41       0.1065
    845 O4'        25.7250   27.6140   14.9170 O.3      27   C41      -0.3548
    846 C3'        23.5130   27.6540   14.2480 C.3      27   C41       0.2022
    847 O3'        22.1900   28.1010   14.5030 O.3      27   C41      -0.5246
    848 C2'        24.2770   28.5980   13.3360 C.3      27   C41       0.0670
    849 O2'        24.1680   29.9470   13.7650 O.3      27   C41      -0.6139
    850 C1'        25.7030   28.1060   13.5800 C.3      27   C41       0.0066
    851 N1         26.0080   27.0060   12.6490 N.am     27   C41      -0.0484
    852 C2         26.4150   27.3440   11.3640 C.2      27   C41       0.7538
    853 O2         26.5190   28.5470   11.0720 O.2      27   C41      -0.6252
    854 N3         26.6770   26.3690   10.4690 N.2      27   C41      -0.7584
    855 C4         26.5460   25.0890   10.8220 C.2      27   C41       0.8185
    856 N4         26.8120   24.1640    9.9020 N.pl3    27   C41      -0.9530
    857 C5         26.1360   24.7080   12.1320 C.2      27   C41      -0.5215
    858 C6         25.8820   25.6900   13.0120 C.2      27   C41       0.0053
    859 H5'        23.2079   26.7164   16.9587 H        27   C41       0.0679
    860 H5''       24.9617   26.6623   17.2546 H        27   C41       0.0679
    861 H4'        24.2685   28.6730   15.9763 H        27   C41       0.1174
    862 H3'        23.5018   26.6468   13.8314 H        27   C41       0.0615
    863 H2'        23.9816   28.4802   12.2934 H        27   C41       0.0972
    864 H1'        26.4166   28.9210   13.4587 H        27   C41       0.2029
    865 H5         26.0333   23.6687   12.4070 H        27   C41       0.1928
    866 H6         25.5750   25.4403   14.0169 H        27   C41       0.1958
    867 H41        27.1018   24.4421    8.9753 H        27   C41       0.4234
    868 H42        26.7240   23.1842   10.1308 H        27   C41       0.4234
    869 HO2'       23.2733   30.2602   13.6134 H        27   C41       0.4186
    870 P          20.9680   27.4520   13.6970 P.3      28   G42       1.1662
    871 OP1        19.7100   27.9200   14.3140 O.co2    28   G42      -0.7760
    872 OP2        21.2280   25.9780   13.5810 O.co2    28   G42      -0.7760
    873 O5'        21.0910   28.0700   12.2390 O.3      28   G42      -0.4989
    874 C5'        20.9970   29.4780   12.0550 C.3      28   G42       0.0558
    875 C4'        21.4840   29.8610   10.6830 C.3      28   G42       0.1065
    876 O4'        22.8520   29.4140   10.5000 O.3      28   G42      -0.3548
    877 C3'        20.7750   29.2140    9.5090 C.3      28   G42       0.2022
    878 O3'        19.5200   29.8250    9.2510 O.3      28   G42      -0.5246
    879 C2'        21.7750   29.4930    8.4000 C.3      28   G42       0.0670
    880 O2'        21.7720   30.8540    8.0100 O.3      28   G42      -0.6139
    881 C1'        23.0860   29.1800    9.1210 C.3      28   G42       0.0191
    882 N9         23.4690   27.7840    8.9430 N.ar     28   G42       0.0492
    883 C8         23.3820   26.7570    9.8550 C.ar     28   G42       0.1374
    884 N7         23.7800   25.6110    9.3690 N.ar     28   G42      -0.5709
    885 C5         24.1610   25.9040    8.0650 C.ar     28   G42       0.1744
    886 C6         24.6790   25.0670    7.0390 C.2      28   G42       0.4770
    887 O6         24.9240   23.8580    7.0790 O.2      28   G42      -0.5597
    888 N1         24.9180   25.7790    5.8690 N.am     28   G42      -0.4787
    889 C2         24.6920   27.1240    5.7000 C.2      28   G42       0.7657
    890 N2         24.9630   27.6250    4.4870 N.pl3    28   G42      -0.9672
    891 N3         24.2250   27.9150    6.6500 N.2      28   G42      -0.6323
    892 C4         23.9800   27.2430    7.7940 C.ar     28   G42       0.1222
    893 H5'        21.6074   29.9798   12.8058 H        28   G42       0.0679
    894 H5''       19.9582   29.7881   12.1686 H        28   G42       0.0679
    895 H4'        21.4421   30.9449   10.5758 H        28   G42       0.1174
    896 H3'        20.6598   28.1418    9.6676 H        28   G42       0.0615
    897 H2'        21.6204   28.8324    7.5469 H        28   G42       0.0972
    898 H1'        23.8784   29.8351    8.7590 H        28   G42       0.2006
    899 H8         23.0228   26.8846   10.8655 H        28   G42       0.1640
    900 H1         25.2871   25.2670    5.0805 H        28   G42       0.3424
    901 H21        25.3166   27.0212    3.7587 H        28   G42       0.4364
    902 H22        24.8136   28.6064    4.3011 H        28   G42       0.4364
    903 HO2'       21.5376   30.9208    7.0815 H        28   G42       0.4186
    904 P          18.4270   29.0510    8.3660 P.3      29   C43       1.1662
    905 OP1        17.1670   29.8380    8.4150 O.co2    29   C43      -0.7760
    906 OP2        18.4230   27.6270    8.7980 O.co2    29   C43      -0.7760
    907 O5'        19.0050   29.1180    6.8830 O.3      29   C43      -0.4989
    908 C5'        19.1970   30.3710    6.2310 C.3      29   C43       0.0558
    909 C4'        19.7560   30.1610    4.8440 C.3      29   C43       0.1065
    910 O4'        21.0640   29.5360    4.9260 O.3      29   C43      -0.3548
    911 C3'        18.9760   29.2120    3.9520 C.3      29   C43       0.2022
    912 O3'        17.8490   29.8590    3.3810 O.3      29   C43      -0.5246
    913 C2'        20.0230   28.8640    2.9040 C.3      29   C43       0.0670
    914 O2'        20.2220   29.8910    1.9530 O.3      29   C43      -0.6139
    915 C1'        21.2730   28.7300    3.7750 C.3      29   C43       0.0066
    916 N1         21.5130   27.3450    4.2080 N.am     29   C43      -0.0484
    917 C2         22.1130   26.4590    3.3080 C.2      29   C43       0.7538
    918 O2         22.4140   26.8680    2.1760 O.2      29   C43      -0.6252
    919 N3         22.3500   25.1840    3.6940 N.2      29   C43      -0.7584
    920 C4         22.0150   24.7850    4.9220 C.2      29   C43       0.8185
    921 N4         22.2900   23.5190    5.2670 N.pl3    29   C43      -0.9530
    922 C5         21.3920   25.6650    5.8560 C.2      29   C43      -0.5215
    923 C6         21.1620   26.9250    5.4600 C.2      29   C43       0.0053
    924 H5'        18.2404   30.8884    6.1583 H        29   C43       0.0679
    925 H5''       19.8919   30.9773    6.8121 H        29   C43       0.0679
    926 H4'        19.8502   31.1257    4.3455 H        29   C43       0.1174
    927 H3'        18.6724   28.3232    4.5051 H        29   C43       0.0615
    928 H2'        19.7858   27.9195    2.4143 H        29   C43       0.0972
    929 H1'        22.1407   29.0960    3.2262 H        29   C43       0.2029
    930 H5         21.1161   25.3290    6.8446 H        29   C43       0.1928
    931 H6         20.6920   27.6189    6.1412 H        29   C43       0.1958
    932 H41        22.7341   22.9000    4.6039 H        29   C43       0.4234
    933 H42        22.0530   23.1843    6.1900 H        29   C43       0.4234
    934 HO2'       19.4383   29.9767    1.4052 H        29   C43       0.4186
    935 P          16.5210   29.0100    3.0610 P.3      30   A44       1.1662
    936 OP1        15.4910   29.9620    2.5660 O.co2    30   A44      -0.7760
    937 OP2        16.2190   28.1510    4.2320 O.co2    30   A44      -0.7760
    938 O5'        16.9490   28.0630    1.8510 O.3      30   A44      -0.4989
    939 C5'        17.1100   28.5880    0.5380 C.3      30   A44       0.0558
    940 C4'        17.7130   27.5460   -0.3790 C.3      30   A44       0.1065
    941 O4'        19.0230   27.1480    0.1180 O.3      30   A44      -0.3548
    942 C3'        16.9840   26.2180   -0.4960 C.3      30   A44       0.2022
    943 O3'        15.8490   26.2820   -1.3540 O.3      30   A44      -0.5246
    944 C2'        18.0840   25.3510   -1.0870 C.3      30   A44       0.0670
    945 O2'        18.3520   25.6600   -2.4400 O.3      30   A44      -0.6139
    946 C1'        19.2660   25.7880   -0.2240 C.3      30   A44       0.0394
    947 N9         19.3280   25.0100    1.0100 N.ar     30   A44      -0.0251
    948 C8         18.9320   25.3900    2.2690 C.ar     30   A44       0.2006
    949 N7         19.0860   24.4550    3.1740 N.ar     30   A44      -0.6073
    950 C5         19.6260   23.3920    2.4650 C.ar     30   A44       0.0515
    951 C6         20.0190   22.1010    2.8540 C.ar     30   A44       0.7009
    952 N6         19.9280   21.6450    4.1060 N.pl3    30   A44      -0.9019
    953 N1         20.5170   21.2840    1.9000 N.ar     30   A44      -0.7615
    954 C2         20.6130   21.7440    0.6480 C.ar     30   A44       0.5875
    955 N3         20.2790   22.9360    0.1610 N.ar     30   A44      -0.6997
    956 C4         19.7840   23.7220    1.1330 C.ar     30   A44       0.3053
    957 H5'        16.1365   28.8873    0.1496 H        30   A44       0.0679
    958 H5''       17.7659   29.4578    0.5756 H        30   A44       0.0679
    959 H4'        17.8279   27.9751   -1.3744 H        30   A44       0.1174
    960 H3'        16.6973   25.8517    0.4898 H        30   A44       0.0615
    961 H2'        17.8674   24.2907   -0.9569 H        30   A44       0.0972
    962 H1'        20.1989   25.6956   -0.7802 H        30   A44       0.2007
    963 H8         18.5313   26.3678    2.4922 H        30   A44       0.1553
    964 H2         21.0200   21.0481   -0.0707 H        30   A44       0.0473
    965 H61        19.5592   22.2395    4.8344 H        30   A44       0.4115
    966 H62        20.2280   20.7056    4.3244 H        30   A44       0.4115
    967 HO2'       17.6102   25.3861   -2.9843 H        30   A44       0.4186
    968 P          14.6180   25.2720   -1.1180 P.3      31   A45       1.1662
    969 OP1        13.5080   25.6670   -2.0230 O.co2    31   A45      -0.7760
    970 OP2        14.3770   25.1840    0.3450 O.co2    31   A45      -0.7760
    971 O5'        15.1720   23.8590   -1.6030 O.3      31   A45      -0.4989
    972 C5'        15.5470   23.6550   -2.9590 C.3      31   A45       0.0558
    973 C4'        16.2350   22.3220   -3.1200 C.3      31   A45       0.1065
    974 O4'        17.2950   22.1890   -2.1400 O.3      31   A45      -0.3548
    975 C3'        15.3830   21.0950   -2.8610 C.3      31   A45       0.2022
    976 O3'        14.5830   20.7960   -3.9950 O.3      31   A45      -0.5246
    977 C2'        16.4470   20.0260   -2.6420 C.3      31   A45       0.0670
    978 O2'        16.9910   19.5420   -3.8530 O.3      31   A45      -0.6139
    979 C1'        17.5180   20.8130   -1.8820 C.3      31   A45       0.0394
    980 N9         17.4790   20.6020   -0.4360 N.ar     31   A45      -0.0251
    981 C8         17.0590   21.4700    0.5400 C.ar     31   A45       0.2006
    982 N7         17.1700   20.9910    1.7560 N.ar     31   A45      -0.6073
    983 C5         17.6960   19.7210    1.5660 C.ar     31   A45       0.0515
    984 C6         18.0600   18.7010    2.4650 C.ar     31   A45       0.7009
    985 N6         17.9590   18.8090    3.7920 N.pl3    31   A45      -0.9019
    986 N1         18.5440   17.5530    1.9460 N.ar     31   A45      -0.7615
    987 C2         18.6620   17.4480    0.6180 C.ar     31   A45       0.5875
    988 N3         18.3670   18.3380   -0.3270 N.ar     31   A45      -0.6997
    989 C4         17.8830   19.4660    0.2210 C.ar     31   A45       0.3053
    990 H5'        14.6551   23.6766   -3.5852 H        31   A45       0.0679
    991 H5''       16.2247   24.4503   -3.2692 H        31   A45       0.0679
    992 H4'        16.6618   22.2574   -4.1209 H        31   A45       0.1174
    993 H3'        14.7682   21.2250   -1.9703 H        31   A45       0.0615
    994 H2'        16.0591   19.2084   -2.0344 H        31   A45       0.0972
    995 H1'        18.5021   20.5332   -2.2581 H        31   A45       0.2007
    996 H8         16.6729   22.4559    0.3269 H        31   A45       0.1553
    997 H2         19.0525   16.5064    0.2612 H        31   A45       0.0473
    998 H61        18.5697   18.1252    4.2158 H        31   A45       0.4115
    999 H62        17.3713   19.4637    4.2881 H        31   A45       0.4115
   1000 HO2'       17.7362   18.9676   -3.6621 H        31   A45       0.4186
   1001 P          13.1970   20.0080   -3.8040 P.3      32   G46       1.1662
   1002 OP1        12.6160   19.7960   -5.1550 O.co2    32   G46      -0.7760
   1003 OP2        12.4020   20.7060   -2.7640 O.co2    32   G46      -0.7760
   1004 O5'        13.6290   18.5940   -3.2110 O.3      32   G46      -0.4989
   1005 C5'        14.2660   17.6220   -4.0320 C.3      32   G46       0.0558
   1006 C4'        14.6400   16.4110   -3.2110 C.3      32   G46       0.1065
   1007 O4'        15.5560   16.8110   -2.1570 O.3      32   G46      -0.3548
   1008 C3'        13.4970   15.7360   -2.4690 C.3      32   G46       0.2022
   1009 O3'        12.8300   14.8110   -3.3210 O.3      32   G46      -0.5246
   1010 C2'        14.2390   15.0080   -1.3530 C.3      32   G46       0.0670
   1011 O2'        14.8530   13.8100   -1.7850 O.3      32   G46      -0.6139
   1012 C1'        15.3290   16.0200   -1.0020 C.3      32   G46       0.0191
   1013 N9         14.9680   16.9090    0.0960 N.ar     32   G46       0.0492
   1014 C8         14.3160   18.1150    0.0050 C.ar     32   G46       0.1374
   1015 N7         14.1550   18.6990    1.1600 N.ar     32   G46      -0.5709
   1016 C5         14.7310   17.8240    2.0720 C.ar     32   G46       0.1744
   1017 C6         14.8680   17.9240    3.4820 C.2      32   G46       0.4770
   1018 O6         14.5030   18.8390    4.2290 O.2      32   G46      -0.5597
   1019 N1         15.5120   16.8110    4.0130 N.am     32   G46      -0.4787
   1020 C2         15.9730   15.7420    3.2840 C.2      32   G46       0.7657
   1021 N2         16.5680   14.7660    3.9850 N.pl3    32   G46      -0.9672
   1022 N3         15.8550   15.6390    1.9670 N.2      32   G46      -0.6323
   1023 C4         15.2290   16.7090    1.4320 C.ar     32   G46       0.1222
   1024 H5'        13.5849   17.3210   -4.8280 H        32   G46       0.0679
   1025 H5''       15.1660   18.0532   -4.4704 H        32   G46       0.0679
   1026 H4'        15.1308   15.6802   -3.8538 H        32   G46       0.1174
   1027 H3'        12.8013   16.4713   -2.0648 H        32   G46       0.0615
   1028 H2'        13.5840   14.8269   -0.5008 H        32   G46       0.0972
   1029 H1'        16.2448   15.4871   -0.7462 H        32   G46       0.2006
   1030 H8         13.9719   18.5364   -0.9279 H        32   G46       0.1640
   1031 H1         15.6515   16.7871    5.0130 H        32   G46       0.3424
   1032 H21        16.6557   14.8460    4.9880 H        32   G46       0.4364
   1033 H22        16.9285   13.9508    3.5100 H        32   G46       0.4364
   1034 HO2'       14.1767   13.1663   -2.0085 H        32   G46       0.4186
   1035 P          11.2740   15.0260   -3.6710 P.3      33   U47       1.1662
   1036 OP1        11.0000   14.2680   -4.9190 O.co2    33   U47      -0.7760
   1037 OP2        10.9590   16.4740   -3.6100 O.co2    33   U47      -0.7760
   1038 O5'        10.5050   14.3060   -2.4780 O.3      33   U47      -0.4989
   1039 C5'        10.6180   12.9000   -2.2820 C.3      33   U47       0.0558
   1040 C4'         9.6750   12.4470   -1.1940 C.3      33   U47       0.1065
   1041 O4'        10.1320   12.9710    0.0840 O.3      33   U47      -0.3548
   1042 C3'         8.2290   12.9060   -1.3460 C.3      33   U47       0.2022
   1043 O3'         7.3580   11.8980   -0.8490 O.3      33   U47      -0.5246
   1044 C2'         8.1720   14.1310   -0.4410 C.3      33   U47       0.0670
   1045 O2'         6.8710   14.4060    0.0400 O.3      33   U47      -0.6139
   1046 C1'         9.0830   13.6880    0.7020 C.3      33   U47       0.0674
   1047 N1          9.6650   14.8080    1.4560 N.am     33   U47       0.0418
   1048 C2          9.6420   14.7330    2.8350 C.2      33   U47       0.4687
   1049 O2          9.2000   13.7730    3.4370 O.2      33   U47      -0.5477
   1050 N3         10.1670   15.8230    3.4830 N.am     33   U47      -0.3549
   1051 C4         10.7100   16.9510    2.9050 C.2      33   U47       0.5952
   1052 O4         11.1210   17.8620    3.6260 O.2      33   U47      -0.5761
   1053 C5         10.7160   16.9450    1.4750 C.2      33   U47      -0.3635
   1054 C6         10.2050   15.8990    0.8160 C.2      33   U47      -0.1126
   1055 H5'        10.3693   12.3862   -3.2106 H        33   U47       0.0679
   1056 H5''       11.6415   12.6562   -1.9973 H        33   U47       0.0679
   1057 H4'         9.6918   11.3580   -1.1499 H        33   U47       0.1174
   1058 H3'         7.9968   13.1612   -2.3799 H        33   U47       0.0615
   1059 H2'         8.5868   15.0026   -0.9474 H        33   U47       0.0972
   1060 H1'         8.5351   13.0320    1.3784 H        33   U47       0.1824
   1061 H3         10.1542   15.7960    4.4926 H        33   U47       0.3154
   1062 H5         11.1307   17.7802    0.9302 H        33   U47       0.1811
   1063 H6         10.2170   15.9118   -0.2639 H        33   U47       0.2188
   1064 HO2'        6.4106   14.9702   -0.5856 H        33   U47       0.4186
   1065 P           6.5260   10.9820   -1.8730 P.3      34   U48       1.1662
   1066 OP1         5.8240    9.9780   -1.0370 O.co2    34   U48      -0.7760
   1067 OP2         7.4110   10.5280   -2.9750 O.co2    34   U48      -0.7760
   1068 O5'         5.4460   11.9790   -2.4900 O.3      34   U48      -0.4989
   1069 C5'         4.4970   12.6330   -1.6560 C.3      34   U48       0.0558
   1070 C4'         3.7760   13.7130   -2.4290 C.3      34   U48       0.1065
   1071 O4'         2.9220   13.0960   -3.4310 O.3      34   U48      -0.3548
   1072 C3'         2.8740   14.6090   -1.5820 C.3      34   U48       0.2022
   1073 O3'         3.0630   15.9790   -1.9200 O.3      34   U48      -0.5246
   1074 C2'         1.4630   14.1410   -1.9390 C.3      34   U48       0.0670
   1075 O2'         0.4970   15.1690   -1.8690 O.3      34   U48      -0.6139
   1076 C1'         1.6440   13.6910   -3.3860 C.3      34   U48       0.0674
   1077 N1          0.6500   12.6930   -3.8070 N.am     34   U48       0.0418
   1078 C2         -0.2410   13.0510   -4.8040 C.2      34   U48       0.4687
   1079 O2         -0.2260   14.1430   -5.3450 O.2      34   U48      -0.5477
   1080 N3         -1.1530   12.0820   -5.1410 N.am     34   U48      -0.3549
   1081 C4         -1.2630   10.8200   -4.5980 C.2      34   U48       0.5952
   1082 O4         -2.1490   10.0620   -5.0020 O.2      34   U48      -0.5761
   1083 C5         -0.3010   10.5230   -3.5800 C.2      34   U48      -0.3635
   1084 C6          0.6010   11.4480   -3.2290 C.2      34   U48      -0.1126
   1085 H5'         5.0132   13.0820   -0.8074 H        34   U48       0.0679
   1086 H5''        3.7725   11.9040   -1.2931 H        34   U48       0.0679
   1087 H4'         4.5148   14.3358   -2.9334 H        34   U48       0.1174
   1088 H3'         3.0694   14.4497   -0.5216 H        34   U48       0.0615
   1089 H2'         1.1702   13.2992   -1.3116 H        34   U48       0.0972
   1090 H1'         1.6109   14.5537   -4.0515 H        34   U48       0.1824
   1091 H3         -1.8153   12.3196   -5.8655 H        34   U48       0.3154
   1092 H5         -0.3030    9.5569   -3.0973 H        34   U48       0.1811
   1093 H6          1.3194   11.2053   -2.4600 H        34   U48       0.2188
   1094 HO2'        0.3894   15.4460   -0.9561 H        34   U48       0.4186
   1095 P           4.3540   16.7680   -1.3740 P.3      35   U49       1.1662
   1096 OP1         4.0880   18.2210   -1.5380 O.co2    35   U49      -0.7760
   1097 OP2         5.5690   16.1700   -1.9870 O.co2    35   U49      -0.7760
   1098 O5'         4.3810   16.4420    0.1830 O.3      35   U49      -0.4989
   1099 C5'         3.3330   16.8760    1.0410 C.3      35   U49       0.0558
   1100 C4'         3.7340   16.6890    2.4830 C.3      35   U49       0.1065
   1101 O4'         3.6050   15.2890    2.8410 O.3      35   U49      -0.3548
   1102 C3'         5.1730   17.0860    2.8130 C.3      35   U49       0.2022
   1103 O3'         5.1920   17.8880    3.9860 O.3      35   U49      -0.5246
   1104 C2'         5.8690   15.7480    3.0610 C.3      35   U49       0.0670
   1105 O2'         6.9060   15.8300    4.0180 O.3      35   U49      -0.6139
   1106 C1'         4.7190   14.9130    3.6140 C.3      35   U49       0.0674
   1107 N1          4.8990   13.4600    3.4970 N.am     35   U49       0.0418
   1108 C2          4.5800   12.6950    4.6000 C.2      35   U49       0.4687
   1109 O2          4.1780   13.1790    5.6420 O.2      35   U49      -0.5477
   1110 N3          4.7480   11.3440    4.4390 N.am     35   U49      -0.3549
   1111 C4          5.1930   10.6940    3.3090 C.2      35   U49       0.5952
   1112 O4          5.2570    9.4640    3.3060 O.2      35   U49      -0.5761
   1113 C5          5.5140   11.5550    2.2120 C.2      35   U49      -0.3635
   1114 C6          5.3590   12.8780    2.3410 C.2      35   U49      -0.1126
   1115 H5'         2.4354   16.2920    0.8377 H        35   U49       0.0679
   1116 H5''        3.1278   17.9305    0.8565 H        35   U49       0.0679
   1117 H4'         3.0596   17.2721    3.1101 H        35   U49       0.1174
   1118 H3'         5.6317   17.6124    1.9759 H        35   U49       0.0615
   1119 H2'         6.2384   15.3257    2.1265 H        35   U49       0.0972
   1120 H1'         4.5452   15.1765    4.6573 H        35   U49       0.1824
   1121 H3          4.5213   10.7633    5.2337 H        35   U49       0.3154
   1122 H5          5.8795   11.1392    1.2847 H        35   U49       0.1811
   1123 H6          5.6054   13.5132    1.5030 H        35   U49       0.2188
   1124 HO2'        7.2984   16.7057    3.9910 H        35   U49       0.4186
   1125 P           6.3360   19.0000    4.1720 P.3      36   C50       1.1662
   1126 OP1         6.0390   20.1230    3.2460 O.co2    36   C50      -0.7760
   1127 OP2         7.6520   18.3140    4.0970 O.co2    36   C50      -0.7760
   1128 O5'         6.1260   19.5090    5.6640 O.3      36   C50      -0.4989
   1129 C5'         4.9340   20.1910    6.0380 C.3      36   C50       0.0558
   1130 C4'         4.6290   19.9410    7.4920 C.3      36   C50       0.1065
   1131 O4'         4.0950   18.6000    7.6470 O.3      36   C50      -0.3548
   1132 C3'         5.8360   19.9730    8.4130 C.3      36   C50       0.2022
   1133 O3'         6.1060   21.3090    8.8180 O.3      36   C50      -0.5246
   1134 C2'         5.3640   19.1220    9.5860 C.3      36   C50       0.0670
   1135 O2'         4.5490   19.8350   10.4920 O.3      36   C50      -0.6139
   1136 C1'         4.5380   18.0490    8.8740 C.3      36   C50       0.0066
   1137 N1          5.3030   16.8260    8.5870 N.am     36   C50      -0.0484
   1138 C2          5.7650   16.0600    9.6580 C.2      36   C50       0.7538
   1139 O2          5.5260   16.4400   10.8120 O.2      36   C50      -0.6252
   1140 N3          6.4600   14.9260    9.4110 N.2      36   C50      -0.7584
   1141 C4          6.7010   14.5520    8.1520 C.2      36   C50       0.8185
   1142 N4          7.3870   13.4210    7.9530 N.pl3    36   C50      -0.9530
   1143 C5          6.2490   15.3200    7.0390 C.2      36   C50      -0.5215
   1144 C6          5.5580   16.4400    7.3000 C.2      36   C50       0.0053
   1145 H5'         5.0650   21.2609    5.8760 H        36   C50       0.0679
   1146 H5''        4.1053   19.8318    5.4278 H        36   C50       0.0679
   1147 H4'         3.8917   20.6660    7.8367 H        36   C50       0.1174
   1148 H3'         6.7065   19.5270    7.9320 H        36   C50       0.0615
   1149 H2'         6.2130   18.6742   10.1026 H        36   C50       0.0972
   1150 H1'         3.6730   17.7960    9.4871 H        36   C50       0.2029
   1151 H5          6.4550   15.0119    6.0246 H        36   C50       0.1928
   1152 H6          5.1978   17.0457    6.4816 H        36   C50       0.1958
   1153 H41         7.7060   12.8783    8.7428 H        36   C50       0.4234
   1154 H42         7.5859   13.1098    7.0130 H        36   C50       0.4234
   1155 HO2'        5.0734   20.5062   10.9349 H        36   C50       0.4186
   1156 P           7.6120   21.8640    8.7770 P.3      37   U51       1.1662
   1157 OP1         7.6210   23.2150    9.3970 O.co2    37   U51      -0.7760
   1158 OP2         8.1230   21.6880    7.3950 O.co2    37   U51      -0.7760
   1159 O5'         8.4130   20.8750    9.7340 O.3      37   U51      -0.4989
   1160 C5'         8.2820   20.9690   11.1480 C.3      37   U51       0.0558
   1161 C4'         8.8380   19.7310   11.8080 C.3      37   U51       0.1065
   1162 O4'         8.1990   18.5500   11.2540 O.3      37   U51      -0.3548
   1163 C3'        10.3130   19.4540   11.5800 C.3      37   U51       0.2022
   1164 O3'        11.1320   20.2500   12.4280 O.3      37   U51      -0.5246
   1165 C2'        10.3910   17.9790   11.9480 C.3      37   U51       0.0670
   1166 O2'        10.3490   17.7620   13.3430 O.3      37   U51      -0.6139
   1167 C1'         9.1000   17.4540   11.3180 C.3      37   U51       0.0674
   1168 N1          9.3020   16.9370    9.9580 N.am     37   U51       0.0418
   1169 C2          9.8640   15.6820    9.8320 C.2      37   U51       0.4687
   1170 O2         10.2090   15.0140   10.7890 O.2      37   U51      -0.5477
   1171 N3         10.0110   15.2400    8.5410 N.am     37   U51      -0.3549
   1172 C4          9.6650   15.9100    7.3890 C.2      37   U51       0.5952
   1173 O4          9.8250   15.3610    6.2980 O.2      37   U51      -0.5761
   1174 C5          9.1010   17.2080    7.6020 C.2      37   U51      -0.3635
   1175 C6          8.9430   17.6660    8.8490 C.2      37   U51      -0.1126
   1176 H5'         7.2278   21.0712   11.4055 H        37   U51       0.0679
   1177 H5''        8.8269   21.8434   11.5037 H        37   U51       0.0679
   1178 H4'         8.6423   19.7763   12.8793 H        37   U51       0.1174
   1179 H3'        10.5776   19.6058   10.5336 H        37   U51       0.0615
   1180 H2'        11.2669   17.5076   11.5022 H        37   U51       0.0972
   1181 H1'         8.6783   16.6706   11.9478 H        37   U51       0.1824
   1182 H3         10.4174   14.3229    8.4231 H        37   U51       0.3154
   1183 H5          8.8042   17.8152    6.7596 H        37   U51       0.1811
   1184 H6          8.5162   18.6480    8.9902 H        37   U51       0.2188
   1185 HO2'       11.1810   17.3811   13.6333 H        37   U51       0.4186
   1186 P          12.6500   20.5570   12.0050 P.3      38   A52       1.1662
   1187 OP1        13.2410   21.4680   13.0170 O.co2    38   A52      -0.7760
   1188 OP2        12.6580   20.9490   10.5740 O.co2    38   A52      -0.7760
   1189 O5'        13.3770   19.1430   12.1160 O.3      38   A52      -0.4989
   1190 C5'        13.4640   18.4560   13.3610 C.3      38   A52       0.0558
   1191 C4'        14.0460   17.0780   13.1510 C.3      38   A52       0.1065
   1192 O4'        13.1700   16.3400   12.2610 O.3      38   A52      -0.3548
   1193 C3'        15.4210   17.0490   12.4960 C.3      38   A52       0.2022
   1194 O3'        16.4290   17.0510   13.5050 O.3      38   A52      -0.5246
   1195 C2'        15.4120   15.7220   11.7380 C.3      38   A52       0.0670
   1196 O2'        15.7870   14.6240   12.5460 O.3      38   A52      -0.6139
   1197 C1'        13.9390   15.5860   11.3460 C.3      38   A52       0.0394
   1198 N9         13.6200   16.0410    9.9930 N.ar     38   A52      -0.0251
   1199 C8         13.0850   17.2460    9.6060 C.ar     38   A52       0.2006
   1200 N7         12.8870   17.3460    8.3130 N.ar     38   A52      -0.6073
   1201 C5         13.3250   16.1270    7.8140 C.ar     38   A52       0.0515
   1202 C6         13.3780   15.6000    6.5110 C.ar     38   A52       0.7009
   1203 N6         12.9700   16.2570    5.4230 N.pl3    38   A52      -0.9019
   1204 N1         13.8760   14.3540    6.3600 N.ar     38   A52      -0.7615
   1205 C2         14.2920   13.6930    7.4460 C.ar     38   A52       0.5875
   1206 N3         14.2910   14.0780    8.7180 N.ar     38   A52      -0.6997
   1207 C4         13.7870   15.3170    8.8370 C.ar     38   A52       0.3053
   1208 H5'        14.1049   19.0188   14.0397 H        38   A52       0.0679
   1209 H5''       12.4682   18.3659   13.7949 H        38   A52       0.0679
   1210 H4'        14.0968   16.5623   14.1100 H        38   A52       0.1174
   1211 H3'        15.5479   17.8894   11.8135 H        38   A52       0.0615
   1212 H2'        16.0428   15.7808   10.8510 H        38   A52       0.0972
   1213 H1'        13.6528   14.5380   11.4349 H        38   A52       0.2007
   1214 H8         12.8493   18.0376   10.3019 H        38   A52       0.1553
   1215 H2         14.6853   12.7040    7.2627 H        38   A52       0.0473
   1216 HO2'       16.7272   14.4584   12.4453 H        38   A52       0.4186
   1217 H61        13.0453   15.6931    4.5885 H        38   A52       0.4115
   1218 H62        12.6263   17.2067    5.4331 H        38   A52       0.4115
   1219 P          17.6890   18.0450   13.3790 P.3      39   C53       1.1662
   1220 OP1        18.3860   18.0630   14.6890 O.co2    39   C53      -0.7760
   1221 OP2        17.2250   19.3170   12.7740 O.co2    39   C53      -0.7760
   1222 O5'        18.6430   17.3420   12.3180 O.3      39   C53      -0.4989
   1223 C5'        19.2350   16.0800   12.5920 C.3      39   C53       0.0558
   1224 C4'        19.6210   15.4080   11.3020 C.3      39   C53       0.1065
   1225 O4'        18.4090   15.1460   10.5410 O.3      39   C53      -0.3548
   1226 C3'        20.4740   16.2520   10.3680 C.3      39   C53       0.2022
   1227 O3'        21.8640   16.1400   10.6870 O.3      39   C53      -0.5246
   1228 C2'        20.1630   15.6260    9.0120 C.3      39   C53       0.0670
   1229 O2'        20.8880   14.4330    8.7930 O.3      39   C53      -0.6139
   1230 C1'        18.6740   15.2970    9.1570 C.3      39   C53       0.0066
   1231 N1         17.7740   16.3330    8.6170 N.am     39   C53      -0.0484
   1232 C2         17.1640   16.1210    7.3690 C.2      39   C53       0.7538
   1233 O2         17.3800   15.0590    6.7630 O.2      39   C53      -0.6252
   1234 N3         16.3540   17.0770    6.8580 N.2      39   C53      -0.7584
   1235 C4         16.1380   18.2030    7.5400 C.2      39   C53       0.8185
   1236 N4         15.3410   19.1220    6.9880 N.pl3    39   C53      -0.9530
   1237 C5         16.7320   18.4390    8.8160 C.2      39   C53      -0.5215
   1238 C6         17.5350   17.4860    9.3120 C.2      39   C53       0.0053
   1239 H5'        20.1244   16.2231   13.2057 H        39   C53       0.0679
   1240 H5''       18.5217   15.4536   13.1278 H        39   C53       0.0679
   1241 H4'        20.1305   14.4684   11.5158 H        39   C53       0.1174
   1242 H3'        20.1561   17.2943   10.3928 H        39   C53       0.0615
   1243 H2'        20.3294   16.3389    8.2044 H        39   C53       0.0972
   1244 H1'        18.4695   14.3527    8.6525 H        39   C53       0.2029
   1245 H5         16.5420   19.3512    9.3620 H        39   C53       0.1928
   1246 H6         18.0002   17.6317   10.2757 H        39   C53       0.1958
   1247 H41        14.9238   18.9514    6.0842 H        39   C53       0.4234
   1248 H42        15.1556   19.9875    7.4745 H        39   C53       0.4234
   1249 HO2'       20.3717   13.6836    9.0985 H        39   C53       0.4186
   1250 P          22.6140   17.3420   11.4650 P.3      40   C54       1.1662
   1251 OP1        21.7770   18.5710   11.3620 O.co2    40   C54      -0.7760
   1252 OP2        24.0210   17.3810   11.0120 O.co2    40   C54      -0.7760
   1253 O5'        22.6080   16.8850   12.9880 O.3      40   C54      -0.4989
   1254 C5'        23.5780   15.9580   13.4740 C.3      40   C54       0.0558
   1255 C4'        22.9310   14.9910   14.4280 C.3      40   C54       0.1065
   1256 O4'        21.9940   14.1770   13.6770 O.3      40   C54      -0.3548
   1257 C3'        23.8610   13.9820   15.0900 C.3      40   C54       0.2022
   1258 O3'        24.4080   14.4990   16.3020 O.3      40   C54      -0.5246
   1259 C2'        22.9060   12.8480   15.4230 C.3      40   C54       0.0670
   1260 O2'        22.1810   13.0950   16.6080 O.3      40   C54      -0.6139
   1261 C1'        21.9680   12.8690   14.2150 C.3      40   C54       0.0066
   1262 N1         22.3620   11.9180   13.1660 N.am     40   C54      -0.0484
   1263 C2         22.3110   10.5650   13.4680 C.2      40   C54       0.7538
   1264 O2         21.9500   10.2320   14.5960 O.2      40   C54      -0.6252
   1265 N3         22.6530    9.6560   12.5250 N.2      40   C54      -0.7584
   1266 C4         23.0380   10.0640   11.3180 C.2      40   C54       0.8185
   1267 N4         23.3590    9.1320   10.4150 N.pl3    40   C54      -0.9530
   1268 C5         23.1090   11.4490   10.9790 C.2      40   C54      -0.5215
   1269 C6         22.7640   12.3350   11.9290 C.2      40   C54       0.0053
   1270 H5'        24.3689   16.5010   13.9914 H        40   C54       0.0679
   1271 H5''       24.0052   15.4081   12.6354 H        40   C54       0.0679
   1272 H4'        22.3931   15.5460   15.1966 H        40   C54       0.1174
   1273 H3'        24.6449   13.6549   14.4069 H        40   C54       0.0615
   1274 H2'        23.4378   11.8986   15.4845 H        40   C54       0.0972
   1275 H1'        20.9551   12.6381   14.5448 H        40   C54       0.2029
   1276 H5         23.4271   11.7718    9.9987 H        40   C54       0.1928
   1277 H6         22.8052   13.3920   11.7111 H        40   C54       0.1958
   1278 H41        23.3063    8.1533   10.6588 H        40   C54       0.4234
   1279 H42        23.6542    9.4066    9.4890 H        40   C54       0.4234
   1280 HO2'       22.7791   13.0795   17.3587 H        40   C54       0.4186
   1281 P          25.8410   13.9750   16.8190 P.3      41   G55       1.1662
   1282 OP1        26.2710   14.8800   17.9140 O.co2    41   G55      -0.7760
   1283 OP2        26.6950   13.8150   15.6280 O.co2    41   G55      -0.7760
   1284 O5'        25.5540   12.5410   17.4570 O.3      41   G55      -0.4989
   1285 C5'        25.0110   12.4300   18.7680 C.3      41   G55       0.0558
   1286 C4'        25.0340   10.9910   19.2310 C.3      41   G55       0.1065
   1287 O4'        24.1730   10.1900   18.3760 O.3      41   G55      -0.3548
   1288 C3'        26.3730   10.2750   19.1730 C.3      41   G55       0.2022
   1289 O3'        27.1500   10.5470   20.3320 O.3      41   G55      -0.5246
   1290 C2'        25.9270    8.8230   19.1690 C.3      41   G55       0.0670
   1291 O2'        25.4770    8.4130   20.4440 O.3      41   G55      -0.6139
   1292 C1'        24.7330    8.8960   18.2170 C.3      41   G55       0.0191
   1293 N9         25.0690    8.7160   16.8070 N.ar     41   G55       0.0492
   1294 C8         25.2520    9.6960   15.8620 C.ar     41   G55       0.1374
   1295 N7         25.4690    9.2230   14.6640 N.ar     41   G55      -0.5709
   1296 C5         25.4430    7.8440   14.8310 C.ar     41   G55       0.1744
   1297 C6         25.5910    6.7970   13.8780 C.2      41   G55       0.4770
   1298 O6         25.7580    6.8810   12.6510 O.2      41   G55      -0.5597
   1299 N1         25.5110    5.5490   14.4850 N.am     41   G55      -0.4787
   1300 C2         25.3010    5.3310   15.8230 C.2      41   G55       0.7657
   1301 N2         25.2530    4.0540   16.2180 N.pl3    41   G55      -0.9672
   1302 N3         25.1450    6.2950   16.7150 N.2      41   G55      -0.6323
   1303 C4         25.2250    7.5150   16.1530 C.ar     41   G55       0.1222
   1304 H5'        25.6026   13.0367   19.4536 H        41   G55       0.0679
   1305 H5''       23.9824   12.7907   18.7636 H        41   G55       0.0679
   1306 H4'        24.6554   10.9449   20.2521 H        41   G55       0.1174
   1307 H3'        26.9176   10.5252   18.2626 H        41   G55       0.0615
   1308 H2'        26.7065    8.1640   18.7866 H        41   G55       0.0972
   1309 H1'        23.9958    8.1479   18.5083 H        41   G55       0.2006
   1310 H8         25.2197   10.7518   16.0870 H        41   G55       0.1640
   1311 H1         25.6159    4.7373   13.8932 H        41   G55       0.3424
   1312 H21        25.3700    3.3119   15.5430 H        41   G55       0.4364
   1313 H22        25.0998    3.8319   17.1913 H        41   G55       0.4364
   1314 HO2'       26.1545    7.8804   20.8670 H        41   G55       0.4186
   1315 P          28.7430   10.6600   20.2040 P.3      42   G56       1.1662
   1316 OP1        29.2500   11.3340   21.4280 O.co2    42   G56      -0.7760
   1317 OP2        29.0680   11.2040   18.8770 O.co2    42   G56      -0.7760
   1318 O5'        29.2530    9.1520   20.1630 O.3      42   G56      -0.4989
   1319 C5'        29.3340    8.3730   21.3430 C.3      42   G56       0.0558
   1320 C4'        29.3850    6.9090   20.9840 C.3      42   G56       0.1065
   1321 O4'        28.2770    6.5920   20.0980 O.3      42   G56      -0.3548
   1322 C3'        30.5900    6.4550   20.1780 C.3      42   G56       0.2022
   1323 O3'        31.7250    6.2570   21.0070 O.3      42   G56      -0.5246
   1324 C2'        30.0690    5.1440   19.6200 C.3      42   G56       0.0670
   1325 O2'        29.9610    4.1620   20.6290 O.3      42   G56      -0.6139
   1326 C1'        28.6730    5.5780   19.1830 C.3      42   G56       0.0191
   1327 N9         28.6930    6.1440   17.8390 N.ar     42   G56       0.0492
   1328 C8         28.7350    7.4740   17.4840 C.ar     42   G56       0.1374
   1329 N7         28.7790    7.6550   16.1910 N.ar     42   G56      -0.5709
   1330 C5         28.7560    6.3710   15.6640 C.ar     42   G56       0.1744
   1331 C6         28.7880    5.9310   14.3210 C.2      42   G56       0.4770
   1332 O6         28.8380    6.6050   13.2880 O.2      42   G56      -0.5597
   1333 N1         28.7550    4.5420   14.2360 N.am     42   G56      -0.4787
   1334 C2         28.7010    3.6890   15.3080 C.2      42   G56       0.7657
   1335 N2         28.6960    2.3770   15.0190 N.pl3    42   G56      -0.9672
   1336 N3         28.6630    4.0850   16.5660 N.2      42   G56      -0.6323
   1337 C4         28.6970    5.4310   16.6700 C.ar     42   G56       0.1222
   1338 H5'        30.2354    8.6424   21.8935 H        42   G56       0.0679
   1339 H5''       28.4590    8.5638   21.9643 H        42   G56       0.0679
   1340 H4'        29.3078    6.3096   21.8911 H        42   G56       0.1174
   1341 H3'        30.8109    7.1597   19.3763 H        42   G56       0.0615
   1342 H2'        30.6672    4.7957   18.7780 H        42   G56       0.0972
   1343 H1'        27.9827    4.7357   19.2290 H        42   G56       0.2006
   1344 H8         28.7319    8.2828   18.1997 H        42   G56       0.1640
   1345 H1         28.7722    4.1309   13.3136 H        42   G56       0.3424
   1346 H21        28.7280    2.0717   14.0568 H        42   G56       0.4364
   1347 H22        28.6603    1.6959   15.7640 H        42   G56       0.4364
   1348 HO2'       30.5332    3.4208   20.4174 H        42   G56       0.4186
   1349 P          33.1820    6.1800   20.3500 P.3      43   G57       1.1662
   1350 OP1        34.1660    6.1760   21.4570 O.co2    43   G57      -0.7760
   1351 OP2        33.2800    7.2190   19.2840 O.co2    43   G57      -0.7760
   1352 O5'        33.2150    4.7690   19.6090 O.3      43   G57      -0.4989
   1353 C5'        33.1730    3.5500   20.3440 C.3      43   G57       0.0558
   1354 C4'        33.1180    2.3780   19.3950 C.3      43   G57       0.1065
   1355 O4'        31.9590    2.5100   18.5210 O.3      43   G57      -0.3548
   1356 C3'        34.2770    2.2800   18.4220 C.3      43   G57       0.2022
   1357 O3'        35.4130    1.6660   19.0190 O.3      43   G57      -0.5246
   1358 C2'        33.6790    1.4010   17.3370 C.3      43   G57       0.0670
   1359 O2'        33.6160    0.0460   17.7450 O.3      43   G57      -0.6139
   1360 C1'        32.2730    1.9920   17.2350 C.3      43   G57       0.0191
   1361 N9         32.1920    3.0810   16.2650 N.ar     43   G57       0.0492
   1362 C8         32.1050    4.4270   16.5300 C.ar     43   G57       0.1374
   1363 N7         32.0370    5.1570   15.4480 N.ar     43   G57      -0.5709
   1364 C5         32.0820    4.2370   14.4100 C.ar     43   G57       0.1744
   1365 C6         32.0420    4.4330   13.0080 C.2      43   G57       0.4770
   1366 O6         31.9200    5.4950   12.3840 O.2      43   G57      -0.5597
   1367 N1         32.1480    3.2300   12.3160 N.am     43   G57      -0.4787
   1368 C2         32.2620    1.9930   12.9010 C.2      43   G57       0.7657
   1369 N2         32.3720    0.9520   12.0590 N.pl3    43   G57      -0.9672
   1370 N3         32.2730    1.7960   14.2090 N.2      43   G57      -0.6323
   1371 C4         32.1860    2.9530   14.8980 C.ar     43   G57       0.1222
   1372 H5'        32.2874    3.5419   20.9794 H        43   G57       0.0679
   1373 H5''       34.0651    3.4711   20.9654 H        43   G57       0.0679
   1374 H4'        33.0412    1.4517   19.9643 H        43   G57       0.1174
   1375 H3'        34.5327    3.2627   18.0257 H        43   G57       0.0615
   1376 H2'        34.2220    1.5068   16.3978 H        43   G57       0.0972
   1377 H1'        31.5626    1.2089   16.9698 H        43   G57       0.2006
   1378 H8         32.0940    4.8385   17.5285 H        43   G57       0.1640
   1379 H1         32.1405    3.2700   11.3068 H        43   G57       0.3424
   1380 H21        32.3653    1.1068   11.0610 H        43   G57       0.4364
   1381 H22        32.4614    0.0145   12.4240 H        43   G57       0.4364
   1382 HO2'       34.5046   -0.3123   17.8049 H        43   G57       0.4186
   1383 P          36.8810    2.1830   18.6390 P.3      44   C58       1.1662
   1384 OP1        37.8820    1.3990   19.4100 O.co2    44   C58      -0.7760
   1385 OP2        36.8880    3.6660   18.7270 O.co2    44   C58      -0.7760
   1386 O5'        37.0260    1.7910   17.1030 O.3      44   C58      -0.4989
   1387 C5'        37.1740    0.4340   16.7180 C.3      44   C58       0.0558
   1388 C4'        37.0470    0.3000   15.2230 C.3      44   C58       0.1065
   1389 O4'        35.7600    0.8140   14.7800 O.3      44   C58      -0.3548
   1390 C3'        38.0330    1.0940   14.3870 C.3      44   C58       0.2022
   1391 O3'        39.2960    0.4580   14.3180 O.3      44   C58      -0.5246
   1392 C2'        37.3300    1.0740   13.0420 C.3      44   C58       0.0670
   1393 O2'        37.3610   -0.1970   12.4270 O.3      44   C58      -0.6139
   1394 C1'        35.9010    1.3730   13.4810 C.3      44   C58       0.0066
   1395 N1         35.6570    2.8210   13.5570 N.am     44   C58      -0.0484
   1396 C2         35.3890    3.4960   12.3710 C.2      44   C58       0.7538
   1397 O2         35.3990    2.8530   11.3150 O.2      44   C58      -0.6252
   1398 N3         35.1360    4.8260   12.4040 N.2      44   C58      -0.7584
   1399 C4         35.1560    5.4800   13.5680 C.2      44   C58       0.8185
   1400 N4         34.8850    6.7950   13.5540 N.pl3    44   C58      -0.9530
   1401 C5         35.4470    4.8180   14.8000 C.2      44   C58      -0.5215
   1402 C6         35.6890    3.4970   14.7480 C.2      44   C58       0.0053
   1403 H5'        38.1556    0.0767   17.0292 H        44   C58       0.0679
   1404 H5''       36.4019   -0.1648   17.2012 H        44   C58       0.0679
   1405 H4'        37.1205   -0.7536   14.9534 H        44   C58       0.1174
   1406 H3'        38.1296    2.1131   14.7613 H        44   C58       0.0615
   1407 H2'        37.7146    1.8485   12.3785 H        44   C58       0.0972
   1408 H1'        35.1930    0.9090   12.7943 H        44   C58       0.2029
   1409 H5         35.4715    5.3573   15.7354 H        44   C58       0.1928
   1410 H6         35.9119    2.9606   15.6585 H        44   C58       0.1958
   1411 H41        34.6773    7.2586   12.6810 H        44   C58       0.4234
   1412 H42        34.8888    7.3206   14.4165 H        44   C58       0.4234
   1413 HO2'       38.2574   -0.3955   12.1464 H        44   C58       0.4186
   1414 P          40.6210    1.3410   14.1270 P.3      45   A59       1.1662
   1415 OP1        41.7800    0.4320   14.3340 O.co2    45   A59      -0.7760
   1416 OP2        40.5070    2.5780   14.9380 O.co2    45   A59      -0.7760
   1417 O5'        40.5820    1.7760   12.5940 O.3      45   A59      -0.4989
   1418 C5'        40.6300    0.8030   11.5530 C.3      45   A59       0.0558
   1419 C4'        40.2440    1.4330   10.2340 C.3      45   A59       0.1065
   1420 O4'        38.9650    2.1020   10.3830 O.3      45   A59      -0.3548
   1421 C3'        41.1800    2.5230    9.7360 C.3      45   A59       0.2022
   1422 O3'        42.2330    1.9500    8.9820 O.3      45   A59      -0.5246
   1423 C2'        40.2710    3.3470    8.8340 C.3      45   A59       0.0670
   1424 O2'        40.1120    2.8130    7.5330 O.3      45   A59      -0.6139
   1425 C1'        38.9470    3.2750    9.5870 C.3      45   A59       0.0394
   1426 N9         38.7330    4.4160   10.4700 N.ar     45   A59      -0.0251
   1427 C8         38.7530    4.4320   11.8380 C.ar     45   A59       0.2006
   1428 N7         38.4620    5.5990   12.3570 N.ar     45   A59      -0.6073
   1429 C5         38.2440    6.4100   11.2500 C.ar     45   A59       0.0515
   1430 C6         37.8680    7.7550   11.1240 C.ar     45   A59       0.7009
   1431 N6         37.6180    8.5570   12.1620 N.pl3    45   A59      -0.9019
   1432 N1         37.7470    8.2550    9.8780 N.ar     45   A59      -0.7615
   1433 C2         37.9740    7.4540    8.8390 C.ar     45   A59       0.5875
   1434 N3         38.3160    6.1680    8.8270 N.ar     45   A59      -0.6997
   1435 C4         38.4340    5.7000   10.0820 C.ar     45   A59       0.3053
   1436 H5'        41.6416    0.4039   11.4793 H        45   A59       0.0679
   1437 H5''       39.9378   -0.0069   11.7830 H        45   A59       0.0679
   1438 H4'        40.1585    0.6560    9.4743 H        45   A59       0.1174
   1439 H3'        41.5651    3.1212   10.5618 H        45   A59       0.0615
   1440 H2'        40.6220    4.3776    8.7810 H        45   A59       0.0972
   1441 H1'        38.1272    3.2133    8.8713 H        45   A59       0.2007
   1442 H8         38.9871    3.5628   12.4348 H        45   A59       0.1553
   1443 H2         37.8651    7.9133    7.8676 H        45   A59       0.0473
   1444 H61        37.1980    9.3890   11.7728 H        45   A59       0.4115
   1445 H62        37.8095    8.3701   13.1359 H        45   A59       0.4115
   1446 HO2'       39.8317    1.8970    7.5954 H        45   A59       0.4186
   1447 P          43.6540    2.6880    8.9120 P.3      46   C60       1.1662
   1448 OP1        44.4940    1.9180    7.9590 O.co2    46   C60      -0.7760
   1449 OP2        44.1450    2.9510   10.2780 O.co2    46   C60      -0.7760
   1450 O5'        43.3380    4.1190    8.2780 O.3      46   C60      -0.4989
   1451 C5'        43.0280    4.2750    6.8970 C.3      46   C60       0.0558
   1452 C4'        42.6680    5.7160    6.6120 C.3      46   C60       0.1065
   1453 O4'        41.4720    6.0700    7.3630 O.3      46   C60      -0.3548
   1454 C3'        43.6910    6.7320    7.0870 C.3      46   C60       0.2022
   1455 O3'        44.7360    6.8850    6.1420 O.3      46   C60      -0.5246
   1456 C2'        42.8430    7.9900    7.1960 C.3      46   C60       0.0670
   1457 O2'        42.5300    8.5470    5.9340 O.3      46   C60      -0.6139
   1458 C1'        41.5700    7.4190    7.8110 C.3      46   C60       0.0066
   1459 N1         41.5620    7.4300    9.2850 N.am     46   C60      -0.0484
   1460 C2         41.1330    8.5880    9.9440 C.2      46   C60       0.7538
   1461 O2         40.8710    9.5960    9.2730 O.2      46   C60      -0.6252
   1462 N3         41.0290    8.5840   11.2880 N.2      46   C60      -0.7584
   1463 C4         41.3690    7.4900   11.9810 C.2      46   C60       0.8185
   1464 N4         41.2180    7.5200   13.3060 N.pl3    46   C60      -0.9530
   1465 C5         41.8670    6.3160   11.3400 C.2      46   C60      -0.5215
   1466 C6         41.9420    6.3280   10.0040 C.2      46   C60       0.0053
   1467 H5'        43.8939    3.9933    6.2979 H        46   C60       0.0679
   1468 H5''       42.1852    3.6333    6.6400 H        46   C60       0.0679
   1469 H4'        42.4860    5.8468    5.5453 H        46   C60       0.1174
   1470 H3'        44.0904    6.4505    8.0614 H        46   C60       0.0615
   1471 H2'        43.3063    8.7267    7.8523 H        46   C60       0.0972
   1472 H1'        40.7115    7.9815    7.4440 H        46   C60       0.2029
   1473 H5         42.1715    5.4514   11.9111 H        46   C60       0.1928
   1474 H6         42.3080    5.4548    9.4844 H        46   C60       0.1958
   1475 H41        40.8613    8.3515   13.7549 H        46   C60       0.4234
   1476 H42        41.4604    6.7112   13.8603 H        46   C60       0.4234
   1477 HO2'       42.9631    9.3990    5.8434 H        46   C60       0.4186
   1478 P          46.1850    7.3640    6.6380 P.3      47   C61       1.1662
   1479 OP1        47.1580    7.0930    5.5480 O.co2    47   C61      -0.7760
   1480 OP2        46.4290    6.8170    7.9960 O.co2    47   C61      -0.7760
   1481 O5'        46.0490    8.9450    6.7950 O.3      47   C61      -0.4989
   1482 C5'        45.5540    9.7470    5.7270 C.3      47   C61       0.0558
   1483 C4'        45.1690   11.1160    6.2370 C.3      47   C61       0.1065
   1484 O4'        44.0480   10.9920    7.1500 O.3      47   C61      -0.3548
   1485 C3'        46.2300   11.8290    7.0570 C.3      47   C61       0.2022
   1486 O3'        47.1300   12.5100    6.1920 O.3      47   C61      -0.5246
   1487 C2'        45.3910   12.8150    7.8600 C.3      47   C61       0.0670
   1488 O2'        45.0160   13.9330    7.0760 O.3      47   C61      -0.6139
   1489 C1'        44.1520   11.9730    8.1650 C.3      47   C61       0.0066
   1490 N1         44.1850   11.2860    9.4630 N.am     47   C61      -0.0484
   1491 C2         43.7310   11.9690   10.5910 C.2      47   C61       0.7538
   1492 O2         43.3990   13.1650   10.4750 O.2      47   C61      -0.6252
   1493 N3         43.6680   11.3200   11.7780 N.2      47   C61      -0.7584
   1494 C4         44.0570   10.0440   11.8600 C.2      47   C61       0.8185
   1495 N4         43.9390    9.4350   13.0400 N.pl3    47   C61      -0.9530
   1496 C5         44.5740    9.3400   10.7340 C.2      47   C61      -0.5215
   1497 C6         44.6190    9.9930    9.5640 C.2      47   C61       0.0053
   1498 H5'        46.3278    9.8509    4.9664 H        47   C61       0.0679
   1499 H5''       44.6796    9.2656    5.2891 H        47   C61       0.0679
   1500 H4'        44.8804   11.7459    5.3955 H        47   C61       0.1174
   1501 H3'        46.7581   11.1346    7.7105 H        47   C61       0.0615
   1502 H2'        45.9004   13.1211    8.7737 H        47   C61       0.0972
   1503 H1'        43.2715   12.6144    8.1275 H        47   C61       0.2029
   1504 H5         44.9165    8.3194   10.8199 H        47   C61       0.1928
   1505 H6         45.0035    9.4907    8.6886 H        47   C61       0.1958
   1506 H41        43.5690    9.9386   13.8335 H        47   C61       0.4234
   1507 H42        44.2196    8.4700   13.1405 H        47   C61       0.4234
   1508 HO2'       44.2048   14.3106    7.4237 H        47   C61       0.4186
   1509 P          48.7010   12.1900    6.2680 P.3      48   G62       1.1662
   1510 OP1        49.3070   12.6150    4.9810 O.co2    48   G62      -0.7760
   1511 OP2        48.8730   10.7910    6.7360 O.co2    48   G62      -0.7760
   1512 O5'        49.2220   13.1530    7.4200 O.3      48   G62      -0.4989
   1513 C5'        50.6050   13.4600    7.5450 C.3      48   G62       0.0558
   1514 C4'        50.8940   13.9820    8.9300 C.3      48   G62       0.1065
   1515 O4'        50.6140   12.9330    9.8980 O.3      48   G62      -0.3548
   1516 C3'        52.3360   14.4070    9.1860 C.3      48   G62       0.2022
   1517 O3'        52.3340   15.4700   10.1310 O.3      48   G62      -0.5246
   1518 C2'        52.9420   13.1530    9.8050 C.3      48   G62       0.0670
   1519 O2'        54.0600   13.4280   10.6230 O.3      48   G62      -0.6139
   1520 C1'        51.7740   12.6680   10.6580 C.3      48   G62       0.0191
   1521 N9         51.7890   11.2480   10.9890 N.ar     48   G62       0.0492
   1522 C8         52.2160   10.2040   10.2030 C.ar     48   G62       0.1374
   1523 N7         52.0830    9.0420   10.7830 N.ar     48   G62      -0.5709
   1524 C5         51.5410    9.3380   12.0260 C.ar     48   G62       0.1744
   1525 C6         51.1720    8.4840   13.1000 C.2      48   G62       0.4770
   1526 O6         51.2510    7.2490   13.1720 O.2      48   G62      -0.5597
   1527 N1         50.6610    9.2070   14.1740 N.am     48   G62      -0.4787
   1528 C2         50.5220   10.5720   14.2130 C.2      48   G62       0.7657
   1529 N2         50.0080   11.0870   15.3390 N.pl3    48   G62      -0.9672
   1530 N3         50.8600   11.3760   13.2220 N.2      48   G62      -0.6323
   1531 C4         51.3580   10.6960   12.1680 C.ar     48   G62       0.1222
   1532 H5'        51.1921   12.5586    7.3693 H        48   G62       0.0679
   1533 H5''       50.8755   14.2172    6.8091 H        48   G62       0.0679
   1534 H4'        50.2375   14.8288    9.1302 H        48   G62       0.1174
   1535 H3'        52.8440   14.6879    8.2634 H        48   G62       0.0615
   1536 H2'        53.1926   12.4218    9.0365 H        48   G62       0.0972
   1537 H1'        51.7384   13.2495   11.5793 H        48   G62       0.2006
   1538 H8         52.6194   10.3318    9.2094 H        48   G62       0.1640
   1539 H1         50.3695    8.6862   14.9888 H        48   G62       0.3424
   1540 H21        49.7472   10.4767   16.1003 H        48   G62       0.4364
   1541 H22        49.8816   12.0853   15.4260 H        48   G62       0.4364
   1542 HO2'       54.7891   13.7322   10.0776 H        48   G62       0.4186
   1543 P          53.1620   16.8110    9.8280 P.3      49   U63       1.1662
   1544 OP1        53.4110   16.8700    8.3660 O.co2    49   U63      -0.7760
   1545 OP2        54.3100   16.8570   10.7710 O.co2    49   U63      -0.7760
   1546 O5'        52.1600   17.9880   10.2150 O.3      49   U63      -0.4989
   1547 C5'        51.0080   18.2630    9.4230 C.3      49   U63       0.0558
   1548 C4'        50.0010   19.0400   10.2330 C.3      49   U63       0.1065
   1549 O4'        49.1820   18.1020   10.9900 O.3      49   U63      -0.3548
   1550 C3'        50.6110   19.9850   11.2640 C.3      49   U63       0.2022
   1551 O3'        49.7780   21.1250   11.4450 O.3      49   U63      -0.5246
   1552 C2'        50.6060   19.1360   12.5280 C.3      49   U63       0.0670
   1553 O2'        50.6090   19.9130   13.7100 O.3      49   U63      -0.6139
   1554 C1'        49.2770   18.4020   12.3680 C.3      49   U63       0.0674
   1555 N1         49.1800   17.1450   13.1230 N.am     49   U63       0.0418
   1556 C2         48.5560   17.1870   14.3550 C.2      49   U63       0.4687
   1557 O2         48.0840   18.2100   14.8200 O.2      49   U63      -0.5477
   1558 N3         48.5050   15.9880   15.0200 N.am     49   U63      -0.3549
   1559 C4         49.0010   14.7780   14.5870 C.2      49   U63       0.5952
   1560 O4         48.9120   13.7920   15.3180 O.2      49   U63      -0.5761
   1561 C5         49.6240   14.8140   13.3000 C.2      49   U63      -0.3635
   1562 C6         49.6910   15.9690   12.6280 C.2      49   U63      -0.1126
   1563 H5'        50.5615   17.3237    9.0966 H        49   U63       0.0679
   1564 H5''       51.2996   18.8478    8.5506 H        49   U63       0.0679
   1565 H4'        49.3620   19.6100    9.5586 H        49   U63       0.1174
   1566 H3'        51.6241   20.2748   10.9853 H        49   U63       0.0615
   1567 H2'        51.4390   18.4330   12.5251 H        49   U63       0.0972
   1568 H1'        48.4589   19.0630   12.6542 H        49   U63       0.1824
   1569 H3         48.0554   15.9931   15.9244 H        49   U63       0.3154
   1570 H5         50.0385   13.9129   12.8726 H        49   U63       0.1811
   1571 H6         50.1656   15.9776   11.6579 H        49   U63       0.2188
   1572 HO2'       49.7322   19.9053   14.1008 H        49   U63       0.4186
   1573 P          50.2140   22.5410   10.8250 P.3      50   A64       1.1662
   1574 OP1        51.6830   22.5070   10.6070 O.co2    50   A64      -0.7760
   1575 OP2        49.6200   23.6030   11.6710 O.co2    50   A64      -0.7760
   1576 O5'        49.5020   22.5750    9.4010 O.3      50   A64      -0.4989
   1577 C5'        48.0920   22.7270    9.3000 C.3      50   A64       0.0558
   1578 C4'        47.5940   22.1390    8.0030 C.3      50   A64       0.1065
   1579 O4'        47.8830   20.7170    7.9730 O.3      50   A64      -0.3548
   1580 C3'        46.0970   22.2940    7.7740 C.3      50   A64       0.2022
   1581 O3'        45.8880   23.4060    6.9080 O.3      50   A64      -0.5246
   1582 C2'        45.7010   20.9800    7.1020 C.3      50   A64       0.0670
   1583 O2'        45.8690   21.0210    5.6980 O.3      50   A64      -0.6139
   1584 C1'        46.7020   19.9930    7.7010 C.3      50   A64       0.0394
   1585 N9         46.2940   19.3260    8.9380 N.ar     50   A64      -0.0251
   1586 C8         45.6810   19.8710   10.0400 C.ar     50   A64       0.2006
   1587 N7         45.5050   19.0200   11.0230 N.ar     50   A64      -0.6073
   1588 C5         46.0240   17.8290   10.5310 C.ar     50   A64       0.0515
   1589 C6         46.1460   16.5450   11.0940 C.ar     50   A64       0.7009
   1590 N6         45.7480   16.2360   12.3320 N.pl3    50   A64      -0.9019
   1591 N1         46.7020   15.5770   10.3320 N.ar     50   A64      -0.7615
   1592 C2         47.1090   15.8880    9.0950 C.ar     50   A64       0.5875
   1593 N3         47.0530   17.0570    8.4590 N.ar     50   A64      -0.6997
   1594 C4         46.4950   17.9980    9.2410 C.ar     50   A64       0.3053
   1595 H5'        47.6143   22.2135   10.1344 H        50   A64       0.0679
   1596 H5''       47.8397   23.7868    9.3363 H        50   A64       0.0679
   1597 H4'        48.1227   22.6182    7.1790 H        50   A64       0.1174
   1598 H3'        45.5677   22.4269    8.7175 H        50   A64       0.0615
   1599 H2'        44.6795   20.7031    7.3627 H        50   A64       0.0972
   1600 H1'        46.9267   19.2313    6.9544 H        50   A64       0.2007
   1601 H8         45.3724   20.9046   10.0924 H        50   A64       0.1553
   1602 H2         47.5448   15.0753    8.5328 H        50   A64       0.0473
   1603 HO2'       45.0156   21.1465    5.2767 H        50   A64       0.4186
   1604 H61        46.0517   15.2805   12.4542 H        50   A64       0.4115
   1605 H62        45.2574   16.8221   12.9922 H        50   A64       0.4115
   1606 P          44.5950   24.3380    7.1000 P.3      51   A65       1.1662
   1607 OP1        44.8260   25.5900    6.3300 O.co2    51   A65      -0.7760
   1608 OP2        44.2860   24.4160    8.5510 O.co2    51   A65      -0.7760
   1609 O5'        43.4350   23.5290    6.3700 O.3      51   A65      -0.4989
   1610 C5'        43.5010   23.2730    4.9690 C.3      51   A65       0.0558
   1611 C4'        42.5250   22.1850    4.5870 C.3      51   A65       0.1065
   1612 O4'        42.8590   20.9610    5.3170 O.3      51   A65      -0.3548
   1613 C3'        41.0600   22.4680    4.9200 C.3      51   A65       0.2022
   1614 O3'        40.2510   21.7850    3.9640 O.3      51   A65      -0.5246
   1615 C2'        40.9290   21.7860    6.2780 C.3      51   A65       0.0670
   1616 O2'        39.6020   21.5080    6.6750 O.3      51   A65      -0.6139
   1617 C1'        41.7040   20.5060    5.9900 C.3      51   A65       0.0394
   1618 N9         42.1000   19.7270    7.1630 N.ar     51   A65      -0.0251
   1619 C8         42.1210   20.1040    8.4830 C.ar     51   A65       0.2006
   1620 N7         42.4650   19.1370    9.3030 N.ar     51   A65      -0.6073
   1621 C5         42.7000   18.0570    8.4630 C.ar     51   A65       0.0515
   1622 C6         43.0760   16.7280    8.7170 C.ar     51   A65       0.7009
   1623 N6         43.2800   16.2400    9.9410 N.pl3    51   A65      -0.9019
   1624 N1         43.2260   15.9040    7.6580 N.ar     51   A65      -0.7615
   1625 C2         43.0020   16.3910    6.4310 C.ar     51   A65       0.5875
   1626 N3         42.6350   17.6180    6.0660 N.ar     51   A65      -0.6997
   1627 C4         42.4970   18.4100    7.1430 C.ar     51   A65       0.3053
   1628 H5'        44.5112   22.9569    4.7088 H        51   A65       0.0679
   1629 H5''       43.2565   24.1846    4.4238 H        51   A65       0.0679
   1630 H4'        42.6125   21.9926    3.5177 H        51   A65       0.1174
   1631 H3'        40.8410   23.5348    4.9659 H        51   A65       0.0615
   1632 H2'        41.4376   22.3707    7.0445 H        51   A65       0.0972
   1633 H1'        41.1210   19.8753    5.3188 H        51   A65       0.2007
   1634 H8         41.8775   21.1021    8.8161 H        51   A65       0.1553
   1635 H2         43.1384   15.6886    5.6220 H        51   A65       0.0473
   1636 H61        42.8982   16.7932   10.6948 H        51   A65       0.4115
   1637 H62        43.7809   15.3781   10.1029 H        51   A65       0.4115
   1638 HO2'       39.5167   21.6393    7.6221 H        51   A65       0.4186
   1639 P          38.9760   22.5090    3.3030 P.3      52   A66       1.1662
   1640 OP1        39.3270   22.9220    1.9140 O.co2    52   A66      -0.7760
   1641 OP2        38.4560   23.5200    4.2540 O.co2    52   A66      -0.7760
   1642 O5'        37.9020   21.3410    3.1850 O.3      52   A66      -0.4989
   1643 C5'        37.5550   20.5570    4.3190 C.3      52   A66       0.0558
   1644 C4'        37.8500   19.1080    4.0430 C.3      52   A66       0.1065
   1645 O4'        39.1730   18.7720    4.5480 O.3      52   A66      -0.3548
   1646 C3'        36.9750   18.1150    4.7750 C.3      52   A66       0.2022
   1647 O3'        35.6700   18.0050    4.2300 O.3      52   A66      -0.5246
   1648 C2'        37.8000   16.8570    4.6120 C.3      52   A66       0.0670
   1649 O2'        37.7530   16.3420    3.2960 O.3      52   A66      -0.6139
   1650 C1'        39.1840   17.4040    4.9570 C.3      52   A66       0.0394
   1651 N9         39.3560   17.3480    6.4080 N.ar     52   A66      -0.0251
   1652 C8         39.2420   18.3480    7.3400 C.ar     52   A66       0.2006
   1653 N7         39.3600   17.9300    8.5800 N.ar     52   A66      -0.6073
   1654 C5         39.5870   16.5660    8.4500 C.ar     52   A66       0.0515
   1655 C6         39.7750   15.5420    9.3940 C.ar     52   A66       0.7009
   1656 N6         39.7380   15.7300   10.7120 N.pl3    52   A66      -0.9019
   1657 N1         39.9900   14.2920    8.9270 N.ar     52   A66      -0.7615
   1658 C2         39.9970   14.0930    7.6070 C.ar     52   A66       0.5875
   1659 N3         39.8160   14.9690    6.6230 N.ar     52   A66      -0.6997
   1660 C4         39.6140   16.2010    7.1180 C.ar     52   A66       0.3053
   1661 H5'        36.4924   20.6764    4.5305 H        52   A66       0.0679
   1662 H5''       38.1357   20.8878    5.1801 H        52   A66       0.0679
   1663 H4'        37.8051   18.9196    2.9703 H        52   A66       0.1174
   1664 H3'        36.9139   18.3831    5.8297 H        52   A66       0.0615
   1665 H2'        37.4942   16.0994    5.3335 H        52   A66       0.0972
   1666 H1'        39.9677   16.8456    4.4451 H        52   A66       0.2007
   1667 H8         39.0713   19.3820    7.0790 H        52   A66       0.1553
   1668 H2         40.1751   13.0750    7.2934 H        52   A66       0.0473
   1669 H61        39.6388   16.6902   11.0092 H        52   A66       0.4115
   1670 H62        39.8045   14.9655   11.3687 H        52   A66       0.4115
   1671 HO2'       36.8716   16.0080    3.1139 H        52   A66       0.4186
   1672 P          34.4160   18.0430    5.2190 P.3      53   U67       1.1662
   1673 OP1        33.1620   17.7810    4.4820 O.co2    53   U67      -0.7760
   1674 OP2        34.5530   19.2930    6.0150 O.co2    53   U67      -0.7760
   1675 O5'        34.7110   16.8540    6.2420 O.3      53   U67      -0.4989
   1676 C5'        34.0800   15.5810    6.1120 C.3      53   U67       0.0558
   1677 C4'        35.0140   14.5860    5.4560 C.3      53   U67       0.1065
   1678 O4'        36.2470   14.4270    6.2190 O.3      53   U67      -0.3548
   1679 C3'        34.4470   13.1800    5.3750 C.3      53   U67       0.2022
   1680 O3'        33.6080   13.0770    4.2310 O.3      53   U67      -0.5246
   1681 C2'        35.7100   12.3400    5.2440 C.3      53   U67       0.0670
   1682 O2'        36.2500   12.3720    3.9380 O.3      53   U67      -0.6139
   1683 C1'        36.6500   13.0610    6.2120 C.3      53   U67       0.0674
   1684 N1         36.6040   12.5670    7.5970 N.am     53   U67       0.0418
   1685 C2         37.0700   11.2870    7.8540 C.2      53   U67       0.4687
   1686 O2         37.5200   10.5510    6.9870 O.2      53   U67      -0.5477
   1687 N3         36.9980   10.9010    9.1720 N.am     53   U67      -0.3549
   1688 C4         36.5260   11.6420   10.2360 C.2      53   U67       0.5952
   1689 O4         36.5050   11.1450   11.3670 O.2      53   U67      -0.5761
   1690 C5         36.0690   12.9480    9.8920 C.2      53   U67      -0.3635
   1691 C6         36.1170   13.3570    8.6180 C.2      53   U67      -0.1126
   1692 H5'        33.1835   15.6867    5.5011 H        53   U67       0.0679
   1693 H5''       33.8010   15.2151    7.1001 H        53   U67       0.0679
   1694 H4'        35.2571   14.9321    4.4514 H        53   U67       0.1174
   1695 H3'        33.9014   12.9259    6.2837 H        53   U67       0.0615
   1696 H2'        35.5308   11.3143    5.5664 H        53   U67       0.0972
   1697 H1'        37.6719   12.9902    5.8395 H        53   U67       0.1824
   1698 H3         37.3277    9.9704    9.3851 H        53   U67       0.3154
   1699 H5         35.6849   13.6060   10.6575 H        53   U67       0.1811
   1700 H6         35.7592   14.3477    8.3793 H        53   U67       0.2188
   1701 HO2'       35.6567   11.9185    3.3347 H        53   U67       0.4186
   1702 P          32.2780   12.1910    4.3000 P.3      54   G68       1.1662
   1703 OP1        31.5150   12.4590    3.0590 O.co2    54   G68      -0.7760
   1704 OP2        31.6280   12.3920    5.6120 O.co2    54   G68      -0.7760
   1705 O5'        32.8160   10.6920    4.2390 O.3      54   G68      -0.4989
   1706 C5'        33.3650   10.1750    3.0360 C.3      54   G68       0.0558
   1707 C4'        33.9770    8.8240    3.2880 C.3      54   G68       0.1065
   1708 O4'        34.9740    8.9510    4.3330 O.3      54   G68      -0.3548
   1709 C3'        33.0200    7.7670    3.8210 C.3      54   G68       0.2022
   1710 O3'        32.3510    7.1240    2.7490 O.3      54   G68      -0.5246
   1711 C2'        33.9830    6.8010    4.4860 C.3      54   G68       0.0670
   1712 O2'        34.6310    5.9920    3.5290 O.3      54   G68      -0.6139
   1713 C1'        34.9750    7.7720    5.1250 C.3      54   G68       0.0191
   1714 N9         34.6280    8.1340    6.4940 N.ar     54   G68       0.0492
   1715 C8         34.1450    9.3330    6.9610 C.ar     54   G68       0.1374
   1716 N7         33.9830    9.3530    8.2560 N.ar     54   G68      -0.5709
   1717 C5         34.3740    8.0830    8.6680 C.ar     54   G68       0.1744
   1718 C6         34.4270    7.5090    9.9650 C.2      54   G68       0.4770
   1719 O6         34.1460    8.0280   11.0500 O.2      54   G68      -0.5597
   1720 N1         34.8630    6.1860    9.9170 N.am     54   G68      -0.4787
   1721 C2         35.2040    5.5070    8.7730 C.2      54   G68       0.7657
   1722 N2         35.5840    4.2280    8.9240 N.pl3    54   G68      -0.9672
   1723 N3         35.1720    6.0360    7.5650 N.2      54   G68      -0.6323
   1724 C4         34.7520    7.3190    7.5880 C.ar     54   G68       0.1222
   1725 H5'        34.1326   10.8558    2.6680 H        54   G68       0.0679
   1726 H5''       32.5764   10.0813    2.2894 H        54   G68       0.0679
   1727 H4'        34.4494    8.4614    2.3751 H        54   G68       0.1174
   1728 H3'        32.3157    8.1886    4.5381 H        54   G68       0.0615
   1729 H2'        33.4794    6.1961    5.2401 H        54   G68       0.0972
   1730 H1'        35.9712    7.3299    5.1111 H        54   G68       0.2006
   1731 H8         33.9220   10.1738    6.3210 H        54   G68       0.1640
   1732 H1         34.9337    5.6874   10.7925 H        54   G68       0.3424
   1733 H21        35.6097    3.8142    9.8450 H        54   G68       0.4364
   1734 H22        35.8441    3.6798    8.1166 H        54   G68       0.4364
   1735 HO2'       34.3419    5.0822    3.6300 H        54   G68       0.4186
   1736 P          30.8770    6.5230    2.9620 P.3      55   U69       1.1662
   1737 OP1        30.3920    6.1030    1.6250 O.co2    55   U69      -0.7760
   1738 OP2        30.0750    7.4770    3.7700 O.co2    55   U69      -0.7760
   1739 O5'        31.0870    5.2260    3.8680 O.3      55   U69      -0.4989
   1740 C5'        31.9220    4.1550    3.4390 C.3      55   U69       0.0558
   1741 C4'        32.1750    3.2090    4.5900 C.3      55   U69       0.1065
   1742 O4'        32.9810    3.8830    5.5950 O.3      55   U69      -0.3548
   1743 C3'        30.9370    2.7630    5.3530 C.3      55   U69       0.2022
   1744 O3'        30.3120    1.6630    4.7000 O.3      55   U69      -0.5246
   1745 C2'        31.5370    2.3610    6.6950 C.3      55   U69       0.0670
   1746 O2'        32.1990    1.1070    6.6560 O.3      55   U69      -0.6139
   1747 C1'        32.5740    3.4660    6.8890 C.3      55   U69       0.0674
   1748 N1         32.0580    4.6330    7.6210 N.am     55   U69       0.0418
   1749 C2         32.0430    4.5550    8.9920 C.2      55   U69       0.4687
   1750 O2         32.3790    3.5520    9.5880 O.2      55   U69      -0.5477
   1751 N3         31.6150    5.6850    9.6400 N.am     55   U69      -0.3549
   1752 C4         31.1900    6.8630    9.0610 C.2      55   U69       0.5952
   1753 O4         30.9240    7.8300    9.7820 O.2      55   U69      -0.5761
   1754 C5         31.1970    6.8590    7.6310 C.2      55   U69      -0.3635
   1755 C6         31.6210    5.7710    6.9720 C.2      55   U69      -0.1126
   1756 H5'        32.8717    4.5563    3.0854 H        55   U69       0.0679
   1757 H5''       31.4321    3.6161    2.6281 H        55   U69       0.0679
   1758 H4'        32.7104    2.3321    4.2260 H        55   U69       0.1174
   1759 H3'        30.2375    3.5902    5.4737 H        55   U69       0.0615
   1760 H2'        30.7856    2.3843    7.4842 H        55   U69       0.0972
   1761 H1'        33.4342    3.0606    7.4218 H        55   U69       0.1824
   1762 H3         31.6103    5.6514   10.6494 H        55   U69       0.3154
   1763 H5         30.8623    7.7283    7.0844 H        55   U69       0.1811
   1764 H6         31.6208    5.7851    5.8921 H        55   U69       0.2188
   1765 HO2'       31.8626    0.5451    7.3579 H        55   U69       0.4186
   1766 P          28.7170    1.4890    4.7640 P.3      56   C70       1.1662
   1767 OP1        28.3480    0.5830    3.6470 O.co2    56   C70      -0.7760
   1768 OP2        28.0770    2.8360    4.8600 O.co2    56   C70      -0.7760
   1769 O5'        28.4560    0.7500    6.1520 O.3      56   C70      -0.4989
   1770 C5'        28.9690   -0.5620    6.3820 C.3      56   C70       0.0558
   1771 C4'        29.0350   -0.8520    7.8650 C.3      56   C70       0.1065
   1772 O4'        29.8640    0.1300    8.5340 O.3      56   C70      -0.3548
   1773 C3'        27.7210   -0.7950    8.6260 C.3      56   C70       0.2022
   1774 O3'        26.9970   -2.0100    8.4450 O.3      56   C70      -0.5246
   1775 C2'        28.2090   -0.6260   10.0610 C.3      56   C70       0.0670
   1776 O2'        28.6790   -1.8310   10.6440 O.3      56   C70      -0.6139
   1777 C1'        29.4020    0.3110    9.8630 C.3      56   C70       0.0066
   1778 N1         29.0730    1.7340   10.0390 N.am     56   C70      -0.0484
   1779 C2         29.0320    2.2630   11.3290 C.2      56   C70       0.7538
   1780 O2         29.1900    1.5020   12.2940 O.2      56   C70      -0.6252
   1781 N3         28.8130    3.5870   11.4950 N.2      56   C70      -0.7584
   1782 C4         28.6250    4.3690   10.4270 C.2      56   C70       0.8185
   1783 N4         28.4560    5.6770   10.6350 N.pl3    56   C70      -0.9530
   1784 C5         28.6130    3.8460    9.1010 C.2      56   C70      -0.5215
   1785 C6         28.8370    2.5340    8.9550 C.2      56   C70       0.0053
   1786 H5'        28.3162   -1.2915    5.9026 H        56   C70       0.0679
   1787 H5''       29.9691   -0.6379    5.9551 H        56   C70       0.0679
   1788 H4'        29.4780   -1.8376    8.0080 H        56   C70       0.1174
   1789 H3'        27.1264    0.0632    8.3130 H        56   C70       0.0615
   1790 H2'        27.4442   -0.1613   10.6833 H        56   C70       0.0972
   1791 H1'        30.1942    0.0364   10.5595 H        56   C70       0.2029
   1792 H5         28.4305    4.4827    8.2480 H        56   C70       0.1928
   1793 H6         28.8312    2.1006    7.9658 H        56   C70       0.1958
   1794 H41        28.4689    6.0446   11.5756 H        56   C70       0.4234
   1795 H42        28.3152    6.2989    9.8517 H        56   C70       0.4234
   1796 HO2'       28.1312   -2.0565   11.3994 H        56   C70       0.4186
   1797 P          25.4310   -1.9660    8.1150 P.3      57   C71       1.1662
   1798 OP1        25.0790   -3.3120    7.5800 O.co2    57   C71      -0.7760
   1799 OP2        25.1200   -0.7480    7.3150 O.co2    57   C71      -0.7760
   1800 O5'        24.7410   -1.8040    9.5340 O.3      57   C71      -0.4989
   1801 C5'        24.7840   -2.8740   10.4750 C.3      57   C71       0.0558
   1802 C4'        24.7460   -2.3440   11.8850 C.3      57   C71       0.1065
   1803 O4'        25.8330   -1.4020   12.0970 O.3      57   C71      -0.3548
   1804 C3'        23.5200   -1.5380   12.2710 C.3      57   C71       0.2022
   1805 O3'        22.4020   -2.3680   12.5620 O.3      57   C71      -0.5246
   1806 C2'        24.0330   -0.8440   13.5190 C.3      57   C71       0.0670
   1807 O2'        24.1340   -1.7410   14.6090 O.3      57   C71      -0.6139
   1808 C1'        25.4280   -0.4290   13.0520 C.3      57   C71       0.0066
   1809 N1         25.4160    0.8940   12.4040 N.am     57   C71      -0.0484
   1810 C2         25.4510    2.0170   13.2200 C.2      57   C71       0.7538
   1811 O2         25.4860    1.8580   14.4430 O.2      57   C71      -0.6252
   1812 N3         25.4420    3.2450   12.6560 N.2      57   C71      -0.7584
   1813 C4         25.4000    3.3720   11.3290 C.2      57   C71       0.8185
   1814 N4         25.4030    4.6110   10.8200 N.pl3    57   C71      -0.9530
   1815 C5         25.3550    2.2390   10.4630 C.2      57   C71      -0.5215
   1816 C6         25.3650    1.0260   11.0420 C.2      57   C71       0.0053
   1817 H5'        23.9255   -3.5263   10.3146 H        57   C71       0.0679
   1818 H5''       25.7014   -3.4444   10.3296 H        57   C71       0.0679
   1819 H4'        24.8569   -3.1762   12.5801 H        57   C71       0.1174
   1820 H3'        23.2732   -0.8117   11.4966 H        57   C71       0.0615
   1821 H2'        23.4231    0.0233   13.7719 H        57   C71       0.0972
   1822 H1'        26.1179   -0.4248   13.8958 H        57   C71       0.2029
   1823 H5         25.3147    2.3511    9.3896 H        57   C71       0.1928
   1824 H6         25.3323    0.1415   10.4232 H        57   C71       0.1958
   1825 H41        25.4356    5.4102   11.4367 H        57   C71       0.4234
   1826 H42        25.3727    4.7460    9.8195 H        57   C71       0.4234
   1827 HO2'       24.5955   -1.3131   15.3339 H        57   C71       0.4186
   1828 P          20.9190   -1.7680   12.4590 P.3      58   G72       1.1662
   1829 OP1        19.9740   -2.8300   12.8900 O.co2    58   G72      -0.7760
   1830 OP2        20.7560   -1.1340   11.1300 O.co2    58   G72      -0.7760
   1831 O5'        20.9140   -0.6110   13.5530 O.3      58   G72      -0.4989
   1832 C5'        20.9260   -0.9340   14.9330 C.3      58   G72       0.0558
   1833 C4'        20.8910    0.3250   15.7510 C.3      58   G72       0.1065
   1834 O4'        22.0610    1.1170   15.4310 O.3      58   G72      -0.3548
   1835 C3'        19.7350    1.2600   15.4460 C.3      58   G72       0.2022
   1836 O3'        18.5810    0.8360   16.1610 O.3      58   G72      -0.5246
   1837 C2'        20.2770    2.5770   15.9850 C.3      58   G72       0.0670
   1838 O2'        20.1870    2.6440   17.3930 O.3      58   G72      -0.6139
   1839 C1'        21.7460    2.4940   15.5570 C.3      58   G72       0.0191
   1840 N9         21.9860    3.1470   14.2750 N.ar     58   G72       0.0492
   1841 C8         22.0630    2.5680   13.0310 C.ar     58   G72       0.1374
   1842 N7         22.2270    3.4370   12.0700 N.ar     58   G72      -0.5709
   1843 C5         22.2770    4.6640   12.7250 C.ar     58   G72       0.1744
   1844 C6         22.4260    5.9880   12.2150 C.2      58   G72       0.4770
   1845 O6         22.5420    6.3630   11.0440 O.2      58   G72      -0.5597
   1846 N1         22.4230    6.9270   13.2390 N.am     58   G72      -0.4787
   1847 C2         22.2900    6.6440   14.5730 C.2      58   G72       0.7657
   1848 N2         22.3080    7.6930   15.4090 N.pl3    58   G72      -0.9672
   1849 N3         22.1490    5.4300   15.0580 N.2      58   G72      -0.6323
   1850 C4         22.1470    4.4950   14.0850 C.ar     58   G72       0.1222
   1851 H5'        20.0536   -1.5432   15.1694 H        58   G72       0.0679
   1852 H5''       21.8323   -1.4928   15.1665 H        58   G72       0.0679
   1853 H4'        20.8935    0.0756   16.8121 H        58   G72       0.1174
   1854 H3'        19.5412    1.3176   14.3749 H        58   G72       0.0615
   1855 H2'        19.7792    3.4271   15.5185 H        58   G72       0.0972
   1856 H1'        22.3769    2.9459   16.3224 H        58   G72       0.2006
   1857 H8         21.9948    1.5030   12.8650 H        58   G72       0.1640
   1858 H1         22.5274    7.8973   12.9788 H        58   G72       0.3424
   1859 H21        22.4157    8.6283   15.0434 H        58   G72       0.4364
   1860 H22        22.2139    7.5474   16.4040 H        58   G72       0.4364
   1861 HO2'       19.2643    2.6957   17.6530 H        58   G72       0.4186
   1862 P          17.1160    1.2310   15.6300 P.3      59   A73       1.1662
   1863 OP1        16.1230    0.3660   16.3210 O.co2    59   A73      -0.7760
   1864 OP2        17.1340    1.2860   14.1520 O.co2    59   A73      -0.7760
   1865 O5'        16.9210    2.7210   16.1550 O.3      59   A73      -0.4989
   1866 C5'        15.6850    3.3970   15.9700 C.3      59   A73       0.0558
   1867 C4'        15.8090    4.8240   16.4330 C.3      59   A73       0.1065
   1868 O4'        16.7650    5.5140   15.5860 O.3      59   A73      -0.3548
   1869 C3'        14.5410    5.6520   16.3270 C.3      59   A73       0.2022
   1870 O3'        13.7550    5.4910   17.4960 O.3      59   A73      -0.5246
   1871 C2'        15.1020    7.0620   16.2360 C.3      59   A73       0.0670
   1872 O2'        15.5380    7.5380   17.4950 O.3      59   A73      -0.6139
   1873 C1'        16.3150    6.8350   15.3370 C.3      59   A73       0.0394
   1874 N9         16.0510    6.9690   13.9040 N.ar     59   A73      -0.0251
   1875 C8         15.9030    5.9770   12.9650 C.ar     59   A73       0.2006
   1876 N7         15.7300    6.4260   11.7450 N.ar     59   A73      -0.6073
   1877 C5         15.7510    7.8090   11.8930 C.ar     59   A73       0.0515
   1878 C6         15.6360    8.8700   10.9690 C.ar     59   A73       0.7009
   1879 N6         15.4800    8.7050    9.6520 N.pl3    59   A73      -0.9019
   1880 N1         15.6960   10.1310   11.4530 N.ar     59   A73      -0.7615
   1881 C2         15.8650   10.3030   12.7670 C.ar     59   A73       0.5875
   1882 N3         15.9940    9.3940   13.7280 N.ar     59   A73      -0.6997
   1883 C4         15.9300    8.1530   13.2190 C.ar     59   A73       0.3053
   1884 H5'        15.4191    3.3816   14.9130 H        59   A73       0.0679
   1885 H5''       14.9078    2.8953   16.5465 H        59   A73       0.0679
   1886 H4'        16.1640    4.8389   17.4635 H        59   A73       0.1174
   1887 H3'        13.9748    5.3940   15.4321 H        59   A73       0.0615
   1888 H2'        14.3882    7.7459   15.7769 H        59   A73       0.0972
   1889 H1'        17.1008    7.5357   15.6192 H        59   A73       0.2007
   1890 H8         15.9269    4.9252   13.2089 H        59   A73       0.1553
   1891 H2         15.9022   11.3308   13.0965 H        59   A73       0.0473
   1892 H61        15.4348    7.7747    9.2615 H        59   A73       0.4115
   1893 H62        15.4073    9.5106    9.0472 H        59   A73       0.4115
   1894 HO2'       15.2800    8.4571   17.5962 H        59   A73       0.4186
   1895 P          12.1570    5.6240   17.4000 P.3      60   C74       1.1662
   1896 OP1        11.6130    5.4060   18.7620 O.co2    60   C74      -0.7760
   1897 OP2        11.6880    4.7760   16.2760 O.co2    60   C74      -0.7760
   1898 O5'        11.9240    7.1450   16.9940 O.3      60   C74      -0.4989
   1899 C5'        12.3510    8.1990   17.8460 C.3      60   C74       0.0558
   1900 C4'        12.2610    9.5190   17.1240 C.3      60   C74       0.1065
   1901 O4'        13.2030    9.5380   16.0200 O.3      60   C74      -0.3548
   1902 C3'        10.9310    9.8130   16.4530 C.3      60   C74       0.2022
   1903 O3'        10.0010   10.3240   17.3960 O.3      60   C74      -0.5246
   1904 C2'        11.3350   10.8750   15.4430 C.3      60   C74       0.0670
   1905 O2'        11.5410   12.1400   16.0380 O.3      60   C74      -0.6139
   1906 C1'        12.6740   10.3190   14.9600 C.3      60   C74       0.0066
   1907 N1         12.5500    9.4650   13.7700 N.am     60   C74      -0.0484
   1908 C2         12.5190   10.0720   12.5200 C.2      60   C74       0.7538
   1909 O2         12.5500   11.3060   12.4580 O.2      60   C74      -0.6252
   1910 N3         12.4550    9.3060   11.4100 N.2      60   C74      -0.7584
   1911 C4         12.4120    7.9790   11.5210 C.2      60   C74       0.8185
   1912 N4         12.3770    7.2630   10.3940 N.pl3    60   C74      -0.9530
   1913 C5         12.4120    7.3290   12.7890 C.2      60   C74      -0.5215
   1914 C6         12.4820    8.1040   13.8790 C.2      60   C74       0.0053
   1915 H5'        11.7141    8.2279   18.7301 H        60   C74       0.0679
   1916 H5''       13.3829    8.0228   18.1496 H        60   C74       0.0679
   1917 H4'        12.5013   10.3257   17.8166 H        60   C74       0.1174
   1918 H3'        10.5382    8.9266   15.9548 H        60   C74       0.0615
   1919 H2'        10.6158   10.9360   14.6262 H        60   C74       0.0972
   1920 H1'        13.3525   11.1444   14.7445 H        60   C74       0.2029
   1921 H5         12.3577    6.2533   12.8680 H        60   C74       0.1928
   1922 H6         12.4848    7.6474   14.8577 H        60   C74       0.1958
   1923 H41        12.3804    7.7302    9.4986 H        60   C74       0.4234
   1924 H42        12.3471    6.2544   10.4372 H        60   C74       0.4234
   1925 HO2'       11.9235   12.7388   15.3924 H        60   C74       0.4186
   1926 P           8.4300   10.0920   17.1670 P.3      61   U75       1.1662
   1927 OP1         7.7300   10.7040   18.3260 O.co2    61   U75      -0.7760
   1928 OP2         8.2110    8.6580   16.8510 O.co2    61   U75      -0.7760
   1929 O5'         8.0980   10.9490   15.8670 O.3      61   U75      -0.4989
   1930 C5'         8.2070   12.3680   15.8820 C.3      61   U75       0.0558
   1931 C4'         7.9840   12.9220   14.4970 C.3      61   U75       0.1065
   1932 O4'         9.0710   12.5040   13.6240 O.3      61   U75      -0.3548
   1933 C3'         6.7480   12.4130   13.7770 C.3      61   U75       0.2022
   1934 O3'         5.5780   13.0990   14.2030 O.3      61   U75      -0.5246
   1935 C2'         7.1020   12.7280   12.3330 C.3      61   U75       0.0670
   1936 O2'         6.9950   14.1050   12.0310 O.3      61   U75      -0.6139
   1937 C1'         8.5730   12.3120   12.3060 C.3      61   U75       0.0674
   1938 N1          8.7470   10.8990   11.9360 N.am     61   U75       0.0418
   1939 C2          8.7830   10.6010   10.5890 C.2      61   U75       0.4687
   1940 O2          8.6600   11.4500    9.7230 O.2      61   U75      -0.5477
   1941 N3          8.9650    9.2720   10.2930 N.am     61   U75      -0.3549
   1942 C4          9.0980    8.2320   11.1890 C.2      61   U75       0.5952
   1943 O4          9.2810    7.0880   10.7690 O.2      61   U75      -0.5761
   1944 C5          9.0350    8.6190   12.5640 C.2      61   U75      -0.3635
   1945 C6          8.8690    9.9080   12.8830 C.2      61   U75      -0.1126
   1946 H5'         9.2024   12.6489   16.2261 H        61   U75       0.0679
   1947 H5''        7.4604   12.7805   16.5606 H        61   U75       0.0679
   1948 H4'         7.9542   14.0106   14.5427 H        61   U75       0.1174
   1949 H3'         6.6361   11.3381   13.9192 H        61   U75       0.0615
   1950 H2'         6.5104   12.1267   11.6427 H        61   U75       0.0972
   1951 H1'         9.1220   12.9453   11.6091 H        61   U75       0.1824
   1952 H3          9.0058    9.0303    9.3132 H        61   U75       0.3154
   1953 H5          9.1210    7.8744   13.3416 H        61   U75       0.1811
   1954 H6          8.8291   10.1819   13.9269 H        61   U75       0.2188
   1955 HO2'        6.9884   14.2246   11.0785 H        61   U75       0.4186
   1956 P           4.1590   12.3480   14.1580 P.3      62   A76       1.1662
   1957 OP1         3.1720   13.1880   14.8860 O.co2    62   A76      -0.7760
   1958 OP2         4.3720   10.9380   14.5760 O.co2    62   A76      -0.7760
   1959 O5'         3.7730   12.3530   12.6140 O.3      62   A76      -0.4989
   1960 C5'         3.5470   13.5760   11.9240 C.3      62   A76       0.0558
   1961 C4'         3.2420   13.3050   10.4710 C.3      62   A76       0.1065
   1962 O4'         4.4470   12.8480    9.7990 O.3      62   A76      -0.3548
   1963 C3'         2.2450   12.1900   10.2050 C.3      62   A76       0.2022
   1964 O3'         0.9090   12.6600   10.3350 O.3      62   A76      -0.5246
   1965 C2'         2.5740   11.8340    8.7640 C.3      62   A76       0.0670
   1966 O2'         2.0600   12.7840    7.8530 O.3      62   A76      -0.6139
   1967 C1'         4.1020   11.9110    8.7890 C.3      62   A76       0.0394
   1968 N9          4.7300   10.6330    9.1190 N.ar     62   A76      -0.0251
   1969 C8          5.0750   10.1580   10.3610 C.ar     62   A76       0.2006
   1970 N7          5.6280    8.9700   10.3380 N.ar     62   A76      -0.6073
   1971 C5          5.6490    8.6380    8.9900 C.ar     62   A76       0.0515
   1972 C6          6.1140    7.5030    8.3020 C.ar     62   A76       0.7009
   1973 N6          6.6750    6.4480    8.9030 N.pl3    62   A76      -0.9019
   1974 N1          5.9830    7.4880    6.9570 N.ar     62   A76      -0.7615
   1975 C2          5.4260    8.5450    6.3560 C.ar     62   A76       0.5875
   1976 N3          4.9540    9.6690    6.8930 N.ar     62   A76      -0.6997
   1977 C4          5.0970    9.6520    8.2290 C.ar     62   A76       0.3053
   1978 H5'         4.4384   14.1993   11.9946 H        62   A76       0.0679
   1979 H5''        2.7047   14.0972   12.3789 H        62   A76       0.0679
   1980 H4'         2.8915   14.2227    9.9987 H        62   A76       0.1174
   1981 H3'         2.4248   11.3419   10.8657 H        62   A76       0.0615
   1982 H2'         2.2337   10.8280    8.5187 H        62   A76       0.0972
   1983 H1'         4.4675   12.2609    7.8236 H        62   A76       0.2007
   1984 H8          4.9061   10.7124   11.2723 H        62   A76       0.1553
   1985 H2          5.3476    8.4776    5.2810 H        62   A76       0.0473
   1986 HO2'        2.6655   12.8798    7.1142 H        62   A76       0.4186
   1987 H61         7.2204    5.8463    8.3025 H        62   A76       0.4115
   1988 H62         6.5611    6.2656    9.8898 H        62   A76       0.4115
   1989 P          -0.2040   11.7110   11.0000 P.3      63   U77       1.1662
   1990 OP1        -1.3940   12.5430   11.3180 O.co2    63   U77      -0.7760
   1991 OP2         0.4560   10.9350   12.0790 O.co2    63   U77      -0.7760
   1992 O5'        -0.5960   10.6990    9.8350 O.3      63   U77      -0.4989
   1993 C5'        -1.1540   11.1750    8.6150 C.3      63   U77       0.0558
   1994 C4'        -1.1240   10.0880    7.5680 C.3      63   U77       0.1065
   1995 O4'         0.2560    9.7780    7.2310 O.3      63   U77      -0.3548
   1996 C3'        -1.6840    8.7450    8.0010 C.3      63   U77       0.2022
   1997 O3'        -3.1050    8.7190    7.9160 O.3      63   U77      -0.5246
   1998 C2'        -1.0470    7.8080    6.9870 C.3      63   U77       0.0670
   1999 O2'        -1.6980    7.8360    5.7330 O.3      63   U77      -0.6139
   2000 C1'         0.3570    8.4080    6.8710 C.3      63   U77       0.0674
   2001 N1          1.3150    7.7550    7.7740 N.am     63   U77       0.0418
   2002 C2          1.9370    6.6110    7.3180 C.2      63   U77       0.4687
   2003 O2          1.7360    6.1500    6.2090 O.2      63   U77      -0.5477
   2004 N3          2.8030    6.0260    8.2080 N.am     63   U77      -0.3549
   2005 C4          3.1030    6.4590    9.4810 C.2      63   U77       0.5952
   2006 O4          3.8810    5.8010   10.1760 O.2      63   U77      -0.5761
   2007 C5          2.4260    7.6580    9.8790 C.2      63   U77      -0.3635
   2008 C6          1.5780    8.2510    9.0310 C.2      63   U77      -0.1126
   2009 H5'        -0.5750   12.0291    8.2636 H        63   U77       0.0679
   2010 H5''       -2.1854   11.4836    8.7858 H        63   U77       0.0679
   2011 H4'        -1.6480   10.4292    6.6752 H        63   U77       0.1174
   2012 H3'        -1.3551    8.4992    9.0107 H        63   U77       0.0615
   2013 H2'        -1.0015    6.7908    7.3761 H        63   U77       0.0972
   2014 H1'         0.7075    8.3243    5.8423 H        63   U77       0.1824
   2015 H3          3.2710    5.1872    7.8957 H        63   U77       0.3154
   2016 H5          2.5994    8.0803   10.8578 H        63   U77       0.1811
   2017 H6          1.0793    9.1559    9.3454 H        63   U77       0.2188
   2018 HO2'       -2.0712    6.9714    5.5463 H        63   U77       0.4186
   2019 P          -3.9270    7.6420    8.7810 P.3      64   G78       1.1662
   2020 OP1        -5.3740    7.9750    8.6980 O.co2    64   G78      -0.7760
   2021 OP2        -3.2690    7.5540   10.1090 O.co2    64   G78      -0.7760
   2022 O5'        -3.6810    6.2680    8.0150 O.3      64   G78      -0.4989
   2023 C5'        -4.1480    6.0880    6.6820 C.3      64   G78       0.0558
   2024 C4'        -3.6140    4.7980    6.1090 C.3      64   G78       0.1065
   2025 O4'        -2.1650    4.8540    6.0340 O.3      64   G78      -0.3548
   2026 C3'        -3.8810    3.5520    6.9350 C.3      64   G78       0.2022
   2027 O3'        -5.1940    3.0620    6.6910 O.3      64   G78      -0.5246
   2028 C2'        -2.8180    2.6050    6.3960 C.3      64   G78       0.0670
   2029 O2'        -3.1610    2.0630    5.1370 O.3      64   G78      -0.6139
   2030 C1'        -1.6310    3.5560    6.2380 C.3      64   G78       0.0191
   2031 N9         -0.7740    3.5920    7.4180 N.ar     64   G78       0.0492
   2032 C8         -0.7470    4.5540    8.3990 C.ar     64   G78       0.1374
   2033 N7          0.1320    4.3100    9.3310 N.ar     64   G78      -0.5709
   2034 C5          0.7230    3.1160    8.9430 C.ar     64   G78       0.1744
   2035 C6          1.7500    2.3560    9.5580 C.2      64   G78       0.4770
   2036 O6          2.3710    2.5980   10.6010 O.2      64   G78      -0.5597
   2037 N1          2.0400    1.2060    8.8290 N.am     64   G78      -0.4787
   2038 C2          1.4260    0.8370    7.6580 C.2      64   G78       0.7657
   2039 N2          1.8440   -0.3110    7.1070 N.pl3    64   G78      -0.9672
   2040 N3          0.4740    1.5410    7.0710 N.2      64   G78      -0.6323
   2041 C4          0.1730    2.6590    7.7640 C.ar     64   G78       0.1222
   2042 H5'        -3.8094    6.9218    6.0670 H        64   G78       0.0679
   2043 H5''       -5.2376    6.0590    6.6822 H        64   G78       0.0679
   2044 H4'        -4.0190    4.6567    5.1070 H        64   G78       0.1174
   2045 H3'        -3.7281    3.7471    7.9964 H        64   G78       0.0615
   2046 H2'        -2.5952    1.8163    7.1146 H        64   G78       0.0972
   2047 H1'        -1.0423    3.2631    5.3686 H        64   G78       0.2006
   2048 H8         -1.3881    5.4231    8.3982 H        64   G78       0.1640
   2049 H1          2.7587    0.5951    9.1901 H        64   G78       0.3424
   2050 H21         2.5716   -0.8502    7.5541 H        64   G78       0.4364
   2051 H22         1.4314   -0.6369    6.2446 H        64   G78       0.4364
   2052 HO2'       -2.9960    1.1173    5.1400 H        64   G78       0.4186
   2053 P          -5.9060    2.1200    7.7800 P.3      65   U79       1.1662
   2054 OP1        -7.3120    1.9100    7.3520 O.co2    65   U79      -0.7760
   2055 OP2        -5.6280    2.6890    9.1230 O.co2    65   U79      -0.7760
   2056 O5'        -5.1310    0.7350    7.6530 O.3      65   U79      -0.4989
   2057 C5'        -5.1870   -0.0240    6.4490 C.3      65   U79       0.0558
   2058 C4'        -4.4080   -1.3090    6.6030 C.3      65   U79       0.1065
   2059 O4'        -2.9910   -1.0040    6.6810 O.3      65   U79      -0.3548
   2060 C3'        -4.6840   -2.0910    7.8770 C.3      65   U79       0.2022
   2061 O3'        -5.8250   -2.9240    7.7210 O.3      65   U79      -0.5246
   2062 C2'        -3.4160   -2.9210    8.0180 C.3      65   U79       0.0670
   2063 O2'        -3.4160   -4.0630    7.1870 O.3      65   U79      -0.6139
   2064 C1'        -2.3520   -1.9290    7.5460 C.3      65   U79       0.0674
   2065 N1         -1.7370   -1.1790    8.6500 N.am     65   U79       0.0418
   2066 C2         -0.6730   -1.7660    9.3090 C.2      65   U79       0.4687
   2067 O2         -0.2410   -2.8680    9.0150 O.2      65   U79      -0.5477
   2068 N3         -0.1370   -1.0160   10.3260 N.am     65   U79      -0.3549
   2069 C4         -0.5500    0.2320   10.7430 C.2      65   U79       0.5952
   2070 O4          0.0490    0.7920   11.6620 O.2      65   U79      -0.5761
   2071 C5         -1.6590    0.7680   10.0160 C.2      65   U79      -0.3635
   2072 C6         -2.2000    0.0620    9.0180 C.2      65   U79      -0.1126
   2073 H5'        -6.2265   -0.2590    6.2202 H        65   U79       0.0679
   2074 H5''       -4.7612    0.5607    5.6336 H        65   U79       0.0679
   2075 H4'        -4.5925   -1.9485    5.7398 H        65   U79       0.1174
   2076 H3'        -4.8059   -1.4195    8.7269 H        65   U79       0.0615
   2077 H2'        -3.2501   -3.2000    9.0586 H        65   U79       0.0972
   2078 H1'        -1.5775   -2.4635    6.9959 H        65   U79       0.1824
   2079 H3          0.6436   -1.4216   10.8222 H        65   U79       0.3154
   2080 H5         -2.0575    1.7386   10.2721 H        65   U79       0.1811
   2081 H6         -3.0352    0.4839    8.4787 H        65   U79       0.2188
   2082 HO2'       -3.3395   -4.8527    7.7275 H        65   U79       0.4186
   2083 P          -6.6400   -3.4010    9.0190 P.3      66   C80       1.1662
   2084 OP1        -7.8760   -4.0870    8.5640 O.co2    66   C80      -0.7760
   2085 OP2        -6.7400   -2.2320    9.9300 O.co2    66   C80      -0.7760
   2086 O5'        -5.6830   -4.4770    9.7000 O.3      66   C80      -0.4989
   2087 C5'        -5.3450   -5.6860    9.0270 C.3      66   C80       0.0558
   2088 C4'        -4.4450   -6.5340    9.8950 C.3      66   C80       0.1065
   2089 O4'        -3.1220   -5.9370    9.9410 O.3      66   C80      -0.3548
   2090 C3'        -4.8640   -6.6460   11.3520 C.3      66   C80       0.2022
   2091 O3'        -5.8010   -7.7060   11.5200 O.3      66   C80      -0.5246
   2092 C2'        -3.5420   -6.9660   12.0410 C.3      66   C80       0.0670
   2093 O2'        -3.1910   -8.3320   11.9520 O.3      66   C80      -0.6139
   2094 C1'        -2.5580   -6.1220   11.2290 C.3      66   C80       0.0066
   2095 N1         -2.3060   -4.7980   11.8200 N.am     66   C80      -0.0484
   2096 C2         -1.2490   -4.6540   12.7240 C.2      66   C80       0.7538
   2097 O2         -0.5500   -5.6420   12.9950 O.2      66   C80      -0.6252
   2098 N3         -1.0130   -3.4420   13.2770 N.2      66   C80      -0.7584
   2099 C4         -1.7820   -2.3990   12.9520 C.2      66   C80       0.8185
   2100 N4         -1.5070   -1.2190   13.5140 N.pl3    66   C80      -0.9530
   2101 C5         -2.8650   -2.5190   12.0340 C.2      66   C80      -0.5215
   2102 C6         -3.0900   -3.7250   11.4960 C.2      66   C80       0.0053
   2103 H5'        -6.2566   -6.2406    8.8043 H        66   C80       0.0679
   2104 H5''       -4.8300   -5.4491    8.0960 H        66   C80       0.0679
   2105 H4'        -4.3719   -7.5333    9.4658 H        66   C80       0.1174
   2106 H3'        -5.2736   -5.7028   11.7134 H        66   C80       0.0615
   2107 H2'        -3.5613   -6.6405   13.0811 H        66   C80       0.0972
   2108 H1'        -1.6146   -6.6598   11.1351 H        66   C80       0.2029
   2109 H5         -3.4817   -1.6692   11.7813 H        66   C80       0.1928
   2110 H6         -3.9026   -3.8520   10.7960 H        66   C80       0.1958
   2111 H41        -0.7381   -1.1360   14.1636 H        66   C80       0.4234
   2112 H42        -2.0679   -0.4097   13.2894 H        66   C80       0.4234
   2113 HO2'       -2.3047   -8.4577   12.2988 H        66   C80       0.4186
   2114 P          -6.9510   -7.5830   12.6370 P.3      67   C81       1.1662
   2115 OP1        -7.8500   -8.7580   12.5060 O.co2    67   C81      -0.7760
   2116 OP2        -7.5170   -6.2130   12.5430 O.co2    67   C81      -0.7760
   2117 O5'        -6.1630   -7.7080   14.0170 O.3      67   C81      -0.4989
   2118 C5'        -5.5510   -8.9370   14.3990 C.3      67   C81       0.0558
   2119 C4'        -4.6890   -8.7380   15.6240 C.3      67   C81       0.1065
   2120 O4'        -3.6440   -7.7770   15.3390 O.3      67   C81      -0.3548
   2121 C3'        -5.3740   -8.1220   16.8300 C.3      67   C81       0.2022
   2122 O3'        -6.2570   -9.0160   17.5160 O.3      67   C81      -0.6541
   2123 C2'        -4.1840   -7.6390   17.6540 C.3      67   C81       0.0670
   2124 O2'        -3.5820   -8.6640   18.4170 O.3      67   C81      -0.6139
   2125 C1'        -3.2110   -7.1940   16.5570 C.3      67   C81       0.0066
   2126 N1         -3.1580   -5.7350   16.3840 N.am     67   C81      -0.0484
   2127 C2         -2.0560   -5.0390   16.8900 C.2      67   C81       0.7538
   2128 O2         -1.1530   -5.6760   17.4530 O.2      67   C81      -0.6252
   2129 N3         -2.0020   -3.6950   16.7490 N.2      67   C81      -0.7584
   2130 C4         -2.9900   -3.0490   16.1270 C.2      67   C81       0.8185
   2131 N4         -2.8930   -1.7230   16.0080 N.pl3    67   C81      -0.9530
   2132 C5         -4.1220   -3.7340   15.5960 C.2      67   C81      -0.5215
   2133 C6         -4.1650   -5.0650   15.7460 C.2      67   C81       0.0053
   2134 H5'        -6.3263   -9.6704   14.6209 H        67   C81       0.0679
   2135 H5''       -4.9331   -9.3024   13.5788 H        67   C81       0.0679
   2136 H4'        -4.2391   -9.6890   15.9091 H        67   C81       0.1174
   2137 H3'        -5.9446   -7.2537   16.5005 H        67   C81       0.0615
   2138 H2'        -4.4660   -6.7980   18.2874 H        67   C81       0.0972
   2139 H1'        -2.2128   -7.5620   16.7941 H        67   C81       0.2029
   2140 H5         -4.9145   -3.2007   15.0922 H        67   C81       0.1928
   2141 H6         -5.0079   -5.6170   15.3570 H        67   C81       0.1958
   2142 H41        -2.0898   -1.2396   16.3840 H        67   C81       0.4234
   2143 H42        -3.6228   -1.2031   15.5419 H        67   C81       0.4234
   2144 HO2'       -4.1868   -8.9475   19.1065 H        67   C81       0.4186
   2145 HO3'       -6.6538   -8.5634   18.2639 H        67   C81       0.4376
@<TRIPOS>BOND
     1    1    2 1
     2    2    3 1
     3    3    5 1
     4    3    4 1
     5    4    9 1
     6    5    7 1
     7    5    6 1
     8    7    9 1
     9    7    8 1
    10    9   10 1
    11   10   20 ar
    12   10   11 ar
    13   11   12 ar
    14   12   13 ar
    15   13   20 ar
    16   13   14 1
    17   14   15 2
    18   14   16 am
    19   16   17 1
    20   17   18 2
    21   17   19 2
    22   19   20 1
    23   33   35 1
    24   33   34 1
    25   33   36 1
    26   36   37 1
    27   37   38 1
    28   38   40 1
    29   38   39 1
    30   39   44 1
    31   40   41 1
    32   40   42 1
    33   42   43 1
    34   42   44 1
    35   44   45 1
    36   45   46 ar
    37   45   55 ar
    38   46   47 ar
    39   47   48 ar
    40   48   55 ar
    41   48   49 1
    42   49   50 2
    43   49   51 am
    44   51   52 1
    45   52   53 2
    46   52   54 2
    47   54   55 1
    48   33    6 1
    49   67   70 1
    50   67   69 1
    51   67   68 1
    52   70   71 1
    53   71   72 1
    54   72   74 1
    55   72   73 1
    56   73   78 1
    57   74   75 1
    58   74   76 1
    59   76   77 1
    60   76   78 1
    61   78   79 1
    62   79   88 ar
    63   79   80 ar
    64   80   81 ar
    65   81   82 ar
    66   82   83 ar
    67   82   88 ar
    68   83   84 1
    69   83   85 ar
    70   85   86 ar
    71   86   87 ar
    72   87   88 ar
    73   41   67 1
    74  100  101 1
    75  100  102 1
    76  100  103 1
    77  103  104 1
    78  104  105 1
    79  105  107 1
    80  105  106 1
    81  106  111 1
    82  107  109 1
    83  107  108 1
    84  109  110 1
    85  109  111 1
    86  111  112 1
    87  112  113 am
    88  112  119 1
    89  113  115 1
    90  113  114 2
    91  115  116 2
    92  116  118 2
    93  116  117 2
    94  118  119 2
    95   75  100 1
    96  131  134 1
    97  131  133 1
    98  131  132 1
    99  134  135 1
   100  135  136 1
   101  136  138 1
   102  136  137 1
   103  137  142 1
   104  138  139 1
   105  138  140 1
   106  140  141 1
   107  140  142 1
   108  142  143 1
   109  143  152 ar
   110  143  144 ar
   111  144  145 ar
   112  145  146 ar
   113  146  147 ar
   114  146  152 ar
   115  147  148 1
   116  147  149 ar
   117  149  150 ar
   118  150  151 ar
   119  151  152 ar
   120  108  131 1
   121  164  165 1
   122  164  166 1
   123  164  167 1
   124  167  168 1
   125  168  169 1
   126  169  171 1
   127  169  170 1
   128  170  175 1
   129  171  173 1
   130  171  172 1
   131  173  174 1
   132  173  175 1
   133  175  176 1
   134  176  177 am
   135  176  183 1
   136  177  178 2
   137  177  179 am
   138  179  180 am
   139  180  182 1
   140  180  181 2
   141  182  183 2
   142  139  164 1
   143  194  197 1
   144  194  196 1
   145  194  195 1
   146  197  198 1
   147  198  199 1
   148  199  201 1
   149  199  200 1
   150  200  205 1
   151  201  202 1
   152  201  203 1
   153  203  204 1
   154  203  205 1
   155  205  206 1
   156  206  215 ar
   157  206  207 ar
   158  207  208 ar
   159  208  209 ar
   160  209  210 ar
   161  209  215 ar
   162  210  211 1
   163  210  212 ar
   164  212  213 ar
   165  213  214 ar
   166  214  215 ar
   167  172  194 1
   168  227  228 1
   169  227  229 1
   170  227  230 1
   171  230  231 1
   172  231  232 1
   173  232  234 1
   174  232  233 1
   175  233  238 1
   176  234  236 1
   177  234  235 1
   178  236  237 1
   179  236  238 1
   180  238  239 1
   181  239  240 am
   182  239  246 1
   183  240  241 2
   184  240  242 am
   185  242  243 am
   186  243  245 1
   187  243  244 2
   188  245  246 2
   189  202  227 1
   190  257  260 1
   191  257  259 1
   192  257  258 1
   193  260  261 1
   194  261  262 1
   195  262  264 1
   196  262  263 1
   197  263  268 1
   198  264  265 1
   199  264  266 1
   200  266  267 1
   201  266  268 1
   202  268  269 1
   203  269  278 ar
   204  269  270 ar
   205  270  271 ar
   206  271  272 ar
   207  272  273 ar
   208  272  278 ar
   209  273  274 1
   210  273  275 ar
   211  275  276 ar
   212  276  277 ar
   213  277  278 ar
   214  235  257 1
   215  290  293 1
   216  290  292 1
   217  290  291 1
   218  293  294 1
   219  294  295 1
   220  295  297 1
   221  295  296 1
   222  296  301 1
   223  297  298 1
   224  297  299 1
   225  299  300 1
   226  299  301 1
   227  301  302 1
   228  302  311 ar
   229  302  303 ar
   230  303  304 ar
   231  304  305 ar
   232  305  306 ar
   233  305  311 ar
   234  306  307 1
   235  306  308 ar
   236  308  309 ar
   237  309  310 ar
   238  310  311 ar
   239  265  290 1
   240  323  324 1
   241  323  325 1
   242  323  326 1
   243  326  327 1
   244  327  328 1
   245  328  330 1
   246  328  329 1
   247  329  334 1
   248  330  332 1
   249  330  331 1
   250  332  333 1
   251  332  334 1
   252  334  335 1
   253  335  336 am
   254  335  342 1
   255  336  337 2
   256  336  338 am
   257  338  339 am
   258  339  341 1
   259  339  340 2
   260  341  342 2
   261  298  323 1
   262  353  354 1
   263  353  355 1
   264  353  356 1
   265  356  357 1
   266  357  358 1
   267  358  360 1
   268  358  359 1
   269  359  364 1
   270  360  362 1
   271  360  361 1
   272  362  363 1
   273  362  364 1
   274  364  365 1
   275  365  366 am
   276  365  372 1
   277  366  368 1
   278  366  367 2
   279  368  369 2
   280  369  371 2
   281  369  370 2
   282  371  372 2
   283  331  353 1
   284  384  386 1
   285  384  385 1
   286  384  387 1
   287  387  388 1
   288  388  389 1
   289  389  391 1
   290  389  390 1
   291  390  395 1
   292  391  392 1
   293  391  393 1
   294  393  394 1
   295  393  395 1
   296  395  396 1
   297  396  397 ar
   298  396  406 ar
   299  397  398 ar
   300  398  399 ar
   301  399  406 ar
   302  399  400 1
   303  400  401 2
   304  400  402 am
   305  402  403 1
   306  403  404 2
   307  403  405 2
   308  405  406 1
   309  361  384 1
   310  418  419 1
   311  418  420 1
   312  418  421 1
   313  421  422 1
   314  422  423 1
   315  423  425 1
   316  423  424 1
   317  424  429 1
   318  425  427 1
   319  425  426 1
   320  427  428 1
   321  427  429 1
   322  429  430 1
   323  430  431 am
   324  430  437 1
   325  431  433 1
   326  431  432 2
   327  433  434 2
   328  434  436 2
   329  434  435 2
   330  436  437 2
   331  392  418 1
   332  449  451 1
   333  449  450 1
   334  449  452 1
   335  452  453 1
   336  453  454 1
   337  454  456 1
   338  454  455 1
   339  455  460 1
   340  456  457 1
   341  456  458 1
   342  458  459 1
   343  458  460 1
   344  460  461 1
   345  461  462 ar
   346  461  471 ar
   347  462  463 ar
   348  463  464 ar
   349  464  471 ar
   350  464  465 1
   351  465  466 2
   352  465  467 am
   353  467  468 1
   354  468  469 2
   355  468  470 2
   356  470  471 1
   357  426  449 1
   358  483  484 1
   359  483  485 1
   360  483  486 1
   361  486  487 1
   362  487  488 1
   363  488  490 1
   364  488  489 1
   365  489  494 1
   366  490  492 1
   367  490  491 1
   368  492  493 1
   369  492  494 1
   370  494  495 1
   371  495  496 am
   372  495  502 1
   373  496  497 2
   374  496  498 am
   375  498  499 am
   376  499  501 1
   377  499  500 2
   378  501  502 2
   379  457  483 1
   380  513  515 1
   381  513  514 1
   382  513  516 1
   383  516  517 1
   384  517  518 1
   385  518  520 1
   386  518  519 1
   387  519  524 1
   388  520  521 1
   389  520  522 1
   390  522  523 1
   391  522  524 1
   392  524  525 1
   393  525  526 ar
   394  525  535 ar
   395  526  527 ar
   396  527  528 ar
   397  528  535 ar
   398  528  529 1
   399  529  530 2
   400  529  531 am
   401  531  532 1
   402  532  533 2
   403  532  534 2
   404  534  535 1
   405  491  513 1
   406  547  549 1
   407  547  548 1
   408  547  550 1
   409  550  551 1
   410  551  552 1
   411  552  554 1
   412  552  553 1
   413  553  558 1
   414  554  555 1
   415  554  556 1
   416  556  557 1
   417  556  558 1
   418  558  559 1
   419  559  560 ar
   420  559  569 ar
   421  560  561 ar
   422  561  562 ar
   423  562  569 ar
   424  562  563 1
   425  563  564 2
   426  563  565 am
   427  565  566 1
   428  566  567 2
   429  566  568 2
   430  568  569 1
   431  521  547 1
   432  581  584 1
   433  581  583 1
   434  581  582 1
   435  584  585 1
   436  585  586 1
   437  586  588 1
   438  586  587 1
   439  587  592 1
   440  588  589 1
   441  588  590 1
   442  590  591 1
   443  590  592 1
   444  592  593 1
   445  593  602 ar
   446  593  594 ar
   447  594  595 ar
   448  595  596 ar
   449  596  597 ar
   450  596  602 ar
   451  597  598 1
   452  597  599 ar
   453  599  600 ar
   454  600  601 ar
   455  601  602 ar
   456  555  581 1
   457  614  615 1
   458  614  616 1
   459  614  617 1
   460  617  618 1
   461  618  619 1
   462  619  621 1
   463  619  620 1
   464  620  625 1
   465  621  623 1
   466  621  622 1
   467  623  624 1
   468  623  625 1
   469  625  626 1
   470  626  627 am
   471  626  633 1
   472  627  628 2
   473  627  629 am
   474  629  630 am
   475  630  632 1
   476  630  631 2
   477  632  633 2
   478  589  614 1
   479  644  647 1
   480  644  646 1
   481  644  645 1
   482  647  648 1
   483  648  649 1
   484  649  651 1
   485  649  650 1
   486  650  655 1
   487  651  652 1
   488  651  653 1
   489  653  654 1
   490  653  655 1
   491  655  656 1
   492  656  665 ar
   493  656  657 ar
   494  657  658 ar
   495  658  659 ar
   496  659  660 ar
   497  659  665 ar
   498  660  661 1
   499  660  662 ar
   500  662  663 ar
   501  663  664 ar
   502  664  665 ar
   503  622  644 1
   504  677  678 1
   505  677  679 1
   506  677  680 1
   507  680  681 1
   508  681  682 1
   509  682  684 1
   510  682  683 1
   511  683  688 1
   512  684  686 1
   513  684  685 1
   514  686  687 1
   515  686  688 1
   516  688  689 1
   517  689  690 am
   518  689  696 1
   519  690  691 2
   520  690  692 am
   521  692  693 am
   522  693  695 1
   523  693  694 2
   524  695  696 2
   525  652  677 1
   526  707  709 1
   527  707  708 1
   528  707  710 1
   529  710  711 1
   530  711  712 1
   531  712  714 1
   532  712  713 1
   533  713  718 1
   534  714  715 1
   535  714  716 1
   536  716  717 1
   537  716  718 1
   538  718  719 1
   539  719  720 ar
   540  719  729 ar
   541  720  721 ar
   542  721  722 ar
   543  722  729 ar
   544  722  723 1
   545  723  724 2
   546  723  725 am
   547  725  726 1
   548  726  727 2
   549  726  728 2
   550  728  729 1
   551  685  707 1
   552  741  743 1
   553  741  742 1
   554  741  744 1
   555  744  745 1
   556  745  746 1
   557  746  748 1
   558  746  747 1
   559  747  752 1
   560  748  749 1
   561  748  750 1
   562  750  751 1
   563  750  752 1
   564  752  753 1
   565  753  754 ar
   566  753  763 ar
   567  754  755 ar
   568  755  756 ar
   569  756  763 ar
   570  756  757 1
   571  757  758 2
   572  757  759 am
   573  759  760 1
   574  760  761 2
   575  760  762 2
   576  762  763 1
   577  715  741 1
   578  775  776 1
   579  775  777 1
   580  775  778 1
   581  778  779 1
   582  779  780 1
   583  780  782 1
   584  780  781 1
   585  781  786 1
   586  782  784 1
   587  782  783 1
   588  784  785 1
   589  784  786 1
   590  786  787 1
   591  787  788 am
   592  787  794 1
   593  788  790 1
   594  788  789 2
   595  790  791 2
   596  791  793 2
   597  791  792 2
   598  793  794 2
   599  749  775 1
   600  806  809 1
   601  806  808 1
   602  806  807 1
   603  809  810 1
   604  810  811 1
   605  811  813 1
   606  811  812 1
   607  812  817 1
   608  813  814 1
   609  813  815 1
   610  815  816 1
   611  815  817 1
   612  817  818 1
   613  818  827 ar
   614  818  819 ar
   615  819  820 ar
   616  820  821 ar
   617  821  822 ar
   618  821  827 ar
   619  822  823 1
   620  822  824 ar
   621  824  825 ar
   622  825  826 ar
   623  826  827 ar
   624  783  806 1
   625  839  840 1
   626  839  841 1
   627  839  842 1
   628  842  843 1
   629  843  844 1
   630  844  846 1
   631  844  845 1
   632  845  850 1
   633  846  848 1
   634  846  847 1
   635  848  849 1
   636  848  850 1
   637  850  851 1
   638  851  852 am
   639  851  858 1
   640  852  854 1
   641  852  853 2
   642  854  855 2
   643  855  857 2
   644  855  856 2
   645  857  858 2
   646  814  839 1
   647  870  872 1
   648  870  871 1
   649  870  873 1
   650  873  874 1
   651  874  875 1
   652  875  877 1
   653  875  876 1
   654  876  881 1
   655  877  878 1
   656  877  879 1
   657  879  880 1
   658  879  881 1
   659  881  882 1
   660  882  883 ar
   661  882  892 ar
   662  883  884 ar
   663  884  885 ar
   664  885  892 ar
   665  885  886 1
   666  886  887 2
   667  886  888 am
   668  888  889 1
   669  889  890 2
   670  889  891 2
   671  891  892 1
   672  847  870 1
   673  904  905 1
   674  904  906 1
   675  904  907 1
   676  907  908 1
   677  908  909 1
   678  909  911 1
   679  909  910 1
   680  910  915 1
   681  911  913 1
   682  911  912 1
   683  913  914 1
   684  913  915 1
   685  915  916 1
   686  916  917 am
   687  916  923 1
   688  917  919 1
   689  917  918 2
   690  919  920 2
   691  920  922 2
   692  920  921 2
   693  922  923 2
   694  878  904 1
   695  935  938 1
   696  935  937 1
   697  935  936 1
   698  938  939 1
   699  939  940 1
   700  940  942 1
   701  940  941 1
   702  941  946 1
   703  942  943 1
   704  942  944 1
   705  944  945 1
   706  944  946 1
   707  946  947 1
   708  947  956 ar
   709  947  948 ar
   710  948  949 ar
   711  949  950 ar
   712  950  951 ar
   713  950  956 ar
   714  951  952 1
   715  951  953 ar
   716  953  954 ar
   717  954  955 ar
   718  955  956 ar
   719  912  935 1
   720  968  971 1
   721  968  970 1
   722  968  969 1
   723  971  972 1
   724  972  973 1
   725  973  975 1
   726  973  974 1
   727  974  979 1
   728  975  976 1
   729  975  977 1
   730  977  978 1
   731  977  979 1
   732  979  980 1
   733  980  989 ar
   734  980  981 ar
   735  981  982 ar
   736  982  983 ar
   737  983  984 ar
   738  983  989 ar
   739  984  985 1
   740  984  986 ar
   741  986  987 ar
   742  987  988 ar
   743  988  989 ar
   744  943  968 1
   745 1001 1003 1
   746 1001 1002 1
   747 1001 1004 1
   748 1004 1005 1
   749 1005 1006 1
   750 1006 1008 1
   751 1006 1007 1
   752 1007 1012 1
   753 1008 1009 1
   754 1008 1010 1
   755 1010 1011 1
   756 1010 1012 1
   757 1012 1013 1
   758 1013 1014 ar
   759 1013 1023 ar
   760 1014 1015 ar
   761 1015 1016 ar
   762 1016 1023 ar
   763 1016 1017 1
   764 1017 1018 2
   765 1017 1019 am
   766 1019 1020 1
   767 1020 1021 2
   768 1020 1022 2
   769 1022 1023 1
   770  976 1001 1
   771 1035 1036 1
   772 1035 1037 1
   773 1035 1038 1
   774 1038 1039 1
   775 1039 1040 1
   776 1040 1042 1
   777 1040 1041 1
   778 1041 1046 1
   779 1042 1044 1
   780 1042 1043 1
   781 1044 1045 1
   782 1044 1046 1
   783 1046 1047 1
   784 1047 1048 am
   785 1047 1054 1
   786 1048 1049 2
   787 1048 1050 am
   788 1050 1051 am
   789 1051 1053 1
   790 1051 1052 2
   791 1053 1054 2
   792 1009 1035 1
   793 1065 1066 1
   794 1065 1067 1
   795 1065 1068 1
   796 1068 1069 1
   797 1069 1070 1
   798 1070 1072 1
   799 1070 1071 1
   800 1071 1076 1
   801 1072 1074 1
   802 1072 1073 1
   803 1074 1075 1
   804 1074 1076 1
   805 1076 1077 1
   806 1077 1078 am
   807 1077 1084 1
   808 1078 1079 2
   809 1078 1080 am
   810 1080 1081 am
   811 1081 1083 1
   812 1081 1082 2
   813 1083 1084 2
   814 1043 1065 1
   815 1095 1096 1
   816 1095 1097 1
   817 1095 1098 1
   818 1098 1099 1
   819 1099 1100 1
   820 1100 1102 1
   821 1100 1101 1
   822 1101 1106 1
   823 1102 1104 1
   824 1102 1103 1
   825 1104 1105 1
   826 1104 1106 1
   827 1106 1107 1
   828 1107 1108 am
   829 1107 1114 1
   830 1108 1109 2
   831 1108 1110 am
   832 1110 1111 am
   833 1111 1113 1
   834 1111 1112 2
   835 1113 1114 2
   836 1073 1095 1
   837 1125 1126 1
   838 1125 1127 1
   839 1125 1128 1
   840 1128 1129 1
   841 1129 1130 1
   842 1130 1132 1
   843 1130 1131 1
   844 1131 1136 1
   845 1132 1134 1
   846 1132 1133 1
   847 1134 1135 1
   848 1134 1136 1
   849 1136 1137 1
   850 1137 1138 am
   851 1137 1144 1
   852 1138 1140 1
   853 1138 1139 2
   854 1140 1141 2
   855 1141 1143 2
   856 1141 1142 2
   857 1143 1144 2
   858 1103 1125 1
   859 1156 1157 1
   860 1156 1158 1
   861 1156 1159 1
   862 1159 1160 1
   863 1160 1161 1
   864 1161 1163 1
   865 1161 1162 1
   866 1162 1167 1
   867 1163 1165 1
   868 1163 1164 1
   869 1165 1166 1
   870 1165 1167 1
   871 1167 1168 1
   872 1168 1169 am
   873 1168 1175 1
   874 1169 1170 2
   875 1169 1171 am
   876 1171 1172 am
   877 1172 1174 1
   878 1172 1173 2
   879 1174 1175 2
   880 1133 1156 1
   881 1186 1189 1
   882 1186 1188 1
   883 1186 1187 1
   884 1189 1190 1
   885 1190 1191 1
   886 1191 1193 1
   887 1191 1192 1
   888 1192 1197 1
   889 1193 1194 1
   890 1193 1195 1
   891 1195 1196 1
   892 1195 1197 1
   893 1197 1198 1
   894 1198 1207 ar
   895 1198 1199 ar
   896 1199 1200 ar
   897 1200 1201 ar
   898 1201 1202 ar
   899 1201 1207 ar
   900 1202 1203 1
   901 1202 1204 ar
   902 1204 1205 ar
   903 1205 1206 ar
   904 1206 1207 ar
   905 1164 1186 1
   906 1219 1220 1
   907 1219 1221 1
   908 1219 1222 1
   909 1222 1223 1
   910 1223 1224 1
   911 1224 1226 1
   912 1224 1225 1
   913 1225 1230 1
   914 1226 1228 1
   915 1226 1227 1
   916 1228 1229 1
   917 1228 1230 1
   918 1230 1231 1
   919 1231 1232 am
   920 1231 1238 1
   921 1232 1234 1
   922 1232 1233 2
   923 1234 1235 2
   924 1235 1237 2
   925 1235 1236 2
   926 1237 1238 2
   927 1194 1219 1
   928 1250 1251 1
   929 1250 1252 1
   930 1250 1253 1
   931 1253 1254 1
   932 1254 1255 1
   933 1255 1257 1
   934 1255 1256 1
   935 1256 1261 1
   936 1257 1259 1
   937 1257 1258 1
   938 1259 1260 1
   939 1259 1261 1
   940 1261 1262 1
   941 1262 1263 am
   942 1262 1269 1
   943 1263 1265 1
   944 1263 1264 2
   945 1265 1266 2
   946 1266 1268 2
   947 1266 1267 2
   948 1268 1269 2
   949 1227 1250 1
   950 1281 1283 1
   951 1281 1282 1
   952 1281 1284 1
   953 1284 1285 1
   954 1285 1286 1
   955 1286 1288 1
   956 1286 1287 1
   957 1287 1292 1
   958 1288 1289 1
   959 1288 1290 1
   960 1290 1291 1
   961 1290 1292 1
   962 1292 1293 1
   963 1293 1294 ar
   964 1293 1303 ar
   965 1294 1295 ar
   966 1295 1296 ar
   967 1296 1303 ar
   968 1296 1297 1
   969 1297 1298 2
   970 1297 1299 am
   971 1299 1300 1
   972 1300 1301 2
   973 1300 1302 2
   974 1302 1303 1
   975 1258 1281 1
   976 1315 1317 1
   977 1315 1316 1
   978 1315 1318 1
   979 1318 1319 1
   980 1319 1320 1
   981 1320 1322 1
   982 1320 1321 1
   983 1321 1326 1
   984 1322 1323 1
   985 1322 1324 1
   986 1324 1325 1
   987 1324 1326 1
   988 1326 1327 1
   989 1327 1328 ar
   990 1327 1337 ar
   991 1328 1329 ar
   992 1329 1330 ar
   993 1330 1337 ar
   994 1330 1331 1
   995 1331 1332 2
   996 1331 1333 am
   997 1333 1334 1
   998 1334 1335 2
   999 1334 1336 2
  1000 1336 1337 1
  1001 1289 1315 1
  1002 1349 1351 1
  1003 1349 1350 1
  1004 1349 1352 1
  1005 1352 1353 1
  1006 1353 1354 1
  1007 1354 1356 1
  1008 1354 1355 1
  1009 1355 1360 1
  1010 1356 1357 1
  1011 1356 1358 1
  1012 1358 1359 1
  1013 1358 1360 1
  1014 1360 1361 1
  1015 1361 1362 ar
  1016 1361 1371 ar
  1017 1362 1363 ar
  1018 1363 1364 ar
  1019 1364 1371 ar
  1020 1364 1365 1
  1021 1365 1366 2
  1022 1365 1367 am
  1023 1367 1368 1
  1024 1368 1369 2
  1025 1368 1370 2
  1026 1370 1371 1
  1027 1323 1349 1
  1028 1383 1384 1
  1029 1383 1385 1
  1030 1383 1386 1
  1031 1386 1387 1
  1032 1387 1388 1
  1033 1388 1390 1
  1034 1388 1389 1
  1035 1389 1394 1
  1036 1390 1392 1
  1037 1390 1391 1
  1038 1392 1393 1
  1039 1392 1394 1
  1040 1394 1395 1
  1041 1395 1396 am
  1042 1395 1402 1
  1043 1396 1398 1
  1044 1396 1397 2
  1045 1398 1399 2
  1046 1399 1401 2
  1047 1399 1400 2
  1048 1401 1402 2
  1049 1357 1383 1
  1050 1414 1417 1
  1051 1414 1416 1
  1052 1414 1415 1
  1053 1417 1418 1
  1054 1418 1419 1
  1055 1419 1421 1
  1056 1419 1420 1
  1057 1420 1425 1
  1058 1421 1422 1
  1059 1421 1423 1
  1060 1423 1424 1
  1061 1423 1425 1
  1062 1425 1426 1
  1063 1426 1435 ar
  1064 1426 1427 ar
  1065 1427 1428 ar
  1066 1428 1429 ar
  1067 1429 1430 ar
  1068 1429 1435 ar
  1069 1430 1431 1
  1070 1430 1432 ar
  1071 1432 1433 ar
  1072 1433 1434 ar
  1073 1434 1435 ar
  1074 1391 1414 1
  1075 1447 1448 1
  1076 1447 1449 1
  1077 1447 1450 1
  1078 1450 1451 1
  1079 1451 1452 1
  1080 1452 1454 1
  1081 1452 1453 1
  1082 1453 1458 1
  1083 1454 1456 1
  1084 1454 1455 1
  1085 1456 1457 1
  1086 1456 1458 1
  1087 1458 1459 1
  1088 1459 1460 am
  1089 1459 1466 1
  1090 1460 1462 1
  1091 1460 1461 2
  1092 1462 1463 2
  1093 1463 1465 2
  1094 1463 1464 2
  1095 1465 1466 2
  1096 1422 1447 1
  1097 1478 1479 1
  1098 1478 1480 1
  1099 1478 1481 1
  1100 1481 1482 1
  1101 1482 1483 1
  1102 1483 1485 1
  1103 1483 1484 1
  1104 1484 1489 1
  1105 1485 1487 1
  1106 1485 1486 1
  1107 1487 1488 1
  1108 1487 1489 1
  1109 1489 1490 1
  1110 1490 1491 am
  1111 1490 1497 1
  1112 1491 1493 1
  1113 1491 1492 2
  1114 1493 1494 2
  1115 1494 1496 2
  1116 1494 1495 2
  1117 1496 1497 2
  1118 1455 1478 1
  1119 1509 1511 1
  1120 1509 1510 1
  1121 1509 1512 1
  1122 1512 1513 1
  1123 1513 1514 1
  1124 1514 1516 1
  1125 1514 1515 1
  1126 1515 1520 1
  1127 1516 1517 1
  1128 1516 1518 1
  1129 1518 1519 1
  1130 1518 1520 1
  1131 1520 1521 1
  1132 1521 1522 ar
  1133 1521 1531 ar
  1134 1522 1523 ar
  1135 1523 1524 ar
  1136 1524 1531 ar
  1137 1524 1525 1
  1138 1525 1526 2
  1139 1525 1527 am
  1140 1527 1528 1
  1141 1528 1529 2
  1142 1528 1530 2
  1143 1530 1531 1
  1144 1486 1509 1
  1145 1543 1544 1
  1146 1543 1545 1
  1147 1543 1546 1
  1148 1546 1547 1
  1149 1547 1548 1
  1150 1548 1550 1
  1151 1548 1549 1
  1152 1549 1554 1
  1153 1550 1552 1
  1154 1550 1551 1
  1155 1552 1553 1
  1156 1552 1554 1
  1157 1554 1555 1
  1158 1555 1556 am
  1159 1555 1562 1
  1160 1556 1557 2
  1161 1556 1558 am
  1162 1558 1559 am
  1163 1559 1561 1
  1164 1559 1560 2
  1165 1561 1562 2
  1166 1517 1543 1
  1167 1573 1576 1
  1168 1573 1575 1
  1169 1573 1574 1
  1170 1576 1577 1
  1171 1577 1578 1
  1172 1578 1580 1
  1173 1578 1579 1
  1174 1579 1584 1
  1175 1580 1581 1
  1176 1580 1582 1
  1177 1582 1583 1
  1178 1582 1584 1
  1179 1584 1585 1
  1180 1585 1594 ar
  1181 1585 1586 ar
  1182 1586 1587 ar
  1183 1587 1588 ar
  1184 1588 1589 ar
  1185 1588 1594 ar
  1186 1589 1590 1
  1187 1589 1591 ar
  1188 1591 1592 ar
  1189 1592 1593 ar
  1190 1593 1594 ar
  1191 1551 1573 1
  1192 1606 1609 1
  1193 1606 1608 1
  1194 1606 1607 1
  1195 1609 1610 1
  1196 1610 1611 1
  1197 1611 1613 1
  1198 1611 1612 1
  1199 1612 1617 1
  1200 1613 1614 1
  1201 1613 1615 1
  1202 1615 1616 1
  1203 1615 1617 1
  1204 1617 1618 1
  1205 1618 1627 ar
  1206 1618 1619 ar
  1207 1619 1620 ar
  1208 1620 1621 ar
  1209 1621 1622 ar
  1210 1621 1627 ar
  1211 1622 1623 1
  1212 1622 1624 ar
  1213 1624 1625 ar
  1214 1625 1626 ar
  1215 1626 1627 ar
  1216 1581 1606 1
  1217 1639 1642 1
  1218 1639 1641 1
  1219 1639 1640 1
  1220 1642 1643 1
  1221 1643 1644 1
  1222 1644 1646 1
  1223 1644 1645 1
  1224 1645 1650 1
  1225 1646 1647 1
  1226 1646 1648 1
  1227 1648 1649 1
  1228 1648 1650 1
  1229 1650 1651 1
  1230 1651 1660 ar
  1231 1651 1652 ar
  1232 1652 1653 ar
  1233 1653 1654 ar
  1234 1654 1655 ar
  1235 1654 1660 ar
  1236 1655 1656 1
  1237 1655 1657 ar
  1238 1657 1658 ar
  1239 1658 1659 ar
  1240 1659 1660 ar
  1241 1614 1639 1
  1242 1672 1673 1
  1243 1672 1674 1
  1244 1672 1675 1
  1245 1675 1676 1
  1246 1676 1677 1
  1247 1677 1679 1
  1248 1677 1678 1
  1249 1678 1683 1
  1250 1679 1681 1
  1251 1679 1680 1
  1252 1681 1682 1
  1253 1681 1683 1
  1254 1683 1684 1
  1255 1684 1685 am
  1256 1684 1691 1
  1257 1685 1686 2
  1258 1685 1687 am
  1259 1687 1688 am
  1260 1688 1690 1
  1261 1688 1689 2
  1262 1690 1691 2
  1263 1647 1672 1
  1264 1702 1704 1
  1265 1702 1703 1
  1266 1702 1705 1
  1267 1705 1706 1
  1268 1706 1707 1
  1269 1707 1709 1
  1270 1707 1708 1
  1271 1708 1713 1
  1272 1709 1710 1
  1273 1709 1711 1
  1274 1711 1712 1
  1275 1711 1713 1
  1276 1713 1714 1
  1277 1714 1715 ar
  1278 1714 1724 ar
  1279 1715 1716 ar
  1280 1716 1717 ar
  1281 1717 1724 ar
  1282 1717 1718 1
  1283 1718 1719 2
  1284 1718 1720 am
  1285 1720 1721 1
  1286 1721 1722 2
  1287 1721 1723 2
  1288 1723 1724 1
  1289 1680 1702 1
  1290 1736 1737 1
  1291 1736 1738 1
  1292 1736 1739 1
  1293 1739 1740 1
  1294 1740 1741 1
  1295 1741 1743 1
  1296 1741 1742 1
  1297 1742 1747 1
  1298 1743 1745 1
  1299 1743 1744 1
  1300 1745 1746 1
  1301 1745 1747 1
  1302 1747 1748 1
  1303 1748 1749 am
  1304 1748 1755 1
  1305 1749 1750 2
  1306 1749 1751 am
  1307 1751 1752 am
  1308 1752 1754 1
  1309 1752 1753 2
  1310 1754 1755 2
  1311 1710 1736 1
  1312 1766 1767 1
  1313 1766 1768 1
  1314 1766 1769 1
  1315 1769 1770 1
  1316 1770 1771 1
  1317 1771 1773 1
  1318 1771 1772 1
  1319 1772 1777 1
  1320 1773 1775 1
  1321 1773 1774 1
  1322 1775 1776 1
  1323 1775 1777 1
  1324 1777 1778 1
  1325 1778 1779 am
  1326 1778 1785 1
  1327 1779 1781 1
  1328 1779 1780 2
  1329 1781 1782 2
  1330 1782 1784 2
  1331 1782 1783 2
  1332 1784 1785 2
  1333 1744 1766 1
  1334 1797 1798 1
  1335 1797 1799 1
  1336 1797 1800 1
  1337 1800 1801 1
  1338 1801 1802 1
  1339 1802 1804 1
  1340 1802 1803 1
  1341 1803 1808 1
  1342 1804 1806 1
  1343 1804 1805 1
  1344 1806 1807 1
  1345 1806 1808 1
  1346 1808 1809 1
  1347 1809 1810 am
  1348 1809 1816 1
  1349 1810 1812 1
  1350 1810 1811 2
  1351 1812 1813 2
  1352 1813 1815 2
  1353 1813 1814 2
  1354 1815 1816 2
  1355 1774 1797 1
  1356 1828 1830 1
  1357 1828 1829 1
  1358 1828 1831 1
  1359 1831 1832 1
  1360 1832 1833 1
  1361 1833 1835 1
  1362 1833 1834 1
  1363 1834 1839 1
  1364 1835 1836 1
  1365 1835 1837 1
  1366 1837 1838 1
  1367 1837 1839 1
  1368 1839 1840 1
  1369 1840 1841 ar
  1370 1840 1850 ar
  1371 1841 1842 ar
  1372 1842 1843 ar
  1373 1843 1850 ar
  1374 1843 1844 1
  1375 1844 1845 2
  1376 1844 1846 am
  1377 1846 1847 1
  1378 1847 1848 2
  1379 1847 1849 2
  1380 1849 1850 1
  1381 1805 1828 1
  1382 1862 1865 1
  1383 1862 1864 1
  1384 1862 1863 1
  1385 1865 1866 1
  1386 1866 1867 1
  1387 1867 1869 1
  1388 1867 1868 1
  1389 1868 1873 1
  1390 1869 1870 1
  1391 1869 1871 1
  1392 1871 1872 1
  1393 1871 1873 1
  1394 1873 1874 1
  1395 1874 1883 ar
  1396 1874 1875 ar
  1397 1875 1876 ar
  1398 1876 1877 ar
  1399 1877 1878 ar
  1400 1877 1883 ar
  1401 1878 1879 1
  1402 1878 1880 ar
  1403 1880 1881 ar
  1404 1881 1882 ar
  1405 1882 1883 ar
  1406 1836 1862 1
  1407 1895 1896 1
  1408 1895 1897 1
  1409 1895 1898 1
  1410 1898 1899 1
  1411 1899 1900 1
  1412 1900 1902 1
  1413 1900 1901 1
  1414 1901 1906 1
  1415 1902 1904 1
  1416 1902 1903 1
  1417 1904 1905 1
  1418 1904 1906 1
  1419 1906 1907 1
  1420 1907 1908 am
  1421 1907 1914 1
  1422 1908 1910 1
  1423 1908 1909 2
  1424 1910 1911 2
  1425 1911 1913 2
  1426 1911 1912 2
  1427 1913 1914 2
  1428 1870 1895 1
  1429 1926 1927 1
  1430 1926 1928 1
  1431 1926 1929 1
  1432 1929 1930 1
  1433 1930 1931 1
  1434 1931 1933 1
  1435 1931 1932 1
  1436 1932 1937 1
  1437 1933 1935 1
  1438 1933 1934 1
  1439 1935 1936 1
  1440 1935 1937 1
  1441 1937 1938 1
  1442 1938 1939 am
  1443 1938 1945 1
  1444 1939 1940 2
  1445 1939 1941 am
  1446 1941 1942 am
  1447 1942 1944 1
  1448 1942 1943 2
  1449 1944 1945 2
  1450 1903 1926 1
  1451 1956 1959 1
  1452 1956 1958 1
  1453 1956 1957 1
  1454 1959 1960 1
  1455 1960 1961 1
  1456 1961 1963 1
  1457 1961 1962 1
  1458 1962 1967 1
  1459 1963 1964 1
  1460 1963 1965 1
  1461 1965 1966 1
  1462 1965 1967 1
  1463 1967 1968 1
  1464 1968 1977 ar
  1465 1968 1969 ar
  1466 1969 1970 ar
  1467 1970 1971 ar
  1468 1971 1972 ar
  1469 1971 1977 ar
  1470 1972 1973 1
  1471 1972 1974 ar
  1472 1974 1975 ar
  1473 1975 1976 ar
  1474 1976 1977 ar
  1475 1934 1956 1
  1476 1989 1990 1
  1477 1989 1991 1
  1478 1989 1992 1
  1479 1992 1993 1
  1480 1993 1994 1
  1481 1994 1996 1
  1482 1994 1995 1
  1483 1995 2000 1
  1484 1996 1998 1
  1485 1996 1997 1
  1486 1998 1999 1
  1487 1998 2000 1
  1488 2000 2001 1
  1489 2001 2002 am
  1490 2001 2008 1
  1491 2002 2003 2
  1492 2002 2004 am
  1493 2004 2005 am
  1494 2005 2007 1
  1495 2005 2006 2
  1496 2007 2008 2
  1497 1964 1989 1
  1498 2019 2021 1
  1499 2019 2020 1
  1500 2019 2022 1
  1501 2022 2023 1
  1502 2023 2024 1
  1503 2024 2026 1
  1504 2024 2025 1
  1505 2025 2030 1
  1506 2026 2027 1
  1507 2026 2028 1
  1508 2028 2029 1
  1509 2028 2030 1
  1510 2030 2031 1
  1511 2031 2032 ar
  1512 2031 2041 ar
  1513 2032 2033 ar
  1514 2033 2034 ar
  1515 2034 2041 ar
  1516 2034 2035 1
  1517 2035 2036 2
  1518 2035 2037 am
  1519 2037 2038 1
  1520 2038 2039 2
  1521 2038 2040 2
  1522 2040 2041 1
  1523 1997 2019 1
  1524 2053 2054 1
  1525 2053 2055 1
  1526 2053 2056 1
  1527 2056 2057 1
  1528 2057 2058 1
  1529 2058 2060 1
  1530 2058 2059 1
  1531 2059 2064 1
  1532 2060 2062 1
  1533 2060 2061 1
  1534 2062 2063 1
  1535 2062 2064 1
  1536 2064 2065 1
  1537 2065 2066 am
  1538 2065 2072 1
  1539 2066 2067 2
  1540 2066 2068 am
  1541 2068 2069 am
  1542 2069 2071 1
  1543 2069 2070 2
  1544 2071 2072 2
  1545 2027 2053 1
  1546 2083 2084 1
  1547 2083 2085 1
  1548 2083 2086 1
  1549 2086 2087 1
  1550 2087 2088 1
  1551 2088 2090 1
  1552 2088 2089 1
  1553 2089 2094 1
  1554 2090 2092 1
  1555 2090 2091 1
  1556 2092 2093 1
  1557 2092 2094 1
  1558 2094 2095 1
  1559 2095 2096 am
  1560 2095 2102 1
  1561 2096 2098 1
  1562 2096 2097 2
  1563 2098 2099 2
  1564 2099 2101 2
  1565 2099 2100 2
  1566 2101 2102 2
  1567 2061 2083 1
  1568 2117 2118 1
  1569 2118 2119 1
  1570 2119 2121 1
  1571 2119 2120 1
  1572 2120 2125 1
  1573 2121 2123 1
  1574 2121 2122 1
  1575 2123 2124 1
  1576 2123 2125 1
  1577 2125 2126 1
  1578 2126 2133 1
  1579 2126 2127 am
  1580 2127 2128 2
  1581 2127 2129 1
  1582 2129 2130 2
  1583 2130 2132 2
  1584 2130 2131 2
  1585 2132 2133 2
  1586 2114 2115 1
  1587 2114 2116 1
  1588 2114 2117 1
  1589 2091 2114 1
  1590   21    2 1
  1591   22    2 1
  1592   23    3 1
  1593   24    5 1
  1594   25    7 1
  1595   26    9 1
  1596   27   11 1
  1597   28   16 1
  1598   56   37 1
  1599   57   37 1
  1600   58   38 1
  1601   59   40 1
  1602   60   42 1
  1603   61   44 1
  1604   62   46 1
  1605   63   51 1
  1606   89   71 1
  1607   90   71 1
  1608   91   72 1
  1609   92   74 1
  1610   93   76 1
  1611   94   78 1
  1612   95   80 1
  1613   96   86 1
  1614  120  104 1
  1615  121  104 1
  1616  122  105 1
  1617  123  107 1
  1618  124  109 1
  1619  125  111 1
  1620  126  118 1
  1621  127  119 1
  1622  153  135 1
  1623  154  135 1
  1624  155  136 1
  1625  156  138 1
  1626  157  140 1
  1627  158  142 1
  1628  159  144 1
  1629  160  150 1
  1630  184  168 1
  1631  185  168 1
  1632  186  169 1
  1633  187  171 1
  1634  188  173 1
  1635  189  175 1
  1636  190  179 1
  1637  191  182 1
  1638  192  183 1
  1639  216  198 1
  1640  217  198 1
  1641  218  199 1
  1642  219  201 1
  1643  220  203 1
  1644  221  205 1
  1645  222  207 1
  1646  223  213 1
  1647  247  231 1
  1648  248  231 1
  1649  249  232 1
  1650  250  234 1
  1651  251  236 1
  1652  252  238 1
  1653  253  242 1
  1654  254  245 1
  1655  255  246 1
  1656  279  261 1
  1657  280  261 1
  1658  281  262 1
  1659  282  264 1
  1660  283  266 1
  1661  284  268 1
  1662  285  270 1
  1663  286  276 1
  1664  312  294 1
  1665  313  294 1
  1666  314  295 1
  1667  315  297 1
  1668  316  299 1
  1669  317  301 1
  1670  318  303 1
  1671  319  309 1
  1672  343  327 1
  1673  344  327 1
  1674  345  328 1
  1675  346  330 1
  1676  347  332 1
  1677  348  334 1
  1678  349  338 1
  1679  350  341 1
  1680  351  342 1
  1681  373  357 1
  1682  374  357 1
  1683  375  358 1
  1684  376  360 1
  1685  377  362 1
  1686  378  364 1
  1687  379  371 1
  1688  380  372 1
  1689  407  388 1
  1690  408  388 1
  1691  409  389 1
  1692  410  391 1
  1693  411  393 1
  1694  412  395 1
  1695  413  397 1
  1696  414  402 1
  1697  438  422 1
  1698  439  422 1
  1699  440  423 1
  1700  441  425 1
  1701  442  427 1
  1702  443  429 1
  1703  444  436 1
  1704  445  437 1
  1705  472  453 1
  1706  473  453 1
  1707  474  454 1
  1708  475  456 1
  1709  476  458 1
  1710  477  460 1
  1711  478  462 1
  1712  479  467 1
  1713  503  487 1
  1714  504  487 1
  1715  505  488 1
  1716  506  490 1
  1717  507  492 1
  1718  508  494 1
  1719  509  498 1
  1720  510  501 1
  1721  511  502 1
  1722  536  517 1
  1723  537  517 1
  1724  538  518 1
  1725  539  520 1
  1726  540  522 1
  1727  541  524 1
  1728  542  526 1
  1729  543  531 1
  1730  570  551 1
  1731  571  551 1
  1732  572  552 1
  1733  573  554 1
  1734  574  556 1
  1735  575  558 1
  1736  576  560 1
  1737  577  565 1
  1738  603  585 1
  1739  604  585 1
  1740  605  586 1
  1741  606  588 1
  1742  607  590 1
  1743  608  592 1
  1744  609  594 1
  1745  610  600 1
  1746  634  618 1
  1747  635  618 1
  1748  636  619 1
  1749  637  621 1
  1750  638  623 1
  1751  639  625 1
  1752  640  629 1
  1753  641  632 1
  1754  642  633 1
  1755  666  648 1
  1756  667  648 1
  1757  668  649 1
  1758  669  651 1
  1759  670  653 1
  1760  671  655 1
  1761  672  657 1
  1762  673  663 1
  1763  697  681 1
  1764  698  681 1
  1765  699  682 1
  1766  700  684 1
  1767  701  686 1
  1768  702  688 1
  1769  703  692 1
  1770  704  695 1
  1771  705  696 1
  1772  730  711 1
  1773  731  711 1
  1774  732  712 1
  1775  733  714 1
  1776  734  716 1
  1777  735  718 1
  1778  736  720 1
  1779  737  725 1
  1780  764  745 1
  1781  765  745 1
  1782  766  746 1
  1783  767  748 1
  1784  768  750 1
  1785  769  752 1
  1786  770  754 1
  1787  771  759 1
  1788  795  779 1
  1789  796  779 1
  1790  797  780 1
  1791  798  782 1
  1792  799  784 1
  1793  800  786 1
  1794  801  793 1
  1795  802  794 1
  1796  828  810 1
  1797  829  810 1
  1798  830  811 1
  1799  831  813 1
  1800  832  815 1
  1801  833  817 1
  1802  834  819 1
  1803  835  825 1
  1804  859  843 1
  1805  860  843 1
  1806  861  844 1
  1807  862  846 1
  1808  863  848 1
  1809  864  850 1
  1810  865  857 1
  1811  866  858 1
  1812  893  874 1
  1813  894  874 1
  1814  895  875 1
  1815  896  877 1
  1816  897  879 1
  1817  898  881 1
  1818  899  883 1
  1819  900  888 1
  1820  924  908 1
  1821  925  908 1
  1822  926  909 1
  1823  927  911 1
  1824  928  913 1
  1825  929  915 1
  1826  930  922 1
  1827  931  923 1
  1828  957  939 1
  1829  958  939 1
  1830  959  940 1
  1831  960  942 1
  1832  961  944 1
  1833  962  946 1
  1834  963  948 1
  1835  964  954 1
  1836  990  972 1
  1837  991  972 1
  1838  992  973 1
  1839  993  975 1
  1840  994  977 1
  1841  995  979 1
  1842  996  981 1
  1843  997  987 1
  1844 1024 1005 1
  1845 1025 1005 1
  1846 1026 1006 1
  1847 1027 1008 1
  1848 1028 1010 1
  1849 1029 1012 1
  1850 1030 1014 1
  1851 1031 1019 1
  1852 1055 1039 1
  1853 1056 1039 1
  1854 1057 1040 1
  1855 1058 1042 1
  1856 1059 1044 1
  1857 1060 1046 1
  1858 1061 1050 1
  1859 1062 1053 1
  1860 1063 1054 1
  1861 1085 1069 1
  1862 1086 1069 1
  1863 1087 1070 1
  1864 1088 1072 1
  1865 1089 1074 1
  1866 1090 1076 1
  1867 1091 1080 1
  1868 1092 1083 1
  1869 1093 1084 1
  1870 1115 1099 1
  1871 1116 1099 1
  1872 1117 1100 1
  1873 1118 1102 1
  1874 1119 1104 1
  1875 1120 1106 1
  1876 1121 1110 1
  1877 1122 1113 1
  1878 1123 1114 1
  1879 1145 1129 1
  1880 1146 1129 1
  1881 1147 1130 1
  1882 1148 1132 1
  1883 1149 1134 1
  1884 1150 1136 1
  1885 1151 1143 1
  1886 1152 1144 1
  1887 1176 1160 1
  1888 1177 1160 1
  1889 1178 1161 1
  1890 1179 1163 1
  1891 1180 1165 1
  1892 1181 1167 1
  1893 1182 1171 1
  1894 1183 1174 1
  1895 1184 1175 1
  1896 1208 1190 1
  1897 1209 1190 1
  1898 1210 1191 1
  1899 1211 1193 1
  1900 1212 1195 1
  1901 1213 1197 1
  1902 1214 1199 1
  1903 1215 1205 1
  1904 1239 1223 1
  1905 1240 1223 1
  1906 1241 1224 1
  1907 1242 1226 1
  1908 1243 1228 1
  1909 1244 1230 1
  1910 1245 1237 1
  1911 1246 1238 1
  1912 1270 1254 1
  1913 1271 1254 1
  1914 1272 1255 1
  1915 1273 1257 1
  1916 1274 1259 1
  1917 1275 1261 1
  1918 1276 1268 1
  1919 1277 1269 1
  1920 1304 1285 1
  1921 1305 1285 1
  1922 1306 1286 1
  1923 1307 1288 1
  1924 1308 1290 1
  1925 1309 1292 1
  1926 1310 1294 1
  1927 1311 1299 1
  1928 1338 1319 1
  1929 1339 1319 1
  1930 1340 1320 1
  1931 1341 1322 1
  1932 1342 1324 1
  1933 1343 1326 1
  1934 1344 1328 1
  1935 1345 1333 1
  1936 1372 1353 1
  1937 1373 1353 1
  1938 1374 1354 1
  1939 1375 1356 1
  1940 1376 1358 1
  1941 1377 1360 1
  1942 1378 1362 1
  1943 1379 1367 1
  1944 1403 1387 1
  1945 1404 1387 1
  1946 1405 1388 1
  1947 1406 1390 1
  1948 1407 1392 1
  1949 1408 1394 1
  1950 1409 1401 1
  1951 1410 1402 1
  1952 1436 1418 1
  1953 1437 1418 1
  1954 1438 1419 1
  1955 1439 1421 1
  1956 1440 1423 1
  1957 1441 1425 1
  1958 1442 1427 1
  1959 1443 1433 1
  1960 1467 1451 1
  1961 1468 1451 1
  1962 1469 1452 1
  1963 1470 1454 1
  1964 1471 1456 1
  1965 1472 1458 1
  1966 1473 1465 1
  1967 1474 1466 1
  1968 1498 1482 1
  1969 1499 1482 1
  1970 1500 1483 1
  1971 1501 1485 1
  1972 1502 1487 1
  1973 1503 1489 1
  1974 1504 1496 1
  1975 1505 1497 1
  1976 1532 1513 1
  1977 1533 1513 1
  1978 1534 1514 1
  1979 1535 1516 1
  1980 1536 1518 1
  1981 1537 1520 1
  1982 1538 1522 1
  1983 1539 1527 1
  1984 1563 1547 1
  1985 1564 1547 1
  1986 1565 1548 1
  1987 1566 1550 1
  1988 1567 1552 1
  1989 1568 1554 1
  1990 1569 1558 1
  1991 1570 1561 1
  1992 1571 1562 1
  1993 1595 1577 1
  1994 1596 1577 1
  1995 1597 1578 1
  1996 1598 1580 1
  1997 1599 1582 1
  1998 1600 1584 1
  1999 1601 1586 1
  2000 1602 1592 1
  2001 1628 1610 1
  2002 1629 1610 1
  2003 1630 1611 1
  2004 1631 1613 1
  2005 1632 1615 1
  2006 1633 1617 1
  2007 1634 1619 1
  2008 1635 1625 1
  2009 1661 1643 1
  2010 1662 1643 1
  2011 1663 1644 1
  2012 1664 1646 1
  2013 1665 1648 1
  2014 1666 1650 1
  2015 1667 1652 1
  2016 1668 1658 1
  2017 1692 1676 1
  2018 1693 1676 1
  2019 1694 1677 1
  2020 1695 1679 1
  2021 1696 1681 1
  2022 1697 1683 1
  2023 1698 1687 1
  2024 1699 1690 1
  2025 1700 1691 1
  2026 1725 1706 1
  2027 1726 1706 1
  2028 1727 1707 1
  2029 1728 1709 1
  2030 1729 1711 1
  2031 1730 1713 1
  2032 1731 1715 1
  2033 1732 1720 1
  2034 1756 1740 1
  2035 1757 1740 1
  2036 1758 1741 1
  2037 1759 1743 1
  2038 1760 1745 1
  2039 1761 1747 1
  2040 1762 1751 1
  2041 1763 1754 1
  2042 1764 1755 1
  2043 1786 1770 1
  2044 1787 1770 1
  2045 1788 1771 1
  2046 1789 1773 1
  2047 1790 1775 1
  2048 1791 1777 1
  2049 1792 1784 1
  2050 1793 1785 1
  2051 1817 1801 1
  2052 1818 1801 1
  2053 1819 1802 1
  2054 1820 1804 1
  2055 1821 1806 1
  2056 1822 1808 1
  2057 1823 1815 1
  2058 1824 1816 1
  2059 1851 1832 1
  2060 1852 1832 1
  2061 1853 1833 1
  2062 1854 1835 1
  2063 1855 1837 1
  2064 1856 1839 1
  2065 1857 1841 1
  2066 1858 1846 1
  2067 1884 1866 1
  2068 1885 1866 1
  2069 1886 1867 1
  2070 1887 1869 1
  2071 1888 1871 1
  2072 1889 1873 1
  2073 1890 1875 1
  2074 1891 1881 1
  2075 1915 1899 1
  2076 1916 1899 1
  2077 1917 1900 1
  2078 1918 1902 1
  2079 1919 1904 1
  2080 1920 1906 1
  2081 1921 1913 1
  2082 1922 1914 1
  2083 1946 1930 1
  2084 1947 1930 1
  2085 1948 1931 1
  2086 1949 1933 1
  2087 1950 1935 1
  2088 1951 1937 1
  2089 1952 1941 1
  2090 1953 1944 1
  2091 1954 1945 1
  2092 1978 1960 1
  2093 1979 1960 1
  2094 1980 1961 1
  2095 1981 1963 1
  2096 1982 1965 1
  2097 1983 1967 1
  2098 1984 1969 1
  2099 1985 1975 1
  2100 2009 1993 1
  2101 2010 1993 1
  2102 2011 1994 1
  2103 2012 1996 1
  2104 2013 1998 1
  2105 2014 2000 1
  2106 2015 2004 1
  2107 2016 2007 1
  2108 2017 2008 1
  2109 2042 2023 1
  2110 2043 2023 1
  2111 2044 2024 1
  2112 2045 2026 1
  2113 2046 2028 1
  2114 2047 2030 1
  2115 2048 2032 1
  2116 2049 2037 1
  2117 2073 2057 1
  2118 2074 2057 1
  2119 2075 2058 1
  2120 2076 2060 1
  2121 2077 2062 1
  2122 2078 2064 1
  2123 2079 2068 1
  2124 2080 2071 1
  2125 2081 2072 1
  2126 2103 2087 1
  2127 2104 2087 1
  2128 2105 2088 1
  2129 2106 2090 1
  2130 2107 2092 1
  2131 2108 2094 1
  2132 2109 2101 1
  2133 2110 2102 1
  2134 2134 2118 1
  2135 2135 2118 1
  2136 2136 2119 1
  2137 2137 2121 1
  2138 2138 2123 1
  2139 2139 2125 1
  2140 2140 2132 1
  2141 2141 2133 1
  2142   29   18 1
  2143   30   18 1
  2144   64   53 1
  2145   65   53 1
  2146  128  117 1
  2147  129  117 1
  2148  381  370 1
  2149  382  370 1
  2150  415  404 1
  2151  416  404 1
  2152  446  435 1
  2153  447  435 1
  2154  480  469 1
  2155  481  469 1
  2156  544  533 1
  2157  545  533 1
  2158  578  567 1
  2159  579  567 1
  2160  738  727 1
  2161  739  727 1
  2162  772  761 1
  2163  773  761 1
  2164  803  792 1
  2165  804  792 1
  2166  867  856 1
  2167  868  856 1
  2168  901  890 1
  2169  902  890 1
  2170  932  921 1
  2171  933  921 1
  2172 1032 1021 1
  2173 1033 1021 1
  2174 1153 1142 1
  2175 1154 1142 1
  2176 1247 1236 1
  2177 1248 1236 1
  2178 1278 1267 1
  2179 1279 1267 1
  2180 1312 1301 1
  2181 1313 1301 1
  2182 1346 1335 1
  2183 1347 1335 1
  2184 1380 1369 1
  2185 1381 1369 1
  2186 1411 1400 1
  2187 1412 1400 1
  2188 1475 1464 1
  2189 1476 1464 1
  2190 1506 1495 1
  2191 1507 1495 1
  2192 1540 1529 1
  2193 1541 1529 1
  2194 1733 1722 1
  2195 1734 1722 1
  2196 1794 1783 1
  2197 1795 1783 1
  2198 1825 1814 1
  2199 1826 1814 1
  2200 1859 1848 1
  2201 1860 1848 1
  2202 1923 1912 1
  2203 1924 1912 1
  2204 2050 2039 1
  2205 2051 2039 1
  2206 2111 2100 1
  2207 2112 2100 1
  2208 2142 2131 1
  2209 2143 2131 1
  2210  643  624 1
  2211 1124 1105 1
  2212  740  717 1
  2213  611  591 1
  2214 1508 1488 1
  2215 1955 1936 1
  2216   66   43 1
  2217   31    8 1
  2218 1064 1045 1
  2219 2018 1999 1
  2220 1603 1583 1
  2221 1986 1966 1
  2222 1477 1457 1
  2223 1765 1746 1
  2224 1796 1776 1
  2225 1572 1553 1
  2226  161  141 1
  2227  512  493 1
  2228 1185 1166 1
  2229 1348 1325 1
  2230 1216 1196 1
  2231 2082 2063 1
  2232  224  204 1
  2233 1314 1291 1
  2234 1735 1712 1
  2235  836  816 1
  2236  903  880 1
  2237 1249 1229 1
  2238 1444 1431 1
  2239 1445 1431 1
  2240 1636 1623 1
  2241 1637 1623 1
  2242  225  211 1
  2243  226  211 1
  2244   97   84 1
  2245   98   84 1
  2246  998  985 1
  2247  999  985 1
  2248  612  598 1
  2249  613  598 1
  2250  287  274 1
  2251  288  274 1
  2252 1604 1590 1
  2253 1605 1590 1
  2254  837  823 1
  2255  838  823 1
  2256  162  148 1
  2257  163  148 1
  2258  674  661 1
  2259  675  661 1
  2260 1217 1203 1
  2261 1218 1203 1
  2262 1669 1656 1
  2263 1670 1656 1
  2264  965  952 1
  2265  966  952 1
  2266 1987 1973 1
  2267 1988 1973 1
  2268  320  307 1
  2269  321  307 1
  2270 1892 1879 1
  2271 1893 1879 1
  2272  322  300 1
  2273  676  654 1
  2274 1034 1011 1
  2275 1382 1359 1
  2276 2144 2124 1
  2277 2145 2122 1
  2278 1894 1872 1
  2279 1413 1393 1
  2280   32    1 1
  2281 1446 1424 1
  2282   99   77 1
  2283  130  110 1
  2284 1094 1075 1
  2285  289  267 1
  2286  546  523 1
  2287  774  751 1
  2288 1542 1519 1
  2289  482  459 1
  2290  934  914 1
  2291 1701 1682 1
  2292 1861 1838 1
  2293  193  174 1
  2294  352  333 1
  2295  967  945 1
  2296 1280 1260 1
  2297 2052 2029 1
  2298  383  363 1
  2299  805  785 1
  2300 1000  978 1
  2301 1925 1905 1
  2302 1155 1135 1
  2303  706  687 1
  2304  256  237 1
  2305  417  394 1
  2306  869  849 1
  2307 1638 1616 1
  2308  580  557 1
  2309 2113 2093 1
  2310  448  428 1
  2311 1671 1649 1
  2312 1827 1807 1
@<TRIPOS>SUBSTRUCTURE
     1   G15       3 RESIDUE           4 B       G     1 ROOT
     2   G16      38 RESIDUE           4 B       G     2
     3   A17      72 RESIDUE           4 B       A     2
     4   C18     105 RESIDUE           4 B       C     2
     5   A19     136 RESIDUE           4 B       A     2
     6   U20     169 RESIDUE           4 B       U     2
     7   A21     199 RESIDUE           4 B       A     2
     8   U22     232 RESIDUE           4 B       U     2
     9   A23     262 RESIDUE           4 B       A     2
    10   A24     295 RESIDUE           4 B       A     2
    11   U25     328 RESIDUE           4 B       U     2
    12   C26     358 RESIDUE           4 B       C     2
    13   G27     389 RESIDUE           4 B       G     2
    14   C28     423 RESIDUE           4 B       C     2
    15   G29     454 RESIDUE           4 B       G     2
    16   U30     488 RESIDUE           4 B       U     2
    17   G31     518 RESIDUE           4 B       G     2
    18   G32     552 RESIDUE           4 B       G     2
    19   A33     586 RESIDUE           4 B       A     2
    20   U34     619 RESIDUE           4 B       U     2
    21   A35     649 RESIDUE           4 B       A     2
    22   U36     682 RESIDUE           4 B       U     2
    23   G37     712 RESIDUE           4 B       G     2
    24   G38     746 RESIDUE           4 B       G     2
    25   C39     780 RESIDUE           4 B       C     2
    26   A40     811 RESIDUE           4 B       A     2
    27   C41     844 RESIDUE           4 B       C     2
    28   G42     875 RESIDUE           4 B       G     2
    29   C43     909 RESIDUE           4 B       C     2
    30   A44     940 RESIDUE           4 B       A     2
    31   A45     973 RESIDUE           4 B       A     2
    32   G46    1006 RESIDUE           4 B       G     2
    33   U47    1040 RESIDUE           4 B       U     2
    34   U48    1070 RESIDUE           4 B       U     2
    35   U49    1100 RESIDUE           4 B       U     2
    36   C50    1130 RESIDUE           4 B       C     2
    37   U51    1161 RESIDUE           4 B       U     2
    38   A52    1191 RESIDUE           4 B       A     2
    39   C53    1224 RESIDUE           4 B       C     2
    40   C54    1255 RESIDUE           4 B       C     2
    41   G55    1286 RESIDUE           4 B       G     2
    42   G56    1320 RESIDUE           4 B       G     2
    43   G57    1354 RESIDUE           4 B       G     2
    44   C58    1388 RESIDUE           4 B       C     2
    45   A59    1419 RESIDUE           4 B       A     2
    46   C60    1452 RESIDUE           4 B       C     2
    47   C61    1483 RESIDUE           4 B       C     2
    48   G62    1514 RESIDUE           4 B       G     2
    49   U63    1548 RESIDUE           4 B       U     2
    50   A64    1578 RESIDUE           4 B       A     2
    51   A65    1611 RESIDUE           4 B       A     2
    52   A66    1644 RESIDUE           4 B       A     2
    53   U67    1677 RESIDUE           4 B       U     2
    54   G68    1707 RESIDUE           4 B       G     2
    55   U69    1741 RESIDUE           4 B       U     2
    56   C70    1771 RESIDUE           4 B       C     2
    57   C71    1802 RESIDUE           4 B       C     2
    58   G72    1833 RESIDUE           4 B       G     2
    59   A73    1867 RESIDUE           4 B       A     2
    60   C74    1900 RESIDUE           4 B       C     2
    61   U75    1931 RESIDUE           4 B       U     2
    62   A76    1961 RESIDUE           4 B       A     2
    63   U77    1994 RESIDUE           4 B       U     2
    64   G78    2024 RESIDUE           4 B       G     2
    65   U79    2058 RESIDUE           4 B       U     2
    66   C80    2088 RESIDUE           4 B       C     2
    67   C81    2119 RESIDUE           4 B       C     1
