@<TRIPOS>MOLECULE
4TZX.pdb
2258 2433 71 0 0
NUCLEIC_ACID
AMBER ff14SB


@<TRIPOS>ATOM
      1 O5'       -48.3950    6.9560  -12.2780 O.3       1   G13      -0.6223
      2 C5'       -49.0870    7.6100  -11.2230 C.3       1   G13       0.0558
      3 C4'       -49.2510    6.7050  -10.0280 C.3       1   G13       0.1065
      4 O4'       -50.0060    5.5260  -10.4040 O.3       1   G13      -0.3548
      5 C3'       -47.9660    6.1520   -9.4300 C.3       1   G13       0.2022
      6 O3'       -47.3380    7.0680   -8.5490 O.3       1   G13      -0.5246
      7 C2'       -48.4370    4.8790   -8.7370 C.3       1   G13       0.0670
      8 O2'       -49.0150    5.1830   -7.4760 O.3       1   G13      -0.6139
      9 C1'       -49.5480    4.4060   -9.6770 C.3       1   G13       0.0191
     10 N9        -49.0930    3.3700  -10.6270 N.ar      1   G13       0.0492
     11 C8        -49.0530    3.4660  -11.9980 C.ar      1   G13       0.1374
     12 N7        -48.6110    2.3830  -12.5750 N.ar      1   G13      -0.5709
     13 C5        -48.3490    1.5170  -11.5240 C.ar      1   G13       0.1744
     14 C6        -47.8490    0.1890  -11.5340 C.2       1   G13       0.4770
     15 O6        -47.5300   -0.5050  -12.5070 O.2       1   G13      -0.5597
     16 N1        -47.7330   -0.3260  -10.2460 N.am      1   G13      -0.4787
     17 C2        -48.0540    0.3500   -9.0960 C.2       1   G13       0.7657
     18 N2        -47.8730   -0.3180   -7.9480 N.pl3     1   G13      -0.9672
     19 N3        -48.5230    1.5880   -9.0730 N.2       1   G13      -0.6323
     20 C4        -48.6440    2.1070  -10.3130 C.ar      1   G13       0.1222
     21 H5'       -50.0728    7.9102  -11.5782 H         1   G13       0.0679
     22 H5''      -48.5287    8.4976  -10.9254 H         1   G13       0.0679
     23 H4'       -49.7981    7.2412   -9.2526 H         1   G13       0.1174
     24 H3'       -47.2763    5.8922  -10.2330 H         1   G13       0.0615
     25 H2'       -47.6372    4.1435   -8.6507 H         1   G13       0.0972
     26 H1'       -50.3704    4.0072   -9.0831 H         1   G13       0.2006
     27 H8        -49.3567    4.3483  -12.5418 H         1   G13       0.1640
     28 H1        -47.3859   -1.2697  -10.1507 H         1   G13       0.3424
     29 H21       -47.5171   -1.2631   -7.9644 H         1   G13       0.4364
     30 H22       -48.0925    0.1238   -7.0667 H         1   G13       0.4364
     31 HO2'      -48.3302    5.4819   -6.8733 H         1   G13       0.4186
     32 HO5'      -48.1244    7.4375  -13.0632 H         1   G13       0.4295
     33 P         -45.7410    7.2540   -8.5630 P.3       2   G14       1.1662
     34 OP1       -45.4130    8.4560   -7.7530 O.co2     2   G14      -0.7760
     35 OP2       -45.2930    7.1870   -9.9780 O.co2     2   G14      -0.7760
     36 O5'       -45.1870    5.9810   -7.7760 O.3       2   G14      -0.4989
     37 C5'       -45.3680    5.8570   -6.3710 C.3       2   G14       0.0558
     38 C4'       -44.9670    4.4890   -5.8720 C.3       2   G14       0.1065
     39 O4'       -45.7980    3.4730   -6.4920 O.3       2   G14      -0.3548
     40 C3'       -43.5480    4.0480   -6.1890 C.3       2   G14       0.2022
     41 O3'       -42.5830    4.5980   -5.3090 O.3       2   G14      -0.5246
     42 C2'       -43.6470    2.5280   -6.1140 C.3       2   G14       0.0670
     43 O2'       -43.6200    2.0850   -4.7650 O.3       2   G14      -0.6139
     44 C1'       -45.0500    2.2870   -6.6750 C.3       2   G14       0.0191
     45 N9        -45.0230    1.9480   -8.1130 N.ar      2   G14       0.0492
     46 C8        -45.4570    2.7140   -9.1700 C.ar      2   G14       0.1374
     47 N7        -45.2950    2.1280  -10.3260 N.ar      2   G14      -0.5709
     48 C5        -44.7220    0.9030  -10.0150 C.ar      2   G14       0.1744
     49 C6        -44.3190   -0.1650  -10.8580 C.2       2   G14       0.4770
     50 O6        -44.3910   -0.2390  -12.0900 O.2       2   G14      -0.5597
     51 N1        -43.7830   -1.2220  -10.1280 N.am      2   G14      -0.4787
     52 C2        -43.6530   -1.2490   -8.7620 C.2       2   G14       0.7657
     53 N2        -43.1120   -2.3600   -8.2420 N.pl3     2   G14      -0.9672
     54 N3        -44.0250   -0.2610   -7.9650 N.2       2   G14      -0.6323
     55 C4        -44.5480    0.7760   -8.6540 C.ar      2   G14       0.1222
     56 H5'       -44.7580    6.6082   -5.8692 H         2   G14       0.0679
     57 H5''      -46.4168    6.0308   -6.1302 H         2   G14       0.0679
     58 H4'       -45.1135    4.4520   -4.7925 H         2   G14       0.1174
     59 H3'       -43.3047    4.3389   -7.2109 H         2   G14       0.0615
     60 H2'       -42.8800    2.0412   -6.7164 H         2   G14       0.0972
     61 H1'       -45.5232    1.4749   -6.1231 H         2   G14       0.2006
     62 H8        -45.8871    3.6980   -9.0558 H         2   G14       0.1640
     63 H1        -43.4655   -2.0308  -10.6429 H         2   G14       0.3424
     64 H21       -42.8274   -3.1151   -8.8494 H         2   G14       0.4364
     65 H22       -42.9890   -2.4419   -7.2429 H         2   G14       0.4364
     66 HO2'      -42.7449    2.2295   -4.3977 H         2   G14       0.4186
     67 P         -41.0970    4.9190   -5.8360 P.3       3   G15       1.1662
     68 OP1       -40.3320    5.4600   -4.6840 O.co2     3   G15      -0.7760
     69 OP2       -41.1890    5.7060   -7.0920 O.co2     3   G15      -0.7760
     70 O5'       -40.4960    3.4890   -6.2010 O.3       3   G15      -0.4989
     71 C5'       -40.1700    2.5600   -5.1790 C.3       3   G15       0.0558
     72 C4'       -39.6460    1.2630   -5.7440 C.3       3   G15       0.1065
     73 O4'       -40.6860    0.5890   -6.5010 O.3       3   G15      -0.3548
     74 C3'       -38.4960    1.3690   -6.7300 C.3       3   G15       0.2022
     75 O3'       -37.2390    1.5880   -6.1130 O.3       3   G15      -0.5246
     76 C2'       -38.5890    0.0460   -7.4770 C.3       3   G15       0.0670
     77 O2'       -38.0520   -1.0110   -6.6960 O.3       3   G15      -0.6139
     78 C1'       -40.1040   -0.1400   -7.5650 C.3       3   G15       0.0191
     79 N9        -40.6370    0.3650   -8.8440 N.ar      3   G15       0.0492
     80 C8        -41.2720    1.5590   -9.0820 C.ar      3   G15       0.1374
     81 N7        -41.6170    1.7120  -10.3330 N.ar      3   G15      -0.5709
     82 C5        -41.1800    0.5530  -10.9590 C.ar      3   G15       0.1744
     83 C6        -41.2710    0.1420  -12.3150 C.2       3   G15       0.4770
     84 O6        -41.7730    0.7410  -13.2740 O.2       3   G15      -0.5597
     85 N1        -40.6960   -1.1100  -12.5110 N.am      3   G15      -0.4787
     86 C2        -40.1090   -1.8720  -11.5310 C.2       3   G15       0.7657
     87 N2        -39.6100   -3.0540  -11.9170 N.pl3     3   G15      -0.9672
     88 N3        -40.0190   -1.5010  -10.2650 N.2       3   G15      -0.6323
     89 C4        -40.5710   -0.2880  -10.0520 C.ar      3   G15       0.1222
     90 H5'       -41.0652    2.3527   -4.5928 H         3   G15       0.0679
     91 H5''      -39.4121    2.9972   -4.5290 H         3   G15       0.0679
     92 H4'       -39.3411    0.6196   -4.9187 H         3   G15       0.1174
     93 H3'       -38.6977    2.1843   -7.4248 H         3   G15       0.0615
     94 H2'       -38.1267    0.1006   -8.4626 H         3   G15       0.0972
     95 H1'       -40.3485   -1.1970   -7.4598 H         3   G15       0.2006
     96 H8        -41.4660    2.2946   -8.3155 H         3   G15       0.1640
     97 H1        -40.7117   -1.4879  -13.4475 H         3   G15       0.3424
     98 H21       -39.6778   -3.3394  -12.8834 H         3   G15       0.4364
     99 H22       -39.1660   -3.6596  -11.2415 H         3   G15       0.4364
    100 HO2'      -37.5367   -1.5946   -7.2576 H         3   G15       0.4186
    101 P         -36.1040    2.4230   -6.8870 P.3       4   A16       1.1662
    102 OP1       -34.9620    2.6260   -5.9610 O.co2     4   A16      -0.7760
    103 OP2       -36.7560    3.6000   -7.5170 O.co2     4   A16      -0.7760
    104 O5'       -35.6290    1.4440   -8.0510 O.3       4   A16      -0.4989
    105 C5'       -34.9950    0.2120   -7.7420 C.3       4   A16       0.0558
    106 C4'       -34.9340   -0.7140   -8.9320 C.3       4   A16       0.1065
    107 O4'       -36.2640   -0.9510   -9.4600 O.3       4   A16      -0.3548
    108 C3'       -34.1530   -0.2250  -10.1390 C.3       4   A16       0.2022
    109 O3'       -32.7510   -0.3430   -9.9810 O.3       4   A16      -0.5246
    110 C2'       -34.7140   -1.0900  -11.2590 C.3       4   A16       0.0670
    111 O2'       -34.1470   -2.3920  -11.2210 O.3       4   A16      -0.6139
    112 C1'       -36.1860   -1.1930  -10.8520 C.3       4   A16       0.0394
    113 N9        -37.0240   -0.2150  -11.5700 N.ar      4   A16      -0.0251
    114 C8        -37.5760    0.9560  -11.1140 C.ar      4   A16       0.2006
    115 N7        -38.2690    1.5980  -12.0250 N.ar      4   A16      -0.6073
    116 C5        -38.1630    0.7970  -13.1550 C.ar      4   A16       0.0515
    117 C6        -38.6730    0.9160  -14.4610 C.ar      4   A16       0.7009
    118 N6        -39.4290    1.9360  -14.8750 N.pl3     4   A16      -0.9019
    119 N1        -38.3760   -0.0630  -15.3440 N.ar      4   A16      -0.7615
    120 C2        -37.6180   -1.0890  -14.9360 C.ar      4   A16       0.5875
    121 N3        -37.0820   -1.3120  -13.7390 N.ar      4   A16      -0.6997
    122 C4        -37.3970   -0.3210  -12.8860 C.ar      4   A16       0.3053
    123 H5'       -33.9790    0.4157   -7.4039 H         4   A16       0.0679
    124 H5''      -35.5448   -0.2783   -6.9386 H         4   A16       0.0679
    125 H4'       -34.5138   -1.6666   -8.6094 H         4   A16       0.1174
    126 H3'       -34.4055    0.8179  -10.3308 H         4   A16       0.0615
    127 H2'       -34.5930   -0.6212  -12.2356 H         4   A16       0.0972
    128 H1'       -36.5476   -2.1995  -11.0627 H         4   A16       0.2007
    129 H8        -37.4520    1.3146  -10.1028 H         4   A16       0.1553
    130 H2        -37.4131   -1.8409  -15.6837 H         4   A16       0.0473
    131 HO2'      -33.6893   -2.5664  -12.0466 H         4   A16       0.4186
    132 H61       -39.9964    1.9066  -15.7100 H         4   A16       0.4115
    133 H62       -39.4336    2.7822  -14.3236 H         4   A16       0.4115
    134 P         -31.7800    0.8090  -10.5400 P.3       5   A17       1.1662
    135 OP1       -30.4140    0.5340  -10.0230 O.co2     5   A17      -0.7760
    136 OP2       -32.4150    2.1240  -10.2720 O.co2     5   A17      -0.7760
    137 O5'       -31.7610    0.5700  -12.1160 O.3       5   A17      -0.4989
    138 C5'       -30.8380   -0.3420  -12.6920 C.3       5   A17       0.0558
    139 C4'       -31.3680   -0.9720  -13.9560 C.3       5   A17       0.1065
    140 O4'       -32.8140   -1.0750  -13.9060 O.3       5   A17      -0.3548
    141 C3'       -31.1100   -0.2180  -15.2490 C.3       5   A17       0.2022
    142 O3'       -29.7880   -0.3750  -15.7290 O.3       5   A17      -0.5246
    143 C2'       -32.1680   -0.7970  -16.1770 C.3       5   A17       0.0670
    144 O2'       -31.7790   -2.0820  -16.6400 O.3       5   A17      -0.6139
    145 C1'       -33.3440   -0.9700  -15.2140 C.3       5   A17       0.0394
    146 N9        -34.2730    0.1760  -15.2710 N.ar      5   A17      -0.0251
    147 C8        -34.5540    1.1020  -14.2970 C.ar      5   A17       0.2006
    148 N7        -35.4330    2.0030  -14.6660 N.ar      5   A17      -0.6073
    149 C5        -35.7520    1.6480  -15.9700 C.ar      5   A17       0.0515
    150 C6        -36.6280    2.2040  -16.9200 C.ar      5   A17       0.7009
    151 N6        -37.3760    3.2870  -16.6940 N.pl3     5   A17      -0.9019
    152 N1        -36.7100    1.6060  -18.1290 N.ar      5   A17      -0.7615
    153 C2        -35.9610    0.5210  -18.3580 C.ar      5   A17       0.5875
    154 N3        -35.1040   -0.0950  -17.5470 N.ar      5   A17      -0.6997
    155 C4        -35.0440    0.5240  -16.3550 C.ar      5   A17       0.3053
    156 H5'       -30.6272   -1.1304  -11.9694 H         5   A17       0.0679
    157 H5''      -29.9125    0.1867  -12.9202 H         5   A17       0.0679
    158 H4'       -30.9500   -1.9745  -14.0477 H         5   A17       0.1174
    159 H3'       -31.3113    0.8418  -15.0925 H         5   A17       0.0615
    160 H2'       -32.4070   -0.1209  -16.9979 H         5   A17       0.0972
    161 H1'       -33.8824   -1.8850  -15.4609 H         5   A17       0.2007
    162 H8        -34.0948    1.0897  -13.3196 H         5   A17       0.1553
    163 H2        -36.0668    0.0833  -19.3396 H         5   A17       0.0473
    164 H61       -38.0659    3.5951  -17.3642 H         5   A17       0.4115
    165 H62       -37.2495    3.8073  -15.8376 H         5   A17       0.4115
    166 HO2'      -31.0405   -1.9939  -17.2470 H         5   A17       0.4186
    167 P         -28.9580    0.9070  -16.2240 P.3       6   G18       1.1662
    168 OP1       -27.5240    0.5270  -16.2970 O.co2     6   G18      -0.7760
    169 OP2       -29.3710    2.0640  -15.3890 O.co2     6   G18      -0.7760
    170 O5'       -29.4890    1.1610  -17.7050 O.3       6   G18      -0.4989
    171 C5'       -29.4500    0.1300  -18.6790 C.3       6   G18       0.0558
    172 C4'       -30.3350    0.4510  -19.8570 C.3       6   G18       0.1065
    173 O4'       -31.7300    0.3940  -19.4560 O.3       6   G18      -0.3548
    174 C3'       -30.1820    1.8440  -20.4440 C.3       6   G18       0.2022
    175 O3'       -29.0630    1.9730  -21.3020 O.3       6   G18      -0.5246
    176 C2'       -31.5200    2.0540  -21.1380 C.3       6   G18       0.0670
    177 O2'       -31.5660    1.3460  -22.3680 O.3       6   G18      -0.6139
    178 C1'       -32.4700    1.3750  -20.1540 C.3       6   G18       0.0191
    179 N9        -33.0100    2.3370  -19.1770 N.ar      6   G18       0.0492
    180 C8        -32.6240    2.5040  -17.8700 C.ar      6   G18       0.1374
    181 N7        -33.2870    3.4480  -17.2590 N.ar      6   G18      -0.5709
    182 C5        -34.1580    3.9360  -18.2230 C.ar      6   G18       0.1744
    183 C6        -35.1280    4.9690  -18.1490 C.2       6   G18       0.4770
    184 O6        -35.4200    5.6820  -17.1820 O.2       6   G18      -0.5597
    185 N1        -35.7920    5.1350  -19.3600 N.am      6   G18      -0.4787
    186 C2        -35.5530    4.4050  -20.4990 C.2       6   G18       0.7657
    187 N2        -36.2960    4.7140  -21.5710 N.pl3     6   G18      -0.9672
    188 N3        -34.6520    3.4400  -20.5810 N.2       6   G18      -0.6323
    189 C4        -33.9980    3.2620  -19.4140 C.ar      6   G18       0.1222
    190 H5'       -28.4244    0.0112  -19.0283 H         6   G18       0.0679
    191 H5''      -29.7835   -0.8033  -18.2252 H         6   G18       0.0679
    192 H4'       -30.1614   -0.2853  -20.6417 H         6   G18       0.1174
    193 H3'       -30.0887    2.5629  -19.6300 H         6   G18       0.0615
    194 H2'       -31.7521    3.1112  -21.2664 H         6   G18       0.0972
    195 H1'       -33.2882    0.9025  -20.6975 H         6   G18       0.2006
    196 H8        -31.8520    1.9155  -17.3966 H         6   G18       0.1640
    197 H1        -36.5058    5.8481  -19.4055 H         6   G18       0.3424
    198 H21       -36.9856    5.4496  -21.5125 H         6   G18       0.4364
    199 H22       -36.1663    4.2112  -22.4373 H         6   G18       0.4364
    200 HO2'      -31.9450    1.9084  -23.0475 H         6   G18       0.4186
    201 P         -28.2770    3.3710  -21.3880 P.3       7   A19       1.1662
    202 OP1       -26.9670    3.1270  -22.0430 O.co2     7   A19      -0.7760
    203 OP2       -28.3210    4.0060  -20.0460 O.co2     7   A19      -0.7760
    204 O5'       -29.1690    4.2500  -22.3720 O.3       7   A19      -0.4989
    205 C5'       -29.5430    3.7520  -23.6480 C.3       7   A19       0.0558
    206 C4'       -30.6920    4.5300  -24.2370 C.3       7   A19       0.1065
    207 O4'       -31.8830    4.3590  -23.4260 O.3       7   A19      -0.3548
    208 C3'       -30.5170    6.0370  -24.3090 C.3       7   A19       0.2022
    209 O3'       -29.7090    6.4480  -25.3970 O.3       7   A19      -0.5246
    210 C2'       -31.9560    6.5300  -24.3920 C.3       7   A19       0.0670
    211 O2'       -32.4650    6.3730  -25.7080 O.3       7   A19      -0.6139
    212 C1'       -32.6700    5.5320  -23.4780 C.3       7   A19       0.0394
    213 N9        -32.8420    6.0580  -22.1100 N.ar      7   A19      -0.0251
    214 C8        -32.1580    5.7150  -20.9700 C.ar      7   A19       0.2006
    215 N7        -32.5510    6.3690  -19.9020 N.ar      7   A19      -0.6073
    216 C5        -33.5620    7.1990  -20.3700 C.ar      7   A19       0.0515
    217 C6        -34.3880    8.1450  -19.7360 C.ar      7   A19       0.7009
    218 N6        -34.3270    8.4330  -18.4340 N.pl3     7   A19      -0.9019
    219 N1        -35.2940    8.7990  -20.4960 N.ar      7   A19      -0.7615
    220 C2        -35.3600    8.5150  -21.8030 C.ar      7   A19       0.5875
    221 N3        -34.6410    7.6490  -22.5120 N.ar      7   A19      -0.6997
    222 C4        -33.7500    7.0160  -21.7280 C.ar      7   A19       0.3053
    223 H5'       -28.6873    3.8238  -24.3194 H         7   A19       0.0679
    224 H5''      -29.8334    2.7059  -23.5512 H         7   A19       0.0679
    225 H4'       -30.8935    4.1524  -25.2394 H         7   A19       0.1174
    226 H3'       -30.0712    6.3900  -23.3791 H         7   A19       0.0615
    227 H2'       -32.0573    7.5549  -24.0350 H         7   A19       0.0972
    228 H1'       -33.6469    5.2928  -23.8982 H         7   A19       0.2007
    229 H8        -31.3704    4.9763  -20.9536 H         7   A19       0.1553
    230 H2        -36.1021    9.0673  -22.3604 H         7   A19       0.0473
    231 H61       -35.1703    8.8400  -18.0554 H         7   A19       0.4115
    232 H62       -33.5051    8.2583  -17.8735 H         7   A19       0.4115
    233 HO2'      -32.0277    6.9924  -26.2968 H         7   A19       0.4186
    234 P         -28.6810    7.6700  -25.2200 P.3       8   U20       1.1662
    235 OP1       -27.7630    7.6690  -26.3880 O.co2     8   U20      -0.7760
    236 OP2       -28.1190    7.6090  -23.8470 O.co2     8   U20      -0.7760
    237 O5'       -29.6060    8.9620  -25.3160 O.3       8   U20      -0.4989
    238 C5'       -30.4350    9.1760  -26.4480 C.3       8   U20       0.0558
    239 C4'       -31.4180   10.2950  -26.2150 C.3       8   U20       0.1065
    240 O4'       -32.4250    9.8840  -25.2530 O.3       8   U20      -0.3548
    241 C3'       -30.8480   11.5700  -25.6170 C.3       8   U20       0.2022
    242 O3'       -30.1780   12.3830  -26.5620 O.3       8   U20      -0.5246
    243 C2'       -32.0800   12.2210  -25.0060 C.3       8   U20       0.0670
    244 O2'       -32.8710   12.8410  -26.0090 O.3       8   U20      -0.6139
    245 C1'       -32.8340   10.9970  -24.4830 C.3       8   U20       0.0674
    246 N1        -32.5280   10.7350  -23.0580 N.am      8   U20       0.0418
    247 C2        -33.2180   11.4760  -22.1190 C.2       8   U20       0.4687
    248 O2        -34.0550   12.3090  -22.4200 O.2       8   U20      -0.5477
    249 N3        -32.8980   11.2040  -20.8120 N.am      8   U20      -0.3549
    250 C4        -31.9730   10.2870  -20.3580 C.2       8   U20       0.5952
    251 O4        -31.7970   10.1570  -19.1450 O.2       8   U20      -0.5761
    252 C5        -31.2970    9.5630  -21.3900 C.2       8   U20      -0.3635
    253 C6        -31.5890    9.8060  -22.6720 C.2       8   U20      -0.1126
    254 H5'       -29.8075    9.4293  -27.3025 H         8   U20       0.0679
    255 H5''      -30.9831    8.2596  -26.6671 H         8   U20       0.0679
    256 H4'       -31.9084   10.5360  -27.1581 H         8   U20       0.1174
    257 H3'       -30.1532   11.3076  -24.8192 H         8   U20       0.0615
    258 H2'       -31.8207   12.9133  -24.2050 H         8   U20       0.0972
    259 H1'       -33.9064   11.1500  -24.6038 H         8   U20       0.1824
    260 H3        -33.3929   11.7319  -20.1074 H         8   U20       0.3154
    261 H5        -30.5533    8.8227  -21.1346 H         8   U20       0.1811
    262 H6        -31.0662    9.2501  -23.4363 H         8   U20       0.2188
    263 HO2'      -32.4113   13.6124  -26.3484 H         8   U20       0.4186
    264 P         -28.8340   13.1520  -26.1380 P.3       9   A21       1.1662
    265 OP1       -28.3170   13.8620  -27.3360 O.co2     9   A21      -0.7760
    266 OP2       -27.9610   12.1950  -25.4120 O.co2     9   A21      -0.7760
    267 O5'       -29.3320   14.2420  -25.0900 O.3       9   A21      -0.4989
    268 C5'       -30.2360   15.2620  -25.4830 C.3       9   A21       0.0558
    269 C4'       -30.6250   16.1420  -24.3220 C.3       9   A21       0.1065
    270 O4'       -31.4700   15.4180  -23.3960 O.3       9   A21      -0.3548
    271 C3'       -29.4920   16.6520  -23.4510 C.3       9   A21       0.2022
    272 O3'       -28.8040   17.7420  -24.0380 O.3       9   A21      -0.5246
    273 C2'       -30.2070   17.0120  -22.1510 C.3       9   A21       0.0670
    274 O2'       -30.8030   18.2940  -22.2430 O.3       9   A21      -0.6139
    275 C1'       -31.3250   15.9630  -22.1020 C.3       9   A21       0.0394
    276 N9        -31.0540   14.8900  -21.1250 N.ar      9   A21      -0.0251
    277 C8        -30.3100   13.7450  -21.2610 C.ar      9   A21       0.2006
    278 N7        -30.2780   13.0130  -20.1720 N.ar      9   A21      -0.6073
    279 C5        -31.0470   13.7240  -19.2610 C.ar      9   A21       0.0515
    280 C6        -31.4050   13.4850  -17.9220 C.ar      9   A21       0.7009
    281 N6        -31.0180   12.4110  -17.2320 N.pl3     9   A21      -0.9019
    282 N1        -32.1860   14.4010  -17.3060 N.ar      9   A21      -0.7615
    283 C2        -32.5790   15.4800  -17.9960 C.ar      9   A21       0.5875
    284 N3        -32.3060   15.8140  -19.2550 N.ar      9   A21      -0.6997
    285 C4        -31.5270   14.8840  -19.8360 C.ar      9   A21       0.3053
    286 H5'       -31.1343   14.7992  -25.8915 H         9   A21       0.0679
    287 H5''      -29.7687   15.8748  -26.2539 H         9   A21       0.0679
    288 H4'       -31.1816   16.9974  -24.7050 H         9   A21       0.1174
    289 H3'       -28.7886   15.8408  -23.2629 H         9   A21       0.0615
    290 H2'       -29.5430   16.9357  -21.2899 H         9   A21       0.0972
    291 H1'       -32.2559   16.4585  -21.8262 H         9   A21       0.2007
    292 H8        -29.8011   13.4730  -22.1739 H         9   A21       0.1553
    293 H2        -33.2041   16.1753  -17.4555 H         9   A21       0.0473
    294 HO2'      -30.1203   18.9561  -22.3740 H         9   A21       0.4186
    295 H61       -31.5878   12.4632  -16.3997 H         9   A21       0.4115
    296 H62       -30.3268   11.7177  -17.4802 H         9   A21       0.4115
    297 P         -27.2520   17.6020  -24.4260 P.3      10   U22       1.1662
    298 OP1       -26.8870   18.7680  -25.2680 O.co2    10   U22      -0.7760
    299 OP2       -27.0190   16.2260  -24.9320 O.co2    10   U22      -0.7760
    300 O5'       -26.5000   17.7450  -23.0310 O.3      10   U22      -0.4989
    301 C5'       -25.2240   17.1520  -22.8180 C.3      10   U22       0.0558
    302 C4'       -25.0330   16.7580  -21.3740 C.3      10   U22       0.1065
    303 O4'       -25.2090   17.9350  -20.5380 O.3      10   U22      -0.3548
    304 C3'       -26.0190   15.7150  -20.8540 C.3      10   U22       0.2022
    305 O3'       -25.3750   14.8910  -19.8840 O.3      10   U22      -0.5246
    306 C2'       -27.0880   16.5680  -20.1770 C.3      10   U22       0.0670
    307 O2'       -27.8200   15.9030  -19.1690 O.3      10   U22      -0.6139
    308 C1'       -26.2570   17.7180  -19.6120 C.3      10   U22       0.0674
    309 N1        -27.0060   18.9760  -19.4770 N.am     10   U22       0.0418
    310 C2        -27.3000   19.4290  -18.2050 C.2      10   U22       0.4687
    311 O2        -26.9670   18.8280  -17.1990 O.2      10   U22      -0.5477
    312 N3        -28.0030   20.6100  -18.1590 N.am     10   U22      -0.3549
    313 C4        -28.4290   21.3670  -19.2340 C.2      10   U22       0.5952
    314 O4        -29.0530   22.4110  -19.0390 O.2      10   U22      -0.5761
    315 C5        -28.0830   20.8300  -20.5130 C.2      10   U22      -0.3635
    316 C6        -27.4020   19.6830  -20.5880 C.2      10   U22      -0.1126
    317 H5'       -25.1379   16.2627  -23.4423 H        10   U22       0.0679
    318 H5''      -24.4477   17.8633  -23.1001 H        10   U22       0.0679
    319 H4'       -24.0188   16.3807  -21.2427 H        10   U22       0.1174
    320 H3'       -26.4377   15.1216  -21.6668 H        10   U22       0.0615
    321 H2'       -27.7754   16.9531  -20.9302 H        10   U22       0.0972
    322 H1'       -25.8412   17.4317  -18.6460 H        10   U22       0.1824
    323 H3        -28.2328   20.9621  -17.2407 H        10   U22       0.3154
    324 H5        -28.3710   21.3495  -21.4150 H        10   U22       0.1811
    325 H6        -27.1516   19.2940  -21.5639 H        10   U22       0.2188
    326 HO2'      -28.3284   15.1889  -19.5604 H        10   U22       0.4186
    327 P         -24.5700   13.5770  -20.3430 P.3      11   A23       1.1662
    328 OP1       -24.7680   13.3830  -21.8010 O.co2    11   A23      -0.7760
    329 OP2       -24.9130   12.4790  -19.4030 O.co2    11   A23      -0.7760
    330 O5'       -23.0450   13.9640  -20.0990 O.3      11   A23      -0.4989
    331 C5'       -22.6360   14.5270  -18.8620 C.3      11   A23       0.0558
    332 C4'       -21.3390   15.2810  -18.9940 C.3      11   A23       0.1065
    333 O4'       -21.3920   16.1390  -20.1590 O.3      11   A23      -0.3548
    334 C3'       -21.0060   16.2270  -17.8510 C.3      11   A23       0.2022
    335 O3'       -20.4240   15.5690  -16.7360 O.3      11   A23      -0.5246
    336 C2'       -20.0740   17.2430  -18.5080 C.3      11   A23       0.0670
    337 O2'       -18.7480   16.7400  -18.5680 O.3      11   A23      -0.6139
    338 C1'       -20.6300   17.3060  -19.9340 C.3      11   A23       0.0394
    339 N9        -21.4640   18.5000  -20.2010 N.ar     11   A23      -0.0251
    340 C8        -21.4210   19.2100  -21.3740 C.ar     11   A23       0.2006
    341 N7        -22.2360   20.2300  -21.4230 N.ar     11   A23      -0.6073
    342 C5        -22.8720   20.1980  -20.1950 C.ar     11   A23       0.0515
    343 C6        -23.8600   21.0310  -19.6410 C.ar     11   A23       0.7009
    344 N6        -24.3830   22.0820  -20.2790 N.pl3    11   A23      -0.9019
    345 N1        -24.2980   20.7460  -18.3960 N.ar     11   A23      -0.7615
    346 C2        -23.7680   19.6920  -17.7640 C.ar     11   A23       0.5875
    347 N3        -22.8370   18.8360  -18.1830 N.ar     11   A23      -0.6997
    348 C4        -22.4150   19.1380  -19.4250 C.ar     11   A23       0.3053
    349 H5'       -22.5058   13.7252  -18.1352 H        11   A23       0.0679
    350 H5''      -23.4097   15.2078  -18.5070 H        11   A23       0.0679
    351 H4'       -20.5236   14.5677  -19.1144 H        11   A23       0.1174
    352 H3'       -21.9165   16.7335  -17.5307 H        11   A23       0.0615
    353 H2'       -20.1177   18.2129  -18.0126 H        11   A23       0.0972
    354 H1'       -19.7915   17.3091  -20.6305 H        11   A23       0.2007
    355 H8        -20.7660   18.9469  -22.1914 H        11   A23       0.1553
    356 H2        -24.1503   19.5089  -16.7707 H        11   A23       0.0473
    357 H61       -24.9812   22.8317  -19.9625 H        11   A23       0.4115
    358 H62       -24.1348   22.1368  -21.2565 H        11   A23       0.4115
    359 HO2'      -18.3825   16.6934  -17.6815 H        11   A23       0.4186
    360 P         -21.2890   15.2320  -15.4200 P.3      12   A24       1.1662
    361 OP1       -20.5420   14.1980  -14.6630 O.co2    12   A24      -0.7760
    362 OP2       -22.6980   14.9740  -15.8060 O.co2    12   A24      -0.7760
    363 O5'       -21.2660   16.5760  -14.5630 O.3      12   A24      -0.4989
    364 C5'       -22.0370   17.7060  -14.9500 C.3      12   A24       0.0558
    365 C4'       -22.8770   18.2340  -13.8150 C.3      12   A24       0.1065
    366 O4'       -23.8700   17.2540  -13.4320 O.3      12   A24      -0.3548
    367 C3'       -22.1430   18.5470  -12.5220 C.3      12   A24       0.2022
    368 O3'       -21.5180   19.8170  -12.5640 O.3      12   A24      -0.5246
    369 C2'       -23.2490   18.4610  -11.4750 C.3      12   A24       0.0670
    370 O2'       -23.9910   19.6710  -11.4320 O.3      12   A24      -0.6139
    371 C1'       -24.1480   17.3650  -12.0540 C.3      12   A24       0.0394
    372 N9        -23.9470   16.0490  -11.4160 N.ar     12   A24      -0.0251
    373 C8        -23.4460   14.9060  -11.9880 C.ar     12   A24       0.2006
    374 N7        -23.4030   13.8810  -11.1710 N.ar     12   A24      -0.6073
    375 C5        -23.9180   14.3820   -9.9840 C.ar     12   A24       0.0515
    376 C6        -24.1390   13.7920   -8.7290 C.ar     12   A24       0.7009
    377 N6        -23.8560   12.5170   -8.4570 N.pl3    12   A24      -0.9019
    378 N1        -24.6670   14.5610   -7.7520 N.ar     12   A24      -0.7615
    379 C2        -24.9500   15.8390   -8.0320 C.ar     12   A24       0.5875
    380 N3        -24.7890   16.5070   -9.1720 N.ar     12   A24      -0.6997
    381 C4        -24.2630   15.7130  -10.1210 C.ar     12   A24       0.3053
    382 H5'       -22.6950   17.4184  -15.7700 H        12   A24       0.0679
    383 H5''      -21.3660   18.4939  -15.2921 H        12   A24       0.0679
    384 H4'       -23.3893   19.1354  -14.1513 H        12   A24       0.1174
    385 H3'       -21.3957   17.7772  -12.3295 H        12   A24       0.0615
    386 H2'       -22.8588   18.1894  -10.4941 H        12   A24       0.0972
    387 H1'       -25.1893   17.6614  -11.9281 H        12   A24       0.2007
    388 H8        -23.1177   14.8556  -13.0156 H        12   A24       0.1553
    389 H2        -25.3688   16.4097   -7.2164 H        12   A24       0.0473
    390 H61       -23.4612   11.9236   -9.1726 H        12   A24       0.4115
    391 H62       -24.0366   12.1451   -7.5355 H        12   A24       0.4115
    392 HO2'      -24.4975   19.7070  -10.6173 H        12   A24       0.4186
    393 P         -19.9780   19.9930  -12.1470 P.3      13   U25       1.1662
    394 OP1       -19.4450   18.6720  -11.7210 O.co2    13   U25      -0.7760
    395 OP2       -19.9030   21.1540  -11.2260 O.co2    13   U25      -0.7760
    396 O5'       -19.2570   20.4060  -13.5070 O.3      13   U25      -0.4989
    397 C5'       -18.8230   19.4190  -14.4300 C.3      13   U25       0.0558
    398 C4'       -18.8610   19.9260  -15.8510 C.3      13   U25       0.1065
    399 O4'       -20.2350   20.0130  -16.3130 O.3      13   U25      -0.3548
    400 C3'       -18.3090   21.3240  -16.0800 C.3      13   U25       0.2022
    401 O3'       -16.8950   21.3600  -16.1520 O.3      13   U25      -0.5246
    402 C2'       -18.9960   21.7370  -17.3740 C.3      13   U25       0.0670
    403 O2'       -18.3720   21.1170  -18.4890 O.3      13   U25      -0.6139
    404 C1'       -20.3790   21.1130  -17.1890 C.3      13   U25       0.0674
    405 N1        -21.3430   22.0670  -16.5940 N.am     13   U25       0.0418
    406 C2        -21.8890   23.0430  -17.4080 C.2      13   U25       0.4687
    407 O2        -21.6180   23.1580  -18.5910 O.2      13   U25      -0.5477
    408 N3        -22.7710   23.8890  -16.7810 N.am     13   U25      -0.3549
    409 C4        -23.1540   23.8590  -15.4550 C.2      13   U25       0.5952
    410 O4        -23.9610   24.6900  -15.0360 O.2      13   U25      -0.5761
    411 C5        -22.5470   22.8210  -14.6830 C.2      13   U25      -0.3635
    412 C6        -21.6850   21.9830  -15.2650 C.2      13   U25      -0.1126
    413 H5'       -17.8003   19.1322  -14.1850 H        13   U25       0.0679
    414 H5''      -19.4682   18.5445  -14.3462 H        13   U25       0.0679
    415 H4'       -18.3200   19.2262  -16.4880 H        13   U25       0.1174
    416 H3'       -18.6428   21.9769  -15.2736 H        13   U25       0.0615
    417 H2'       -19.0467   22.8203  -17.4831 H        13   U25       0.0972
    418 H1'       -20.7550   20.7665  -18.1516 H        13   U25       0.1824
    419 H3        -23.1845   24.6119  -17.3524 H        13   U25       0.3154
    420 H5        -22.7839   22.7147  -13.6347 H        13   U25       0.1811
    421 H6        -21.2368   21.2049  -14.6650 H        13   U25       0.2188
    422 HO2'      -18.9053   21.2601  -19.2743 H        13   U25       0.4186
    423 P         -16.0950   22.6580  -15.6440 P.3      14   C26       1.1662
    424 OP1       -14.6420   22.3650  -15.7280 O.co2    14   C26      -0.7760
    425 OP2       -16.6860   23.0870  -14.3510 O.co2    14   C26      -0.7760
    426 O5'       -16.4350   23.7710  -16.7310 O.3      14   C26      -0.4989
    427 C5'       -16.0330   23.6180  -18.0830 C.3      14   C26       0.0558
    428 C4'       -16.6360   24.6880  -18.9580 C.3      14   C26       0.1065
    429 O4'       -18.0850   24.5940  -18.9240 O.3      14   C26      -0.3548
    430 C3'       -16.3570   26.1220  -18.5400 C.3      14   C26       0.2022
    431 O3'       -15.0750   26.5810  -18.9270 O.3      14   C26      -0.5246
    432 C2'       -17.5020   26.8790  -19.1920 C.3      14   C26       0.0670
    433 O2'       -17.2630   27.0420  -20.5820 O.3      14   C26      -0.6139
    434 C1'       -18.6510   25.8860  -19.0160 C.3      14   C26       0.0066
    435 N1        -19.4280   26.1570  -17.7840 N.am     14   C26      -0.0484
    436 C2        -20.3550   27.2030  -17.7980 C.2      14   C26       0.7538
    437 O2        -20.5010   27.8680  -18.8350 O.2      14   C26      -0.6252
    438 N3        -21.0740   27.4680  -16.6840 N.2      14   C26      -0.7584
    439 C4        -20.8930   26.7350  -15.5860 C.2      14   C26       0.8185
    440 N4        -21.6260   27.0360  -14.5120 N.pl3    14   C26      -0.9530
    441 C5        -19.9550   25.6630  -15.5400 C.2      14   C26      -0.5215
    442 C6        -19.2510   25.4110  -16.6510 C.2      14   C26       0.0053
    443 H5'       -14.9465   23.6835  -18.1399 H        14   C26       0.0679
    444 H5''      -16.3519   22.6397  -18.4427 H        14   C26       0.0679
    445 H4'       -16.2943   24.5435  -19.9829 H        14   C26       0.1174
    446 H3'       -16.4504   26.2008  -17.4569 H        14   C26       0.0615
    447 H2'       -17.7010   27.8289  -18.6958 H        14   C26       0.0972
    448 H1'       -19.3112   25.9345  -19.8820 H        14   C26       0.2029
    449 H5        -19.8172   25.0765  -14.6437 H        14   C26       0.1928
    450 H6        -18.5316   24.6055  -16.6525 H        14   C26       0.1958
    451 H41       -22.2893   27.7967  -14.5503 H        14   C26       0.4234
    452 H42       -21.5174   26.5031  -13.6609 H        14   C26       0.4234
    453 HO2'      -17.4592   27.9465  -20.8370 H        14   C26       0.4186
    454 P         -14.3180   27.6800  -18.0320 P.3      15   C27       1.1662
    455 OP1       -12.9040   27.7360  -18.4810 O.co2    15   C27      -0.7760
    456 OP2       -14.6270   27.4020  -16.6070 O.co2    15   C27      -0.7760
    457 O5'       -15.0220   29.0530  -18.4260 O.3      15   C27      -0.4989
    458 C5'       -14.9720   29.5340  -19.7600 C.3      15   C27       0.0558
    459 C4'       -15.9450   30.6630  -19.9840 C.3      15   C27       0.1065
    460 O4'       -17.2950   30.2360  -19.6660 O.3      15   C27      -0.3548
    461 C3'       -15.7420   31.8930  -19.1190 C.3      15   C27       0.2022
    462 O3'       -14.6980   32.7280  -19.5830 O.3      15   C27      -0.5246
    463 C2'       -17.1140   32.5500  -19.1550 C.3      15   C27       0.0670
    464 O2'       -17.3020   33.2520  -20.3760 O.3      15   C27      -0.6139
    465 C1'       -18.0340   31.3280  -19.1550 C.3      15   C27       0.0066
    466 N1        -18.5220   30.9930  -17.7960 N.am     15   C27      -0.0484
    467 C2        -19.5230   31.7890  -17.2240 C.2      15   C27       0.7538
    468 O2        -19.9740   32.7540  -17.8600 O.2      15   C27      -0.6252
    469 N3        -19.9790   31.4930  -15.9860 N.2      15   C27      -0.7584
    470 C4        -19.4800   30.4510  -15.3220 C.2      15   C27       0.8185
    471 N4        -19.9600   30.1950  -14.1030 N.pl3    15   C27      -0.9530
    472 C5        -18.4630   29.6230  -15.8780 C.2      15   C27      -0.5215
    473 C6        -18.0190   29.9260  -17.1050 C.2      15   C27       0.0053
    474 H5'       -15.2169   28.7172  -20.4390 H        15   C27       0.0679
    475 H5''      -13.9628   29.8854  -19.9746 H        15   C27       0.0679
    476 H4'       -15.9065   30.9589  -21.0324 H        15   C27       0.1174
    477 H3'       -15.5224   31.5799  -18.0983 H        15   C27       0.0615
    478 H2'       -17.2835   33.1880  -18.2876 H        15   C27       0.0972
    479 H1'       -18.8870   31.5205  -19.8057 H        15   C27       0.2029
    480 H5        -18.0645   28.7818  -15.3304 H        15   C27       0.1928
    481 H6        -17.2501   29.3166  -17.5563 H        15   C27       0.1958
    482 H41       -20.6807   30.7835  -13.7102 H        15   C27       0.4234
    483 H42       -19.6024   29.4128  -13.5735 H        15   C27       0.4234
    484 HO2'      -18.2181   33.5300  -20.4475 H        15   C27       0.4186
    485 P         -13.7430   33.4760  -18.5310 P.3      16   U28       1.1662
    486 OP1       -12.5780   34.0090  -19.2820 O.co2    16   U28      -0.7760
    487 OP2       -13.5260   32.5670  -17.3750 O.co2    16   U28      -0.7760
    488 O5'       -14.6190   34.7020  -18.0150 O.3      16   U28      -0.4989
    489 C5'       -15.2450   35.5920  -18.9260 C.3      16   U28       0.0558
    490 C4'       -16.2990   36.4210  -18.2380 C.3      16   U28       0.1065
    491 O4'       -17.4040   35.5760  -17.8260 O.3      16   U28      -0.3548
    492 C3'       -15.8630   37.1050  -16.9530 C.3      16   U28       0.2022
    493 O3'       -15.1380   38.2980  -17.1880 O.3      16   U28      -0.5246
    494 C2'       -17.1840   37.3200  -16.2250 C.3      16   U28       0.0670
    495 O2'       -17.8700   38.4470  -16.7500 O.3      16   U28      -0.6139
    496 C1'       -17.9550   36.0580  -16.6170 C.3      16   U28       0.0674
    497 N1        -17.8630   34.9930  -15.5910 N.am     16   U28       0.0418
    498 C2        -18.6780   35.0940  -14.4790 C.2      16   U28       0.4687
    499 O2        -19.4540   36.0170  -14.3080 O.2      16   U28      -0.5477
    500 N3        -18.5490   34.0740  -13.5690 N.am     16   U28      -0.3549
    501 C4        -17.7090   32.9830  -13.6560 C.2      16   U28       0.5952
    502 O4        -17.7070   32.1460  -12.7530 O.2      16   U28      -0.5761
    503 C5        -16.9000   32.9480  -14.8350 C.2      16   U28      -0.3635
    504 C6        -17.0040   33.9280  -15.7390 C.2      16   U28      -0.1126
    505 H5'       -15.7115   35.0143  -19.7240 H        16   U28       0.0679
    506 H5''      -14.4924   36.2534  -19.3552 H        16   U28       0.0679
    507 H4'       -16.6683   37.1745  -18.9337 H        16   U28       0.1174
    508 H3'       -15.2441   36.4187  -16.3751 H        16   U28       0.0615
    509 H2'       -17.0465   37.3939  -15.1462 H        16   U28       0.0972
    510 H1'       -19.0027   36.3128  -16.7767 H        16   U28       0.1824
    511 H3        -19.1325   34.1283  -12.7464 H        16   U28       0.3154
    512 H5        -16.2084   32.1340  -14.9944 H        16   U28       0.1811
    513 H6        -16.3868   33.8816  -16.6240 H        16   U28       0.2188
    514 HO2'      -17.7832   39.1861  -16.1435 H        16   U28       0.4186
    515 P         -13.9160   38.6990  -16.2280 P.3      17   A29       1.1662
    516 OP1       -12.9860   39.5610  -17.0030 O.co2    17   A29      -0.7760
    517 OP2       -13.4100   37.4600  -15.5870 O.co2    17   A29      -0.7760
    518 O5'       -14.5980   39.5930  -15.1020 O.3      17   A29      -0.4989
    519 C5'       -15.4070   40.7060  -15.4520 C.3      17   A29       0.0558
    520 C4'       -16.3330   41.0860  -14.3270 C.3      17   A29       0.1065
    521 O4'       -17.3080   40.0330  -14.1160 O.3      17   A29      -0.3548
    522 C3'       -15.6790   41.2600  -12.9670 C.3      17   A29       0.2022
    523 O3'       -15.0640   42.5260  -12.8130 O.3      17   A29      -0.5246
    524 C2'       -16.8370   41.0200  -12.0070 C.3      17   A29       0.0670
    525 O2'       -17.6610   42.1720  -11.9170 O.3      17   A29      -0.6139
    526 C1'       -17.6140   39.9270  -12.7420 C.3      17   A29       0.0394
    527 N9        -17.2470   38.5720  -12.2840 N.ar     17   A29      -0.0251
    528 C8        -16.3810   37.6910  -12.8840 C.ar     17   A29       0.2006
    529 N7        -16.2560   36.5520  -12.2480 N.ar     17   A29      -0.6073
    530 C5        -17.0980   36.6890  -11.1540 C.ar     17   A29       0.0515
    531 C6        -17.4130   35.8240  -10.0910 C.ar     17   A29       0.7009
    532 N6        -16.8930   34.6020   -9.9540 N.pl3    17   A29      -0.9019
    533 N1        -18.2900   36.2640   -9.1630 N.ar     17   A29      -0.7615
    534 C2        -18.8090   37.4910   -9.3030 C.ar     17   A29       0.5875
    535 N3        -18.5920   38.3940  -10.2570 N.ar     17   A29      -0.6997
    536 C4        -17.7160   37.9280  -11.1630 C.ar     17   A29       0.3053
    537 H5'       -16.0010   40.4508  -16.3296 H        17   A29       0.0679
    538 H5''      -14.7650   41.5544  -15.6890 H        17   A29       0.0679
    539 H4'       -16.8546   42.0059  -14.5911 H        17   A29       0.1174
    540 H3'       -14.9310   40.4796  -12.8273 H        17   A29       0.0615
    541 H2'       -16.4927   40.6873  -11.0278 H        17   A29       0.0972
    542 H1'       -18.6830   40.0817  -12.5959 H        17   A29       0.2007
    543 H8        -15.8509   37.9165  -13.7975 H        17   A29       0.1553
    544 H2        -19.5028   37.7907   -8.5315 H        17   A29       0.0473
    545 H61       -17.3092   33.8899   -9.3712 H        17   A29       0.4115
    546 H62       -16.0452   34.3797  -10.4558 H        17   A29       0.4115
    547 HO2'      -17.1877   42.8694  -11.4574 H        17   A29       0.4186
    548 P         -13.6370   42.6460  -12.0850 P.3      18   A30       1.1662
    549 OP1       -12.9000   43.7720  -12.7130 O.co2    18   A30      -0.7760
    550 OP2       -13.0250   41.2940  -12.0460 O.co2    18   A30      -0.7760
    551 O5'       -14.0070   43.0660  -10.5940 O.3      18   A30      -0.4989
    552 C5'       -13.6660   42.2370   -9.4950 C.3      18   A30       0.0558
    553 C4'       -14.8390   42.0450   -8.5690 C.3      18   A30       0.1065
    554 O4'       -15.6800   40.9680   -9.0590 O.3      18   A30      -0.3548
    555 C3'       -14.4960   41.6300   -7.1480 C.3      18   A30       0.2022
    556 O3'       -14.1260   42.7270   -6.3350 O.3      18   A30      -0.5246
    557 C2'       -15.7670   40.9310   -6.6880 C.3      18   A30       0.0670
    558 O2'       -16.7600   41.8810   -6.3330 O.3      18   A30      -0.6139
    559 C1'       -16.2050   40.2320   -7.9740 C.3      18   A30       0.0394
    560 N9        -15.6880   38.8530   -8.0580 N.ar     18   A30      -0.0251
    561 C8        -14.8250   38.3500   -9.0000 C.ar     18   A30       0.2006
    562 N7        -14.5360   37.0840   -8.8310 N.ar     18   A30      -0.6073
    563 C5        -15.2590   36.7260   -7.7020 C.ar     18   A30       0.0515
    564 C6        -15.3800   35.5110   -7.0050 C.ar     18   A30       0.7009
    565 N6        -14.7480   34.3900   -7.3600 N.pl3    18   A30      -0.9019
    566 N1        -16.1800   35.4870   -5.9170 N.ar     18   A30      -0.7615
    567 C2        -16.8110   36.6120   -5.5620 C.ar     18   A30       0.5875
    568 N3        -16.7780   37.8130   -6.1370 N.ar     18   A30      -0.6997
    569 C4        -15.9750   37.8050   -7.2150 C.ar     18   A30       0.3053
    570 H5'       -12.8489   42.6998   -8.9415 H        18   A30       0.0679
    571 H5''      -13.3410   41.2654   -9.8670 H        18   A30       0.0679
    572 H4'       -15.4222   42.9654   -8.5391 H        18   A30       0.1174
    573 H3'       -13.6786   40.9093   -7.1720 H        18   A30       0.0615
    574 H2'       -15.5743   40.2217   -5.8831 H        18   A30       0.0972
    575 H1'       -17.2934   40.2196   -8.0320 H        18   A30       0.2007
    576 H8        -14.4214   38.9441   -9.8066 H        18   A30       0.1553
    577 H2        -17.4359   36.5355   -4.6845 H        18   A30       0.0473
    578 H61       -15.2303   33.6163   -6.9253 H        18   A30       0.4115
    579 H62       -13.9347   34.3270   -7.9555 H        18   A30       0.4115
    580 HO2'      -16.4997   42.3300   -5.5254 H        18   A30       0.4186
    581 P         -12.7880   42.6570   -5.4510 P.3      19   U31       1.1662
    582 OP1       -12.6400   43.9550   -4.7450 O.co2    19   U31      -0.7760
    583 OP2       -11.6930   42.1520   -6.3200 O.co2    19   U31      -0.7760
    584 O5'       -13.1090   41.5380   -4.3650 O.3      19   U31      -0.4989
    585 C5'       -14.2390   41.6540   -3.5140 C.3      19   U31       0.0558
    586 C4'       -14.4900   40.3720   -2.7640 C.3      19   U31       0.1065
    587 O4'       -14.9660   39.3470   -3.6750 O.3      19   U31      -0.3548
    588 C3'       -13.2730   39.7420   -2.1110 C.3      19   U31       0.2022
    589 O3'       -12.9230   40.3550   -0.8850 O.3      19   U31      -0.5246
    590 C2'       -13.6900   38.2840   -1.9760 C.3      19   U31       0.0670
    591 O2'       -14.5660   38.1110   -0.8720 O.3      19   U31      -0.6139
    592 C1'       -14.4910   38.0820   -3.2630 C.3      19   U31       0.0674
    593 N1        -13.6620   37.5070   -4.3470 N.am     19   U31       0.0418
    594 C2        -13.4290   36.1440   -4.3200 C.2      19   U31       0.4687
    595 O2        -13.8710   35.4070   -3.4550 O.2      19   U31      -0.5477
    596 N3        -12.6540   35.6700   -5.3480 N.am     19   U31      -0.3549
    597 C4        -12.1020   36.4020   -6.3770 C.2      19   U31       0.5952
    598 O4        -11.4280   35.8240   -7.2290 O.2      19   U31      -0.5761
    599 C5        -12.3870   37.8040   -6.3350 C.2      19   U31      -0.3635
    600 C6        -13.1400   38.2950   -5.3460 C.2      19   U31      -0.1126
    601 H5'       -14.0634   42.4564   -2.7975 H        19   U31       0.0679
    602 H5''      -15.1162   41.8954   -4.1143 H        19   U31       0.0679
    603 H4'       -15.2491   40.5496   -2.0022 H        19   U31       0.1174
    604 H3'       -12.4276   39.8082   -2.7959 H        19   U31       0.0615
    605 H2'       -12.8295   37.6170   -1.9223 H        19   U31       0.0972
    606 H1'       -15.3368   37.4236   -3.0647 H        19   U31       0.1824
    607 H3        -12.4679   34.6773   -5.3510 H        19   U31       0.3154
    608 H5        -11.9960   38.4610   -7.0978 H        19   U31       0.1811
    609 H6        -13.3472   39.3548   -5.3307 H        19   U31       0.2188
    610 HO2'      -14.9366   37.2257   -0.8932 H        19   U31       0.4186
    611 P         -11.3770   40.5360   -0.4920 P.3      20   G32       1.1662
    612 OP1       -11.2990   41.4720    0.6580 O.co2    20   G32      -0.7760
    613 OP2       -10.6170   40.8320   -1.7350 O.co2    20   G32      -0.7760
    614 O5'       -10.9480   39.0910    0.0190 O.3      20   G32      -0.4989
    615 C5'       -11.7100   38.4240    1.0120 C.3      20   G32       0.0558
    616 C4'       -11.3140   36.9760    1.1370 C.3      20   G32       0.1065
    617 O4'       -11.7360   36.2370   -0.0370 O.3      20   G32      -0.3548
    618 C3'        -9.8240   36.6980    1.2260 C.3      20   G32       0.2022
    619 O3'        -9.3020   36.9310    2.5220 O.3      20   G32      -0.5246
    620 C2'        -9.7290   35.2440    0.7750 C.3      20   G32       0.0670
    621 O2'       -10.0740   34.3660    1.8360 O.3      20   G32      -0.6139
    622 C1'       -10.8330   35.1780   -0.2850 C.3      20   G32       0.0191
    623 N9        -10.3100   35.2970   -1.6600 N.ar     20   G32       0.0492
    624 C8        -10.2670   36.4200   -2.4510 C.ar     20   G32       0.1374
    625 N7         -9.7480   36.1970   -3.6300 N.ar     20   G32      -0.5709
    626 C5         -9.4320   34.8450   -3.6170 C.ar     20   G32       0.1744
    627 C6         -8.8430   34.0260   -4.6170 C.2      20   G32       0.4770
    628 O6         -8.4700   34.3460   -5.7510 O.2      20   G32      -0.5597
    629 N1         -8.7010   32.7110   -4.1850 N.am     20   G32      -0.4787
    630 C2         -9.0770   32.2410   -2.9510 C.2      20   G32       0.7657
    631 N2         -8.8590   30.9380   -2.7190 N.pl3    20   G32      -0.9672
    632 N3         -9.6280   32.9930   -2.0130 N.2      20   G32      -0.6323
    633 C4         -9.7740   34.2750   -2.4100 C.ar     20   G32       0.1222
    634 H5'       -11.5509   38.9179    1.9706 H        20   G32       0.0679
    635 H5''      -12.7666   38.4837    0.7509 H        20   G32       0.0679
    636 H4'       -11.8036   36.5522    2.0138 H        20   G32       0.1174
    637 H3'        -9.2987   37.3298    0.5098 H        20   G32       0.0615
    638 H2'        -8.7496   35.0112    0.3569 H        20   G32       0.0972
    639 H1'       -11.3623   34.2302   -0.1875 H        20   G32       0.2006
    640 H8        -10.6252   37.3875   -2.1314 H        20   G32       0.1640
    641 H1         -8.2894   32.0510   -4.8292 H        20   G32       0.3424
    642 H21        -8.4388   30.3612   -3.4337 H        20   G32       0.4364
    643 H22        -9.1150   30.5337   -1.8296 H        20   G32       0.4364
    644 HO2'       -9.3006   34.2021    2.3806 H        20   G32       0.4186
    645 P          -7.7140   36.9540    2.7610 P.3      21   A33       1.1662
    646 OP1        -7.4510   37.6200    4.0620 O.co2    21   A33      -0.7760
    647 OP2        -7.0660   37.4680    1.5270 O.co2    21   A33      -0.7760
    648 O5'        -7.3400   35.4150    2.9140 O.3      21   A33      -0.4989
    649 C5'        -6.0700   34.9270    2.5180 C.3      21   A33       0.0558
    650 C4'        -6.0590   33.4210    2.4740 C.3      21   A33       0.1065
    651 O4'        -6.8870   32.9500    1.3820 O.3      21   A33      -0.3548
    652 C3'        -4.7100   32.7740    2.2190 C.3      21   A33       0.2022
    653 O3'        -3.9180   32.7010    3.3920 O.3      21   A33      -0.5246
    654 C2'        -5.0950   31.4110    1.6560 C.3      21   A33       0.0670
    655 O2'        -5.4560   30.5210    2.7020 O.3      21   A33      -0.6139
    656 C1'        -6.3530   31.7520    0.8570 C.3      21   A33       0.0394
    657 N9         -6.0760   31.9370   -0.5820 N.ar     21   A33      -0.0251
    658 C8         -6.1890   33.0850   -1.3280 C.ar     21   A33       0.2006
    659 N7         -5.8770   32.9270   -2.5920 N.ar     21   A33      -0.6073
    660 C5         -5.5410   31.5830   -2.6880 C.ar     21   A33       0.0515
    661 C6         -5.1200   30.7860   -3.7680 C.ar     21   A33       0.7009
    662 N6         -4.9560   31.2470   -5.0110 N.pl3    21   A33      -0.9019
    663 N1         -4.8640   29.4820   -3.5250 N.ar     21   A33      -0.7615
    664 C2         -5.0250   29.0220   -2.2790 C.ar     21   A33       0.5875
    665 N3         -5.4170   29.6690   -1.1840 N.ar     21   A33      -0.6997
    666 C4         -5.6620   30.9620   -1.4580 C.ar     21   A33       0.3053
    667 H5'        -5.3193   35.2680    3.2309 H        21   A33       0.0679
    668 H5''       -5.8285   35.3165    1.5290 H        21   A33       0.0679
    669 H4'        -6.4616   33.0382    3.4118 H        21   A33       0.1174
    670 H3'        -4.1755   33.3415    1.4572 H        21   A33       0.0615
    671 H2'        -4.3108   30.9967    1.0223 H        21   A33       0.0972
    672 H1'        -7.0825   30.9515    0.9803 H        21   A33       0.2007
    673 H8         -6.5055   34.0301   -0.9121 H        21   A33       0.1553
    674 H2         -4.8049   27.9736   -2.1419 H        21   A33       0.0473
    675 HO2'       -5.2491   29.6203    2.4421 H        21   A33       0.4186
    676 H61        -4.4148   30.5634   -5.5208 H        21   A33       0.4115
    677 H62        -5.3091   32.1205   -5.3749 H        21   A33       0.4115
    678 P          -2.3360   32.9690    3.3260 P.3      22   U34       1.1662
    679 OP1        -1.8440   33.1090    4.7200 O.co2    22   U34      -0.7760
    680 OP2        -2.0790   34.0490    2.3390 O.co2    22   U34      -0.7760
    681 O5'        -1.7500   31.6100    2.7440 O.3      22   U34      -0.4989
    682 C5'        -2.1550   30.3610    3.2890 C.3      22   U34       0.0558
    683 C4'        -1.8300   29.2150    2.3670 C.3      22   U34       0.1065
    684 O4'        -2.4450   29.4470    1.0690 O.3      22   U34      -0.3548
    685 C3'        -0.3410   28.9980    2.1080 C.3      22   U34       0.2022
    686 O3'        -0.0630   27.6030    2.0460 O.3      22   U34      -0.5246
    687 C2'        -0.1270   29.6290    0.7360 C.3      22   U34       0.0670
    688 O2'         0.9440   29.0740    0.0020 O.3      22   U34      -0.6139
    689 C1'        -1.4650   29.3690    0.0530 C.3      22   U34       0.0674
    690 N1         -1.7900   30.3620   -0.9820 N.am     22   U34       0.0418
    691 C2         -1.6490   29.9850   -2.3030 C.2      22   U34       0.4687
    692 O2         -1.2820   28.8710   -2.6360 O.2      22   U34      -0.5477
    693 N3         -1.9560   30.9600   -3.2200 N.am     22   U34      -0.3549
    694 C4         -2.3760   32.2490   -2.9550 C.2      22   U34       0.5952
    695 O4         -2.6180   33.0140   -3.8910 O.2      22   U34      -0.5761
    696 C5         -2.4940   32.5610   -1.5630 C.2      22   U34      -0.3635
    697 C6         -2.2020   31.6310   -0.6470 C.2      22   U34      -0.1126
    698 H5'        -3.2316   30.3828    3.4582 H        22   U34       0.0679
    699 H5''       -1.6478   30.2067    4.2414 H        22   U34       0.0679
    700 H4'        -2.2458   28.3004    2.7898 H        22   U34       0.1174
    701 H3'         0.2676   29.4886    2.8676 H        22   U34       0.0615
    702 H2'         0.0239   30.7028    0.8472 H        22   U34       0.0972
    703 H1'        -1.4668   28.3700   -0.3830 H        22   U34       0.1824
    704 H3         -1.8648   30.7073   -4.1936 H        22   U34       0.3154
    705 H5         -2.8176   33.5438   -1.2534 H        22   U34       0.1811
    706 H6         -2.2934   31.8869    0.3983 H        22   U34       0.2188
    707 HO2'        1.6680   28.8678    0.5978 H        22   U34       0.4186
    708 P           0.8380   26.9300    3.1910 P.3      23   A35       1.1662
    709 OP1         0.2280   27.2450    4.5090 O.co2    23   A35      -0.7760
    710 OP2         2.2520   27.2990    2.9230 O.co2    23   A35      -0.7760
    711 O5'         0.6760   25.3690    2.9360 O.3      23   A35      -0.4989
    712 C5'        -0.5570   24.7080    3.1960 C.3      23   A35       0.0558
    713 C4'        -0.4720   23.2400    2.8600 C.3      23   A35       0.1065
    714 O4'        -0.2990   23.0930    1.4260 O.3      23   A35      -0.3548
    715 C3'         0.6920   22.4980    3.5080 C.3      23   A35       0.2022
    716 O3'         0.3050   21.1530    3.7820 O.3      23   A35      -0.5246
    717 C2'         1.7600   22.5260    2.4170 C.3      23   A35       0.0670
    718 O2'         2.7130   21.4880    2.4960 O.3      23   A35      -0.6139
    719 C1'         0.9190   22.4280    1.1470 C.3      23   A35       0.0394
    720 N9          1.5260   23.0930   -0.0090 N.ar     23   A35      -0.0251
    721 C8          1.3760   24.4100   -0.3640 C.ar     23   A35       0.2006
    722 N7          2.0220   24.7450   -1.4510 N.ar     23   A35      -0.6073
    723 C5          2.6380   23.5660   -1.8440 C.ar     23   A35       0.0515
    724 C6          3.4740   23.2620   -2.9320 C.ar     23   A35       0.7009
    725 N6          3.8420   24.1580   -3.8500 N.pl3    23   A35      -0.9019
    726 N1          3.9230   21.9920   -3.0450 N.ar     23   A35      -0.7615
    727 C2          3.5510   21.1000   -2.1190 C.ar     23   A35       0.5875
    728 N3          2.7700   21.2650   -1.0530 N.ar     23   A35      -0.6997
    729 C4          2.3380   22.5360   -0.9700 C.ar     23   A35       0.3053
    730 H5'        -0.8025   24.8169    4.2524 H        23   A35       0.0679
    731 H5''       -1.3429   25.1675    2.5966 H        23   A35       0.0679
    732 H4'        -1.4042   22.7572    3.1534 H        23   A35       0.1174
    733 H3'         1.0330   23.0049    4.4107 H        23   A35       0.0615
    734 H2'         2.2718   23.4882    2.4376 H        23   A35       0.0972
    735 H1'         0.7241   21.3817    0.9119 H        23   A35       0.2007
    736 H8          0.7780   25.1077    0.2034 H        23   A35       0.1553
    737 H2          3.9406   20.1021   -2.2562 H        23   A35       0.0473
    738 H61         4.8052   24.4620   -3.8506 H        23   A35       0.4115
    739 H62         3.1798   24.5198   -4.5213 H        23   A35       0.4115
    740 HO2'        3.2220   21.5811    3.3046 H        23   A35       0.4186
    741 P          -0.1750   20.7390    5.2600 P.3      24   U36       1.1662
    742 OP1         0.9120   21.0890    6.2090 O.co2    24   U36      -0.7760
    743 OP2        -0.6830   19.3450    5.2000 O.co2    24   U36      -0.7760
    744 O5'        -1.4070   21.7040    5.5650 O.3      24   U36      -0.4989
    745 C5'        -2.7260   21.1810    5.6940 C.3      24   U36       0.0558
    746 C4'        -3.5370   21.9150    6.7380 C.3      24   U36       0.1065
    747 O4'        -2.8980   21.7820    8.0380 O.3      24   U36      -0.3548
    748 C3'        -3.7230   23.4160    6.5070 C.3      24   U36       0.2022
    749 O3'        -5.0130   23.8050    6.9770 O.3      24   U36      -0.5246
    750 C2'        -2.6640   24.0270    7.4180 C.3      24   U36       0.0670
    751 O2'        -2.9290   25.3550    7.8160 O.3      24   U36      -0.6139
    752 C1'        -2.6960   23.0640    8.6000 C.3      24   U36       0.0674
    753 N1         -1.4620   23.0390    9.3980 N.am     24   U36       0.0418
    754 C2         -1.5910   23.1810   10.7660 C.2      24   U36       0.4687
    755 O2         -2.6700   23.3140   11.3170 O.2      24   U36      -0.5477
    756 N3         -0.4120   23.1530   11.4690 N.am     24   U36      -0.3549
    757 C4          0.8580   23.0060   10.9520 C.2      24   U36       0.5952
    758 O4          1.8260   23.0020   11.7160 O.2      24   U36      -0.5761
    759 C5          0.9080   22.8700    9.5280 C.2      24   U36      -0.3635
    760 C6         -0.2250   22.8920    8.8160 C.2      24   U36      -0.1126
    761 H5'        -3.2325   21.2676    4.7327 H        24   U36       0.0679
    762 H5''       -2.6645   20.1280    5.9687 H        24   U36       0.0679
    763 H4'        -4.5226   21.4527    6.7926 H        24   U36       0.1174
    764 H3'        -3.5699   23.6898    5.4631 H        24   U36       0.0615
    765 H2'        -1.6898   23.9778    6.9316 H        24   U36       0.0972
    766 H1'        -3.5385   23.3123    9.2454 H        24   U36       0.1824
    767 H3         -0.4823   23.2505   12.4718 H        24   U36       0.3154
    768 H5          1.8583   22.7499    9.0290 H        24   U36       0.1811
    769 H6         -0.1653   22.7903    7.7425 H        24   U36       0.2188
    770 HO2'       -2.9007   25.9312    7.0487 H        24   U36       0.4186
    771 P          -6.2740   23.8250    5.9810 P.3      25   G37       1.1662
    772 OP1        -7.4140   24.4370    6.7080 O.co2    25   G37      -0.7760
    773 OP2        -6.4260   22.4730    5.3850 O.co2    25   G37      -0.7760
    774 O5'        -5.8350   24.8260    4.8230 O.3      25   G37      -0.4989
    775 C5'        -5.8570   26.2310    5.0240 C.3      25   G37       0.0558
    776 C4'        -5.6340   26.9680    3.7280 C.3      25   G37       0.1065
    777 O4'        -4.3190   26.6480    3.2090 O.3      25   G37      -0.3548
    778 C3'        -6.5820   26.6080    2.5950 C.3      25   G37       0.2022
    779 O3'        -7.8100   27.3090    2.6750 O.3      25   G37      -0.5246
    780 C2'        -5.7720   26.9450    1.3500 C.3      25   G37       0.0670
    781 O2'        -5.8270   28.3360    1.0780 O.3      25   G37      -0.6139
    782 C1'        -4.3530   26.5930    1.7990 C.3      25   G37       0.0191
    783 N9         -3.9430   25.2420    1.3760 N.ar     25   G37       0.0492
    784 C8         -4.1950   24.0570    2.0230 C.ar     25   G37       0.1374
    785 N7         -3.6940   23.0220    1.4060 N.ar     25   G37      -0.5709
    786 C5         -3.0720   23.5580    0.2870 C.ar     25   G37       0.1744
    787 C6         -2.3530   22.9250   -0.7590 C.2      25   G37       0.4770
    788 O6         -2.1150   21.7210   -0.9140 O.2      25   G37      -0.5597
    789 N1         -1.8880   23.8440   -1.6940 N.am     25   G37      -0.4787
    790 C2         -2.0860   25.2010   -1.6340 C.2      25   G37       0.7657
    791 N2         -1.5570   25.9210   -2.6340 N.pl3    25   G37      -0.9672
    792 N3         -2.7530   25.8050   -0.6640 N.2      25   G37      -0.6323
    793 C4         -3.2150   24.9280    0.2540 C.ar     25   G37       0.1222
    794 H5'        -6.8258   26.5168    5.4338 H        25   G37       0.0679
    795 H5''       -5.0739   26.5043    5.7312 H        25   G37       0.0679
    796 H4'        -5.6922   28.0405    3.9137 H        25   G37       0.1174
    797 H3'        -6.7779   25.5360    2.6171 H        25   G37       0.0615
    798 H2'        -6.0840   26.3515    0.4907 H        25   G37       0.0972
    799 H1'        -3.6548   27.3250    1.3930 H        25   G37       0.2006
    800 H8         -4.7503   23.9888    2.9468 H        25   G37       0.1640
    801 H1         -1.3635   23.4845   -2.4787 H        25   G37       0.3424
    802 H21        -1.0477   25.4595   -3.3741 H        25   G37       0.4364
    803 H22        -1.6679   26.9248   -2.6471 H        25   G37       0.4364
    804 HO2'       -5.4801   28.5046    0.1989 H        25   G37       0.4186
    805 P          -9.1700   26.6180    2.1750 P.3      26   G38       1.1662
    806 OP1       -10.2950   27.5240    2.5240 O.co2    26   G38      -0.7760
    807 OP2        -9.1720   25.2140    2.6530 O.co2    26   G38      -0.7760
    808 O5'        -9.0290   26.5920    0.5890 O.3      26   G38      -0.4989
    809 C5'        -8.9990   27.7960   -0.1600 C.3      26   G38       0.0558
    810 C4'        -8.6190   27.5450   -1.5970 C.3      26   G38       0.1065
    811 O4'        -7.2750   27.0080   -1.6660 O.3      26   G38      -0.3548
    812 C3'        -9.4580   26.5260   -2.3490 C.3      26   G38       0.2022
    813 O3'       -10.6850   27.0600   -2.8110 O.3      26   G38      -0.5246
    814 C2'        -8.5230   26.0950   -3.4740 C.3      26   G38       0.0670
    815 O2'        -8.5260   27.0540   -4.5210 O.3      26   G38      -0.6139
    816 C1'        -7.1600   26.1440   -2.7770 C.3      26   G38       0.0191
    817 N9         -6.7210   24.8140   -2.3120 N.ar     26   G38       0.0492
    818 C8         -7.1720   24.1050   -1.2240 C.ar     26   G38       0.1374
    819 N7         -6.5870   22.9450   -1.0880 N.ar     26   G38      -0.5709
    820 C5         -5.6980   22.8810   -2.1520 C.ar     26   G38       0.1744
    821 C6         -4.7860   21.8630   -2.5330 C.2      26   G38       0.4770
    822 O6         -4.5700   20.7740   -1.9880 O.2      26   G38      -0.5597
    823 N1         -4.0770   22.2120   -3.6790 N.am     26   G38      -0.4787
    824 C2         -4.2260   23.3880   -4.3710 C.2      26   G38       0.7657
    825 N2         -3.4500   23.5380   -5.4550 N.pl3    26   G38      -0.9672
    826 N3         -5.0730   24.3440   -4.0280 N.2      26   G38      -0.6323
    827 C4         -5.7720   24.0250   -2.9180 C.ar     26   G38       0.1222
    828 H5'        -9.9868   28.2558   -0.1304 H        26   G38       0.0679
    829 H5''       -8.2747   28.4768    0.2872 H        26   G38       0.0679
    830 H4'        -8.6473   28.4909   -2.1380 H        26   G38       0.1174
    831 H3'        -9.6575   25.6736   -1.6996 H        26   G38       0.0615
    832 H2'        -8.7582   25.0948   -3.8378 H        26   G38       0.0972
    833 H1'        -6.4183   26.5451   -3.4678 H        26   G38       0.2006
    834 H8         -7.9328   24.4701   -0.5500 H        26   G38       0.1640
    835 H1         -3.4005   21.5484   -4.0284 H        26   G38       0.3424
    836 H21        -2.8034   22.8081   -5.7181 H        26   G38       0.4364
    837 H22        -3.5124   24.3809   -6.0080 H        26   G38       0.4364
    838 HO2'       -9.3748   27.0365   -4.9692 H        26   G38       0.4186
    839 P         -12.0300   26.1840   -2.7390 P.3      27   U39       1.1662
    840 OP1       -11.6760   24.8480   -2.1980 O.co2    27   U39      -0.7760
    841 OP2       -12.7170   26.2850   -4.0520 O.co2    27   U39      -0.7760
    842 O5'       -12.9260   26.9450   -1.6650 O.3      27   U39      -0.4989
    843 C5'       -12.5710   26.9530   -0.2910 C.3      27   U39       0.0558
    844 C4'       -12.9570   28.2500    0.3760 C.3      27   U39       0.1065
    845 O4'       -12.0380   29.3020   -0.0140 O.3      27   U39      -0.3548
    846 C3'       -14.3250   28.8090    0.0160 C.3      27   U39       0.2022
    847 O3'       -15.3830   28.1890    0.7240 O.3      27   U39      -0.5246
    848 C2'       -14.1710   30.2870    0.3410 C.3      27   U39       0.0670
    849 O2'       -14.2910   30.5050    1.7390 O.3      27   U39      -0.6139
    850 C1'       -12.7190   30.5390   -0.0650 C.3      27   U39       0.0674
    851 N1        -12.6070   31.0960   -1.4320 N.am     27   U39       0.0418
    852 C2        -12.9280   32.4310   -1.6040 C.2      27   U39       0.4687
    853 O2        -13.2990   33.1510   -0.6930 O.2      27   U39      -0.5477
    854 N3        -12.8010   32.8970   -2.8890 N.am     27   U39      -0.3549
    855 C4        -12.3920   32.1780   -3.9920 C.2      27   U39       0.5952
    856 O4        -12.3270   32.7380   -5.0850 O.2      27   U39      -0.5761
    857 C5        -12.0770   30.8070   -3.7340 C.2      27   U39      -0.3635
    858 C6        -12.1910   30.3240   -2.4930 C.2      27   U39      -0.1126
    859 H5'       -13.0824   26.1316    0.2109 H        27   U39       0.0679
    860 H5''      -11.4941   26.8116   -0.1999 H        27   U39       0.0679
    861 H4'       -12.9037   28.1192    1.4568 H        27   U39       0.1174
    862 H3'       -14.4912   28.6915   -1.0548 H        27   U39       0.0615
    863 H2'       -14.8661   30.9039   -0.2286 H        27   U39       0.0972
    864 H1'       -12.2624   31.2302    0.6434 H        27   U39       0.1824
    865 H3        -13.0313   33.8683   -3.0425 H        27   U39       0.3154
    866 H5        -11.7486   30.1651   -4.5381 H        27   U39       0.1811
    867 H6        -11.9471   29.2870   -2.3156 H        27   U39       0.2188
    868 HO2'      -15.0736   31.0324    1.9151 H        27   U39       0.4186
    869 P         -16.8480   28.0990    0.0710 P.3      28   U40       1.1662
    870 OP1       -17.7020   27.2950    0.9800 O.co2    28   U40      -0.7760
    871 OP2       -16.7030   27.6750   -1.3440 O.co2    28   U40      -0.7760
    872 O5'       -17.3720   29.6030    0.0920 O.3      28   U40      -0.4989
    873 C5'       -17.5140   30.3170    1.3110 C.3      28   U40       0.0558
    874 C4'       -17.8620   31.7590    1.0460 C.3      28   U40       0.1065
    875 O4'       -16.7620   32.4040    0.3560 O.3      28   U40      -0.3548
    876 C3'       -19.0590   31.9850    0.1350 C.3      28   U40       0.2022
    877 O3'       -20.2950   31.9040    0.8220 O.3      28   U40      -0.5246
    878 C2'       -18.7820   33.3630   -0.4530 C.3      28   U40       0.0670
    879 O2'       -19.1580   34.3830    0.4590 O.3      28   U40      -0.6139
    880 C1'       -17.2570   33.3490   -0.5680 C.3      28   U40       0.0674
    881 N1        -16.7970   32.9760   -1.9260 N.am     28   U40       0.0418
    882 C2        -16.8160   33.9450   -2.9160 C.2      28   U40       0.4687
    883 O2        -17.1990   35.0870   -2.7250 O.2      28   U40      -0.5477
    884 N3        -16.3700   33.5220   -4.1450 N.am     28   U40      -0.3549
    885 C4        -15.9160   32.2600   -4.4730 C.2      28   U40       0.5952
    886 O4        -15.5450   32.0240   -5.6230 O.2      28   U40      -0.5761
    887 C5        -15.9260   31.3200   -3.3960 C.2      28   U40      -0.3635
    888 C6        -16.3540   31.7020   -2.1900 C.2      28   U40      -0.1126
    889 H5'       -16.5757   30.2712    1.8638 H        28   U40       0.0679
    890 H5''      -18.3046   29.8596    1.9058 H        28   U40       0.0679
    891 H4'       -18.0347   32.2655    1.9956 H        28   U40       0.1174
    892 H3'       -19.0449   31.2449   -0.6651 H        28   U40       0.0615
    893 H2'       -19.2599   33.4921   -1.4241 H        28   U40       0.0972
    894 H1'       -16.8687   34.3357   -0.3156 H        28   U40       0.1824
    895 H3        -16.3748   34.2070   -4.8872 H        28   U40       0.3154
    896 H5        -15.5893   30.3065   -3.5567 H        28   U40       0.1811
    897 H6        -16.3519   30.9789   -1.3878 H        28   U40       0.2188
    898 HO2'      -20.1143   34.4031    0.5409 H        28   U40       0.4186
    899 P         -21.6390   31.5240    0.0290 P.3      29   U41       1.1662
    900 OP1       -22.7010   31.2280    1.0230 O.co2    29   U41      -0.7760
    901 OP2       -21.2940   30.5240   -1.0140 O.co2    29   U41      -0.7760
    902 O5'       -22.0430   32.8760   -0.7040 O.3      29   U41      -0.4989
    903 C5'       -22.5220   32.8620   -2.0380 C.3      29   U41       0.0558
    904 C4'       -22.4560   34.2340   -2.6560 C.3      29   U41       0.1065
    905 O4'       -21.0760   34.5840   -2.9400 O.3      29   U41      -0.3548
    906 C3'       -23.1580   34.3940   -3.9930 C.3      29   U41       0.2022
    907 O3'       -24.5550   34.5740   -3.8550 O.3      29   U41      -0.5246
    908 C2'       -22.4420   35.5910   -4.6010 C.3      29   U41       0.0670
    909 O2'       -22.9120   36.8020   -4.0270 O.3      29   U41      -0.6139
    910 C1'       -21.0090   35.3540   -4.1230 C.3      29   U41       0.0674
    911 N1        -20.2020   34.6150   -5.1220 N.am     29   U41       0.0418
    912 C2        -19.7600   35.3000   -6.2390 C.2      29   U41       0.4687
    913 O2        -20.0040   36.4780   -6.4400 O.2      29   U41      -0.5477
    914 N3        -19.0150   34.5550   -7.1190 N.am     29   U41      -0.3549
    915 C4        -18.6730   33.2230   -7.0010 C.2      29   U41       0.5952
    916 O4        -17.9950   32.6890   -7.8800 O.2      29   U41      -0.5761
    917 C5        -19.1660   32.5850   -5.8200 C.2      29   U41      -0.3635
    918 C6        -19.8940   33.2860   -4.9440 C.2      29   U41      -0.1126
    919 H5'       -21.9121   32.1773   -2.6273 H        29   U41       0.0679
    920 H5''      -23.5556   32.5161   -2.0437 H        29   U41       0.0679
    921 H4'       -22.8665   34.9584   -1.9526 H        29   U41       0.1174
    922 H3'       -22.9683   33.5128   -4.6059 H        29   U41       0.0615
    923 H2'       -22.5133   35.6001   -5.6886 H        29   U41       0.0972
    924 H1'       -20.5342   36.3112   -3.9078 H        29   U41       0.1824
    925 H3        -18.6805   35.0339   -7.9429 H        29   U41       0.3154
    926 H5        -18.9516   31.5425   -5.6364 H        29   U41       0.1811
    927 H6        -20.2562   32.7866   -4.0575 H        29   U41       0.2188
    928 HO2'      -23.3341   37.3351   -4.7046 H        29   U41       0.4186
    929 P         -25.5500   34.0840   -5.0150 P.3      30   G42       1.1662
    930 OP1       -26.9210   34.0260   -4.4450 O.co2    30   G42      -0.7760
    931 OP2       -24.9590   32.8770   -5.6460 O.co2    30   G42      -0.7760
    932 O5'       -25.5080   35.2720   -6.0730 O.3      30   G42      -0.4989
    933 C5'       -25.7600   36.6080   -5.6680 C.3      30   G42       0.0558
    934 C4'       -25.4640   37.5850   -6.7750 C.3      30   G42       0.1065
    935 O4'       -24.0290   37.7530   -6.9240 O.3      30   G42      -0.3548
    936 C3'       -25.9210   37.1740   -8.1630 C.3      30   G42       0.2022
    937 O3'       -27.3070   37.3610   -8.3830 O.3      30   G42      -0.5246
    938 C2'       -25.0310   38.0210   -9.0580 C.3      30   G42       0.0670
    939 O2'       -25.4820   39.3670   -9.0800 O.3      30   G42      -0.6139
    940 C1'       -23.7140   37.9690   -8.2860 C.3      30   G42       0.0191
    941 N9        -22.8610   36.8630   -8.7580 N.ar     30   G42       0.0492
    942 C8        -22.6120   35.6640   -8.1330 C.ar     30   G42       0.1374
    943 N7        -21.8160   34.8870   -8.8190 N.ar     30   G42      -0.5709
    944 C5        -21.5290   35.6140   -9.9670 C.ar     30   G42       0.1744
    945 C6        -20.7160   35.2910  -11.0840 C.2      30   G42       0.4770
    946 O6        -20.0660   34.2610  -11.2950 O.2      30   G42      -0.5597
    947 N1        -20.7050   36.3170  -12.0220 N.am     30   G42      -0.4787
    948 C2        -21.3820   37.5040  -11.9060 C.2      30   G42       0.7657
    949 N2        -21.2380   38.3660  -12.9250 N.pl3    30   G42      -0.9672
    950 N3        -22.1420   37.8190  -10.8700 N.2      30   G42      -0.6323
    951 C4        -22.1690   36.8350   -9.9450 C.ar     30   G42       0.1222
    952 H5'       -26.8086   36.7005   -5.3850 H        30   G42       0.0679
    953 H5''      -25.1353   36.8441   -4.8065 H        30   G42       0.0679
    954 H4'       -25.9095   38.5481   -6.5260 H        30   G42       0.1174
    955 H3'       -25.6781   36.1227   -8.3174 H        30   G42       0.0615
    956 H2'       -24.9373   37.6021  -10.0599 H        30   G42       0.0972
    957 H1'       -23.1847   38.9155   -8.3962 H        30   G42       0.2006
    958 H8        -23.0305   35.3926   -7.1751 H        30   G42       0.1640
    959 H1        -20.1537   36.1768  -12.8566 H        30   G42       0.3424
    960 H21       -20.6573   38.1221  -13.7145 H        30   G42       0.4364
    961 H22       -21.7104   39.2584  -12.9021 H        30   G42       0.4364
    962 HO2'      -26.3105   39.4195   -9.5621 H        30   G42       0.4186
    963 P         -28.1250   36.2820   -9.2460 P.3      31   G43       1.1662
    964 OP1       -29.5680   36.6290   -9.1800 O.co2    31   G43      -0.7760
    965 OP2       -27.6730   34.9290   -8.8340 O.co2    31   G43      -0.7760
    966 O5'       -27.6180   36.5220  -10.7370 O.3      31   G43      -0.4989
    967 C5'       -27.7570   37.7930  -11.3500 C.3      31   G43       0.0558
    968 C4'       -26.9550   37.8910  -12.6220 C.3      31   G43       0.1065
    969 O4'       -25.5340   37.7810  -12.3370 O.3      31   G43      -0.3548
    970 C3'       -27.1910   36.8050  -13.6540 C.3      31   G43       0.2022
    971 O3'       -28.3930   36.9600  -14.3830 O.3      31   G43      -0.5246
    972 C2'       -25.9330   36.8980  -14.5030 C.3      31   G43       0.0670
    973 O2'       -25.9870   38.0310  -15.3570 O.3      31   G43      -0.6139
    974 C1'       -24.8800   37.1570  -13.4270 C.3      31   G43       0.0191
    975 N9        -24.2730   35.8940  -12.9670 N.ar     31   G43       0.0492
    976 C8        -24.4900   35.2320  -11.7830 C.ar     31   G43       0.1374
    977 N7        -23.8070   34.1230  -11.6860 N.ar     31   G43      -0.5709
    978 C5        -23.1020   34.0420  -12.8810 C.ar     31   G43       0.1744
    979 C6        -22.1900   33.0620  -13.3550 C.2      31   G43       0.4770
    980 O6        -21.8060   32.0270  -12.7980 O.2      31   G43      -0.5597
    981 N1        -21.7090   33.3790  -14.6210 N.am     31   G43      -0.4787
    982 C2        -22.0560   34.4930  -15.3420 C.2      31   G43       0.7657
    983 N2        -21.4830   34.6200  -16.5480 N.pl3    31   G43      -0.9672
    984 N3        -22.9030   35.4140  -14.9130 N.2      31   G43      -0.6323
    985 C4        -23.3830   35.1270  -13.6830 C.ar     31   G43       0.1222
    986 H5'       -28.8088   37.9594  -11.5824 H        31   G43       0.0679
    987 H5''      -27.4194   38.5624  -10.6556 H        31   G43       0.0679
    988 H4'       -27.1460   38.8601  -13.0830 H        31   G43       0.1174
    989 H3'       -27.2061   35.8381  -13.1510 H        31   G43       0.0615
    990 H2'       -25.7399   35.9773  -15.0536 H        31   G43       0.0972
    991 H1'       -24.1061   37.8167  -13.8195 H        31   G43       0.2006
    992 H8        -25.1561   35.5912  -11.0125 H        31   G43       0.1640
    993 H1        -21.0522   32.7381  -15.0428 H        31   G43       0.3424
    994 H21       -20.8365   33.9170  -16.8765 H        31   G43       0.4364
    995 H22       -21.6980   35.4186  -17.1277 H        31   G43       0.4364
    996 HO2'      -25.6671   37.7902  -16.2295 H        31   G43       0.4186
    997 P         -29.1920   35.6550  -14.8730 P.3      32   G44       1.1662
    998 OP1       -30.5430   36.0810  -15.3220 O.co2    32   G44      -0.7760
    999 OP2       -29.0680   34.6210  -13.8130 O.co2    32   G44      -0.7760
   1000 O5'       -28.3650   35.1560  -16.1400 O.3      32   G44      -0.4989
   1001 C5'       -28.1370   36.0230  -17.2410 C.3      32   G44       0.0558
   1002 C4'       -27.0020   35.5450  -18.1150 C.3      32   G44       0.1065
   1003 O4'       -25.7900   35.3870  -17.3300 O.3      32   G44      -0.3548
   1004 C3'       -27.1760   34.1890  -18.7760 C.3      32   G44       0.2022
   1005 O3'       -28.0250   34.2160  -19.9090 O.3      32   G44      -0.5246
   1006 C2'       -25.7400   33.8050  -19.1000 C.3      32   G44       0.0670
   1007 O2'       -25.2750   34.5190  -20.2360 O.3      32   G44      -0.6139
   1008 C1'       -25.0090   34.3370  -17.8670 C.3      32   G44       0.0191
   1009 N9        -24.8430   33.2850  -16.8460 N.ar     32   G44       0.0492
   1010 C8        -25.4270   33.2120  -15.6050 C.ar     32   G44       0.1374
   1011 N7        -25.0800   32.1420  -14.9410 N.ar     32   G44      -0.5709
   1012 C5        -24.2190   31.4660  -15.7960 C.ar     32   G44       0.1744
   1013 C6        -23.5220   30.2390  -15.6270 C.2      32   G44       0.4770
   1014 O6        -23.5270   29.4760  -14.6540 O.2      32   G44      -0.5597
   1015 N1        -22.7580   29.9240  -16.7470 N.am     32   G44      -0.4787
   1016 C2        -22.6720   30.6880  -17.8840 C.2      32   G44       0.7657
   1017 N2        -21.8820   30.2170  -18.8600 N.pl3    32   G44      -0.9672
   1018 N3        -23.3150   31.8310  -18.0520 N.2      32   G44      -0.6323
   1019 C4        -24.0640   32.1580  -16.9770 C.ar     32   G44       0.1222
   1020 H5'       -29.0452   36.0746  -17.8415 H        32   G44       0.0679
   1021 H5''      -27.9017   37.0191  -16.8662 H        32   G44       0.0679
   1022 H4'       -26.8210   36.2900  -18.8898 H        32   G44       0.1174
   1023 H3'       -27.5773   33.4856  -18.0464 H        32   G44       0.0615
   1024 H2'       -25.6196   32.7278  -19.2151 H        32   G44       0.0972
   1025 H1'       -24.0314   34.7208  -18.1588 H        32   G44       0.2006
   1026 H8        -26.1024   33.9609  -15.2186 H        32   G44       0.1640
   1027 H1        -22.2253   29.0663  -16.7210 H        32   G44       0.3424
   1028 H21       -21.3899   29.3440  -18.7343 H        32   G44       0.4364
   1029 H22       -21.7791   30.7353  -19.7207 H        32   G44       0.4364
   1030 HO2'      -25.0963   33.9032  -20.9505 H        32   G44       0.4186
   1031 P         -28.7910   32.8780  -20.3640 P.3      33   A45       1.1662
   1032 OP1       -29.8100   33.2450  -21.3800 O.co2    33   A45      -0.7760
   1033 OP2       -29.2060   32.1530  -19.1370 O.co2    33   A45      -0.7760
   1034 O5'       -27.6620   32.0040  -21.0710 O.3      33   A45      -0.4989
   1035 C5'       -26.9510   32.4910  -22.2000 C.3      33   A45       0.0558
   1036 C4'       -25.8500   31.5430  -22.6020 C.3      33   A45       0.1065
   1037 O4'       -24.9040   31.3980  -21.5100 O.3      33   A45      -0.3548
   1038 C3'       -26.2840   30.1180  -22.9070 C.3      33   A45       0.2022
   1039 O3'       -26.7970   29.9660  -24.2180 O.3      33   A45      -0.5246
   1040 C2'       -25.0120   29.3200  -22.6550 C.3      33   A45       0.0670
   1041 O2'       -24.1230   29.4360  -23.7560 O.3      33   A45      -0.6139
   1042 C1'       -24.4140   30.0740  -21.4680 C.3      33   A45       0.0394
   1043 N9        -24.8050   29.4720  -20.1790 N.ar     33   A45      -0.0251
   1044 C8        -25.6940   29.9730  -19.2620 C.ar     33   A45       0.2006
   1045 N7        -25.8410   29.2170  -18.2010 N.ar     33   A45      -0.6073
   1046 C5        -24.9910   28.1440  -18.4360 C.ar     33   A45       0.0515
   1047 C6        -24.6900   26.9930  -17.6860 C.ar     33   A45       0.7009
   1048 N6        -25.2320   26.7200  -16.4980 N.pl3    33   A45      -0.9019
   1049 N1        -23.7990   26.1200  -18.2050 N.ar     33   A45      -0.7615
   1050 C2        -23.2540   26.3930  -19.3970 C.ar     33   A45       0.5875
   1051 N3        -23.4550   27.4380  -20.1950 N.ar     33   A45      -0.6997
   1052 C4        -24.3460   28.2880  -19.6520 C.ar     33   A45       0.3053
   1053 H5'       -26.5143   33.4590  -21.9544 H        33   A45       0.0679
   1054 H5''      -27.6424   32.6112  -23.0341 H        33   A45       0.0679
   1055 H4'       -25.3308   31.9495  -23.4699 H        33   A45       0.1174
   1056 H3'       -27.0448   29.8144  -22.1880 H        33   A45       0.0615
   1057 H2'       -25.2253   28.2792  -22.4112 H        33   A45       0.0972
   1058 H1'       -23.3273   30.0840  -21.5517 H        33   A45       0.2007
   1059 H8        -26.2236   30.9039  -19.4012 H        33   A45       0.1553
   1060 H2        -22.5505   25.6598  -19.7630 H        33   A45       0.0473
   1061 H61       -24.7009   25.9692  -16.0805 H        33   A45       0.4115
   1062 H62       -26.0314   27.1821  -16.0887 H        33   A45       0.4115
   1063 HO2'      -24.4851   28.9667  -24.5111 H        33   A45       0.4186
   1064 P         -28.1090   29.0740  -24.4750 P.3      34   G46       1.1662
   1065 OP1       -28.4200   29.1210  -25.9270 O.co2    34   G46      -0.7760
   1066 OP2       -29.1400   29.4800  -23.4870 O.co2    34   G46      -0.7760
   1067 O5'       -27.6430   27.5930  -24.1180 O.3      34   G46      -0.4989
   1068 C5'       -26.5670   26.9780  -24.8100 C.3      34   G46       0.0558
   1069 C4'       -26.1030   25.7320  -24.1010 C.3      34   G46       0.1065
   1070 O4'       -25.5940   26.0710  -22.7860 O.3      34   G46      -0.3548
   1071 C3'       -27.1780   24.6960  -23.8240 C.3      34   G46       0.2022
   1072 O3'       -27.4570   23.8910  -24.9540 O.3      34   G46      -0.5246
   1073 C2'       -26.6020   23.9230  -22.6450 C.3      34   G46       0.0670
   1074 O2'       -25.6230   22.9940  -23.0880 O.3      34   G46      -0.6139
   1075 C1'       -25.8930   25.0370  -21.8720 C.3      34   G46       0.0191
   1076 N9        -26.7280   25.5930  -20.7880 N.ar     34   G46       0.0492
   1077 C8        -27.5380   26.7030  -20.8540 C.ar     34   G46       0.1374
   1078 N7        -28.1520   26.9590  -19.7320 N.ar     34   G46      -0.5709
   1079 C5        -27.7230   25.9600  -18.8700 C.ar     34   G46       0.1744
   1080 C6        -28.0530   25.7200  -17.5110 C.2      34   G46       0.4770
   1081 O6        -28.8140   26.3650  -16.7800 O.2      34   G46      -0.5597
   1082 N1        -27.3940   24.6000  -17.0130 N.am     34   G46      -0.4787
   1083 C2        -26.5290   23.8110  -17.7310 C.2      34   G46       0.7657
   1084 N2        -25.9940   22.7730  -17.0700 N.pl3    34   G46      -0.9672
   1085 N3        -26.2140   24.0240  -18.9990 N.2      34   G46      -0.6323
   1086 C4        -26.8430   25.1080  -19.5040 C.ar     34   G46       0.1222
   1087 H5'       -26.8960   26.7133  -25.8149 H        34   G46       0.0679
   1088 H5''      -25.7369   27.6811  -24.8786 H        34   G46       0.0679
   1089 H4'       -25.3053   25.2692  -24.6820 H        34   G46       0.1174
   1090 H3'       -28.0910   25.2017  -23.5097 H        34   G46       0.0615
   1091 H2'       -27.3803   23.4444  -22.0506 H        34   G46       0.0972
   1092 H1'       -24.9657   24.6493  -21.4502 H        34   G46       0.2006
   1093 H8        -27.6539   27.3021  -21.7451 H        34   G46       0.1640
   1094 H1        -27.5649   24.3481  -16.0500 H        34   G46       0.3424
   1095 H21       -26.2354   22.6117  -16.1026 H        34   G46       0.4364
   1096 H22       -25.3499   22.1530  -17.5398 H        34   G46       0.4364
   1097 HO2'      -26.0516   22.2839  -23.5714 H        34   G46       0.4186
   1098 P         -28.8620   24.0370  -25.7170 P.3      35   U47       1.1662
   1099 OP1       -28.6420   23.7170  -27.1500 O.co2    35   U47      -0.7760
   1100 OP2       -29.4690   25.3390  -25.3390 O.co2    35   U47      -0.7760
   1101 O5'       -29.7550   22.8820  -25.0870 O.3      35   U47      -0.4989
   1102 C5'       -29.3420   21.5220  -25.1580 C.3      35   U47       0.0558
   1103 C4'       -30.3860   20.5940  -24.5890 C.3      35   U47       0.1065
   1104 O4'       -30.4870   20.8140  -23.1550 O.3      35   U47      -0.3548
   1105 C3'       -31.7950   20.7760  -25.1490 C.3      35   U47       0.2022
   1106 O3'       -32.4510   19.5100  -25.1990 O.3      35   U47      -0.5246
   1107 C2'       -32.4630   21.6560  -24.0960 C.3      35   U47       0.0670
   1108 O2'       -33.8710   21.5590  -24.0570 O.3      35   U47      -0.6139
   1109 C1'       -31.8220   21.1340  -22.8140 C.3      35   U47       0.0674
   1110 N1        -31.7900   22.1040  -21.7100 N.am     35   U47       0.0418
   1111 C2        -32.1340   21.6440  -20.4540 C.2      35   U47       0.4687
   1112 O2        -32.4530   20.4870  -20.2410 O.2      35   U47      -0.5477
   1113 N3        -32.0880   22.5880  -19.4570 N.am     35   U47      -0.3549
   1114 C4        -31.7410   23.9160  -19.5910 C.2      35   U47       0.5952
   1115 O4        -31.7460   24.6460  -18.5990 O.2      35   U47      -0.5761
   1116 C5        -31.3980   24.3130  -20.9220 C.2      35   U47      -0.3635
   1117 C6        -31.4340   23.4150  -21.9120 C.2      35   U47      -0.1126
   1118 H5'       -29.1667   21.2597  -26.2014 H        35   U47       0.0679
   1119 H5''      -28.4142   21.4011  -24.5989 H        35   U47       0.0679
   1120 H4'       -30.0711   19.5651  -24.7632 H        35   U47       0.1174
   1121 H3'       -31.7798   21.2595  -26.1258 H        35   U47       0.0615
   1122 H2'       -32.1731   22.6951  -24.2518 H        35   U47       0.0972
   1123 H1'       -32.3405   20.2316  -22.4899 H        35   U47       0.1824
   1124 H3        -32.3342   22.2767  -18.5282 H        35   U47       0.3154
   1125 H5        -31.1111   25.3340  -21.1263 H        35   U47       0.1811
   1126 H6        -31.1727   23.7333  -22.9104 H        35   U47       0.2188
   1127 HO2'      -34.2545   22.2336  -24.6222 H        35   U47       0.4186
   1128 P         -32.5030   18.6780  -26.5740 P.3      36   U48       1.1662
   1129 OP1       -32.9990   17.3120  -26.2700 O.co2    36   U48      -0.7760
   1130 OP2       -31.2060   18.8570  -27.2730 O.co2    36   U48      -0.7760
   1131 O5'       -33.6220   19.4200  -27.4290 O.3      36   U48      -0.4989
   1132 C5'       -34.9310   19.6100  -26.9040 C.3      36   U48       0.0558
   1133 C4'       -35.5880   20.8340  -27.4900 C.3      36   U48       0.1065
   1134 O4'       -35.9840   20.5520  -28.8600 O.3      36   U48      -0.3548
   1135 C3'       -36.8490   21.2980  -26.7680 C.3      36   U48       0.2022
   1136 O3'       -36.9310   22.7210  -26.8210 O.3      36   U48      -0.5246
   1137 C2'       -37.9650   20.6910  -27.6100 C.3      36   U48       0.0670
   1138 O2'       -39.2000   21.3680  -27.5180 O.3      36   U48      -0.6139
   1139 C1'       -37.3720   20.7780  -29.0130 C.3      36   U48       0.0674
   1140 N1        -37.9020   19.7690  -29.9430 N.am     36   U48       0.0418
   1141 C2        -38.1950   20.1660  -31.2330 C.2      36   U48       0.4687
   1142 O2        -38.0200   21.3060  -31.6280 O.2      36   U48      -0.5477
   1143 N3        -38.6890   19.1750  -32.0470 N.am     36   U48      -0.3549
   1144 C4        -38.9230   17.8580  -31.7060 C.2      36   U48       0.5952
   1145 O4        -39.3740   17.0810  -32.5490 O.2      36   U48      -0.5761
   1146 C5        -38.6000   17.5290  -30.3510 C.2      36   U48      -0.3635
   1147 C6        -38.1150   18.4720  -29.5370 C.2      36   U48      -0.1126
   1148 H5'       -35.5375   18.7354  -27.1394 H        36   U48       0.0679
   1149 H5''      -34.8692   19.7212  -25.8215 H        36   U48       0.0679
   1150 H4'       -34.8663   21.6508  -27.4949 H        36   U48       0.1174
   1151 H3'       -36.8791   20.9335  -25.7412 H        36   U48       0.0615
   1152 H2'       -38.1011   19.6449  -27.3357 H        36   U48       0.0972
   1153 H1'       -37.5384   21.7753  -29.4202 H        36   U48       0.1824
   1154 H3        -38.9042   19.4389  -32.9979 H        36   U48       0.3154
   1155 H5        -38.7475   16.5227  -29.9876 H        36   U48       0.1811
   1156 H6        -37.8804   18.2042  -28.5174 H        36   U48       0.2188
   1157 HO2'      -39.5414   21.2918  -26.6240 H        36   U48       0.4186
   1158 P         -36.3350   23.6030  -25.6180 P.3      37   U49       1.1662
   1159 OP1       -37.0840   24.8840  -25.5660 O.co2    37   U49      -0.7760
   1160 OP2       -34.8570   23.6210  -25.7600 O.co2    37   U49      -0.7760
   1161 O5'       -36.6940   22.7640  -24.3110 O.3      37   U49      -0.4989
   1162 C5'       -38.0200   22.7500  -23.7920 C.3      37   U49       0.0558
   1163 C4'       -38.0460   22.4010  -22.3240 C.3      37   U49       0.1065
   1164 O4'       -37.9420   20.9590  -22.1610 O.3      37   U49      -0.3548
   1165 C3'       -36.9230   23.0110  -21.4840 C.3      37   U49       0.2022
   1166 O3'       -37.4320   23.3890  -20.2070 O.3      37   U49      -0.5246
   1167 C2'       -35.9490   21.8470  -21.3160 C.3      37   U49       0.0670
   1168 O2'       -35.1360   21.9270  -20.1650 O.3      37   U49      -0.6139
   1169 C1'       -36.9030   20.6600  -21.2510 C.3      37   U49       0.0674
   1170 N1        -36.2940   19.3760  -21.6320 N.am     37   U49       0.0418
   1171 C2        -36.6020   18.2720  -20.8600 C.2      37   U49       0.4687
   1172 O2        -37.3560   18.3240  -19.9050 O.2      37   U49      -0.5477
   1173 N3        -36.0020   17.1020  -21.2540 N.am     37   U49      -0.3549
   1174 C4        -35.1370   16.9300  -22.3150 C.2      37   U49       0.5952
   1175 O4        -34.6770   15.8100  -22.5430 O.2      37   U49      -0.5761
   1176 C5        -34.8630   18.1200  -23.0600 C.2      37   U49      -0.3635
   1177 C6        -35.4350   19.2740  -22.7000 C.2      37   U49      -0.1126
   1178 H5'       -38.6050   22.0115  -24.3401 H        37   U49       0.0679
   1179 H5''      -38.4676   23.7340  -23.9320 H        37   U49       0.0679
   1180 H4'       -39.0005   22.7260  -21.9101 H        37   U49       0.1174
   1181 H3'       -36.4552   23.8535  -21.9933 H        37   U49       0.0615
   1182 H2'       -35.3210   21.7640  -22.2030 H        37   U49       0.0972
   1183 H1'       -37.3146   20.5810  -20.2448 H        37   U49       0.1824
   1184 H3        -36.2167   16.2792  -20.7090 H        37   U49       0.3154
   1185 H5        -34.1970   18.0867  -23.9096 H        37   U49       0.1811
   1186 H6        -35.2127   20.1626  -23.2722 H        37   U49       0.2188
   1187 HO2'      -35.0771   22.8409  -19.8772 H        37   U49       0.4186
   1188 P         -36.9750   24.7770  -19.5420 P.3      38   C50       1.1662
   1189 OP1       -37.5650   25.8850  -20.3370 O.co2    38   C50      -0.7760
   1190 OP2       -35.5050   24.7240  -19.3360 O.co2    38   C50      -0.7760
   1191 O5'       -37.6720   24.7640  -18.1110 O.3      38   C50      -0.4989
   1192 C5'       -39.0710   24.9640  -17.9790 C.3      38   C50       0.0558
   1193 C4'       -39.6140   24.2520  -16.7670 C.3      38   C50       0.1065
   1194 O4'       -39.7430   22.8320  -17.0430 O.3      38   C50      -0.3548
   1195 C3'       -38.7460   24.3040  -15.5210 C.3      38   C50       0.2022
   1196 O3'       -38.8620   25.5210  -14.8060 O.3      38   C50      -0.5246
   1197 C2'       -39.2200   23.0870  -14.7410 C.3      38   C50       0.0670
   1198 O2'       -40.4560   23.3580  -14.0950 O.3      38   C50      -0.6139
   1199 C1'       -39.4780   22.0890  -15.8710 C.3      38   C50       0.0066
   1200 N1        -38.3130   21.2090  -16.1210 N.am     38   C50      -0.0484
   1201 C2        -37.9850   20.2140  -15.1920 C.2      38   C50       0.7538
   1202 O2        -38.6690   20.0850  -14.1650 O.2      38   C50      -0.6252
   1203 N3        -36.9210   19.4140  -15.4310 N.2      38   C50      -0.7584
   1204 C4        -36.2010   19.5710  -16.5430 C.2      38   C50       0.8185
   1205 N4        -35.1630   18.7550  -16.7350 N.pl3    38   C50      -0.9530
   1206 C5        -36.5140   20.5700  -17.5090 C.2      38   C50      -0.5215
   1207 C6        -37.5670   21.3570  -17.2590 C.2      38   C50       0.0053
   1208 H5'       -39.5699   24.5806  -18.8690 H        38   C50       0.0679
   1209 H5''      -39.2728   26.0312  -17.8874 H        38   C50       0.0679
   1210 H4'       -40.5978   24.6571  -16.5300 H        38   C50       0.1174
   1211 H3'       -37.7045   24.1585  -15.8076 H        38   C50       0.0615
   1212 H2'       -38.4635   22.7283  -14.0430 H        38   C50       0.0972
   1213 H1'       -40.3469   21.4788  -15.6244 H        38   C50       0.2029
   1214 H5        -35.9253   20.6875  -18.4068 H        38   C50       0.1928
   1215 H6        -37.8338   22.1249  -17.9700 H        38   C50       0.1958
   1216 H41       -34.9436   18.0470  -16.0490 H        38   C50       0.4234
   1217 H42       -34.5967   18.8453  -17.5664 H        38   C50       0.4234
   1218 HO2'      -40.3140   23.9839  -13.3811 H        38   C50       0.4186
   1219 P         -37.5410   26.3080  -14.3380 P.3      39   U51       1.1662
   1220 OP1       -37.9660   27.5040  -13.5670 O.co2    39   U51      -0.7760
   1221 OP2       -36.6580   26.4690  -15.5210 O.co2    39   U51      -0.7760
   1222 O5'       -36.8310   25.3030  -13.3250 O.3      39   U51      -0.4989
   1223 C5'       -37.4630   24.9280  -12.1110 C.3      39   U51       0.0558
   1224 C4'       -36.8710   23.6630  -11.5420 C.3      39   U51       0.1065
   1225 O4'       -36.9210   22.6050  -12.5340 O.3      39   U51      -0.3548
   1226 C3'       -35.4040   23.7250  -11.1450 C.3      39   U51       0.2022
   1227 O3'       -35.2010   24.3240   -9.8760 O.3      39   U51      -0.5246
   1228 C2'       -34.9850   22.2610  -11.1960 C.3      39   U51       0.0670
   1229 O2'       -35.4080   21.5790  -10.0250 O.3      39   U51      -0.6139
   1230 C1'       -35.8100   21.7470  -12.3780 C.3      39   U51       0.0674
   1231 N1        -35.0340   21.7250  -13.6400 N.am     39   U51       0.0418
   1232 C2        -34.1410   20.6830  -13.8180 C.2      39   U51       0.4687
   1233 O2        -33.9700   19.8040  -12.9910 O.2      39   U51      -0.5477
   1234 N3        -33.4490   20.7040  -15.0020 N.am     39   U51      -0.3549
   1235 C4        -33.5570   21.6400  -16.0080 C.2      39   U51       0.5952
   1236 O4        -32.8620   21.5160  -17.0170 O.2      39   U51      -0.5761
   1237 C5        -34.5010   22.6860  -15.7530 C.2      39   U51      -0.3635
   1238 C6        -35.1920   22.6920  -14.6060 C.2      39   U51      -0.1126
   1239 H5'       -37.3405   25.7325  -11.3859 H        39   U51       0.0679
   1240 H5''      -38.5260   24.7728  -12.2954 H        39   U51       0.0679
   1241 H4'       -37.4574   23.3596  -10.6747 H        39   U51       0.1174
   1242 H3'       -34.8505   24.2841  -11.8994 H        39   U51       0.0615
   1243 H2'       -33.9144   22.1497  -11.3677 H        39   U51       0.0972
   1244 H1'       -36.1634   20.7398  -12.1572 H        39   U51       0.1824
   1245 H3        -32.7900   19.9536  -15.1528 H        39   U51       0.3154
   1246 H5        -34.6551   23.4670  -16.4829 H        39   U51       0.1811
   1247 H6        -35.9015   23.4875  -14.4322 H        39   U51       0.2188
   1248 HO2'      -34.6420   21.3472   -9.4948 H        39   U51       0.4186
   1249 P         -33.8480   25.1340   -9.5630 P.3      40   A52       1.1662
   1250 OP1       -33.9440   25.6800   -8.1850 O.co2    40   A52      -0.7760
   1251 OP2       -33.5900   26.0550  -10.6980 O.co2    40   A52      -0.7760
   1252 O5'       -32.7110   24.0170   -9.5710 O.3      40   A52      -0.4989
   1253 C5'       -32.6430   23.0260   -8.5550 C.3      40   A52       0.0558
   1254 C4'       -31.6420   21.9540   -8.9060 C.3      40   A52       0.1065
   1255 O4'       -32.0060   21.3520  -10.1750 O.3      40   A52      -0.3548
   1256 C3'       -30.2090   22.4270   -9.1080 C.3      40   A52       0.2022
   1257 O3'       -29.4970   22.5290   -7.8860 O.3      40   A52      -0.5246
   1258 C2'       -29.6320   21.3820  -10.0550 C.3      40   A52       0.0670
   1259 O2'       -29.2400   20.2190   -9.3400 O.3      40   A52      -0.6139
   1260 C1'       -30.8480   21.0370  -10.9160 C.3      40   A52       0.0394
   1261 N9        -30.8840   21.8030  -12.1760 N.ar     40   A52      -0.0251
   1262 C8        -31.6090   22.9390  -12.4350 C.ar     40   A52       0.2006
   1263 N7        -31.4530   23.4030  -13.6500 N.ar     40   A52      -0.6073
   1264 C5        -30.5660   22.5110  -14.2340 C.ar     40   A52       0.0515
   1265 C6        -29.9980   22.4500  -15.5190 C.ar     40   A52       0.7009
   1266 N6        -30.2510   23.3380  -16.4840 N.pl3    40   A52      -0.9019
   1267 N1        -29.1490   21.4320  -15.7810 N.ar     40   A52      -0.7615
   1268 C2        -28.8950   20.5420  -14.8120 C.ar     40   A52       0.5875
   1269 N3        -29.3670   20.4940  -13.5670 N.ar     40   A52      -0.6997
   1270 C4        -30.2070   21.5190  -13.3390 C.ar     40   A52       0.3053
   1271 H5'       -32.3456   23.4971   -7.6181 H        40   A52       0.0679
   1272 H5''      -33.6260   22.5716   -8.4313 H        40   A52       0.0679
   1273 H4'       -31.6570   21.1869   -8.1318 H        40   A52       0.1174
   1274 H3'       -30.2161   23.3979   -9.6034 H        40   A52       0.0615
   1275 H2'       -28.8141   21.7848  -10.6524 H        40   A52       0.0972
   1276 H1'       -30.8413   19.9705  -11.1409 H        40   A52       0.2007
   1277 H8        -32.2502   23.4080  -11.7033 H        40   A52       0.1553
   1278 H2        -28.2099   19.7507  -15.0782 H        40   A52       0.0473
   1279 H61       -29.6765   23.0227  -17.2525 H        40   A52       0.4115
   1280 H62       -30.8699   24.1355  -16.4527 H        40   A52       0.4115
   1281 HO2'      -28.4764   20.4206   -8.7942 H        40   A52       0.4186
   1282 P         -28.6840   23.8660   -7.5180 P.3      41   C53       1.1662
   1283 OP1       -28.3530   23.8060   -6.0720 O.co2    41   C53      -0.7760
   1284 OP2       -29.4410   25.0280   -8.0500 O.co2    41   C53      -0.7760
   1285 O5'       -27.3220   23.7350   -8.3370 O.3      41   C53      -0.4989
   1286 C5'       -26.3810   22.7150   -8.0350 C.3      41   C53       0.0558
   1287 C4'       -25.5860   22.3180   -9.2540 C.3      41   C53       0.1065
   1288 O4'       -26.4950   21.9920  -10.3350 O.3      41   C53      -0.3548
   1289 C3'       -24.6750   23.3890   -9.8390 C.3      41   C53       0.2022
   1290 O3'       -23.4210   23.4560   -9.1810 O.3      41   C53      -0.5246
   1291 C2'       -24.5580   22.9740  -11.3020 C.3      41   C53       0.0670
   1292 O2'       -23.5960   21.9410  -11.4560 O.3      41   C53      -0.6139
   1293 C1'       -25.9440   22.3860  -11.5710 C.3      41   C53       0.0066
   1294 N1        -26.8600   23.3560  -12.2150 N.am     41   C53      -0.0484
   1295 C2        -26.8650   23.4380  -13.6090 C.2      41   C53       0.7538
   1296 O2        -26.1030   22.7020  -14.2530 O.2      41   C53      -0.6252
   1297 N3        -27.6970   24.3140  -14.2190 N.2      41   C53      -0.7584
   1298 C4        -28.5020   25.0870  -13.4870 C.2      41   C53       0.8185
   1299 N4        -29.3080   25.9390  -14.1250 N.pl3    41   C53      -0.9530
   1300 C5        -28.5190   25.0220  -12.0640 C.2      41   C53      -0.5215
   1301 C6        -27.6920   24.1500  -11.4750 C.2      41   C53       0.0053
   1302 H5'       -25.6965   23.0801   -7.2693 H        41   C53       0.0679
   1303 H5''      -26.9105   21.8418   -7.6538 H        41   C53       0.0679
   1304 H4'       -24.9893   21.4375   -9.0159 H        41   C53       0.1174
   1305 H3'       -25.1691   24.3585   -9.7761 H        41   C53       0.0615
   1306 H2'       -24.3461   23.8251  -11.9492 H        41   C53       0.0972
   1307 H1'       -25.8424   21.5105  -12.2123 H        41   C53       0.2029
   1308 H5        -29.1747   25.6528  -11.4822 H        41   C53       0.1928
   1309 H6        -27.6815   24.0721  -10.3979 H        41   C53       0.1958
   1310 H41       -29.2968   25.9855  -15.1339 H        41   C53       0.4234
   1311 H42       -29.9289   26.5370  -13.5988 H        41   C53       0.4234
   1312 HO2'      -24.0048   21.0923  -11.2711 H        41   C53       0.4186
   1313 P         -23.1620   24.5190   -8.0030 P.3      42   C54       1.1662
   1314 OP1       -24.4400   25.2130   -7.7020 O.co2    42   C54      -0.7760
   1315 OP2       -21.9690   25.3250   -8.3640 O.co2    42   C54      -0.7760
   1316 O5'       -22.7820   23.6070   -6.7520 O.3      42   C54      -0.4989
   1317 C5'       -23.5540   23.6570   -5.5630 C.3      42   C54       0.0558
   1318 C4'       -23.7720   22.2890   -4.9630 C.3      42   C54       0.1065
   1319 O4'       -24.1670   21.3370   -5.9870 O.3      42   C54      -0.3548
   1320 C3'       -22.5720   21.6260   -4.3110 C.3      42   C54       0.2022
   1321 O3'       -22.2610   22.1470   -3.0320 O.3      42   C54      -0.5246
   1322 C2'       -22.9930   20.1630   -4.2850 C.3      42   C54       0.0670
   1323 O2'       -23.9250   19.9300   -3.2400 O.3      42   C54      -0.6139
   1324 C1'       -23.7280   20.0410   -5.6210 C.3      42   C54       0.0066
   1325 N1        -22.8500   19.4930   -6.6810 N.am     42   C54      -0.0484
   1326 C2        -22.6380   18.1100   -6.6980 C.2      42   C54       0.7538
   1327 O2        -23.1980   17.4060   -5.8450 O.2      42   C54      -0.6252
   1328 N3        -21.8360   17.5690   -7.6430 N.2      42   C54      -0.7584
   1329 C4        -21.2490   18.3540   -8.5460 C.2      42   C54       0.8185
   1330 N4        -20.4660   17.7750   -9.4600 N.pl3    42   C54      -0.9530
   1331 C5        -21.4420   19.7670   -8.5500 C.2      42   C54      -0.5215
   1332 C6        -22.2390   20.2910   -7.6080 C.2      42   C54       0.0053
   1333 H5'       -23.0355   24.2804   -4.8346 H        42   C54       0.0679
   1334 H5''      -24.5223   24.1043   -5.7873 H        42   C54       0.0679
   1335 H4'       -24.5725   22.3574   -4.2264 H        42   C54       0.1174
   1336 H3'       -21.7050   21.7367   -4.9623 H        42   C54       0.0615
   1337 H2'       -22.1363   19.4916   -4.2265 H        42   C54       0.0972
   1338 H1'       -24.5931   19.3894   -5.4977 H        42   C54       0.2029
   1339 H5        -20.9622   20.3938   -9.2871 H        42   C54       0.1928
   1340 H6        -22.4007   21.3585   -7.5810 H        42   C54       0.1958
   1341 H41       -20.3346   16.7736   -9.4510 H        42   C54       0.4234
   1342 H42       -20.0053   18.3385  -10.1602 H        42   C54       0.4234
   1343 HO2'      -23.5434   19.3256   -2.5991 H        42   C54       0.4186
   1344 P         -20.7610   22.0250   -2.4650 P.3      43   A55       1.1662
   1345 OP1       -20.6480   22.8610   -1.2430 O.co2    43   A55      -0.7760
   1346 OP2       -19.8340   22.2540   -3.6020 O.co2    43   A55      -0.7760
   1347 O5'       -20.6310   20.4950   -2.0390 O.3      43   A55      -0.4989
   1348 C5'       -21.4890   19.9340   -1.0570 C.3      43   A55       0.0558
   1349 C4'       -21.3340   18.4360   -0.9750 C.3      43   A55       0.1065
   1350 O4'       -21.6880   17.8290   -2.2440 O.3      43   A55      -0.3548
   1351 C3'       -19.9290   17.9260   -0.7040 C.3      43   A55       0.2022
   1352 O3'       -19.5750   17.9950    0.6660 O.3      43   A55      -0.5246
   1353 C2'       -19.9770   16.5060   -1.2530 C.3      43   A55       0.0670
   1354 O2'       -20.6080   15.6310   -0.3300 O.3      43   A55      -0.6139
   1355 C1'       -20.8970   16.6780   -2.4630 C.3      43   A55       0.0394
   1356 N9        -20.1460   16.8470   -3.7230 N.ar     43   A55      -0.0251
   1357 C8        -19.9590   18.0000   -4.4440 C.ar     43   A55       0.2006
   1358 N7        -19.2470   17.8340   -5.5330 N.ar     43   A55      -0.6073
   1359 C5        -18.9450   16.4800   -5.5320 C.ar     43   A55       0.0515
   1360 C6        -18.2130   15.6700   -6.4200 C.ar     43   A55       0.7009
   1361 N6        -17.6270   16.1280   -7.5290 N.pl3    43   A55      -0.9019
   1362 N1        -18.1010   14.3550   -6.1280 N.ar     43   A55      -0.7615
   1363 C2        -18.6880   13.8940   -5.0160 C.ar     43   A55       0.5875
   1364 N3        -19.4000   14.5550   -4.1050 N.ar     43   A55      -0.6997
   1365 C4        -19.4930   15.8590   -4.4240 C.ar     43   A55       0.3053
   1366 H5'       -22.5219   20.1691   -1.3139 H        43   A55       0.0679
   1367 H5''      -21.2543   20.3708   -0.0863 H        43   A55       0.0679
   1368 H4'       -22.0024   18.0543   -0.2032 H        43   A55       0.1174
   1369 H3'       -19.2176   18.5109   -1.2870 H        43   A55       0.0615
   1370 H2'       -18.9886   16.1482   -1.5416 H        43   A55       0.0972
   1371 H1'       -21.5466   15.8067   -2.5466 H        43   A55       0.2007
   1372 H8        -20.3611   18.9559   -4.1424 H        43   A55       0.1553
   1373 H2        -18.5669   12.8367   -4.8320 H        43   A55       0.0473
   1374 HO2'      -19.9504   15.0543    0.0657 H        43   A55       0.4186
   1375 H61       -17.5162   15.3780   -8.1963 H        43   A55       0.4115
   1376 H62       -17.3372   17.0839   -7.6785 H        43   A55       0.4115
   1377 P         -18.0510   18.2690    1.0910 P.3      44   A56       1.1662
   1378 OP1       -18.0340   18.6670    2.5220 O.co2    44   A56      -0.7760
   1379 OP2       -17.4420   19.1600    0.0710 O.co2    44   A56      -0.7760
   1380 O5'       -17.3600   16.8400    0.9710 O.3      44   A56      -0.4989
   1381 C5'       -17.7990   15.7540    1.7700 C.3      44   A56       0.0558
   1382 C4'       -17.3030   14.4380    1.2300 C.3      44   A56       0.1065
   1383 O4'       -17.8350   14.2260   -0.1060 O.3      44   A56      -0.3548
   1384 C3'       -15.8000   14.3160    1.0450 C.3      44   A56       0.2022
   1385 O3'       -15.1030   14.0330    2.2460 O.3      44   A56      -0.5246
   1386 C2'       -15.6900   13.2190   -0.0030 C.3      44   A56       0.0670
   1387 O2'       -15.9190   11.9450    0.5820 O.3      44   A56      -0.6139
   1388 C1'       -16.8780   13.5560   -0.9020 C.3      44   A56       0.0394
   1389 N9        -16.4800   14.4480   -2.0080 N.ar     44   A56      -0.0251
   1390 C8        -16.5630   15.8170   -2.0640 C.ar     44   A56       0.2006
   1391 N7        -16.1180   16.3300   -3.1850 N.ar     44   A56      -0.6073
   1392 C5        -15.7070   15.2240   -3.9170 C.ar     44   A56       0.0515
   1393 C6        -15.1390   15.0910   -5.1970 C.ar     44   A56       0.7009
   1394 N6        -14.8740   16.1220   -6.0030 N.pl3    44   A56      -0.9019
   1395 N1        -14.8480   13.8440   -5.6290 N.ar     44   A56      -0.7615
   1396 C2        -15.1130   12.8090   -4.8220 C.ar     44   A56       0.5875
   1397 N3        -15.6440   12.8060   -3.6020 N.ar     44   A56      -0.6997
   1398 C4        -15.9210   14.0590   -3.2020 C.ar     44   A56       0.3053
   1399 H5'       -17.4225   15.8854    2.7844 H        44   A56       0.0679
   1400 H5''      -18.8887   15.7437    1.7917 H        44   A56       0.0679
   1401 H4'       -17.6472   13.6344    1.8811 H        44   A56       0.1174
   1402 H3'       -15.4183   15.2466    0.6249 H        44   A56       0.0615
   1403 H2'       -14.7432   13.2592   -0.5416 H        44   A56       0.0972
   1404 H1'       -17.3088   12.6390   -1.3039 H        44   A56       0.2007
   1405 H8        -16.9589   16.4168   -1.2578 H        44   A56       0.1553
   1406 H2        -14.8593   11.8369   -5.2183 H        44   A56       0.0473
   1407 HO2'      -15.2760   11.3171    0.2445 H        44   A56       0.4186
   1408 H61       -14.8678   15.7380   -6.9371 H        44   A56       0.4115
   1409 H62       -14.7137   17.0826   -5.7352 H        44   A56       0.4115
   1410 P         -13.6210   14.6160    2.4700 P.3      45   G57       1.1662
   1411 OP1       -13.1890   14.2550    3.8440 O.co2    45   G57      -0.7760
   1412 OP2       -13.6160   16.0400    2.0490 O.co2    45   G57      -0.7760
   1413 O5'       -12.7230   13.7890    1.4460 O.3      45   G57      -0.4989
   1414 C5'       -12.4900   12.4030    1.6460 C.3      45   G57       0.0558
   1415 C4'       -11.9580   11.7320    0.4040 C.3      45   G57       0.1065
   1416 O4'       -12.8290   12.0080   -0.7250 O.3      45   G57      -0.3548
   1417 C3'       -10.5900   12.1830   -0.0810 C.3      45   G57       0.2022
   1418 O3'        -9.5140   11.6220    0.6510 O.3      45   G57      -0.5246
   1419 C2'       -10.6150   11.7630   -1.5430 C.3      45   G57       0.0670
   1420 O2'       -10.4150   10.3620   -1.6650 O.3      45   G57      -0.6139
   1421 C1'       -12.0650   12.0740   -1.9130 C.3      45   G57       0.0191
   1422 N9        -12.1880   13.4250   -2.4910 N.ar     45   G57       0.0492
   1423 C8        -12.6740   14.5630   -1.8930 C.ar     45   G57       0.1374
   1424 N7        -12.6340   15.6070   -2.6780 N.ar     45   G57      -0.5709
   1425 C5        -12.0820   15.1320   -3.8610 C.ar     45   G57       0.1744
   1426 C6        -11.7900   15.8000   -5.0800 C.2      45   G57       0.4770
   1427 O6        -11.9660   16.9880   -5.3750 O.2      45   G57      -0.5597
   1428 N1        -11.2360   14.9340   -6.0170 N.am     45   G57      -0.4787
   1429 C2        -10.9920   13.5990   -5.8120 C.2      45   G57       0.7657
   1430 N2        -10.4500   12.9320   -6.8410 N.pl3    45   G57      -0.9672
   1431 N3        -11.2580   12.9650   -4.6820 N.2      45   G57      -0.6323
   1432 C4        -11.7980   13.7880   -3.7580 C.ar     45   G57       0.1222
   1433 H5'       -11.7638   12.2812    2.4496 H        45   G57       0.0679
   1434 H5''      -13.4250   11.9237    1.9362 H        45   G57       0.0679
   1435 H4'       -11.9326   10.6552    0.5715 H        45   G57       0.1174
   1436 H3'       -10.5319   13.2699   -0.0234 H        45   G57       0.0615
   1437 H2'        -9.9070   12.3322   -2.1453 H        45   G57       0.0972
   1438 H1'       -12.4293   11.3344   -2.6260 H        45   G57       0.2006
   1439 H8        -13.0495   14.5915   -0.8808 H        45   G57       0.1640
   1440 H1        -10.9942   15.3179   -6.9194 H        45   G57       0.3424
   1441 H21       -10.2458   13.4148   -7.7043 H        45   G57       0.4364
   1442 H22       -10.2459   11.9468   -6.7528 H        45   G57       0.4364
   1443 HO2'       -9.7995   10.1873   -2.3807 H        45   G57       0.4186
   1444 P          -8.1510   12.4540    0.8380 P.3      46   A58       1.1662
   1445 OP1        -7.2930   11.7270    1.8100 O.co2    46   A58      -0.7760
   1446 OP2        -8.5170   13.8690    1.1010 O.co2    46   A58      -0.7760
   1447 O5'        -7.4460   12.3800   -0.5900 O.3      46   A58      -0.4989
   1448 C5'        -6.9210   11.1550   -1.0810 C.3      46   A58       0.0558
   1449 C4'        -6.7340   11.1800   -2.5790 C.3      46   A58       0.1065
   1450 O4'        -7.9250   11.7130   -3.2160 O.3      46   A58      -0.3548
   1451 C3'        -5.6120   12.0610   -3.1080 C.3      46   A58       0.2022
   1452 O3'        -4.3340   11.4560   -3.0150 O.3      46   A58      -0.5246
   1453 C2'        -6.0530   12.3290   -4.5400 C.3      46   A58       0.0670
   1454 O2'        -5.7800   11.2080   -5.3680 O.3      46   A58      -0.6139
   1455 C1'        -7.5670   12.4450   -4.3700 C.3      46   A58       0.0394
   1456 N9         -7.9880   13.8470   -4.1940 N.ar     46   A58      -0.0251
   1457 C8         -8.4570   14.4580   -3.0570 C.ar     46   A58       0.2006
   1458 N7         -8.7470   15.7260   -3.2230 N.ar     46   A58      -0.6073
   1459 C5         -8.4460   15.9660   -4.5570 C.ar     46   A58       0.0515
   1460 C6         -8.5320   17.1200   -5.3560 C.ar     46   A58       0.7009
   1461 N6         -8.9660   18.2990   -4.9070 N.pl3    46   A58      -0.9019
   1462 N1         -8.1530   17.0190   -6.6490 N.ar     46   A58      -0.7615
   1463 C2         -7.7180   15.8350   -7.0990 C.ar     46   A58       0.5875
   1464 N3         -7.5920   14.6820   -6.4470 N.ar     46   A58      -0.6997
   1465 C4         -7.9770   14.8170   -5.1660 C.ar     46   A58       0.3053
   1466 H5'        -7.6097   10.3496   -0.8258 H        46   A58       0.0679
   1467 H5''       -5.9589   10.9643   -0.6055 H        46   A58       0.0679
   1468 H4'        -6.5748   10.1604   -2.9299 H        46   A58       0.1174
   1469 H3'        -5.6040   13.0002   -2.5548 H        46   A58       0.0615
   1470 H2'        -5.6157   13.2452   -4.9367 H        46   A58       0.0972
   1471 H1'        -8.0659   12.0205   -5.2412 H        46   A58       0.2007
   1472 H8         -8.5757   13.9429   -2.1152 H        46   A58       0.1553
   1473 H2         -7.4282   15.8129   -8.1392 H        46   A58       0.0473
   1474 HO2'       -5.4561   11.5100   -6.2197 H        46   A58       0.4186
   1475 H61        -9.2626   18.6128   -5.8200 H        46   A58       0.4115
   1476 H62        -8.9894   18.7224   -3.9903 H        46   A58       0.4115
   1477 P          -3.0180   12.3670   -2.8530 P.3      47   G59       1.1662
   1478 OP1        -1.8670   11.4680   -2.5810 O.co2    47   G59      -0.7760
   1479 OP2        -3.3330   13.4590   -1.8970 O.co2    47   G59      -0.7760
   1480 O5'        -2.8100   13.0180   -4.2940 O.3      47   G59      -0.4989
   1481 C5'        -2.5290   12.2120   -5.4300 C.3      47   G59       0.0558
   1482 C4'        -2.7260   12.9770   -6.7160 C.3      47   G59       0.1065
   1483 O4'        -4.0420   13.5880   -6.7240 O.3      47   G59      -0.3548
   1484 C3'        -1.7740   14.1400   -6.9560 C.3      47   G59       0.2022
   1485 O3'        -0.5270   13.7250   -7.4900 O.3      47   G59      -0.5246
   1486 C2'        -2.5680   15.0360   -7.9000 C.3      47   G59       0.0670
   1487 O2'        -2.4920   14.5570   -9.2340 O.3      47   G59      -0.6139
   1488 C1'        -3.9950   14.8300   -7.3930 C.3      47   G59       0.0191
   1489 N9         -4.4230   15.8880   -6.4570 N.ar     47   G59       0.0492
   1490 C8         -4.6620   15.7460   -5.1120 C.ar     47   G59       0.1374
   1491 N7         -5.0420   16.8550   -4.5380 N.ar     47   G59      -0.5709
   1492 C5         -5.0600   17.7850   -5.5680 C.ar     47   G59       0.1744
   1493 C6         -5.3950   19.1640   -5.5520 C.2      47   G59       0.4770
   1494 O6         -5.7520   19.8580   -4.5930 O.2      47   G59      -0.5597
   1495 N1         -5.2810   19.7340   -6.8150 N.am     47   G59      -0.4787
   1496 C2         -4.8940   19.0650   -7.9500 C.2      47   G59       0.7657
   1497 N2         -4.8430   19.7930   -9.0750 N.pl3    47   G59      -0.9672
   1498 N3         -4.5800   17.7800   -7.9790 N.2      47   G59      -0.6323
   1499 C4         -4.6840   17.2050   -6.7610 C.ar     47   G59       0.1222
   1500 H5'        -1.4947   11.8722   -5.3755 H        47   G59       0.0679
   1501 H5''       -3.1902   11.3454   -5.4252 H        47   G59       0.0679
   1502 H4'        -2.6539   12.2834   -7.5537 H        47   G59       0.1174
   1503 H3'        -1.6057   14.6668   -6.0167 H        47   G59       0.0615
   1504 H2'        -2.2581   16.0784   -7.8256 H        47   G59       0.0972
   1505 H1'        -4.6773   14.8056   -8.2427 H        47   G59       0.2006
   1506 H8         -4.5472   14.8115   -4.5829 H        47   G59       0.1640
   1507 H1         -5.4997   20.7160   -6.9046 H        47   G59       0.3424
   1508 H21        -5.0823   20.7740   -9.0530 H        47   G59       0.4364
   1509 H22        -4.5653   19.3603   -9.9443 H        47   G59       0.4364
   1510 HO2'       -1.6003   14.6792   -9.5681 H        47   G59       0.4186
   1511 P           0.8330   14.4660   -7.0610 P.3      48   C60       1.1662
   1512 OP1         1.9600   13.7590   -7.7210 O.co2    48   C60      -0.7760
   1513 OP2         0.8320   14.6280   -5.5840 O.co2    48   C60      -0.7760
   1514 O5'         0.7130   15.9140   -7.7150 O.3      48   C60      -0.4989
   1515 C5'         0.6500   16.0810   -9.1240 C.3      48   C60       0.0558
   1516 C4'         0.1850   17.4690   -9.4870 C.3      48   C60       0.1065
   1517 O4'        -1.1380   17.6970   -8.9360 O.3      48   C60      -0.3548
   1518 C3'         1.0240   18.6100   -8.9310 C.3      48   C60       0.2022
   1519 O3'         2.1680   18.8830   -9.7220 O.3      48   C60      -0.5246
   1520 C2'         0.0310   19.7640   -8.8690 C.3      48   C60       0.0670
   1521 O2'        -0.1310   20.3600  -10.1480 O.3      48   C60      -0.6139
   1522 C1'        -1.2640   19.0350   -8.5070 C.3      48   C60       0.0066
   1523 N1         -1.5340   19.0380   -7.0490 N.am     48   C60      -0.0484
   1524 C2         -2.1000   20.1730   -6.4600 C.2      48   C60       0.7538
   1525 O2         -2.3520   21.1580   -7.1690 O.2      48   C60      -0.6252
   1526 N3         -2.3540   20.1710   -5.1300 N.2      48   C60      -0.7584
   1527 C4         -2.0720   19.0950   -4.3940 C.2      48   C60       0.8185
   1528 N4         -2.3400   19.1390   -3.0860 N.pl3    48   C60      -0.9530
   1529 C5         -1.5000   17.9230   -4.9680 C.2      48   C60      -0.5215
   1530 C6         -1.2540   17.9390   -6.2830 C.2      48   C60       0.0053
   1531 H5'         1.6412   15.9161   -9.5464 H        48   C60       0.0679
   1532 H5''       -0.0432   15.3504   -9.5408 H        48   C60       0.0679
   1533 H4'         0.1389   17.5568  -10.5725 H        48   C60       0.1174
   1534 H3'         1.3419   18.3585   -7.9192 H        48   C60       0.0615
   1535 H2'         0.3086   20.4975   -8.1121 H        48   C60       0.0972
   1536 H1'        -2.0987   19.5033   -9.0287 H        48   C60       0.2029
   1537 H5         -1.2739   17.0558   -4.3653 H        48   C60       0.1928
   1538 H6         -0.8249   17.0651   -6.7505 H        48   C60       0.1958
   1539 H41        -2.1375   18.3403   -2.5019 H        48   C60       0.4234
   1540 H42        -2.7451   19.9709   -2.6812 H        48   C60       0.4234
   1541 HO2'       -0.0490   21.3133  -10.0700 H        48   C60       0.4186
   1542 P           3.5600   19.2800   -9.0240 P.3      49   C61       1.1662
   1543 OP1         4.6490   19.0620  -10.0100 O.co2    49   C61      -0.7760
   1544 OP2         3.6210   18.6020   -7.7040 O.co2    49   C61      -0.7760
   1545 O5'         3.4250   20.8460   -8.7650 O.3      49   C61      -0.4989
   1546 C5'         3.0880   21.7340   -9.8210 C.3      49   C61       0.0558
   1547 C4'         2.5230   23.0290   -9.2930 C.3      49   C61       0.1065
   1548 O4'         1.2860   22.7690   -8.5850 O.3      49   C61      -0.3548
   1549 C3'         3.3890   23.7660   -8.2820 C.3      49   C61       0.2022
   1550 O3'         4.3820   24.5630   -8.9060 O.3      49   C61      -0.5246
   1551 C2'         2.3730   24.5820   -7.4900 C.3      49   C61       0.0670
   1552 O2'         2.0440   25.7790   -8.1800 O.3      49   C61      -0.6139
   1553 C1'         1.1480   23.6640   -7.5040 C.3      49   C61       0.0066
   1554 N1          0.9920   22.8830   -6.2550 N.am     49   C61      -0.0484
   1555 C2          0.3370   23.4730   -5.1700 C.2      49   C61       0.7538
   1556 O2         -0.0800   24.6360   -5.2810 O.2      49   C61      -0.6252
   1557 N3          0.1780   22.7680   -4.0270 N.2      49   C61      -0.7584
   1558 C4          0.6390   21.5190   -3.9430 C.2      49   C61       0.8185
   1559 N4          0.4570   20.8620   -2.7960 N.pl3    49   C61      -0.9530
   1560 C5          1.3040   20.8890   -5.0340 C.2      49   C61      -0.5215
   1561 C6          1.4550   21.6000   -6.1590 C.2      49   C61       0.0053
   1562 H5'         2.3450   21.2579  -10.4608 H        49   C61       0.0679
   1563 H5''        3.9815   21.9468  -10.4080 H        49   C61       0.0679
   1564 H4'         2.3169   23.6930  -10.1325 H        49   C61       0.1174
   1565 H3'         3.8675   23.0437   -7.6207 H        49   C61       0.0615
   1566 H2'         2.7173   24.7816   -6.4752 H        49   C61       0.0972
   1567 H1'         0.2542   24.2688   -7.6572 H        49   C61       0.2029
   1568 H5          1.6723   19.8767   -4.9569 H        49   C61       0.1928
   1569 H6          1.9519   21.1514   -7.0065 H        49   C61       0.1958
   1570 H41        -0.0161   21.3124   -2.0256 H        49   C61       0.4234
   1571 H42         0.7923   19.9143   -2.6982 H        49   C61       0.4234
   1572 HO2'        1.1408   26.0301   -7.9733 H        49   C61       0.4186
   1573 P           5.9440   24.2890   -8.6420 P.3      50   U62       1.1662
   1574 OP1         6.7140   25.0710   -9.6420 O.co2    50   U62      -0.7760
   1575 OP2         6.1520   22.8220   -8.5420 O.co2    50   U62      -0.7760
   1576 O5'         6.2080   24.9340   -7.2100 O.3      50   U62      -0.4989
   1577 C5'         7.5290   25.2420   -6.7780 C.3      50   U62       0.0558
   1578 C4'         7.5750   25.5150   -5.2950 C.3      50   U62       0.1065
   1579 O4'         7.0220   24.3710   -4.5890 O.3      50   U62      -0.3548
   1580 C3'         8.9700   25.7380   -4.7140 C.3      50   U62       0.2022
   1581 O3'         8.8850   26.6620   -3.6290 O.3      50   U62      -0.5246
   1582 C2'         9.3330   24.3570   -4.1790 C.3      50   U62       0.0670
   1583 O2'        10.2990   24.3600   -3.1490 O.3      50   U62      -0.6139
   1584 C1'         7.9790   23.8560   -3.6840 C.3      50   U62       0.0674
   1585 N1          7.8510   22.3920   -3.6720 N.am     50   U62       0.0418
   1586 C2          7.4090   21.8010   -2.5060 C.2      50   U62       0.4687
   1587 O2          7.1250   22.4420   -1.5080 O.2      50   U62      -0.5477
   1588 N3          7.3080   20.4330   -2.5520 N.am     50   U62      -0.3549
   1589 C4          7.6020   19.6140   -3.6240 C.2      50   U62       0.5952
   1590 O4          7.4610   18.3950   -3.5120 O.2      50   U62      -0.5761
   1591 C5          8.0550   20.3030   -4.7940 C.2      50   U62      -0.3635
   1592 C6          8.1620   21.6370   -4.7780 C.2      50   U62      -0.1126
   1593 H5'         8.1812   24.3982   -7.0033 H        50   U62       0.0679
   1594 H5''        7.8845   26.1217   -7.3145 H        50   U62       0.0679
   1595 H4'         6.9615   26.3899   -5.0801 H        50   U62       0.1174
   1596 H3'         9.6747   26.0735   -5.4749 H        50   U62       0.0615
   1597 H2'         9.6769   23.7271   -4.9994 H        50   U62       0.0972
   1598 H1'         7.7865   24.2483   -2.6854 H        50   U62       0.1824
   1599 H3          6.9838   19.9764   -1.7115 H        50   U62       0.3154
   1600 H5          8.3093   19.7490   -5.6855 H        50   U62       0.1811
   1601 H6          8.5063   22.1403   -5.6693 H        50   U62       0.2188
   1602 HO2'       11.1354   24.6798   -3.4950 H        50   U62       0.4186
   1603 P           9.4750   28.1490   -3.7820 P.3      51   U63       1.1662
   1604 OP1         9.6820   28.4110   -5.2290 O.co2    51   U63      -0.7760
   1605 OP2        10.6100   28.2970   -2.8370 O.co2    51   U63      -0.7760
   1606 O5'         8.2900   29.0890   -3.2800 O.3      51   U63      -0.4989
   1607 C5'         7.4040   29.7060   -4.2090 C.3      51   U63       0.0558
   1608 C4'         6.2060   30.3240   -3.5290 C.3      51   U63       0.1065
   1609 O4'         5.3140   29.2720   -3.0680 O.3      51   U63      -0.3548
   1610 C3'         6.5120   31.1900   -2.3070 C.3      51   U63       0.2022
   1611 O3'         5.5750   32.2660   -2.2490 O.3      51   U63      -0.5246
   1612 C2'         6.2530   30.2330   -1.1470 C.3      51   U63       0.0670
   1613 O2'         5.9440   30.8610    0.0800 O.3      51   U63      -0.6139
   1614 C1'         5.0760   29.4250   -1.6820 C.3      51   U63       0.0674
   1615 N1          4.9310   28.0890   -1.0870 N.am     51   U63       0.0418
   1616 C2          4.0160   27.9520   -0.0630 C.2      51   U63       0.4687
   1617 O2          3.3530   28.8850    0.3570 O.2      51   U63      -0.5477
   1618 N3          3.9130   26.6870    0.4560 N.am     51   U63      -0.3549
   1619 C4          4.6150   25.5690    0.0560 C.2      51   U63       0.5952
   1620 O4          4.4080   24.4950    0.6210 O.2      51   U63      -0.5761
   1621 C5          5.5380   25.7920   -1.0150 C.2      51   U63      -0.3635
   1622 C6          5.6610   27.0160   -1.5390 C.2      51   U63      -0.1126
   1623 H5'         7.9447   30.4861   -4.7448 H        51   U63       0.0679
   1624 H5''        7.0603   28.9575   -4.9230 H        51   U63       0.0679
   1625 H4'         5.6722   30.9334   -4.2582 H        51   U63       0.1174
   1626 H3'         7.5410   31.5494   -2.3131 H        51   U63       0.0615
   1627 H2'         7.1146   29.5785   -1.0149 H        51   U63       0.0972
   1628 H1'         4.1545   29.9881   -1.5339 H        51   U63       0.1824
   1629 H3          3.2537   26.5605    1.2106 H        51   U63       0.3154
   1630 H5          6.1322   24.9756   -1.3980 H        51   U63       0.1811
   1631 H6          6.3604   27.1671   -2.3480 H        51   U63       0.2188
   1632 HO2'        5.0063   30.7648    0.2620 H        51   U63       0.4186
   1633 P           5.9790   33.7260   -2.7880 P.3      52   A64       1.1662
   1634 OP1         7.3880   33.9870   -2.4000 O.co2    52   A64      -0.7760
   1635 OP2         4.9130   34.6730   -2.3720 O.co2    52   A64      -0.7760
   1636 O5'         5.9230   33.5870   -4.3740 O.3      52   A64      -0.4989
   1637 C5'         4.8700   34.1830   -5.1180 C.3      52   A64       0.0558
   1638 C4'         4.6840   33.5080   -6.4530 C.3      52   A64       0.1065
   1639 O4'         5.0750   32.1190   -6.3560 O.3      52   A64      -0.3548
   1640 C3'         3.2570   33.4740   -6.9810 C.3      52   A64       0.2022
   1641 O3'         2.9360   34.6620   -7.6860 O.3      52   A64      -0.5246
   1642 C2'         3.2320   32.2310   -7.8710 C.3      52   A64       0.0670
   1643 O2'         3.6580   32.5470   -9.1880 O.3      52   A64      -0.6139
   1644 C1'         4.2890   31.3310   -7.2190 C.3      52   A64       0.0394
   1645 N9          3.7380   30.1890   -6.4590 N.ar     52   A64      -0.0251
   1646 C8          3.7920   28.8730   -6.8430 C.ar     52   A64       0.2006
   1647 N7          3.2580   28.0390   -5.9880 N.ar     52   A64      -0.6073
   1648 C5          2.8290   28.8600   -4.9580 C.ar     52   A64       0.0515
   1649 C6          2.1790   28.5760   -3.7440 C.ar     52   A64       0.7009
   1650 N6          1.8400   27.3440   -3.3590 N.pl3    52   A64      -0.9019
   1651 N1          1.8840   29.6130   -2.9330 N.ar     52   A64      -0.7615
   1652 C2          2.2290   30.8460   -3.3270 C.ar     52   A64       0.5875
   1653 N3          2.8440   31.2410   -4.4410 N.ar     52   A64      -0.6997
   1654 C4          3.1200   30.1870   -5.2280 C.ar     52   A64       0.3053
   1655 H5'         3.9442   34.1016   -4.5484 H        52   A64       0.0679
   1656 H5''        5.0986   35.2365   -5.2793 H        52   A64       0.0679
   1657 H4'         5.3194   34.0017   -7.1883 H        52   A64       0.1174
   1658 H3'         2.5631   33.3430   -6.1507 H        52   A64       0.0615
   1659 H2'         2.2496   31.7588   -7.8709 H        52   A64       0.0972
   1660 H1'         4.9343   30.9383   -8.0048 H        52   A64       0.2007
   1661 H8          4.2379   28.5524   -7.7730 H        52   A64       0.1553
   1662 H2          1.9701   31.6376   -2.6394 H        52   A64       0.0473
   1663 H61         2.0506   26.5538   -3.9517 H        52   A64       0.4115
   1664 H62         1.3729   27.2018   -2.4749 H        52   A64       0.4115
   1665 HO2'        3.0052   33.1109   -9.6093 H        52   A64       0.4186
   1666 P           1.6640   35.5550   -7.2790 P.3      53   A65       1.1662
   1667 OP1         1.9500   36.9530   -7.6890 O.co2    53   A65      -0.7760
   1668 OP2         1.3110   35.2640   -5.8670 O.co2    53   A65      -0.7760
   1669 O5'         0.5010   35.0040   -8.2150 O.3      53   A65      -0.4989
   1670 C5'         0.7060   34.8600   -9.6170 C.3      53   A65       0.0558
   1671 C4'        -0.2590   33.8770  -10.2340 C.3      53   A65       0.1065
   1672 O4'        -0.0700   32.5630   -9.6340 O.3      53   A65      -0.3548
   1673 C3'        -1.7440   34.2090  -10.0630 C.3      53   A65       0.2022
   1674 O3'        -2.4470   33.7590  -11.2210 O.3      53   A65      -0.5246
   1675 C2'        -2.1380   33.3380   -8.8760 C.3      53   A65       0.0670
   1676 O2'        -3.5160   33.0500   -8.7830 O.3      53   A65      -0.6139
   1677 C1'        -1.3120   32.0900   -9.1540 C.3      53   A65       0.0394
   1678 N9         -1.0950   31.2190   -7.9970 N.ar     53   A65      -0.0251
   1679 C8         -1.2650   31.4830   -6.6590 C.ar     53   A65       0.2006
   1680 N7         -0.9950   30.4560   -5.8870 N.ar     53   A65      -0.6073
   1681 C5         -0.6350   29.4530   -6.7770 C.ar     53   A65       0.0515
   1682 C6         -0.2360   28.1180   -6.6010 C.ar     53   A65       0.7009
   1683 N6         -0.1310   27.5300   -5.4100 N.pl3    53   A65      -0.9019
   1684 N1          0.0530   27.3920   -7.7030 N.ar     53   A65      -0.7615
   1685 C2         -0.0560   27.9770   -8.9020 C.ar     53   A65       0.5875
   1686 N3         -0.4200   29.2210   -9.1960 N.ar     53   A65      -0.6997
   1687 C4         -0.6970   29.9110   -8.0780 C.ar     53   A65       0.3053
   1688 H5'         0.5709   35.8310  -10.0934 H        53   A65       0.0679
   1689 H5''        1.7251   34.5161   -9.7937 H        53   A65       0.0679
   1690 H4'        -0.0425   33.8038  -11.2998 H        53   A65       0.1174
   1691 H3'        -1.9086   35.2687   -9.8680 H        53   A65       0.0615
   1692 H2'        -1.7979   33.8038   -7.9511 H        53   A65       0.0972
   1693 H1'        -1.7979   31.5144   -9.9418 H        53   A65       0.2007
   1694 H8         -1.5888   32.4410   -6.2799 H        53   A65       0.1553
   1695 H2          0.1854   27.3510   -9.7483 H        53   A65       0.0473
   1696 HO2'       -4.0220   33.7905   -9.1254 H        53   A65       0.4186
   1697 H61        -0.0323   26.6300   -5.8576 H        53   A65       0.4115
   1698 H62        -0.6473   28.0406   -4.7080 H        53   A65       0.4115
   1699 P          -3.7690   34.5190  -11.7220 P.3      54   A66       1.1662
   1700 OP1        -3.4050   35.3340  -12.9080 O.co2    54   A66      -0.7760
   1701 OP2        -4.4030   35.1670  -10.5470 O.co2    54   A66      -0.7760
   1702 O5'        -4.7220   33.3420  -12.2170 O.3      54   A66      -0.4989
   1703 C5'        -5.1960   32.3520  -11.3150 C.3      54   A66       0.0558
   1704 C4'        -4.7580   30.9720  -11.7330 C.3      54   A66       0.1065
   1705 O4'        -3.5490   30.5990  -11.0160 O.3      54   A66      -0.3548
   1706 C3'        -5.7220   29.8410  -11.4200 C.3      54   A66       0.2022
   1707 O3'        -6.8020   29.7450  -12.3310 O.3      54   A66      -0.5246
   1708 C2'        -4.8030   28.6320  -11.4180 C.3      54   A66       0.0670
   1709 O2'        -4.4500   28.2700  -12.7450 O.3      54   A66      -0.6139
   1710 C1'        -3.5700   29.2130  -10.7330 C.3      54   A66       0.0394
   1711 N9         -3.6520   29.0350   -9.2720 N.ar     54   A66      -0.0251
   1712 C8         -3.9320   29.9810   -8.3170 C.ar     54   A66       0.2006
   1713 N7         -3.9470   29.5090   -7.0940 N.ar     54   A66      -0.6073
   1714 C5         -3.6720   28.1580   -7.2550 C.ar     54   A66       0.0515
   1715 C6         -3.5490   27.0980   -6.3390 C.ar     54   A66       0.7009
   1716 N6         -3.6940   27.2370   -5.0190 N.pl3    54   A66      -0.9019
   1717 N1         -3.2680   25.8710   -6.8310 N.ar     54   A66      -0.7615
   1718 C2         -3.1220   25.7270   -8.1540 C.ar     54   A66       0.5875
   1719 N3         -3.2130   26.6450   -9.1140 N.ar     54   A66      -0.6997
   1720 C4         -3.4930   27.8520   -8.5920 C.ar     54   A66       0.3053
   1721 H5'        -4.8038   32.5622  -10.3200 H        54   A66       0.0679
   1722 H5''       -6.2850   32.3877  -11.2850 H        54   A66       0.0679
   1723 H4'        -4.5495   30.9747  -12.8029 H        54   A66       0.1174
   1724 H3'        -6.1195   29.9839  -10.4152 H        54   A66       0.0615
   1725 H2'        -5.2259   27.7951  -10.8623 H        54   A66       0.0972
   1726 H1'        -2.6680   28.7379  -11.1186 H        54   A66       0.2007
   1727 H8         -4.1223   31.0179   -8.5516 H        54   A66       0.1553
   1728 H2         -2.8990   24.7251   -8.4898 H        54   A66       0.0473
   1729 H61        -4.1637   28.1081   -4.8170 H        54   A66       0.4115
   1730 H62        -4.4226   26.5419   -4.9414 H        54   A66       0.4115
   1731 HO2'       -5.2161   27.9018  -13.1913 H        54   A66       0.4186
   1732 P          -8.3130   29.7760  -11.7840 P.3      55   C67       1.1662
   1733 OP1        -9.1570   30.4850  -12.7780 O.co2    55   C67      -0.7760
   1734 OP2        -8.2660   30.2630  -10.3840 O.co2    55   C67      -0.7760
   1735 O5'        -8.7500   28.2440  -11.7540 O.3      55   C67      -0.4989
   1736 C5'        -8.3700   27.3970  -10.6780 C.3      55   C67       0.0558
   1737 C4'        -7.3920   26.3400  -11.1260 C.3      55   C67       0.1065
   1738 O4'        -6.4660   26.0350  -10.0530 O.3      55   C67      -0.3548
   1739 C3'        -7.9730   24.9880  -11.5080 C.3      55   C67       0.2022
   1740 O3'        -8.5100   24.9710  -12.8190 O.3      55   C67      -0.5246
   1741 C2'        -6.7820   24.0540  -11.3290 C.3      55   C67       0.0670
   1742 O2'        -5.9140   24.1310  -12.4490 O.3      55   C67      -0.6139
   1743 C1'        -6.0740   24.6810  -10.1250 C.3      55   C67       0.0066
   1744 N1         -6.4240   24.0120   -8.8520 N.am     55   C67      -0.0484
   1745 C2         -5.7150   22.8650   -8.4810 C.2      55   C67       0.7538
   1746 O2         -4.8190   22.4440   -9.2290 O.2      55   C67      -0.6252
   1747 N3         -6.0210   22.2440   -7.3190 N.2      55   C67      -0.7584
   1748 C4         -6.9900   22.7270   -6.5400 C.2      55   C67       0.8185
   1749 N4         -7.2590   22.0820   -5.4030 N.pl3    55   C67      -0.9530
   1750 C5         -7.7280   23.8940   -6.8920 C.2      55   C67      -0.5215
   1751 C6         -7.4150   24.4990   -8.0440 C.2      55   C67       0.0053
   1752 H5'        -7.9059   28.0013   -9.8985 H        55   C67       0.0679
   1753 H5''       -9.2588   26.9129  -10.2733 H        55   C67       0.0679
   1754 H4'        -6.8263   26.7270  -11.9735 H        55   C67       0.1174
   1755 H3'        -8.7528   24.7173  -10.7962 H        55   C67       0.0615
   1756 H2'        -7.0956   23.0297  -11.1277 H        55   C67       0.0972
   1757 H1'        -4.9956   24.6269  -10.2744 H        55   C67       0.2029
   1758 H5         -8.5105   24.2759   -6.2531 H        55   C67       0.1928
   1759 H6         -7.9538   25.3867   -8.3409 H        55   C67       0.1958
   1760 H41        -6.7348   21.2549   -5.1554 H        55   C67       0.4234
   1761 H42        -7.9867   22.4209   -4.7901 H        55   C67       0.4234
   1762 HO2'       -5.9181   23.2922  -12.9159 H        55   C67       0.4186
   1763 P          -9.7080   23.9670  -13.1930 P.3      56   U68       1.1662
   1764 OP1       -10.1410   24.2740  -14.5790 O.co2    56   U68      -0.7760
   1765 OP2       -10.6950   23.9920  -12.0840 O.co2    56   U68      -0.7760
   1766 O5'        -9.0200   22.5300  -13.2100 O.3      56   U68      -0.4989
   1767 C5'        -8.0400   22.2040  -14.1840 C.3      56   U68       0.0558
   1768 C4'        -7.4430   20.8420  -13.9350 C.3      56   U68       0.1065
   1769 O4'        -6.7810   20.8210  -12.6430 O.3      56   U68      -0.3548
   1770 C3'        -8.4260   19.6850  -13.8620 C.3      56   U68       0.2022
   1771 O3'        -8.8330   19.2180  -15.1360 O.3      56   U68      -0.5246
   1772 C2'        -7.6600   18.6510  -13.0480 C.3      56   U68       0.0670
   1773 O2'        -6.7070   17.9800  -13.8590 O.3      56   U68      -0.6139
   1774 C1'        -6.9100   19.5410  -12.0570 C.3      56   U68       0.0674
   1775 N1         -7.6300   19.6750  -10.7700 N.am     56   U68       0.0418
   1776 C2         -7.5780   18.6100   -9.8890 C.2      56   U68       0.4687
   1777 O2         -6.9740   17.5770  -10.1270 O.2      56   U68      -0.5477
   1778 N3         -8.2590   18.7960   -8.7120 N.am     56   U68      -0.3549
   1779 C4         -8.9730   19.9140   -8.3330 C.2      56   U68       0.5952
   1780 O4         -9.5340   19.9300   -7.2370 O.2      56   U68      -0.5761
   1781 C5         -8.9790   20.9720   -9.2960 C.2      56   U68      -0.3635
   1782 C6         -8.3230   20.8200  -10.4510 C.2      56   U68      -0.1126
   1783 H5'        -8.5048   22.2117  -15.1699 H        56   U68       0.0679
   1784 H5''       -7.2473   22.9517  -14.1571 H        56   U68       0.0679
   1785 H4'        -6.7077   20.6317  -14.7117 H        56   U68       0.1174
   1786 H3'        -9.3056   19.9999  -13.3005 H        56   U68       0.0615
   1787 H2'        -8.3285   17.9534  -12.5435 H        56   U68       0.0972
   1788 H1'        -5.9191   19.1249  -11.8754 H        56   U68       0.1824
   1789 H3         -8.2348   18.0319   -8.0520 H        56   U68       0.3154
   1790 H5         -9.5110   21.8892   -9.0909 H        56   U68       0.1811
   1791 H6         -8.3377   21.6308  -11.1643 H        56   U68       0.2188
   1792 HO2'       -6.6850   17.0494  -13.6243 H        56   U68       0.4186
   1793 P         -10.2750   18.5340  -15.3220 P.3      57   C69       1.1662
   1794 OP1       -10.4940   18.3210  -16.7760 O.co2    57   C69      -0.7760
   1795 OP2       -11.2640   19.3150  -14.5350 O.co2    57   C69      -0.7760
   1796 O5'       -10.1150   17.1050  -14.6360 O.3      57   C69      -0.4989
   1797 C5'        -9.1900   16.1580  -15.1470 C.3      57   C69       0.0558
   1798 C4'        -8.9240   15.0470  -14.1630 C.3      57   C69       0.1065
   1799 O4'        -8.4640   15.5960  -12.9020 O.3      57   C69      -0.3548
   1800 C3'       -10.1190   14.1930  -13.7760 C.3      57   C69       0.2022
   1801 O3'       -10.4210   13.2080  -14.7480 O.3      57   C69      -0.5246
   1802 C2'        -9.6890   13.6130  -12.4340 C.3      57   C69       0.0670
   1803 O2'        -8.8000   12.5200  -12.6200 O.3      57   C69      -0.6139
   1804 C1'        -8.8990   14.7780  -11.8350 C.3      57   C69       0.0066
   1805 N1         -9.7090   15.5940  -10.9000 N.am     57   C69      -0.0484
   1806 C2         -9.8910   15.1260   -9.5940 C.2      57   C69       0.7538
   1807 O2         -9.3770   14.0480   -9.2620 O.2      57   C69      -0.6252
   1808 N3        -10.6220   15.8580   -8.7230 N.2      57   C69      -0.7584
   1809 C4        -11.1600   17.0140   -9.1110 C.2      57   C69       0.8185
   1810 N4        -11.8730   17.6980   -8.2130 N.pl3    57   C69      -0.9530
   1811 C5        -10.9910   17.5180  -10.4330 C.2      57   C69      -0.5215
   1812 C6        -10.2630   16.7840  -11.2860 C.2      57   C69       0.0053
   1813 H5'        -9.5952   15.7282  -16.0630 H        57   C69       0.0679
   1814 H5''       -8.2519   16.6638  -15.3754 H        57   C69       0.0679
   1815 H4'        -8.1465   14.3991  -14.5677 H        57   C69       0.1174
   1816 H3'       -10.9883   14.8341  -13.6300 H        57   C69       0.0615
   1817 H2'       -10.5444   13.3409  -11.8156 H        57   C69       0.0972
   1818 H1'        -8.0295   14.3865  -11.3070 H        57   C69       0.2029
   1819 H5        -11.4327   18.4558  -10.7361 H        57   C69       0.1928
   1820 H6        -10.1111   17.1378  -12.2950 H        57   C69       0.1958
   1821 H41       -11.9888   17.3350   -7.2776 H        57   C69       0.4234
   1822 H42       -12.2965   18.5784   -8.4691 H        57   C69       0.4234
   1823 HO2'       -9.2122   11.7138  -12.3010 H        57   C69       0.4186
   1824 P         -11.9180   12.6450  -14.8980 P.3      58   U70       1.1662
   1825 OP1       -11.9780   11.8260  -16.1360 O.co2    58   U70      -0.7760
   1826 OP2       -12.8610   13.7790  -14.7260 O.co2    58   U70      -0.7760
   1827 O5'       -12.0840   11.6660  -13.6530 O.3      58   U70      -0.4989
   1828 C5'       -11.2230   10.5500  -13.4840 C.3      58   U70       0.0558
   1829 C4'       -11.4290    9.9000  -12.1400 C.3      58   U70       0.1065
   1830 O4'       -11.0260   10.8090  -11.0840 O.3      58   U70      -0.3548
   1831 C3'       -12.8650    9.5430  -11.7940 C.3      58   U70       0.2022
   1832 O3'       -13.2760    8.3200  -12.3790 O.3      58   U70      -0.5246
   1833 C2'       -12.8490    9.5150  -10.2710 C.3      58   U70       0.0670
   1834 O2'       -12.3150    8.2870   -9.7970 O.3      58   U70      -0.6139
   1835 C1'       -11.8530   10.6330   -9.9530 C.3      58   U70       0.0674
   1836 N1        -12.5160   11.9230   -9.6430 N.am     58   U70       0.0418
   1837 C2        -13.0870   12.0910   -8.3930 C.2      58   U70       0.4687
   1838 O2        -13.0860   11.2240   -7.5360 O.2      58   U70      -0.5477
   1839 N3        -13.6680   13.3170   -8.1810 N.am     58   U70      -0.3549
   1840 C4        -13.7320   14.3730   -9.0680 C.2      58   U70       0.5952
   1841 O4        -14.2910   15.4180   -8.7320 O.2      58   U70      -0.5761
   1842 C5        -13.1160   14.1230  -10.3340 C.2      58   U70      -0.3635
   1843 C6        -12.5430   12.9390  -10.5680 C.2      58   U70      -0.1126
   1844 H5'       -11.4295    9.8203  -14.2669 H        58   U70       0.0679
   1845 H5''      -10.1877   10.8807  -13.5669 H        58   U70       0.0679
   1846 H4'       -10.8172    8.9996  -12.0847 H        58   U70       0.1174
   1847 H3'       -13.5250   10.3421  -12.1315 H        58   U70       0.0615
   1848 H2'       -13.8342    9.7179   -9.8512 H        58   U70       0.0972
   1849 H1'       -11.2386   10.3336   -9.1039 H        58   U70       0.1824
   1850 H3        -14.0952   13.4621   -7.2774 H        58   U70       0.3154
   1851 H5        -13.1140   14.8873  -11.0970 H        58   U70       0.1811
   1852 H6        -12.0793   12.7725  -11.5291 H        58   U70       0.2188
   1853 HO2'      -13.0129    7.7714   -9.3863 H        58   U70       0.4186
   1854 P         -14.7880    8.1310  -12.8860 P.3      59   U71       1.1662
   1855 OP1       -14.8500    6.8730  -13.6740 O.co2    59   U71      -0.7760
   1856 OP2       -15.2340    9.4070  -13.5020 O.co2    59   U71      -0.7760
   1857 O5'       -15.6140    7.9130  -11.5430 O.3      59   U71      -0.4989
   1858 C5'       -15.2900    6.8540  -10.6550 C.3      59   U71       0.0558
   1859 C4'       -15.9550    7.0370   -9.3150 C.3      59   U71       0.1065
   1860 O4'       -15.3850    8.1830   -8.6320 O.3      59   U71      -0.3548
   1861 C3'       -17.4430    7.3360   -9.3520 C.3      59   U71       0.2022
   1862 O3'       -18.2330    6.1760   -9.5390 O.3      59   U71      -0.5246
   1863 C2'       -17.6760    8.0330   -8.0180 C.3      59   U71       0.0670
   1864 O2'       -17.7490    7.0860   -6.9630 O.3      59   U71      -0.6139
   1865 C1'       -16.3790    8.8290   -7.8630 C.3      59   U71       0.0674
   1866 N1        -16.5140   10.2270   -8.3370 N.am     59   U71       0.0418
   1867 C2        -17.0380   11.1550   -7.4580 C.2      59   U71       0.4687
   1868 O2        -17.3930   10.8670   -6.3280 O.2      59   U71      -0.5477
   1869 N3        -17.1330   12.4340   -7.9510 N.am     59   U71      -0.3549
   1870 C4        -16.7630   12.8710   -9.2070 C.2      59   U71       0.5952
   1871 O4        -16.9090   14.0570   -9.5070 O.2      59   U71      -0.5761
   1872 C5        -16.2280   11.8520  -10.0560 C.2      59   U71      -0.3635
   1873 C6        -16.1240   10.5980   -9.6030 C.2      59   U71      -0.1126
   1874 H5'       -15.6231    5.9119  -11.0903 H        59   U71       0.0679
   1875 H5''      -14.2093    6.8216  -10.5164 H        59   U71       0.0679
   1876 H4'       -15.7875    6.1450   -8.7113 H        59   U71       0.1174
   1877 H3'       -17.6449    8.0384  -10.1607 H        59   U71       0.0615
   1878 H2'       -18.5515    8.6817   -8.0446 H        59   U71       0.0972
   1879 H1'       -16.0798    8.8307   -6.8149 H        59   U71       0.1824
   1880 H3        -17.5150   13.1299   -7.3266 H        59   U71       0.3154
   1881 H5        -15.9092   12.0942  -11.0590 H        59   U71       0.1811
   1882 H6        -15.7161    9.8438  -10.2596 H        59   U71       0.2188
   1883 HO2'      -18.6315    7.0946   -6.5852 H        59   U71       0.4186
   1884 P         -19.6490    6.2800  -10.2870 P.3      60   G72       1.1662
   1885 OP1       -20.1130    4.9000  -10.5790 O.co2    60   G72      -0.7760
   1886 OP2       -19.5200    7.2640  -11.3920 O.co2    60   G72      -0.7760
   1887 O5'       -20.6110    6.9060   -9.1850 O.3      60   G72      -0.4989
   1888 C5'       -20.7960    6.2610   -7.9340 C.3      60   G72       0.0558
   1889 C4'       -21.5440    7.1440   -6.9700 C.3      60   G72       0.1065
   1890 O4'       -20.7220    8.2790   -6.5970 O.3      60   G72      -0.3548
   1891 C3'       -22.8190    7.7720   -7.5050 C.3      60   G72       0.2022
   1892 O3'       -23.9190    6.8780   -7.4700 O.3      60   G72      -0.5246
   1893 C2'       -22.9890    8.9970   -6.6140 C.3      60   G72       0.0670
   1894 O2'       -23.5530    8.6340   -5.3630 O.3      60   G72      -0.6139
   1895 C1'       -21.5340    9.4150   -6.3880 C.3      60   G72       0.0191
   1896 N9        -21.1030   10.4800   -7.3150 N.ar     60   G72       0.0492
   1897 C8        -20.4820   10.3200   -8.5300 C.ar     60   G72       0.1374
   1898 N7        -20.2200   11.4520   -9.1270 N.ar     60   G72      -0.5709
   1899 C5        -20.6960   12.4200   -8.2530 C.ar     60   G72       0.1744
   1900 C6        -20.6940   13.8370   -8.3580 C.2      60   G72       0.4770
   1901 O6        -20.2560   14.5450   -9.2730 O.2      60   G72      -0.5597
   1902 N1        -21.2780   14.4320   -7.2450 N.am     60   G72      -0.4787
   1903 C2        -21.7990   13.7570   -6.1690 C.2      60   G72       0.7657
   1904 N2        -22.3190   14.5140   -5.1930 N.pl3    60   G72      -0.9672
   1905 N3        -21.8060   12.4380   -6.0600 N.2      60   G72      -0.6323
   1906 C4        -21.2420   11.8360   -7.1290 C.ar     60   G72       0.1222
   1907 H5'       -21.3631    5.3430   -8.0881 H        60   G72       0.0679
   1908 H5''      -19.8222    6.0136   -7.5112 H        60   G72       0.0679
   1909 H4'       -21.7812    6.5693   -6.0747 H        60   G72       0.1174
   1910 H3'       -22.6543    8.0968   -8.5324 H        60   G72       0.0615
   1911 H2'       -23.5646    9.7806   -7.1067 H        60   G72       0.0972
   1912 H1'       -21.4135    9.7603   -5.3612 H        60   G72       0.2006
   1913 H8        -20.2353    9.3557   -8.9492 H        60   G72       0.1640
   1914 H1        -21.3224   15.4409   -7.2268 H        60   G72       0.3424
   1915 H21       -22.3124   15.5205   -5.2767 H        60   G72       0.4364
   1916 H22       -22.7175   14.0780   -4.3737 H        60   G72       0.4364
   1917 HO2'      -24.4671    8.3689   -5.4884 H        60   G72       0.4186
   1918 P         -25.1440    7.0540   -8.4950 P.3      61   A73       1.1662
   1919 OP1       -26.1360    5.9830   -8.2260 O.co2    61   A73      -0.7760
   1920 OP2       -24.5830    7.2030   -9.8620 O.co2    61   A73      -0.7760
   1921 O5'       -25.7900    8.4420   -8.0640 O.3      61   A73      -0.4989
   1922 C5'       -27.1750    8.6940   -8.2270 C.3      61   A73       0.0558
   1923 C4'       -27.5760    9.9600   -7.5160 C.3      61   A73       0.1065
   1924 O4'       -26.6150   11.0050   -7.8140 O.3      61   A73      -0.3548
   1925 C3'       -28.9150   10.5580   -7.9190 C.3      61   A73       0.2022
   1926 O3'       -30.0110    9.9450   -7.2640 O.3      61   A73      -0.5246
   1927 C2'       -28.7390   12.0290   -7.5710 C.3      61   A73       0.0670
   1928 O2'       -28.8950   12.2380   -6.1750 O.3      61   A73      -0.6139
   1929 C1'       -27.2710   12.2480   -7.9280 C.3      61   A73       0.0394
   1930 N9        -27.1020   12.7310   -9.3110 N.ar     61   A73      -0.0251
   1931 C8        -26.6300   12.0250  -10.3900 C.ar     61   A73       0.2006
   1932 N7        -26.5840   12.7220  -11.4980 N.ar     61   A73      -0.6073
   1933 C5        -27.0570   13.9720  -11.1220 C.ar     61   A73       0.0515
   1934 C6        -27.2550   15.1640  -11.8390 C.ar     61   A73       0.7009
   1935 N6        -26.9900   15.2970  -13.1400 N.pl3    61   A73      -0.9019
   1936 N1        -27.7410   16.2310  -11.1660 N.ar     61   A73      -0.7615
   1937 C2        -28.0070   16.0990   -9.8600 C.ar     61   A73       0.5875
   1938 N3        -27.8640   15.0330   -9.0770 N.ar     61   A73      -0.6997
   1939 C4        -27.3790   13.9920   -9.7760 C.ar     61   A73       0.3053
   1940 H5'       -27.3970    8.7953   -9.2893 H        61   A73       0.0679
   1941 H5''      -27.7429    7.8576   -7.8194 H        61   A73       0.0679
   1942 H4'       -27.5787    9.7772   -6.4414 H        61   A73       0.1174
   1943 H3'       -29.0413   10.4582   -8.9970 H        61   A73       0.0615
   1944 H2'       -29.4006   12.6683   -8.1555 H        61   A73       0.0972
   1945 H1'       -26.8274   12.9616   -7.2337 H        61   A73       0.2007
   1946 H8        -26.3249   10.9907  -10.3306 H        61   A73       0.1553
   1947 H2        -28.3921   16.9831   -9.3737 H        61   A73       0.0473
   1948 H61       -26.6261   14.5139  -13.6639 H        61   A73       0.4115
   1949 H62       -27.1533   16.1808  -13.6009 H        61   A73       0.4115
   1950 HO2'      -29.8140   12.1043   -5.9317 H        61   A73       0.4186
   1951 P         -31.3930    9.7100   -8.0480 P.3      62   U74       1.1662
   1952 OP1       -32.2710    8.8830   -7.1820 O.co2    62   U74      -0.7760
   1953 OP2       -31.0700    9.2460   -9.4210 O.co2    62   U74      -0.7760
   1954 O5'       -32.0260   11.1670   -8.1570 O.3      62   U74      -0.4989
   1955 C5'       -32.2940   11.9340   -6.9920 C.3      62   U74       0.0558
   1956 C4'       -32.4850   13.3910   -7.3260 C.3      62   U74       0.1065
   1957 O4'       -31.2710   13.9210   -7.9200 O.3      62   U74      -0.3548
   1958 C3'       -33.5630   13.6990   -8.3520 C.3      62   U74       0.2022
   1959 O3'       -34.8640   13.7230   -7.7910 O.3      62   U74      -0.5246
   1960 C2'       -33.1140   15.0400   -8.9170 C.3      62   U74       0.0670
   1961 O2'       -33.4590   16.0990   -8.0370 O.3      62   U74      -0.6139
   1962 C1'       -31.5930   14.8790   -8.9050 C.3      62   U74       0.0674
   1963 N1        -31.0620   14.4140  -10.2080 N.am     62   U74       0.0418
   1964 C2        -30.9530   15.3350  -11.2330 C.2      62   U74       0.4687
   1965 O2        -31.2780   16.5040  -11.1120 O.2      62   U74      -0.5477
   1966 N3        -30.4470   14.8380  -12.4100 N.am     62   U74      -0.3549
   1967 C4        -30.0460   13.5410  -12.6610 C.2      62   U74       0.5952
   1968 O4        -29.6110   13.2450  -13.7750 O.2      62   U74      -0.5761
   1969 C5        -30.1890   12.6500  -11.5520 C.2      62   U74      -0.3635
   1970 C6        -30.6770   13.1060  -10.3940 C.2      62   U74      -0.1126
   1971 H5'       -33.2009   11.5565   -6.5197 H        62   U74       0.0679
   1972 H5''      -31.4602   11.8326   -6.2973 H        62   U74       0.0679
   1973 H4'       -32.7004   13.9399   -6.4093 H        62   U74       0.1174
   1974 H3'       -33.5286   12.9490   -9.1422 H        62   U74       0.0615
   1975 H2'       -33.4975   15.2063   -9.9237 H        62   U74       0.0972
   1976 H1'       -31.1312   15.8319   -8.6464 H        62   U74       0.1824
   1977 H3        -30.3589   15.4924  -13.1742 H        62   U74       0.3154
   1978 H5        -29.9039   11.6129  -11.6494 H        62   U74       0.1811
   1979 H6        -30.7734   12.4173   -9.5677 H        62   U74       0.2188
   1980 HO2'      -34.4121   16.2141   -8.0322 H        62   U74       0.4186
   1981 P         -36.1100   13.1330   -8.6160 P.3      63   U75       1.1662
   1982 OP1       -37.2930   13.1340   -7.7190 O.co2    63   U75      -0.7760
   1983 OP2       -35.6840   11.8690   -9.2700 O.co2    63   U75      -0.7760
   1984 O5'       -36.3560   14.2150   -9.7560 O.3      63   U75      -0.4989
   1985 C5'       -36.6470   15.5650   -9.4260 C.3      63   U75       0.0558
   1986 C4'       -36.5590   16.4550  -10.6380 C.3      63   U75       0.1065
   1987 O4'       -35.1840   16.5260  -11.0980 O.3      63   U75      -0.3548
   1988 C3'       -37.3300   15.9820  -11.8580 C.3      63   U75       0.2022
   1989 O3'       -38.7110   16.2890  -11.7920 O.3      63   U75      -0.5246
   1990 C2'       -36.5990   16.6710  -13.0010 C.3      63   U75       0.0670
   1991 O2'       -36.9910   18.0330  -13.0990 O.3      63   U75      -0.6139
   1992 C1'       -35.1520   16.6170  -12.5080 C.3      63   U75       0.0674
   1993 N1        -34.4230   15.4440  -13.0440 N.am     63   U75       0.0418
   1994 C2        -33.8990   15.5420  -14.3190 C.2      63   U75       0.4687
   1995 O2        -34.0130   16.5430  -15.0050 O.2      63   U75      -0.5477
   1996 N3        -33.2340   14.4270  -14.7660 N.am     63   U75      -0.3549
   1997 C4        -33.0420   13.2430  -14.0830 C.2      63   U75       0.5952
   1998 O4        -32.4190   12.3260  -14.6220 O.2      63   U75      -0.5761
   1999 C5        -33.6130   13.2180  -12.7720 C.2      63   U75      -0.3635
   2000 C6        -34.2660   14.2900  -12.3100 C.2      63   U75      -0.1126
   2001 H5'       -37.6557   15.6210   -9.0168 H        63   U75       0.0679
   2002 H5''      -35.9365   15.9112   -8.6754 H        63   U75       0.0679
   2003 H4'       -36.8967   17.4561  -10.3697 H        63   U75       0.1174
   2004 H3'       -37.2100   14.9033  -11.9582 H        63   U75       0.0615
   2005 H2'       -36.7277   16.1412  -13.9449 H        63   U75       0.0972
   2006 H1'       -34.6346   17.5306  -12.8009 H        63   U75       0.1824
   2007 H3        -32.8428   14.4788  -15.6957 H        63   U75       0.3154
   2008 H5        -33.5172   12.3357  -12.1565 H        63   U75       0.1811
   2009 H6        -34.6888   14.2484  -11.3171 H        63   U75       0.2188
   2010 HO2'      -36.7298   18.3809  -13.9548 H        63   U75       0.4186
   2011 P         -39.7870   15.2820  -12.4270 P.3      64   A76       1.1662
   2012 OP1       -41.1380   15.6760  -11.9460 O.co2    64   A76      -0.7760
   2013 OP2       -39.3010   13.8960  -12.2070 O.co2    64   A76      -0.7760
   2014 O5'       -39.7100   15.5860  -13.9880 O.3      64   A76      -0.4989
   2015 C5'       -39.9080   16.9020  -14.4810 C.3      64   A76       0.0558
   2016 C4'       -39.5980   16.9870  -15.9530 C.3      64   A76       0.1065
   2017 O4'       -38.1630   16.9470  -16.1630 O.3      64   A76      -0.3548
   2018 C3'       -40.1220   15.8430  -16.8020 C.3      64   A76       0.2022
   2019 O3'       -41.4970   15.9740  -17.1160 O.3      64   A76      -0.5246
   2020 C2'       -39.2030   15.8850  -18.0150 C.3      64   A76       0.0670
   2021 O2'       -39.5900   16.9260  -18.9000 O.3      64   A76      -0.6139
   2022 C1'       -37.8720   16.2690  -17.3680 C.3      64   A76       0.0394
   2023 N9        -37.0460   15.0870  -17.0550 N.ar     64   A76      -0.0251
   2024 C8        -36.9500   14.4230  -15.8570 C.ar     64   A76       0.2006
   2025 N7        -36.1290   13.4000  -15.8830 N.ar     64   A76      -0.6073
   2026 C5        -35.6510   13.3890  -17.1880 C.ar     64   A76       0.0515
   2027 C6        -34.7440   12.5490  -17.8600 C.ar     64   A76       0.7009
   2028 N6        -34.1280   11.5120  -17.2850 N.pl3    64   A76      -0.9019
   2029 N1        -34.4860   12.8110  -19.1600 N.ar     64   A76      -0.7615
   2030 C2        -35.1040   13.8500  -19.7370 C.ar     64   A76       0.5875
   2031 N3        -35.9740   14.7100  -19.2120 N.ar     64   A76      -0.6997
   2032 C4        -36.2090   14.4220  -17.9200 C.ar     64   A76       0.3053
   2033 H5'       -40.9472   17.1889  -14.3199 H        64   A76       0.0679
   2034 H5''      -39.2587   17.5890  -13.9382 H        64   A76       0.0679
   2035 H4'       -39.9879   17.9268  -16.3441 H        64   A76       0.1174
   2036 H3'       -39.9663   14.9045  -16.2699 H        64   A76       0.0615
   2037 H2'       -39.1483   14.9201  -18.5191 H        64   A76       0.0972
   2038 H1'       -37.3209   16.9320  -18.0349 H        64   A76       0.2007
   2039 H8        -37.4996   14.7158  -14.9747 H        64   A76       0.1553
   2040 H2        -34.8618   14.0133  -20.7767 H        64   A76       0.0473
   2041 HO2'      -38.8069   17.3340  -19.2767 H        64   A76       0.4186
   2042 H61       -33.2986   11.2164  -17.7798 H        64   A76       0.4115
   2043 H62       -34.4587   11.0682  -16.4401 H        64   A76       0.4115
   2044 P         -42.4300   14.6690  -17.1840 P.3      65   U77       1.1662
   2045 OP1       -43.8440   15.1180  -17.2570 O.co2    65   U77      -0.7760
   2046 OP2       -42.0070   13.7460  -16.0990 O.co2    65   U77      -0.7760
   2047 O5'       -42.0460   14.0020  -18.5770 O.3      65   U77      -0.4989
   2048 C5'       -42.1330   14.7460  -19.7830 C.3      65   U77       0.0558
   2049 C4'       -41.4380   14.0440  -20.9210 C.3      65   U77       0.1065
   2050 O4'       -40.0000   14.0630  -20.7190 O.3      65   U77      -0.3548
   2051 C3'       -41.7580   12.5700  -21.0900 C.3      65   U77       0.2022
   2052 O3'       -43.0020   12.3340  -21.7230 O.3      65   U77      -0.5246
   2053 C2'       -40.5570   12.0640  -21.8760 C.3      65   U77       0.0670
   2054 O2'       -40.6670   12.4210  -23.2460 O.3      65   U77      -0.6139
   2055 C1'       -39.4270   12.8850  -21.2530 C.3      65   U77       0.0674
   2056 N1        -38.7450   12.1440  -20.1660 N.am     65   U77       0.0418
   2057 C2        -37.7550   11.2530  -20.5360 C.2      65   U77       0.4687
   2058 O2        -37.4300   11.0720  -21.6960 O.2      65   U77      -0.5477
   2059 N3        -37.1560   10.5860  -19.4960 N.am     65   U77      -0.3549
   2060 C4        -37.4440   10.7130  -18.1520 C.2      65   U77       0.5952
   2061 O4        -36.8160   10.0420  -17.3310 O.2      65   U77      -0.5761
   2062 C5        -38.4830   11.6500  -17.8520 C.2      65   U77      -0.3635
   2063 C6        -39.0830   12.3160  -18.8440 C.2      65   U77      -0.1126
   2064 H5'       -43.1837   14.8808  -20.0400 H        65   U77       0.0679
   2065 H5''      -41.6741   15.7233  -19.6332 H        65   U77       0.0679
   2066 H4'       -41.6703   14.5640  -21.8504 H        65   U77       0.1174
   2067 H3'       -41.7645   12.0947  -20.1091 H        65   U77       0.0615
   2068 H2'       -40.4043   10.9928  -21.7440 H        65   U77       0.0972
   2069 H1'       -38.7024   13.1497  -22.0231 H        65   U77       0.1824
   2070 H3        -36.4262    9.9321  -19.7407 H        65   U77       0.3154
   2071 H5        -38.7815   11.8187  -16.8279 H        65   U77       0.1811
   2072 H6        -39.8655   13.0181  -18.5969 H        65   U77       0.2188
   2073 HO2'      -40.4577   11.6605  -23.7931 H        65   U77       0.4186
   2074 P         -43.8800   11.0560  -21.3010 P.3      66   C78       1.1662
   2075 OP1       -45.2370   11.2140  -21.8830 O.co2    66   C78      -0.7760
   2076 OP2       -43.7260   10.8590  -19.8370 O.co2    66   C78      -0.7760
   2077 O5'       -43.1590    9.8430  -22.0390 O.3      66   C78      -0.4989
   2078 C5'       -43.0090    9.8490  -23.4500 C.3      66   C78       0.0558
   2079 C4'       -42.0130    8.8170  -23.9200 C.3      66   C78       0.1065
   2080 O4'       -40.6880    9.1200  -23.4130 O.3      66   C78      -0.3548
   2081 C3'       -42.2490    7.3880  -23.4660 C.3      66   C78       0.2022
   2082 O3'       -43.2780    6.7350  -24.1860 O.3      66   C78      -0.5246
   2083 C2'       -40.8740    6.7610  -23.6550 C.3      66   C78       0.0670
   2084 O2'       -40.6440    6.4610  -25.0240 O.3      66   C78      -0.6139
   2085 C1'       -39.9570    7.9190  -23.2540 C.3      66   C78       0.0066
   2086 N1        -39.4930    7.8010  -21.8510 N.am     66   C78      -0.0484
   2087 C2        -38.3730    7.0000  -21.6040 C.2      66   C78       0.7538
   2088 O2        -37.8180    6.4370  -22.5600 O.2      66   C78      -0.6252
   2089 N3        -37.9160    6.8590  -20.3390 N.2      66   C78      -0.7584
   2090 C4        -38.5370    7.4790  -19.3350 C.2      66   C78       0.8185
   2091 N4        -38.0510    7.3110  -18.1020 N.pl3    66   C78      -0.9530
   2092 C5        -39.6830    8.2990  -19.5550 C.2      66   C78      -0.5215
   2093 C6        -40.1240    8.4310  -20.8140 C.2      66   C78       0.0053
   2094 H5'       -43.9758    9.6377  -23.9069 H        66   C78       0.0679
   2095 H5''      -42.6741   10.8365  -23.7675 H        66   C78       0.0679
   2096 H4'       -41.9812    8.8351  -25.0094 H        66   C78       0.1174
   2097 H3'       -42.4993    7.3870  -22.4051 H        66   C78       0.0615
   2098 H2'       -40.7323    5.8887  -23.0169 H        66   C78       0.0972
   2099 H1'       -39.0918    7.9363  -23.9168 H        66   C78       0.2029
   2100 H5        -40.1788    8.7969  -18.7348 H        66   C78       0.1928
   2101 H6        -40.9907    9.0441  -21.0124 H        66   C78       0.1958
   2102 H41       -37.2388    6.7291  -17.9543 H        66   C78       0.4234
   2103 H42       -38.4958    7.7659  -17.3176 H        66   C78       0.4234
   2104 HO2'      -40.6408    5.5090  -25.1473 H        66   C78       0.4186
   2105 P         -44.1290    5.5690  -23.4800 P.3      67   U79       1.1662
   2106 OP1       -45.3750    5.3700  -24.2620 O.co2    67   U79      -0.7760
   2107 OP2       -44.2120    5.8800  -22.0300 O.co2    67   U79      -0.7760
   2108 O5'       -43.2180    4.2740  -23.6510 O.3      67   U79      -0.4989
   2109 C5'       -42.8410    3.8170  -24.9410 C.3      67   U79       0.0558
   2110 C4'       -41.6870    2.8480  -24.8740 C.3      67   U79       0.1065
   2111 O4'       -40.5210    3.5050  -24.3130 O.3      67   U79      -0.3548
   2112 C3'       -41.8840    1.6330  -23.9830 C.3      67   U79       0.2022
   2113 O3'       -42.6550    0.6120  -24.5910 O.3      67   U79      -0.5246
   2114 C2'       -40.4520    1.2170  -23.6730 C.3      67   U79       0.0670
   2115 O2'       -39.8860    0.5170  -24.7710 O.3      67   U79      -0.6139
   2116 C1'       -39.7630    2.5780  -23.5620 C.3      67   U79       0.0674
   2117 N1        -39.6840    3.0470  -22.1590 N.am     67   U79       0.0418
   2118 C2        -38.6580    2.5500  -21.3770 C.2      67   U79       0.4687
   2119 O2        -37.8320    1.7580  -21.7960 O.2      67   U79      -0.5477
   2120 N3        -38.6320    3.0170  -20.0860 N.am     67   U79      -0.3549
   2121 C4        -39.5100    3.9100  -19.5060 C.2      67   U79       0.5952
   2122 O4        -39.3570    4.2350  -18.3270 O.2      67   U79      -0.5761
   2123 C5        -40.5440    4.3770  -20.3770 C.2      67   U79      -0.3635
   2124 C6        -40.5930    3.9390  -21.6400 C.2      67   U79      -0.1126
   2125 H5'       -43.6938    3.3192  -25.4025 H        67   U79       0.0679
   2126 H5''      -42.5535    4.6723  -25.5525 H        67   U79       0.0679
   2127 H4'       -41.4505    2.5108  -25.8832 H        67   U79       0.1174
   2128 H3'       -42.3717    1.9446  -23.0593 H        67   U79       0.0615
   2129 H2'       -40.3835    0.6475  -22.7462 H        67   U79       0.0972
   2130 H1'       -38.7579    2.5102  -23.9784 H        67   U79       0.1824
   2131 H3        -37.8893    2.6690  -19.4966 H        67   U79       0.3154
   2132 H5        -41.2811    5.0794  -20.0169 H        67   U79       0.1811
   2133 H6        -41.3823    4.3024  -22.2813 H        67   U79       0.2188
   2134 HO2'      -39.7327   -0.3977  -24.5232 H        67   U79       0.4186
   2135 P         -43.5910   -0.3320  -23.6900 P.3      68   U80       1.1662
   2136 OP1       -44.3970   -1.1850  -24.6000 O.co2    68   U80      -0.7760
   2137 OP2       -44.2740    0.5240  -22.6860 O.co2    68   U80      -0.7760
   2138 O5'       -42.5610   -1.2720  -22.9190 O.3      68   U80      -0.4989
   2139 C5'       -41.7260   -2.1730  -23.6310 C.3      68   U80       0.0558
   2140 C4'       -40.6640   -2.7680  -22.7420 C.3      68   U80       0.1065
   2141 O4'       -39.7930   -1.7210  -22.2400 O.3      68   U80      -0.3548
   2142 C3'       -41.1570   -3.4660  -21.4850 C.3      68   U80       0.2022
   2143 O3'       -41.6310   -4.7800  -21.7270 O.3      68   U80      -0.5246
   2144 C2'       -39.9360   -3.4130  -20.5780 C.3      68   U80       0.0670
   2145 O2'       -38.9940   -4.4090  -20.9470 O.3      68   U80      -0.6139
   2146 C1'       -39.3560   -2.0440  -20.9350 C.3      68   U80       0.0674
   2147 N1        -39.8120   -0.9860  -20.0040 N.am     68   U80       0.0418
   2148 C2        -39.1890   -0.8990  -18.7730 C.2      68   U80       0.4687
   2149 O2        -38.2930   -1.6500  -18.4290 O.2      68   U80      -0.5477
   2150 N3        -39.6560    0.1010  -17.9550 N.am     68   U80      -0.3549
   2151 C4        -40.6600    1.0050  -18.2370 C.2      68   U80       0.5952
   2152 O4        -40.9690    1.8510  -17.3970 O.2      68   U80      -0.5761
   2153 C5        -41.2530    0.8510  -19.5300 C.2      68   U80      -0.3635
   2154 C6        -40.8190   -0.1140  -20.3470 C.2      68   U80      -0.1126
   2155 H5'       -42.3392   -2.9779  -24.0362 H        68   U80       0.0679
   2156 H5''      -41.2465   -1.6413  -24.4529 H        68   U80       0.0679
   2157 H4'       -40.0696   -3.4712  -23.3254 H        68   U80       0.1174
   2158 H3'       -41.9574   -2.8749  -21.0399 H        68   U80       0.0615
   2159 H2'       -40.2075   -3.4788  -19.5244 H        68   U80       0.0972
   2160 H1'       -38.2674   -2.0961  -20.9196 H        68   U80       0.1824
   2161 H3        -39.2171    0.1836  -17.0491 H        68   U80       0.3154
   2162 H5        -42.0476    1.5114  -19.8445 H        68   U80       0.1811
   2163 H6        -41.2792   -0.2133  -21.3190 H        68   U80       0.2188
   2164 HO2'      -38.9229   -5.0590  -20.2441 H        68   U80       0.4186
   2165 P         -42.8010   -5.3950  -20.8130 P.3      69   C81       1.1662
   2166 OP1       -43.2950   -6.6330  -21.4660 O.co2    69   C81      -0.7760
   2167 OP2       -43.7530   -4.3030  -20.4860 O.co2    69   C81      -0.7760
   2168 O5'       -42.0570   -5.8160  -19.4690 O.3      69   C81      -0.4989
   2169 C5'       -41.0090   -6.7730  -19.4880 C.3      69   C81       0.0558
   2170 C4'       -40.3170   -6.8600  -18.1510 C.3      69   C81       0.1065
   2171 O4'       -39.6140   -5.6200  -17.8770 O.3      69   C81      -0.3548
   2172 C3'       -41.2240   -7.0410  -16.9450 C.3      69   C81       0.2022
   2173 O3'       -41.6470   -8.3800  -16.7620 O.3      69   C81      -0.5246
   2174 C2'       -40.3690   -6.5040  -15.8060 C.3      69   C81       0.0670
   2175 O2'       -39.3950   -7.4610  -15.4160 O.3      69   C81      -0.6139
   2176 C1'       -39.6540   -5.3400  -16.4930 C.3      69   C81       0.0066
   2177 N1        -40.3600   -4.0520  -16.2890 N.am     69   C81      -0.0484
   2178 C2        -40.1920   -3.3710  -15.0800 C.2      69   C81       0.7538
   2179 O2        -39.4590   -3.8610  -14.2080 O.2      69   C81      -0.6252
   2180 N3        -40.8330   -2.1940  -14.8880 N.2      69   C81      -0.7584
   2181 C4        -41.6140   -1.6920  -15.8460 C.2      69   C81       0.8185
   2182 N4        -42.2240   -0.5280  -15.6100 N.pl3    69   C81      -0.9530
   2183 C5        -41.8030   -2.3630  -17.0880 C.2      69   C81      -0.5215
   2184 C6        -41.1630   -3.5260  -17.2640 C.2      69   C81       0.0053
   2185 H5'       -41.4254   -7.7494  -19.7356 H        69   C81       0.0679
   2186 H5''      -40.2815   -6.4913  -20.2493 H        69   C81       0.0679
   2187 H4'       -39.5962   -7.6772  -18.1778 H        69   C81       0.1174
   2188 H3'       -42.1010   -6.4043  -17.0615 H        69   C81       0.0615
   2189 H2'       -40.9744   -6.1709  -14.9630 H        69   C81       0.0972
   2190 H1'       -38.6369   -5.2613  -16.1090 H        69   C81       0.2029
   2191 H5        -42.4378   -1.9499  -17.8579 H        69   C81       0.1928
   2192 H6        -41.2832   -4.0600  -18.1950 H        69   C81       0.1958
   2193 H41       -42.0870   -0.0558  -14.7277 H        69   C81       0.4234
   2194 H42       -42.8224   -0.1197  -16.3137 H        69   C81       0.4234
   2195 HO2'      -39.6132   -7.8042  -14.5464 H        69   C81       0.4186
   2196 P         -43.1080   -8.6870  -16.1700 P.3      70   C82       1.1662
   2197 OP1       -43.4300  -10.1100  -16.4450 O.co2    70   C82      -0.7760
   2198 OP2       -44.0270   -7.6230  -16.6470 O.co2    70   C82      -0.7760
   2199 O5'       -42.9290   -8.5100  -14.5970 O.3      70   C82      -0.4989
   2200 C5'       -41.9490   -9.2530  -13.8860 C.3      70   C82       0.0558
   2201 C4'       -41.7280   -8.6920  -12.5040 C.3      70   C82       0.1065
   2202 O4'       -41.1490   -7.3640  -12.5990 O.3      70   C82      -0.3548
   2203 C3'       -42.9770   -8.4870  -11.6620 C.3      70   C82       0.2022
   2204 O3'       -43.4400   -9.6760  -11.0500 O.3      70   C82      -0.5246
   2205 C2'       -42.5360   -7.4180  -10.6730 C.3      70   C82       0.0670
   2206 O2'       -41.7360   -7.9830   -9.6450 O.3      70   C82      -0.6139
   2207 C1'       -41.6420   -6.5470  -11.5560 C.3      70   C82       0.0066
   2208 N1        -42.3860   -5.4150  -12.1550 N.am     70   C82      -0.0484
   2209 C2        -42.6530   -4.2860  -11.3740 C.2      70   C82       0.7538
   2210 O2        -42.2620   -4.2570  -10.1970 O.2      70   C82      -0.6252
   2211 N3        -43.3320   -3.2510  -11.9210 N.2      70   C82      -0.7584
   2212 C4        -43.7380   -3.3140  -13.1890 C.2      70   C82       0.8185
   2213 N4        -44.4040   -2.2690  -13.6860 N.pl3    70   C82      -0.9530
   2214 C5        -43.4810   -4.4500  -14.0080 C.2      70   C82      -0.5215
   2215 C6        -42.8080   -5.4660  -13.4550 C.2      70   C82       0.0053
   2216 H5'       -41.0092   -9.2183  -14.4370 H        70   C82       0.0679
   2217 H5''      -42.2767  -10.2893  -13.8030 H        70   C82       0.0679
   2218 H4'       -41.0390   -9.3413  -11.9639 H        70   C82       0.1174
   2219 H3'       -43.7678   -8.0817  -12.2932 H        70   C82       0.0615
   2220 H2'       -43.3817   -6.8595  -10.2717 H        70   C82       0.0972
   2221 H1'       -40.8084   -6.1648  -10.9668 H        70   C82       0.2029
   2222 H5        -43.8157   -4.4901  -15.0341 H        70   C82       0.1928
   2223 H6        -42.5939   -6.3436  -14.0470 H        70   C82       0.1958
   2224 H41       -44.5860   -1.4633  -13.1047 H        70   C82       0.4234
   2225 H42       -44.7258   -2.2841  -14.6432 H        70   C82       0.4234
   2226 HO2'      -42.2418   -8.0216   -8.8300 H        70   C82       0.4186
   2227 P         -45.0170   -9.9240  -10.8750 P.3      71   C83       1.1662
   2228 OP1       -45.2330  -11.3760  -10.6510 O.co2    71   C83      -0.7760
   2229 OP2       -45.7110   -9.2400  -11.9970 O.co2    71   C83      -0.7760
   2230 O5'       -45.3810   -9.1520   -9.5300 O.3      71   C83      -0.4989
   2231 C5'       -44.7380   -9.4770   -8.3060 C.3      71   C83       0.0558
   2232 C4'       -44.9140   -8.3820   -7.2850 C.3      71   C83       0.1065
   2233 O4'       -44.3090   -7.1560   -7.7740 O.3      71   C83      -0.3548
   2234 C3'       -46.3500   -7.9870   -6.9750 C.3      71   C83       0.2022
   2235 O3'       -46.9770   -8.8600   -6.0510 O.3      71   C83      -0.6541
   2236 C2'       -46.2000   -6.5610   -6.4640 C.3      71   C83       0.0670
   2237 O2'       -45.7580   -6.5550   -5.1150 O.3      71   C83      -0.6139
   2238 C1'       -45.0630   -6.0410   -7.3450 C.3      71   C83       0.0066
   2239 N1        -45.5620   -5.3180   -8.5390 N.am     71   C83      -0.0484
   2240 C2        -45.9720   -3.9870   -8.4040 C.2      71   C83       0.7538
   2241 O2        -45.9110   -3.4480   -7.2890 O.2      71   C83      -0.6252
   2242 N3        -46.4260   -3.3210   -9.4920 N.2      71   C83      -0.7584
   2243 C4        -46.4770   -3.9300  -10.6770 C.2      71   C83       0.8185
   2244 N4        -46.9330   -3.2350  -11.7220 N.pl3    71   C83      -0.9530
   2245 C5        -46.0660   -5.2840  -10.8440 C.2      71   C83      -0.5215
   2246 C6        -45.6190   -5.9300   -9.7600 C.2      71   C83       0.0053
   2247 H5'       -43.6736   -9.6208   -8.4919 H        71   C83       0.0679
   2248 H5''      -45.1608  -10.4023   -7.9146 H        71   C83       0.0679
   2249 H4'       -44.4195   -8.6770   -6.3595 H        71   C83       0.1174
   2250 H3'       -46.9246   -7.9754   -7.9012 H        71   C83       0.0615
   2251 H2'       -47.1145   -5.9827   -6.5957 H        71   C83       0.0972
   2252 H1'       -44.4265   -5.3772   -6.7599 H        71   C83       0.2029
   2253 H5        -46.1132   -5.7701  -11.8073 H        71   C83       0.1928
   2254 H6        -45.2965   -6.9566   -9.8521 H        71   C83       0.1958
   2255 H41       -47.2255   -2.2758  -11.6017 H        71   C83       0.4234
   2256 H42       -46.9854   -3.6685  -12.6327 H        71   C83       0.4234
   2257 HO3'      -47.8768   -8.5657   -5.8920 H        71   C83       0.4376
   2258 HO2'      -46.4602   -6.8790   -4.5463 H        71   C83       0.4186
@<TRIPOS>BOND
     1    1    2 1
     2    2    3 1
     3    3    5 1
     4    3    4 1
     5    4    9 1
     6    5    7 1
     7    5    6 1
     8    7    9 1
     9    7    8 1
    10    9   10 1
    11   10   20 ar
    12   10   11 ar
    13   11   12 ar
    14   12   13 ar
    15   13   20 ar
    16   13   14 1
    17   14   15 2
    18   14   16 am
    19   16   17 1
    20   17   18 2
    21   17   19 2
    22   19   20 1
    23   33   35 1
    24   33   34 1
    25   33   36 1
    26   36   37 1
    27   37   38 1
    28   38   40 1
    29   38   39 1
    30   39   44 1
    31   40   41 1
    32   40   42 1
    33   42   43 1
    34   42   44 1
    35   44   45 1
    36   45   46 ar
    37   45   55 ar
    38   46   47 ar
    39   47   48 ar
    40   48   55 ar
    41   48   49 1
    42   49   50 2
    43   49   51 am
    44   51   52 1
    45   52   53 2
    46   52   54 2
    47   54   55 1
    48   33    6 1
    49   67   69 1
    50   67   68 1
    51   67   70 1
    52   70   71 1
    53   71   72 1
    54   72   74 1
    55   72   73 1
    56   73   78 1
    57   74   75 1
    58   74   76 1
    59   76   77 1
    60   76   78 1
    61   78   79 1
    62   79   80 ar
    63   79   89 ar
    64   80   81 ar
    65   81   82 ar
    66   82   89 ar
    67   82   83 1
    68   83   84 2
    69   83   85 am
    70   85   86 1
    71   86   87 2
    72   86   88 2
    73   88   89 1
    74   41   67 1
    75  101  102 1
    76  101  103 1
    77  101  104 1
    78  104  105 1
    79  105  106 1
    80  106  108 1
    81  106  107 1
    82  107  112 1
    83  108  110 1
    84  108  109 1
    85  110  112 1
    86  110  111 1
    87  112  113 1
    88  113  122 ar
    89  113  114 ar
    90  114  115 ar
    91  115  116 ar
    92  116  122 ar
    93  116  117 ar
    94  117  119 ar
    95  117  118 1
    96  119  120 ar
    97  120  121 ar
    98  121  122 ar
    99   75  101 1
   100  134  135 1
   101  134  136 1
   102  134  137 1
   103  137  138 1
   104  138  139 1
   105  139  141 1
   106  139  140 1
   107  140  145 1
   108  141  143 1
   109  141  142 1
   110  143  145 1
   111  143  144 1
   112  145  146 1
   113  146  155 ar
   114  146  147 ar
   115  147  148 ar
   116  148  149 ar
   117  149  155 ar
   118  149  150 ar
   119  150  152 ar
   120  150  151 1
   121  152  153 ar
   122  153  154 ar
   123  154  155 ar
   124  109  134 1
   125  167  169 1
   126  167  168 1
   127  167  170 1
   128  170  171 1
   129  171  172 1
   130  172  174 1
   131  172  173 1
   132  173  178 1
   133  174  175 1
   134  174  176 1
   135  176  177 1
   136  176  178 1
   137  178  179 1
   138  179  180 ar
   139  179  189 ar
   140  180  181 ar
   141  181  182 ar
   142  182  189 ar
   143  182  183 1
   144  183  184 2
   145  183  185 am
   146  185  186 1
   147  186  187 2
   148  186  188 2
   149  188  189 1
   150  142  167 1
   151  201  202 1
   152  201  203 1
   153  201  204 1
   154  204  205 1
   155  205  206 1
   156  206  208 1
   157  206  207 1
   158  207  212 1
   159  208  210 1
   160  208  209 1
   161  210  212 1
   162  210  211 1
   163  212  213 1
   164  213  222 ar
   165  213  214 ar
   166  214  215 ar
   167  215  216 ar
   168  216  222 ar
   169  216  217 ar
   170  217  219 ar
   171  217  218 1
   172  219  220 ar
   173  220  221 ar
   174  221  222 ar
   175  175  201 1
   176  234  235 1
   177  234  236 1
   178  234  237 1
   179  237  238 1
   180  238  239 1
   181  239  241 1
   182  239  240 1
   183  240  245 1
   184  241  243 1
   185  241  242 1
   186  243  244 1
   187  243  245 1
   188  245  246 1
   189  246  247 am
   190  246  253 1
   191  247  248 2
   192  247  249 am
   193  249  250 am
   194  250  252 1
   195  250  251 2
   196  252  253 2
   197  209  234 1
   198  264  265 1
   199  264  266 1
   200  264  267 1
   201  267  268 1
   202  268  269 1
   203  269  271 1
   204  269  270 1
   205  270  275 1
   206  271  273 1
   207  271  272 1
   208  273  275 1
   209  273  274 1
   210  275  276 1
   211  276  285 ar
   212  276  277 ar
   213  277  278 ar
   214  278  279 ar
   215  279  285 ar
   216  279  280 ar
   217  280  282 ar
   218  280  281 1
   219  282  283 ar
   220  283  284 ar
   221  284  285 ar
   222  242  264 1
   223  297  298 1
   224  297  299 1
   225  297  300 1
   226  300  301 1
   227  301  302 1
   228  302  304 1
   229  302  303 1
   230  303  308 1
   231  304  306 1
   232  304  305 1
   233  306  307 1
   234  306  308 1
   235  308  309 1
   236  309  310 am
   237  309  316 1
   238  310  311 2
   239  310  312 am
   240  312  313 am
   241  313  315 1
   242  313  314 2
   243  315  316 2
   244  272  297 1
   245  327  328 1
   246  327  329 1
   247  327  330 1
   248  330  331 1
   249  331  332 1
   250  332  334 1
   251  332  333 1
   252  333  338 1
   253  334  336 1
   254  334  335 1
   255  336  338 1
   256  336  337 1
   257  338  339 1
   258  339  348 ar
   259  339  340 ar
   260  340  341 ar
   261  341  342 ar
   262  342  348 ar
   263  342  343 ar
   264  343  345 ar
   265  343  344 1
   266  345  346 ar
   267  346  347 ar
   268  347  348 ar
   269  305  327 1
   270  360  361 1
   271  360  362 1
   272  360  363 1
   273  363  364 1
   274  364  365 1
   275  365  367 1
   276  365  366 1
   277  366  371 1
   278  367  369 1
   279  367  368 1
   280  369  371 1
   281  369  370 1
   282  371  372 1
   283  372  381 ar
   284  372  373 ar
   285  373  374 ar
   286  374  375 ar
   287  375  381 ar
   288  375  376 ar
   289  376  378 ar
   290  376  377 1
   291  378  379 ar
   292  379  380 ar
   293  380  381 ar
   294  335  360 1
   295  393  394 1
   296  393  395 1
   297  393  396 1
   298  396  397 1
   299  397  398 1
   300  398  400 1
   301  398  399 1
   302  399  404 1
   303  400  402 1
   304  400  401 1
   305  402  403 1
   306  402  404 1
   307  404  405 1
   308  405  406 am
   309  405  412 1
   310  406  407 2
   311  406  408 am
   312  408  409 am
   313  409  411 1
   314  409  410 2
   315  411  412 2
   316  368  393 1
   317  423  424 1
   318  423  425 1
   319  423  426 1
   320  426  427 1
   321  427  428 1
   322  428  430 1
   323  428  429 1
   324  429  434 1
   325  430  432 1
   326  430  431 1
   327  432  433 1
   328  432  434 1
   329  434  435 1
   330  435  436 am
   331  435  442 1
   332  436  438 1
   333  436  437 2
   334  438  439 2
   335  439  441 2
   336  439  440 2
   337  441  442 2
   338  401  423 1
   339  454  455 1
   340  454  456 1
   341  454  457 1
   342  457  458 1
   343  458  459 1
   344  459  461 1
   345  459  460 1
   346  460  465 1
   347  461  463 1
   348  461  462 1
   349  463  464 1
   350  463  465 1
   351  465  466 1
   352  466  467 am
   353  466  473 1
   354  467  469 1
   355  467  468 2
   356  469  470 2
   357  470  472 2
   358  470  471 2
   359  472  473 2
   360  431  454 1
   361  485  486 1
   362  485  487 1
   363  485  488 1
   364  488  489 1
   365  489  490 1
   366  490  492 1
   367  490  491 1
   368  491  496 1
   369  492  494 1
   370  492  493 1
   371  494  495 1
   372  494  496 1
   373  496  497 1
   374  497  498 am
   375  497  504 1
   376  498  499 2
   377  498  500 am
   378  500  501 am
   379  501  503 1
   380  501  502 2
   381  503  504 2
   382  462  485 1
   383  515  516 1
   384  515  517 1
   385  515  518 1
   386  518  519 1
   387  519  520 1
   388  520  522 1
   389  520  521 1
   390  521  526 1
   391  522  524 1
   392  522  523 1
   393  524  526 1
   394  524  525 1
   395  526  527 1
   396  527  536 ar
   397  527  528 ar
   398  528  529 ar
   399  529  530 ar
   400  530  536 ar
   401  530  531 ar
   402  531  533 ar
   403  531  532 1
   404  533  534 ar
   405  534  535 ar
   406  535  536 ar
   407  493  515 1
   408  548  549 1
   409  548  550 1
   410  548  551 1
   411  551  552 1
   412  552  553 1
   413  553  555 1
   414  553  554 1
   415  554  559 1
   416  555  557 1
   417  555  556 1
   418  557  559 1
   419  557  558 1
   420  559  560 1
   421  560  569 ar
   422  560  561 ar
   423  561  562 ar
   424  562  563 ar
   425  563  569 ar
   426  563  564 ar
   427  564  566 ar
   428  564  565 1
   429  566  567 ar
   430  567  568 ar
   431  568  569 ar
   432  523  548 1
   433  581  582 1
   434  581  583 1
   435  581  584 1
   436  584  585 1
   437  585  586 1
   438  586  588 1
   439  586  587 1
   440  587  592 1
   441  588  590 1
   442  588  589 1
   443  590  591 1
   444  590  592 1
   445  592  593 1
   446  593  594 am
   447  593  600 1
   448  594  595 2
   449  594  596 am
   450  596  597 am
   451  597  599 1
   452  597  598 2
   453  599  600 2
   454  556  581 1
   455  611  613 1
   456  611  612 1
   457  611  614 1
   458  614  615 1
   459  615  616 1
   460  616  618 1
   461  616  617 1
   462  617  622 1
   463  618  619 1
   464  618  620 1
   465  620  621 1
   466  620  622 1
   467  622  623 1
   468  623  624 ar
   469  623  633 ar
   470  624  625 ar
   471  625  626 ar
   472  626  633 ar
   473  626  627 1
   474  627  628 2
   475  627  629 am
   476  629  630 1
   477  630  631 2
   478  630  632 2
   479  632  633 1
   480  589  611 1
   481  645  646 1
   482  645  647 1
   483  645  648 1
   484  648  649 1
   485  649  650 1
   486  650  652 1
   487  650  651 1
   488  651  656 1
   489  652  654 1
   490  652  653 1
   491  654  656 1
   492  654  655 1
   493  656  657 1
   494  657  666 ar
   495  657  658 ar
   496  658  659 ar
   497  659  660 ar
   498  660  666 ar
   499  660  661 ar
   500  661  663 ar
   501  661  662 1
   502  663  664 ar
   503  664  665 ar
   504  665  666 ar
   505  619  645 1
   506  678  679 1
   507  678  680 1
   508  678  681 1
   509  681  682 1
   510  682  683 1
   511  683  685 1
   512  683  684 1
   513  684  689 1
   514  685  687 1
   515  685  686 1
   516  687  688 1
   517  687  689 1
   518  689  690 1
   519  690  691 am
   520  690  697 1
   521  691  692 2
   522  691  693 am
   523  693  694 am
   524  694  696 1
   525  694  695 2
   526  696  697 2
   527  653  678 1
   528  708  709 1
   529  708  710 1
   530  708  711 1
   531  711  712 1
   532  712  713 1
   533  713  715 1
   534  713  714 1
   535  714  719 1
   536  715  717 1
   537  715  716 1
   538  717  719 1
   539  717  718 1
   540  719  720 1
   541  720  729 ar
   542  720  721 ar
   543  721  722 ar
   544  722  723 ar
   545  723  729 ar
   546  723  724 ar
   547  724  726 ar
   548  724  725 1
   549  726  727 ar
   550  727  728 ar
   551  728  729 ar
   552  686  708 1
   553  741  742 1
   554  741  743 1
   555  741  744 1
   556  744  745 1
   557  745  746 1
   558  746  748 1
   559  746  747 1
   560  747  752 1
   561  748  750 1
   562  748  749 1
   563  750  751 1
   564  750  752 1
   565  752  753 1
   566  753  754 am
   567  753  760 1
   568  754  755 2
   569  754  756 am
   570  756  757 am
   571  757  759 1
   572  757  758 2
   573  759  760 2
   574  716  741 1
   575  771  773 1
   576  771  772 1
   577  771  774 1
   578  774  775 1
   579  775  776 1
   580  776  778 1
   581  776  777 1
   582  777  782 1
   583  778  779 1
   584  778  780 1
   585  780  781 1
   586  780  782 1
   587  782  783 1
   588  783  784 ar
   589  783  793 ar
   590  784  785 ar
   591  785  786 ar
   592  786  793 ar
   593  786  787 1
   594  787  788 2
   595  787  789 am
   596  789  790 1
   597  790  791 2
   598  790  792 2
   599  792  793 1
   600  749  771 1
   601  805  807 1
   602  805  806 1
   603  805  808 1
   604  808  809 1
   605  809  810 1
   606  810  812 1
   607  810  811 1
   608  811  816 1
   609  812  813 1
   610  812  814 1
   611  814  815 1
   612  814  816 1
   613  816  817 1
   614  817  818 ar
   615  817  827 ar
   616  818  819 ar
   617  819  820 ar
   618  820  827 ar
   619  820  821 1
   620  821  822 2
   621  821  823 am
   622  823  824 1
   623  824  825 2
   624  824  826 2
   625  826  827 1
   626  779  805 1
   627  839  840 1
   628  839  841 1
   629  839  842 1
   630  842  843 1
   631  843  844 1
   632  844  846 1
   633  844  845 1
   634  845  850 1
   635  846  848 1
   636  846  847 1
   637  848  849 1
   638  848  850 1
   639  850  851 1
   640  851  852 am
   641  851  858 1
   642  852  853 2
   643  852  854 am
   644  854  855 am
   645  855  857 1
   646  855  856 2
   647  857  858 2
   648  813  839 1
   649  869  870 1
   650  869  871 1
   651  869  872 1
   652  872  873 1
   653  873  874 1
   654  874  876 1
   655  874  875 1
   656  875  880 1
   657  876  878 1
   658  876  877 1
   659  878  879 1
   660  878  880 1
   661  880  881 1
   662  881  882 am
   663  881  888 1
   664  882  883 2
   665  882  884 am
   666  884  885 am
   667  885  887 1
   668  885  886 2
   669  887  888 2
   670  847  869 1
   671  899  900 1
   672  899  901 1
   673  899  902 1
   674  902  903 1
   675  903  904 1
   676  904  906 1
   677  904  905 1
   678  905  910 1
   679  906  908 1
   680  906  907 1
   681  908  909 1
   682  908  910 1
   683  910  911 1
   684  911  912 am
   685  911  918 1
   686  912  913 2
   687  912  914 am
   688  914  915 am
   689  915  917 1
   690  915  916 2
   691  917  918 2
   692  877  899 1
   693  929  931 1
   694  929  930 1
   695  929  932 1
   696  932  933 1
   697  933  934 1
   698  934  936 1
   699  934  935 1
   700  935  940 1
   701  936  937 1
   702  936  938 1
   703  938  939 1
   704  938  940 1
   705  940  941 1
   706  941  942 ar
   707  941  951 ar
   708  942  943 ar
   709  943  944 ar
   710  944  951 ar
   711  944  945 1
   712  945  946 2
   713  945  947 am
   714  947  948 1
   715  948  949 2
   716  948  950 2
   717  950  951 1
   718  907  929 1
   719  963  965 1
   720  963  964 1
   721  963  966 1
   722  966  967 1
   723  967  968 1
   724  968  970 1
   725  968  969 1
   726  969  974 1
   727  970  971 1
   728  970  972 1
   729  972  973 1
   730  972  974 1
   731  974  975 1
   732  975  976 ar
   733  975  985 ar
   734  976  977 ar
   735  977  978 ar
   736  978  985 ar
   737  978  979 1
   738  979  980 2
   739  979  981 am
   740  981  982 1
   741  982  983 2
   742  982  984 2
   743  984  985 1
   744  937  963 1
   745  997  999 1
   746  997  998 1
   747  997 1000 1
   748 1000 1001 1
   749 1001 1002 1
   750 1002 1004 1
   751 1002 1003 1
   752 1003 1008 1
   753 1004 1005 1
   754 1004 1006 1
   755 1006 1007 1
   756 1006 1008 1
   757 1008 1009 1
   758 1009 1010 ar
   759 1009 1019 ar
   760 1010 1011 ar
   761 1011 1012 ar
   762 1012 1019 ar
   763 1012 1013 1
   764 1013 1014 2
   765 1013 1015 am
   766 1015 1016 1
   767 1016 1017 2
   768 1016 1018 2
   769 1018 1019 1
   770  971  997 1
   771 1031 1032 1
   772 1031 1033 1
   773 1031 1034 1
   774 1034 1035 1
   775 1035 1036 1
   776 1036 1038 1
   777 1036 1037 1
   778 1037 1042 1
   779 1038 1040 1
   780 1038 1039 1
   781 1040 1042 1
   782 1040 1041 1
   783 1042 1043 1
   784 1043 1052 ar
   785 1043 1044 ar
   786 1044 1045 ar
   787 1045 1046 ar
   788 1046 1052 ar
   789 1046 1047 ar
   790 1047 1049 ar
   791 1047 1048 1
   792 1049 1050 ar
   793 1050 1051 ar
   794 1051 1052 ar
   795 1005 1031 1
   796 1064 1066 1
   797 1064 1065 1
   798 1064 1067 1
   799 1067 1068 1
   800 1068 1069 1
   801 1069 1071 1
   802 1069 1070 1
   803 1070 1075 1
   804 1071 1072 1
   805 1071 1073 1
   806 1073 1074 1
   807 1073 1075 1
   808 1075 1076 1
   809 1076 1077 ar
   810 1076 1086 ar
   811 1077 1078 ar
   812 1078 1079 ar
   813 1079 1086 ar
   814 1079 1080 1
   815 1080 1081 2
   816 1080 1082 am
   817 1082 1083 1
   818 1083 1084 2
   819 1083 1085 2
   820 1085 1086 1
   821 1039 1064 1
   822 1098 1099 1
   823 1098 1100 1
   824 1098 1101 1
   825 1101 1102 1
   826 1102 1103 1
   827 1103 1105 1
   828 1103 1104 1
   829 1104 1109 1
   830 1105 1107 1
   831 1105 1106 1
   832 1107 1108 1
   833 1107 1109 1
   834 1109 1110 1
   835 1110 1111 am
   836 1110 1117 1
   837 1111 1112 2
   838 1111 1113 am
   839 1113 1114 am
   840 1114 1116 1
   841 1114 1115 2
   842 1116 1117 2
   843 1072 1098 1
   844 1128 1129 1
   845 1128 1130 1
   846 1128 1131 1
   847 1131 1132 1
   848 1132 1133 1
   849 1133 1135 1
   850 1133 1134 1
   851 1134 1139 1
   852 1135 1137 1
   853 1135 1136 1
   854 1137 1138 1
   855 1137 1139 1
   856 1139 1140 1
   857 1140 1141 am
   858 1140 1147 1
   859 1141 1142 2
   860 1141 1143 am
   861 1143 1144 am
   862 1144 1146 1
   863 1144 1145 2
   864 1146 1147 2
   865 1106 1128 1
   866 1158 1159 1
   867 1158 1160 1
   868 1158 1161 1
   869 1161 1162 1
   870 1162 1163 1
   871 1163 1165 1
   872 1163 1164 1
   873 1164 1169 1
   874 1165 1167 1
   875 1165 1166 1
   876 1167 1168 1
   877 1167 1169 1
   878 1169 1170 1
   879 1170 1171 am
   880 1170 1177 1
   881 1171 1172 2
   882 1171 1173 am
   883 1173 1174 am
   884 1174 1176 1
   885 1174 1175 2
   886 1176 1177 2
   887 1136 1158 1
   888 1188 1189 1
   889 1188 1190 1
   890 1188 1191 1
   891 1191 1192 1
   892 1192 1193 1
   893 1193 1195 1
   894 1193 1194 1
   895 1194 1199 1
   896 1195 1197 1
   897 1195 1196 1
   898 1197 1198 1
   899 1197 1199 1
   900 1199 1200 1
   901 1200 1201 am
   902 1200 1207 1
   903 1201 1203 1
   904 1201 1202 2
   905 1203 1204 2
   906 1204 1206 2
   907 1204 1205 2
   908 1206 1207 2
   909 1166 1188 1
   910 1219 1220 1
   911 1219 1221 1
   912 1219 1222 1
   913 1222 1223 1
   914 1223 1224 1
   915 1224 1226 1
   916 1224 1225 1
   917 1225 1230 1
   918 1226 1228 1
   919 1226 1227 1
   920 1228 1229 1
   921 1228 1230 1
   922 1230 1231 1
   923 1231 1232 am
   924 1231 1238 1
   925 1232 1233 2
   926 1232 1234 am
   927 1234 1235 am
   928 1235 1237 1
   929 1235 1236 2
   930 1237 1238 2
   931 1196 1219 1
   932 1249 1250 1
   933 1249 1251 1
   934 1249 1252 1
   935 1252 1253 1
   936 1253 1254 1
   937 1254 1256 1
   938 1254 1255 1
   939 1255 1260 1
   940 1256 1258 1
   941 1256 1257 1
   942 1258 1260 1
   943 1258 1259 1
   944 1260 1261 1
   945 1261 1270 ar
   946 1261 1262 ar
   947 1262 1263 ar
   948 1263 1264 ar
   949 1264 1270 ar
   950 1264 1265 ar
   951 1265 1267 ar
   952 1265 1266 1
   953 1267 1268 ar
   954 1268 1269 ar
   955 1269 1270 ar
   956 1227 1249 1
   957 1282 1283 1
   958 1282 1284 1
   959 1282 1285 1
   960 1285 1286 1
   961 1286 1287 1
   962 1287 1289 1
   963 1287 1288 1
   964 1288 1293 1
   965 1289 1291 1
   966 1289 1290 1
   967 1291 1292 1
   968 1291 1293 1
   969 1293 1294 1
   970 1294 1295 am
   971 1294 1301 1
   972 1295 1297 1
   973 1295 1296 2
   974 1297 1298 2
   975 1298 1300 2
   976 1298 1299 2
   977 1300 1301 2
   978 1257 1282 1
   979 1313 1314 1
   980 1313 1315 1
   981 1313 1316 1
   982 1316 1317 1
   983 1317 1318 1
   984 1318 1320 1
   985 1318 1319 1
   986 1319 1324 1
   987 1320 1322 1
   988 1320 1321 1
   989 1322 1323 1
   990 1322 1324 1
   991 1324 1325 1
   992 1325 1326 am
   993 1325 1332 1
   994 1326 1328 1
   995 1326 1327 2
   996 1328 1329 2
   997 1329 1331 2
   998 1329 1330 2
   999 1331 1332 2
  1000 1290 1313 1
  1001 1344 1345 1
  1002 1344 1346 1
  1003 1344 1347 1
  1004 1347 1348 1
  1005 1348 1349 1
  1006 1349 1351 1
  1007 1349 1350 1
  1008 1350 1355 1
  1009 1351 1353 1
  1010 1351 1352 1
  1011 1353 1355 1
  1012 1353 1354 1
  1013 1355 1356 1
  1014 1356 1365 ar
  1015 1356 1357 ar
  1016 1357 1358 ar
  1017 1358 1359 ar
  1018 1359 1365 ar
  1019 1359 1360 ar
  1020 1360 1362 ar
  1021 1360 1361 1
  1022 1362 1363 ar
  1023 1363 1364 ar
  1024 1364 1365 ar
  1025 1321 1344 1
  1026 1377 1378 1
  1027 1377 1379 1
  1028 1377 1380 1
  1029 1380 1381 1
  1030 1381 1382 1
  1031 1382 1384 1
  1032 1382 1383 1
  1033 1383 1388 1
  1034 1384 1386 1
  1035 1384 1385 1
  1036 1386 1388 1
  1037 1386 1387 1
  1038 1388 1389 1
  1039 1389 1398 ar
  1040 1389 1390 ar
  1041 1390 1391 ar
  1042 1391 1392 ar
  1043 1392 1398 ar
  1044 1392 1393 ar
  1045 1393 1395 ar
  1046 1393 1394 1
  1047 1395 1396 ar
  1048 1396 1397 ar
  1049 1397 1398 ar
  1050 1352 1377 1
  1051 1410 1412 1
  1052 1410 1411 1
  1053 1410 1413 1
  1054 1413 1414 1
  1055 1414 1415 1
  1056 1415 1417 1
  1057 1415 1416 1
  1058 1416 1421 1
  1059 1417 1418 1
  1060 1417 1419 1
  1061 1419 1420 1
  1062 1419 1421 1
  1063 1421 1422 1
  1064 1422 1423 ar
  1065 1422 1432 ar
  1066 1423 1424 ar
  1067 1424 1425 ar
  1068 1425 1432 ar
  1069 1425 1426 1
  1070 1426 1427 2
  1071 1426 1428 am
  1072 1428 1429 1
  1073 1429 1430 2
  1074 1429 1431 2
  1075 1431 1432 1
  1076 1385 1410 1
  1077 1444 1445 1
  1078 1444 1446 1
  1079 1444 1447 1
  1080 1447 1448 1
  1081 1448 1449 1
  1082 1449 1451 1
  1083 1449 1450 1
  1084 1450 1455 1
  1085 1451 1453 1
  1086 1451 1452 1
  1087 1453 1455 1
  1088 1453 1454 1
  1089 1455 1456 1
  1090 1456 1465 ar
  1091 1456 1457 ar
  1092 1457 1458 ar
  1093 1458 1459 ar
  1094 1459 1465 ar
  1095 1459 1460 ar
  1096 1460 1462 ar
  1097 1460 1461 1
  1098 1462 1463 ar
  1099 1463 1464 ar
  1100 1464 1465 ar
  1101 1418 1444 1
  1102 1477 1479 1
  1103 1477 1478 1
  1104 1477 1480 1
  1105 1480 1481 1
  1106 1481 1482 1
  1107 1482 1484 1
  1108 1482 1483 1
  1109 1483 1488 1
  1110 1484 1485 1
  1111 1484 1486 1
  1112 1486 1487 1
  1113 1486 1488 1
  1114 1488 1489 1
  1115 1489 1490 ar
  1116 1489 1499 ar
  1117 1490 1491 ar
  1118 1491 1492 ar
  1119 1492 1499 ar
  1120 1492 1493 1
  1121 1493 1494 2
  1122 1493 1495 am
  1123 1495 1496 1
  1124 1496 1497 2
  1125 1496 1498 2
  1126 1498 1499 1
  1127 1452 1477 1
  1128 1511 1512 1
  1129 1511 1513 1
  1130 1511 1514 1
  1131 1514 1515 1
  1132 1515 1516 1
  1133 1516 1518 1
  1134 1516 1517 1
  1135 1517 1522 1
  1136 1518 1520 1
  1137 1518 1519 1
  1138 1520 1521 1
  1139 1520 1522 1
  1140 1522 1523 1
  1141 1523 1524 am
  1142 1523 1530 1
  1143 1524 1526 1
  1144 1524 1525 2
  1145 1526 1527 2
  1146 1527 1529 2
  1147 1527 1528 2
  1148 1529 1530 2
  1149 1485 1511 1
  1150 1542 1543 1
  1151 1542 1544 1
  1152 1542 1545 1
  1153 1545 1546 1
  1154 1546 1547 1
  1155 1547 1549 1
  1156 1547 1548 1
  1157 1548 1553 1
  1158 1549 1551 1
  1159 1549 1550 1
  1160 1551 1552 1
  1161 1551 1553 1
  1162 1553 1554 1
  1163 1554 1555 am
  1164 1554 1561 1
  1165 1555 1557 1
  1166 1555 1556 2
  1167 1557 1558 2
  1168 1558 1560 2
  1169 1558 1559 2
  1170 1560 1561 2
  1171 1519 1542 1
  1172 1573 1574 1
  1173 1573 1575 1
  1174 1573 1576 1
  1175 1576 1577 1
  1176 1577 1578 1
  1177 1578 1580 1
  1178 1578 1579 1
  1179 1579 1584 1
  1180 1580 1582 1
  1181 1580 1581 1
  1182 1582 1583 1
  1183 1582 1584 1
  1184 1584 1585 1
  1185 1585 1586 am
  1186 1585 1592 1
  1187 1586 1587 2
  1188 1586 1588 am
  1189 1588 1589 am
  1190 1589 1591 1
  1191 1589 1590 2
  1192 1591 1592 2
  1193 1550 1573 1
  1194 1603 1604 1
  1195 1603 1605 1
  1196 1603 1606 1
  1197 1606 1607 1
  1198 1607 1608 1
  1199 1608 1610 1
  1200 1608 1609 1
  1201 1609 1614 1
  1202 1610 1612 1
  1203 1610 1611 1
  1204 1612 1613 1
  1205 1612 1614 1
  1206 1614 1615 1
  1207 1615 1616 am
  1208 1615 1622 1
  1209 1616 1617 2
  1210 1616 1618 am
  1211 1618 1619 am
  1212 1619 1621 1
  1213 1619 1620 2
  1214 1621 1622 2
  1215 1581 1603 1
  1216 1633 1634 1
  1217 1633 1635 1
  1218 1633 1636 1
  1219 1636 1637 1
  1220 1637 1638 1
  1221 1638 1640 1
  1222 1638 1639 1
  1223 1639 1644 1
  1224 1640 1642 1
  1225 1640 1641 1
  1226 1642 1644 1
  1227 1642 1643 1
  1228 1644 1645 1
  1229 1645 1654 ar
  1230 1645 1646 ar
  1231 1646 1647 ar
  1232 1647 1648 ar
  1233 1648 1654 ar
  1234 1648 1649 ar
  1235 1649 1651 ar
  1236 1649 1650 1
  1237 1651 1652 ar
  1238 1652 1653 ar
  1239 1653 1654 ar
  1240 1611 1633 1
  1241 1666 1667 1
  1242 1666 1668 1
  1243 1666 1669 1
  1244 1669 1670 1
  1245 1670 1671 1
  1246 1671 1673 1
  1247 1671 1672 1
  1248 1672 1677 1
  1249 1673 1675 1
  1250 1673 1674 1
  1251 1675 1677 1
  1252 1675 1676 1
  1253 1677 1678 1
  1254 1678 1687 ar
  1255 1678 1679 ar
  1256 1679 1680 ar
  1257 1680 1681 ar
  1258 1681 1687 ar
  1259 1681 1682 ar
  1260 1682 1684 ar
  1261 1682 1683 1
  1262 1684 1685 ar
  1263 1685 1686 ar
  1264 1686 1687 ar
  1265 1641 1666 1
  1266 1699 1700 1
  1267 1699 1701 1
  1268 1699 1702 1
  1269 1702 1703 1
  1270 1703 1704 1
  1271 1704 1706 1
  1272 1704 1705 1
  1273 1705 1710 1
  1274 1706 1708 1
  1275 1706 1707 1
  1276 1708 1710 1
  1277 1708 1709 1
  1278 1710 1711 1
  1279 1711 1720 ar
  1280 1711 1712 ar
  1281 1712 1713 ar
  1282 1713 1714 ar
  1283 1714 1720 ar
  1284 1714 1715 ar
  1285 1715 1717 ar
  1286 1715 1716 1
  1287 1717 1718 ar
  1288 1718 1719 ar
  1289 1719 1720 ar
  1290 1674 1699 1
  1291 1732 1733 1
  1292 1732 1734 1
  1293 1732 1735 1
  1294 1735 1736 1
  1295 1736 1737 1
  1296 1737 1739 1
  1297 1737 1738 1
  1298 1738 1743 1
  1299 1739 1741 1
  1300 1739 1740 1
  1301 1741 1742 1
  1302 1741 1743 1
  1303 1743 1744 1
  1304 1744 1745 am
  1305 1744 1751 1
  1306 1745 1747 1
  1307 1745 1746 2
  1308 1747 1748 2
  1309 1748 1750 2
  1310 1748 1749 2
  1311 1750 1751 2
  1312 1707 1732 1
  1313 1763 1764 1
  1314 1763 1765 1
  1315 1763 1766 1
  1316 1766 1767 1
  1317 1767 1768 1
  1318 1768 1770 1
  1319 1768 1769 1
  1320 1769 1774 1
  1321 1770 1772 1
  1322 1770 1771 1
  1323 1772 1773 1
  1324 1772 1774 1
  1325 1774 1775 1
  1326 1775 1776 am
  1327 1775 1782 1
  1328 1776 1777 2
  1329 1776 1778 am
  1330 1778 1779 am
  1331 1779 1781 1
  1332 1779 1780 2
  1333 1781 1782 2
  1334 1740 1763 1
  1335 1793 1794 1
  1336 1793 1795 1
  1337 1793 1796 1
  1338 1796 1797 1
  1339 1797 1798 1
  1340 1798 1800 1
  1341 1798 1799 1
  1342 1799 1804 1
  1343 1800 1802 1
  1344 1800 1801 1
  1345 1802 1803 1
  1346 1802 1804 1
  1347 1804 1805 1
  1348 1805 1806 am
  1349 1805 1812 1
  1350 1806 1808 1
  1351 1806 1807 2
  1352 1808 1809 2
  1353 1809 1811 2
  1354 1809 1810 2
  1355 1811 1812 2
  1356 1771 1793 1
  1357 1824 1825 1
  1358 1824 1826 1
  1359 1824 1827 1
  1360 1827 1828 1
  1361 1828 1829 1
  1362 1829 1831 1
  1363 1829 1830 1
  1364 1830 1835 1
  1365 1831 1833 1
  1366 1831 1832 1
  1367 1833 1834 1
  1368 1833 1835 1
  1369 1835 1836 1
  1370 1836 1837 am
  1371 1836 1843 1
  1372 1837 1838 2
  1373 1837 1839 am
  1374 1839 1840 am
  1375 1840 1842 1
  1376 1840 1841 2
  1377 1842 1843 2
  1378 1801 1824 1
  1379 1854 1855 1
  1380 1854 1856 1
  1381 1854 1857 1
  1382 1857 1858 1
  1383 1858 1859 1
  1384 1859 1861 1
  1385 1859 1860 1
  1386 1860 1865 1
  1387 1861 1863 1
  1388 1861 1862 1
  1389 1863 1864 1
  1390 1863 1865 1
  1391 1865 1866 1
  1392 1866 1867 am
  1393 1866 1873 1
  1394 1867 1868 2
  1395 1867 1869 am
  1396 1869 1870 am
  1397 1870 1872 1
  1398 1870 1871 2
  1399 1872 1873 2
  1400 1832 1854 1
  1401 1884 1886 1
  1402 1884 1885 1
  1403 1884 1887 1
  1404 1887 1888 1
  1405 1888 1889 1
  1406 1889 1891 1
  1407 1889 1890 1
  1408 1890 1895 1
  1409 1891 1892 1
  1410 1891 1893 1
  1411 1893 1894 1
  1412 1893 1895 1
  1413 1895 1896 1
  1414 1896 1897 ar
  1415 1896 1906 ar
  1416 1897 1898 ar
  1417 1898 1899 ar
  1418 1899 1906 ar
  1419 1899 1900 1
  1420 1900 1901 2
  1421 1900 1902 am
  1422 1902 1903 1
  1423 1903 1904 2
  1424 1903 1905 2
  1425 1905 1906 1
  1426 1862 1884 1
  1427 1918 1919 1
  1428 1918 1920 1
  1429 1918 1921 1
  1430 1921 1922 1
  1431 1922 1923 1
  1432 1923 1925 1
  1433 1923 1924 1
  1434 1924 1929 1
  1435 1925 1927 1
  1436 1925 1926 1
  1437 1927 1929 1
  1438 1927 1928 1
  1439 1929 1930 1
  1440 1930 1939 ar
  1441 1930 1931 ar
  1442 1931 1932 ar
  1443 1932 1933 ar
  1444 1933 1939 ar
  1445 1933 1934 ar
  1446 1934 1936 ar
  1447 1934 1935 1
  1448 1936 1937 ar
  1449 1937 1938 ar
  1450 1938 1939 ar
  1451 1892 1918 1
  1452 1951 1952 1
  1453 1951 1953 1
  1454 1951 1954 1
  1455 1954 1955 1
  1456 1955 1956 1
  1457 1956 1958 1
  1458 1956 1957 1
  1459 1957 1962 1
  1460 1958 1960 1
  1461 1958 1959 1
  1462 1960 1961 1
  1463 1960 1962 1
  1464 1962 1963 1
  1465 1963 1964 am
  1466 1963 1970 1
  1467 1964 1965 2
  1468 1964 1966 am
  1469 1966 1967 am
  1470 1967 1969 1
  1471 1967 1968 2
  1472 1969 1970 2
  1473 1926 1951 1
  1474 1981 1982 1
  1475 1981 1983 1
  1476 1981 1984 1
  1477 1984 1985 1
  1478 1985 1986 1
  1479 1986 1988 1
  1480 1986 1987 1
  1481 1987 1992 1
  1482 1988 1990 1
  1483 1988 1989 1
  1484 1990 1991 1
  1485 1990 1992 1
  1486 1992 1993 1
  1487 1993 1994 am
  1488 1993 2000 1
  1489 1994 1995 2
  1490 1994 1996 am
  1491 1996 1997 am
  1492 1997 1999 1
  1493 1997 1998 2
  1494 1999 2000 2
  1495 1959 1981 1
  1496 2011 2012 1
  1497 2011 2013 1
  1498 2011 2014 1
  1499 2014 2015 1
  1500 2015 2016 1
  1501 2016 2018 1
  1502 2016 2017 1
  1503 2017 2022 1
  1504 2018 2020 1
  1505 2018 2019 1
  1506 2020 2022 1
  1507 2020 2021 1
  1508 2022 2023 1
  1509 2023 2032 ar
  1510 2023 2024 ar
  1511 2024 2025 ar
  1512 2025 2026 ar
  1513 2026 2032 ar
  1514 2026 2027 ar
  1515 2027 2029 ar
  1516 2027 2028 1
  1517 2029 2030 ar
  1518 2030 2031 ar
  1519 2031 2032 ar
  1520 1989 2011 1
  1521 2044 2045 1
  1522 2044 2046 1
  1523 2044 2047 1
  1524 2047 2048 1
  1525 2048 2049 1
  1526 2049 2051 1
  1527 2049 2050 1
  1528 2050 2055 1
  1529 2051 2053 1
  1530 2051 2052 1
  1531 2053 2054 1
  1532 2053 2055 1
  1533 2055 2056 1
  1534 2056 2057 am
  1535 2056 2063 1
  1536 2057 2058 2
  1537 2057 2059 am
  1538 2059 2060 am
  1539 2060 2062 1
  1540 2060 2061 2
  1541 2062 2063 2
  1542 2019 2044 1
  1543 2074 2075 1
  1544 2074 2076 1
  1545 2074 2077 1
  1546 2077 2078 1
  1547 2078 2079 1
  1548 2079 2081 1
  1549 2079 2080 1
  1550 2080 2085 1
  1551 2081 2083 1
  1552 2081 2082 1
  1553 2083 2084 1
  1554 2083 2085 1
  1555 2085 2086 1
  1556 2086 2087 am
  1557 2086 2093 1
  1558 2087 2089 1
  1559 2087 2088 2
  1560 2089 2090 2
  1561 2090 2092 2
  1562 2090 2091 2
  1563 2092 2093 2
  1564 2052 2074 1
  1565 2105 2106 1
  1566 2105 2107 1
  1567 2105 2108 1
  1568 2108 2109 1
  1569 2109 2110 1
  1570 2110 2112 1
  1571 2110 2111 1
  1572 2111 2116 1
  1573 2112 2114 1
  1574 2112 2113 1
  1575 2114 2115 1
  1576 2114 2116 1
  1577 2116 2117 1
  1578 2117 2118 am
  1579 2117 2124 1
  1580 2118 2119 2
  1581 2118 2120 am
  1582 2120 2121 am
  1583 2121 2123 1
  1584 2121 2122 2
  1585 2123 2124 2
  1586 2082 2105 1
  1587 2135 2136 1
  1588 2135 2137 1
  1589 2135 2138 1
  1590 2138 2139 1
  1591 2139 2140 1
  1592 2140 2142 1
  1593 2140 2141 1
  1594 2141 2146 1
  1595 2142 2144 1
  1596 2142 2143 1
  1597 2144 2145 1
  1598 2144 2146 1
  1599 2146 2147 1
  1600 2147 2148 am
  1601 2147 2154 1
  1602 2148 2149 2
  1603 2148 2150 am
  1604 2150 2151 am
  1605 2151 2153 1
  1606 2151 2152 2
  1607 2153 2154 2
  1608 2113 2135 1
  1609 2165 2166 1
  1610 2165 2167 1
  1611 2165 2168 1
  1612 2168 2169 1
  1613 2169 2170 1
  1614 2170 2172 1
  1615 2170 2171 1
  1616 2171 2176 1
  1617 2172 2174 1
  1618 2172 2173 1
  1619 2174 2175 1
  1620 2174 2176 1
  1621 2176 2177 1
  1622 2177 2178 am
  1623 2177 2184 1
  1624 2178 2180 1
  1625 2178 2179 2
  1626 2180 2181 2
  1627 2181 2183 2
  1628 2181 2182 2
  1629 2183 2184 2
  1630 2143 2165 1
  1631 2196 2197 1
  1632 2196 2198 1
  1633 2196 2199 1
  1634 2199 2200 1
  1635 2200 2201 1
  1636 2201 2203 1
  1637 2201 2202 1
  1638 2202 2207 1
  1639 2203 2205 1
  1640 2203 2204 1
  1641 2205 2206 1
  1642 2205 2207 1
  1643 2207 2208 1
  1644 2208 2209 am
  1645 2208 2215 1
  1646 2209 2211 1
  1647 2209 2210 2
  1648 2211 2212 2
  1649 2212 2214 2
  1650 2212 2213 2
  1651 2214 2215 2
  1652 2173 2196 1
  1653 2230 2231 1
  1654 2231 2232 1
  1655 2232 2234 1
  1656 2232 2233 1
  1657 2233 2238 1
  1658 2234 2236 1
  1659 2234 2235 1
  1660 2236 2237 1
  1661 2236 2238 1
  1662 2238 2239 1
  1663 2239 2246 1
  1664 2239 2240 am
  1665 2240 2241 2
  1666 2240 2242 1
  1667 2242 2243 2
  1668 2243 2245 2
  1669 2243 2244 2
  1670 2245 2246 2
  1671 2227 2228 1
  1672 2227 2229 1
  1673 2227 2230 1
  1674 2204 2227 1
  1675   21    2 1
  1676   22    2 1
  1677   23    3 1
  1678   24    5 1
  1679   25    7 1
  1680   26    9 1
  1681   27   11 1
  1682   28   16 1
  1683   56   37 1
  1684   57   37 1
  1685   58   38 1
  1686   59   40 1
  1687   60   42 1
  1688   61   44 1
  1689   62   46 1
  1690   63   51 1
  1691   90   71 1
  1692   91   71 1
  1693   92   72 1
  1694   93   74 1
  1695   94   76 1
  1696   95   78 1
  1697   96   80 1
  1698   97   85 1
  1699  123  105 1
  1700  124  105 1
  1701  125  106 1
  1702  126  108 1
  1703  127  110 1
  1704  128  112 1
  1705  129  114 1
  1706  130  120 1
  1707  156  138 1
  1708  157  138 1
  1709  158  139 1
  1710  159  141 1
  1711  160  143 1
  1712  161  145 1
  1713  162  147 1
  1714  163  153 1
  1715  190  171 1
  1716  191  171 1
  1717  192  172 1
  1718  193  174 1
  1719  194  176 1
  1720  195  178 1
  1721  196  180 1
  1722  197  185 1
  1723  223  205 1
  1724  224  205 1
  1725  225  206 1
  1726  226  208 1
  1727  227  210 1
  1728  228  212 1
  1729  229  214 1
  1730  230  220 1
  1731  254  238 1
  1732  255  238 1
  1733  256  239 1
  1734  257  241 1
  1735  258  243 1
  1736  259  245 1
  1737  260  249 1
  1738  261  252 1
  1739  262  253 1
  1740  286  268 1
  1741  287  268 1
  1742  288  269 1
  1743  289  271 1
  1744  290  273 1
  1745  291  275 1
  1746  292  277 1
  1747  293  283 1
  1748  317  301 1
  1749  318  301 1
  1750  319  302 1
  1751  320  304 1
  1752  321  306 1
  1753  322  308 1
  1754  323  312 1
  1755  324  315 1
  1756  325  316 1
  1757  349  331 1
  1758  350  331 1
  1759  351  332 1
  1760  352  334 1
  1761  353  336 1
  1762  354  338 1
  1763  355  340 1
  1764  356  346 1
  1765  382  364 1
  1766  383  364 1
  1767  384  365 1
  1768  385  367 1
  1769  386  369 1
  1770  387  371 1
  1771  388  373 1
  1772  389  379 1
  1773  413  397 1
  1774  414  397 1
  1775  415  398 1
  1776  416  400 1
  1777  417  402 1
  1778  418  404 1
  1779  419  408 1
  1780  420  411 1
  1781  421  412 1
  1782  443  427 1
  1783  444  427 1
  1784  445  428 1
  1785  446  430 1
  1786  447  432 1
  1787  448  434 1
  1788  449  441 1
  1789  450  442 1
  1790  474  458 1
  1791  475  458 1
  1792  476  459 1
  1793  477  461 1
  1794  478  463 1
  1795  479  465 1
  1796  480  472 1
  1797  481  473 1
  1798  505  489 1
  1799  506  489 1
  1800  507  490 1
  1801  508  492 1
  1802  509  494 1
  1803  510  496 1
  1804  511  500 1
  1805  512  503 1
  1806  513  504 1
  1807  537  519 1
  1808  538  519 1
  1809  539  520 1
  1810  540  522 1
  1811  541  524 1
  1812  542  526 1
  1813  543  528 1
  1814  544  534 1
  1815  570  552 1
  1816  571  552 1
  1817  572  553 1
  1818  573  555 1
  1819  574  557 1
  1820  575  559 1
  1821  576  561 1
  1822  577  567 1
  1823  601  585 1
  1824  602  585 1
  1825  603  586 1
  1826  604  588 1
  1827  605  590 1
  1828  606  592 1
  1829  607  596 1
  1830  608  599 1
  1831  609  600 1
  1832  634  615 1
  1833  635  615 1
  1834  636  616 1
  1835  637  618 1
  1836  638  620 1
  1837  639  622 1
  1838  640  624 1
  1839  641  629 1
  1840  667  649 1
  1841  668  649 1
  1842  669  650 1
  1843  670  652 1
  1844  671  654 1
  1845  672  656 1
  1846  673  658 1
  1847  674  664 1
  1848  698  682 1
  1849  699  682 1
  1850  700  683 1
  1851  701  685 1
  1852  702  687 1
  1853  703  689 1
  1854  704  693 1
  1855  705  696 1
  1856  706  697 1
  1857  730  712 1
  1858  731  712 1
  1859  732  713 1
  1860  733  715 1
  1861  734  717 1
  1862  735  719 1
  1863  736  721 1
  1864  737  727 1
  1865  761  745 1
  1866  762  745 1
  1867  763  746 1
  1868  764  748 1
  1869  765  750 1
  1870  766  752 1
  1871  767  756 1
  1872  768  759 1
  1873  769  760 1
  1874  794  775 1
  1875  795  775 1
  1876  796  776 1
  1877  797  778 1
  1878  798  780 1
  1879  799  782 1
  1880  800  784 1
  1881  801  789 1
  1882  828  809 1
  1883  829  809 1
  1884  830  810 1
  1885  831  812 1
  1886  832  814 1
  1887  833  816 1
  1888  834  818 1
  1889  835  823 1
  1890  859  843 1
  1891  860  843 1
  1892  861  844 1
  1893  862  846 1
  1894  863  848 1
  1895  864  850 1
  1896  865  854 1
  1897  866  857 1
  1898  867  858 1
  1899  889  873 1
  1900  890  873 1
  1901  891  874 1
  1902  892  876 1
  1903  893  878 1
  1904  894  880 1
  1905  895  884 1
  1906  896  887 1
  1907  897  888 1
  1908  919  903 1
  1909  920  903 1
  1910  921  904 1
  1911  922  906 1
  1912  923  908 1
  1913  924  910 1
  1914  925  914 1
  1915  926  917 1
  1916  927  918 1
  1917  952  933 1
  1918  953  933 1
  1919  954  934 1
  1920  955  936 1
  1921  956  938 1
  1922  957  940 1
  1923  958  942 1
  1924  959  947 1
  1925  986  967 1
  1926  987  967 1
  1927  988  968 1
  1928  989  970 1
  1929  990  972 1
  1930  991  974 1
  1931  992  976 1
  1932  993  981 1
  1933 1020 1001 1
  1934 1021 1001 1
  1935 1022 1002 1
  1936 1023 1004 1
  1937 1024 1006 1
  1938 1025 1008 1
  1939 1026 1010 1
  1940 1027 1015 1
  1941 1053 1035 1
  1942 1054 1035 1
  1943 1055 1036 1
  1944 1056 1038 1
  1945 1057 1040 1
  1946 1058 1042 1
  1947 1059 1044 1
  1948 1060 1050 1
  1949 1087 1068 1
  1950 1088 1068 1
  1951 1089 1069 1
  1952 1090 1071 1
  1953 1091 1073 1
  1954 1092 1075 1
  1955 1093 1077 1
  1956 1094 1082 1
  1957 1118 1102 1
  1958 1119 1102 1
  1959 1120 1103 1
  1960 1121 1105 1
  1961 1122 1107 1
  1962 1123 1109 1
  1963 1124 1113 1
  1964 1125 1116 1
  1965 1126 1117 1
  1966 1148 1132 1
  1967 1149 1132 1
  1968 1150 1133 1
  1969 1151 1135 1
  1970 1152 1137 1
  1971 1153 1139 1
  1972 1154 1143 1
  1973 1155 1146 1
  1974 1156 1147 1
  1975 1178 1162 1
  1976 1179 1162 1
  1977 1180 1163 1
  1978 1181 1165 1
  1979 1182 1167 1
  1980 1183 1169 1
  1981 1184 1173 1
  1982 1185 1176 1
  1983 1186 1177 1
  1984 1208 1192 1
  1985 1209 1192 1
  1986 1210 1193 1
  1987 1211 1195 1
  1988 1212 1197 1
  1989 1213 1199 1
  1990 1214 1206 1
  1991 1215 1207 1
  1992 1239 1223 1
  1993 1240 1223 1
  1994 1241 1224 1
  1995 1242 1226 1
  1996 1243 1228 1
  1997 1244 1230 1
  1998 1245 1234 1
  1999 1246 1237 1
  2000 1247 1238 1
  2001 1271 1253 1
  2002 1272 1253 1
  2003 1273 1254 1
  2004 1274 1256 1
  2005 1275 1258 1
  2006 1276 1260 1
  2007 1277 1262 1
  2008 1278 1268 1
  2009 1302 1286 1
  2010 1303 1286 1
  2011 1304 1287 1
  2012 1305 1289 1
  2013 1306 1291 1
  2014 1307 1293 1
  2015 1308 1300 1
  2016 1309 1301 1
  2017 1333 1317 1
  2018 1334 1317 1
  2019 1335 1318 1
  2020 1336 1320 1
  2021 1337 1322 1
  2022 1338 1324 1
  2023 1339 1331 1
  2024 1340 1332 1
  2025 1366 1348 1
  2026 1367 1348 1
  2027 1368 1349 1
  2028 1369 1351 1
  2029 1370 1353 1
  2030 1371 1355 1
  2031 1372 1357 1
  2032 1373 1363 1
  2033 1399 1381 1
  2034 1400 1381 1
  2035 1401 1382 1
  2036 1402 1384 1
  2037 1403 1386 1
  2038 1404 1388 1
  2039 1405 1390 1
  2040 1406 1396 1
  2041 1433 1414 1
  2042 1434 1414 1
  2043 1435 1415 1
  2044 1436 1417 1
  2045 1437 1419 1
  2046 1438 1421 1
  2047 1439 1423 1
  2048 1440 1428 1
  2049 1466 1448 1
  2050 1467 1448 1
  2051 1468 1449 1
  2052 1469 1451 1
  2053 1470 1453 1
  2054 1471 1455 1
  2055 1472 1457 1
  2056 1473 1463 1
  2057 1500 1481 1
  2058 1501 1481 1
  2059 1502 1482 1
  2060 1503 1484 1
  2061 1504 1486 1
  2062 1505 1488 1
  2063 1506 1490 1
  2064 1507 1495 1
  2065 1531 1515 1
  2066 1532 1515 1
  2067 1533 1516 1
  2068 1534 1518 1
  2069 1535 1520 1
  2070 1536 1522 1
  2071 1537 1529 1
  2072 1538 1530 1
  2073 1562 1546 1
  2074 1563 1546 1
  2075 1564 1547 1
  2076 1565 1549 1
  2077 1566 1551 1
  2078 1567 1553 1
  2079 1568 1560 1
  2080 1569 1561 1
  2081 1593 1577 1
  2082 1594 1577 1
  2083 1595 1578 1
  2084 1596 1580 1
  2085 1597 1582 1
  2086 1598 1584 1
  2087 1599 1588 1
  2088 1600 1591 1
  2089 1601 1592 1
  2090 1623 1607 1
  2091 1624 1607 1
  2092 1625 1608 1
  2093 1626 1610 1
  2094 1627 1612 1
  2095 1628 1614 1
  2096 1629 1618 1
  2097 1630 1621 1
  2098 1631 1622 1
  2099 1655 1637 1
  2100 1656 1637 1
  2101 1657 1638 1
  2102 1658 1640 1
  2103 1659 1642 1
  2104 1660 1644 1
  2105 1661 1646 1
  2106 1662 1652 1
  2107 1688 1670 1
  2108 1689 1670 1
  2109 1690 1671 1
  2110 1691 1673 1
  2111 1692 1675 1
  2112 1693 1677 1
  2113 1694 1679 1
  2114 1695 1685 1
  2115 1721 1703 1
  2116 1722 1703 1
  2117 1723 1704 1
  2118 1724 1706 1
  2119 1725 1708 1
  2120 1726 1710 1
  2121 1727 1712 1
  2122 1728 1718 1
  2123 1752 1736 1
  2124 1753 1736 1
  2125 1754 1737 1
  2126 1755 1739 1
  2127 1756 1741 1
  2128 1757 1743 1
  2129 1758 1750 1
  2130 1759 1751 1
  2131 1783 1767 1
  2132 1784 1767 1
  2133 1785 1768 1
  2134 1786 1770 1
  2135 1787 1772 1
  2136 1788 1774 1
  2137 1789 1778 1
  2138 1790 1781 1
  2139 1791 1782 1
  2140 1813 1797 1
  2141 1814 1797 1
  2142 1815 1798 1
  2143 1816 1800 1
  2144 1817 1802 1
  2145 1818 1804 1
  2146 1819 1811 1
  2147 1820 1812 1
  2148 1844 1828 1
  2149 1845 1828 1
  2150 1846 1829 1
  2151 1847 1831 1
  2152 1848 1833 1
  2153 1849 1835 1
  2154 1850 1839 1
  2155 1851 1842 1
  2156 1852 1843 1
  2157 1874 1858 1
  2158 1875 1858 1
  2159 1876 1859 1
  2160 1877 1861 1
  2161 1878 1863 1
  2162 1879 1865 1
  2163 1880 1869 1
  2164 1881 1872 1
  2165 1882 1873 1
  2166 1907 1888 1
  2167 1908 1888 1
  2168 1909 1889 1
  2169 1910 1891 1
  2170 1911 1893 1
  2171 1912 1895 1
  2172 1913 1897 1
  2173 1914 1902 1
  2174 1940 1922 1
  2175 1941 1922 1
  2176 1942 1923 1
  2177 1943 1925 1
  2178 1944 1927 1
  2179 1945 1929 1
  2180 1946 1931 1
  2181 1947 1937 1
  2182 1971 1955 1
  2183 1972 1955 1
  2184 1973 1956 1
  2185 1974 1958 1
  2186 1975 1960 1
  2187 1976 1962 1
  2188 1977 1966 1
  2189 1978 1969 1
  2190 1979 1970 1
  2191 2001 1985 1
  2192 2002 1985 1
  2193 2003 1986 1
  2194 2004 1988 1
  2195 2005 1990 1
  2196 2006 1992 1
  2197 2007 1996 1
  2198 2008 1999 1
  2199 2009 2000 1
  2200 2033 2015 1
  2201 2034 2015 1
  2202 2035 2016 1
  2203 2036 2018 1
  2204 2037 2020 1
  2205 2038 2022 1
  2206 2039 2024 1
  2207 2040 2030 1
  2208 2064 2048 1
  2209 2065 2048 1
  2210 2066 2049 1
  2211 2067 2051 1
  2212 2068 2053 1
  2213 2069 2055 1
  2214 2070 2059 1
  2215 2071 2062 1
  2216 2072 2063 1
  2217 2094 2078 1
  2218 2095 2078 1
  2219 2096 2079 1
  2220 2097 2081 1
  2221 2098 2083 1
  2222 2099 2085 1
  2223 2100 2092 1
  2224 2101 2093 1
  2225 2125 2109 1
  2226 2126 2109 1
  2227 2127 2110 1
  2228 2128 2112 1
  2229 2129 2114 1
  2230 2130 2116 1
  2231 2131 2120 1
  2232 2132 2123 1
  2233 2133 2124 1
  2234 2155 2139 1
  2235 2156 2139 1
  2236 2157 2140 1
  2237 2158 2142 1
  2238 2159 2144 1
  2239 2160 2146 1
  2240 2161 2150 1
  2241 2162 2153 1
  2242 2163 2154 1
  2243 2185 2169 1
  2244 2186 2169 1
  2245 2187 2170 1
  2246 2188 2172 1
  2247 2189 2174 1
  2248 2190 2176 1
  2249 2191 2183 1
  2250 2192 2184 1
  2251 2216 2200 1
  2252 2217 2200 1
  2253 2218 2201 1
  2254 2219 2203 1
  2255 2220 2205 1
  2256 2221 2207 1
  2257 2222 2214 1
  2258 2223 2215 1
  2259 2247 2231 1
  2260 2248 2231 1
  2261 2249 2232 1
  2262 2250 2234 1
  2263 2251 2236 1
  2264 2252 2238 1
  2265 2253 2245 1
  2266 2254 2246 1
  2267   29   18 1
  2268   30   18 1
  2269   64   53 1
  2270   65   53 1
  2271   98   87 1
  2272   99   87 1
  2273  198  187 1
  2274  199  187 1
  2275  451  440 1
  2276  452  440 1
  2277  482  471 1
  2278  483  471 1
  2279  642  631 1
  2280  643  631 1
  2281  802  791 1
  2282  803  791 1
  2283  836  825 1
  2284  837  825 1
  2285  960  949 1
  2286  961  949 1
  2287  994  983 1
  2288  995  983 1
  2289 1028 1017 1
  2290 1029 1017 1
  2291 1095 1084 1
  2292 1096 1084 1
  2293 1216 1205 1
  2294 1217 1205 1
  2295 1310 1299 1
  2296 1311 1299 1
  2297 1341 1330 1
  2298 1342 1330 1
  2299 1441 1430 1
  2300 1442 1430 1
  2301 1508 1497 1
  2302 1509 1497 1
  2303 1539 1528 1
  2304 1540 1528 1
  2305 1570 1559 1
  2306 1571 1559 1
  2307 1760 1749 1
  2308 1761 1749 1
  2309 1821 1810 1
  2310 1822 1810 1
  2311 1915 1904 1
  2312 1916 1904 1
  2313 2102 2091 1
  2314 2103 2091 1
  2315 2193 2182 1
  2316 2194 2182 1
  2317 2224 2213 1
  2318 2225 2213 1
  2319 2255 2244 1
  2320 2256 2244 1
  2321  707  688 1
  2322 1572 1552 1
  2323  804  781 1
  2324  294  274 1
  2325 2010 1991 1
  2326  675  655 1
  2327 2041 2021 1
  2328 1127 1108 1
  2329 1696 1676 1
  2330 1187 1168 1
  2331 2104 2084 1
  2332 1792 1773 1
  2333 1374 1354 1
  2334  644  621 1
  2335  514  495 1
  2336 1823 1803 1
  2337 1541 1521 1
  2338  200  177 1
  2339 1883 1864 1
  2340 1343 1323 1
  2341 1443 1420 1
  2342 1474 1454 1
  2343  928  909 1
  2344 1632 1613 1
  2345  131  111 1
  2346 1853 1834 1
  2347 2226 2206 1
  2348  100   77 1
  2349  996  973 1
  2350 2073 2054 1
  2351 2195 2175 1
  2352  453  433 1
  2353 1407 1387 1
  2354 2164 2145 1
  2355 2134 2115 1
  2356 1030 1007 1
  2357  868  849 1
  2358 1248 1229 1
  2359 1762 1742 1
  2360 1312 1292 1
  2361  164  151 1
  2362  165  151 1
  2363  676  662 1
  2364  677  662 1
  2365  357  344 1
  2366  358  344 1
  2367  295  281 1
  2368  296  281 1
  2369 1475 1461 1
  2370 1476 1461 1
  2371 2042 2028 1
  2372 2043 2028 1
  2373 1697 1683 1
  2374 1698 1683 1
  2375 1061 1048 1
  2376 1062 1048 1
  2377 1729 1716 1
  2378 1730 1716 1
  2379 1408 1394 1
  2380 1409 1394 1
  2381  132  118 1
  2382  133  118 1
  2383  231  218 1
  2384  232  218 1
  2385  578  565 1
  2386  579  565 1
  2387 1279 1266 1
  2388 1280 1266 1
  2389 1375 1361 1
  2390 1376 1361 1
  2391  738  725 1
  2392  739  725 1
  2393  390  377 1
  2394  391  377 1
  2395 1948 1935 1
  2396 1949 1935 1
  2397 1663 1650 1
  2398 1664 1650 1
  2399  545  532 1
  2400  546  532 1
  2401 1097 1074 1
  2402  392  370 1
  2403 1218 1198 1
  2404  770  751 1
  2405  166  144 1
  2406 1980 1961 1
  2407  326  307 1
  2408  484  464 1
  2409  962  939 1
  2410  359  337 1
  2411 1731 1709 1
  2412  838  815 1
  2413  233  211 1
  2414 1602 1583 1
  2415  547  525 1
  2416 1917 1894 1
  2417  263  244 1
  2418  422  403 1
  2419  580  558 1
  2420 1950 1928 1
  2421   66   43 1
  2422 1281 1259 1
  2423 1665 1643 1
  2424  740  718 1
  2425  610  591 1
  2426  898  879 1
  2427   31    8 1
  2428 1157 1138 1
  2429 2257 2235 1
  2430 2258 2237 1
  2431 1063 1041 1
  2432 1510 1487 1
  2433   32    1 1
@<TRIPOS>SUBSTRUCTURE
     1   G13       3 RESIDUE           4 X       G     1 ROOT
     2   G14      38 RESIDUE           4 X       G     2
     3   G15      72 RESIDUE           4 X       G     2
     4   A16     106 RESIDUE           4 X       A     2
     5   A17     139 RESIDUE           4 X       A     2
     6   G18     172 RESIDUE           4 X       G     2
     7   A19     206 RESIDUE           4 X       A     2
     8   U20     239 RESIDUE           4 X       U     2
     9   A21     269 RESIDUE           4 X       A     2
    10   U22     302 RESIDUE           4 X       U     2
    11   A23     332 RESIDUE           4 X       A     2
    12   A24     365 RESIDUE           4 X       A     2
    13   U25     398 RESIDUE           4 X       U     2
    14   C26     428 RESIDUE           4 X       C     2
    15   C27     459 RESIDUE           4 X       C     2
    16   U28     490 RESIDUE           4 X       U     2
    17   A29     520 RESIDUE           4 X       A     2
    18   A30     553 RESIDUE           4 X       A     2
    19   U31     586 RESIDUE           4 X       U     2
    20   G32     616 RESIDUE           4 X       G     2
    21   A33     650 RESIDUE           4 X       A     2
    22   U34     683 RESIDUE           4 X       U     2
    23   A35     713 RESIDUE           4 X       A     2
    24   U36     746 RESIDUE           4 X       U     2
    25   G37     776 RESIDUE           4 X       G     2
    26   G38     810 RESIDUE           4 X       G     2
    27   U39     844 RESIDUE           4 X       U     2
    28   U40     874 RESIDUE           4 X       U     2
    29   U41     904 RESIDUE           4 X       U     2
    30   G42     934 RESIDUE           4 X       G     2
    31   G43     968 RESIDUE           4 X       G     2
    32   G44    1002 RESIDUE           4 X       G     2
    33   A45    1036 RESIDUE           4 X       A     2
    34   G46    1069 RESIDUE           4 X       G     2
    35   U47    1103 RESIDUE           4 X       U     2
    36   U48    1133 RESIDUE           4 X       U     2
    37   U49    1163 RESIDUE           4 X       U     2
    38   C50    1193 RESIDUE           4 X       C     2
    39   U51    1224 RESIDUE           4 X       U     2
    40   A52    1254 RESIDUE           4 X       A     2
    41   C53    1287 RESIDUE           4 X       C     2
    42   C54    1318 RESIDUE           4 X       C     2
    43   A55    1349 RESIDUE           4 X       A     2
    44   A56    1382 RESIDUE           4 X       A     2
    45   G57    1415 RESIDUE           4 X       G     2
    46   A58    1449 RESIDUE           4 X       A     2
    47   G59    1482 RESIDUE           4 X       G     2
    48   C60    1516 RESIDUE           4 X       C     2
    49   C61    1547 RESIDUE           4 X       C     2
    50   U62    1578 RESIDUE           4 X       U     2
    51   U63    1608 RESIDUE           4 X       U     2
    52   A64    1638 RESIDUE           4 X       A     2
    53   A65    1671 RESIDUE           4 X       A     2
    54   A66    1704 RESIDUE           4 X       A     2
    55   C67    1737 RESIDUE           4 X       C     2
    56   U68    1768 RESIDUE           4 X       U     2
    57   C69    1798 RESIDUE           4 X       C     2
    58   U70    1829 RESIDUE           4 X       U     2
    59   U71    1859 RESIDUE           4 X       U     2
    60   G72    1889 RESIDUE           4 X       G     2
    61   A73    1923 RESIDUE           4 X       A     2
    62   U74    1956 RESIDUE           4 X       U     2
    63   U75    1986 RESIDUE           4 X       U     2
    64   A76    2016 RESIDUE           4 X       A     2
    65   U77    2049 RESIDUE           4 X       U     2
    66   C78    2079 RESIDUE           4 X       C     2
    67   U79    2110 RESIDUE           4 X       U     2
    68   U80    2140 RESIDUE           4 X       U     2
    69   C81    2170 RESIDUE           4 X       C     2
    70   C82    2201 RESIDUE           4 X       C     2
    71   C83    2232 RESIDUE           4 X       C     1
