@<TRIPOS>MOLECULE
2XNZ.pdb
2079 2241 65 0 0
NUCLEIC_ACID
AMBER ff14SB


@<TRIPOS>ATOM
      1 O5'         7.4000   13.8450    0.7480 O.3       1   G16      -0.6223
      2 C5'         7.8140   15.1260    0.2810 C.3       1   G16       0.0558
      3 C4'         7.1130   16.2570    1.0130 C.3       1   G16       0.1065
      4 O4'         5.6730   16.1340    0.8760 O.3       1   G16      -0.3548
      5 C3'         7.3140   16.3140    2.5200 C.3       1   G16       0.2022
      6 O3'         8.6020   16.8190    2.8760 O.3       1   G16      -0.5246
      7 C2'         6.1730   17.2520    2.9070 C.3       1   G16       0.0670
      8 O2'         6.4500   18.6160    2.6420 O.3       1   G16      -0.6139
      9 C1'         5.0540   16.7240    2.0080 C.3       1   G16       0.0191
     10 N9          4.2280   15.7220    2.6840 N.ar      1   G16       0.0492
     11 C8          4.2720   14.3580    2.5080 C.ar      1   G16       0.1374
     12 N7          3.4240   13.7100    3.2550 N.ar      1   G16      -0.5709
     13 C5          2.7740   14.7020    3.9760 C.ar      1   G16       0.1744
     14 C6          1.7460   14.6020    4.9460 C.2       1   G16       0.4770
     15 O6          1.1940   13.5790    5.3700 O.2       1   G16      -0.5597
     16 N1          1.3640   15.8500    5.4420 N.am      1   G16      -0.4787
     17 C2          1.9090   17.0500    5.0440 C.2       1   G16       0.7657
     18 N2          1.4150   18.1500    5.6290 N.pl3     1   G16      -0.9672
     19 N3          2.8730   17.1580    4.1330 N.2       1   G16      -0.6323
     20 C4          3.2580   15.9490    3.6390 C.ar      1   G16       0.1222
     21 H5'         8.8891   15.2238    0.4314 H         1   G16       0.0679
     22 H5''        7.5959   15.2033   -0.7841 H         1   G16       0.0679
     23 H4'         7.4283   17.2060    0.5794 H         1   G16       0.1174
     24 H3'         7.1593   15.3287    2.9597 H         1   G16       0.0615
     25 H2'         5.9111   17.1162    3.9563 H         1   G16       0.0972
     26 H1'         4.4256   17.5543    1.6859 H         1   G16       0.2006
     27 H8          4.9447   13.8716    1.8172 H         1   G16       0.1640
     28 H1          0.6365   15.8741    6.1422 H         1   G16       0.3424
     29 H21         0.6832   18.0690    6.3204 H         1   G16       0.4364
     30 H22         1.7745   19.0600    5.3784 H         1   G16       0.4364
     31 HO2'        6.5373   19.0922    3.4710 H         1   G16       0.4186
     32 HO5'        7.9173   13.0699    0.5172 H         1   G16       0.4295
     33 P           9.2750   16.3940    4.2720 P.3       2   A17       1.1662
     34 OP1        10.6920   16.8240    4.2590 O.co2     2   A17      -0.7760
     35 OP2         8.9390   14.9770    4.5390 O.co2     2   A17      -0.7760
     36 O5'         8.4800   17.2810    5.3360 O.3       2   A17      -0.4989
     37 C5'         8.5830   18.7050    5.3240 C.3       2   A17       0.0558
     38 C4'         7.6380   19.3020    6.3490 C.3       2   A17       0.1065
     39 O4'         6.2680   18.9650    6.0060 O.3       2   A17      -0.3548
     40 C3'         7.8130   18.7550    7.7590 C.3       2   A17       0.2022
     41 O3'         8.8580   19.4420    8.4400 O.3       2   A17      -0.5246
     42 C2'         6.4340   18.9990    8.3650 C.3       2   A17       0.0670
     43 O2'         6.2280   20.3420    8.7690 O.3       2   A17      -0.6139
     44 C1'         5.5380   18.6410    7.1800 C.3       2   A17       0.0394
     45 N9          5.1290   17.2290    7.1380 N.ar      2   A17      -0.0251
     46 C8          5.7090   16.2140    6.4210 C.ar      2   A17       0.2006
     47 N7          5.1290   15.0470    6.5740 N.ar      2   A17      -0.6073
     48 C5          4.0920   15.3100    7.4540 C.ar      2   A17       0.0515
     49 C6          3.0950   14.4870    8.0240 C.ar      2   A17       0.7009
     50 N6          2.9920   13.1800    7.7690 N.pl3     2   A17      -0.9019
     51 N1          2.2060   15.0570    8.8670 N.ar      2   A17      -0.7615
     52 C2          2.3130   16.3680    9.1250 C.ar      2   A17       0.5875
     53 N3          3.2030   17.2430    8.6490 N.ar      2   A17      -0.6997
     54 C4          4.0760   16.6480    7.8140 C.ar      2   A17       0.3053
     55 H5'         8.3226   19.0773    4.3332 H         2   A17       0.0679
     56 H5''        9.6061   18.9958    5.5625 H         2   A17       0.0679
     57 H4'         7.7535   20.3858    6.3624 H         2   A17       0.1174
     58 H3'         8.0252   17.6864    7.7245 H         2   A17       0.0615
     59 H2'         6.2566   18.3181    9.1975 H         2   A17       0.0972
     60 H1'         4.6436   19.2628    7.2180 H         2   A17       0.2007
     61 H8          6.5692   16.3624    5.7851 H         2   A17       0.1553
     62 H2          1.5814   16.7710    9.8097 H         2   A17       0.0473
     63 H61         2.0814   12.9329    8.1293 H         2   A17       0.4115
     64 H62         3.6678   12.5784    7.3201 H         2   A17       0.4115
     65 HO2'        6.8000   20.5442    9.5130 H         2   A17       0.4186
     66 P           9.9240   18.6320    9.3250 P.3       3   C18       1.1662
     67 OP1        11.1720   19.4290    9.3610 O.co2     3   C18      -0.7760
     68 OP2         9.9770   17.2160    8.8730 O.co2     3   C18      -0.7760
     69 O5'         9.2300   18.6940   10.7640 O.3       3   C18      -0.4989
     70 C5'         8.5450   17.5610   11.2460 C.3       3   C18       0.0558
     71 C4'         7.4090   17.9750   12.1520 C.3       3   C18       0.1065
     72 O4'         6.1590   17.8520   11.4330 O.3       3   C18      -0.3548
     73 C3'         7.2660   17.0650   13.3590 C.3       3   C18       0.2022
     74 O3'         8.0300   17.5800   14.4400 O.3       3   C18      -0.5246
     75 C2'         5.7610   17.0830   13.6150 C.3       3   C18       0.0670
     76 O2'         5.3360   18.2180   14.3410 O.3       3   C18      -0.6139
     77 C1'         5.2280   17.0980   12.1840 C.3       3   C18       0.0066
     78 N1          5.1030   15.7200   11.5910 N.am      3   C18      -0.0484
     79 C2          4.0610   14.8780   12.0130 C.2       3   C18       0.7538
     80 O2          3.2510   15.2830   12.8630 O.2       3   C18      -0.6252
     81 N3          3.9700   13.6330   11.4680 N.2       3   C18      -0.7584
     82 C4          4.8570   13.2200   10.5550 C.2       3   C18       0.8185
     83 N4          4.7210   11.9890   10.0560 N.pl3     3   C18      -0.9530
     84 C5          5.9270   14.0540   10.1120 C.2       3   C18      -0.5215
     85 C6          6.0020   15.2760   10.6510 C.2       3   C18       0.0053
     86 H5'         8.1443   16.9986   10.4026 H         3   C18       0.0679
     87 H5''        9.2384   16.9305   11.8026 H         3   C18       0.0679
     88 H4'         7.5503   19.0054   12.4781 H         3   C18       0.1174
     89 H3'         7.5947   16.0556   13.1117 H         3   C18       0.0615
     90 H2'         5.4525   16.1701   14.1245 H         3   C18       0.0972
     91 H1'         4.2571   17.5929   12.1625 H         3   C18       0.2029
     92 H5          6.6418   13.7148    9.3769 H         3   C18       0.1928
     93 H6          6.7965   15.9366   10.3366 H         3   C18       0.1958
     94 H41         3.9642   11.3980   10.3690 H         3   C18       0.4234
     95 H42         5.3750   11.6489    9.3655 H         3   C18       0.4234
     96 HO2'        5.6873   18.1776   15.2335 H         3   C18       0.4186
     97 P           8.8590   16.5770   15.3690 P.3       4   A19       1.1662
     98 OP1         9.5910   17.3950   16.3640 O.co2     4   A19      -0.7760
     99 OP2         9.5840   15.6100   14.5090 O.co2     4   A19      -0.7760
    100 O5'         7.6930   15.7850   16.1270 O.3       4   A19      -0.4989
    101 C5'         6.9090   16.4360   17.1260 C.3       4   A19       0.0558
    102 C4'         5.8470   15.4800   17.6240 C.3       4   A19       0.1065
    103 O4'         4.9890   15.0960   16.5180 O.3       4   A19      -0.3548
    104 C3'         6.3770   14.1480   18.1320 C.3       4   A19       0.2022
    105 O3'         6.8740   14.2570   19.4590 O.3       4   A19      -0.5246
    106 C2'         5.1290   13.2770   18.0390 C.3       4   A19       0.0670
    107 O2'         4.2230   13.4640   19.1150 O.3       4   A19      -0.6139
    108 C1'         4.5330   13.7730   16.7240 C.3       4   A19       0.0394
    109 N9          4.9050   12.9480   15.5740 N.ar      4   A19      -0.0251
    110 C8          5.8250   13.2270   14.5980 C.ar      4   A19       0.2006
    111 N7          5.9320   12.2810   13.6920 N.ar      4   A19      -0.6073
    112 C5          5.0210   11.3160   14.0980 C.ar      4   A19       0.0515
    113 C6          4.6400   10.0600   13.5720 C.ar      4   A19       0.7009
    114 N6          5.1540    9.5210   12.4590 N.pl3     4   A19      -0.9019
    115 N1          3.6970    9.3540   14.2370 N.ar      4   A19      -0.7615
    116 C2          3.1690    9.8650   15.3560 C.ar      4   A19       0.5875
    117 N3          3.4450   11.0310   15.9410 N.ar      4   A19      -0.6997
    118 C4          4.3840   11.7130   15.2590 C.ar      4   A19       0.3053
    119 H5'         7.5499   16.7337   17.9559 H         4   A19       0.0679
    120 H5''        6.4333   17.3185   16.6982 H         4   A19       0.0679
    121 H4'         5.2533   15.9611   18.4013 H         4   A19       0.1174
    122 H3'         7.1532   13.7703   17.4664 H         4   A19       0.0615
    123 H2'         5.4063   12.2261   17.9562 H         4   A19       0.0972
    124 H1'         3.4466   13.7848   16.8121 H         4   A19       0.2007
    125 H8          6.4064   14.1368   14.5753 H         4   A19       0.1553
    126 H2          2.4250    9.2555   15.8473 H         4   A19       0.0473
    127 HO2'        3.9566   12.6094   19.4618 H         4   A19       0.4186
    128 H61         4.5599    8.8214   12.0374 H         4   A19       0.4115
    129 H62         6.0502    9.7885   12.0776 H         4   A19       0.4115
    130 P           8.1510   13.3930   19.8990 P.3       5   U20       1.1662
    131 OP1         8.5710   13.8440   21.2460 O.co2     5   U20      -0.7760
    132 OP2         9.1180   13.4130   18.7780 O.co2     5   U20      -0.7760
    133 O5'         7.5550   11.9230   20.0470 O.3       5   U20      -0.4989
    134 C5'         6.5550   11.6510   21.0300 C.3       5   U20       0.0558
    135 C4'         5.9450   10.2940   20.7600 C.3       5   U20       0.1065
    136 O4'         5.3680   10.2600   19.4330 O.3       5   U20      -0.3548
    137 C3'         6.9470    9.1570   20.6880 C.3       5   U20       0.2022
    138 O3'         7.3830    8.8000   21.9740 O.3       5   U20      -0.5246
    139 C2'         6.0990    8.0820   20.0200 C.3       5   U20       0.0670
    140 O2'         5.1760    7.4600   20.8970 O.3       5   U20      -0.6139
    141 C1'         5.3900    8.9240   18.9600 C.3       5   U20       0.0674
    142 N1          6.0630    8.8610   17.6170 N.am      5   U20       0.0418
    143 C2          5.8070    7.7690   16.8090 C.2       5   U20       0.4687
    144 O2          5.0700    6.8510   17.1220 O.2       5   U20      -0.5477
    145 N3          6.4600    7.7740   15.6020 N.am      5   U20      -0.3549
    146 C4          7.3230    8.7490   15.1240 C.2       5   U20       0.5952
    147 O4          7.8190    8.6020   14.0160 O.2       5   U20      -0.5761
    148 C5          7.5490    9.8610   16.0180 C.2       5   U20      -0.3635
    149 C6          6.9220    9.8720   17.2060 C.2       5   U20      -0.1126
    150 H5'         5.7792   12.4151   20.9811 H         5   U20       0.0679
    151 H5''        7.0083   11.6555   22.0213 H         5   U20       0.0679
    152 H4'         5.1812   10.0725   21.5055 H         5   U20       0.1174
    153 H3'         7.7927    9.4284   20.0561 H         5   U20       0.0615
    154 H2'         6.7365    7.3347   19.5474 H         5   U20       0.0972
    155 H1'         4.3643    8.5699   18.8570 H         5   U20       0.1824
    156 H3          6.2944    6.9826   14.9967 H         5   U20       0.3154
    157 H5          8.2093   10.6680   15.7367 H         5   U20       0.1811
    158 H6          7.0937   10.7049   17.8718 H         5   U20       0.2188
    159 HO2'        5.6530    6.9406   21.5484 H         5   U20       0.4186
    160 P           8.8890    8.3060   22.1950 P.3       6   A21       1.1662
    161 OP1         9.0140    8.0250   23.6370 O.co2     6   A21      -0.7760
    162 OP2         9.8140    9.2560   21.5320 O.co2     6   A21      -0.7760
    163 O5'         8.9270    6.9440   21.3720 O.3       6   A21      -0.4989
    164 C5'         8.3250    5.7640   21.8810 C.3       6   A21       0.0558
    165 C4'         8.4060    4.6620   20.8450 C.3       6   A21       0.1065
    166 O4'         7.8040    5.0960   19.6050 O.3       6   A21      -0.3548
    167 C3'         9.8130    4.2860   20.3970 C.3       6   A21       0.2022
    168 O3'        10.5020    3.5310   21.3980 O.3       6   A21      -0.5246
    169 C2'         9.4930    3.4880   19.1300 C.3       6   A21       0.0670
    170 O2'         9.1270    2.1440   19.3650 O.3       6   A21      -0.6139
    171 C1'         8.3000    4.2690   18.5680 C.3       6   A21       0.0394
    172 N9          8.7050    5.0720   17.4230 N.ar      6   A21      -0.0251
    173 C8          9.1820    6.3450   17.4010 C.ar      6   A21       0.2006
    174 N7          9.4940    6.7700   16.2010 N.ar      6   A21      -0.6073
    175 C5          9.2040    5.6960   15.3810 C.ar      6   A21       0.0515
    176 C6          9.3120    5.4820   13.9840 C.ar      6   A21       0.7009
    177 N6          9.7530    6.4060   13.1250 N.pl3     6   A21      -0.9019
    178 N1          8.9400    4.2730   13.5000 N.ar      6   A21      -0.7615
    179 C2          8.4950    3.3310   14.3450 C.ar      6   A21       0.5875
    180 N3          8.3450    3.4160   15.6720 N.ar      6   A21      -0.6997
    181 C4          8.7230    4.6330   16.1240 C.ar      6   A21       0.3053
    182 H5'         8.8484    5.4510   22.7844 H         6   A21       0.0679
    183 H5''        7.2798    5.9631   22.1179 H         6   A21       0.0679
    184 H4'         7.8894    3.7753   21.2123 H         6   A21       0.1174
    185 H3'        10.3799    5.1821   20.1445 H         6   A21       0.0615
    186 H2'        10.3321    3.5330   18.4358 H         6   A21       0.0972
    187 H1'         7.5226    3.5692   18.2613 H         6   A21       0.2007
    188 H8          9.2934    6.9494   18.2891 H         6   A21       0.1553
    189 H2          8.2239    2.3857   13.8985 H         6   A21       0.0473
    190 HO2'        9.9002    1.6442   19.6368 H         6   A21       0.4186
    191 H61         9.4038    6.2178   12.1962 H         6   A21       0.4115
    192 H62        10.3507    7.1824   13.3700 H         6   A21       0.4115
    193 P          11.7790    4.1280   22.1660 P.3       7   U22       1.1662
    194 OP1        12.1470    3.0710   23.1180 O.co2     7   U22      -0.7760
    195 OP2        11.5400    5.5150   22.6290 O.co2     7   U22      -0.7760
    196 O5'        12.8990    4.1560   21.0080 O.3       7   U22      -0.4989
    197 C5'        13.9510    5.1390   20.9510 C.3       7   U22       0.0558
    198 C4'        14.4540    5.2950   19.5190 C.3       7   U22       0.1065
    199 O4'        14.8730    4.0030   19.0100 O.3       7   U22      -0.3548
    200 C3'        13.4240    5.8160   18.5160 C.3       7   U22       0.2022
    201 O3'        14.0400    6.5890   17.5030 O.3       7   U22      -0.5246
    202 C2'        12.8660    4.5390   17.9110 C.3       7   U22       0.0670
    203 O2'        12.3450    4.7200   16.6140 O.3       7   U22      -0.6139
    204 C1'        14.1240    3.6730   17.8490 C.3       7   U22       0.0674
    205 N1         13.7750    2.2350   17.7950 N.am      7   U22       0.0418
    206 C2         13.9280    1.5360   16.5980 C.2       7   U22       0.4687
    207 O2         14.3650    2.0430   15.5750 O.2       7   U22      -0.5477
    208 N3         13.5600    0.2120   16.6500 N.am      7   U22      -0.3549
    209 C4         13.0610   -0.4560   17.7480 C.2       7   U22       0.5952
    210 O4         12.7720   -1.6330   17.6570 O.2       7   U22      -0.5761
    211 C5         12.9220    0.3270   18.9480 C.2       7   U22      -0.3635
    212 C6         13.2720    1.6130   18.9260 C.2       7   U22      -0.1126
    213 H5'        14.7755    4.8203   21.5887 H         7   U22       0.0679
    214 H5''       13.5697    6.0965   21.3058 H         7   U22       0.0679
    215 H4'        15.3127    5.9664   19.5203 H         7   U22       0.1174
    216 H3'        12.6416    6.3840   19.0192 H         7   U22       0.0615
    217 H2'        12.1205    4.0924   18.5689 H         7   U22       0.0972
    218 H1'        14.6997    3.9373   16.9620 H         7   U22       0.1824
    219 H3         13.6657   -0.3237   15.8003 H         7   U22       0.3154
    220 H5         12.5396   -0.1211   19.8532 H         7   U22       0.1811
    221 H6         13.1586    2.1950   19.8287 H         7   U22       0.2188
    222 HO2'       11.5555    5.2643   16.6589 H         7   U22       0.4186
    223 P          14.4610    8.1080   17.6860 P.3       8   A23       1.1662
    224 OP1        13.7290    8.6720   18.8550 O.co2     8   A23      -0.7760
    225 OP2        14.2980    8.7220   16.3500 O.co2     8   A23      -0.7760
    226 O5'        16.0060    8.0560   18.0700 O.3       8   A23      -0.4989
    227 C5'        16.9820    7.5110   17.1750 C.3       8   A23       0.0558
    228 C4'        18.1820    7.0270   17.9600 C.3       8   A23       0.1065
    229 O4'        17.7190    6.2980   19.1080 O.3       8   A23      -0.3548
    230 C3'        19.0470    5.9790   17.2640 C.3       8   A23       0.2022
    231 O3'        19.9060    6.5740   16.3240 O.3       8   A23      -0.5246
    232 C2'        19.8060    5.3560   18.4340 C.3       8   A23       0.0670
    233 O2'        20.9890    6.0530   18.7700 O.3       8   A23      -0.6139
    234 C1'        18.7670    5.4610   19.5530 C.3       8   A23       0.0394
    235 N9         18.2000    4.1800   19.9280 N.ar      8   A23      -0.0251
    236 C8         17.9630    3.7750   21.2140 C.ar      8   A23       0.2006
    237 N7         17.4580    2.5810   21.3080 N.ar      8   A23      -0.6073
    238 C5         17.3500    2.1600   19.9860 C.ar      8   A23       0.0515
    239 C6         16.8760    0.9630   19.4130 C.ar      8   A23       0.7009
    240 N6         16.4130   -0.0690   20.1240 N.pl3     8   A23      -0.9019
    241 N1         16.9130    0.8540   18.0630 N.ar      8   A23      -0.7615
    242 C2         17.3770    1.8880   17.3390 C.ar      8   A23       0.5875
    243 N3         17.8430    3.0600   17.7720 N.ar      8   A23      -0.6997
    244 C4         17.8070    3.1350   19.1190 C.ar      8   A23       0.3053
    245 H5'        17.2969    8.2808   16.4705 H         8   A23       0.0679
    246 H5''       16.5456    6.6754   16.6278 H         8   A23       0.0679
    247 H4'        18.7938    7.8732   18.2727 H         8   A23       0.1174
    248 H3'        18.4184    5.2311   16.7807 H         8   A23       0.0615
    249 H2'        20.0306    4.3102   18.2243 H         8   A23       0.0972
    250 H1'        19.2335    5.9122   20.4287 H         8   A23       0.2007
    251 H8         18.1766    4.3926   22.0739 H         8   A23       0.1553
    252 H2         17.3715    1.7514   16.2677 H         8   A23       0.0473
    253 H61        16.3206   -1.0205   19.7982 H         8   A23       0.4115
    254 H62        15.9593   -0.2535   21.0073 H         8   A23       0.4115
    255 HO2'       21.6231    5.9720   18.0538 H         8   A23       0.4186
    256 P          19.6910    6.4010   14.7400 P.3       9   A24       1.1662
    257 OP1        20.5310    7.4120   14.0670 O.co2     9   A24      -0.7760
    258 OP2        18.2420    6.3670   14.4310 O.co2     9   A24      -0.7760
    259 O5'        20.2880    4.9420   14.4430 O.3       9   A24      -0.4989
    260 C5'        19.5940    3.7800   14.8320 C.3       9   A24       0.0558
    261 C4'        19.4450    2.8320   13.6710 C.3       9   A24       0.1065
    262 O4'        18.5480    3.4660   12.7650 O.3       9   A24      -0.3548
    263 C3'        20.6880    2.5920   12.8300 C.3       9   A24       0.2022
    264 O3'        21.4670    1.5870   13.4470 O.3       9   A24      -0.5246
    265 C2'        20.0390    2.0830   11.5400 C.3       9   A24       0.0670
    266 O2'        19.6100    0.7490   11.6550 O.3       9   A24      -0.6139
    267 C1'        18.8090    2.9710   11.4690 C.3       9   A24       0.0394
    268 N9         18.9190    4.1400   10.6110 N.ar      9   A24      -0.0251
    269 C8         18.9170    5.4720   10.9660 C.ar      9   A24       0.2006
    270 N7         18.9800    6.3050    9.9500 N.ar      9   A24      -0.6073
    271 C5         19.0280    5.4420    8.8570 C.ar      9   A24       0.0515
    272 C6         19.1130    5.6750    7.4670 C.ar      9   A24       0.7009
    273 N6         19.1430    6.9030    6.9530 N.pl3     9   A24      -0.9019
    274 N1         19.1330    4.6010    6.6430 N.ar      9   A24      -0.7615
    275 C2         19.0750    3.3760    7.1740 C.ar      9   A24       0.5875
    276 N3         19.0130    3.0230    8.4600 N.ar      9   A24      -0.6997
    277 C4         18.9880    4.1170    9.2470 C.ar      9   A24       0.3053
    278 H5'        18.6047    4.0593   15.1944 H         9   A24       0.0679
    279 H5''       20.1433    3.2844   15.6325 H         9   A24       0.0679
    280 H4'        19.0301    1.8828   14.0101 H         9   A24       0.1174
    281 H3'        21.2558    3.5083   12.6684 H         9   A24       0.0615
    282 H2'        20.6899    2.2249   10.6773 H         9   A24       0.0972
    283 H1'        17.9592    2.3717   11.1421 H         9   A24       0.2007
    284 H8         18.8678    5.8039   11.9926 H         9   A24       0.1553
    285 H2         19.0788    2.5603    6.4662 H         9   A24       0.0473
    286 H61        19.1164    7.7069    7.5638 H         9   A24       0.4115
    287 H62        19.1924    7.0305    5.9523 H         9   A24       0.4115
    288 HO2'       19.1483    0.4914   10.8537 H         9   A24       0.4186
    289 P          23.0110    1.8230   13.8460 P.3      10   U25       1.1662
    290 OP1        23.4100    3.1280   13.2960 O.co2    10   U25      -0.7760
    291 OP2        23.7710    0.6030   13.4590 O.co2    10   U25      -0.7760
    292 O5'        22.9750    1.7220   15.4460 O.3      10   U25      -0.4989
    293 C5'        22.8500    2.8270   16.3240 C.3      10   U25       0.0558
    294 C4'        22.2740    2.3490   17.6490 C.3      10   U25       0.1065
    295 O4'        20.9190    1.9010   17.3970 O.3      10   U25      -0.3548
    296 C3'        22.8970    1.1320   18.3320 C.3      10   U25       0.2022
    297 O3'        24.0610    1.4350   19.1120 O.3      10   U25      -0.5246
    298 C2'        21.7460    0.6860   19.2260 C.3      10   U25       0.0670
    299 O2'        21.5500    1.5390   20.3400 O.3      10   U25      -0.6139
    300 C1'        20.5780    0.8250   18.2520 C.3      10   U25       0.0674
    301 N1         20.2730   -0.4260   17.4730 N.am     10   U25       0.0418
    302 C2         19.7040   -1.5130   18.1270 C.2      10   U25       0.4687
    303 O2         19.4350   -1.5260   19.3190 O.2      10   U25      -0.5477
    304 N3         19.4590   -2.6100   17.3490 N.am     10   U25      -0.3549
    305 C4         19.7050   -2.7480   15.9980 C.2      10   U25       0.5952
    306 O4         19.4320   -3.8010   15.4390 O.2      10   U25      -0.5761
    307 C5         20.2930   -1.5860   15.3780 C.2      10   U25      -0.3635
    308 C6         20.5430   -0.4930   16.1160 C.2      10   U25      -0.1126
    309 H5'        23.8307    3.2720   16.4920 H        10   U25       0.0679
    310 H5''       22.1839    3.5689   15.8835 H        10   U25       0.0679
    311 H4'        22.2514    3.1821   18.3516 H        10   U25       0.1174
    312 H3'        23.1251    0.3609   17.5962 H        10   U25       0.0615
    313 H2'        21.8727   -0.3495   19.5419 H        10   U25       0.0972
    314 H1'        19.6890    1.1034   18.8180 H        10   U25       0.1824
    315 H3         19.0526   -3.4087   17.8149 H        10   U25       0.3154
    316 H5         20.5311   -1.5953   14.3246 H        10   U25       0.1811
    317 H6         20.9730    0.3710   15.6311 H        10   U25       0.2188
    318 HO2'       22.2873    1.4468   20.9479 H        10   U25       0.4186
    319 P          25.1800    0.3100   19.4360 P.3      11   C26       1.1662
    320 OP1        26.4060    1.0260   19.8460 O.co2    11   C26      -0.7760
    321 OP2        25.2680   -0.6210   18.2870 O.co2    11   C26      -0.7760
    322 O5'        24.6150   -0.6020   20.6330 O.3      11   C26      -0.4989
    323 C5'        24.3710   -0.0910   21.9520 C.3      11   C26       0.0558
    324 C4'        23.8550   -1.1820   22.8930 C.3      11   C26       0.1065
    325 O4'        22.5010   -1.5740   22.5370 O.3      11   C26      -0.3548
    326 C3'        24.5960   -2.5090   22.8520 C.3      11   C26       0.2022
    327 O3'        25.8180   -2.4330   23.5630 O.3      11   C26      -0.5246
    328 C2'        23.5710   -3.4320   23.5130 C.3      11   C26       0.0670
    329 O2'        23.4580   -3.2800   24.9250 O.3      11   C26      -0.6139
    330 C1'        22.2990   -2.9550   22.8220 C.3      11   C26       0.0066
    331 N1         22.0780   -3.7270   21.5520 N.am     11   C26      -0.0484
    332 C2         21.5730   -5.0470   21.6080 C.2      11   C26       0.7538
    333 O2         21.2850   -5.5650   22.6990 O.2      11   C26      -0.6252
    334 N3         21.4020   -5.7270   20.4450 N.2      11   C26      -0.7584
    335 C4         21.7200   -5.1650   19.2720 C.2      11   C26       0.8185
    336 N4         21.5270   -5.8900   18.1620 N.pl3    11   C26      -0.9530
    337 C5         22.2450   -3.8430   19.1860 C.2      11   C26      -0.5215
    338 C6         22.4080   -3.1690   20.3380 C.2      11   C26       0.0053
    339 H5'        25.3015    0.3108   22.3532 H        11   C26       0.0679
    340 H5''       23.6326    0.7087   21.8940 H        11   C26       0.0679
    341 H4'        23.8593   -0.8027   23.9149 H        11   C26       0.1174
    342 H3'        24.7738   -2.8141   21.8208 H        11   C26       0.0615
    343 H2'        23.7753   -4.4718   23.2577 H        11   C26       0.0972
    344 H1'        21.4442   -3.0778   23.4871 H        11   C26       0.2029
    345 H5         22.5014   -3.4007   18.2347 H        11   C26       0.1928
    346 H6         22.8074   -2.1659   20.3100 H        11   C26       0.1958
    347 H41        21.1541   -6.8263   18.2288 H        11   C26       0.4234
    348 H42        21.7544   -5.5003   17.2584 H        11   C26       0.4234
    349 HO2'       22.7159   -3.7986   25.2443 H        11   C26       0.4186
    350 P          27.0630   -3.3360   23.0880 P.3      12   G27       1.1662
    351 OP1        28.1830   -2.9910   23.9880 O.co2    12   G27      -0.7760
    352 OP2        27.2070   -3.2640   21.6130 O.co2    12   G27      -0.7760
    353 O5'        26.5160   -4.8150   23.3440 O.3      12   G27      -0.4989
    354 C5'        26.2920   -5.2520   24.6660 C.3      12   G27       0.0558
    355 C4'        25.8130   -6.6890   24.6300 C.3      12   G27       0.1065
    356 O4'        24.5490   -6.8130   23.9290 O.3      12   G27      -0.3548
    357 C3'        26.7340   -7.6210   23.8580 C.3      12   G27       0.2022
    358 O3'        27.8800   -7.9290   24.6170 O.3      12   G27      -0.5246
    359 C2'        25.8120   -8.8210   23.7050 C.3      12   G27       0.0670
    360 O2'        25.7260   -9.6250   24.8810 O.3      12   G27      -0.6139
    361 C1'        24.5080   -8.1120   23.3370 C.3      12   G27       0.0191
    362 N9         24.3470   -7.9990   21.8810 N.ar     12   G27       0.0492
    363 C8         24.5990   -6.9140   21.0730 C.ar     12   G27       0.1374
    364 N7         24.3540   -7.1480   19.8110 N.ar     12   G27      -0.5709
    365 C5         23.9350   -8.4720   19.7610 C.ar     12   G27       0.1744
    366 C6         23.5270   -9.2880   18.6600 C.2      12   G27       0.4770
    367 O6         23.4590   -8.9920   17.4480 O.2      12   G27      -0.5597
    368 N1         23.1910  -10.5840   19.0710 N.am     12   G27      -0.4787
    369 C2         23.2120  -11.0280   20.3720 C.2      12   G27       0.7657
    370 N2         22.8300  -12.2930   20.5820 N.pl3    12   G27      -0.9672
    371 N3         23.5740  -10.2650   21.4080 N.2      12   G27      -0.6323
    372 C4         23.9250   -9.0100   21.0330 C.ar     12   G27       0.1222
    373 H5'        25.5342   -4.6249   25.1357 H        12   G27       0.0679
    374 H5''       27.2205   -5.1903   25.2336 H        12   G27       0.0679
    375 H4'        25.6984   -7.0572   25.6495 H        12   G27       0.1174
    376 H3'        27.0017   -7.2005   22.8886 H        12   G27       0.0615
    377 H2'        26.1446   -9.4333   22.8668 H        12   G27       0.0972
    378 H1'        23.6669   -8.6690   23.7497 H        12   G27       0.2006
    379 H8         24.9619   -5.9667   21.4437 H        12   G27       0.1640
    380 H1         22.9121  -11.2423   18.3576 H        12   G27       0.3424
    381 H21        22.5504  -12.8720   19.8031 H        12   G27       0.4364
    382 H22        22.8213  -12.6689   21.5194 H        12   G27       0.4364
    383 HO2'       25.1324  -10.3626   24.7222 H        12   G27       0.4186
    384 P          29.2470   -8.3790   23.9300 P.3      13   C28       1.1662
    385 OP1        30.1940   -8.6280   25.0570 O.co2    13   C28      -0.7760
    386 OP2        29.6210   -7.4170   22.8540 O.co2    13   C28      -0.7760
    387 O5'        28.7790   -9.7760   23.3030 O.3      13   C28      -0.4989
    388 C5'        29.4000  -10.3180   22.1830 C.3      13   C28       0.0558
    389 C4'        28.6860  -11.6270   21.9440 C.3      13   C28       0.1065
    390 O4'        27.2700  -11.4210   21.6200 O.3      13   C28      -0.3548
    391 C3'        29.1890  -12.4290   20.7660 C.3      13   C28       0.2022
    392 O3'        30.3060  -13.1410   21.1690 O.3      13   C28      -0.5246
    393 C2'        27.9700  -13.3090   20.5060 C.3      13   C28       0.0670
    394 O2'        27.7520  -14.3240   21.4810 O.3      13   C28      -0.6139
    395 C1'        26.8450  -12.2830   20.5830 C.3      13   C28       0.0066
    396 N1         26.6490  -11.5060   19.2910 N.am     13   C28      -0.0484
    397 C2         26.0720  -12.1670   18.1900 C.2      13   C28       0.7538
    398 O2         25.7180  -13.3490   18.3240 O.2      13   C28      -0.6252
    399 N3         25.8980  -11.4880   17.0150 N.2      13   C28      -0.7584
    400 C4         26.2900  -10.2170   16.9120 C.2      13   C28       0.8185
    401 N4         26.1060   -9.5940   15.7510 N.pl3    13   C28      -0.9530
    402 C5         26.8830   -9.5210   18.0170 C.2      13   C28      -0.5215
    403 C6         27.0420  -10.2010   19.1730 C.2      13   C28       0.0053
    404 H5'        30.4593  -10.4878   22.3756 H        13   C28       0.0679
    405 H5''       29.2738   -9.6575   21.3252 H        13   C28       0.0679
    406 H4'        28.7574  -12.2380   22.8438 H        13   C28       0.1174
    407 H3'        29.4096  -11.7891   19.9117 H        13   C28       0.0615
    408 H2'        28.0206  -13.7443   19.5080 H        13   C28       0.0972
    409 H1'        25.9138  -12.7736   20.8662 H        13   C28       0.2029
    410 H5         27.1914   -8.4898   17.9278 H        13   C28       0.1928
    411 H6         27.4886   -9.7043   20.0217 H        13   C28       0.1958
    412 H41        25.6839  -10.0849   14.9758 H        13   C28       0.4234
    413 H42        26.3885   -8.6301   15.6448 H        13   C28       0.4234
    414 HO2'       26.9118  -14.7560   21.3105 H        13   C28       0.4186
    415 P          31.4240  -13.5700   20.1360 P.3      14   G29       1.1662
    416 OP1        32.6540  -14.0320   20.7860 O.co2    14   G29      -0.7760
    417 OP2        31.5750  -12.5170   19.0920 O.co2    14   G29      -0.7760
    418 O5'        30.7170  -14.7700   19.3650 O.3      14   G29      -0.4989
    419 C5'        30.3680  -15.9920   20.0550 C.3      14   G29       0.0558
    420 C4'        29.7400  -16.9340   19.0480 C.3      14   G29       0.1065
    421 O4'        28.4980  -16.3540   18.5820 O.3      14   G29      -0.3548
    422 C3'        30.5410  -17.1700   17.7730 C.3      14   G29       0.2022
    423 O3'        31.5450  -18.1470   17.9810 O.3      14   G29      -0.5246
    424 C2'        29.4400  -17.6400   16.8330 C.3      14   G29       0.0670
    425 O2'        28.9420  -18.9340   17.1320 O.3      14   G29      -0.6139
    426 C1'        28.3620  -16.6390   17.1930 C.3      14   G29       0.0191
    427 N9         28.3790  -15.3700   16.4480 N.ar     14   G29       0.0492
    428 C8         28.7590  -14.1270   16.8710 C.ar     14   G29       0.1374
    429 N7         28.6060  -13.2080   15.9480 N.ar     14   G29      -0.5709
    430 C5         28.0790  -13.8850   14.8640 C.ar     14   G29       0.1744
    431 C6         27.7040  -13.4180   13.5790 C.2      14   G29       0.4770
    432 O6         27.7660  -12.2550   13.1400 O.2      14   G29      -0.5597
    433 N1         27.2230  -14.4460   12.7630 N.am     14   G29      -0.4787
    434 C2         27.0930  -15.7670   13.1530 C.2      14   G29       0.7657
    435 N2         26.5920  -16.6360   12.2380 N.pl3    14   G29      -0.9672
    436 N3         27.4370  -16.2060   14.3700 N.2      14   G29      -0.6323
    437 C4         27.9240  -15.2150   15.1600 C.ar     14   G29       0.1222
    438 H5'        29.6575  -15.7763   20.8530 H        14   G29       0.0679
    439 H5''       31.2654  -16.4468   20.4744 H        14   G29       0.0679
    440 H4'        29.5343  -17.8909   19.5278 H        14   G29       0.1174
    441 H3'        30.9794  -16.2380   17.4162 H        14   G29       0.0615
    442 H2'        29.7377  -17.5539   15.7880 H        14   G29       0.0972
    443 H1'        27.3927  -17.1122   17.0364 H        14   G29       0.2006
    444 H8         29.1440  -13.9235   17.8593 H        14   G29       0.1640
    445 H1         26.9506  -14.2070   11.8202 H        14   G29       0.3424
    446 H21        26.3322  -16.3075   11.3189 H        14   G29       0.4364
    447 H22        26.4791  -17.6109   12.4764 H        14   G29       0.4364
    448 HO2'       29.6064  -19.5915   16.9132 H        14   G29       0.4186
    449 P          33.0190  -17.9850   17.4270 P.3      15   U30       1.1662
    450 OP1        33.8430  -19.0110   18.0890 O.co2    15   U30      -0.7760
    451 OP2        33.4590  -16.5710   17.4490 O.co2    15   U30      -0.7760
    452 O5'        32.8350  -18.3770   15.8750 O.3      15   U30      -0.4989
    453 C5'        32.5730  -19.7260   15.4790 C.3      15   U30       0.0558
    454 C4'        32.1920  -19.7080   14.0130 C.3      15   U30       0.1065
    455 O4'        30.9420  -19.0190   13.8250 O.3      15   U30      -0.3548
    456 C3'        33.1660  -18.9790   13.1070 C.3      15   U30       0.2022
    457 O3'        34.3790  -19.6910   12.8510 O.3      15   U30      -0.5246
    458 C2'        32.2680  -18.7970   11.8920 C.3      15   U30       0.0670
    459 O2'        32.0840  -20.0060   11.1510 O.3      15   U30      -0.6139
    460 C1'        30.9600  -18.3820   12.5530 C.3      15   U30       0.0674
    461 N1         30.9130  -16.8850   12.7180 N.am     15   U30       0.0418
    462 C2         30.5770  -16.1700   11.5950 C.2      15   U30       0.4687
    463 O2         30.3010  -16.7350   10.5370 O.2      15   U30      -0.5477
    464 N3         30.5600  -14.8020   11.7710 N.am     15   U30      -0.3549
    465 C4         30.8890  -14.1120   12.9320 C.2      15   U30       0.5952
    466 O4         30.8560  -12.8820   12.9580 O.2      15   U30      -0.5761
    467 C5         31.2390  -14.9370   14.0670 C.2      15   U30      -0.3635
    468 C6         31.2390  -16.2670   13.9140 C.2      15   U30      -0.1126
    469 H5'        31.7537  -20.1343   16.0707 H        15   U30       0.0679
    470 H5''       33.4678  -20.3322   15.6201 H        15   U30       0.0679
    471 H4'        32.0853  -20.7348   13.6633 H        15   U30       0.1174
    472 H3'        33.4003  -18.0043   13.5349 H        15   U30       0.0615
    473 H2'        32.6450  -18.0024   11.2481 H        15   U30       0.0972
    474 H1'        30.1143  -18.7192   11.9536 H        15   U30       0.1824
    475 H3         30.2802  -14.2454   10.9760 H        15   U30       0.3154
    476 H5         31.4946  -14.4903   15.0165 H        15   U30       0.1811
    477 H6         31.5046  -16.8845   14.7593 H        15   U30       0.2188
    478 HO2'       32.1839  -19.8256   10.2134 H        15   U30       0.4186
    479 P          35.7390  -18.9290   12.5250 P.3      16   G31       1.1662
    480 OP1        36.8750  -19.8790   12.5490 O.co2    16   G31      -0.7760
    481 OP2        35.8130  -17.7440   13.4310 O.co2    16   G31      -0.7760
    482 O5'        35.5150  -18.3620   11.0580 O.3      16   G31      -0.4989
    483 C5'        35.3770  -19.2810    9.9760 C.3      16   G31       0.0558
    484 C4'        34.8220  -18.5610    8.7670 C.3      16   G31       0.1065
    485 O4'        33.5410  -17.9670    9.1000 O.3      16   G31      -0.3548
    486 C3'        35.6470  -17.3990    8.2190 C.3      16   G31       0.2022
    487 O3'        36.7730  -17.8690    7.4450 O.3      16   G31      -0.5246
    488 C2'        34.5630  -16.7340    7.3810 C.3      16   G31       0.0670
    489 O2'        34.2570  -17.4670    6.2030 O.3      16   G31      -0.6139
    490 C1'        33.3880  -16.7590    8.3670 C.3      16   G31       0.0191
    491 N9         33.4620  -15.6220    9.2980 N.ar     16   G31       0.0492
    492 C8         33.7720  -15.5700   10.6400 C.ar     16   G31       0.1374
    493 N7         33.7650  -14.3500   11.1480 N.ar     16   G31      -0.5709
    494 C5         33.4240  -13.5460   10.0580 C.ar     16   G31       0.1744
    495 C6         33.2610  -12.1410    9.9380 C.2      16   G31       0.4770
    496 O6         33.3590  -11.2550   10.7940 O.2      16   G31      -0.5597
    497 N1         32.9220  -11.7670    8.6370 N.am     16   G31      -0.4787
    498 C2         32.7790  -12.6060    7.5740 C.2      16   G31       0.7657
    499 N2         32.4420  -12.0160    6.3990 N.pl3    16   G31      -0.9672
    500 N3         32.9180  -13.9180    7.6740 N.2      16   G31      -0.6323
    501 C4         33.2440  -14.3150    8.9290 C.ar     16   G31       0.1222
    502 H5'        34.6967  -20.0821   10.2650 H        16   G31       0.0679
    503 H5''       36.3518  -19.7030    9.7315 H        16   G31       0.0679
    504 H4'        34.6713  -19.2875    7.9685 H        16   G31       0.1174
    505 H3'        35.9753  -16.7412    9.0237 H        16   G31       0.0615
    506 H2'        34.8394  -15.7084    7.1363 H        16   G31       0.0972
    507 H1'        32.4387  -16.7539    7.8314 H        16   G31       0.2006
    508 H8         34.0005  -16.4487   11.2248 H        16   G31       0.1640
    509 H1         32.7685  -10.7831    8.4682 H        16   G31       0.3424
    510 H21        32.3279  -11.0136    6.3516 H        16   G31       0.4364
    511 H22        32.3053  -12.5794    5.5720 H        16   G31       0.4364
    512 HO2'       34.0842  -16.8567    5.4824 H        16   G31       0.4186
    513 P          38.0540  -16.9580    7.2480 P.3      17   G32       1.1662
    514 OP1        39.0340  -17.7100    6.4100 O.co2    17   G32      -0.7760
    515 OP2        38.5070  -16.3500    8.5310 O.co2    17   G32      -0.7760
    516 O5'        37.4910  -15.7220    6.3770 O.3      17   G32      -0.4989
    517 C5'        36.9530  -15.8890    5.0450 C.3      17   G32       0.0558
    518 C4'        36.5750  -14.5050    4.5260 C.3      17   G32       0.1065
    519 O4'        35.5070  -13.9620    5.3450 O.3      17   G32      -0.3548
    520 C3'        37.6640  -13.4580    4.6790 C.3      17   G32       0.2022
    521 O3'        38.6400  -13.5690    3.6380 O.3      17   G32      -0.5246
    522 C2'        36.8470  -12.1790    4.5570 C.3      17   G32       0.0670
    523 O2'        36.3700  -11.9010    3.2390 O.3      17   G32      -0.6139
    524 C1'        35.6770  -12.5610    5.4520 C.3      17   G32       0.0191
    525 N9         35.9430  -12.2240    6.8540 N.ar     17   G32       0.0492
    526 C8         36.1980  -13.0990    7.8810 C.ar     17   G32       0.1374
    527 N7         36.3890  -12.5130    9.0230 N.ar     17   G32      -0.5709
    528 C5         36.2380  -11.1580    8.7550 C.ar     17   G32       0.1744
    529 C6         36.3310  -10.0380    9.6250 C.2      17   G32       0.4770
    530 O6         36.5740  -10.0150   10.8420 O.2      17   G32      -0.5597
    531 N1         36.1210   -8.8350    8.9610 N.am     17   G32      -0.4787
    532 C2         35.8560   -8.7450    7.6100 C.2      17   G32       0.7657
    533 N2         35.7040   -7.5210    7.0940 N.pl3    17   G32      -0.9672
    534 N3         35.7550   -9.7950    6.7840 N.2      17   G32      -0.6323
    535 C4         35.9620  -10.9670    7.4220 C.ar     17   G32       0.1222
    536 H5'        37.7034  -16.3381    4.3944 H        17   G32       0.0679
    537 H5''       36.0679  -16.5242    5.0812 H        17   G32       0.0679
    538 H4'        36.2566  -14.5674    3.4854 H        17   G32       0.1174
    539 H3'        38.1335  -13.5267    5.6603 H        17   G32       0.0615
    540 H2'        37.3903  -11.3266    4.9649 H        17   G32       0.0972
    541 H1'        34.7734  -12.0528    5.1153 H        17   G32       0.2006
    542 H8         36.2359  -14.1705    7.7510 H        17   G32       0.1640
    543 H1         36.1648   -7.9800    9.4969 H        17   G32       0.3424
    544 H21        35.7794   -6.7089    7.6897 H        17   G32       0.4364
    545 H22        35.5138   -7.4085    6.1085 H        17   G32       0.4364
    546 HO2'       35.7427  -11.1751    3.2722 H        17   G32       0.4186
    547 P          40.1080  -13.0590    3.8320 P.3      18   A33       1.1662
    548 OP1        40.8580  -13.6100    2.6600 O.co2    18   A33      -0.7760
    549 OP2        40.6350  -13.2790    5.1880 O.co2    18   A33      -0.7760
    550 O5'        40.0140  -11.4650    3.6650 O.3      18   A33      -0.4989
    551 C5'        39.4780  -10.9210    2.4580 C.3      18   A33       0.0558
    552 C4'        39.3570   -9.4140    2.6230 C.3      18   A33       0.1065
    553 O4'        38.4060   -9.0720    3.6710 O.3      18   A33      -0.3548
    554 C3'        40.6200   -8.7000    3.0510 C.3      18   A33       0.2022
    555 O3'        41.5560   -8.5600    1.9660 O.3      18   A33      -0.5246
    556 C2'        40.0400   -7.3570    3.4950 C.3      18   A33       0.0670
    557 O2'        39.6130   -6.5480    2.3990 O.3      18   A33      -0.6139
    558 C1'        38.7950   -7.8280    4.2270 C.3      18   A33       0.0394
    559 N9         38.9390   -7.9740    5.6800 N.ar     18   A33      -0.0251
    560 C8         38.9700   -9.1310    6.4250 C.ar     18   A33       0.2006
    561 N7         39.1010   -8.8960    7.7150 N.ar     18   A33      -0.6073
    562 C5         39.1240   -7.5140    7.8310 C.ar     18   A33       0.0515
    563 C6         39.2270   -6.6280    8.9280 C.ar     18   A33       0.7009
    564 N6         39.3260   -7.0400   10.2040 N.pl3    18   A33      -0.9019
    565 N1         39.2520   -5.2950    8.6630 N.ar     18   A33      -0.7615
    566 C2         39.1500   -4.8770    7.3930 C.ar     18   A33       0.5875
    567 N3         39.0390   -5.6210    6.2880 N.ar     18   A33      -0.6997
    568 C4         39.0340   -6.9290    6.5730 C.ar     18   A33       0.3053
    569 H5'        40.1433  -11.1478    1.6249 H        18   A33       0.0679
    570 H5''       38.4938  -11.3492    2.2682 H        18   A33       0.0679
    571 H4'        39.0124   -8.9844    1.6824 H        18   A33       0.1174
    572 H3'        41.0838   -9.2139    3.8929 H        18   A33       0.0615
    573 H2'        40.7203   -6.8194    4.1555 H        18   A33       0.0972
    574 H1'        37.9984   -7.1087    4.0367 H        18   A33       0.2007
    575 H8         38.8953  -10.1209    5.9997 H        18   A33       0.1553
    576 H2         39.1586   -3.8073    7.2446 H        18   A33       0.0473
    577 HO2'       39.3569   -5.6808    2.7215 H        18   A33       0.4186
    578 H61        39.1583   -6.2676   10.8328 H        18   A33       0.4115
    579 H62        39.5374   -7.9847   10.4920 H        18   A33       0.4115
    580 P          43.1040   -8.6320    2.2640 P.3      19   U34       1.1662
    581 OP1        43.8020   -8.5330    0.9500 O.co2    19   U34      -0.7760
    582 OP2        43.3880   -9.7610    3.2000 O.co2    19   U34      -0.7760
    583 O5'        43.3870   -7.2950    3.0740 O.3      19   U34      -0.4989
    584 C5'        43.1330   -6.0300    2.4550 C.3      19   U34       0.0558
    585 C4'        43.2960   -4.9670    3.5290 C.3      19   U34       0.1065
    586 O4'        42.4140   -5.3070    4.6400 O.3      19   U34      -0.3548
    587 C3'        44.7080   -4.8450    4.0840 C.3      19   U34       0.2022
    588 O3'        45.0410   -3.5010    4.2070 O.3      19   U34      -0.5246
    589 C2'        44.5830   -5.4350    5.4850 C.3      19   U34       0.0670
    590 O2'        45.4810   -4.8950    6.4300 O.3      19   U34      -0.6139
    591 C1'        43.1250   -5.1160    5.8300 C.3      19   U34       0.0674
    592 N1         42.7520   -6.1290    6.8590 N.am     19   U34       0.0418
    593 C2         42.6630   -5.7470    8.1870 C.2      19   U34       0.4687
    594 O2         42.7860   -4.5990    8.5910 O.2      19   U34      -0.5477
    595 N3         42.3810   -6.7980    9.0430 N.am     19   U34      -0.3549
    596 C4         42.2190   -8.1360    8.6910 C.2      19   U34       0.5952
    597 O4         41.9660   -8.9630    9.5650 O.2      19   U34      -0.5761
    598 C5         42.3440   -8.4390    7.2920 C.2      19   U34      -0.3635
    599 C6         42.6230   -7.4410    6.4480 C.2      19   U34      -0.1126
    600 H5'        43.8457   -5.8587    1.6482 H        19   U34       0.0679
    601 H5''       42.1164   -6.0071    2.0624 H        19   U34       0.0679
    602 H4'        42.9930   -4.0030    3.1202 H        19   U34       0.1174
    603 H3'        45.4316   -5.3891    3.4770 H        19   U34       0.0615
    604 H2'        44.7154   -6.5158    5.4360 H        19   U34       0.0972
    605 H1'        43.0136   -4.0993    6.2069 H        19   U34       0.1824
    606 H3         42.2827   -6.5715   10.0224 H        19   U34       0.3154
    607 H5         42.2156   -9.4488    6.9312 H        19   U34       0.1811
    608 H6         42.7530   -7.6702    5.4006 H        19   U34       0.2188
    609 HO2'       46.3770   -4.9529    6.0902 H        19   U34       0.4186
    610 P          46.0740   -2.8270    3.1900 P.3      20   A35       1.1662
    611 OP1        45.7140   -3.2140    1.8120 O.co2    20   A35      -0.7760
    612 OP2        47.4420   -3.0820    3.6720 O.co2    20   A35      -0.7760
    613 O5'        45.7650   -1.2980    3.4830 O.3      20   A35      -0.4989
    614 C5'        44.5710   -0.6680    2.9700 C.3      20   A35       0.0558
    615 C4'        44.7140    0.8210    3.2180 C.3      20   A35       0.1065
    616 O4'        44.6280    1.0680    4.6480 O.3      20   A35      -0.3548
    617 C3'        46.0630    1.3730    2.7690 C.3      20   A35       0.2022
    618 O3'        45.8580    2.6200    2.1540 O.3      20   A35      -0.5246
    619 C2'        46.8530    1.4880    4.0820 C.3      20   A35       0.0670
    620 O2'        47.7930    2.5530    4.0720 O.3      20   A35      -0.6139
    621 C1'        45.7750    1.7280    5.1340 C.3      20   A35       0.0394
    622 N9         46.0950    1.0840    6.4080 N.ar     20   A35      -0.0251
    623 C8         45.8470   -0.2180    6.7430 C.ar     20   A35       0.2006
    624 N7         46.2510   -0.5500    7.9530 N.ar     20   A35      -0.6073
    625 C5         46.8210    0.6130    8.4340 C.ar     20   A35       0.0515
    626 C6         47.4410    0.9350    9.6630 C.ar     20   A35       0.7009
    627 N6         47.5960    0.0560   10.6710 N.pl3    20   A35      -0.9019
    628 N1         47.8920    2.2000    9.8130 N.ar     20   A35      -0.7615
    629 C2         47.7390    3.0890    8.8170 C.ar     20   A35       0.5875
    630 N3         47.1670    2.8960    7.6190 N.ar     20   A35      -0.6997
    631 C4         46.7340    1.6330    7.4950 C.ar     20   A35       0.3053
    632 H5'        44.4751   -0.8619    1.9017 H        20   A35       0.0679
    633 H5''       43.6956   -1.0490    3.4960 H        20   A35       0.0679
    634 H4'        43.9129    1.3547    2.7067 H        20   A35       0.1174
    635 H3'        46.5533    0.6815    2.0838 H        20   A35       0.0615
    636 H2'        47.3645    0.5476    4.2872 H        20   A35       0.0972
    637 H1'        45.5877    2.7933    5.2685 H        20   A35       0.2007
    638 H8         45.3622   -0.9140    6.0744 H        20   A35       0.1553
    639 H2         48.1238    4.0807    9.0039 H        20   A35       0.0473
    640 H61        47.0373   -0.7731   10.5276 H        20   A35       0.4115
    641 H62        48.1954    0.2067   11.4698 H        20   A35       0.4115
    642 HO2'       48.1266    2.6770    3.1804 H        20   A35       0.4186
    643 P          45.8900    2.7330    0.5570 P.3      21   U36       1.1662
    644 OP1        47.1110    2.0820    0.0630 O.co2    21   U36      -0.7760
    645 OP2        45.6070    4.1730    0.2650 O.co2    21   U36      -0.7760
    646 O5'        44.6470    1.8710    0.0940 O.3      21   U36      -0.4989
    647 C5'        43.3450    2.4420   -0.1020 C.3      21   U36       0.0558
    648 C4'        42.6170    1.6500   -1.1740 C.3      21   U36       0.1065
    649 O4'        43.4160    1.6290   -2.3700 O.3      21   U36      -0.3548
    650 C3'        42.3090    0.1890   -0.8600 C.3      21   U36       0.2022
    651 O3'        41.0790   -0.1370   -1.4880 O.3      21   U36      -0.5246
    652 C2'        43.4460   -0.5510   -1.5580 C.3      21   U36       0.0670
    653 O2'        43.1680   -1.9260   -1.8110 O.3      21   U36      -0.6139
    654 C1'        43.5440    0.2900   -2.8370 C.3      21   U36       0.0674
    655 N1         44.8420    0.1400   -3.5490 N.am     21   U36       0.0418
    656 C2         44.8500   -0.4670   -4.7980 C.2      21   U36       0.4687
    657 O2         43.8440   -0.8640   -5.3430 O.2      21   U36      -0.5477
    658 N3         46.0830   -0.5980   -5.3830 N.am     21   U36      -0.3549
    659 C4         47.2810   -0.1560   -4.8560 C.2      21   U36       0.5952
    660 O4         48.3160   -0.3160   -5.4820 O.2      21   U36      -0.5761
    661 C5         47.2000    0.4600   -3.5560 C.2      21   U36      -0.3635
    662 C6         46.0110    0.5900   -2.9700 C.2      21   U36      -0.1126
    663 H5'        43.4448    3.4802   -0.4186 H        21   U36       0.0679
    664 H5''       42.7824    2.3971    0.8305 H        21   U36       0.0679
    665 H4'        41.6787    2.1577   -1.3975 H        21   U36       0.1174
    666 H3'        42.2881   -0.0060    0.2122 H        21   U36       0.0615
    667 H2'        44.3641   -0.4565   -0.9781 H        21   U36       0.0972
    668 H1'        42.7196    0.0477   -3.5077 H        21   U36       0.1824
    669 H3         46.1187   -1.0595   -6.2807 H        21   U36       0.3154
    670 H5         48.0935    0.8124   -3.0622 H        21   U36       0.1811
    671 H6         45.9597    1.0670   -2.0024 H        21   U36       0.2188
    672 HO2'       43.1181   -2.4013   -0.9784 H        21   U36       0.4186
    673 P          39.6400    0.0520   -0.8560 P.3      22   G37       1.1662
    674 OP1        38.6610   -0.2850   -1.8970 O.co2    22   G37      -0.7760
    675 OP2        39.5890    1.3360   -0.1160 O.co2    22   G37      -0.7760
    676 O5'        39.6450   -1.0910    0.2890 O.3      22   G37      -0.4989
    677 C5'        39.5920   -2.4740   -0.0030 C.3      22   G37       0.0558
    678 C4'        39.4570   -3.2390    1.3170 C.3      22   G37       0.1065
    679 O4'        40.6520   -3.0330    2.0930 O.3      22   G37      -0.3548
    680 C3'        38.3680   -2.7090    2.2390 C.3      22   G37       0.2022
    681 O3'        37.1330   -3.2950    1.9350 O.3      22   G37      -0.5246
    682 C2'        38.8660   -3.1250    3.6180 C.3      22   G37       0.0670
    683 O2'        38.6040   -4.5030    3.8500 O.3      22   G37      -0.6139
    684 C1'        40.3520   -2.8230    3.4690 C.3      22   G37       0.0191
    685 N9         40.7420   -1.4520    3.8310 N.ar     22   G37       0.0492
    686 C8         40.7070   -0.3270    3.0360 C.ar     22   G37       0.1374
    687 N7         41.1210    0.7620    3.6580 N.ar     22   G37      -0.5709
    688 C5         41.4690    0.3220    4.9280 C.ar     22   G37       0.1744
    689 C6         41.9810    1.0460    6.0420 C.2      22   G37       0.4770
    690 O6         42.2400    2.2410    6.1290 O.2      22   G37      -0.5597
    691 N1         42.2150    0.2270    7.1590 N.am     22   G37      -0.4787
    692 C2         41.9580   -1.1140    7.1740 C.2      22   G37       0.7657
    693 N2         42.2230   -1.7300    8.3430 N.pl3    22   G37      -0.9672
    694 N3         41.4690   -1.8170    6.1440 N.2      22   G37      -0.6323
    695 C4         41.2440   -1.0330    5.0490 C.ar     22   G37       0.1222
    696 H5'        40.5058   -2.7782   -0.5134 H        22   G37       0.0679
    697 H5''       38.7306   -2.6823   -0.6376 H        22   G37       0.0679
    698 H4'        39.3077   -4.3017    1.1257 H        22   G37       0.1174
    699 H3'        38.3030   -1.6232    2.1682 H        22   G37       0.0615
    700 H2'        38.4189   -2.5069    4.3966 H        22   G37       0.0972
    701 H1'        40.9232   -3.5289    4.0719 H        22   G37       0.2006
    702 H8         40.3747   -0.3350    2.0084 H        22   G37       0.1640
    703 H1         42.5927    0.6518    7.9939 H        22   G37       0.3424
    704 H21        42.5877   -1.2002    9.1217 H        22   G37       0.4364
    705 H22        42.0569   -2.7215    8.4404 H        22   G37       0.4364
    706 HO2'       38.9589   -4.7571    4.7050 H        22   G37       0.4186
    707 P          35.7630   -2.5160    2.1780 P.3      23   G38       1.1662
    708 OP1        34.6830   -3.3230    1.6060 O.co2    23   G38      -0.7760
    709 OP2        35.9030   -1.0760    1.7880 O.co2    23   G38      -0.7760
    710 O5'        35.6570   -2.5290    3.7810 O.3      23   G38      -0.4989
    711 C5'        35.3420   -3.7480    4.4960 C.3      23   G38       0.0558
    712 C4'        35.5300   -3.4570    5.9850 C.3      23   G38       0.1065
    713 O4'        36.9060   -3.1040    6.1900 O.3      23   G38      -0.3548
    714 C3'        34.7410   -2.2770    6.5320 C.3      23   G38       0.2022
    715 O3'        33.4190   -2.6490    6.8450 O.3      23   G38      -0.5246
    716 C2'        35.5890   -1.9110    7.7520 C.3      23   G38       0.0670
    717 O2'        35.2550   -2.6890    8.9200 O.3      23   G38      -0.6139
    718 C1'        37.0280   -2.1690    7.2330 C.3      23   G38       0.0191
    719 N9         37.5420   -0.8940    6.7420 N.ar     23   G38       0.0492
    720 C8         37.2470   -0.2830    5.5490 C.ar     23   G38       0.1374
    721 N7         37.7690    0.9120    5.4450 N.ar     23   G38      -0.5709
    722 C5         38.4450    1.0970    6.6460 C.ar     23   G38       0.1744
    723 C6         39.1990    2.2030    7.1190 C.2      23   G38       0.4770
    724 O6         39.4130    3.2800    6.5440 O.2      23   G38      -0.5597
    725 N1         39.7010    2.0250    8.4020 N.am     23   G38      -0.4787
    726 C2         39.5180    0.8780    9.1290 C.2      23   G38       0.7657
    727 N2         40.0990    0.8710   10.3350 N.pl3    23   G38      -0.9672
    728 N3         38.8250   -0.1620    8.7020 N.2      23   G38      -0.6323
    729 C4         38.3110   -0.0060    7.4560 C.ar     23   G38       0.1222
    730 H5'        36.0129   -4.5484    4.1839 H        23   G38       0.0679
    731 H5''       34.3083   -4.0345    4.3022 H        23   G38       0.0679
    732 H4'        35.2942   -4.3508    6.5625 H        23   G38       0.1174
    733 H3'        34.7417   -1.4576    5.8132 H        23   G38       0.0615
    734 H2'        35.4674   -0.8509    7.9744 H        23   G38       0.0972
    735 H1'        37.6614   -2.5596    8.0295 H        23   G38       0.2006
    736 H8         36.6467   -0.7409    4.7768 H        23   G38       0.1640
    737 H1         40.2273    2.7789    8.8200 H        23   G38       0.3424
    738 H21        40.6253    1.6747   10.6467 H        23   G38       0.4364
    739 H22        40.0110    0.0620   10.9332 H        23   G38       0.4364
    740 HO2'       34.4660   -2.3273    9.3302 H        23   G38       0.4186
    741 P          32.1180   -1.8220    6.4220 P.3      24   C39       1.1662
    742 OP1        32.5720   -0.5690    5.7700 O.co2    24   C39      -0.7760
    743 OP2        31.1740   -1.8220    7.5530 O.co2    24   C39      -0.7760
    744 O5'        31.4330   -2.6870    5.2500 O.3      24   C39      -0.4989
    745 C5'        30.4890   -3.7150    5.5260 C.3      24   C39       0.0558
    746 C4'        30.8870   -4.9100    4.6770 C.3      24   C39       0.1065
    747 O4'        32.2200   -5.3700    5.0220 O.3      24   C39      -0.3548
    748 C3'        30.0060   -6.1170    4.8650 C.3      24   C39       0.2022
    749 O3'        28.9280   -6.0480    3.9520 O.3      24   C39      -0.5246
    750 C2'        30.9600   -7.2640    4.5440 C.3      24   C39       0.0670
    751 O2'        31.0870   -7.4770    3.1400 O.3      24   C39      -0.6139
    752 C1'        32.2660   -6.7830    5.1480 C.3      24   C39       0.0066
    753 N1         32.4530   -7.2070    6.5930 N.am     24   C39      -0.0484
    754 C2         32.5480   -8.5650    6.8660 C.2      24   C39       0.7538
    755 O2         32.4590   -9.3820    5.9280 O.2      24   C39      -0.6252
    756 N3         32.7070   -8.9590    8.1560 N.2      24   C39      -0.7584
    757 C4         32.7940   -8.0520    9.1390 C.2      24   C39       0.8185
    758 N4         32.9750   -8.4840   10.3990 N.pl3    24   C39      -0.9530
    759 C5         32.7030   -6.6560    8.8760 C.2      24   C39      -0.5215
    760 C6         32.5490   -6.2750    7.5990 C.2      24   C39       0.0053
    761 H5'        29.4847   -3.3839    5.2616 H        24   C39       0.0679
    762 H5''       30.5268   -3.9805    6.5825 H        24   C39       0.0679
    763 H4'        30.8723   -4.6198    3.6264 H        24   C39       0.1174
    764 H3'        29.6460   -6.1829    5.8917 H        24   C39       0.0615
    765 H2'        30.6302   -8.1787    5.0366 H        24   C39       0.0972
    766 H1'        33.0956   -7.1666    4.5541 H        24   C39       0.2029
    767 H5         32.7560   -5.9308    9.6746 H        24   C39       0.1928
    768 H6         32.4998   -5.2233    7.3583 H        24   C39       0.1958
    769 H41        33.0447   -7.8188   11.1558 H        24   C39       0.4234
    770 H42        33.0413   -9.4738   10.5889 H        24   C39       0.4234
    771 HO2'       31.7617   -8.1401    2.9769 H        24   C39       0.4186
    772 P          27.5650   -6.7860    4.2930 P.3      25   A40       1.1662
    773 OP1        26.6020   -6.4260    3.1980 O.co2    25   A40      -0.7760
    774 OP2        27.1700   -6.5780    5.6950 O.co2    25   A40      -0.7760
    775 O5'        28.0030   -8.3200    4.1550 O.3      25   A40      -0.4989
    776 C5'        28.0690   -8.9420    2.8960 C.3      25   A40       0.0558
    777 C4'        28.1180  -10.4590    3.0940 C.3      25   A40       0.1065
    778 O4'        29.2980  -10.8300    3.8330 O.3      25   A40      -0.3548
    779 C3'        26.9970  -11.0550    3.9050 C.3      25   A40       0.2022
    780 O3'        25.7980  -11.1890    3.1640 O.3      25   A40      -0.5246
    781 C2'        27.5730  -12.4120    4.3150 C.3      25   A40       0.0670
    782 O2'        27.6000  -13.2980    3.1950 O.3      25   A40      -0.6139
    783 C1'        28.9630  -11.9350    4.6750 C.3      25   A40       0.0394
    784 N9         29.1450  -11.4530    6.0470 N.ar     25   A40      -0.0251
    785 C8         29.1660  -10.1500    6.5010 C.ar     25   A40       0.2006
    786 N7         29.4050  -10.0450    7.7930 N.ar     25   A40      -0.6073
    787 C5         29.5540  -11.3490    8.2210 C.ar     25   A40       0.0515
    788 C6         29.8160  -11.9290    9.4840 C.ar     25   A40       0.7009
    789 N6         30.0140  -11.2220   10.6170 N.pl3    25   A40      -0.9019
    790 N1         29.9090  -13.2750    9.5170 N.ar     25   A40      -0.7615
    791 C2         29.7260  -14.0120    8.4120 C.ar     25   A40       0.5875
    792 N3         29.4660  -13.5620    7.1760 N.ar     25   A40      -0.6997
    793 C4         29.3940  -12.2310    7.1520 C.ar     25   A40       0.3053
    794 H5'        28.9661   -8.6124    2.3719 H        25   A40       0.0679
    795 H5''       27.1873   -8.6784    2.3119 H        25   A40       0.0679
    796 H4'        28.1449  -10.9429    2.1177 H        25   A40       0.1174
    797 H3'        26.8178  -10.4464    4.7913 H        25   A40       0.0615
    798 H2'        27.0497  -12.8418    5.1691 H        25   A40       0.0972
    799 H1'        29.6702  -12.7437    4.4905 H        25   A40       0.2007
    800 H8         29.0022   -9.2973    5.8587 H        25   A40       0.1553
    801 H2         29.7955  -15.0833    8.5302 H        25   A40       0.0473
    802 H61        30.3190  -11.8210   11.3708 H        25   A40       0.4115
    803 H62        29.8754  -10.2250   10.6999 H        25   A40       0.4115
    804 HO2'       27.9630  -14.1448    3.4649 H        25   A40       0.4186
    805 P          24.3830  -11.1010    3.8450 P.3      26   C41       1.1662
    806 OP1        23.4120  -11.1190    2.7250 O.co2    26   C41      -0.7760
    807 OP2        24.3060  -10.0320    4.8710 O.co2    26   C41      -0.7760
    808 O5'        24.3050  -12.4430    4.7160 O.3      26   C41      -0.4989
    809 C5'        24.2450  -13.6930    4.0420 C.3      26   C41       0.0558
    810 C4'        24.3630  -14.8160    5.0630 C.3      26   C41       0.1065
    811 O4'        25.6850  -14.7980    5.6440 O.3      26   C41      -0.3548
    812 C3'        23.4560  -14.7920    6.2720 C.3      26   C41       0.2022
    813 O3'        22.1300  -15.1990    5.9790 O.3      26   C41      -0.5246
    814 C2'        24.1940  -15.7710    7.1820 C.3      26   C41       0.0670
    815 O2'        24.1620  -17.1140    6.7160 O.3      26   C41      -0.6139
    816 C1'        25.5990  -15.2350    7.0010 C.3      26   C41       0.0066
    817 N1         25.9020  -14.1160    7.9660 N.am     26   C41      -0.0484
    818 C2         26.3160  -14.4640    9.2600 C.2      26   C41       0.7538
    819 O2         26.4010  -15.6660    9.5310 O.2      26   C41      -0.6252
    820 N3         26.5890  -13.4840   10.1720 N.2      26   C41      -0.7584
    821 C4         26.4760  -12.1980    9.8180 C.2      26   C41       0.8185
    822 N4         26.7490  -11.2720   10.7430 N.pl3    26   C41      -0.9530
    823 C5         26.0490  -11.8070    8.5060 C.2      26   C41      -0.5215
    824 C6         25.7700  -12.7890    7.6210 C.2      26   C41       0.0053
    825 H5'        23.2949  -13.7778    3.5146 H        26   C41       0.0679
    826 H5''       25.0657  -13.7619    3.3280 H        26   C41       0.0679
    827 H4'        24.2257  -15.7666    4.5476 H        26   C41       0.1174
    828 H3'        23.4523  -13.7972    6.7174 H        26   C41       0.0615
    829 H2'        23.8605  -15.6929    8.2168 H        26   C41       0.0972
    830 H1'        26.3116  -16.0443    7.1598 H        26   C41       0.2029
    831 H5         25.9539  -10.7658    8.2353 H        26   C41       0.1928
    832 H6         25.4380  -12.5293    6.6267 H        26   C41       0.1958
    833 H41        27.0394  -11.5530   11.6686 H        26   C41       0.4234
    834 H42        26.6648  -10.2914   10.5161 H        26   C41       0.4234
    835 HO2'       23.2768  -17.4696    6.8237 H        26   C41       0.4186
    836 P          20.9240  -14.5780    6.7990 P.3      27   G42       1.1662
    837 OP1        19.6560  -15.0490    6.1760 O.co2    27   G42      -0.7760
    838 OP2        21.1830  -13.1000    6.9090 O.co2    27   G42      -0.7760
    839 O5'        21.0880  -15.1570    8.2900 O.3      27   G42      -0.4989
    840 C5'        20.9140  -16.5510    8.5250 C.3      27   G42       0.0558
    841 C4'        21.3930  -16.9670    9.9070 C.3      27   G42       0.1065
    842 O4'        22.7740  -16.5670   10.0910 O.3      27   G42      -0.3548
    843 C3'        20.6940  -16.2990   11.0790 C.3      27   G42       0.2022
    844 O3'        19.4280  -16.8750   11.2900 O.3      27   G42      -0.5246
    845 C2'        21.6950  -16.5900   12.1860 C.3      27   G42       0.0670
    846 O2'        21.6670  -17.9450   12.5500 O.3      27   G42      -0.6139
    847 C1'        23.0020  -16.2820   11.4700 C.3      27   G42       0.0191
    848 N9         23.3690  -14.8740   11.6470 N.ar     27   G42       0.0492
    849 C8         23.2640  -13.8370   10.7390 C.ar     27   G42       0.1374
    850 N7         23.6420  -12.6710   11.2300 N.ar     27   G42      -0.5709
    851 C5         24.0340  -12.9640   12.5370 C.ar     27   G42       0.1744
    852 C6         24.5380  -12.1350   13.5760 C.2      27   G42       0.4770
    853 O6         24.7760  -10.9250   13.5630 O.2      27   G42      -0.5597
    854 N1         24.7870  -12.8490   14.7440 N.am     27   G42      -0.4787
    855 C2         24.5700  -14.1930   14.9200 C.2      27   G42       0.7657
    856 N2         24.8520  -14.7000   16.1310 N.pl3    27   G42      -0.9672
    857 N3         24.1010  -14.9970   13.9610 N.2      27   G42      -0.6323
    858 C4         23.8530  -14.3150   12.8090 C.ar     27   G42       0.1222
    859 H5'        19.8550  -16.7923    8.4338 H        27   G42       0.0679
    860 H5''       21.4713  -17.1098    7.7732 H        27   G42       0.0679
    861 H4'        21.3132  -18.0495   10.0071 H        27   G42       0.1174
    862 H3'        20.6054  -15.2254   10.9129 H        27   G42       0.0615
    863 H2'        21.5442  -15.9386   13.0468 H        27   G42       0.0972
    864 H1'        23.7953  -16.9229   11.8547 H        27   G42       0.2006
    865 H8         22.9079  -13.9676    9.7278 H        27   G42       0.1640
    866 H1         25.1592  -12.3345   15.5294 H        27   G42       0.3424
    867 H21        25.2065  -14.0980   16.8604 H        27   G42       0.4364
    868 H22        24.7097  -15.6833   16.3124 H        27   G42       0.4364
    869 HO2'       21.4316  -18.0229   13.4774 H        27   G42       0.4186
    870 P          18.3320  -16.1280   12.1650 P.3      28   C43       1.1662
    871 OP1        17.0910  -16.9430   12.0960 O.co2    28   C43      -0.7760
    872 OP2        18.3270  -14.6970   11.7820 O.co2    28   C43      -0.7760
    873 O5'        18.9100  -16.2190   13.6580 O.3      28   C43      -0.4989
    874 C5'        19.0130  -17.4720   14.3450 C.3      28   C43       0.0558
    875 C4'        19.6140  -17.2980   15.7250 C.3      28   C43       0.1065
    876 O4'        20.9430  -16.7200   15.6670 O.3      28   C43      -0.3548
    877 C3'        18.8520  -16.3360   16.6020 C.3      28   C43       0.2022
    878 O3'        17.7350  -17.0050   17.1110 O.3      28   C43      -0.5246
    879 C2'        19.8890  -16.0510   17.6770 C.3      28   C43       0.0670
    880 O2'        20.0850  -17.1220   18.5810 O.3      28   C43      -0.6139
    881 C1'        21.1310  -15.8950   16.8160 C.3      28   C43       0.0066
    882 N1         21.3800  -14.4670   16.4290 N.am     28   C43      -0.0484
    883 C2         21.9340  -13.5800   17.3830 C.2      28   C43       0.7538
    884 O2         22.2130  -14.0190   18.5090 O.2      28   C43      -0.6252
    885 N3         22.1770  -12.2840   17.0250 N.2      28   C43      -0.7584
    886 C4         21.8620  -11.8510   15.7960 C.2      28   C43       0.8185
    887 N4         22.1150  -10.5720   15.4690 N.pl3    28   C43      -0.9530
    888 C5         21.2980  -12.7380   14.8240 C.2      28   C43      -0.5215
    889 C6         21.0690  -14.0120   15.1780 C.2      28   C43       0.0053
    890 H5'        18.0176  -17.9050   14.4438 H        28   C43       0.0679
    891 H5''       19.6408  -18.1477   13.7642 H        28   C43       0.0679
    892 H4'        19.6663  -18.2686   16.2183 H        28   C43       0.1174
    893 H3'        18.5706  -15.4321   16.0617 H        28   C43       0.0615
    894 H2'        19.6605  -15.1266   18.2074 H        28   C43       0.0972
    895 H1'        21.9925  -16.2622   17.3738 H        28   C43       0.2029
    896 H5         21.0624  -12.3900   13.8291 H        28   C43       0.1928
    897 H6         20.6308  -14.6906   14.4611 H        28   C43       0.1958
    898 H41        22.5249   -9.9483   16.1495 H        28   C43       0.4234
    899 H42        21.8952  -10.2346   14.5427 H        28   C43       0.4234
    900 HO2'       19.8055  -16.8549   19.4597 H        28   C43       0.4186
    901 P          16.4170  -16.2010   17.5020 P.3      29   A44       1.1662
    902 OP1        15.4550  -17.2490   17.9310 O.co2    29   A44      -0.7760
    903 OP2        16.0430  -15.2140   16.4730 O.co2    29   A44      -0.7760
    904 O5'        16.8380  -15.3610   18.8030 O.3      29   A44      -0.4989
    905 C5'        17.3000  -16.0520   19.9760 C.3      29   A44       0.0558
    906 C4'        17.8680  -15.0540   20.9660 C.3      29   A44       0.1065
    907 O4'        19.0810  -14.4520   20.4400 O.3      29   A44      -0.3548
    908 C3'        16.9800  -13.8430   21.2150 C.3      29   A44       0.2022
    909 O3'        15.9380  -14.1920   22.1130 O.3      29   A44      -0.5246
    910 C2'        17.9770  -12.8390   21.7870 C.3      29   A44       0.0670
    911 O2'        18.3700  -13.1290   23.1180 O.3      29   A44      -0.6139
    912 C1'        19.1470  -13.0970   20.8490 C.3      29   A44       0.0394
    913 N9         19.1520  -12.2730   19.6540 N.ar     29   A44      -0.0251
    914 C8         18.7310  -12.6320   18.3970 C.ar     29   A44       0.2006
    915 N7         18.8650  -11.6860   17.5000 N.ar     29   A44      -0.6073
    916 C5         19.4190  -10.6430   18.2140 C.ar     29   A44       0.0515
    917 C6         19.8100   -9.3480   17.8330 C.ar     29   A44       0.7009
    918 N6         19.6700   -8.9010   16.5770 N.pl3    29   A44      -0.9019
    919 N1         20.3330   -8.5470   18.7950 N.ar     29   A44      -0.7615
    920 C2         20.4470   -9.0140   20.0430 C.ar     29   A44       0.5875
    921 N3         20.1220  -10.2190   20.5210 N.ar     29   A44      -0.6997
    922 C4         19.6020  -10.9840   19.5440 C.ar     29   A44       0.3053
    923 H5'        16.4665  -16.5835   20.4352 H        29   A44       0.0679
    924 H5''       18.0747  -16.7655   19.6952 H        29   A44       0.0679
    925 H4'        18.0838  -15.5535   21.9105 H        29   A44       0.1174
    926 H3'        16.5659  -13.4753   20.2761 H        29   A44       0.0615
    927 H2'        17.6102  -11.8168   21.6940 H        29   A44       0.0972
    928 H1'        20.0780  -12.9368   21.3928 H        29   A44       0.2007
    929 H8         18.3258  -13.6066   18.1682 H        29   A44       0.1553
    930 H2         20.8581   -8.3224   20.7635 H        29   A44       0.0473
    931 H61        19.2760   -9.5026   15.8678 H        29   A44       0.4115
    932 H62        19.9585   -7.9626   16.3398 H        29   A44       0.4115
    933 HO2'       17.6335  -12.9670   23.7121 H        29   A44       0.4186
    934 P          14.6900  -13.2120   22.3470 P.3      30   A45       1.1662
    935 OP1        13.8280  -13.9200   23.3400 O.co2    30   A45      -0.7760
    936 OP2        14.1390  -12.7400   21.0490 O.co2    30   A45      -0.7760
    937 O5'        15.3320  -11.9200   23.0360 O.3      30   A45      -0.4989
    938 C5'        14.8990  -10.6010   22.7260 C.3      30   A45       0.0558
    939 C4'        15.7530   -9.6100   23.4970 C.3      30   A45       0.1065
    940 O4'        17.0420   -9.5180   22.8370 O.3      30   A45      -0.3548
    941 C3'        15.2170   -8.1820   23.5100 C.3      30   A45       0.2022
    942 O3'        14.5140   -7.8980   24.7080 O.3      30   A45      -0.5246
    943 C2'        16.4590   -7.3060   23.4250 C.3      30   A45       0.0670
    944 O2'        17.1280   -7.1270   24.6470 O.3      30   A45      -0.6139
    945 C1'        17.3590   -8.1640   22.5680 C.3      30   A45       0.0394
    946 N9         17.3170   -7.8800   21.1330 N.ar     30   A45      -0.0251
    947 C8         16.9160   -8.7200   20.1360 C.ar     30   A45       0.2006
    948 N7         17.0260   -8.2010   18.9330 N.ar     30   A45      -0.6073
    949 C5         17.5310   -6.9300   19.1600 C.ar     30   A45       0.0515
    950 C6         17.8940   -5.8590   18.2950 C.ar     30   A45       0.7009
    951 N6         17.7760   -5.9170   16.9690 N.pl3    30   A45      -0.9019
    952 N1         18.3690   -4.7250   18.8490 N.ar     30   A45      -0.7615
    953 C2         18.4950   -4.6520   20.1790 C.ar     30   A45       0.5875
    954 N3         18.2020   -5.5940   21.0820 N.ar     30   A45      -0.6997
    955 C4         17.7200   -6.7140   20.5100 C.ar     30   A45       0.3053
    956 H5'        15.0069  -10.4224   21.6562 H        30   A45       0.0679
    957 H5''       13.8540  -10.4829   23.0124 H        30   A45       0.0679
    958 H4'        15.8887   -9.9605   24.5202 H        30   A45       0.1174
    959 H3'        14.5749   -8.0117   22.6458 H        30   A45       0.0615
    960 H2'        16.2422   -6.3516   22.9451 H        30   A45       0.0972
    961 H1'        18.3828   -7.9970   22.9028 H        30   A45       0.2007
    962 H8         16.5433   -9.7173   20.3176 H        30   A45       0.1553
    963 H2         18.8791   -3.7214   20.5700 H        30   A45       0.0473
    964 H61        18.4190   -5.2954   16.4997 H        30   A45       0.4115
    965 H62        17.1186   -6.5143   16.4882 H        30   A45       0.4115
    966 HO2'       16.5916   -6.5842   25.2295 H        30   A45       0.4186
    967 P          13.1900   -6.9890   24.6600 P.3      31   G46       1.1662
    968 OP1        12.7750   -6.7800   26.0660 O.co2    31   G46      -0.7760
    969 OP2        12.2630   -7.5800   23.6770 O.co2    31   G46      -0.7760
    970 O5'        13.6750   -5.5870   24.0870 O.3      31   G46      -0.4989
    971 C5'        14.4990   -4.7160   24.8380 C.3      31   G46       0.0558
    972 C4'        14.7990   -3.4840   24.0110 C.3      31   G46       0.1065
    973 O4'        15.6700   -3.8150   22.9010 O.3      31   G46      -0.3548
    974 C3'        13.5800   -2.8730   23.3370 C.3      31   G46       0.2022
    975 O3'        12.9380   -2.0270   24.2530 O.3      31   G46      -0.5246
    976 C2'        14.2330   -2.0730   22.2110 C.3      31   G46       0.0670
    977 O2'        14.9030   -0.9040   22.6370 O.3      31   G46      -0.6139
    978 C1'        15.2930   -3.0580   21.7600 C.3      31   G46       0.0191
    979 N9         14.8930   -3.9790   20.7020 N.ar     31   G46       0.0492
    980 C8         14.2730   -5.1970   20.8320 C.ar     31   G46       0.1374
    981 N7         14.0830   -5.8000   19.6960 N.ar     31   G46      -0.5709
    982 C5         14.6190   -4.9230   18.7440 C.ar     31   G46       0.1744
    983 C6         14.7170   -5.0240   17.3230 C.2      31   G46       0.4770
    984 O6         14.3350   -5.9450   16.5840 O.2      31   G46      -0.5597
    985 N1         15.3450   -3.9050   16.7580 N.am     31   G46      -0.4787
    986 C2         15.8210   -2.8280   17.4730 C.2      31   G46       0.7657
    987 N2         16.3870   -1.8380   16.7810 N.pl3    31   G46      -0.9672
    988 N3         15.7260   -2.7250   18.7970 N.2      31   G46      -0.6323
    989 C4         15.1210   -3.7990   19.3560 C.ar     31   G46       0.1222
    990 H5'        13.9837   -4.4247   25.7533 H        31   G46       0.0679
    991 H5''       15.4310   -5.2222   25.0895 H        31   G46       0.0679
    992 H4'        15.2804   -2.7341   24.6387 H        31   G46       0.1174
    993 H3'        12.9055   -3.6375   22.9513 H        31   G46       0.0615
    994 H2'        13.5236   -1.8572   21.4121 H        31   G46       0.0972
    995 H1'        16.1618   -2.4960   21.4171 H        31   G46       0.2006
    996 H8         13.9732   -5.6126   21.7827 H        31   G46       0.1640
    997 H1         15.4564   -3.8872   15.7543 H        31   G46       0.3424
    998 H21        16.4586   -1.9013   15.7755 H        31   G46       0.4364
    999 H22        16.7439   -1.0251   17.2625 H        31   G46       0.4364
   1000 HO2'       14.2587   -0.2513   22.9207 H        31   G46       0.4186
   1001 P          11.3660   -2.1460   24.5640 P.3      32   U47       1.1662
   1002 OP1        11.2030   -1.2380   25.7250 O.co2    32   U47      -0.7760
   1003 OP2        10.9140   -3.5410   24.6110 O.co2    32   U47      -0.7760
   1004 O5'        10.7040   -1.4830   23.2760 O.3      32   U47      -0.4989
   1005 C5'        10.8290   -0.0960   23.0270 C.3      32   U47       0.0558
   1006 C4'         9.7610    0.3320   22.0380 C.3      32   U47       0.1065
   1007 O4'        10.1690   -0.0970   20.7140 O.3      32   U47      -0.3548
   1008 C3'         8.3640   -0.2500   22.2660 C.3      32   U47       0.2022
   1009 O3'         7.3580    0.7110   21.9100 O.3      32   U47      -0.5246
   1010 C2'         8.3280   -1.4460   21.3180 C.3      32   U47       0.0670
   1011 O2'         7.0400   -1.7770   20.8350 O.3      32   U47      -0.6139
   1012 C1'         9.1590   -0.9140   20.1550 C.3      32   U47       0.0674
   1013 N1          9.6980   -1.9970   19.2790 N.am     32   U47       0.0418
   1014 C2          9.5840   -1.8670   17.9000 C.2      32   U47       0.4687
   1015 O2          9.1010   -0.8900   17.3450 O.2      32   U47      -0.5477
   1016 N3         10.0860   -2.9280   17.1820 N.am     32   U47      -0.3549
   1017 C4         10.6780   -4.0760   17.6880 C.2      32   U47       0.5952
   1018 O4         11.0800   -4.9400   16.9200 O.2      32   U47      -0.5761
   1019 C5         10.7510   -4.1450   19.1290 C.2      32   U47      -0.3635
   1020 C6         10.2670   -3.1250   19.8500 C.2      32   U47      -0.1126
   1021 H5'        10.7036    0.4543   23.9595 H        32   U47       0.0679
   1022 H5''       11.8148    0.1119   22.6111 H        32   U47       0.0679
   1023 H4'         9.6921    1.4198   22.0471 H        32   U47       0.1174
   1024 H3'         8.2429   -0.5721   23.3003 H        32   U47       0.0615
   1025 H2'         8.8068   -2.3141   21.7711 H        32   U47       0.0972
   1026 H1'         8.5148   -0.2801   19.5457 H        32   U47       0.1824
   1027 H3         10.0158   -2.8640   16.1765 H        32   U47       0.3154
   1028 H5         11.1881   -5.0039   19.6165 H        32   U47       0.1811
   1029 H6         10.3227   -3.1841   20.9269 H        32   U47       0.2188
   1030 HO2'        6.6540   -2.4572   21.3917 H        32   U47       0.4186
   1031 P           6.6230    1.6240   23.0050 P.3      33   U48       1.1662
   1032 OP1         6.0310    2.7570   22.2710 O.co2    33   U48      -0.7760
   1033 OP2         7.5340    1.9010   24.1390 O.co2    33   U48      -0.7760
   1034 O5'         5.4890    0.6610   23.5690 O.3      33   U48      -0.4989
   1035 C5'         4.8300   -0.2240   22.7090 C.3      33   U48       0.0558
   1036 C4'         4.0570   -1.2400   23.5140 C.3      33   U48       0.1065
   1037 O4'         3.1200   -0.5450   24.3750 O.3      33   U48      -0.3548
   1038 C3'         3.2480   -2.1670   22.6250 C.3      33   U48       0.2022
   1039 O3'         3.5700   -3.5290   22.9210 O.3      33   U48      -0.5246
   1040 C2'         1.7890   -1.7990   22.8960 C.3      33   U48       0.0670
   1041 O2'         0.9200   -2.9160   22.9320 O.3      33   U48      -0.6139
   1042 C1'         1.8560   -1.1520   24.2760 C.3      33   U48       0.0674
   1043 N1          0.7850   -0.1240   24.4940 N.am     33   U48       0.0418
   1044 C2         -0.1100   -0.2910   25.5440 C.2      33   U48       0.4687
   1045 O2         -0.0780   -1.2320   26.3300 O.2      33   U48      -0.5477
   1046 N3         -1.0620    0.7000   25.6530 N.am     33   U48      -0.3549
   1047 C4         -1.2090    1.8110   24.8340 C.2      33   U48       0.5952
   1048 O4         -2.1120    2.6140   25.0570 O.2      33   U48      -0.5761
   1049 C5         -0.2410    1.9150   23.7670 C.2      33   U48      -0.3635
   1050 C6          0.6950    0.9630   23.6390 C.2      33   U48      -0.1126
   1051 H5'         5.5634   -0.7375   22.0872 H        33   U48       0.0679
   1052 H5''        4.1424    0.3334   22.0729 H        33   U48       0.0679
   1053 H4'         4.7464   -1.8260   24.1218 H        33   U48       0.1174
   1054 H3'         3.4833   -1.9603   21.5810 H        33   U48       0.0615
   1055 H2'         1.4408   -1.0758   22.1586 H        33   U48       0.0972
   1056 H1'         1.7699   -1.9259   25.0387 H        33   U48       0.1824
   1057 H3         -1.7238    0.6077   26.4104 H        33   U48       0.3154
   1058 H5         -0.2706    2.7487   23.0811 H        33   U48       0.1811
   1059 H6          1.4102    1.0472   22.8341 H        33   U48       0.2188
   1060 HO2'        0.8809   -3.3198   22.0619 H        33   U48       0.4186
   1061 P           4.7240   -4.2930   22.1100 P.3      34   U49       1.1662
   1062 OP1         4.4580   -5.7490   22.1830 O.co2    34   U49      -0.7760
   1063 OP2         6.0350   -3.7590   22.5610 O.co2    34   U49      -0.7760
   1064 O5'         4.5290   -3.7910   20.6050 O.3      34   U49      -0.4989
   1065 C5'         3.4340   -4.2200   19.7940 C.3      34   U49       0.0558
   1066 C4'         3.7230   -3.9090   18.3370 C.3      34   U49       0.1065
   1067 O4'         3.5900   -2.4910   18.0790 O.3      34   U49      -0.3548
   1068 C3'         5.1310   -4.2900   17.9000 C.3      34   U49       0.2022
   1069 O3'         5.0070   -5.0350   16.7160 O.3      34   U49      -0.5246
   1070 C2'         5.8410   -2.9480   17.6900 C.3      34   U49       0.0670
   1071 O2'         6.8410   -2.9850   16.6850 O.3      34   U49      -0.6139
   1072 C1'         4.6660   -2.0710   17.2640 C.3      34   U49       0.0674
   1073 N1          4.8650   -0.5930   17.4380 N.am     34   U49       0.0418
   1074 C2          4.5090    0.2340   16.3940 C.2      34   U49       0.4687
   1075 O2          4.0490   -0.1900   15.3520 O.2      34   U49      -0.5477
   1076 N3          4.7190    1.5730   16.6150 N.am     34   U49      -0.3549
   1077 C4          5.2350    2.1620   17.7590 C.2      34   U49       0.5952
   1078 O4          5.3630    3.3830   17.8180 O.2      34   U49      -0.5761
   1079 C5          5.5850    1.2340   18.8070 C.2      34   U49      -0.3635
   1080 C6          5.3930   -0.0810   18.6120 C.2      34   U49      -0.1126
   1081 H5'         3.2937   -5.2942   19.9140 H        34   U49       0.0679
   1082 H5''        2.5278   -3.6991   20.1032 H        34   U49       0.0679
   1083 H4'         3.0064   -4.4463   17.7158 H        34   U49       0.1174
   1084 H3'         5.6303   -4.8741   18.6731 H        34   U49       0.0615
   1085 H2'         6.2608   -2.5896   18.6299 H        34   U49       0.0972
   1086 H1'         4.4258   -2.2783   16.2212 H        34   U49       0.1824
   1087 H3          4.4701    2.1974   15.8611 H        34   U49       0.3154
   1088 H5          5.9971    1.5930   19.7385 H        34   U49       0.1811
   1089 H6          5.6610   -0.7667   19.4022 H        34   U49       0.2188
   1090 HO2'        7.1677   -3.8828   16.5909 H        34   U49       0.4186
   1091 P           6.0950   -6.1450   16.4050 P.3      35   C50       1.1662
   1092 OP1         5.8230   -7.3060   17.2880 O.co2    35   C50      -0.7760
   1093 OP2         7.4250   -5.4860   16.3990 O.co2    35   C50      -0.7760
   1094 O5'         5.7820   -6.5240   14.8930 O.3      35   C50      -0.4989
   1095 C5'         4.6300   -7.2700   14.5380 C.3      35   C50       0.0558
   1096 C4'         4.3740   -7.0400   13.0670 C.3      35   C50       0.1065
   1097 O4'         3.9100   -5.6730   12.9160 O.3      35   C50      -0.3548
   1098 C3'         5.6190   -7.1190   12.1960 C.3      35   C50       0.2022
   1099 O3'         5.8920   -8.4570   11.7760 O.3      35   C50      -0.5246
   1100 C2'         5.2330   -6.2150   11.0330 C.3      35   C50       0.0670
   1101 O2'         4.4100   -6.8660   10.0890 O.3      35   C50      -0.6139
   1102 C1'         4.4410   -5.1110   11.7320 C.3      35   C50       0.0066
   1103 N1          5.2250   -3.8650   12.0560 N.am     35   C50      -0.0484
   1104 C2          5.7480   -3.0820   11.0130 C.2      35   C50       0.7538
   1105 O2          5.5620   -3.4370    9.8440 O.2      35   C50      -0.6252
   1106 N3          6.4510   -1.9550   11.3130 N.2      35   C50      -0.7584
   1107 C4          6.6340   -1.5830   12.5830 C.2      35   C50       0.8185
   1108 N4          7.3210   -0.4580   12.8260 N.pl3    35   C50      -0.9530
   1109 C5          6.1010   -2.3560   13.6620 C.2      35   C50      -0.5215
   1110 C6          5.4160   -3.4720   13.3520 C.2      35   C50       0.0053
   1111 H5'         3.7737   -6.9320   15.1217 H        35   C50       0.0679
   1112 H5''        4.8060   -8.3301   14.7207 H        35   C50       0.0679
   1113 H4'         3.6172   -7.7356   12.7043 H        35   C50       0.1174
   1114 H3'         6.4776   -6.7068   12.7260 H        35   C50       0.0615
   1115 H2'         6.1215   -5.8059   10.5520 H        35   C50       0.0972
   1116 H1'         3.6086   -4.8300   11.0868 H        35   C50       0.2029
   1117 H5          6.2433   -2.0546   14.6893 H        35   C50       0.1928
   1118 H6          5.0055   -4.0743   14.1490 H        35   C50       0.1958
   1119 H41         7.6902    0.0842   12.0580 H        35   C50       0.4234
   1120 H42         7.4695   -0.1525   13.7772 H        35   C50       0.4234
   1121 HO2'        4.9102   -7.5589    9.6516 H        35   C50       0.4186
   1122 P           7.3620   -9.0860   11.9360 P.3      36   U51       1.1662
   1123 OP1         7.3730  -10.4770   11.4320 O.co2    36   U51      -0.7760
   1124 OP2         7.8160   -8.7830   13.3120 O.co2    36   U51      -0.7760
   1125 O5'         8.2340   -8.2030   10.9280 O.3      36   U51      -0.4989
   1126 C5'         8.2640   -8.4780    9.5340 C.3      36   U51       0.0558
   1127 C4'         8.7840   -7.2640    8.7890 C.3      36   U51       0.1065
   1128 O4'         8.0470   -6.0810    9.1960 O.3      36   U51      -0.3548
   1129 C3'        10.2300   -6.8840    9.0960 C.3      36   U51       0.2022
   1130 O3'        11.1430   -7.6610    8.3520 O.3      36   U51      -0.5246
   1131 C2'        10.2260   -5.4380    8.6310 C.3      36   U51       0.0670
   1132 O2'        10.1800   -5.3440    7.2230 O.3      36   U51      -0.6139
   1133 C1'         8.9170   -4.9530    9.2340 C.3      36   U51       0.0674
   1134 N1          9.0900   -4.3880   10.6260 N.am     36   U51       0.0418
   1135 C2          9.6220   -3.1140   10.7680 C.2      36   U51       0.4687
   1136 O2          9.9650   -2.4060    9.8350 O.2      36   U51      -0.5477
   1137 N3          9.7410   -2.6790   12.0670 N.am     36   U51      -0.3549
   1138 C4          9.4060   -3.3740   13.2180 C.2      36   U51       0.5952
   1139 O4          9.5710   -2.8460   14.3120 O.2      36   U51      -0.5761
   1140 C5          8.8590   -4.6910   12.9930 C.2      36   U51      -0.3635
   1141 C6          8.7330   -5.1360   11.7370 C.2      36   U51      -0.1126
   1142 H5'         8.9200   -9.3279    9.3457 H        36   U51       0.0679
   1143 H5''        7.2573   -8.7126    9.1883 H        36   U51       0.0679
   1144 H4'         8.6665   -7.4161    7.7161 H        36   U51       0.1174
   1145 H3'        10.4356   -6.9523   10.1643 H        36   U51       0.0615
   1146 H2'        11.0760   -4.8894    9.0368 H        36   U51       0.0972
   1147 H1'         8.5054   -4.1746    8.5915 H        36   U51       0.1824
   1148 H3         10.1141   -1.7494   12.1966 H        36   U51       0.3154
   1149 H5          8.5559   -5.3081   13.8259 H        36   U51       0.1811
   1150 H6          8.3333   -6.1272   11.5814 H        36   U51       0.2188
   1151 HO2'       10.0364   -4.4297    6.9678 H        36   U51       0.4186
   1152 P          12.6450   -7.8850    8.8570 P.3      37   A52       1.1662
   1153 OP1        13.2600   -8.8080    7.8860 O.co2    37   A52      -0.7760
   1154 OP2        12.6620   -8.2010   10.3030 O.co2    37   A52      -0.7760
   1155 O5'        13.3210   -6.4460    8.6910 O.3      37   A52      -0.4989
   1156 C5'        13.4910   -5.8550    7.4080 C.3      37   A52       0.0558
   1157 C4'        14.0440   -4.4630    7.5980 C.3      37   A52       0.1065
   1158 O4'        13.1580   -3.7300    8.4820 O.3      37   A52      -0.3548
   1159 C3'        15.4190   -4.4130    8.2580 C.3      37   A52       0.2022
   1160 O3'        16.4480   -4.4980    7.2570 O.3      37   A52      -0.5246
   1161 C2'        15.3770   -3.0600    8.9690 C.3      37   A52       0.0670
   1162 O2'        15.6710   -1.9850    8.1000 O.3      37   A52      -0.6139
   1163 C1'        13.9080   -2.9200    9.3730 C.3      37   A52       0.0394
   1164 N9         13.5420   -3.2660   10.7500 N.ar     37   A52      -0.0251
   1165 C8         12.9510   -4.4180   11.2030 C.ar     37   A52       0.2006
   1166 N7         12.7250   -4.4200   12.4940 N.ar     37   A52      -0.6073
   1167 C5         13.1900   -3.1890   12.9230 C.ar     37   A52       0.0515
   1168 C6         13.2380   -2.5690   14.1940 C.ar     37   A52       0.7009
   1169 N6         12.7860   -3.1490   15.3190 N.pl3    37   A52      -0.9019
   1170 N1         13.7700   -1.3270   14.2610 N.ar     37   A52      -0.7615
   1171 C2         14.2280   -0.7420   13.1410 C.ar     37   A52       0.5875
   1172 N3         14.2280   -1.2250   11.8980 N.ar     37   A52      -0.6997
   1173 C4         13.6910   -2.4620   11.8600 C.ar     37   A52       0.3053
   1174 H5'        12.5303   -5.8032    6.8957 H        37   A52       0.0679
   1175 H5''       14.1892   -6.4501    6.8194 H        37   A52       0.0679
   1176 H4'        14.0888   -3.9582    6.6330 H        37   A52       0.1174
   1177 H3'        15.5239   -5.2210    8.9820 H        37   A52       0.0615
   1178 H2'        16.0294   -3.0521    9.8421 H        37   A52       0.0972
   1179 H1'        13.6157   -1.8837    9.2035 H        37   A52       0.2007
   1180 H8         12.6960   -5.2451   10.5570 H        37   A52       0.1553
   1181 H2         14.6497    0.2447   13.2632 H        37   A52       0.0473
   1182 H61        12.9037   -2.5441   16.1192 H        37   A52       0.4115
   1183 H62        12.0289   -3.8125   15.4007 H        37   A52       0.4115
   1184 HO2'       16.5887   -2.0384    7.8233 H        37   A52       0.4186
   1185 P          17.7510   -5.4060    7.4860 P.3      38   C53       1.1662
   1186 OP1        18.4900   -5.3830    6.2000 O.co2    38   C53      -0.7760
   1187 OP2        17.3660   -6.6920    8.1080 O.co2    38   C53      -0.7760
   1188 O5'        18.6320   -4.6050    8.5570 O.3      38   C53      -0.4989
   1189 C5'        19.1350   -3.3110    8.2550 C.3      38   C53       0.0558
   1190 C4'        19.5420   -2.6080    9.5370 C.3      38   C53       0.1065
   1191 O4'        18.3190   -2.3260   10.2680 O.3      38   C53      -0.3548
   1192 C3'        20.3890   -3.4270   10.5030 C.3      38   C53       0.2022
   1193 O3'        21.8000   -3.3510   10.2470 O.3      38   C53      -0.5246
   1194 C2'        20.0460   -2.7630   11.8300 C.3      38   C53       0.0670
   1195 O2'        20.7560   -1.5480   12.0110 O.3      38   C53      -0.6139
   1196 C1'        18.5560   -2.4800   11.6580 C.3      38   C53       0.0066
   1197 N1         17.6350   -3.5530   12.2280 N.am     38   C53      -0.0484
   1198 C2         16.9680   -3.3120   13.4410 C.2      38   C53       0.7538
   1199 O2         17.1360   -2.2300   14.0210 O.2      38   C53      -0.6252
   1200 N3         16.1560   -4.2780   13.9470 N.2      38   C53      -0.7584
   1201 C4         15.9780   -5.4320   13.2990 C.2      38   C53       0.8185
   1202 N4         15.1640   -6.3450   13.8380 N.pl3    38   C53      -0.9530
   1203 C5         16.6450   -5.7100   12.0640 C.2      38   C53      -0.5215
   1204 C6         17.4460   -4.7480   11.5730 C.2      38   C53       0.0053
   1205 H5'        18.3614   -2.7298    7.7532 H        38   C53       0.0679
   1206 H5''       20.0019   -3.4025    7.6006 H        38   C53       0.0679
   1207 H4'        20.0527   -1.6748    9.2993 H        38   C53       0.1174
   1208 H3'        20.0610   -4.4665   10.5049 H        38   C53       0.0615
   1209 H2'        20.2199   -3.4440   12.6631 H        38   C53       0.0972
   1210 H1'        18.3276   -1.5352   12.1512 H        38   C53       0.2029
   1211 H5         16.5111   -6.6501   11.5494 H        38   C53       0.1928
   1212 H6         17.9562   -4.9185   10.6365 H        38   C53       0.1958
   1213 H41        14.6968   -6.1517   14.7123 H        38   C53       0.4234
   1214 H42        15.0161   -7.2282   13.3709 H        38   C53       0.4234
   1215 HO2'       20.2266   -0.8160   11.6861 H        38   C53       0.4186
   1216 P          22.5930   -4.5860    9.5960 P.3      39   C54       1.1662
   1217 OP1        21.7580   -5.8300    9.6070 O.co2    39   C54      -0.7760
   1218 OP2        23.9220   -4.6670   10.2350 O.co2    39   C54      -0.7760
   1219 O5'        22.6770   -4.1240    8.0830 O.3      39   C54      -0.4989
   1220 C5'        23.6580   -3.2010    7.6600 C.3      39   C54       0.0558
   1221 C4'        23.0410   -2.3680    6.5800 C.3      39   C54       0.1065
   1222 O4'        21.9520   -1.6050    7.1420 O.3      39   C54      -0.3548
   1223 C3'        23.9740   -1.3270    5.9860 C.3      39   C54       0.2022
   1224 O3'        24.7460   -1.9100    4.9500 O.3      39   C54      -0.5246
   1225 C2'        22.9850   -0.2830    5.4790 C.3      39   C54       0.0670
   1226 O2'        22.3130   -0.6240    4.2830 O.3      39   C54      -0.6139
   1227 C1'        21.9800   -0.2860    6.6320 C.3      39   C54       0.0066
   1228 N1         22.3080    0.7160    7.7040 N.am     39   C54      -0.0484
   1229 C2         22.2120    2.0720    7.3430 C.2      39   C54       0.7538
   1230 O2         21.8500    2.3890    6.2000 O.2      39   C54      -0.6252
   1231 N3         22.5100    3.0160    8.2820 N.2      39   C54      -0.7584
   1232 C4         22.8850    2.6610    9.5030 C.2      39   C54       0.8185
   1233 N4         23.1550    3.6320   10.3760 N.pl3    39   C54      -0.9530
   1234 C5         22.9940    1.2810    9.8960 C.2      39   C54      -0.5215
   1235 C6         22.7090    0.3570    8.9610 C.2      39   C54       0.0053
   1236 H5'        23.9599   -2.5677    8.4942 H        39   C54       0.0679
   1237 H5''       24.5238   -3.7344    7.2675 H        39   C54       0.0679
   1238 H4'        22.6639   -3.0157    5.7885 H        39   C54       0.1174
   1239 H3'        24.6194   -0.9042    6.7559 H        39   C54       0.0615
   1240 H2'        23.4650    0.6913    5.3878 H        39   C54       0.0972
   1241 H1'        20.9943   -0.0508    6.2305 H        39   C54       0.2029
   1242 H5         23.2910    1.0001   10.8957 H        39   C54       0.1928
   1243 H6         22.7988   -0.6905    9.2083 H        39   C54       0.1958
   1244 H41        23.0740    4.5992   10.0966 H        39   C54       0.4234
   1245 H42        23.4405    3.4003   11.3167 H        39   C54       0.4234
   1246 HO2'       21.9248   -1.4975    4.3722 H        39   C54       0.4186
   1247 P          26.2490   -1.3830    4.7180 P.3      40   G55       1.1662
   1248 OP1        26.8480   -2.4140    3.8240 O.co2    40   G55      -0.7760
   1249 OP2        26.9220   -1.0940    6.0060 O.co2    40   G55      -0.7760
   1250 O5'        25.9560   -0.0530    3.8950 O.3      40   G55      -0.4989
   1251 C5'        25.3670   -0.0390    2.6100 C.3      40   G55       0.0558
   1252 C4'        25.3150    1.3710    2.0460 C.3      40   G55       0.1065
   1253 O4'        24.3830    2.1800    2.8210 O.3      40   G55      -0.3548
   1254 C3'        26.6160    2.1680    2.1030 C.3      40   G55       0.2022
   1255 O3'        27.4360    1.9100    0.9560 O.3      40   G55      -0.5246
   1256 C2'        26.0980    3.5920    2.0350 C.3      40   G55       0.0670
   1257 O2'        25.6490    3.9470    0.7600 O.3      40   G55      -0.6139
   1258 C1'        24.8790    3.5010    2.9320 C.3      40   G55       0.0191
   1259 N9         25.1280    3.7510    4.3450 N.ar     40   G55       0.0492
   1260 C8         25.2820    2.8440    5.3630 C.ar     40   G55       0.1374
   1261 N7         25.4800    3.3790    6.5400 N.ar     40   G55      -0.5709
   1262 C5         25.4310    4.7410    6.2680 C.ar     40   G55       0.1744
   1263 C6         25.5580    5.8400    7.1450 C.2      40   G55       0.4770
   1264 O6         25.7420    5.8200    8.3580 O.2      40   G55      -0.5597
   1265 N1         25.4440    7.0520    6.4730 N.am     40   G55      -0.4787
   1266 C2         25.2450    7.2120    5.1330 C.2      40   G55       0.7657
   1267 N2         25.1760    8.4650    4.6790 N.pl3    40   G55      -0.9672
   1268 N3         25.1240    6.1780    4.2900 N.2      40   G55      -0.6323
   1269 C4         25.2260    4.9980    4.9370 C.ar     40   G55       0.1222
   1270 H5'        24.3526   -0.4319    2.6794 H        40   G55       0.0679
   1271 H5''       25.9511   -0.6711    1.9412 H        40   G55       0.0679
   1272 H4'        24.9714    1.3269    1.0125 H        40   G55       0.1174
   1273 H3'        27.1573    1.9835    3.0309 H        40   G55       0.0615
   1274 H2'        26.8279    4.3051    2.4182 H        40   G55       0.0972
   1275 H1'        24.1207    4.1978    2.5748 H        40   G55       0.2006
   1276 H8         25.2429    1.7763    5.2054 H        40   G55       0.1640
   1277 H1         25.5152    7.8922    7.0289 H        40   G55       0.3424
   1278 H21        25.2690    9.2401    5.3198 H        40   G55       0.4364
   1279 H22        25.0308    8.6382    3.6946 H        40   G55       0.4364
   1280 HO2'       26.2417    4.6008    0.3820 H        40   G55       0.4186
   1281 P          29.0090    2.0350    1.0840 P.3      41   G56       1.1662
   1282 OP1        29.5130    1.3700   -0.1570 O.co2    41   G56      -0.7760
   1283 OP2        29.4920    1.6970    2.4340 O.co2    41   G56      -0.7760
   1284 O5'        29.2630    3.6190    0.9860 O.3      41   G56      -0.4989
   1285 C5'        29.2280    4.3220   -0.2360 C.3      41   G56       0.0558
   1286 C4'        29.2760    5.8130    0.0640 C.3      41   G56       0.1065
   1287 O4'        28.1970    6.1930    0.9420 O.3      41   G56      -0.3548
   1288 C3'        30.4730    6.3300    0.8390 C.3      41   G56       0.2022
   1289 O3'        31.6190    6.4530    0.0110 O.3      41   G56      -0.5246
   1290 C2'        29.9380    7.6930    1.2610 C.3      41   G56       0.0670
   1291 O2'        29.8070    8.5550    0.1380 O.3      41   G56      -0.6139
   1292 C1'        28.5920    7.2550    1.8000 C.3      41   G56       0.0191
   1293 N9         28.6660    6.7600    3.1850 N.ar     41   G56       0.0492
   1294 C8         28.7360    5.4280    3.5860 C.ar     41   G56       0.1374
   1295 N7         28.8020    5.2710    4.8800 N.ar     41   G56      -0.5709
   1296 C5         28.7660    6.5630    5.3740 C.ar     41   G56       0.1744
   1297 C6         28.8060    7.0200    6.7070 C.2      41   G56       0.4770
   1298 O6         28.8800    6.3420    7.7450 O.2      41   G56      -0.5597
   1299 N1         28.7540    8.4190    6.8090 N.am     41   G56      -0.4787
   1300 C2         28.6740    9.2700    5.7180 C.2      41   G56       0.7657
   1301 N2         28.6510   10.5940    5.9790 N.pl3    41   G56      -0.9672
   1302 N3         28.6520    8.8500    4.4620 N.2      41   G56      -0.6323
   1303 C4         28.6970    7.4920    4.3480 C.ar     41   G56       0.1222
   1304 H5'        30.0868    4.0419   -0.8460 H        41   G56       0.0679
   1305 H5''       28.3071    4.0849   -0.7688 H        41   G56       0.0679
   1306 H4'        29.1886    6.3681   -0.8700 H        41   G56       0.1174
   1307 H3'        30.6802    5.7033    1.7064 H        41   G56       0.0615
   1308 H2'        30.5545    8.1414    2.0401 H        41   G56       0.0972
   1309 H1'        27.8773    8.0753    1.7335 H        41   G56       0.2006
   1310 H8         28.7357    4.6017    2.8906 H        41   G56       0.1640
   1311 H1         28.7762    8.8295    7.7315 H        41   G56       0.3424
   1312 H21        28.6795   10.9210    6.9342 H        41   G56       0.4364
   1313 H22        28.6053   11.2578    5.2191 H        41   G56       0.4364
   1314 HO2'       29.4693    9.4065    0.4253 H        41   G56       0.4186
   1315 P          33.0530    6.5700    0.6400 P.3      42   G57       1.1662
   1316 OP1        33.9890    6.5410   -0.4920 O.co2    42   G57      -0.7760
   1317 OP2        33.1920    5.5640    1.7380 O.co2    42   G57      -0.7760
   1318 O5'        33.1050    7.9850    1.3800 O.3      42   G57      -0.4989
   1319 C5'        33.0930    9.1890    0.6060 C.3      42   G57       0.0558
   1320 C4'        33.0760   10.3740    1.5550 C.3      42   G57       0.1065
   1321 O4'        31.8840   10.3480    2.3930 O.3      42   G57      -0.3548
   1322 C3'        34.2170   10.4750    2.5500 C.3      42   G57       0.2022
   1323 O3'        35.3690   11.0400    1.9640 O.3      42   G57      -0.5246
   1324 C2'        33.6270   11.4420    3.5670 C.3      42   G57       0.0670
   1325 O2'        33.5830   12.7870    3.0880 O.3      42   G57      -0.6139
   1326 C1'        32.2310   10.8490    3.6820 C.3      42   G57       0.0191
   1327 N9         32.1480    9.7610    4.6820 N.ar     42   G57       0.0492
   1328 C8         32.0670    8.4120    4.4650 C.ar     42   G57       0.1374
   1329 N7         32.0130    7.6920    5.5770 N.ar     42   G57      -0.5709
   1330 C5         32.0560    8.6380    6.5870 C.ar     42   G57       0.1744
   1331 C6         32.0200    8.4990    8.0140 C.2      42   G57       0.4770
   1332 O6         31.9460    7.4500    8.6890 O.2      42   G57      -0.5597
   1333 N1         32.1100    9.7230    8.6780 N.am     42   G57      -0.4787
   1334 C2         32.1900   10.9460    8.0430 C.2      42   G57       0.7657
   1335 N2         32.2770   12.0400    8.8300 N.pl3    42   G57      -0.9672
   1336 N3         32.2130   11.0880    6.7160 N.2      42   G57      -0.6323
   1337 C4         32.1480    9.9130    6.0500 C.ar     42   G57       0.1222
   1338 H5'        33.9846    9.2323   -0.0195 H        42   G57       0.0679
   1339 H5''       32.2031    9.2110   -0.0230 H        42   G57       0.0679
   1340 H4'        33.0574   11.2880    0.9613 H        42   G57       0.1174
   1341 H3'        34.4357    9.5078    3.0025 H        42   G57       0.0615
   1342 H2'        34.1572   11.3821    4.5175 H        42   G57       0.0972
   1343 H1'        31.5312   11.6382    3.9567 H        42   G57       0.2006
   1344 H8         32.0487    7.9740    3.4780 H        42   G57       0.1640
   1345 H1         32.1171    9.7135    9.6879 H        42   G57       0.3424
   1346 H21        32.2708   11.9409    9.8351 H        42   G57       0.4364
   1347 H22        32.3482   12.9574    8.4135 H        42   G57       0.4364
   1348 HO2'       34.4758   13.1344    3.0257 H        42   G57       0.4186
   1349 P          36.8240   10.5820    2.3480 P.3      43   C58       1.1662
   1350 OP1        37.7680   11.3690    1.4960 O.co2    43   C58      -0.7760
   1351 OP2        36.8980    9.1120    2.2840 O.co2    43   C58      -0.7760
   1352 O5'        37.0750   11.0260    3.8560 O.3      43   C58      -0.4989
   1353 C5'        37.1110   12.4100    4.2200 C.3      43   C58       0.0558
   1354 C4'        36.9740   12.5410    5.7320 C.3      43   C58       0.1065
   1355 O4'        35.6750   12.0550    6.1700 O.3      43   C58      -0.3548
   1356 C3'        37.9540   11.7490    6.5730 C.3      43   C58       0.2022
   1357 O3'        39.2230   12.3400    6.6250 O.3      43   C58      -0.5246
   1358 C2'        37.2330   11.8020    7.9150 C.3      43   C58       0.0670
   1359 O2'        37.2790   13.0780    8.5190 O.3      43   C58      -0.6139
   1360 C1'        35.8180   11.4800    7.4710 C.3      43   C58       0.0066
   1361 N1         35.5520   10.0180    7.4010 N.am     43   C58      -0.0484
   1362 C2         35.2950    9.3630    8.6060 C.2      43   C58       0.7538
   1363 O2         35.2980   10.0640    9.6420 O.2      43   C58      -0.6252
   1364 N3         35.0690    8.0260    8.5590 N.2      43   C58      -0.7584
   1365 C4         35.0910    7.3300    7.4130 C.2      43   C58       0.8185
   1366 N4         34.8290    6.0110    7.4480 N.pl3    43   C58      -0.9530
   1367 C5         35.3600    7.9850    6.1620 C.2      43   C58      -0.5215
   1368 C6         35.5940    9.3130    6.2180 C.2      43   C58       0.0053
   1369 H5'        38.0587   12.8447    3.9021 H        43   C58       0.0679
   1370 H5''       36.2889   12.9352    3.7337 H        43   C58       0.0679
   1371 H4'        37.0590   13.5944    5.9988 H        43   C58       0.1174
   1372 H3'        38.0237   10.7217    6.2153 H        43   C58       0.0615
   1373 H2'        37.6127   11.0366    8.5918 H        43   C58       0.0972
   1374 H1'        35.1080   11.9461    8.1542 H        43   C58       0.2029
   1375 H5         35.3741    7.4436    5.2276 H        43   C58       0.1928
   1376 H6         35.8220    9.8413    5.3040 H        43   C58       0.1958
   1377 H41        34.6305    5.5587    8.3290 H        43   C58       0.4234
   1378 H42        34.8308    5.4729    6.5933 H        43   C58       0.4234
   1379 HO2'       38.1782   13.2696    8.7951 H        43   C58       0.4186
   1380 P          40.5210   11.4690    6.8880 P.3      44   A59       1.1662
   1381 OP1        41.6850   12.3820    6.6940 O.co2    44   A59      -0.7760
   1382 OP2        40.5220   10.2030    6.1300 O.co2    44   A59      -0.7760
   1383 O5'        40.4140   11.0670    8.4250 O.3      44   A59      -0.4989
   1384 C5'        40.5180   12.0350    9.4740 C.3      44   A59       0.0558
   1385 C4'        40.1040   11.3790   10.7810 C.3      44   A59       0.1065
   1386 O4'        38.8000   10.7640   10.6060 O.3      44   A59      -0.3548
   1387 C3'        40.9900   10.2580   11.2830 C.3      44   A59       0.2022
   1388 O3'        42.0360   10.8210   12.0650 O.3      44   A59      -0.5246
   1389 C2'        40.0490    9.4750   12.1900 C.3      44   A59       0.0670
   1390 O2'        39.8630   10.0510   13.4910 O.3      44   A59      -0.6139
   1391 C1'        38.7720    9.5650   11.3720 C.3      44   A59       0.0394
   1392 N9         38.5800    8.4410   10.4610 N.ar     44   A59      -0.0251
   1393 C8         38.6260    8.4260    9.0960 C.ar     44   A59       0.2006
   1394 N7         38.3650    7.2550    8.5590 N.ar     44   A59      -0.6073
   1395 C5         38.1310    6.4510    9.6700 C.ar     44   A59       0.0515
   1396 C6         37.7760    5.1000    9.7940 C.ar     44   A59       0.7009
   1397 N6         37.6140    4.2810    8.7400 N.pl3    44   A59      -0.9019
   1398 N1         37.6030    4.6260   11.0420 N.ar     44   A59      -0.7615
   1399 C2         37.7560    5.4340   12.0890 C.ar     44   A59       0.5875
   1400 N3         38.0760    6.7280   12.0970 N.ar     44   A59      -0.6997
   1401 C4         38.2470    7.1730   10.8440 C.ar     44   A59       0.3053
   1402 H5'        41.5472   12.3859    9.5491 H        44   A59       0.0679
   1403 H5''       39.8588   12.8768    9.2620 H        44   A59       0.0679
   1404 H4'        40.0323   12.1450   11.5532 H        44   A59       0.1174
   1405 H3'        41.3745    9.6454   10.4675 H        44   A59       0.0615
   1406 H2'        40.3755    8.4385   12.2748 H        44   A59       0.0972
   1407 H1'        37.9236    9.6082   12.0550 H        44   A59       0.2007
   1408 H8         38.8572    9.3018    8.5079 H        44   A59       0.1553
   1409 H2         37.6007    4.9824   13.0577 H        44   A59       0.0473
   1410 H61        37.1656    3.4700    9.1416 H        44   A59       0.4115
   1411 H62        37.8774    4.4389    7.7778 H        44   A59       0.4115
   1412 HO2'       39.1660    9.5793   13.9529 H        44   A59       0.4186
   1413 P          43.4690   10.1410   12.1690 P.3      45   C60       1.1662
   1414 OP1        44.1880   11.0000   13.1520 O.co2    45   C60      -0.7760
   1415 OP2        44.0470    9.8210   10.8580 O.co2    45   C60      -0.7760
   1416 O5'        43.1650    8.7270   12.8750 O.3      45   C60      -0.4989
   1417 C5'        42.8000    8.5770   14.2520 C.3      45   C60       0.0558
   1418 C4'        42.4190    7.1250   14.4790 C.3      45   C60       0.1065
   1419 O4'        41.2400    6.7940   13.6870 O.3      45   C60      -0.3548
   1420 C3'        43.4380    6.1050   13.9920 C.3      45   C60       0.2022
   1421 O3'        44.4820    5.9690   14.9390 O.3      45   C60      -0.5246
   1422 C2'        42.5960    4.8380   13.8690 C.3      45   C60       0.0670
   1423 O2'        42.2210    4.2840   15.1200 O.3      45   C60      -0.6139
   1424 C1'        41.3750    5.4490   13.2140 C.3      45   C60       0.0066
   1425 N1         41.3740    5.4190   11.7130 N.am     45   C60      -0.0484
   1426 C2         40.9940    4.2490   11.0350 C.2      45   C60       0.7538
   1427 O2         40.7110    3.2340   11.6800 O.2      45   C60      -0.6252
   1428 N3         40.9460    4.2320    9.6850 N.2      45   C60      -0.7584
   1429 C4         41.2800    5.3380    8.9860 C.2      45   C60       0.8185
   1430 N4         41.1990    5.2650    7.6570 N.pl3    45   C60      -0.9530
   1431 C5         41.6870    6.5450    9.6420 C.2      45   C60      -0.5215
   1432 C6         41.7070    6.5460   10.9850 C.2      45   C60       0.0053
   1433 H5'        41.9524    9.2224   14.4826 H        45   C60       0.0679
   1434 H5''       43.6458    8.8392   14.8876 H        45   C60       0.0679
   1435 H4'        42.2101    6.9604   15.5361 H        45   C60       0.1174
   1436 H3'        43.8373    6.3958   13.0203 H        45   C60       0.0615
   1437 H2'        43.0717    4.0977   13.2257 H        45   C60       0.0972
   1438 H1'        40.5035    4.8904   13.5555 H        45   C60       0.2029
   1439 H5         41.9674    7.4219    9.0773 H        45   C60       0.1928
   1440 H6         41.9896    7.4477   11.5080 H        45   C60       0.1958
   1441 H41        40.9039    4.4059    7.2155 H        45   C60       0.4234
   1442 H42        41.4328    6.0688    7.0919 H        45   C60       0.4234
   1443 HO2'       42.3198    3.3296   15.0903 H        45   C60       0.4186
   1444 P          45.9360    5.5030   14.5020 P.3      46   C61       1.1662
   1445 OP1        46.7840    5.8400   15.6820 O.co2    46   C61      -0.7760
   1446 OP2        46.2970    5.9820   13.1360 O.co2    46   C61      -0.7760
   1447 O5'        45.8180    3.9220   14.3320 O.3      46   C61      -0.4989
   1448 C5'        45.4400    3.0700   15.4300 C.3      46   C61       0.0558
   1449 C4'        45.0050    1.7210   14.8800 C.3      46   C61       0.1065
   1450 O4'        43.9050    1.8760   13.9340 O.3      46   C61      -0.3548
   1451 C3'        46.0720    0.9890   14.0780 C.3      46   C61       0.2022
   1452 O3'        46.9210    0.3090   14.9690 O.3      46   C61      -0.5246
   1453 C2'        45.2390    0.0000   13.2830 C.3      46   C61       0.0670
   1454 O2'        44.8020   -1.0600   14.1310 O.3      46   C61      -0.6139
   1455 C1'        44.0480    0.8760   12.9410 C.3      46   C61       0.0066
   1456 N1         44.0820    1.5780   11.6310 N.am     46   C61      -0.0484
   1457 C2         43.6210    0.8750   10.5140 C.2      46   C61       0.7538
   1458 O2         43.2460   -0.3000   10.6250 O.2      46   C61      -0.6252
   1459 N3         43.5790    1.5280    9.3190 N.2      46   C61      -0.7584
   1460 C4         43.9970    2.8130    9.2670 C.2      46   C61       0.8185
   1461 N4         43.9420    3.4150    8.0700 N.pl3    46   C61      -0.9530
   1462 C5         44.4760    3.5450   10.3970 C.2      46   C61      -0.5215
   1463 C6         44.4810    2.8870   11.5680 C.2      46   C61       0.0053
   1464 H5'        46.2907    2.9354   16.0981 H        46   C61       0.0679
   1465 H5''       44.6142    3.5246   15.9773 H        46   C61       0.0679
   1466 H4'        44.6802    1.0868   15.7048 H        46   C61       0.1174
   1467 H3'        46.6260    1.6664   13.4281 H        46   C61       0.0615
   1468 H2'        45.7576   -0.3631   12.3957 H        46   C61       0.0972
   1469 H1'        43.1551    0.2513   12.9634 H        46   C61       0.2029
   1470 H5         44.8142    4.5674   10.3143 H        46   C61       0.1928
   1471 H6         44.8019    3.3935   12.4663 H        46   C61       0.1958
   1472 H41        43.6030    2.9081    7.2649 H        46   C61       0.4234
   1473 H42        44.2396    4.3753    7.9736 H        46   C61       0.4234
   1474 HO2'       43.9888   -1.4337   13.7837 H        46   C61       0.4186
   1475 P          48.4770    0.6540   14.9680 P.3      47   G62       1.1662
   1476 OP1        49.0090    0.1460   16.2630 O.co2    47   G62      -0.7760
   1477 OP2        48.6990    2.0550   14.5810 O.co2    47   G62      -0.7760
   1478 O5'        49.0090   -0.2920   13.8190 O.3      47   G62      -0.4989
   1479 C5'        50.3840   -0.6310   13.7880 C.3      47   G62       0.0558
   1480 C4'        50.7820   -1.0700   12.3900 C.3      47   G62       0.1065
   1481 O4'        50.5680    0.0150   11.4500 O.3      47   G62      -0.3548
   1482 C3'        52.2500   -1.4530   12.2380 C.3      47   G62       0.2022
   1483 O3'        52.2940   -2.5400   11.3380 O.3      47   G62      -0.5246
   1484 C2'        52.9000   -0.1960   11.6590 C.3      47   G62       0.0670
   1485 O2'        54.0610   -0.4700   10.8970 O.3      47   G62      -0.6139
   1486 C1'        51.7700    0.2970   10.7510 C.3      47   G62       0.0191
   1487 N9         51.7800    1.7190   10.3800 N.ar     47   G62       0.0492
   1488 C8         52.1850    2.8100   11.1260 C.ar     47   G62       0.1374
   1489 N7         52.0570    3.9500   10.5010 N.ar     47   G62      -0.5709
   1490 C5         51.5310    3.5960    9.2660 C.ar     47   G62       0.1744
   1491 C6         51.1680    4.3930    8.1530 C.2      47   G62       0.4770
   1492 O6         51.2500    5.6260    8.0290 O.2      47   G62      -0.5597
   1493 N1         50.6630    3.6250    7.1000 N.am     47   G62      -0.4787
   1494 C2         50.5310    2.2590    7.1050 C.2      47   G62       0.7657
   1495 N2         50.0230    1.6810    6.0020 N.pl3    47   G62      -0.9672
   1496 N3         50.8580    1.5040    8.1420 N.2      47   G62      -0.6323
   1497 C4         51.3470    2.2330    9.1800 C.ar     47   G62       0.1222
   1498 H5'        50.9760    0.2381   14.0750 H        47   G62       0.0679
   1499 H5''       50.5718   -1.4439   14.4894 H        47   G62       0.0679
   1500 H4'        50.1636   -1.9183   12.0968 H        47   G62       0.1174
   1501 H3'        52.6904   -1.7182   13.1992 H        47   G62       0.0615
   1502 H2'        53.1124    0.5292   12.4445 H        47   G62       0.0972
   1503 H1'        51.7818   -0.2959    9.8364 H        47   G62       0.2006
   1504 H8         52.5710    2.7277   12.1313 H        47   G62       0.1640
   1505 H1         50.3712    4.1157    6.2669 H        47   G62       0.3424
   1506 H21        49.7628    2.2490    5.2084 H        47   G62       0.4364
   1507 H22        49.9017    0.6789    5.9673 H        47   G62       0.4364
   1508 HO2'       54.7604   -0.7778   11.4781 H        47   G62       0.4186
   1509 P          52.9480   -3.9240   11.7740 P.3      48   U63       1.1662
   1510 OP1        53.1190   -3.9500   13.2450 O.co2    48   U63      -0.7760
   1511 OP2        54.0810   -4.1230   10.8490 O.co2    48   U63      -0.7760
   1512 O5'        51.8940   -5.0420   11.3600 O.3      48   U63      -0.4989
   1513 C5'        50.6810   -5.2840   12.0790 C.3      48   U63       0.0558
   1514 C4'        49.7770   -6.1080   11.1800 C.3      48   U63       0.1065
   1515 O4'        49.0070   -5.1880   10.3610 O.3      48   U63      -0.3548
   1516 C3'        50.5120   -7.0200   10.1940 C.3      48   U63       0.2022
   1517 O3'        49.7740   -8.2040    9.9900 O.3      48   U63      -0.5246
   1518 C2'        50.5610   -6.1800    8.9150 C.3      48   U63       0.0670
   1519 O2'        50.6520   -6.9520    7.7390 O.3      48   U63      -0.6139
   1520 C1'        49.2020   -5.4840    8.9920 C.3      48   U63       0.0674
   1521 N1         49.1210   -4.2250    8.1670 N.am     48   U63       0.0418
   1522 C2         48.4770   -4.2790    6.9370 C.2      48   U63       0.4687
   1523 O2         47.9770   -5.2940    6.4740 O.2      48   U63      -0.5477
   1524 N3         48.4400   -3.0860    6.2480 N.am     48   U63      -0.3549
   1525 C4         48.9830   -1.8760    6.6470 C.2      48   U63       0.5952
   1526 O4         48.8840   -0.8920    5.9210 O.2      48   U63      -0.5761
   1527 C5         49.6380   -1.8900    7.9420 C.2      48   U63      -0.3635
   1528 C6         49.6750   -3.0410    8.6370 C.2      48   U63      -0.1126
   1529 H5'        50.8948   -5.8330   12.9960 H        48   U63       0.0679
   1530 H5''       50.1987   -4.3366   12.3195 H        48   U63       0.0679
   1531 H4'        49.1003   -6.7041   11.7922 H        48   U63       0.1174
   1532 H3'        51.5175   -7.2455   10.5492 H        48   U63       0.0615
   1533 H2'        51.3707   -5.4519    8.9623 H        48   U63       0.0972
   1534 H1'        48.4273   -6.1766    8.6629 H        48   U63       0.1824
   1535 H3         47.9659   -3.0951    5.3562 H        48   U63       0.3154
   1536 H5         50.0876   -0.9925    8.3404 H        48   U63       0.1811
   1537 H6         50.1569   -3.0448    9.6035 H        48   U63       0.2188
   1538 HO2'       51.5093   -7.3827    7.7039 H        48   U63       0.4186
   1539 P          50.2200   -9.5810   10.6790 P.3      49   A64       1.1662
   1540 OP1        51.6650   -9.4910   11.0020 O.co2    49   A64      -0.7760
   1541 OP2        49.6770  -10.6580    9.8250 O.co2    49   A64      -0.7760
   1542 O5'        49.4390   -9.5500   12.0740 O.3      49   A64      -0.4989
   1543 C5'        48.0500   -9.6890   12.1080 C.3      49   A64       0.0558
   1544 C4'        47.5050   -9.1510   13.4120 C.3      49   A64       0.1065
   1545 O4'        47.6750   -7.7050   13.4830 O.3      49   A64      -0.3548
   1546 C3'        46.0150   -9.4130   13.5220 C.3      49   A64       0.2022
   1547 O3'        45.8040  -10.5770   14.3110 O.3      49   A64      -0.5246
   1548 C2'        45.4720   -8.1410   14.1670 C.3      49   A64       0.0670
   1549 O2'        45.5940   -8.1640   15.5750 O.3      49   A64      -0.6139
   1550 C1'        46.4080   -7.0670   13.6300 C.3      49   A64       0.0394
   1551 N9         46.1080   -6.4170   12.3440 N.ar     49   A64      -0.0251
   1552 C8         45.6180   -6.9700   11.1790 C.ar     49   A64       0.2006
   1553 N7         45.5110   -6.1010   10.1890 N.ar     49   A64      -0.6073
   1554 C5         45.9670   -4.9070   10.7280 C.ar     49   A64       0.0515
   1555 C6         46.1130   -3.5990   10.2000 C.ar     49   A64       0.7009
   1556 N6         45.8050   -3.2580    8.9400 N.pl3    49   A64      -0.9019
   1557 N1         46.6110   -2.6430   11.0150 N.ar     49   A64      -0.7615
   1558 C2         46.9410   -2.9640   12.2790 C.ar     49   A64       0.5875
   1559 N3         46.8380   -4.1500   12.8900 N.ar     49   A64      -0.6997
   1560 C4         46.3450   -5.0870   12.0560 C.ar     49   A64       0.3053
   1561 H5'        47.6120   -9.1342   11.2783 H        49   A64       0.0679
   1562 H5''       47.7899  -10.7434   12.0151 H        49   A64       0.0679
   1563 H4'        48.0225   -9.6222   14.2476 H        49   A64       0.1174
   1564 H3'        45.5821   -9.5467   12.5306 H        49   A64       0.0615
   1565 H2'        44.4419   -7.9539   13.8636 H        49   A64       0.0972
   1566 H1'        46.5047   -6.2904   14.3887 H        49   A64       0.2007
   1567 H8         45.3481   -8.0115   11.0851 H        49   A64       0.1553
   1568 H2         47.3411   -2.1598   12.8787 H        49   A64       0.0473
   1569 HO2'       44.7249   -8.2641   15.9704 H        49   A64       0.4186
   1570 H61        46.0394   -2.2918    8.7619 H        49   A64       0.4115
   1571 H62        45.3942   -3.8828    8.2611 H        49   A64       0.4115
   1572 P          44.4960  -11.4630   14.1020 P.3      50   A65       1.1662
   1573 OP1        44.6560  -12.6720   14.9560 O.co2    50   A65      -0.7760
   1574 OP2        44.1470  -11.5820   12.6650 O.co2    50   A65      -0.7760
   1575 O5'        43.4000  -10.5440   14.8000 O.3      50   A65      -0.4989
   1576 C5'        43.3080  -10.4130   16.2210 C.3      50   A65       0.0558
   1577 C4'        42.2780   -9.3410   16.5340 C.3      50   A65       0.1065
   1578 O4'        42.6620   -8.0980   15.8610 O.3      50   A65      -0.3548
   1579 C3'        40.8470   -9.6470   16.0980 C.3      50   A65       0.2022
   1580 O3'        39.9990   -9.0190   17.0640 O.3      50   A65      -0.5246
   1581 C2'        40.7870   -8.9500   14.7250 C.3      50   A65       0.0670
   1582 O2'        39.4620   -8.6830   14.2540 O.3      50   A65      -0.6139
   1583 C1'        41.5450   -7.6820   15.1070 C.3      50   A65       0.0394
   1584 N9         41.9320   -6.8630   13.9540 N.ar     50   A65      -0.0251
   1585 C8         41.9510   -7.2300   12.6280 C.ar     50   A65       0.2006
   1586 N7         42.3150   -6.2310   11.8280 N.ar     50   A65      -0.6073
   1587 C5         42.5440   -5.1730   12.6960 C.ar     50   A65       0.0515
   1588 C6         42.9200   -3.8380   12.4720 C.ar     50   A65       0.7009
   1589 N6         43.1750   -3.3330   11.2540 N.pl3    50   A65      -0.9019
   1590 N1         43.0500   -3.0300   13.5470 N.ar     50   A65      -0.7615
   1591 C2         42.7860   -3.5310   14.7720 C.ar     50   A65       0.5875
   1592 N3         42.4140   -4.7740   15.0970 N.ar     50   A65      -0.6997
   1593 C4         42.3050   -5.5440   14.0070 C.ar     50   A65       0.3053
   1594 H5'        42.9978  -11.3615   16.6594 H        50   A65       0.0679
   1595 H5''       44.2768  -10.1207   16.6262 H        50   A65       0.0679
   1596 H4'        42.2801   -9.1650   17.6097 H        50   A65       0.1174
   1597 H3'        40.6608  -10.7184   16.0230 H        50   A65       0.0615
   1598 H2'        41.3472   -9.5199   13.9837 H        50   A65       0.0972
   1599 H1'        40.9028   -7.0818   15.7515 H        50   A65       0.2007
   1600 H8         41.6985   -8.2192   12.2756 H        50   A65       0.1553
   1601 H2         42.8882   -2.8397   15.5954 H        50   A65       0.0473
   1602 H61        42.8663   -3.9196   10.4920 H        50   A65       0.4115
   1603 H62        43.6349   -2.4450   11.1125 H        50   A65       0.4115
   1604 HO2'       38.9950   -9.5116   14.1243 H        50   A65       0.4186
   1605 P          38.6690   -9.6220   17.7090 P.3      51   A66       1.1662
   1606 OP1        39.0500  -10.0550   19.1020 O.co2    51   A66      -0.7760
   1607 OP2        38.0610  -10.6260   16.8030 O.co2    51   A66      -0.7760
   1608 O5'        37.7250   -8.3560   17.8790 O.3      51   A66      -0.4989
   1609 C5'        37.2220   -7.6300   16.7630 C.3      51   A66       0.0558
   1610 C4'        37.6080   -6.1680   16.9620 C.3      51   A66       0.1065
   1611 O4'        38.9660   -5.8910   16.5180 O.3      51   A66      -0.3548
   1612 C3'        36.7890   -5.1900   16.1620 C.3      51   A66       0.2022
   1613 O3'        35.4650   -5.0550   16.6660 O.3      51   A66      -0.5246
   1614 C2'        37.6760   -3.9580   16.3420 C.3      51   A66       0.0670
   1615 O2'        37.5550   -3.3850   17.6400 O.3      51   A66      -0.6139
   1616 C1'        39.0570   -4.5510   16.0550 C.3      51   A66       0.0394
   1617 N9         39.2100   -4.5090   14.6050 N.ar     51   A66      -0.0251
   1618 C8         39.0490   -5.4950   13.6850 C.ar     51   A66       0.2006
   1619 N7         39.1840   -5.0860   12.4400 N.ar     51   A66      -0.6073
   1620 C5         39.4180   -3.7250   12.5600 C.ar     51   A66       0.0515
   1621 C6         39.6250   -2.6900   11.6170 C.ar     51   A66       0.7009
   1622 N6         39.6330   -2.9160   10.3000 N.pl3    51   A66      -0.9019
   1623 N1         39.8050   -1.4390   12.1030 N.ar     51   A66      -0.7615
   1624 C2         39.7920   -1.2190   13.4160 C.ar     51   A66       0.5875
   1625 N3         39.6050   -2.1180   14.3830 N.ar     51   A66      -0.6997
   1626 C4         39.4130   -3.3460   13.8800 C.ar     51   A66       0.3053
   1627 H5'        37.6630   -8.0100   15.8415 H        51   A66       0.0679
   1628 H5''       36.1369   -7.7234   16.7197 H        51   A66       0.0679
   1629 H4'        37.5232   -5.9197   18.0199 H        51   A66       0.1174
   1630 H3'        36.7649   -5.4873   15.1136 H        51   A66       0.0615
   1631 H2'        37.4301   -3.2128   15.5855 H        51   A66       0.0972
   1632 H1'        39.8485   -3.9995   16.5624 H        51   A66       0.2007
   1633 H8         38.8306   -6.5191   13.9495 H        51   A66       0.1553
   1634 H2         39.9506   -0.1989   13.7333 H        51   A66       0.0473
   1635 H61        39.4661   -3.8641    9.9945 H        51   A66       0.4115
   1636 H62        39.7988   -2.1709    9.6386 H        51   A66       0.4115
   1637 HO2'       38.1278   -2.6175   17.7061 H        51   A66       0.4186
   1638 P          34.2190   -5.1180   15.7040 P.3      52   U67       1.1662
   1639 OP1        32.9520   -4.8390   16.4390 O.co2    52   U67      -0.7760
   1640 OP2        34.3760   -6.3860   14.9070 O.co2    52   U67      -0.7760
   1641 O5'        34.5130   -3.9510   14.6350 O.3      52   U67      -0.4989
   1642 C5'        33.9100   -2.6730   14.8190 C.3      52   U67       0.0558
   1643 C4'        34.8570   -1.7320   15.5170 C.3      52   U67       0.1065
   1644 O4'        36.0690   -1.5410   14.7340 O.3      52   U67      -0.3548
   1645 C3'        34.2750   -0.3270   15.5890 C.3      52   U67       0.2022
   1646 O3'        33.4020   -0.2010   16.7090 O.3      52   U67      -0.5246
   1647 C2'        35.5160    0.5370   15.7140 C.3      52   U67       0.0670
   1648 O2'        36.0280    0.4990   17.0360 O.3      52   U67      -0.6139
   1649 C1'        36.4470   -0.1790   14.7520 C.3      52   U67       0.0674
   1650 N1         36.4020    0.3290   13.3510 N.am     52   U67       0.0418
   1651 C2         36.9110    1.5900   13.0780 C.2      52   U67       0.4687
   1652 O2         37.3280    2.3670   13.9120 O.2      52   U67      -0.5477
   1653 N3         36.8510    1.9590   11.7670 N.am     52   U67      -0.3549
   1654 C4         36.3710    1.1980   10.7090 C.2      52   U67       0.5952
   1655 O4         36.3920    1.6840    9.5780 O.2      52   U67      -0.5761
   1656 C5         35.8810   -0.1120   11.0600 C.2      52   U67      -0.3635
   1657 C6         35.9320   -0.5050   12.3410 C.2      52   U67      -0.1126
   1658 H5'        33.0092   -2.7862   15.4222 H        52   U67       0.0679
   1659 H5''       33.6423   -2.2584   13.8471 H        52   U67       0.0679
   1660 H4'        35.0980   -2.0995   16.5145 H        52   U67       0.1174
   1661 H3'        33.7427   -0.0915   14.6674 H        52   U67       0.0615
   1662 H2'        35.3221    1.5602   15.3921 H        52   U67       0.0972
   1663 H1'        37.4685   -0.1004   15.1240 H        52   U67       0.1824
   1664 H3         37.1913    2.8828   11.5414 H        52   U67       0.3154
   1665 H5         35.4786   -0.7674   10.3018 H        52   U67       0.1811
   1666 H6         35.5979   -1.4997   12.5969 H        52   U67       0.2188
   1667 HO2'       36.8112    1.0513   17.0923 H        52   U67       0.4186
   1668 P          32.1130    0.7060   16.6070 P.3      53   G68       1.1662
   1669 OP1        31.2970    0.4290   17.8230 O.co2    53   G68      -0.7760
   1670 OP2        31.4470    0.5670   15.2890 O.co2    53   G68      -0.7760
   1671 O5'        32.6700    2.1970   16.6600 O.3      53   G68      -0.4989
   1672 C5'        33.1470    2.7260   17.8970 C.3      53   G68       0.0558
   1673 C4'        33.7370    4.1120   17.7180 C.3      53   G68       0.1065
   1674 O4'        34.7950    4.0450   16.7400 O.3      53   G68      -0.3548
   1675 C3'        32.7530    5.0960   17.1130 C.3      53   G68       0.2022
   1676 O3'        31.9790    5.7130   18.1430 O.3      53   G68      -0.5246
   1677 C2'        33.7140    6.1170   16.5250 C.3      53   G68       0.0670
   1678 O2'        34.2350    6.9820   17.5330 O.3      53   G68      -0.6139
   1679 C1'        34.7490    5.2010   15.9100 C.3      53   G68       0.0191
   1680 N9         34.4510    4.7820   14.5270 N.ar     53   G68       0.0492
   1681 C8         34.0110    3.5680   14.0410 C.ar     53   G68       0.1374
   1682 N7         33.8530    3.5190   12.7420 N.ar     53   G68      -0.5709
   1683 C5         34.2300    4.8010   12.3310 C.ar     53   G68       0.1744
   1684 C6         34.2510    5.3840   11.0290 C.2      53   G68       0.4770
   1685 O6         33.9750    4.8250    9.9560 O.2      53   G68      -0.5597
   1686 N1         34.6790    6.7190   11.0670 N.am     53   G68      -0.4787
   1687 C2         35.0130    7.4080   12.2130 C.2      53   G68       0.7657
   1688 N2         35.4100    8.6790   12.1060 N.pl3    53   G68      -0.9672
   1689 N3         34.9890    6.8640   13.4320 N.2      53   G68      -0.6323
   1690 C4         34.5860    5.5810   13.4070 C.ar     53   G68       0.1222
   1691 H5'        33.9157    2.0624   18.2930 H        53   G68       0.0679
   1692 H5''       32.3204    2.7783   18.6056 H        53   G68       0.0679
   1693 H4'        34.1185    4.4892   18.6668 H        53   G68       0.1174
   1694 H3'        32.1269    4.6340   16.3496 H        53   G68       0.0615
   1695 H2'        33.2171    6.6990   15.7489 H        53   G68       0.0972
   1696 H1'        35.7205    5.6948   15.9318 H        53   G68       0.2006
   1697 H8         33.8121    2.7226   14.6830 H        53   G68       0.1640
   1698 H1         34.7476    7.2126   10.1885 H        53   G68       0.3424
   1699 H21        35.4509    9.1206   11.1986 H        53   G68       0.4364
   1700 H22        35.6693    9.1984   12.9325 H        53   G68       0.4364
   1701 HO2'       33.8562    7.8581   17.4305 H        53   G68       0.4186
   1702 P          30.5180    6.2600   17.9610 P.3      54   U69       1.1662
   1703 OP1        30.0630    6.6500   19.3430 O.co2    54   U69      -0.7760
   1704 OP2        29.7320    5.3390   17.0880 O.co2    54   U69      -0.7760
   1705 O5'        30.7070    7.6030   17.0930 O.3      54   U69      -0.4989
   1706 C5'        31.4620    8.7050   17.6200 C.3      54   U69       0.0558
   1707 C4'        31.7910    9.6980   16.5010 C.3      54   U69       0.1065
   1708 O4'        32.6420    9.0540   15.5280 O.3      54   U69      -0.3548
   1709 C3'        30.5950   10.1330   15.6700 C.3      54   U69       0.2022
   1710 O3'        29.9020   11.1820   16.2890 O.3      54   U69      -0.5246
   1711 C2'        31.2420   10.5430   14.3470 C.3      54   U69       0.0670
   1712 O2'        31.9520   11.7660   14.3560 O.3      54   U69      -0.6139
   1713 C1'        32.2680    9.4520   14.2080 C.3      54   U69       0.0674
   1714 N1         31.8220    8.2760   13.4100 N.am     54   U69       0.0418
   1715 C2         31.8920    8.3770   12.0250 C.2      54   U69       0.4687
   1716 O2         32.2570    9.3880   11.4560 O.2      54   U69      -0.5477
   1717 N3         31.4980    7.2610   11.3420 N.am     54   U69      -0.3549
   1718 C4         31.0520    6.0720   11.8800 C.2      54   U69       0.5952
   1719 O4         30.7380    5.1510   11.1260 O.2      54   U69      -0.5761
   1720 C5         31.0030    6.0300   13.3270 C.2      54   U69      -0.3635
   1721 C6         31.3830    7.1110   14.0320 C.2      54   U69      -0.1126
   1722 H5'        32.3890    8.3318   18.0552 H        54   U69       0.0679
   1723 H5''       30.8777    9.2084   18.3902 H        54   U69       0.0679
   1724 H4'        32.2941   10.5718   16.9150 H        54   U69       0.1174
   1725 H3'        29.9255    9.2877   15.5106 H        54   U69       0.0615
   1726 H2'        30.5212   10.5121   13.5299 H        54   U69       0.0972
   1727 H1'        33.1468    9.8756   13.7219 H        54   U69       0.1824
   1728 H3         31.5377    7.3124   10.3341 H        54   U69       0.3154
   1729 H5         30.6646    5.1392   13.8353 H        54   U69       0.1811
   1730 H6         31.3463    7.0737   15.1107 H        54   U69       0.2188
   1731 HO2'       31.4490   12.4321   13.8817 H        54   U69       0.4186
   1732 P          28.3480   11.4050   16.1330 P.3      55   C70       1.1662
   1733 OP1        27.9410   12.3030   17.2490 O.co2    55   C70      -0.7760
   1734 OP2        27.6430   10.1010   15.9250 O.co2    55   C70      -0.7760
   1735 O5'        28.1920   12.1810   14.7410 O.3      55   C70      -0.4989
   1736 C5'        28.7160   13.5150   14.5860 C.3      55   C70       0.0558
   1737 C4'        28.7410   13.8690   13.1100 C.3      55   C70       0.1065
   1738 O4'        29.6200   12.9560   12.4200 O.3      55   C70      -0.3548
   1739 C3'        27.4440   13.7110   12.3240 C.3      55   C70       0.2022
   1740 O3'        26.5880   14.8270   12.5230 O.3      55   C70      -0.5246
   1741 C2'        27.9650   13.6480   10.9040 C.3      55   C70       0.0670
   1742 O2'        28.4130   14.9110   10.4180 O.3      55   C70      -0.6139
   1743 C1'        29.1410   12.7150   11.1000 C.3      55   C70       0.0066
   1744 N1         28.8630   11.2370   10.8920 N.am     55   C70      -0.0484
   1745 C2         28.8680   10.6800    9.6070 C.2      55   C70       0.7538
   1746 O2         29.0580   11.4220    8.6260 O.2      55   C70      -0.6252
   1747 N3         28.6480    9.3440    9.4500 N.2      55   C70      -0.7584
   1748 C4         28.4440    8.5810   10.5460 C.2      55   C70       0.8185
   1749 N4         28.2410    7.2720   10.3820 N.pl3    55   C70      -0.9530
   1750 C5         28.4370    9.1380   11.8570 C.2      55   C70      -0.5215
   1751 C6         28.6490   10.4500   11.9940 C.2      55   C70       0.0053
   1752 H5'        28.0804   14.2213   15.1201 H        55   C70       0.0679
   1753 H5''       29.7280   13.5584   14.9886 H        55   C70       0.0679
   1754 H4'        29.1129   14.8866   12.9901 H        55   C70       0.1174
   1755 H3'        26.9391   12.7831   12.5926 H        55   C70       0.0615
   1756 H2'        27.2249   13.2104   10.2340 H        55   C70       0.0972
   1757 H1'        29.9232   13.0104   10.4007 H        55   C70       0.2029
   1758 H5         28.2642    8.5136   12.7211 H        55   C70       0.1928
   1759 H6         28.6518   10.8933   12.9788 H        55   C70       0.1958
   1760 H41        28.2437    6.8729    9.4542 H        55   C70       0.4234
   1761 H42        28.0847    6.6806   11.1857 H        55   C70       0.4234
   1762 HO2'       27.9680   15.1125    9.5916 H        55   C70       0.4186
   1763 P          25.0440   14.6690   12.6580 P.3      56   C71       1.1662
   1764 OP1        24.5550   15.9450   13.2380 O.co2    56   C71      -0.7760
   1765 OP2        24.6740   13.4210   13.3660 O.co2    56   C71      -0.7760
   1766 O5'        24.4960   14.5000   11.1910 O.3      56   C71      -0.4989
   1767 C5'        24.5660   15.5990   10.2590 C.3      56   C71       0.0558
   1768 C4'        24.5720   15.1000    8.8240 C.3      56   C71       0.1065
   1769 O4'        25.6580   14.1580    8.6690 O.3      56   C71      -0.3548
   1770 C3'        23.3720   14.2690    8.3980 C.3      56   C71       0.2022
   1771 O3'        22.2540   15.0300    8.0630 O.3      56   C71      -0.5246
   1772 C2'        23.9420   13.5850    7.1650 C.3      56   C71       0.0670
   1773 O2'        24.0920   14.4800    6.0700 O.3      56   C71      -0.6139
   1774 C1'        25.2840   13.1720    7.7260 C.3      56   C71       0.0066
   1775 N1         25.2700   11.8230    8.3860 N.am     56   C71      -0.0484
   1776 C2         25.3340   10.6990    7.5470 C.2      56   C71       0.7538
   1777 O2         25.3730   10.8640    6.3220 O.2      56   C71      -0.6252
   1778 N3         25.3350    9.4920    8.1290 N.2      56   C71      -0.7584
   1779 C4         25.2620    9.3720    9.4630 C.2      56   C71       0.8185
   1780 N4         25.2600    8.1430    9.9910 N.pl3    56   C71      -0.9530
   1781 C5         25.1960   10.5050   10.3500 C.2      56   C71      -0.5215
   1782 C6         25.1880   11.7060    9.7480 C.2      56   C71       0.0053
   1783 H5'        23.7018   16.2466   10.4069 H        56   C71       0.0679
   1784 H5''       25.4767   16.1686   10.4442 H        56   C71       0.0679
   1785 H4'        24.7059   15.9377    8.1396 H        56   C71       0.1174
   1786 H3'        23.1217   13.5347    9.1637 H        56   C71       0.0615
   1787 H2'        23.3468   12.7157    6.8854 H        56   C71       0.0972
   1788 H1'        26.0156   13.1615    6.9181 H        56   C71       0.2029
   1789 H5         25.1558   10.3966   11.4238 H        56   C71       0.1928
   1790 H6         25.1153   12.5988   10.3514 H        56   C71       0.1958
   1791 H41        25.3091    7.3342    9.3880 H        56   C71       0.4234
   1792 H42        25.2094    8.0238   10.9927 H        56   C71       0.4234
   1793 HO2'       24.5954   14.0520    5.3735 H        56   C71       0.4186
   1794 P          20.7540   14.5060    8.2080 P.3      57   G72       1.1662
   1795 OP1        19.8360   15.5860    7.8030 O.co2    57   G72      -0.7760
   1796 OP2        20.5970   13.8080    9.5070 O.co2    57   G72      -0.7760
   1797 O5'        20.6870   13.3020    7.1300 O.3      57   G72      -0.4989
   1798 C5'        20.7430   13.6000    5.7460 C.3      57   G72       0.0558
   1799 C4'        20.7560   12.2990    4.9650 C.3      57   G72       0.1065
   1800 O4'        21.9810   11.5640    5.2150 O.3      57   G72      -0.3548
   1801 C3'        19.6490   11.3150    5.2950 C.3      57   G72       0.2022
   1802 O3'        18.5010   11.7430    4.5980 O.3      57   G72      -0.5246
   1803 C2'        20.2620   10.0300    4.7440 C.3      57   G72       0.0670
   1804 O2'        20.1610    9.9850    3.3390 O.3      57   G72      -0.6139
   1805 C1'        21.7310   10.1720    5.1650 C.3      57   G72       0.0191
   1806 N9         21.9390    9.5480    6.4700 N.ar     57   G72       0.0492
   1807 C8         21.9940   10.1370    7.7240 C.ar     57   G72       0.1374
   1808 N7         22.1590    9.2730    8.6980 N.ar     57   G72      -0.5709
   1809 C5         22.2120    8.0310    8.0540 C.ar     57   G72       0.1744
   1810 C6         22.3710    6.7190    8.5560 C.2      57   G72       0.4770
   1811 O6         22.5060    6.2920    9.7280 O.2      57   G72      -0.5597
   1812 N1         22.3580    5.7730    7.5070 N.am     57   G72      -0.4787
   1813 C2         22.2020    6.0520    6.1720 C.2      57   G72       0.7657
   1814 N2         22.1950    5.0250    5.2990 N.pl3    57   G72      -0.9672
   1815 N3         22.0620    7.2690    5.6910 N.2      57   G72      -0.6323
   1816 C4         22.0760    8.2020    6.6910 C.ar     57   G72       0.1222
   1817 H5'        19.8703   14.1884    5.4626 H        57   G72       0.0679
   1818 H5''       21.6500   14.1647    5.5303 H        57   G72       0.0679
   1819 H4'        20.7044   12.5335    3.9018 H        57   G72       0.1174
   1820 H3'        19.4707   11.2509    6.3684 H        57   G72       0.0615
   1821 H2'        19.8061    9.1507    5.1990 H        57   G72       0.0972
   1822 H1'        22.3774    9.7046    4.4222 H        57   G72       0.2006
   1823 H8         21.9094   11.2018    7.8835 H        57   G72       0.1640
   1824 H1         22.4741    4.8028    7.7625 H        57   G72       0.3424
   1825 H21        22.3015    4.0777    5.6328 H        57   G72       0.4364
   1826 H22        22.0833    5.2028    4.3111 H        57   G72       0.4364
   1827 HO2'       19.2390    9.8962    3.0867 H        57   G72       0.4186
   1828 P          17.0150   11.4660    5.1200 P.3      58   A73       1.1662
   1829 OP1        16.0970   12.3450    4.3630 O.co2    58   A73      -0.7760
   1830 OP2        16.9180   11.4450    6.5890 O.co2    58   A73      -0.7760
   1831 O5'        16.8340    9.9670    4.6190 O.3      58   A73      -0.4989
   1832 C5'        15.5920    9.3170    4.8060 C.3      58   A73       0.0558
   1833 C4'        15.6970    7.9290    4.2050 C.3      58   A73       0.1065
   1834 O4'        16.6690    7.1500    4.9500 O.3      58   A73      -0.3548
   1835 C3'        14.4180    7.1300    4.3230 C.3      58   A73       0.2022
   1836 O3'        13.6130    7.3760    3.2000 O.3      58   A73      -0.5246
   1837 C2'        14.9350    5.7020    4.3500 C.3      58   A73       0.0670
   1838 O2'        15.4070    5.2990    3.0790 O.3      58   A73      -0.6139
   1839 C1'        16.1410    5.8710    5.2590 C.3      58   A73       0.0394
   1840 N9         15.9390    5.7360    6.7110 N.ar     58   A73      -0.0251
   1841 C8         15.8750    6.7090    7.6730 C.ar     58   A73       0.2006
   1842 N7         15.7220    6.2350    8.8970 N.ar     58   A73      -0.6073
   1843 C5         15.6890    4.8650    8.7180 C.ar     58   A73       0.0515
   1844 C6         15.5410    3.7880    9.6060 C.ar     58   A73       0.7009
   1845 N6         15.4050    3.9490   10.9260 N.pl3    58   A73      -0.9019
   1846 N1         15.5570    2.5350    9.0910 N.ar     58   A73      -0.7615
   1847 C2         15.7000    2.3710    7.7720 C.ar     58   A73       0.5875
   1848 N3         15.8250    3.3150    6.8400 N.ar     58   A73      -0.6997
   1849 C4         15.8210    4.5430    7.3810 C.ar     58   A73       0.3053
   1850 H5'        15.3692    9.2436    5.8705 H        58   A73       0.0679
   1851 H5''       14.8040    9.8773    4.3028 H        58   A73       0.0679
   1852 H4'        15.9977    7.9979    3.1596 H        58   A73       0.1174
   1853 H3'        13.8888    7.3722    5.2446 H        58   A73       0.0615
   1854 H2'        14.2034    5.0052    4.7592 H        58   A73       0.0972
   1855 H1'        16.8824    5.1297    4.9610 H        58   A73       0.2007
   1856 H8         15.9431    7.7640    7.4520 H        58   A73       0.1553
   1857 H2         15.7162    1.3503    7.4193 H        58   A73       0.0473
   1858 H61        15.3987    4.8775   11.3235 H        58   A73       0.4115
   1859 H62        15.3085    3.1422   11.5259 H        58   A73       0.4115
   1860 HO2'       14.6635    5.1844    2.4826 H        58   A73       0.4186
   1861 P          12.0170    7.3050    3.4060 P.3      59   U74       1.1662
   1862 OP1        11.4520    7.6880    2.0890 O.co2    59   U74      -0.7760
   1863 OP2        11.6230    8.0180    4.6440 O.co2    59   U74      -0.7760
   1864 O5'        11.7280    5.7570    3.6920 O.3      59   U74      -0.4989
   1865 C5'        11.9060    4.7620    2.6970 C.3      59   U74       0.0558
   1866 C4'        11.8620    3.4040    3.3700 C.3      59   U74       0.1065
   1867 O4'        12.9090    3.2850    4.3680 O.3      59   U74      -0.3548
   1868 C3'        10.6140    3.1440    4.1960 C.3      59   U74       0.2022
   1869 O3'         9.5200    2.8580    3.3500 O.3      59   U74      -0.5246
   1870 C2'        11.1020    1.9430    4.9880 C.3      59   U74       0.0670
   1871 O2'        11.3580    0.8070    4.1880 O.3      59   U74      -0.6139
   1872 C1'        12.4370    2.5090    5.4610 C.3      59   U74       0.0674
   1873 N1         12.3670    3.2980    6.7630 N.am     59   U74       0.0418
   1874 C2         12.3730    2.5910    7.9510 C.2      59   U74       0.4687
   1875 O2         12.4400    1.3770    8.0070 O.2      59   U74      -0.5477
   1876 N3         12.3170    3.3560    9.0980 N.am     59   U74      -0.3549
   1877 C4         12.2480    4.7350    9.1740 C.2      59   U74       0.5952
   1878 O4         12.1960    5.2580   10.2870 O.2      59   U74      -0.5761
   1879 C5         12.2340    5.4240    7.8980 C.2      59   U74      -0.3635
   1880 C6         12.2900    4.6840    6.7670 C.2      59   U74      -0.1126
   1881 H5'        11.1082    4.8331    1.9577 H        59   U74       0.0679
   1882 H5''       12.8713    4.8989    2.2096 H        59   U74       0.0679
   1883 H4'        11.9771    2.6197    2.6219 H        59   U74       0.1174
   1884 H3'        10.3942    3.9857    4.8528 H        59   U74       0.0615
   1885 H2'        10.4406    1.7111    5.8228 H        59   U74       0.0972
   1886 H1'        13.1250    1.6762    5.6067 H        59   U74       0.1824
   1887 H3         12.3275    2.8556    9.9753 H        59   U74       0.3154
   1888 H5         12.1802    6.5017    7.8518 H        59   U74       0.1811
   1889 H6         12.2740    5.1984    5.8175 H        59   U74       0.2188
   1890 HO2'       10.5269    0.4373    3.8811 H        59   U74       0.4186
   1891 P           8.0260    3.2600    3.7660 P.3      60   U75       1.1662
   1892 OP1         7.1790    2.8340    2.6230 O.co2    60   U75      -0.7760
   1893 OP2         7.9780    4.6710    4.2100 O.co2    60   U75      -0.7760
   1894 O5'         7.7170    2.3370    5.0390 O.3      60   U75      -0.4989
   1895 C5'         7.7650    0.9110    4.9660 C.3      60   U75       0.0558
   1896 C4'         7.6750    0.2770    6.3430 C.3      60   U75       0.1065
   1897 O4'         8.8260    0.6240    7.1650 O.3      60   U75      -0.3548
   1898 C3'         6.4990    0.7460    7.1730 C.3      60   U75       0.2022
   1899 O3'         5.3120    0.0870    6.7360 O.3      60   U75      -0.5246
   1900 C2'         6.9540    0.3480    8.5730 C.3      60   U75       0.0670
   1901 O2'         6.8570   -1.0380    8.8180 O.3      60   U75      -0.6139
   1902 C1'         8.4230    0.7650    8.5190 C.3      60   U75       0.0674
   1903 N1          8.6360    2.1790    8.9960 N.am     60   U75       0.0418
   1904 C2          8.6880    2.4200   10.3590 C.2      60   U75       0.4687
   1905 O2          8.5690    1.5450   11.2030 O.2      60   U75      -0.5477
   1906 N3          8.8820    3.7340   10.7040 N.am     60   U75      -0.3549
   1907 C4          8.9990    4.8080    9.8400 C.2      60   U75       0.5952
   1908 O4          9.1580    5.9270   10.2970 O.2      60   U75      -0.5761
   1909 C5          8.9240    4.4840    8.4360 C.2      60   U75      -0.3635
   1910 C6          8.7530    3.2110    8.0760 C.2      60   U75      -0.1126
   1911 H5'         6.9300    0.5597    4.3598 H        60   U75       0.0679
   1912 H5''        8.7002    0.6090    4.4945 H        60   U75       0.0679
   1913 H4'         7.6267   -0.8066    6.2350 H        60   U75       0.1174
   1914 H3'         6.3857    1.8276    7.1000 H        60   U75       0.0615
   1915 H2'         6.4164    0.9156    9.3325 H        60   U75       0.0972
   1916 H1'         9.0097    0.0869    9.1387 H        60   U75       0.1824
   1917 H3          8.9460    3.9381   11.6911 H        60   U75       0.3154
   1918 H5          9.0050    5.2595    7.6887 H        60   U75       0.1811
   1919 H6          8.7035    2.9735    7.0236 H        60   U75       0.2188
   1920 HO2'        7.0021   -1.2094    9.7514 H        60   U75       0.4186
   1921 P           3.8940    0.8130    6.8890 P.3      61   A76       1.1662
   1922 OP1         2.9460   -0.0240    6.1170 O.co2    61   A76      -0.7760
   1923 OP2         4.0150    2.2580    6.6090 O.co2    61   A76      -0.7760
   1924 O5'         3.6030    0.6740    8.4510 O.3      61   A76      -0.4989
   1925 C5'         3.3410   -0.5740    9.0580 C.3      61   A76       0.0558
   1926 C4'         3.1750   -0.3770   10.5540 C.3      61   A76       0.1065
   1927 O4'         4.4210    0.1040   11.1190 O.3      61   A76      -0.3548
   1928 C3'         2.1700    0.6850   10.9810 C.3      61   A76       0.2022
   1929 O3'         0.8420    0.2030   10.8880 O.3      61   A76      -0.5246
   1930 C2'         2.6190    0.9680   12.4100 C.3      61   A76       0.0670
   1931 O2'         2.2790   -0.0810   13.2960 O.3      61   A76      -0.6139
   1932 C1'         4.1350    0.9920   12.1910 C.3      61   A76       0.0394
   1933 N9          4.6950    2.3060   11.8880 N.ar     61   A76      -0.0251
   1934 C8          5.0330    2.8160   10.6570 C.ar     61   A76       0.2006
   1935 N7          5.5300    4.0310   10.7120 N.ar     61   A76      -0.6073
   1936 C5          5.5280    4.3330   12.0690 C.ar     61   A76       0.0515
   1937 C6          5.9370    5.4730   12.7990 C.ar     61   A76       0.7009
   1938 N6          6.4500    6.5660   12.2200 N.pl3    61   A76      -0.9019
   1939 N1          5.7960    5.4510   14.1490 N.ar     61   A76      -0.7615
   1940 C2          5.2860    4.3520   14.7250 C.ar     61   A76       0.5875
   1941 N3          4.8740    3.2210   14.1490 N.ar     61   A76      -0.6997
   1942 C4          5.0230    3.2750   12.8080 C.ar     61   A76       0.3053
   1943 H5'         4.1731   -1.2524    8.8700 H        61   A76       0.0679
   1944 H5''        2.4260   -0.9961    8.6425 H        61   A76       0.0679
   1945 H4'         2.9127   -1.3286   11.0163 H        61   A76       0.1174
   1946 H3'         2.2873    1.5788   10.3682 H        61   A76       0.0615
   1947 H2'         2.2487    1.9298   12.7648 H        61   A76       0.0972
   1948 H1'         4.6184    0.6115   13.0908 H        61   A76       0.2007
   1949 H8          4.9026    2.2707    9.7339 H        61   A76       0.1553
   1950 H2          5.1968    4.3874   15.8007 H        61   A76       0.0473
   1951 HO2'        2.8480   -0.0452   14.0684 H        61   A76       0.4186
   1952 H61         7.0710    7.0866   12.8228 H        61   A76       0.4115
   1953 H62         6.2366    6.8429   11.2724 H        61   A76       0.4115
   1954 P          -0.3380    1.1960   10.4710 P.3      62   U77       1.1662
   1955 OP1        -1.5230    0.3280   10.2450 O.co2    62   U77      -0.7760
   1956 OP2         0.1070    2.1460    9.4230 O.co2    62   U77      -0.7760
   1957 O5'        -0.5390    2.0720   11.7760 O.3      62   U77      -0.4989
   1958 C5'        -1.1020    1.5390   12.9520 C.3      62   U77       0.0558
   1959 C4'        -1.0760    2.6530   13.9730 C.3      62   U77       0.1065
   1960 O4'         0.3110    3.0070   14.2050 O.3      62   U77      -0.3548
   1961 C3'        -1.6780    3.9790   13.5230 C.3      62   U77       0.2022
   1962 O3'        -3.1110    4.0090   13.5270 O.3      62   U77      -0.5246
   1963 C2'        -1.0490    4.9180   14.5440 C.3      62   U77       0.0670
   1964 O2'        -1.6290    4.8460   15.8330 O.3      62   U77      -0.6139
   1965 C1'         0.3800    4.3750   14.5710 C.3      62   U77       0.0674
   1966 N1          1.2860    5.1510   13.6620 N.am     62   U77       0.0418
   1967 C2          1.8640    6.3070   14.1540 C.2      62   U77       0.4687
   1968 O2          1.6840    6.7110   15.2890 O.2      62   U77      -0.5477
   1969 N3          2.6800    6.9760   13.2660 N.am     62   U77      -0.3549
   1970 C4          2.9510    6.6130   11.9590 C.2      62   U77       0.5952
   1971 O4          3.6970    7.3110   11.2790 O.2      62   U77      -0.5761
   1972 C5          2.3070    5.4000   11.5140 C.2      62   U77      -0.3635
   1973 C6          1.5140    4.7300   12.3620 C.2      62   U77      -0.1126
   1974 H5'        -2.1275    1.2185   12.7684 H        62   U77       0.0679
   1975 H5''       -0.5052    0.6972   13.3030 H        62   U77       0.0679
   1976 H4'        -1.5414    2.3237   14.9020 H        62   U77       0.1174
   1977 H3'        -1.3113    4.2260   12.5267 H        62   U77       0.0615
   1978 H2'        -1.0606    5.9443   14.1769 H        62   U77       0.0972
   1979 H1'         0.7620    4.4458   15.5894 H        62   U77       0.1824
   1980 H3          3.1252    7.8170   13.6046 H        62   U77       0.3154
   1981 H5          2.4624    5.0364   10.5090 H        62   U77       0.1811
   1982 H6          1.0337    3.8259   12.0180 H        62   U77       0.2188
   1983 HO2'       -1.7600    5.7332   16.1755 H        62   U77       0.4186
   1984 P          -3.8960    4.9600   12.4890 P.3      63   G78       1.1662
   1985 OP1        -5.3380    4.6210   12.5700 O.co2    63   G78      -0.7760
   1986 OP2        -3.2150    4.8850   11.1730 O.co2    63   G78      -0.7760
   1987 O5'        -3.6650    6.4330   13.0740 O.3      63   G78      -0.4989
   1988 C5'        -4.2340    6.8220   14.3100 C.3      63   G78       0.0558
   1989 C4'        -3.5550    8.0550   14.8730 C.3      63   G78       0.1065
   1990 O4'        -2.1130    7.8940   14.8970 O.3      63   G78      -0.3548
   1991 C3'        -3.7350    9.3360   14.0720 C.3      63   G78       0.2022
   1992 O3'        -5.0250    9.9060   14.2710 O.3      63   G78      -0.5246
   1993 C2'        -2.6290   10.2010   14.6690 C.3      63   G78       0.0670
   1994 O2'        -2.9420   10.7590   15.9330 O.3      63   G78      -0.6139
   1995 C1'        -1.5090    9.1740   14.7890 C.3      63   G78       0.0191
   1996 N9         -0.6260    9.2270   13.6240 N.ar     63   G78       0.0492
   1997 C8         -0.5320    8.3100   12.6030 C.ar     63   G78       0.1374
   1998 N7          0.3430    8.6390   11.6960 N.ar     63   G78      -0.5709
   1999 C5          0.8590    9.8500   12.1420 C.ar     63   G78       0.1744
   2000 C6          1.8490   10.6890   11.5760 C.2      63   G78       0.4770
   2001 O6          2.4840   10.5130   10.5320 O.2      63   G78      -0.5597
   2002 N1          2.0840   11.8320   12.3390 N.am     63   G78      -0.4787
   2003 C2          1.4370   12.1300   13.5160 C.2      63   G78       0.7657
   2004 N2          1.7880   13.2720   14.1220 N.pl3    63   G78      -0.9672
   2005 N3          0.5080   11.3490   14.0620 N.2      63   G78      -0.6323
   2006 C4          0.2710   10.2290   13.3250 C.ar     63   G78       0.1222
   2007 H5'        -5.2918    7.0381   14.1600 H        63   G78       0.0679
   2008 H5''       -4.1345    6.0030   15.0223 H        63   G78       0.0679
   2009 H4'        -3.9096    8.2209   15.8903 H        63   G78       0.1174
   2010 H3'        -3.5531    9.1560   13.0125 H        63   G78       0.0615
   2011 H2'        -2.3461   10.9874   13.9692 H        63   G78       0.0972
   2012 H1'        -0.9296    9.3762   15.6898 H        63   G78       0.2006
   2013 H8         -1.1242    7.4079   12.5580 H        63   G78       0.1640
   2014 H1          2.7769   12.4863   12.0046 H        63   G78       0.3424
   2015 H21         2.4941   13.8656   13.7108 H        63   G78       0.4364
   2016 H22         1.3465   13.5394   14.9901 H        63   G78       0.4364
   2017 HO2'       -3.2256   10.0618   16.5289 H        63   G78       0.4186
   2018 P          -5.7150   10.7920   13.1230 P.3      64   U79       1.1662
   2019 OP1        -7.1240   10.9510   13.5480 O.co2    64   U79      -0.7760
   2020 OP2        -5.4220   10.2210   11.7860 O.co2    64   U79      -0.7760
   2021 O5'        -4.9620   12.1990   13.2440 O.3      64   U79      -0.4989
   2022 C5'        -5.0820   13.0000   14.4180 C.3      64   U79       0.0558
   2023 C4'        -4.1970   14.2290   14.3110 C.3      64   U79       0.1065
   2024 O4'        -2.8160   13.8050   14.1700 O.3      64   U79      -0.3548
   2025 C3'        -4.4390   15.1020   13.0830 C.3      64   U79       0.2022
   2026 O3'        -5.5100   16.0240   13.2890 O.3      64   U79      -0.5246
   2027 C2'        -3.0980   15.8080   12.9220 C.3      64   U79       0.0670
   2028 O2'        -2.9700   16.9360   13.7660 O.3      64   U79      -0.6139
   2029 C1'        -2.1150   14.7170   13.3430 C.3      64   U79       0.0674
   2030 N1         -1.4900   13.9960   12.1830 N.am     64   U79       0.0418
   2031 C2         -0.4230   14.5880   11.5180 C.2      64   U79       0.4687
   2032 O2          0.0500   15.6740   11.8150 O.2      64   U79      -0.5477
   2033 N3          0.0830   13.8470   10.4740 N.am     64   U79      -0.3549
   2034 C4         -0.3630   12.6100   10.0370 C.2      64   U79       0.5952
   2035 O4          0.1920   12.0720    9.0890 O.2      64   U79      -0.5761
   2036 C5         -1.4760   12.0600   10.7740 C.2      64   U79      -0.3635
   2037 C6         -1.9850   12.7590   11.7960 C.2      64   U79      -0.1126
   2038 H5'        -6.1194   13.3133   14.5347 H        64   U79       0.0679
   2039 H5''       -4.7822   12.4140   15.2868 H        64   U79       0.0679
   2040 H4'        -4.3020   14.8324   15.2126 H        64   U79       0.1174
   2041 H3'        -4.6422   14.4782   12.2125 H        64   U79       0.0615
   2042 H2'        -2.9357   16.0884   11.8813 H        64   U79       0.0972
   2043 H1'        -1.3211   15.1765   13.9318 H        64   U79       0.1824
   2044 H3          0.8629   14.2479    9.9729 H        64   U79       0.3154
   2045 H5         -1.8913   11.1000   10.5051 H        64   U79       0.1811
   2046 H6         -2.8174   12.3417   12.3432 H        64   U79       0.2188
   2047 HO2'       -3.5921   17.6137   13.4917 H        64   U79       0.4186
   2048 P          -6.3810   16.5540   12.0470 P.3      65   C80       1.1662
   2049 OP1        -7.3260   17.5440   12.6160 O.co2    65   C80      -0.7760
   2050 OP2        -6.8810   15.3950   11.2680 O.co2    65   C80      -0.7760
   2051 O5'        -5.3140   17.2960   11.1130 O.3      65   C80      -0.4989
   2052 C5'        -5.6650   18.4630   10.3840 C.3      65   C80       0.0558
   2053 C4'        -4.4520   19.3570   10.2050 C.3      65   C80       0.1065
   2054 O4'        -3.2540   18.6350   10.6070 O.3      65   C80      -0.3548
   2055 C3'        -4.2160   19.7970    8.7640 C.3      65   C80       0.2022
   2056 O3'        -4.8780   21.0430    8.4990 O.3      65   C80      -0.6541
   2057 C2'        -2.6900   19.8950    8.6910 C.3      65   C80       0.0670
   2058 O2'        -2.1780   21.1370    9.1470 O.3      65   C80      -0.6139
   2059 C1'        -2.2390   18.7670    9.6250 C.3      65   C80       0.0066
   2060 N1         -1.9820   17.4430    8.9310 N.am     65   C80      -0.0484
   2061 C2         -0.8430   17.2730    8.1150 C.2      65   C80       0.7538
   2062 O2         -0.0360   18.2010    7.9650 O.2      65   C80      -0.6252
   2063 N3         -0.6430   16.0730    7.5010 N.2      65   C80      -0.7584
   2064 C4         -1.5150   15.0710    7.6670 C.2      65   C80       0.8185
   2065 N4         -1.2720   13.9150    7.0430 N.pl3    65   C80      -0.9530
   2066 C5         -2.6770   15.2170    8.4830 C.2      65   C80      -0.5215
   2067 C6         -2.8640   16.4020    9.0860 C.2      65   C80       0.0053
   2068 H5'        -6.0461   18.1739    9.4046 H        65   C80       0.0679
   2069 H5''       -6.4382   19.0079   10.9256 H        65   C80       0.0679
   2070 H4'        -4.5640   20.2403   10.8338 H        65   C80       0.1174
   2071 H3'        -4.5740   19.0307    8.0765 H        65   C80       0.0615
   2072 H2'        -2.3495   19.6992    7.6742 H        65   C80       0.0972
   2073 H1'        -1.3198   19.0788   10.1210 H        65   C80       0.2029
   2074 H5         -3.3785   14.4058    8.6104 H        65   C80       0.1928
   2075 H6         -3.7336   16.5405    9.7113 H        65   C80       0.1958
   2076 H41        -0.4489   13.8158    6.4662 H        65   C80       0.4234
   2077 H42        -1.9114   13.1403    7.1481 H        65   C80       0.4234
   2078 HO3'       -4.7184   21.3035    7.5889 H        65   C80       0.4376
   2079 HO2'       -2.4648   21.8379    8.5570 H        65   C80       0.4186
@<TRIPOS>BOND
     1    1    2 1
     2    2    3 1
     3    3    5 1
     4    3    4 1
     5    4    9 1
     6    5    7 1
     7    5    6 1
     8    7    9 1
     9    7    8 1
    10    9   10 1
    11   10   20 ar
    12   10   11 ar
    13   11   12 ar
    14   12   13 ar
    15   13   20 ar
    16   13   14 1
    17   14   15 2
    18   14   16 am
    19   16   17 1
    20   17   18 2
    21   17   19 2
    22   19   20 1
    23   33   35 1
    24   33   34 1
    25   33   36 1
    26   36   37 1
    27   37   38 1
    28   38   40 1
    29   38   39 1
    30   39   44 1
    31   40   42 1
    32   40   41 1
    33   42   43 1
    34   42   44 1
    35   44   45 1
    36   45   46 ar
    37   45   54 ar
    38   46   47 ar
    39   47   48 ar
    40   48   54 ar
    41   48   49 ar
    42   49   50 1
    43   49   51 ar
    44   51   52 ar
    45   52   53 ar
    46   53   54 ar
    47   33    6 1
    48   66   69 1
    49   66   68 1
    50   66   67 1
    51   69   70 1
    52   70   71 1
    53   71   73 1
    54   71   72 1
    55   72   77 1
    56   73   74 1
    57   73   75 1
    58   75   76 1
    59   75   77 1
    60   77   78 1
    61   78   85 1
    62   78   79 am
    63   79   80 2
    64   79   81 1
    65   81   82 2
    66   82   84 2
    67   82   83 2
    68   84   85 2
    69   41   66 1
    70   97   99 1
    71   97   98 1
    72   97  100 1
    73  100  101 1
    74  101  102 1
    75  102  104 1
    76  102  103 1
    77  103  108 1
    78  104  106 1
    79  104  105 1
    80  106  107 1
    81  106  108 1
    82  108  109 1
    83  109  110 ar
    84  109  118 ar
    85  110  111 ar
    86  111  112 ar
    87  112  118 ar
    88  112  113 ar
    89  113  114 1
    90  113  115 ar
    91  115  116 ar
    92  116  117 ar
    93  117  118 ar
    94   74   97 1
    95  130  133 1
    96  130  132 1
    97  130  131 1
    98  133  134 1
    99  134  135 1
   100  135  137 1
   101  135  136 1
   102  136  141 1
   103  137  139 1
   104  137  138 1
   105  139  140 1
   106  139  141 1
   107  141  142 1
   108  142  143 am
   109  142  149 1
   110  143  144 2
   111  143  145 am
   112  145  146 am
   113  146  148 1
   114  146  147 2
   115  148  149 2
   116  105  130 1
   117  160  162 1
   118  160  161 1
   119  160  163 1
   120  163  164 1
   121  164  165 1
   122  165  167 1
   123  165  166 1
   124  166  171 1
   125  167  169 1
   126  167  168 1
   127  169  170 1
   128  169  171 1
   129  171  172 1
   130  172  173 ar
   131  172  181 ar
   132  173  174 ar
   133  174  175 ar
   134  175  181 ar
   135  175  176 ar
   136  176  177 1
   137  176  178 ar
   138  178  179 ar
   139  179  180 ar
   140  180  181 ar
   141  138  160 1
   142  193  196 1
   143  193  195 1
   144  193  194 1
   145  196  197 1
   146  197  198 1
   147  198  200 1
   148  198  199 1
   149  199  204 1
   150  200  202 1
   151  200  201 1
   152  202  203 1
   153  202  204 1
   154  204  205 1
   155  205  206 am
   156  205  212 1
   157  206  207 2
   158  206  208 am
   159  208  209 am
   160  209  211 1
   161  209  210 2
   162  211  212 2
   163  168  193 1
   164  223  225 1
   165  223  224 1
   166  223  226 1
   167  226  227 1
   168  227  228 1
   169  228  230 1
   170  228  229 1
   171  229  234 1
   172  230  232 1
   173  230  231 1
   174  232  233 1
   175  232  234 1
   176  234  235 1
   177  235  236 ar
   178  235  244 ar
   179  236  237 ar
   180  237  238 ar
   181  238  244 ar
   182  238  239 ar
   183  239  240 1
   184  239  241 ar
   185  241  242 ar
   186  242  243 ar
   187  243  244 ar
   188  201  223 1
   189  256  258 1
   190  256  257 1
   191  256  259 1
   192  259  260 1
   193  260  261 1
   194  261  263 1
   195  261  262 1
   196  262  267 1
   197  263  265 1
   198  263  264 1
   199  265  266 1
   200  265  267 1
   201  267  268 1
   202  268  269 ar
   203  268  277 ar
   204  269  270 ar
   205  270  271 ar
   206  271  277 ar
   207  271  272 ar
   208  272  273 1
   209  272  274 ar
   210  274  275 ar
   211  275  276 ar
   212  276  277 ar
   213  231  256 1
   214  289  292 1
   215  289  291 1
   216  289  290 1
   217  292  293 1
   218  293  294 1
   219  294  296 1
   220  294  295 1
   221  295  300 1
   222  296  298 1
   223  296  297 1
   224  298  299 1
   225  298  300 1
   226  300  301 1
   227  301  302 am
   228  301  308 1
   229  302  303 2
   230  302  304 am
   231  304  305 am
   232  305  307 1
   233  305  306 2
   234  307  308 2
   235  264  289 1
   236  319  322 1
   237  319  321 1
   238  319  320 1
   239  322  323 1
   240  323  324 1
   241  324  326 1
   242  324  325 1
   243  325  330 1
   244  326  327 1
   245  326  328 1
   246  328  329 1
   247  328  330 1
   248  330  331 1
   249  331  338 1
   250  331  332 am
   251  332  333 2
   252  332  334 1
   253  334  335 2
   254  335  337 2
   255  335  336 2
   256  337  338 2
   257  297  319 1
   258  350  351 1
   259  350  352 1
   260  350  353 1
   261  353  354 1
   262  354  355 1
   263  355  357 1
   264  355  356 1
   265  356  361 1
   266  357  359 1
   267  357  358 1
   268  359  361 1
   269  359  360 1
   270  361  362 1
   271  362  372 ar
   272  362  363 ar
   273  363  364 ar
   274  364  365 ar
   275  365  372 ar
   276  365  366 1
   277  366  367 2
   278  366  368 am
   279  368  369 1
   280  369  370 2
   281  369  371 2
   282  371  372 1
   283  327  350 1
   284  384  387 1
   285  384  386 1
   286  384  385 1
   287  387  388 1
   288  388  389 1
   289  389  391 1
   290  389  390 1
   291  390  395 1
   292  391  392 1
   293  391  393 1
   294  393  394 1
   295  393  395 1
   296  395  396 1
   297  396  403 1
   298  396  397 am
   299  397  398 2
   300  397  399 1
   301  399  400 2
   302  400  402 2
   303  400  401 2
   304  402  403 2
   305  358  384 1
   306  415  416 1
   307  415  417 1
   308  415  418 1
   309  418  419 1
   310  419  420 1
   311  420  422 1
   312  420  421 1
   313  421  426 1
   314  422  424 1
   315  422  423 1
   316  424  426 1
   317  424  425 1
   318  426  427 1
   319  427  437 ar
   320  427  428 ar
   321  428  429 ar
   322  429  430 ar
   323  430  437 ar
   324  430  431 1
   325  431  432 2
   326  431  433 am
   327  433  434 1
   328  434  435 2
   329  434  436 2
   330  436  437 1
   331  392  415 1
   332  449  452 1
   333  449  451 1
   334  449  450 1
   335  452  453 1
   336  453  454 1
   337  454  456 1
   338  454  455 1
   339  455  460 1
   340  456  458 1
   341  456  457 1
   342  458  459 1
   343  458  460 1
   344  460  461 1
   345  461  462 am
   346  461  468 1
   347  462  463 2
   348  462  464 am
   349  464  465 am
   350  465  467 1
   351  465  466 2
   352  467  468 2
   353  423  449 1
   354  479  480 1
   355  479  481 1
   356  479  482 1
   357  482  483 1
   358  483  484 1
   359  484  486 1
   360  484  485 1
   361  485  490 1
   362  486  488 1
   363  486  487 1
   364  488  490 1
   365  488  489 1
   366  490  491 1
   367  491  501 ar
   368  491  492 ar
   369  492  493 ar
   370  493  494 ar
   371  494  501 ar
   372  494  495 1
   373  495  496 2
   374  495  497 am
   375  497  498 1
   376  498  499 2
   377  498  500 2
   378  500  501 1
   379  457  479 1
   380  513  514 1
   381  513  515 1
   382  513  516 1
   383  516  517 1
   384  517  518 1
   385  518  520 1
   386  518  519 1
   387  519  524 1
   388  520  522 1
   389  520  521 1
   390  522  524 1
   391  522  523 1
   392  524  525 1
   393  525  535 ar
   394  525  526 ar
   395  526  527 ar
   396  527  528 ar
   397  528  535 ar
   398  528  529 1
   399  529  530 2
   400  529  531 am
   401  531  532 1
   402  532  533 2
   403  532  534 2
   404  534  535 1
   405  487  513 1
   406  547  549 1
   407  547  548 1
   408  547  550 1
   409  550  551 1
   410  551  552 1
   411  552  554 1
   412  552  553 1
   413  553  558 1
   414  554  556 1
   415  554  555 1
   416  556  557 1
   417  556  558 1
   418  558  559 1
   419  559  560 ar
   420  559  568 ar
   421  560  561 ar
   422  561  562 ar
   423  562  568 ar
   424  562  563 ar
   425  563  564 1
   426  563  565 ar
   427  565  566 ar
   428  566  567 ar
   429  567  568 ar
   430  521  547 1
   431  580  583 1
   432  580  582 1
   433  580  581 1
   434  583  584 1
   435  584  585 1
   436  585  587 1
   437  585  586 1
   438  586  591 1
   439  587  589 1
   440  587  588 1
   441  589  590 1
   442  589  591 1
   443  591  592 1
   444  592  593 am
   445  592  599 1
   446  593  594 2
   447  593  595 am
   448  595  596 am
   449  596  598 1
   450  596  597 2
   451  598  599 2
   452  555  580 1
   453  610  612 1
   454  610  611 1
   455  610  613 1
   456  613  614 1
   457  614  615 1
   458  615  617 1
   459  615  616 1
   460  616  621 1
   461  617  619 1
   462  617  618 1
   463  619  620 1
   464  619  621 1
   465  621  622 1
   466  622  623 ar
   467  622  631 ar
   468  623  624 ar
   469  624  625 ar
   470  625  631 ar
   471  625  626 ar
   472  626  627 1
   473  626  628 ar
   474  628  629 ar
   475  629  630 ar
   476  630  631 ar
   477  588  610 1
   478  643  646 1
   479  643  645 1
   480  643  644 1
   481  646  647 1
   482  647  648 1
   483  648  650 1
   484  648  649 1
   485  649  654 1
   486  650  652 1
   487  650  651 1
   488  652  653 1
   489  652  654 1
   490  654  655 1
   491  655  656 am
   492  655  662 1
   493  656  657 2
   494  656  658 am
   495  658  659 am
   496  659  661 1
   497  659  660 2
   498  661  662 2
   499  618  643 1
   500  673  674 1
   501  673  675 1
   502  673  676 1
   503  676  677 1
   504  677  678 1
   505  678  680 1
   506  678  679 1
   507  679  684 1
   508  680  682 1
   509  680  681 1
   510  682  684 1
   511  682  683 1
   512  684  685 1
   513  685  695 ar
   514  685  686 ar
   515  686  687 ar
   516  687  688 ar
   517  688  695 ar
   518  688  689 1
   519  689  690 2
   520  689  691 am
   521  691  692 1
   522  692  693 2
   523  692  694 2
   524  694  695 1
   525  651  673 1
   526  707  708 1
   527  707  709 1
   528  707  710 1
   529  710  711 1
   530  711  712 1
   531  712  714 1
   532  712  713 1
   533  713  718 1
   534  714  716 1
   535  714  715 1
   536  716  718 1
   537  716  717 1
   538  718  719 1
   539  719  729 ar
   540  719  720 ar
   541  720  721 ar
   542  721  722 ar
   543  722  729 ar
   544  722  723 1
   545  723  724 2
   546  723  725 am
   547  725  726 1
   548  726  727 2
   549  726  728 2
   550  728  729 1
   551  681  707 1
   552  741  744 1
   553  741  743 1
   554  741  742 1
   555  744  745 1
   556  745  746 1
   557  746  748 1
   558  746  747 1
   559  747  752 1
   560  748  749 1
   561  748  750 1
   562  750  751 1
   563  750  752 1
   564  752  753 1
   565  753  760 1
   566  753  754 am
   567  754  755 2
   568  754  756 1
   569  756  757 2
   570  757  759 2
   571  757  758 2
   572  759  760 2
   573  715  741 1
   574  772  774 1
   575  772  773 1
   576  772  775 1
   577  775  776 1
   578  776  777 1
   579  777  779 1
   580  777  778 1
   581  778  783 1
   582  779  781 1
   583  779  780 1
   584  781  782 1
   585  781  783 1
   586  783  784 1
   587  784  785 ar
   588  784  793 ar
   589  785  786 ar
   590  786  787 ar
   591  787  793 ar
   592  787  788 ar
   593  788  789 1
   594  788  790 ar
   595  790  791 ar
   596  791  792 ar
   597  792  793 ar
   598  749  772 1
   599  805  808 1
   600  805  807 1
   601  805  806 1
   602  808  809 1
   603  809  810 1
   604  810  812 1
   605  810  811 1
   606  811  816 1
   607  812  813 1
   608  812  814 1
   609  814  815 1
   610  814  816 1
   611  816  817 1
   612  817  824 1
   613  817  818 am
   614  818  819 2
   615  818  820 1
   616  820  821 2
   617  821  823 2
   618  821  822 2
   619  823  824 2
   620  780  805 1
   621  836  837 1
   622  836  838 1
   623  836  839 1
   624  839  840 1
   625  840  841 1
   626  841  843 1
   627  841  842 1
   628  842  847 1
   629  843  845 1
   630  843  844 1
   631  845  847 1
   632  845  846 1
   633  847  848 1
   634  848  858 ar
   635  848  849 ar
   636  849  850 ar
   637  850  851 ar
   638  851  858 ar
   639  851  852 1
   640  852  853 2
   641  852  854 am
   642  854  855 1
   643  855  856 2
   644  855  857 2
   645  857  858 1
   646  813  836 1
   647  870  873 1
   648  870  872 1
   649  870  871 1
   650  873  874 1
   651  874  875 1
   652  875  877 1
   653  875  876 1
   654  876  881 1
   655  877  878 1
   656  877  879 1
   657  879  880 1
   658  879  881 1
   659  881  882 1
   660  882  889 1
   661  882  883 am
   662  883  884 2
   663  883  885 1
   664  885  886 2
   665  886  888 2
   666  886  887 2
   667  888  889 2
   668  844  870 1
   669  901  903 1
   670  901  902 1
   671  901  904 1
   672  904  905 1
   673  905  906 1
   674  906  908 1
   675  906  907 1
   676  907  912 1
   677  908  910 1
   678  908  909 1
   679  910  911 1
   680  910  912 1
   681  912  913 1
   682  913  914 ar
   683  913  922 ar
   684  914  915 ar
   685  915  916 ar
   686  916  922 ar
   687  916  917 ar
   688  917  918 1
   689  917  919 ar
   690  919  920 ar
   691  920  921 ar
   692  921  922 ar
   693  878  901 1
   694  934  936 1
   695  934  935 1
   696  934  937 1
   697  937  938 1
   698  938  939 1
   699  939  941 1
   700  939  940 1
   701  940  945 1
   702  941  943 1
   703  941  942 1
   704  943  944 1
   705  943  945 1
   706  945  946 1
   707  946  947 ar
   708  946  955 ar
   709  947  948 ar
   710  948  949 ar
   711  949  955 ar
   712  949  950 ar
   713  950  951 1
   714  950  952 ar
   715  952  953 ar
   716  953  954 ar
   717  954  955 ar
   718  909  934 1
   719  967  968 1
   720  967  969 1
   721  967  970 1
   722  970  971 1
   723  971  972 1
   724  972  974 1
   725  972  973 1
   726  973  978 1
   727  974  976 1
   728  974  975 1
   729  976  978 1
   730  976  977 1
   731  978  979 1
   732  979  989 ar
   733  979  980 ar
   734  980  981 ar
   735  981  982 ar
   736  982  989 ar
   737  982  983 1
   738  983  984 2
   739  983  985 am
   740  985  986 1
   741  986  987 2
   742  986  988 2
   743  988  989 1
   744  942  967 1
   745 1001 1004 1
   746 1001 1003 1
   747 1001 1002 1
   748 1004 1005 1
   749 1005 1006 1
   750 1006 1008 1
   751 1006 1007 1
   752 1007 1012 1
   753 1008 1010 1
   754 1008 1009 1
   755 1010 1011 1
   756 1010 1012 1
   757 1012 1013 1
   758 1013 1014 am
   759 1013 1020 1
   760 1014 1015 2
   761 1014 1016 am
   762 1016 1017 am
   763 1017 1019 1
   764 1017 1018 2
   765 1019 1020 2
   766  975 1001 1
   767 1031 1034 1
   768 1031 1033 1
   769 1031 1032 1
   770 1034 1035 1
   771 1035 1036 1
   772 1036 1038 1
   773 1036 1037 1
   774 1037 1042 1
   775 1038 1040 1
   776 1038 1039 1
   777 1040 1041 1
   778 1040 1042 1
   779 1042 1043 1
   780 1043 1044 am
   781 1043 1050 1
   782 1044 1045 2
   783 1044 1046 am
   784 1046 1047 am
   785 1047 1049 1
   786 1047 1048 2
   787 1049 1050 2
   788 1009 1031 1
   789 1061 1064 1
   790 1061 1063 1
   791 1061 1062 1
   792 1064 1065 1
   793 1065 1066 1
   794 1066 1068 1
   795 1066 1067 1
   796 1067 1072 1
   797 1068 1070 1
   798 1068 1069 1
   799 1070 1071 1
   800 1070 1072 1
   801 1072 1073 1
   802 1073 1074 am
   803 1073 1080 1
   804 1074 1075 2
   805 1074 1076 am
   806 1076 1077 am
   807 1077 1079 1
   808 1077 1078 2
   809 1079 1080 2
   810 1039 1061 1
   811 1091 1094 1
   812 1091 1093 1
   813 1091 1092 1
   814 1094 1095 1
   815 1095 1096 1
   816 1096 1098 1
   817 1096 1097 1
   818 1097 1102 1
   819 1098 1099 1
   820 1098 1100 1
   821 1100 1101 1
   822 1100 1102 1
   823 1102 1103 1
   824 1103 1110 1
   825 1103 1104 am
   826 1104 1105 2
   827 1104 1106 1
   828 1106 1107 2
   829 1107 1109 2
   830 1107 1108 2
   831 1109 1110 2
   832 1069 1091 1
   833 1122 1125 1
   834 1122 1124 1
   835 1122 1123 1
   836 1125 1126 1
   837 1126 1127 1
   838 1127 1129 1
   839 1127 1128 1
   840 1128 1133 1
   841 1129 1131 1
   842 1129 1130 1
   843 1131 1132 1
   844 1131 1133 1
   845 1133 1134 1
   846 1134 1135 am
   847 1134 1141 1
   848 1135 1136 2
   849 1135 1137 am
   850 1137 1138 am
   851 1138 1140 1
   852 1138 1139 2
   853 1140 1141 2
   854 1099 1122 1
   855 1152 1154 1
   856 1152 1153 1
   857 1152 1155 1
   858 1155 1156 1
   859 1156 1157 1
   860 1157 1159 1
   861 1157 1158 1
   862 1158 1163 1
   863 1159 1161 1
   864 1159 1160 1
   865 1161 1162 1
   866 1161 1163 1
   867 1163 1164 1
   868 1164 1165 ar
   869 1164 1173 ar
   870 1165 1166 ar
   871 1166 1167 ar
   872 1167 1173 ar
   873 1167 1168 ar
   874 1168 1169 1
   875 1168 1170 ar
   876 1170 1171 ar
   877 1171 1172 ar
   878 1172 1173 ar
   879 1130 1152 1
   880 1185 1188 1
   881 1185 1187 1
   882 1185 1186 1
   883 1188 1189 1
   884 1189 1190 1
   885 1190 1192 1
   886 1190 1191 1
   887 1191 1196 1
   888 1192 1193 1
   889 1192 1194 1
   890 1194 1195 1
   891 1194 1196 1
   892 1196 1197 1
   893 1197 1204 1
   894 1197 1198 am
   895 1198 1199 2
   896 1198 1200 1
   897 1200 1201 2
   898 1201 1203 2
   899 1201 1202 2
   900 1203 1204 2
   901 1160 1185 1
   902 1216 1219 1
   903 1216 1218 1
   904 1216 1217 1
   905 1219 1220 1
   906 1220 1221 1
   907 1221 1223 1
   908 1221 1222 1
   909 1222 1227 1
   910 1223 1224 1
   911 1223 1225 1
   912 1225 1226 1
   913 1225 1227 1
   914 1227 1228 1
   915 1228 1235 1
   916 1228 1229 am
   917 1229 1230 2
   918 1229 1231 1
   919 1231 1232 2
   920 1232 1234 2
   921 1232 1233 2
   922 1234 1235 2
   923 1193 1216 1
   924 1247 1248 1
   925 1247 1249 1
   926 1247 1250 1
   927 1250 1251 1
   928 1251 1252 1
   929 1252 1254 1
   930 1252 1253 1
   931 1253 1258 1
   932 1254 1256 1
   933 1254 1255 1
   934 1256 1258 1
   935 1256 1257 1
   936 1258 1259 1
   937 1259 1269 ar
   938 1259 1260 ar
   939 1260 1261 ar
   940 1261 1262 ar
   941 1262 1269 ar
   942 1262 1263 1
   943 1263 1264 2
   944 1263 1265 am
   945 1265 1266 1
   946 1266 1267 2
   947 1266 1268 2
   948 1268 1269 1
   949 1224 1247 1
   950 1281 1282 1
   951 1281 1283 1
   952 1281 1284 1
   953 1284 1285 1
   954 1285 1286 1
   955 1286 1288 1
   956 1286 1287 1
   957 1287 1292 1
   958 1288 1290 1
   959 1288 1289 1
   960 1290 1292 1
   961 1290 1291 1
   962 1292 1293 1
   963 1293 1303 ar
   964 1293 1294 ar
   965 1294 1295 ar
   966 1295 1296 ar
   967 1296 1303 ar
   968 1296 1297 1
   969 1297 1298 2
   970 1297 1299 am
   971 1299 1300 1
   972 1300 1301 2
   973 1300 1302 2
   974 1302 1303 1
   975 1255 1281 1
   976 1315 1316 1
   977 1315 1317 1
   978 1315 1318 1
   979 1318 1319 1
   980 1319 1320 1
   981 1320 1322 1
   982 1320 1321 1
   983 1321 1326 1
   984 1322 1324 1
   985 1322 1323 1
   986 1324 1326 1
   987 1324 1325 1
   988 1326 1327 1
   989 1327 1337 ar
   990 1327 1328 ar
   991 1328 1329 ar
   992 1329 1330 ar
   993 1330 1337 ar
   994 1330 1331 1
   995 1331 1332 2
   996 1331 1333 am
   997 1333 1334 1
   998 1334 1335 2
   999 1334 1336 2
  1000 1336 1337 1
  1001 1289 1315 1
  1002 1349 1352 1
  1003 1349 1351 1
  1004 1349 1350 1
  1005 1352 1353 1
  1006 1353 1354 1
  1007 1354 1356 1
  1008 1354 1355 1
  1009 1355 1360 1
  1010 1356 1357 1
  1011 1356 1358 1
  1012 1358 1359 1
  1013 1358 1360 1
  1014 1360 1361 1
  1015 1361 1368 1
  1016 1361 1362 am
  1017 1362 1363 2
  1018 1362 1364 1
  1019 1364 1365 2
  1020 1365 1367 2
  1021 1365 1366 2
  1022 1367 1368 2
  1023 1323 1349 1
  1024 1380 1382 1
  1025 1380 1381 1
  1026 1380 1383 1
  1027 1383 1384 1
  1028 1384 1385 1
  1029 1385 1387 1
  1030 1385 1386 1
  1031 1386 1391 1
  1032 1387 1389 1
  1033 1387 1388 1
  1034 1389 1390 1
  1035 1389 1391 1
  1036 1391 1392 1
  1037 1392 1393 ar
  1038 1392 1401 ar
  1039 1393 1394 ar
  1040 1394 1395 ar
  1041 1395 1401 ar
  1042 1395 1396 ar
  1043 1396 1397 1
  1044 1396 1398 ar
  1045 1398 1399 ar
  1046 1399 1400 ar
  1047 1400 1401 ar
  1048 1357 1380 1
  1049 1413 1416 1
  1050 1413 1415 1
  1051 1413 1414 1
  1052 1416 1417 1
  1053 1417 1418 1
  1054 1418 1420 1
  1055 1418 1419 1
  1056 1419 1424 1
  1057 1420 1421 1
  1058 1420 1422 1
  1059 1422 1423 1
  1060 1422 1424 1
  1061 1424 1425 1
  1062 1425 1432 1
  1063 1425 1426 am
  1064 1426 1427 2
  1065 1426 1428 1
  1066 1428 1429 2
  1067 1429 1431 2
  1068 1429 1430 2
  1069 1431 1432 2
  1070 1388 1413 1
  1071 1444 1447 1
  1072 1444 1446 1
  1073 1444 1445 1
  1074 1447 1448 1
  1075 1448 1449 1
  1076 1449 1451 1
  1077 1449 1450 1
  1078 1450 1455 1
  1079 1451 1452 1
  1080 1451 1453 1
  1081 1453 1454 1
  1082 1453 1455 1
  1083 1455 1456 1
  1084 1456 1463 1
  1085 1456 1457 am
  1086 1457 1458 2
  1087 1457 1459 1
  1088 1459 1460 2
  1089 1460 1462 2
  1090 1460 1461 2
  1091 1462 1463 2
  1092 1421 1444 1
  1093 1475 1476 1
  1094 1475 1477 1
  1095 1475 1478 1
  1096 1478 1479 1
  1097 1479 1480 1
  1098 1480 1482 1
  1099 1480 1481 1
  1100 1481 1486 1
  1101 1482 1484 1
  1102 1482 1483 1
  1103 1484 1486 1
  1104 1484 1485 1
  1105 1486 1487 1
  1106 1487 1497 ar
  1107 1487 1488 ar
  1108 1488 1489 ar
  1109 1489 1490 ar
  1110 1490 1497 ar
  1111 1490 1491 1
  1112 1491 1492 2
  1113 1491 1493 am
  1114 1493 1494 1
  1115 1494 1495 2
  1116 1494 1496 2
  1117 1496 1497 1
  1118 1452 1475 1
  1119 1509 1512 1
  1120 1509 1511 1
  1121 1509 1510 1
  1122 1512 1513 1
  1123 1513 1514 1
  1124 1514 1516 1
  1125 1514 1515 1
  1126 1515 1520 1
  1127 1516 1518 1
  1128 1516 1517 1
  1129 1518 1519 1
  1130 1518 1520 1
  1131 1520 1521 1
  1132 1521 1522 am
  1133 1521 1528 1
  1134 1522 1523 2
  1135 1522 1524 am
  1136 1524 1525 am
  1137 1525 1527 1
  1138 1525 1526 2
  1139 1527 1528 2
  1140 1483 1509 1
  1141 1539 1541 1
  1142 1539 1540 1
  1143 1539 1542 1
  1144 1542 1543 1
  1145 1543 1544 1
  1146 1544 1546 1
  1147 1544 1545 1
  1148 1545 1550 1
  1149 1546 1548 1
  1150 1546 1547 1
  1151 1548 1549 1
  1152 1548 1550 1
  1153 1550 1551 1
  1154 1551 1552 ar
  1155 1551 1560 ar
  1156 1552 1553 ar
  1157 1553 1554 ar
  1158 1554 1560 ar
  1159 1554 1555 ar
  1160 1555 1556 1
  1161 1555 1557 ar
  1162 1557 1558 ar
  1163 1558 1559 ar
  1164 1559 1560 ar
  1165 1517 1539 1
  1166 1572 1574 1
  1167 1572 1573 1
  1168 1572 1575 1
  1169 1575 1576 1
  1170 1576 1577 1
  1171 1577 1579 1
  1172 1577 1578 1
  1173 1578 1583 1
  1174 1579 1581 1
  1175 1579 1580 1
  1176 1581 1582 1
  1177 1581 1583 1
  1178 1583 1584 1
  1179 1584 1585 ar
  1180 1584 1593 ar
  1181 1585 1586 ar
  1182 1586 1587 ar
  1183 1587 1593 ar
  1184 1587 1588 ar
  1185 1588 1589 1
  1186 1588 1590 ar
  1187 1590 1591 ar
  1188 1591 1592 ar
  1189 1592 1593 ar
  1190 1547 1572 1
  1191 1605 1607 1
  1192 1605 1606 1
  1193 1605 1608 1
  1194 1608 1609 1
  1195 1609 1610 1
  1196 1610 1612 1
  1197 1610 1611 1
  1198 1611 1616 1
  1199 1612 1614 1
  1200 1612 1613 1
  1201 1614 1615 1
  1202 1614 1616 1
  1203 1616 1617 1
  1204 1617 1618 ar
  1205 1617 1626 ar
  1206 1618 1619 ar
  1207 1619 1620 ar
  1208 1620 1626 ar
  1209 1620 1621 ar
  1210 1621 1622 1
  1211 1621 1623 ar
  1212 1623 1624 ar
  1213 1624 1625 ar
  1214 1625 1626 ar
  1215 1580 1605 1
  1216 1638 1641 1
  1217 1638 1640 1
  1218 1638 1639 1
  1219 1641 1642 1
  1220 1642 1643 1
  1221 1643 1645 1
  1222 1643 1644 1
  1223 1644 1649 1
  1224 1645 1647 1
  1225 1645 1646 1
  1226 1647 1648 1
  1227 1647 1649 1
  1228 1649 1650 1
  1229 1650 1651 am
  1230 1650 1657 1
  1231 1651 1652 2
  1232 1651 1653 am
  1233 1653 1654 am
  1234 1654 1656 1
  1235 1654 1655 2
  1236 1656 1657 2
  1237 1613 1638 1
  1238 1668 1669 1
  1239 1668 1670 1
  1240 1668 1671 1
  1241 1671 1672 1
  1242 1672 1673 1
  1243 1673 1675 1
  1244 1673 1674 1
  1245 1674 1679 1
  1246 1675 1677 1
  1247 1675 1676 1
  1248 1677 1679 1
  1249 1677 1678 1
  1250 1679 1680 1
  1251 1680 1690 ar
  1252 1680 1681 ar
  1253 1681 1682 ar
  1254 1682 1683 ar
  1255 1683 1690 ar
  1256 1683 1684 1
  1257 1684 1685 2
  1258 1684 1686 am
  1259 1686 1687 1
  1260 1687 1688 2
  1261 1687 1689 2
  1262 1689 1690 1
  1263 1646 1668 1
  1264 1702 1705 1
  1265 1702 1704 1
  1266 1702 1703 1
  1267 1705 1706 1
  1268 1706 1707 1
  1269 1707 1709 1
  1270 1707 1708 1
  1271 1708 1713 1
  1272 1709 1711 1
  1273 1709 1710 1
  1274 1711 1712 1
  1275 1711 1713 1
  1276 1713 1714 1
  1277 1714 1715 am
  1278 1714 1721 1
  1279 1715 1716 2
  1280 1715 1717 am
  1281 1717 1718 am
  1282 1718 1720 1
  1283 1718 1719 2
  1284 1720 1721 2
  1285 1676 1702 1
  1286 1732 1735 1
  1287 1732 1734 1
  1288 1732 1733 1
  1289 1735 1736 1
  1290 1736 1737 1
  1291 1737 1739 1
  1292 1737 1738 1
  1293 1738 1743 1
  1294 1739 1740 1
  1295 1739 1741 1
  1296 1741 1742 1
  1297 1741 1743 1
  1298 1743 1744 1
  1299 1744 1751 1
  1300 1744 1745 am
  1301 1745 1746 2
  1302 1745 1747 1
  1303 1747 1748 2
  1304 1748 1750 2
  1305 1748 1749 2
  1306 1750 1751 2
  1307 1710 1732 1
  1308 1763 1766 1
  1309 1763 1765 1
  1310 1763 1764 1
  1311 1766 1767 1
  1312 1767 1768 1
  1313 1768 1770 1
  1314 1768 1769 1
  1315 1769 1774 1
  1316 1770 1771 1
  1317 1770 1772 1
  1318 1772 1773 1
  1319 1772 1774 1
  1320 1774 1775 1
  1321 1775 1782 1
  1322 1775 1776 am
  1323 1776 1777 2
  1324 1776 1778 1
  1325 1778 1779 2
  1326 1779 1781 2
  1327 1779 1780 2
  1328 1781 1782 2
  1329 1740 1763 1
  1330 1794 1795 1
  1331 1794 1796 1
  1332 1794 1797 1
  1333 1797 1798 1
  1334 1798 1799 1
  1335 1799 1801 1
  1336 1799 1800 1
  1337 1800 1805 1
  1338 1801 1803 1
  1339 1801 1802 1
  1340 1803 1805 1
  1341 1803 1804 1
  1342 1805 1806 1
  1343 1806 1816 ar
  1344 1806 1807 ar
  1345 1807 1808 ar
  1346 1808 1809 ar
  1347 1809 1816 ar
  1348 1809 1810 1
  1349 1810 1811 2
  1350 1810 1812 am
  1351 1812 1813 1
  1352 1813 1814 2
  1353 1813 1815 2
  1354 1815 1816 1
  1355 1771 1794 1
  1356 1828 1830 1
  1357 1828 1829 1
  1358 1828 1831 1
  1359 1831 1832 1
  1360 1832 1833 1
  1361 1833 1835 1
  1362 1833 1834 1
  1363 1834 1839 1
  1364 1835 1837 1
  1365 1835 1836 1
  1366 1837 1838 1
  1367 1837 1839 1
  1368 1839 1840 1
  1369 1840 1841 ar
  1370 1840 1849 ar
  1371 1841 1842 ar
  1372 1842 1843 ar
  1373 1843 1849 ar
  1374 1843 1844 ar
  1375 1844 1845 1
  1376 1844 1846 ar
  1377 1846 1847 ar
  1378 1847 1848 ar
  1379 1848 1849 ar
  1380 1802 1828 1
  1381 1861 1864 1
  1382 1861 1863 1
  1383 1861 1862 1
  1384 1864 1865 1
  1385 1865 1866 1
  1386 1866 1868 1
  1387 1866 1867 1
  1388 1867 1872 1
  1389 1868 1870 1
  1390 1868 1869 1
  1391 1870 1871 1
  1392 1870 1872 1
  1393 1872 1873 1
  1394 1873 1874 am
  1395 1873 1880 1
  1396 1874 1875 2
  1397 1874 1876 am
  1398 1876 1877 am
  1399 1877 1879 1
  1400 1877 1878 2
  1401 1879 1880 2
  1402 1836 1861 1
  1403 1891 1894 1
  1404 1891 1893 1
  1405 1891 1892 1
  1406 1894 1895 1
  1407 1895 1896 1
  1408 1896 1898 1
  1409 1896 1897 1
  1410 1897 1902 1
  1411 1898 1900 1
  1412 1898 1899 1
  1413 1900 1901 1
  1414 1900 1902 1
  1415 1902 1903 1
  1416 1903 1904 am
  1417 1903 1910 1
  1418 1904 1905 2
  1419 1904 1906 am
  1420 1906 1907 am
  1421 1907 1909 1
  1422 1907 1908 2
  1423 1909 1910 2
  1424 1869 1891 1
  1425 1921 1923 1
  1426 1921 1922 1
  1427 1921 1924 1
  1428 1924 1925 1
  1429 1925 1926 1
  1430 1926 1928 1
  1431 1926 1927 1
  1432 1927 1932 1
  1433 1928 1930 1
  1434 1928 1929 1
  1435 1930 1931 1
  1436 1930 1932 1
  1437 1932 1933 1
  1438 1933 1934 ar
  1439 1933 1942 ar
  1440 1934 1935 ar
  1441 1935 1936 ar
  1442 1936 1942 ar
  1443 1936 1937 ar
  1444 1937 1938 1
  1445 1937 1939 ar
  1446 1939 1940 ar
  1447 1940 1941 ar
  1448 1941 1942 ar
  1449 1899 1921 1
  1450 1954 1957 1
  1451 1954 1956 1
  1452 1954 1955 1
  1453 1957 1958 1
  1454 1958 1959 1
  1455 1959 1961 1
  1456 1959 1960 1
  1457 1960 1965 1
  1458 1961 1963 1
  1459 1961 1962 1
  1460 1963 1964 1
  1461 1963 1965 1
  1462 1965 1966 1
  1463 1966 1967 am
  1464 1966 1973 1
  1465 1967 1968 2
  1466 1967 1969 am
  1467 1969 1970 am
  1468 1970 1972 1
  1469 1970 1971 2
  1470 1972 1973 2
  1471 1929 1954 1
  1472 1984 1985 1
  1473 1984 1986 1
  1474 1984 1987 1
  1475 1987 1988 1
  1476 1988 1989 1
  1477 1989 1991 1
  1478 1989 1990 1
  1479 1990 1995 1
  1480 1991 1993 1
  1481 1991 1992 1
  1482 1993 1995 1
  1483 1993 1994 1
  1484 1995 1996 1
  1485 1996 2006 ar
  1486 1996 1997 ar
  1487 1997 1998 ar
  1488 1998 1999 ar
  1489 1999 2006 ar
  1490 1999 2000 1
  1491 2000 2001 2
  1492 2000 2002 am
  1493 2002 2003 1
  1494 2003 2004 2
  1495 2003 2005 2
  1496 2005 2006 1
  1497 1962 1984 1
  1498 2018 2021 1
  1499 2018 2020 1
  1500 2018 2019 1
  1501 2021 2022 1
  1502 2022 2023 1
  1503 2023 2025 1
  1504 2023 2024 1
  1505 2024 2029 1
  1506 2025 2027 1
  1507 2025 2026 1
  1508 2027 2028 1
  1509 2027 2029 1
  1510 2029 2030 1
  1511 2030 2031 am
  1512 2030 2037 1
  1513 2031 2032 2
  1514 2031 2033 am
  1515 2033 2034 am
  1516 2034 2036 1
  1517 2034 2035 2
  1518 2036 2037 2
  1519 1992 2018 1
  1520 2051 2052 1
  1521 2052 2053 1
  1522 2053 2055 1
  1523 2053 2054 1
  1524 2054 2059 1
  1525 2055 2057 1
  1526 2055 2056 1
  1527 2057 2058 1
  1528 2057 2059 1
  1529 2059 2060 1
  1530 2060 2067 1
  1531 2060 2061 am
  1532 2061 2062 2
  1533 2061 2063 1
  1534 2063 2064 2
  1535 2064 2066 2
  1536 2064 2065 2
  1537 2066 2067 2
  1538 2048 2049 1
  1539 2048 2050 1
  1540 2048 2051 1
  1541 2026 2048 1
  1542   21    2 1
  1543   22    2 1
  1544   23    3 1
  1545   24    5 1
  1546   25    7 1
  1547   26    9 1
  1548   27   11 1
  1549   28   16 1
  1550   55   37 1
  1551   56   37 1
  1552   57   38 1
  1553   58   40 1
  1554   59   42 1
  1555   60   44 1
  1556   61   46 1
  1557   62   52 1
  1558   86   70 1
  1559   87   70 1
  1560   88   71 1
  1561   89   73 1
  1562   90   75 1
  1563   91   77 1
  1564   92   84 1
  1565   93   85 1
  1566  119  101 1
  1567  120  101 1
  1568  121  102 1
  1569  122  104 1
  1570  123  106 1
  1571  124  108 1
  1572  125  110 1
  1573  126  116 1
  1574  150  134 1
  1575  151  134 1
  1576  152  135 1
  1577  153  137 1
  1578  154  139 1
  1579  155  141 1
  1580  156  145 1
  1581  157  148 1
  1582  158  149 1
  1583  182  164 1
  1584  183  164 1
  1585  184  165 1
  1586  185  167 1
  1587  186  169 1
  1588  187  171 1
  1589  188  173 1
  1590  189  179 1
  1591  213  197 1
  1592  214  197 1
  1593  215  198 1
  1594  216  200 1
  1595  217  202 1
  1596  218  204 1
  1597  219  208 1
  1598  220  211 1
  1599  221  212 1
  1600  245  227 1
  1601  246  227 1
  1602  247  228 1
  1603  248  230 1
  1604  249  232 1
  1605  250  234 1
  1606  251  236 1
  1607  252  242 1
  1608  278  260 1
  1609  279  260 1
  1610  280  261 1
  1611  281  263 1
  1612  282  265 1
  1613  283  267 1
  1614  284  269 1
  1615  285  275 1
  1616  309  293 1
  1617  310  293 1
  1618  311  294 1
  1619  312  296 1
  1620  313  298 1
  1621  314  300 1
  1622  315  304 1
  1623  316  307 1
  1624  317  308 1
  1625  339  323 1
  1626  340  323 1
  1627  341  324 1
  1628  342  326 1
  1629  343  328 1
  1630  344  330 1
  1631  345  337 1
  1632  346  338 1
  1633  373  354 1
  1634  374  354 1
  1635  375  355 1
  1636  376  357 1
  1637  377  359 1
  1638  378  361 1
  1639  379  363 1
  1640  380  368 1
  1641  404  388 1
  1642  405  388 1
  1643  406  389 1
  1644  407  391 1
  1645  408  393 1
  1646  409  395 1
  1647  410  402 1
  1648  411  403 1
  1649  438  419 1
  1650  439  419 1
  1651  440  420 1
  1652  441  422 1
  1653  442  424 1
  1654  443  426 1
  1655  444  428 1
  1656  445  433 1
  1657  469  453 1
  1658  470  453 1
  1659  471  454 1
  1660  472  456 1
  1661  473  458 1
  1662  474  460 1
  1663  475  464 1
  1664  476  467 1
  1665  477  468 1
  1666  502  483 1
  1667  503  483 1
  1668  504  484 1
  1669  505  486 1
  1670  506  488 1
  1671  507  490 1
  1672  508  492 1
  1673  509  497 1
  1674  536  517 1
  1675  537  517 1
  1676  538  518 1
  1677  539  520 1
  1678  540  522 1
  1679  541  524 1
  1680  542  526 1
  1681  543  531 1
  1682  569  551 1
  1683  570  551 1
  1684  571  552 1
  1685  572  554 1
  1686  573  556 1
  1687  574  558 1
  1688  575  560 1
  1689  576  566 1
  1690  600  584 1
  1691  601  584 1
  1692  602  585 1
  1693  603  587 1
  1694  604  589 1
  1695  605  591 1
  1696  606  595 1
  1697  607  598 1
  1698  608  599 1
  1699  632  614 1
  1700  633  614 1
  1701  634  615 1
  1702  635  617 1
  1703  636  619 1
  1704  637  621 1
  1705  638  623 1
  1706  639  629 1
  1707  663  647 1
  1708  664  647 1
  1709  665  648 1
  1710  666  650 1
  1711  667  652 1
  1712  668  654 1
  1713  669  658 1
  1714  670  661 1
  1715  671  662 1
  1716  696  677 1
  1717  697  677 1
  1718  698  678 1
  1719  699  680 1
  1720  700  682 1
  1721  701  684 1
  1722  702  686 1
  1723  703  691 1
  1724  730  711 1
  1725  731  711 1
  1726  732  712 1
  1727  733  714 1
  1728  734  716 1
  1729  735  718 1
  1730  736  720 1
  1731  737  725 1
  1732  761  745 1
  1733  762  745 1
  1734  763  746 1
  1735  764  748 1
  1736  765  750 1
  1737  766  752 1
  1738  767  759 1
  1739  768  760 1
  1740  794  776 1
  1741  795  776 1
  1742  796  777 1
  1743  797  779 1
  1744  798  781 1
  1745  799  783 1
  1746  800  785 1
  1747  801  791 1
  1748  825  809 1
  1749  826  809 1
  1750  827  810 1
  1751  828  812 1
  1752  829  814 1
  1753  830  816 1
  1754  831  823 1
  1755  832  824 1
  1756  859  840 1
  1757  860  840 1
  1758  861  841 1
  1759  862  843 1
  1760  863  845 1
  1761  864  847 1
  1762  865  849 1
  1763  866  854 1
  1764  890  874 1
  1765  891  874 1
  1766  892  875 1
  1767  893  877 1
  1768  894  879 1
  1769  895  881 1
  1770  896  888 1
  1771  897  889 1
  1772  923  905 1
  1773  924  905 1
  1774  925  906 1
  1775  926  908 1
  1776  927  910 1
  1777  928  912 1
  1778  929  914 1
  1779  930  920 1
  1780  956  938 1
  1781  957  938 1
  1782  958  939 1
  1783  959  941 1
  1784  960  943 1
  1785  961  945 1
  1786  962  947 1
  1787  963  953 1
  1788  990  971 1
  1789  991  971 1
  1790  992  972 1
  1791  993  974 1
  1792  994  976 1
  1793  995  978 1
  1794  996  980 1
  1795  997  985 1
  1796 1021 1005 1
  1797 1022 1005 1
  1798 1023 1006 1
  1799 1024 1008 1
  1800 1025 1010 1
  1801 1026 1012 1
  1802 1027 1016 1
  1803 1028 1019 1
  1804 1029 1020 1
  1805 1051 1035 1
  1806 1052 1035 1
  1807 1053 1036 1
  1808 1054 1038 1
  1809 1055 1040 1
  1810 1056 1042 1
  1811 1057 1046 1
  1812 1058 1049 1
  1813 1059 1050 1
  1814 1081 1065 1
  1815 1082 1065 1
  1816 1083 1066 1
  1817 1084 1068 1
  1818 1085 1070 1
  1819 1086 1072 1
  1820 1087 1076 1
  1821 1088 1079 1
  1822 1089 1080 1
  1823 1111 1095 1
  1824 1112 1095 1
  1825 1113 1096 1
  1826 1114 1098 1
  1827 1115 1100 1
  1828 1116 1102 1
  1829 1117 1109 1
  1830 1118 1110 1
  1831 1142 1126 1
  1832 1143 1126 1
  1833 1144 1127 1
  1834 1145 1129 1
  1835 1146 1131 1
  1836 1147 1133 1
  1837 1148 1137 1
  1838 1149 1140 1
  1839 1150 1141 1
  1840 1174 1156 1
  1841 1175 1156 1
  1842 1176 1157 1
  1843 1177 1159 1
  1844 1178 1161 1
  1845 1179 1163 1
  1846 1180 1165 1
  1847 1181 1171 1
  1848 1205 1189 1
  1849 1206 1189 1
  1850 1207 1190 1
  1851 1208 1192 1
  1852 1209 1194 1
  1853 1210 1196 1
  1854 1211 1203 1
  1855 1212 1204 1
  1856 1236 1220 1
  1857 1237 1220 1
  1858 1238 1221 1
  1859 1239 1223 1
  1860 1240 1225 1
  1861 1241 1227 1
  1862 1242 1234 1
  1863 1243 1235 1
  1864 1270 1251 1
  1865 1271 1251 1
  1866 1272 1252 1
  1867 1273 1254 1
  1868 1274 1256 1
  1869 1275 1258 1
  1870 1276 1260 1
  1871 1277 1265 1
  1872 1304 1285 1
  1873 1305 1285 1
  1874 1306 1286 1
  1875 1307 1288 1
  1876 1308 1290 1
  1877 1309 1292 1
  1878 1310 1294 1
  1879 1311 1299 1
  1880 1338 1319 1
  1881 1339 1319 1
  1882 1340 1320 1
  1883 1341 1322 1
  1884 1342 1324 1
  1885 1343 1326 1
  1886 1344 1328 1
  1887 1345 1333 1
  1888 1369 1353 1
  1889 1370 1353 1
  1890 1371 1354 1
  1891 1372 1356 1
  1892 1373 1358 1
  1893 1374 1360 1
  1894 1375 1367 1
  1895 1376 1368 1
  1896 1402 1384 1
  1897 1403 1384 1
  1898 1404 1385 1
  1899 1405 1387 1
  1900 1406 1389 1
  1901 1407 1391 1
  1902 1408 1393 1
  1903 1409 1399 1
  1904 1433 1417 1
  1905 1434 1417 1
  1906 1435 1418 1
  1907 1436 1420 1
  1908 1437 1422 1
  1909 1438 1424 1
  1910 1439 1431 1
  1911 1440 1432 1
  1912 1464 1448 1
  1913 1465 1448 1
  1914 1466 1449 1
  1915 1467 1451 1
  1916 1468 1453 1
  1917 1469 1455 1
  1918 1470 1462 1
  1919 1471 1463 1
  1920 1498 1479 1
  1921 1499 1479 1
  1922 1500 1480 1
  1923 1501 1482 1
  1924 1502 1484 1
  1925 1503 1486 1
  1926 1504 1488 1
  1927 1505 1493 1
  1928 1529 1513 1
  1929 1530 1513 1
  1930 1531 1514 1
  1931 1532 1516 1
  1932 1533 1518 1
  1933 1534 1520 1
  1934 1535 1524 1
  1935 1536 1527 1
  1936 1537 1528 1
  1937 1561 1543 1
  1938 1562 1543 1
  1939 1563 1544 1
  1940 1564 1546 1
  1941 1565 1548 1
  1942 1566 1550 1
  1943 1567 1552 1
  1944 1568 1558 1
  1945 1594 1576 1
  1946 1595 1576 1
  1947 1596 1577 1
  1948 1597 1579 1
  1949 1598 1581 1
  1950 1599 1583 1
  1951 1600 1585 1
  1952 1601 1591 1
  1953 1627 1609 1
  1954 1628 1609 1
  1955 1629 1610 1
  1956 1630 1612 1
  1957 1631 1614 1
  1958 1632 1616 1
  1959 1633 1618 1
  1960 1634 1624 1
  1961 1658 1642 1
  1962 1659 1642 1
  1963 1660 1643 1
  1964 1661 1645 1
  1965 1662 1647 1
  1966 1663 1649 1
  1967 1664 1653 1
  1968 1665 1656 1
  1969 1666 1657 1
  1970 1691 1672 1
  1971 1692 1672 1
  1972 1693 1673 1
  1973 1694 1675 1
  1974 1695 1677 1
  1975 1696 1679 1
  1976 1697 1681 1
  1977 1698 1686 1
  1978 1722 1706 1
  1979 1723 1706 1
  1980 1724 1707 1
  1981 1725 1709 1
  1982 1726 1711 1
  1983 1727 1713 1
  1984 1728 1717 1
  1985 1729 1720 1
  1986 1730 1721 1
  1987 1752 1736 1
  1988 1753 1736 1
  1989 1754 1737 1
  1990 1755 1739 1
  1991 1756 1741 1
  1992 1757 1743 1
  1993 1758 1750 1
  1994 1759 1751 1
  1995 1783 1767 1
  1996 1784 1767 1
  1997 1785 1768 1
  1998 1786 1770 1
  1999 1787 1772 1
  2000 1788 1774 1
  2001 1789 1781 1
  2002 1790 1782 1
  2003 1817 1798 1
  2004 1818 1798 1
  2005 1819 1799 1
  2006 1820 1801 1
  2007 1821 1803 1
  2008 1822 1805 1
  2009 1823 1807 1
  2010 1824 1812 1
  2011 1850 1832 1
  2012 1851 1832 1
  2013 1852 1833 1
  2014 1853 1835 1
  2015 1854 1837 1
  2016 1855 1839 1
  2017 1856 1841 1
  2018 1857 1847 1
  2019 1881 1865 1
  2020 1882 1865 1
  2021 1883 1866 1
  2022 1884 1868 1
  2023 1885 1870 1
  2024 1886 1872 1
  2025 1887 1876 1
  2026 1888 1879 1
  2027 1889 1880 1
  2028 1911 1895 1
  2029 1912 1895 1
  2030 1913 1896 1
  2031 1914 1898 1
  2032 1915 1900 1
  2033 1916 1902 1
  2034 1917 1906 1
  2035 1918 1909 1
  2036 1919 1910 1
  2037 1943 1925 1
  2038 1944 1925 1
  2039 1945 1926 1
  2040 1946 1928 1
  2041 1947 1930 1
  2042 1948 1932 1
  2043 1949 1934 1
  2044 1950 1940 1
  2045 1974 1958 1
  2046 1975 1958 1
  2047 1976 1959 1
  2048 1977 1961 1
  2049 1978 1963 1
  2050 1979 1965 1
  2051 1980 1969 1
  2052 1981 1972 1
  2053 1982 1973 1
  2054 2007 1988 1
  2055 2008 1988 1
  2056 2009 1989 1
  2057 2010 1991 1
  2058 2011 1993 1
  2059 2012 1995 1
  2060 2013 1997 1
  2061 2014 2002 1
  2062 2038 2022 1
  2063 2039 2022 1
  2064 2040 2023 1
  2065 2041 2025 1
  2066 2042 2027 1
  2067 2043 2029 1
  2068 2044 2033 1
  2069 2045 2036 1
  2070 2046 2037 1
  2071 2068 2052 1
  2072 2069 2052 1
  2073 2070 2053 1
  2074 2071 2055 1
  2075 2072 2057 1
  2076 2073 2059 1
  2077 2074 2066 1
  2078 2075 2067 1
  2079   29   18 1
  2080   30   18 1
  2081   94   83 1
  2082   95   83 1
  2083  347  336 1
  2084  348  336 1
  2085  381  370 1
  2086  382  370 1
  2087  412  401 1
  2088  413  401 1
  2089  446  435 1
  2090  447  435 1
  2091  510  499 1
  2092  511  499 1
  2093  544  533 1
  2094  545  533 1
  2095  704  693 1
  2096  705  693 1
  2097  738  727 1
  2098  739  727 1
  2099  769  758 1
  2100  770  758 1
  2101  833  822 1
  2102  834  822 1
  2103  867  856 1
  2104  868  856 1
  2105  898  887 1
  2106  899  887 1
  2107  998  987 1
  2108  999  987 1
  2109 1119 1108 1
  2110 1120 1108 1
  2111 1213 1202 1
  2112 1214 1202 1
  2113 1244 1233 1
  2114 1245 1233 1
  2115 1278 1267 1
  2116 1279 1267 1
  2117 1312 1301 1
  2118 1313 1301 1
  2119 1346 1335 1
  2120 1347 1335 1
  2121 1377 1366 1
  2122 1378 1366 1
  2123 1441 1430 1
  2124 1442 1430 1
  2125 1472 1461 1
  2126 1473 1461 1
  2127 1506 1495 1
  2128 1507 1495 1
  2129 1699 1688 1
  2130 1700 1688 1
  2131 1760 1749 1
  2132 1761 1749 1
  2133 1791 1780 1
  2134 1792 1780 1
  2135 1825 1814 1
  2136 1826 1814 1
  2137 2015 2004 1
  2138 2016 2004 1
  2139 2076 2065 1
  2140 2077 2065 1
  2141  609  590 1
  2142 1090 1071 1
  2143 1920 1901 1
  2144 1474 1454 1
  2145 1951 1931 1
  2146  706  683 1
  2147  577  557 1
  2148 1030 1011 1
  2149  190  170 1
  2150 1569 1549 1
  2151 1443 1423 1
  2152 1983 1964 1
  2153  478  459 1
  2154 1731 1712 1
  2155 1701 1678 1
  2156 1762 1742 1
  2157   31    8 1
  2158 1280 1257 1
  2159  900  880 1
  2160  127  107 1
  2161  869  846 1
  2162 1215 1195 1
  2163 1602 1589 1
  2164 1603 1589 1
  2165 1635 1622 1
  2166 1636 1622 1
  2167  931  918 1
  2168  932  918 1
  2169  191  177 1
  2170  192  177 1
  2171 1182 1169 1
  2172 1183 1169 1
  2173 1410 1397 1
  2174 1411 1397 1
  2175   63   50 1
  2176   64   50 1
  2177  802  789 1
  2178  803  789 1
  2179 1570 1556 1
  2180 1571 1556 1
  2181  578  564 1
  2182  579  564 1
  2183  286  273 1
  2184  287  273 1
  2185 1858 1845 1
  2186 1859 1845 1
  2187  128  114 1
  2188  129  114 1
  2189  253  240 1
  2190  254  240 1
  2191 1952 1938 1
  2192 1953 1938 1
  2193  964  951 1
  2194  965  951 1
  2195  640  627 1
  2196  641  627 1
  2197  288  266 1
  2198 1000  977 1
  2199  642  620 1
  2200  159  140 1
  2201 1379 1359 1
  2202  771  751 1
  2203  318  299 1
  2204  512  489 1
  2205  933  911 1
  2206 1860 1838 1
  2207 2017 1994 1
  2208 1412 1390 1
  2209  349  329 1
  2210  383  360 1
  2211   96   76 1
  2212  672  653 1
  2213 1121 1101 1
  2214 1890 1871 1
  2215 2047 2028 1
  2216  222  203 1
  2217 1793 1773 1
  2218  835  815 1
  2219   65   43 1
  2220 1538 1519 1
  2221  804  782 1
  2222 1604 1582 1
  2223  546  523 1
  2224 1151 1132 1
  2225 1314 1291 1
  2226 2078 2056 1
  2227 2079 2058 1
  2228 1060 1041 1
  2229  255  233 1
  2230  414  394 1
  2231 1637 1615 1
  2232 1184 1162 1
  2233 1348 1325 1
  2234  740  717 1
  2235  966  944 1
  2236 1508 1485 1
  2237  448  425 1
  2238 1667 1648 1
  2239 1827 1804 1
  2240 1246 1226 1
  2241   32    1 1
@<TRIPOS>SUBSTRUCTURE
     1   G16       3 RESIDUE           4 A       G     1 ROOT
     2   A17      38 RESIDUE           4 A       A     2
     3   C18      71 RESIDUE           4 A       C     2
     4   A19     102 RESIDUE           4 A       A     2
     5   U20     135 RESIDUE           4 A       U     2
     6   A21     165 RESIDUE           4 A       A     2
     7   U22     198 RESIDUE           4 A       U     2
     8   A23     228 RESIDUE           4 A       A     2
     9   A24     261 RESIDUE           4 A       A     2
    10   U25     294 RESIDUE           4 A       U     2
    11   C26     324 RESIDUE           4 A       C     2
    12   G27     355 RESIDUE           4 A       G     2
    13   C28     389 RESIDUE           4 A       C     2
    14   G29     420 RESIDUE           4 A       G     2
    15   U30     454 RESIDUE           4 A       U     2
    16   G31     484 RESIDUE           4 A       G     2
    17   G32     518 RESIDUE           4 A       G     2
    18   A33     552 RESIDUE           4 A       A     2
    19   U34     585 RESIDUE           4 A       U     2
    20   A35     615 RESIDUE           4 A       A     2
    21   U36     648 RESIDUE           4 A       U     2
    22   G37     678 RESIDUE           4 A       G     2
    23   G38     712 RESIDUE           4 A       G     2
    24   C39     746 RESIDUE           4 A       C     2
    25   A40     777 RESIDUE           4 A       A     2
    26   C41     810 RESIDUE           4 A       C     2
    27   G42     841 RESIDUE           4 A       G     2
    28   C43     875 RESIDUE           4 A       C     2
    29   A44     906 RESIDUE           4 A       A     2
    30   A45     939 RESIDUE           4 A       A     2
    31   G46     972 RESIDUE           4 A       G     2
    32   U47    1006 RESIDUE           4 A       U     2
    33   U48    1036 RESIDUE           4 A       U     2
    34   U49    1066 RESIDUE           4 A       U     2
    35   C50    1096 RESIDUE           4 A       C     2
    36   U51    1127 RESIDUE           4 A       U     2
    37   A52    1157 RESIDUE           4 A       A     2
    38   C53    1190 RESIDUE           4 A       C     2
    39   C54    1221 RESIDUE           4 A       C     2
    40   G55    1252 RESIDUE           4 A       G     2
    41   G56    1286 RESIDUE           4 A       G     2
    42   G57    1320 RESIDUE           4 A       G     2
    43   C58    1354 RESIDUE           4 A       C     2
    44   A59    1385 RESIDUE           4 A       A     2
    45   C60    1418 RESIDUE           4 A       C     2
    46   C61    1449 RESIDUE           4 A       C     2
    47   G62    1480 RESIDUE           4 A       G     2
    48   U63    1514 RESIDUE           4 A       U     2
    49   A64    1544 RESIDUE           4 A       A     2
    50   A65    1577 RESIDUE           4 A       A     2
    51   A66    1610 RESIDUE           4 A       A     2
    52   U67    1643 RESIDUE           4 A       U     2
    53   G68    1673 RESIDUE           4 A       G     2
    54   U69    1707 RESIDUE           4 A       U     2
    55   C70    1737 RESIDUE           4 A       C     2
    56   C71    1768 RESIDUE           4 A       C     2
    57   G72    1799 RESIDUE           4 A       G     2
    58   A73    1833 RESIDUE           4 A       A     2
    59   U74    1866 RESIDUE           4 A       U     2
    60   U75    1896 RESIDUE           4 A       U     2
    61   A76    1926 RESIDUE           4 A       A     2
    62   U77    1959 RESIDUE           4 A       U     2
    63   G78    1989 RESIDUE           4 A       G     2
    64   U79    2023 RESIDUE           4 A       U     2
    65   C80    2053 RESIDUE           4 A       C     1
