@<TRIPOS>MOLECULE
1UTS.pdb
930 1001 29 0 0
NUCLEIC_ACID
AMBER ff14SB


@<TRIPOS>ATOM
      1 O5'       -14.3250   -6.3700   13.4850 O.3       1   G17      -0.6223
      2 C5'       -15.5080   -7.0560   13.9180 C.3       1   G17       0.0558
      3 C4'       -15.3470   -8.5680   13.8710 C.3       1   G17       0.1065
      4 O4'       -15.2230   -9.0540   12.5450 O.3       1   G17      -0.3548
      5 C3'       -14.0750   -9.0100   14.5640 C.3       1   G17       0.2022
      6 O3'       -14.3730   -9.1980   15.9520 O.3       1   G17      -0.5246
      7 C2'       -13.7700  -10.3580   13.9180 C.3       1   G17       0.0670
      8 O2'       -14.2300  -11.4420   14.7310 O.3       1   G17      -0.6139
      9 C1'       -14.5240  -10.3040   12.5810 C.3       1   G17       0.0191
     10 N9        -13.5980  -10.4180   11.4390 N.ar      1   G17       0.0492
     11 C8        -13.2150   -9.4770   10.5410 C.ar      1   G17       0.1374
     12 N7        -12.4010   -9.8360    9.6070 N.ar      1   G17      -0.5709
     13 C5        -12.2030  -11.1880    9.9060 C.ar      1   G17       0.1744
     14 C6        -11.4020  -12.1570    9.2440 C.2       1   G17       0.4770
     15 O6        -10.7090  -12.0150    8.2560 O.2       1   G17      -0.5597
     16 N1        -11.4820  -13.3960    9.8670 N.am      1   G17      -0.4787
     17 C2        -12.2370  -13.6750   10.9890 C.2       1   G17       0.7657
     18 N2        -12.1790  -14.9260   11.4410 N.pl3     1   G17      -0.9672
     19 N3        -12.9940  -12.7680   11.6170 N.2       1   G17      -0.6323
     20 C4        -12.9320  -11.5520   11.0270 C.ar      1   G17       0.1222
     21 H5'       -16.3290   -6.8070   13.2600 H         1   G17       0.0679
     22 H5''      -15.7420   -6.7340   14.9430 H         1   G17       0.0679
     23 H4'       -16.2050   -9.0410   14.3480 H         1   G17       0.1174
     24 H3'       -13.2630   -8.2960   14.4120 H         1   G17       0.0615
     25 H2'       -12.6970  -10.4420   13.7310 H         1   G17       0.0972
     26 HO2'      -14.3560  -11.1000   15.6200 H         1   G17       0.4186
     27 H1'       -15.2440  -11.1210   12.5430 H         1   G17       0.2006
     28 H8        -13.5830   -8.4530   10.6050 H         1   G17       0.1640
     29 H1        -10.9550  -14.1160    9.4610 H         1   G17       0.3424
     30 H21       -11.6080  -15.6100   10.9650 H         1   G17       0.4364
     31 H22       -12.7070  -15.1930   12.2600 H         1   G17       0.4364
     32 HO5'      -14.5990   -5.6930   12.8630 H         1   G17       0.4295
     33 P         -13.2600   -8.9320   17.0890 P.3       2   G18       1.1662
     34 OP1       -13.9580   -8.7530   18.3810 O.co2     2   G18      -0.7760
     35 OP2       -12.3450   -7.8780   16.5960 O.co2     2   G18      -0.7760
     36 O5'       -12.4390  -10.3190   17.1510 O.3       2   G18      -0.4989
     37 C5'       -12.6530  -11.2220   18.2470 C.3       2   G18       0.0558
     38 C4'       -11.7410  -12.4420   18.2110 C.3       2   G18       0.1065
     39 O4'       -12.0490  -13.3180   17.1220 O.3       2   G18      -0.3548
     40 C3'       -10.2920  -12.0460   17.9970 C.3       2   G18       0.2022
     41 O3'        -9.6990  -11.7710   19.2710 O.3       2   G18      -0.5246
     42 C2'        -9.6980  -13.3250   17.4430 C.3       2   G18       0.0670
     43 O2'        -9.3970  -14.2610   18.4840 O.3       2   G18      -0.6139
     44 C1'       -10.8270  -13.8240   16.5480 C.3       2   G18       0.0191
     45 N9        -10.6540  -13.3240   15.1760 N.ar      2   G18       0.0492
     46 C8        -11.3320  -12.3500   14.5310 C.ar      2   G18       0.1374
     47 N7        -10.9780  -12.0700   13.3220 N.ar      2   G18      -0.5709
     48 C5         -9.9230  -12.9660   13.1210 C.ar      2   G18       0.1744
     49 C6         -9.1000  -13.1610   11.9800 C.2       2   G18       0.4770
     50 O6         -9.1400  -12.5800   10.9130 O.2       2   G18      -0.5597
     51 N1         -8.1600  -14.1600   12.1950 N.am      2   G18      -0.4787
     52 C2         -8.0230  -14.8870   13.3610 C.2       2   G18       0.7657
     53 N2         -7.0640  -15.8110   13.3720 N.pl3     2   G18      -0.9672
     54 N3         -8.7940  -14.7090   14.4400 N.2       2   G18      -0.6323
     55 C4         -9.7190  -13.7400   14.2530 C.ar      2   G18       0.1222
     56 H5'       -13.6690  -11.5920   18.2100 H         2   G18       0.0679
     57 H5''      -12.4990  -10.6690   19.1850 H         2   G18       0.0679
     58 H4'       -11.8320  -12.9910   19.1470 H         2   G18       0.1174
     59 H3'       -10.1960  -11.2120   17.2990 H         2   G18       0.0615
     60 H2'        -8.8140  -13.1030   16.8430 H         2   G18       0.0972
     61 HO2'      -10.2120  -14.7150   18.7050 H         2   G18       0.4186
     62 H1'       -10.8430  -14.9130   16.5450 H         2   G18       0.2006
     63 H8        -12.1420  -11.8160   15.0240 H         2   G18       0.1640
     64 H1         -7.5500  -14.3430   11.4500 H         2   G18       0.3424
     65 H21        -6.4820  -15.9440   12.5570 H         2   G18       0.4364
     66 H22        -6.9200  -16.3810   14.1920 H         2   G18       0.4364
     67 P          -8.5310  -10.6680   19.4140 P.3       3   C19       1.1662
     68 OP1        -8.2650  -10.4610   20.8550 O.co2     3   C19      -0.7760
     69 OP2        -8.8790   -9.5140   18.5550 O.co2     3   C19      -0.7760
     70 O5'        -7.2550  -11.4090   18.7680 O.3       3   C19      -0.4989
     71 C5'        -6.6190  -12.4890   19.4550 C.3       3   C19       0.0558
     72 C4'        -5.4470  -13.0520   18.6540 C.3       3   C19       0.1065
     73 O4'        -5.8820  -13.6850   17.4480 O.3       3   C19      -0.3548
     74 C3'        -4.5000  -11.9570   18.2000 C.3       3   C19       0.2022
     75 O3'        -3.5280  -11.7270   19.2240 O.3       3   C19      -0.5246
     76 C2'        -3.8190  -12.5960   17.0080 C.3       3   C19       0.0670
     77 O2'        -2.7570  -13.4670   17.4120 O.3       3   C19      -0.6139
     78 C1'        -4.9720  -13.3680   16.3750 C.3       3   C19       0.0066
     79 N1         -5.6390  -12.5500   15.3430 N.am      3   C19      -0.0484
     80 C2         -5.0370  -12.4700   14.0940 C.2       3   C19       0.7538
     81 O2         -4.0000  -13.0660   13.8740 O.2       3   C19      -0.6252
     82 N3         -5.6390  -11.7110   13.1370 N.2       3   C19      -0.7584
     83 C4         -6.7810  -11.0580   13.3940 C.2       3   C19       0.8185
     84 N4         -7.3480  -10.3300   12.4320 N.pl3     3   C19      -0.9530
     85 C5         -7.4020  -11.1370   14.6790 C.2       3   C19      -0.5215
     86 C6         -6.7990  -11.8890   15.6190 C.2       3   C19       0.0053
     87 H5'        -7.3470  -13.2810   19.6250 H         3   C19       0.0679
     88 H5''       -6.2520  -12.1310   20.4170 H         3   C19       0.0679
     89 H4'        -4.9050  -13.7750   19.2620 H         3   C19       0.1174
     90 H3'        -5.0340  -11.0470   17.9240 H         3   C19       0.0615
     91 H2'        -3.4590  -11.8240   16.3220 H         3   C19       0.0972
     92 HO2'       -3.0020  -13.8430   18.2600 H         3   C19       0.4186
     93 H1'        -4.5960  -14.2880   15.9280 H         3   C19       0.2029
     94 H41        -6.9150  -10.2700   11.5230 H         3   C19       0.4234
     95 H42        -8.2130   -9.8410   12.6120 H         3   C19       0.4234
     96 H5         -8.3290  -10.6060   14.8910 H         3   C19       0.1928
     97 H6         -7.2360  -11.9610   16.6140 H         3   C19       0.1958
     98 P          -2.7920  -10.3000   19.3330 P.3       4   A20       1.1662
     99 OP1        -1.8060  -10.3680   20.4340 O.co2     4   A20      -0.7760
    100 OP2        -3.8250   -9.2410   19.3290 O.co2     4   A20      -0.7760
    101 O5'        -1.9900  -10.2310   17.9390 O.3       4   A20      -0.4989
    102 C5'        -0.9640  -11.1820   17.6460 C.3       4   A20       0.0558
    103 C4'        -0.3980  -10.9830   16.2430 C.3       4   A20       0.1065
    104 O4'        -1.3680  -11.2640   15.2450 O.3       4   A20      -0.3548
    105 C3'        -0.0060   -9.5420   15.9970 C.3       4   A20       0.2022
    106 O3'         1.3380   -9.3510   16.4500 O.3       4   A20      -0.5246
    107 C2'        -0.0260   -9.4440   14.4800 C.3       4   A20       0.0670
    108 O2'         1.2490   -9.7710   13.9170 O.3       4   A20      -0.6139
    109 C1'        -1.0930  -10.4720   14.0800 C.3       4   A20       0.0394
    110 N9         -2.3160   -9.7980   13.6080 N.ar      4   A20      -0.0251
    111 C8         -3.5200   -9.6690   14.2160 C.ar      4   A20       0.2006
    112 N7         -4.4360   -9.0070   13.5930 N.ar      4   A20      -0.6073
    113 C5         -3.7700   -8.6430   12.4190 C.ar      4   A20       0.0515
    114 C6         -4.1660   -7.9120   11.2960 C.ar      4   A20       0.7009
    115 N6         -5.3860   -7.3910   11.1600 N.pl3     4   A20      -0.9019
    116 N1         -3.2580   -7.7400   10.3170 N.ar      4   A20      -0.7615
    117 C2         -2.0320   -8.2550   10.4350 C.ar      4   A20       0.5875
    118 N3         -1.5520   -8.9620   11.4550 N.ar      4   A20      -0.6997
    119 C4         -2.4790   -9.1200   12.4200 C.ar      4   A20       0.3053
    120 H5'        -1.3780  -12.1870   17.7220 H         4   A20       0.0679
    121 H5''       -0.1590  -11.0720   18.3720 H         4   A20       0.0679
    122 H4'         0.4650  -11.6290   16.0940 H         4   A20       0.1174
    123 H3'        -0.7020   -8.8430   16.4610 H         4   A20       0.0615
    124 H2'        -0.3400   -8.4430   14.1740 H         4   A20       0.0972
    125 HO2'        1.2630  -10.7200   13.7730 H         4   A20       0.4186
    126 H1'        -0.7020  -11.1130   13.2940 H         4   A20       0.2007
    127 H8         -3.7060  -10.1030   15.1980 H         4   A20       0.1553
    128 H61        -5.6230   -6.8700   10.3280 H         4   A20       0.4115
    129 H62        -6.0720   -7.5170   11.8900 H         4   A20       0.4115
    130 H2         -1.3500   -8.0830    9.6010 H         4   A20       0.0473
    131 P           1.8460   -7.8900   16.8970 P.3       5   G21       1.1662
    132 OP1         3.2130   -8.0240   17.4490 O.co2     5   G21      -0.7760
    133 OP2         0.7820   -7.2580   17.7070 O.co2     5   G21      -0.7760
    134 O5'         1.9440   -7.1080   15.4920 O.3       5   G21      -0.4989
    135 C5'         2.8370   -7.5630   14.4660 C.3       5   G21       0.0558
    136 C4'         2.7140   -6.7510   13.1860 C.3       5   G21       0.1065
    137 O4'         1.5080   -7.0400   12.4930 O.3       5   G21      -0.3548
    138 C3'         2.6390   -5.2660   13.4760 C.3       5   G21       0.2022
    139 O3'         3.9720   -4.7490   13.5380 O.3       5   G21      -0.5246
    140 C2'         1.9660   -4.7120   12.2310 C.3       5   G21       0.0670
    141 O2'         2.9300   -4.3380   11.2390 O.3       5   G21      -0.6139
    142 C1'         1.1000   -5.8810   11.7520 C.3       5   G21       0.0191
    143 N9         -0.3290   -5.5950   11.9680 N.ar      5   G21       0.0492
    144 C8         -1.1000   -5.8350   13.0550 C.ar      5   G21       0.1374
    145 N7         -2.3420   -5.4880   12.9970 N.ar      5   G21      -0.5709
    146 C5         -2.4250   -4.9420   11.7120 C.ar      5   G21       0.1744
    147 C6         -3.5370   -4.3750   11.0330 C.2       5   G21       0.4770
    148 O6         -4.6780   -4.2430   11.4330 O.2       5   G21      -0.5597
    149 N1         -3.1910   -3.9440    9.7580 N.am      5   G21      -0.4787
    150 C2         -1.9330   -4.0450    9.1990 C.2       5   G21       0.7657
    151 N2         -1.7990   -3.5700    7.9610 N.pl3     5   G21      -0.9672
    152 N3         -0.8810   -4.5770    9.8300 N.2       5   G21      -0.6323
    153 C4         -1.1950   -5.0040   11.0750 C.ar      5   G21       0.1222
    154 H5'         2.6010   -8.5870   14.2130 H         5   G21       0.0679
    155 H5''        3.8650   -7.5040   14.8510 H         5   G21       0.0679
    156 H4'         3.5600   -6.9560   12.5320 H         5   G21       0.1174
    157 H3'         2.0660   -5.0540   14.3790 H         5   G21       0.0615
    158 H2'         1.3320   -3.8620   12.4960 H         5   G21       0.0972
    159 HO2'        2.7800   -4.8950   10.4710 H         5   G21       0.4186
    160 H1'         1.2800   -6.0520   10.6910 H         5   G21       0.2006
    161 H8         -0.6840   -6.3010   13.9500 H         5   G21       0.1640
    162 H1         -3.9100   -3.5370    9.2320 H         5   G21       0.3424
    163 H21        -2.5940   -3.1670    7.4850 H         5   G21       0.4364
    164 H22        -0.9020   -3.6130    7.4980 H         5   G21       0.4364
    165 P           4.2350   -3.2000   13.8920 P.3       6   A22       1.1662
    166 OP1         5.6830   -2.9310   13.7460 O.co2     6   A22      -0.7760
    167 OP2         3.5530   -2.8950   15.1700 O.co2     6   A22      -0.7760
    168 O5'         3.4580   -2.4300   12.7100 O.3       6   A22      -0.4989
    169 C5'         4.1780   -1.9040   11.5920 C.3       6   A22       0.0558
    170 C4'         3.2600   -1.6580   10.3970 C.3       6   A22       0.1065
    171 O4'         1.9460   -2.1440   10.6450 O.3       6   A22      -0.3548
    172 C3'         3.0940   -0.1740   10.1290 C.3       6   A22       0.2022
    173 O3'         4.0760    0.2190    9.1690 O.3       6   A22      -0.5246
    174 C2'         1.7230   -0.0720    9.4740 C.3       6   A22       0.0670
    175 O2'         1.8310   -0.0510    8.0470 O.3       6   A22      -0.6139
    176 C1'         0.9880   -1.3260    9.9570 C.3       6   A22       0.0394
    177 N9         -0.1300   -0.9650   10.8460 N.ar      6   A22      -0.0251
    178 C8         -0.3430   -1.2910   12.1450 C.ar      6   A22       0.2006
    179 N7         -1.4130   -0.8360   12.7050 N.ar      6   A22      -0.6073
    180 C5         -1.9950   -0.1150   11.6560 C.ar      6   A22       0.0515
    181 C6         -3.1720    0.6340   11.5620 C.ar      6   A22       0.7009
    182 N6         -4.0130    0.7940   12.5820 N.pl3     6   A22      -0.9019
    183 N1         -3.4450    1.2140   10.3780 N.ar      6   A22      -0.7615
    184 C2         -2.6100    1.0660    9.3460 C.ar      6   A22       0.5875
    185 N3         -1.4710    0.3800    9.3270 N.ar      6   A22      -0.6997
    186 C4         -1.2200   -0.1900   10.5230 C.ar      6   A22       0.3053
    187 H5'         4.9540   -2.6130   11.3030 H         6   A22       0.0679
    188 H5''        4.6470   -0.9620   11.8800 H         6   A22       0.0679
    189 H4'         3.6660   -2.1490    9.5140 H         6   A22       0.1174
    190 H3'         3.1570    0.4150   11.0450 H         6   A22       0.0615
    191 H2'         1.2060    0.8210    9.8340 H         6   A22       0.0972
    192 HO2'        0.9390   -0.0520    7.6920 H         6   A22       0.4186
    193 H1'         0.6010   -1.8710    9.0960 H         6   A22       0.2007
    194 H8          0.3630   -1.9130   12.6960 H         6   A22       0.1553
    195 H61        -3.8130    0.3650   13.4750 H         6   A22       0.4115
    196 H62        -4.8520    1.3440   12.4630 H         6   A22       0.4115
    197 H2         -2.8920    1.5610    8.4160 H         6   A22       0.0473
    198 P           4.7180    1.6940    9.2160 P.3       7   U23       1.1662
    199 OP1         5.1610    2.0500    7.8490 O.co2     7   U23      -0.7760
    200 OP2         5.6800    1.7440   10.3400 O.co2     7   U23      -0.7760
    201 O5'         3.4550    2.6220    9.5920 O.3       7   U23      -0.4989
    202 C5'         3.6230    4.0350    9.7440 C.3       7   U23       0.0558
    203 C4'         2.3200    4.7290   10.1330 C.3       7   U23       0.1065
    204 O4'         1.4060    3.8230   10.7430 O.3       7   U23      -0.3548
    205 C3'         2.5810    5.8310   11.1580 C.3       7   U23       0.2022
    206 O3'         1.8330    6.9840   10.7630 O.3       7   U23      -0.5246
    207 C2'         1.9960    5.3160   12.4750 C.3       7   U23       0.0670
    208 O2'         0.8850    6.1160   12.8950 O.3       7   U23      -0.6139
    209 C1'         1.5590    3.8830   12.1560 C.3       7   U23       0.0674
    210 N1          2.5390    2.8670   12.6230 N.am      7   U23       0.0418
    211 C2          2.0430    1.6100   12.9220 C.2       7   U23       0.4687
    212 O2          0.8680    1.3310   12.7910 O.2       7   U23      -0.5477
    213 N3          2.9670    0.6770   13.3570 N.am      7   U23      -0.3549
    214 C4          4.3260    0.8850   13.5170 C.2       7   U23       0.5952
    215 O4          5.0470   -0.0110   13.9110 O.2       7   U23      -0.5761
    216 C5          4.7600    2.2210   13.1800 C.2       7   U23      -0.3635
    217 C6          3.8760    3.1530   12.7530 C.2       7   U23      -0.1126
    218 H5'         4.3680    4.2210   10.5170 H         7   U23       0.0679
    219 H5''        3.9780    4.4510    8.8020 H         7   U23       0.0679
    220 H4'         1.8600    5.1600    9.2440 H         7   U23       0.1174
    221 H3'         3.6440    6.0530   11.2480 H         7   U23       0.0615
    222 H2'         2.7720    5.3040   13.2440 H         7   U23       0.0972
    223 HO2'        0.6350    6.6710   12.1520 H         7   U23       0.4186
    224 H1'         0.5940    3.6960   12.6330 H         7   U23       0.1824
    225 H3          2.6260   -0.2150   13.5750 H         7   U23       0.3154
    226 H5          5.8150    2.4810   13.2700 H         7   U23       0.1811
    227 H6          4.2340    4.1510   12.5050 H         7   U23       0.2188
    228 P           2.2400    7.8070    9.4400 P.3       8   C24       1.1662
    229 OP1         1.3370    8.9750    9.3260 O.co2     8   C24      -0.7760
    230 OP2         2.3560    6.8510    8.3170 O.co2     8   C24      -0.7760
    231 O5'         3.7150    8.3440    9.8010 O.3       8   C24      -0.4989
    232 C5'         3.9080    9.2630   10.8790 C.3       8   C24       0.0558
    233 C4'         5.2520    9.0490   11.5670 C.3       8   C24       0.1065
    234 O4'         5.6120    7.6650   11.5790 O.3       8   C24      -0.3548
    235 C3'         6.3700    9.7870   10.8220 C.3       8   C24       0.2022
    236 O3'         7.0880   10.5800   11.7720 O.3       8   C24      -0.5246
    237 C2'         7.3030    8.6860   10.3270 C.3       8   C24       0.0670
    238 O2'         8.6760    9.0840   10.4120 O.3       8   C24      -0.6139
    239 C1'         6.9970    7.5390   11.2730 C.3       8   C24       0.0066
    240 N1          7.2950    6.2360   10.6470 N.am      8   C24      -0.0484
    241 C2          8.5670    5.7090   10.8290 C.2       8   C24       0.7538
    242 O2          9.3910    6.3110   11.4910 O.2       8   C24      -0.6252
    243 N3          8.8570    4.5110   10.2510 N.2       8   C24      -0.7584
    244 C4          7.9410    3.8570    9.5250 C.2       8   C24       0.8185
    245 N4          8.2610    2.6880    8.9710 N.pl3     8   C24      -0.9530
    246 C5          6.6300    4.3960    9.3350 C.2       8   C24      -0.5215
    247 C6          6.3500    5.5820    9.9100 C.2       8   C24       0.0053
    248 H5'         3.1100    9.1260   11.6090 H         8   C24       0.0679
    249 H5''        3.8640   10.2800   10.4910 H         8   C24       0.0679
    250 H4'         5.1970    9.4160   12.5910 H         8   C24       0.1174
    251 H3'         5.9820   10.3890   10.0010 H         8   C24       0.0615
    252 H2'         7.0410    8.4070    9.3020 H         8   C24       0.0972
    253 HO2'        9.0400    8.6860   11.2060 H         8   C24       0.4186
    254 H1'         7.5840    7.6500   12.1850 H         8   C24       0.2029
    255 H41         9.1850    2.3020    9.1010 H         8   C24       0.4234
    256 H42         7.5780    2.1870    8.4200 H         8   C24       0.4234
    257 H5          5.8840    3.8690    8.7420 H         8   C24       0.1928
    258 H6          5.3600    6.0190    9.7900 H         8   C24       0.1958
    259 P           6.6620   12.1070   12.0510 P.3       9   U25       1.1662
    260 OP1         5.2140   12.2420   11.7750 O.co2     9   U25      -0.7760
    261 OP2         7.6300   12.9900   11.3650 O.co2     9   U25      -0.7760
    262 O5'         6.8880   12.2480   13.6380 O.3       9   U25      -0.4989
    263 C5'         6.0810   13.1410   14.4100 C.3       9   U25       0.0558
    264 C4'         5.9540   12.6710   15.8550 C.3       9   U25       0.1065
    265 O4'         5.8730   13.7840   16.7520 O.3       9   U25      -0.3548
    266 C3'         4.6780   11.8530   16.0520 C.3       9   U25       0.2022
    267 O3'         4.9850   10.7480   16.9080 O.3       9   U25      -0.5246
    268 C2'         3.7440   12.7910   16.8010 C.3       9   U25       0.0670
    269 O2'         2.8660   12.0720   17.6740 O.3       9   U25      -0.6139
    270 C1'         4.7140   13.6600   17.5800 C.3       9   U25       0.0674
    271 N1          4.1260   14.9800   17.8760 N.am      9   U25       0.0418
    272 C2          4.1150   15.3930   19.1950 C.2       9   U25       0.4687
    273 O2          4.5700   14.7090   20.0900 O.2       9   U25      -0.5477
    274 N3          3.5570   16.6350   19.4380 N.am      9   U25      -0.3549
    275 C4          3.0160   17.4860   18.4910 C.2       9   U25       0.5952
    276 O4          2.5480   18.5600   18.8170 O.2       9   U25      -0.5761
    277 C5          3.0690   16.9740   17.1400 C.2       9   U25      -0.3635
    278 C6          3.6110   15.7610   16.8770 C.2       9   U25      -0.1126
    279 H5'         5.0880   13.1960   13.9650 H         9   U25       0.0679
    280 H5''        6.5340   14.1310   14.3960 H         9   U25       0.0679
    281 H4'         6.8200   12.0620   16.1160 H         9   U25       0.1174
    282 H3'         4.2530   11.5280   15.1020 H         9   U25       0.0615
    283 H2'         3.1790   13.4020   16.0940 H         9   U25       0.0972
    284 HO2'        2.9400   11.1410   17.4500 H         9   U25       0.4186
    285 H1'         4.9830   13.1620   18.5110 H         9   U25       0.1824
    286 H3          3.5430   16.9400   20.3690 H         9   U25       0.3154
    287 H5          2.6680   17.5730   16.3220 H         9   U25       0.1811
    288 H6          3.6390   15.4000   15.8490 H         9   U25       0.2188
    289 P           4.8070    9.2360   16.3860 P.3      10   G26       1.1662
    290 OP1         5.3630    8.3230   17.4100 O.co2    10   G26      -0.7760
    291 OP2         5.2980    9.1670   14.9910 O.co2    10   G26      -0.7760
    292 O5'         3.2070    9.0570   16.3660 O.3      10   G26      -0.4989
    293 C5'         2.6190    7.7850   16.0580 C.3      10   G26       0.0558
    294 C4'         1.5540    7.8760   14.9720 C.3      10   G26       0.1065
    295 O4'         0.3900    7.1410   15.3250 O.3      10   G26      -0.3548
    296 C3'         1.0630    9.3010   14.7850 C.3      10   G26       0.2022
    297 O3'         1.8720    9.9440   13.7970 O.3      10   G26      -0.5246
    298 C2'        -0.3320    9.1210   14.2070 C.3      10   G26       0.0670
    299 O2'        -0.3150    9.1980   12.7770 O.3      10   G26      -0.6139
    300 C1'        -0.7500    7.7280   14.6830 C.3      10   G26       0.0191
    301 N9         -1.8960    7.8140   15.6050 N.ar     10   G26       0.0492
    302 C8         -1.9360    8.2020   16.9040 C.ar     10   G26       0.1374
    303 N7         -3.0830    8.1920   17.4970 N.ar     10   G26      -0.5709
    304 C5         -3.9270    7.7440   16.4760 C.ar     10   G26       0.1744
    305 C6         -5.3310    7.5160   16.4880 C.2      10   G26       0.4770
    306 O6         -6.1100    7.6630   17.4080 O.2      10   G26      -0.5597
    307 N1         -5.7850    7.0680   15.2530 N.am     10   G26      -0.4787
    308 C2         -4.9920    6.8630   14.1410 C.2      10   G26       0.7657
    309 N2         -5.6130    6.4300   13.0450 N.pl3    10   G26      -0.9672
    310 N3         -3.6720    7.0740   14.1230 N.2      10   G26      -0.6323
    311 C4         -3.2060    7.5100   15.3140 C.ar     10   G26       0.1222
    312 H5'         2.1330    7.3910   16.9410 H        10   G26       0.0679
    313 H5''        3.4190    7.1000   15.7410 H        10   G26       0.0679
    314 H4'         1.9490    7.4910   14.0330 H        10   G26       0.1174
    315 H3'         1.0450    9.8530   15.7250 H        10   G26       0.0615
    316 H2'        -1.0070    9.8730   14.6250 H        10   G26       0.0972
    317 HO2'        0.5900    9.3730   12.5110 H        10   G26       0.4186
    318 H1'        -1.0280    7.1220   13.8210 H        10   G26       0.2006
    319 H8         -1.0320    8.5120   17.4280 H        10   G26       0.1640
    320 H1         -6.7460    6.8930   15.1870 H        10   G26       0.3424
    321 H21        -6.6090    6.2700   13.0590 H        10   G26       0.4364
    322 H22        -5.0860    6.2600   12.2000 H        10   G26       0.4364
    323 P           1.6720   11.5110   13.4700 P.3      11   A27       1.1662
    324 OP1         2.8850   11.9970   12.7770 O.co2    11   A27      -0.7760
    325 OP2         1.2110   12.1840   14.7060 O.co2    11   A27      -0.7760
    326 O5'         0.4530   11.5150   12.4120 O.3      11   A27      -0.4989
    327 C5'         0.7220   11.4260   11.0100 C.3      11   A27       0.0558
    328 C4'        -0.5480   11.5290   10.1630 C.3      11   A27       0.1065
    329 O4'        -1.4220   10.4200   10.3630 O.3      11   A27      -0.3548
    330 C3'        -1.3880   12.7270   10.5430 C.3      11   A27       0.2022
    331 O3'        -0.8840   13.8830    9.8700 O.3      11   A27      -0.5246
    332 C2'        -2.7330   12.3600    9.9440 C.3      11   A27       0.0670
    333 O2'        -2.7860   12.6580    8.5440 O.3      11   A27      -0.6139
    334 C1'        -2.7910   10.8540   10.2000 C.3      11   A27       0.0394
    335 N9         -3.5770   10.5820   11.4150 N.ar     11   A27      -0.0251
    336 C8         -3.1530   10.2160   12.6430 C.ar     11   A27       0.2006
    337 N7         -4.0440   10.0380   13.5580 N.ar     11   A27      -0.6073
    338 C5         -5.2210   10.3280   12.8620 C.ar     11   A27       0.0515
    339 C6         -6.5680   10.3410   13.2410 C.ar     11   A27       0.7009
    340 N6         -6.9810   10.0470   14.4740 N.pl3    11   A27      -0.9019
    341 N1         -7.4710   10.6760   12.3020 N.ar     11   A27      -0.7615
    342 C2         -7.0770   10.9830   11.0650 C.ar     11   A27       0.5875
    343 N3         -5.8310   11.0030   10.5990 N.ar     11   A27      -0.6997
    344 C4         -4.9450   10.6620   11.5560 C.ar     11   A27       0.3053
    345 H5'         1.2060   10.4700   10.8050 H        11   A27       0.0679
    346 H5''        1.4000   12.2310   10.7290 H        11   A27       0.0679
    347 H4'        -0.2810   11.5870    9.1100 H        11   A27       0.1174
    348 H3'        -1.4450   12.8580   11.6260 H        11   A27       0.0615
    349 H2'        -3.5370   12.8660   10.4850 H        11   A27       0.0972
    350 HO2'       -3.6070   12.2930    8.2050 H        11   A27       0.4186
    351 H1'        -3.2430   10.3490    9.3470 H        11   A27       0.2007
    352 H8         -2.0930   10.1030   12.8550 H        11   A27       0.1553
    353 H61        -6.3080    9.8020   15.1860 H        11   A27       0.4115
    354 H62        -7.9650   10.0700   14.6960 H        11   A27       0.4115
    355 H2         -7.8630   11.2480   10.3570 H        11   A27       0.0473
    356 P          -1.1360   15.3510   10.4810 P.3      12   G28       1.1662
    357 OP1        -0.5570   16.3470    9.5520 O.co2    12   G28      -0.7760
    358 OP2        -0.7260   15.3390   11.9030 O.co2    12   G28      -0.7760
    359 O5'        -2.7400   15.4720   10.4180 O.3      12   G28      -0.4989
    360 C5'        -3.4170   15.4360    9.1540 C.3      12   G28       0.0558
    361 C4'        -4.9310   15.4830    9.3040 C.3      12   G28       0.1065
    362 O4'        -5.4330   14.3130    9.9360 O.3      12   G28      -0.3548
    363 C3'        -5.3710   16.6180   10.2030 C.3      12   G28       0.2022
    364 O3'        -5.5250   17.7960    9.4060 O.3      12   G28      -0.5246
    365 C2'        -6.7460   16.1660   10.6750 C.3      12   G28       0.0670
    366 O2'        -7.7810   16.6630    9.8180 O.3      12   G28      -0.6139
    367 C1'        -6.6560   14.6360   10.6130 C.3      12   G28       0.0191
    368 N9         -6.6780   14.0570   11.9690 N.ar     12   G28       0.0492
    369 C8         -5.6800   13.4800   12.6800 C.ar     12   G28       0.1374
    370 N7         -5.9590   13.0530   13.8660 N.ar     12   G28      -0.5709
    371 C5         -7.3140   13.3810   13.9760 C.ar     12   G28       0.1744
    372 C6         -8.2170   13.1720   15.0520 C.2      12   G28       0.4770
    373 O6         -7.9980   12.6570   16.1300 O.2      12   G28      -0.5597
    374 N1         -9.4870   13.6500   14.7520 N.am     12   G28      -0.4787
    375 C2         -9.8490   14.2520   13.5650 C.2      12   G28       0.7657
    376 N2        -11.1210   14.6400   13.4630 N.pl3    12   G28      -0.9672
    377 N3         -9.0050   14.4530   12.5470 N.2      12   G28      -0.6323
    378 C4         -7.7620   13.9960   12.8160 C.ar     12   G28       0.1222
    379 H5'        -3.1810   14.5110    8.6460 H        12   G28       0.0679
    380 H5''       -3.0730   16.2880    8.5500 H        12   G28       0.0679
    381 H4'        -5.3940   15.5870    8.3250 H        12   G28       0.1174
    382 H3'        -4.6840   16.7690   11.0350 H        12   G28       0.0615
    383 H2'        -6.9090   16.4890   11.7060 H        12   G28       0.0972
    384 HO2'       -7.4120   16.7300    8.9350 H        12   G28       0.4186
    385 H1'        -7.4980   14.2480   10.0410 H        12   G28       0.2006
    386 H8         -4.6770   13.3790   12.2660 H        12   G28       0.1640
    387 H1        -10.1650   13.5390   15.4520 H        12   G28       0.3424
    388 H21       -11.7570   14.4900   14.2320 H        12   G28       0.4364
    389 H22       -11.4470   15.0850   12.6170 H        12   G28       0.4364
    390 P          -5.3920   19.2530   10.0750 P.3      13   C29       1.1662
    391 OP1        -5.4730   20.2660    8.9980 O.co2    13   C29      -0.7760
    392 OP2        -4.2300   19.2390   10.9920 O.co2    13   C29      -0.7760
    393 O5'        -6.7340   19.3510   10.9620 O.3      13   C29      -0.4989
    394 C5'        -8.0180   19.3350   10.3340 C.3      13   C29       0.0558
    395 C4'        -9.1480   19.3920   11.3580 C.3      13   C29       0.1065
    396 O4'        -9.2870   18.1670   12.0660 O.3      13   C29      -0.3548
    397 C3'        -8.8720   20.4230   12.4310 C.3      13   C29       0.2022
    398 O3'        -9.3610   21.6900   11.9790 O.3      13   C29      -0.5246
    399 C2'        -9.7370   19.9510   13.5920 C.3      13   C29       0.0670
    400 O2'       -11.0230   20.5820   13.5730 O.3      13   C29      -0.6139
    401 C1'        -9.8560   18.4380   13.3560 C.3      13   C29       0.0066
    402 N1         -9.1520   17.6860   14.4140 N.am     13   C29      -0.0484
    403 C2         -9.9070   17.2100   15.4790 C.2      13   C29       0.7538
    404 O2        -11.1070   17.4070   15.5170 O.2      13   C29      -0.6252
    405 N3         -9.2680   16.5240   16.4650 N.2      13   C29      -0.7584
    406 C4         -7.9470   16.3110   16.4130 C.2      13   C29       0.8185
    407 N4         -7.3540   15.6380   17.3980 N.pl3    13   C29      -0.9530
    408 C5         -7.1660   16.7970   15.3170 C.2      13   C29      -0.5215
    409 C6         -7.8050   17.4750   14.3450 C.2      13   C29       0.0053
    410 H5'        -8.1150   18.4210    9.7480 H        13   C29       0.0679
    411 H5''       -8.0980   20.1940    9.6680 H        13   C29       0.0679
    412 H4'       -10.0870   19.6250   10.8570 H        13   C29       0.1174
    413 H3'        -7.8160   20.4600   12.6980 H        13   C29       0.0615
    414 H2'        -9.2260   20.1410   14.5380 H        13   C29       0.0972
    415 HO2'      -11.2880   20.7150   14.4860 H        13   C29       0.4186
    416 H1'       -10.9080   18.1550   13.3530 H        13   C29       0.2029
    417 H41        -7.9000   15.2930   18.1740 H        13   C29       0.4234
    418 H42        -6.3580   15.4740   17.3690 H        13   C29       0.4234
    419 H5         -6.0910   16.6240   15.2690 H        13   C29       0.1928
    420 H6         -7.2420   17.8600   13.4940 H        13   C29       0.1958
    421 P          -8.5960   23.0490   12.3800 P.3      14   C30       1.1662
    422 OP1        -9.4020   24.1930   11.8990 O.co2    14   C30      -0.7760
    423 OP2        -7.1790   22.9190   11.9710 O.co2    14   C30      -0.7760
    424 O5'        -8.6600   23.0280   13.9890 O.3      14   C30      -0.4989
    425 C5'        -9.8720   23.3590   14.6720 C.3      14   C30       0.0558
    426 C4'        -9.7860   23.0320   16.1600 C.3      14   C30       0.1065
    427 O4'        -9.2570   21.7170   16.3680 O.3      14   C30      -0.3548
    428 C3'        -8.8420   23.9920   16.8740 C.3      14   C30       0.2022
    429 O3'        -9.3090   24.1650   18.2150 O.3      14   C30      -0.5246
    430 C2'        -7.5270   23.2350   16.9210 C.3      14   C30       0.0670
    431 O2'        -6.7380   23.6240   18.0500 O.3      14   C30      -0.6139
    432 C1'        -7.9890   21.7890   17.0360 C.3      14   C30       0.0066
    433 N1         -7.0130   20.8700   16.4170 N.am     14   C30      -0.0484
    434 C2         -6.5250   19.8270   17.1940 C.2      14   C30       0.7538
    435 O2         -6.9000   19.6920   18.3440 O.2      14   C30      -0.6252
    436 N3         -5.6260   18.9720   16.6350 N.2      14   C30      -0.7584
    437 C4         -5.2210   19.1310   15.3680 C.2      14   C30       0.8185
    438 N4         -4.3400   18.2740   14.8510 N.pl3    14   C30      -0.9530
    439 C5         -5.7200   20.2030   14.5640 C.2      14   C30      -0.5215
    440 C6         -6.6100   21.0450   15.1250 C.2      14   C30       0.0053
    441 H5'       -10.6940   22.7930   14.2310 H        14   C30       0.0679
    442 H5''      -10.0700   24.4240   14.5530 H        14   C30       0.0679
    443 H4'       -10.7770   23.0960   16.6050 H        14   C30       0.1174
    444 H3'        -8.7480   24.9410   16.3460 H        14   C30       0.0615
    445 H2'        -6.9760   23.3790   15.9890 H        14   C30       0.0972
    446 HO2'       -7.0700   23.1410   18.8110 H        14   C30       0.4186
    447 H1'        -8.1170   21.5310   18.0870 H        14   C30       0.2029
    448 H41        -3.9830   17.5150   15.4140 H        14   C30       0.4234
    449 H42        -4.0280   18.3850   13.8980 H        14   C30       0.4234
    450 H5         -5.3930   20.3350   13.5330 H        14   C30       0.1928
    451 H6         -7.0120   21.8730   14.5420 H        14   C30       0.1958
    452 P          -9.6980   25.6280   18.7640 P.3      15   U31       1.1662
    453 OP1       -11.1470   25.8350   18.5430 O.co2    15   U31      -0.7760
    454 OP2        -8.7230   26.6010   18.2220 O.co2    15   U31      -0.7760
    455 O5'        -9.4430   25.4880   20.3470 O.3      15   U31      -0.4989
    456 C5'       -10.1540   26.3140   21.2730 C.3      15   U31       0.0558
    457 C4'        -9.3860   26.4810   22.5800 C.3      15   U31       0.1065
    458 O4'        -8.3950   25.4610   22.7270 O.3      15   U31      -0.3548
    459 C3'        -8.6460   27.8220   22.6120 C.3      15   U31       0.2022
    460 O3'        -8.9590   28.4720   23.8470 O.3      15   U31      -0.5246
    461 C2'        -7.1670   27.4500   22.6350 C.3      15   U31       0.0670
    462 O2'        -6.4150   28.3430   23.4650 O.3      15   U31      -0.6139
    463 C1'        -7.1880   26.0440   23.2070 C.3      15   U31       0.0674
    464 N1         -6.0080   25.2710   22.7710 N.am     15   U31       0.0418
    465 C2         -4.7750   25.6660   23.2540 C.2      15   U31       0.4687
    466 O2         -4.6480   26.6100   24.0090 O.2      15   U31      -0.5477
    467 N3         -3.6900   24.9220   22.8270 N.am     15   U31      -0.3549
    468 C4         -3.7310   23.8340   21.9710 C.2      15   U31       0.5952
    469 O4         -2.7110   23.2520   21.6610 O.2      15   U31      -0.5761
    470 C5         -5.0600   23.4930   21.5160 C.2      15   U31      -0.3635
    471 C6         -6.1380   24.2080   21.9210 C.2      15   U31      -0.1126
    472 H5'       -10.3120   27.2950   20.8260 H        15   U31       0.0679
    473 H5''      -11.1220   25.8600   21.4850 H        15   U31       0.0679
    474 H4'       -10.0800   26.4300   23.4190 H        15   U31       0.1174
    475 H3'        -8.8950   28.4430   21.7520 H        15   U31       0.0615
    476 H2'        -6.7690   27.4350   21.6170 H        15   U31       0.0972
    477 HO2'       -5.5100   28.3350   23.1440 H        15   U31       0.4186
    478 H1'        -7.2130   26.0920   24.2960 H        15   U31       0.1824
    479 H3         -2.8080   25.1910   23.1610 H        15   U31       0.3154
    480 H5         -5.1970   22.6510   20.8390 H        15   U31       0.1811
    481 H6         -7.1290   23.9280   21.5620 H        15   U31       0.2188
    482 P         -10.1460   29.5560   23.9230 P.3      16   G32       1.1662
    483 OP1       -10.1980   30.2790   22.6330 O.co2    16   G32      -0.7760
    484 OP2       -10.0040   30.3120   25.1870 O.co2    16   G32      -0.7760
    485 O5'       -11.4600   28.6320   24.0350 O.3      16   G32      -0.4989
    486 C5'       -12.6250   29.1020   24.7290 C.3      16   G32       0.0558
    487 C4'       -13.8030   28.1370   24.6370 C.3      16   G32       0.1065
    488 O4'       -14.8030   28.6360   23.7510 O.3      16   G32      -0.3548
    489 C3'       -13.3840   26.7930   24.0640 C.3      16   G32       0.2022
    490 O3'       -14.3200   25.8060   24.5020 O.3      16   G32      -0.5246
    491 C2'       -13.5540   26.9840   22.5660 C.3      16   G32       0.0670
    492 O2'       -13.8890   25.7510   21.9170 O.3      16   G32      -0.6139
    493 C1'       -14.6980   27.9930   22.4720 C.3      16   G32       0.0191
    494 N9        -14.4430   28.9800   21.4060 N.ar     16   G32       0.0492
    495 C8        -13.2890   29.6040   21.0630 C.ar     16   G32       0.1374
    496 N7        -13.3280   30.4360   20.0760 N.ar     16   G32      -0.5709
    497 C5        -14.6730   30.3690   19.7010 C.ar     16   G32       0.1744
    498 C6        -15.3630   31.0540   18.6650 C.2      16   G32       0.4770
    499 O6        -14.9220   31.8590   17.8690 O.2      16   G32      -0.5597
    500 N1        -16.7060   30.7010   18.6270 N.am     16   G32      -0.4787
    501 C2        -17.3150   29.7990   19.4770 C.2      16   G32       0.7657
    502 N2        -18.6170   29.5890   19.2790 N.pl3    16   G32      -0.9672
    503 N3        -16.6740   29.1510   20.4540 N.2      16   G32      -0.6323
    504 C4        -15.3630   29.4800   20.5110 C.ar     16   G32       0.1222
    505 H5'       -12.9520   30.0330   24.2870 H        16   G32       0.0679
    506 H5''      -12.3590   29.2680   25.7820 H        16   G32       0.0679
    507 H4'       -14.2370   27.9950   25.6250 H        16   G32       0.1174
    508 H3'       -12.3590   26.5370   24.3300 H        16   G32       0.0615
    509 H2'       -12.6430   27.4110   22.1390 H        16   G32       0.0972
    510 HO2'      -13.1950   25.1210   22.1260 H        16   G32       0.4186
    511 H1'       -15.6260   27.4660   22.2580 H        16   G32       0.2006
    512 H8        -12.3610   29.4110   21.6020 H        16   G32       0.1640
    513 H1        -17.2460   31.1360   17.9340 H        16   G32       0.3424
    514 H21       -19.1020   30.0790   18.5410 H        16   G32       0.4364
    515 H22       -19.1190   28.9400   19.8680 H        16   G32       0.4364
    516 P         -13.9470   24.8000   25.7030 P.3      17   G33       1.1662
    517 OP1       -15.1600   24.0330   26.0600 O.co2    17   G33      -0.7760
    518 OP2       -13.2280   25.5700   26.7430 O.co2    17   G33      -0.7760
    519 O5'       -12.9010   23.7940   25.0060 O.3      17   G33      -0.4989
    520 C5'       -13.2080   23.1890   23.7430 C.3      17   G33       0.0558
    521 C4'       -12.8070   21.7210   23.6910 C.3      17   G33       0.1065
    522 O4'       -13.6850   20.9770   22.8570 O.3      17   G33      -0.3548
    523 C3'       -11.4310   21.5490   23.0750 C.3      17   G33       0.2022
    524 O3'       -10.8810   20.3160   23.5440 O.3      17   G33      -0.5246
    525 C2'       -11.7100   21.4080   21.5820 C.3      17   G33       0.0670
    526 O2'       -10.8450   20.4380   20.9820 O.3      17   G33      -0.6139
    527 C1'       -13.1740   20.9600   21.5180 C.3      17   G33       0.0191
    528 N9        -13.9590   21.8560   20.6470 N.ar     17   G33       0.0492
    529 C8        -13.8570   23.1960   20.4700 C.ar     17   G33       0.1374
    530 N7        -14.6730   23.7540   19.6400 N.ar     17   G33      -0.5709
    531 C5        -15.4220   22.6590   19.1970 C.ar     17   G33       0.1744
    532 C6        -16.4920   22.6060   18.2640 C.2      17   G33       0.4770
    533 O6        -16.9940   23.5200   17.6400 O.2      17   G33      -0.5597
    534 N1        -16.9650   21.3090   18.1050 N.am     17   G33      -0.4787
    535 C2        -16.4730   20.1970   18.7590 C.2      17   G33       0.7657
    536 N2        -17.0600   19.0360   18.4690 N.pl3    17   G33      -0.9672
    537 N3        -15.4670   20.2390   19.6370 N.2      17   G33      -0.6323
    538 C4        -14.9890   21.4920   19.8090 C.ar     17   G33       0.1222
    539 H5'       -12.6580   23.6930   22.9600 H        17   G33       0.0679
    540 H5''      -14.2870   23.2900   23.5620 H        17   G33       0.0679
    541 H4'       -12.8180   21.3010   24.6950 H        17   G33       0.1174
    542 H3'       -10.7790   22.3960   23.2880 H        17   G33       0.0615
    543 H2'       -11.5990   22.3780   21.0920 H        17   G33       0.0972
    544 HO2'      -10.3630   20.0070   21.6920 H        17   G33       0.4186
    545 H1'       -13.2250   19.9440   21.1250 H        17   G33       0.2006
    546 H8        -13.1130   23.7820   21.0100 H        17   G33       0.1640
    547 H1        -17.7070   21.1970   17.4740 H        17   G33       0.3424
    548 H21       -17.8210   19.0060   17.8060 H        17   G33       0.4364
    549 H22       -16.7440   18.1870   18.9160 H        17   G33       0.4364
    550 P         -10.2860   20.2010   25.0360 P.3      18   G34       1.1662
    551 OP1       -11.0490   21.1210   25.9100 O.co2    18   G34      -0.7760
    552 OP2        -8.8120   20.3110   24.9570 O.co2    18   G34      -0.7760
    553 O5'       -10.6580   18.6910   25.4460 O.3      18   G34      -0.4989
    554 C5'       -10.6530   18.2900   26.8230 C.3      18   G34       0.0558
    555 C4'       -11.4500   17.0160   27.0590 C.3      18   G34       0.1065
    556 O4'       -12.8240   17.3100   27.3470 O.3      18   G34      -0.3548
    557 C3'       -11.4520   16.1340   25.8170 C.3      18   G34       0.2022
    558 O3'       -10.4640   15.1160   25.9890 O.3      18   G34      -0.5246
    559 C2'       -12.8240   15.4840   25.8530 C.3      18   G34       0.0670
    560 O2'       -12.8290   14.3120   26.6750 O.3      18   G34      -0.6139
    561 C1'       -13.6800   16.5900   26.4490 C.3      18   G34       0.0191
    562 N9        -14.2100   17.4790   25.3960 N.ar     18   G34       0.0492
    563 C8        -13.7720   17.6770   24.1280 C.ar     18   G34       0.1374
    564 N7        -14.4200   18.5170   23.3950 N.ar     18   G34      -0.5709
    565 C5        -15.4220   18.9460   24.2710 C.ar     18   G34       0.1744
    566 C6        -16.4720   19.8820   24.0650 C.2      18   G34       0.4770
    567 O6        -16.7260   20.5210   23.0630 O.2      18   G34      -0.5597
    568 N1        -17.2590   20.0240   25.2000 N.am     18   G34      -0.4787
    569 C2        -17.0660   19.3520   26.3910 C.2      18   G34       0.7657
    570 N2        -17.9280   19.6280   27.3700 N.pl3    18   G34      -0.9672
    571 N3        -16.0810   18.4700   26.5930 N.2      18   G34      -0.6323
    572 C4        -15.3010   18.3150   25.5000 C.ar     18   G34       0.1222
    573 H5'       -11.1120   19.0630   27.4240 H        18   G34       0.0679
    574 H5''       -9.6100   18.1460   27.1400 H        18   G34       0.0679
    575 H4'       -11.0180   16.4660   27.8920 H        18   G34       0.1174
    576 H3'       -11.2980   16.7120   24.9060 H        18   G34       0.0615
    577 H2'       -13.1590   15.2550   24.8380 H        18   G34       0.0972
    578 HO2'      -11.9330   14.1860   26.9990 H        18   G34       0.4186
    579 H1'       -14.5080   16.1500   27.0060 H        18   G34       0.2006
    580 H8        -12.9020   17.1440   23.7440 H        18   G34       0.1640
    581 H1        -18.0050   20.6560   25.1310 H        18   G34       0.3424
    582 H21       -18.6700   20.2940   27.2170 H        18   G34       0.4364
    583 H22       -17.8380   19.1690   28.2660 H        18   G34       0.4364
    584 P          -8.8980   15.4950   26.0120 P.3      19   A35       1.1662
    585 OP1        -8.3610   15.1670   27.3510 O.co2    19   A35      -0.7760
    586 OP2        -8.7440   16.8650   25.4710 O.co2    19   A35      -0.7760
    587 O5'        -8.2740   14.4600   24.9500 O.3      19   A35      -0.4989
    588 C5'        -9.0740   13.9510   23.8810 C.3      19   A35       0.0558
    589 C4'        -9.4430   12.4870   24.1050 C.3      19   A35       0.1065
    590 O4'        -8.3320   11.7450   24.6020 O.3      19   A35      -0.3548
    591 C3'       -10.5320   12.3510   25.1570 C.3      19   A35       0.2022
    592 O3'       -11.2220   11.1190   24.9330 O.3      19   A35      -0.5246
    593 C2'        -9.7530   12.2330   26.4570 C.3      19   A35       0.0670
    594 O2'       -10.4510   11.4260   27.4130 O.3      19   A35      -0.6139
    595 C1'        -8.4450   11.5710   26.0230 C.3      19   A35       0.0394
    596 N9         -7.2950   12.1770   26.7200 N.ar     19   A35      -0.0251
    597 C8         -7.0550   12.3020   28.0480 C.ar     19   A35       0.2006
    598 N7         -5.9560   12.8780   28.4030 N.ar     19   A35      -0.6073
    599 C5         -5.3830   13.1810   27.1640 C.ar     19   A35       0.0515
    600 C6         -4.1880   13.8090   26.8010 C.ar     19   A35       0.7009
    601 N6         -3.3070   14.2670   27.6900 N.pl3    19   A35      -0.9019
    602 N1         -3.9330   13.9440   25.4870 N.ar     19   A35      -0.7615
    603 C2         -4.8010   13.4890   24.5810 C.ar     19   A35       0.5875
    604 N3         -5.9600   12.8800   24.8130 N.ar     19   A35      -0.6997
    605 C4         -6.1930   12.7570   26.1350 C.ar     19   A35       0.3053
    606 H5'        -8.5210   14.0390   22.9470 H        19   A35       0.0679
    607 H5''       -9.9870   14.5410   23.8110 H        19   A35       0.0679
    608 H4'        -9.7820   12.0470   23.1690 H        19   A35       0.1174
    609 H3'       -11.2060   13.2070   25.1600 H        19   A35       0.0615
    610 H2'        -9.5530   13.2280   26.8630 H        19   A35       0.0972
    611 HO2'      -10.1190   11.6630   28.2830 H        19   A35       0.4186
    612 H1'        -8.4850   10.5060   26.2550 H        19   A35       0.2007
    613 H8         -7.7640   11.9310   28.7880 H        19   A35       0.1553
    614 H61        -2.4570   14.7140   27.3750 H        19   A35       0.4115
    615 H62        -3.4880   14.1680   28.6780 H        19   A35       0.4115
    616 H2         -4.5300   13.6330   23.5350 H        19   A35       0.0473
    617 P         -12.7470   10.9340   25.4140 P.3      20   G36       1.1662
    618 OP1       -12.8410   11.3460   26.8330 O.co2    20   G36      -0.7760
    619 OP2       -13.2010    9.5860   25.0060 O.co2    20   G36      -0.7760
    620 O5'       -13.5330   12.0210   24.5230 O.3      20   G36      -0.4989
    621 C5'       -14.7260   12.6390   25.0230 C.3      20   G36       0.0558
    622 C4'       -15.3650   13.5750   24.0080 C.3      20   G36       0.1065
    623 O4'       -14.6200   14.7860   23.8500 O.3      20   G36      -0.3548
    624 C3'       -15.3960   12.9480   22.6270 C.3      20   G36       0.2022
    625 O3'       -16.5920   12.1740   22.5010 O.3      20   G36      -0.5246
    626 C2'       -15.4910   14.1660   21.7280 C.3      20   G36       0.0670
    627 O2'       -16.8370   14.6500   21.6390 O.3      20   G36      -0.6139
    628 C1'       -14.5850   15.1570   22.4580 C.3      20   G36       0.0191
    629 N9        -13.2090   15.0950   21.9350 N.ar     20   G36       0.0492
    630 C8        -12.0850   14.6090   22.5170 C.ar     20   G36       0.1374
    631 N7        -10.9890   14.6540   21.8380 N.ar     20   G36      -0.5709
    632 C5        -11.4170   15.2450   20.6460 C.ar     20   G36       0.1744
    633 C6        -10.6790   15.5730   19.4770 C.2      20   G36       0.4770
    634 O6         -9.4950   15.4020   19.2610 O.2      20   G36      -0.5597
    635 N1        -11.4880   16.1540   18.5090 N.am     20   G36      -0.4787
    636 C2        -12.8410   16.3930   18.6430 C.2      20   G36       0.7657
    637 N2        -13.4420   16.9680   17.6010 N.pl3    20   G36      -0.9672
    638 N3        -13.5440   16.0890   19.7390 N.2      20   G36      -0.6323
    639 C4        -12.7760   15.5200   20.6970 C.ar     20   G36       0.1222
    640 H5'       -14.4840   13.2370   25.8910 H        20   G36       0.0679
    641 H5''      -15.4370   11.8490   25.3050 H        20   G36       0.0679
    642 H4'       -16.3790   13.8170   24.3240 H        20   G36       0.1174
    643 H3'       -14.4980   12.3620   22.4260 H        20   G36       0.0615
    644 H2'       -15.0850   13.9430   20.7340 H        20   G36       0.0972
    645 HO2'      -16.9540   15.2990   22.3360 H        20   G36       0.4186
    646 H1'       -14.9770   16.1670   22.3380 H        20   G36       0.2006
    647 H8        -12.1050   14.1990   23.5280 H        20   G36       0.1640
    648 H1        -11.0440   16.4060   17.6730 H        20   G36       0.3424
    649 H21       -12.9100   17.1980   16.7740 H        20   G36       0.4364
    650 H22       -14.4310   17.1740   17.6390 H        20   G36       0.4364
    651 P         -16.6420   10.9190   21.4920 P.3      21   C37       1.1662
    652 OP1       -18.0070   10.3490   21.5240 O.co2    21   C37      -0.7760
    653 OP2       -15.4710   10.0560   21.7640 O.co2    21   C37      -0.7760
    654 O5'       -16.4240   11.6320   20.0680 O.3      21   C37      -0.4989
    655 C5'       -17.4030   12.5430   19.5670 C.3      21   C37       0.0558
    656 C4'       -16.9630   13.1720   18.2510 C.3      21   C37       0.1065
    657 O4'       -15.8230   14.0070   18.4330 O.3      21   C37      -0.3548
    658 C3'       -16.5140   12.1280   17.2490 C.3      21   C37       0.2022
    659 O3'       -17.6580   11.6680   16.5220 O.3      21   C37      -0.5246
    660 C2'       -15.6390   12.9390   16.3110 C.3      21   C37       0.0670
    661 O2'       -16.4130   13.5760   15.2880 O.3      21   C37      -0.6139
    662 C1'       -15.0030   13.9650   17.2540 C.3      21   C37       0.0066
    663 N1        -13.6150   13.5810   17.5760 N.am     21   C37      -0.0484
    664 C2        -12.6390   13.8500   16.6250 C.2      21   C37       0.7538
    665 O2        -12.9350   14.3960   15.5800 O.2      21   C37      -0.6252
    666 N3        -11.3560   13.4880   16.8990 N.2      21   C37      -0.7584
    667 C4        -11.0400   12.8890   18.0540 C.2      21   C37       0.8185
    668 N4         -9.7730   12.5470   18.2860 N.pl3    21   C37      -0.9530
    669 C5        -12.0410   12.6110   19.0360 C.2      21   C37      -0.5215
    670 C6        -13.3090   12.9720   18.7580 C.2      21   C37       0.0053
    671 H5'       -17.5630   13.3320   20.3030 H        21   C37       0.0679
    672 H5''      -18.3390   12.0070   19.4100 H        21   C37       0.0679
    673 H4'       -17.7770   13.7600   17.8330 H        21   C37       0.1174
    674 H3'       -15.9650   11.3140   17.7220 H        21   C37       0.0615
    675 H2'       -14.8650   12.3030   15.8770 H        21   C37       0.0972
    676 HO2'      -16.6820   14.4340   15.6260 H        21   C37       0.4186
    677 H1'       -15.0070   14.9450   16.7820 H        21   C37       0.2029
    678 H41        -9.0630   12.7410   17.5950 H        21   C37       0.4234
    679 H42        -9.5230   12.0960   19.1540 H        21   C37       0.4234
    680 H5        -11.7870   12.1240   19.9770 H        21   C37       0.1928
    681 H6        -14.0990   12.7700   19.4800 H        21   C37       0.1958
    682 P         -17.6760   10.1890   15.8850 P.3      22   U38       1.1662
    683 OP1       -19.0160    9.9550   15.3000 O.co2    22   U38      -0.7760
    684 OP2       -17.1330    9.2450   16.8870 O.co2    22   U38      -0.7760
    685 O5'       -16.6140   10.3110   14.6790 O.3      22   U38      -0.4989
    686 C5'       -16.9240   11.0890   13.5190 C.3      22   U38       0.0558
    687 C4'       -15.7710   11.1020   12.5190 C.3      22   U38       0.1065
    688 O4'       -14.6290   11.7680   13.0380 O.3      22   U38      -0.3548
    689 C3'       -15.2740    9.7040   12.2150 C.3      22   U38       0.2022
    690 O3'       -16.0760    9.1520   11.1670 O.3      22   U38      -0.5246
    691 C2'       -13.8770    9.9650   11.6710 C.3      22   U38       0.0670
    692 O2'       -13.8970   10.1610   10.2520 O.3      22   U38      -0.6139
    693 C1'       -13.4510   11.2430   12.4060 C.3      22   U38       0.0674
    694 N1        -12.4070   10.9400   13.4000 N.am     22   U38       0.0418
    695 C2        -11.1120   10.7950   12.9420 C.2      22   U38       0.4687
    696 O2        -10.8230   10.9250   11.7690 O.2      22   U38      -0.5477
    697 N3        -10.1610   10.4900   13.8980 N.am     22   U38      -0.3549
    698 C4        -10.3900   10.3210   15.2520 C.2      22   U38       0.5952
    699 O4         -9.4760   10.0460   16.0050 O.2      22   U38      -0.5761
    700 C5        -11.7720   10.4910   15.6410 C.2      22   U38      -0.3635
    701 C6        -12.7200   10.7890   14.7210 C.2      22   U38      -0.1126
    702 H5'       -17.1390   12.1120   13.8270 H        22   U38       0.0679
    703 H5''      -17.8070   10.6710   13.0370 H        22   U38       0.0679
    704 H4'       -16.0840   11.5900   11.5990 H        22   U38       0.1174
    705 H3'       -15.2560    9.0750   13.1070 H        22   U38       0.0615
    706 H2'       -13.2120    9.1400   11.9410 H        22   U38       0.0972
    707 HO2'      -14.0040    9.2980    9.8470 H        22   U38       0.4186
    708 H1'       -13.0710   11.9670   11.6870 H        22   U38       0.1824
    709 H3         -9.2370   10.3900   13.5870 H        22   U38       0.3154
    710 H5        -12.0550   10.3790   16.6870 H        22   U38       0.1811
    711 H6        -13.7580   10.8950   15.0370 H        22   U38       0.2188
    712 P         -15.7980    7.6610   10.6250 P.3      23   C39       1.1662
    713 OP1       -15.4000    7.7530    9.2020 O.co2    23   C39      -0.7760
    714 OP2       -16.9380    6.8040   11.0180 O.co2    23   C39      -0.7760
    715 O5'       -14.5090    7.2090   11.4780 O.3      23   C39      -0.4989
    716 C5'       -14.0180    5.8680   11.3980 C.3      23   C39       0.0558
    717 C4'       -12.7400    5.7870   10.5670 C.3      23   C39       0.1065
    718 O4'       -11.8540    6.8670   10.8790 O.3      23   C39      -0.3548
    719 C3'       -11.9750    4.5060   10.8680 C.3      23   C39       0.2022
    720 O3'       -12.2960    3.5460    9.8570 O.3      23   C39      -0.5246
    721 C2'       -10.5190    4.9080   10.6970 C.3      23   C39       0.0670
    722 O2'       -10.0860    4.7410    9.3420 O.3      23   C39      -0.6139
    723 C1'       -10.5240    6.3770   11.1040 C.3      23   C39       0.0066
    724 N1        -10.1320    6.5370   12.5180 N.am     23   C39      -0.0484
    725 C2         -8.8130    6.2630   12.8560 C.2      23   C39       0.7538
    726 O2         -8.0250    5.8970   12.0040 O.2      23   C39      -0.6252
    727 N3         -8.4350    6.4150   14.1550 N.2      23   C39      -0.7584
    728 C4         -9.3120    6.8160   15.0860 C.2      23   C39       0.8185
    729 N4         -8.9060    6.9520   16.3480 N.pl3    23   C39      -0.9530
    730 C5        -10.6710    7.0970   14.7420 C.2      23   C39      -0.5215
    731 C6        -11.0360    6.9460   13.4550 C.2      23   C39       0.0053
    732 H5'       -13.8120    5.5030   12.4040 H        23   C39       0.0679
    733 H5''      -14.7800    5.2370   10.9390 H        23   C39       0.0679
    734 H4'       -12.9900    5.8220    9.5080 H        23   C39       0.1174
    735 H3'       -12.1800    4.1330   11.8720 H        23   C39       0.0615
    736 H2'        -9.8880    4.3310   11.3810 H        23   C39       0.0972
    737 HO2'      -10.1840    5.5910    8.9050 H        23   C39       0.4186
    738 H1'        -9.8260    6.9280   10.4730 H        23   C39       0.2029
    739 H41        -7.9470    6.7550   16.5950 H        23   C39       0.4234
    740 H42        -9.5600    7.2490   17.0590 H        23   C39       0.4234
    741 H5        -11.3880    7.4240   15.4970 H        23   C39       0.1928
    742 H6        -12.0660    7.1510   13.1580 H        23   C39       0.1958
    743 P         -11.9520    1.9870   10.0710 P.3      24   U40       1.1662
    744 OP1       -13.2170    1.2650   10.3300 O.co2    24   U40      -0.7760
    745 OP2       -10.8350    1.8890   11.0370 O.co2    24   U40      -0.7760
    746 O5'       -11.4050    1.5450    8.6220 O.3      24   U40      -0.4989
    747 C5'       -11.9890    2.0770    7.4300 C.3      24   U40       0.0558
    748 C4'       -10.9630    2.1980    6.3040 C.3      24   U40       0.1065
    749 O4'        -9.9340    3.1390    6.6370 O.3      24   U40      -0.3548
    750 C3'       -10.2570    0.8710    6.0620 C.3      24   U40       0.2022
    751 O3'       -10.9050    0.2020    4.9760 O.3      24   U40      -0.5246
    752 C2'        -8.8740    1.2940    5.6040 C.3      24   U40       0.0670
    753 O2'        -8.8430    1.5680    4.1990 O.3      24   U40      -0.6139
    754 C1'        -8.6390    2.5520    6.4250 C.3      24   U40       0.0674
    755 N1         -7.9910    2.2250    7.7080 N.am     24   U40       0.0418
    756 C2         -6.6090    2.2510    7.7510 C.2      24   U40       0.4687
    757 O2         -5.9370    2.5400    6.7820 O.2      24   U40      -0.5477
    758 N3         -6.0340    1.9270    8.9670 N.am     24   U40      -0.3549
    759 C4         -6.7120    1.5860   10.1250 C.2      24   U40       0.5952
    760 O4         -6.1070    1.3230   11.1420 O.2      24   U40      -0.5761
    761 C5         -8.1500    1.5860    9.9860 C.2      24   U40      -0.3635
    762 C6         -8.7350    1.9000    8.8060 C.2      24   U40      -0.1126
    763 H5'       -12.3980    3.0650    7.6450 H        24   U40       0.0679
    764 H5''      -12.7960    1.4200    7.1060 H        24   U40       0.0679
    765 H4'       -11.4620    2.5180    5.3910 H        24   U40       0.1174
    766 H3'       -10.2200    0.2570    6.9610 H        24   U40       0.0615
    767 H2'        -8.1390    0.5300    5.8710 H        24   U40       0.0972
    768 HO2'       -9.3420    0.8740    3.7610 H        24   U40       0.4186
    769 H1'        -8.0110    3.2440    5.8640 H        24   U40       0.1824
    770 H3         -5.0540    1.9330    9.0130 H        24   U40       0.3154
    771 H5         -8.7720    1.3270   10.8420 H        24   U40       0.1811
    772 H6         -9.8230    1.8920    8.7310 H        24   U40       0.2188
    773 P         -10.7060   -1.3810    4.7600 P.3      25   C41       1.1662
    774 OP1       -11.5500   -1.8030    3.6200 O.co2    25   C41      -0.7760
    775 OP2       -10.8490   -2.0490    6.0720 O.co2    25   C41      -0.7760
    776 O5'        -9.1640   -1.4810    4.3090 O.3      25   C41      -0.4989
    777 C5'        -8.8160   -1.5200    2.9230 C.3      25   C41       0.0558
    778 C4'        -7.3080   -1.4050    2.7170 C.3      25   C41       0.1065
    779 O4'        -6.7050   -0.5770    3.7190 O.3      25   C41      -0.3548
    780 C3'        -6.6340   -2.7620    2.8420 C.3      25   C41       0.2022
    781 O3'        -6.5230   -3.3320    1.5340 O.3      25   C41      -0.5246
    782 C2'        -5.2450   -2.4050    3.3370 C.3      25   C41       0.0670
    783 O2'        -4.3790   -2.0430    2.2550 O.3      25   C41      -0.6139
    784 C1'        -5.5290   -1.2150    4.2470 C.3      25   C41       0.0066
    785 N1         -5.7470   -1.6520    5.6410 N.am     25   C41      -0.0484
    786 C2         -4.6310   -2.0110    6.3860 C.2      25   C41       0.7538
    787 O2         -3.5230   -1.9730    5.8880 O.2      25   C41      -0.6252
    788 N3         -4.8180   -2.4030    7.6760 N.2      25   C41      -0.7584
    789 C4         -6.0450   -2.4430    8.2150 C.2      25   C41       0.8185
    790 N4         -6.1900   -2.8240    9.4830 N.pl3    25   C41      -0.9530
    791 C5         -7.1960   -2.0750    7.4500 C.2      25   C41      -0.5215
    792 C6         -7.0030   -1.6880    6.1750 C.2      25   C41       0.0053
    793 H5'        -9.3080   -0.6940    2.4090 H        25   C41       0.0679
    794 H5''       -9.1620   -2.4620    2.4950 H        25   C41       0.0679
    795 H4'        -7.1050   -0.9860    1.7330 H        25   C41       0.1174
    796 H3'        -7.1600   -3.4190    3.5360 H        25   C41       0.0615
    797 H2'        -4.8230   -3.2310    3.9170 H        25   C41       0.0972
    798 HO2'       -4.9210   -1.9750    1.4650 H        25   C41       0.4186
    799 H1'        -4.6900   -0.5200    4.2110 H        25   C41       0.2029
    800 H41        -5.3800   -3.0850   10.0280 H        25   C41       0.4234
    801 H42        -7.1090   -2.8480    9.9020 H        25   C41       0.4234
    802 H5         -8.1950   -2.1050    7.8840 H        25   C41       0.1928
    803 H6         -7.8580   -1.4060    5.5620 H        25   C41       0.1958
    804 P          -6.5310   -4.9310    1.3390 P.3      26   U42       1.1662
    805 OP1        -6.2020   -5.2280   -0.0730 O.co2    26   U42      -0.7760
    806 OP2        -7.7740   -5.4650    1.9370 O.co2    26   U42      -0.7760
    807 O5'        -5.2920   -5.3930    2.2540 O.3      26   U42      -0.4989
    808 C5'        -3.9520   -5.1050    1.8520 C.3      26   U42       0.0558
    809 C4'        -2.9400   -5.5560    2.9010 C.3      26   U42       0.1065
    810 O4'        -3.0660   -4.8030    4.1040 O.3      26   U42      -0.3548
    811 C3'        -3.1710   -6.9950    3.3210 C.3      26   U42       0.2022
    812 O3'        -2.4590   -7.8520    2.4250 O.3      26   U42      -0.5246
    813 C2'        -2.5070   -7.0500    4.6850 C.3      26   U42       0.0670
    814 O2'        -1.1120   -7.3540    4.5780 O.3      26   U42      -0.6139
    815 C1'        -2.7330   -5.6360    5.2280 C.3      26   U42       0.0674
    816 N1         -3.8140   -5.6320    6.2330 N.am     26   U42       0.0418
    817 C2         -3.5010   -6.0770    7.5030 C.2      26   U42       0.4687
    818 O2         -2.3830   -6.4500    7.8000 O.2      26   U42      -0.5477
    819 N3         -4.5350   -6.0720    8.4200 N.am     26   U42      -0.3549
    820 C4         -5.8360   -5.6640    8.1820 C.2      26   U42       0.5952
    821 O4         -6.6670   -5.6960    9.0680 O.2      26   U42      -0.5761
    822 C5         -6.0730   -5.2170    6.8280 C.2      26   U42      -0.3635
    823 C6         -5.0760   -5.2140    5.9110 C.2      26   U42      -0.1126
    824 H5'        -3.7440   -5.6190    0.9140 H        26   U42       0.0679
    825 H5''       -3.8490   -4.0310    1.6990 H        26   U42       0.0679
    826 H4'        -1.9310   -5.4450    2.5100 H        26   U42       0.1174
    827 H3'        -4.2320   -7.2390    3.3740 H        26   U42       0.0615
    828 H2'        -3.0180   -7.7760    5.3200 H        26   U42       0.0972
    829 HO2'       -0.9390   -7.5790    3.6620 H        26   U42       0.4186
    830 H1'        -1.8150   -5.2720    5.6860 H        26   U42       0.1824
    831 H3         -4.3290   -6.3940    9.3200 H        26   U42       0.3154
    832 H5         -7.0690   -4.8770    6.5410 H        26   U42       0.1811
    833 H6         -5.2860   -4.8780    4.8970 H        26   U42       0.2188
    834 P          -2.9340   -9.3740    2.1960 P.3      27   G43       1.1662
    835 OP1        -2.3250   -9.8660    0.9400 O.co2    27   G43      -0.7760
    836 OP2        -4.4020   -9.4340    2.3760 O.co2    27   G43      -0.7760
    837 O5'        -2.2440  -10.1510    3.4290 O.3      27   G43      -0.4989
    838 C5'        -0.8550  -10.5060    3.3660 C.3      27   G43       0.0558
    839 C4'        -0.3890  -11.2980    4.5810 C.3      27   G43       0.1065
    840 O4'        -0.4180  -10.5080    5.7740 O.3      27   G43      -0.3548
    841 C3'        -1.3050  -12.4700    4.8760 C.3      27   G43       0.2022
    842 O3'        -0.8850  -13.5980    4.1050 O.3      27   G43      -0.5246
    843 C2'        -1.0030  -12.7430    6.3350 C.3      27   G43       0.0670
    844 O2'         0.1840  -13.5310    6.4880 O.3      27   G43      -0.6139
    845 C1'        -0.8160  -11.3330    6.8870 C.3      27   G43       0.0191
    846 N9         -2.0700  -10.8490    7.4910 N.ar     27   G43       0.0492
    847 C8         -3.0240  -10.0400    6.9710 C.ar     27   G43       0.1374
    848 N7         -4.0510   -9.7780    7.7070 N.ar     27   G43      -0.5709
    849 C5         -3.7600  -10.4980    8.8700 C.ar     27   G43       0.1744
    850 C6         -4.5050  -10.6260   10.0720 C.2      27   G43       0.4770
    851 O6         -5.5730  -10.1190   10.3520 O.2      27   G43      -0.5597
    852 N1         -3.8580  -11.4430   10.9900 N.am     27   G43      -0.4787
    853 C2         -2.6410  -12.0640   10.7820 C.2      27   G43       0.7657
    854 N2         -2.1800  -12.8110   11.7850 N.pl3    27   G43      -0.9672
    855 N3         -1.9330  -11.9480    9.6540 N.2      27   G43      -0.6323
    856 C4         -2.5470  -11.1570    8.7450 C.ar     27   G43       0.1222
    857 H5'        -0.2580   -9.6050    3.3330 H        27   G43       0.0679
    858 H5''       -0.6890  -11.0920    2.4510 H        27   G43       0.0679
    859 H4'         0.6240  -11.6590    4.4150 H        27   G43       0.1174
    860 H3'        -2.3550  -12.2220    4.7150 H        27   G43       0.0615
    861 H2'        -1.8590  -13.2250    6.8140 H        27   G43       0.0972
    862 HO2'        0.9340  -12.9360    6.4080 H        27   G43       0.4186
    863 H1'        -0.0280  -11.3330    7.6400 H        27   G43       0.2006
    864 H8         -2.9300   -9.6340    5.9660 H        27   G43       0.1640
    865 H1         -4.3180  -11.5800   11.8440 H        27   G43       0.3424
    866 H21        -2.7160  -12.8970   12.6380 H        27   G43       0.4364
    867 H22        -1.2960  -13.2900   11.6940 H        27   G43       0.4364
    868 P          -1.9380  -14.7580    3.7260 P.3      28   C44       1.1662
    869 OP1        -1.2230  -15.8020    2.9610 O.co2    28   C44      -0.7760
    870 OP2        -3.1460  -14.1190    3.1560 O.co2    28   C44      -0.7760
    871 O5'        -2.3220  -15.3630    5.1700 O.3      28   C44      -0.4989
    872 C5'        -1.3260  -16.0140    5.9640 C.3      28   C44       0.0558
    873 C4'        -1.8720  -16.4490    7.3230 C.3      28   C44       0.1065
    874 O4'        -2.2100  -15.3300    8.1420 O.3      28   C44      -0.3548
    875 C3'        -3.1650  -17.2300    7.1910 C.3      28   C44       0.2022
    876 O3'        -2.8510  -18.6100    6.9890 O.3      28   C44      -0.5246
    877 C2'        -3.7790  -17.0730    8.5700 C.3      28   C44       0.0670
    878 O2'        -3.2840  -18.0640    9.4790 O.3      28   C44      -0.6139
    879 C1'        -3.3320  -15.6660    8.9770 C.3      28   C44       0.0066
    880 N1         -4.4360  -14.7000    8.8020 N.am     28   C44      -0.0484
    881 C2         -5.4200  -14.6610    9.7820 C.2      28   C44       0.7538
    882 O2         -5.3520  -15.3950   10.7490 O.2      28   C44      -0.6252
    883 N3         -6.4500  -13.7830    9.6260 N.2      28   C44      -0.7584
    884 C4         -6.5130  -12.9780    8.5580 C.2      28   C44       0.8185
    885 N4         -7.5360  -12.1330    8.4350 N.pl3    28   C44      -0.9530
    886 C5         -5.5010  -13.0150    7.5480 C.2      28   C44      -0.5215
    887 C6         -4.4870  -13.8850    7.7090 C.2      28   C44       0.0053
    888 H5'        -0.9670  -16.8930    5.4300 H        28   C44       0.0679
    889 H5''       -0.4930  -15.3290    6.1200 H        28   C44       0.0679
    890 H4'        -1.1300  -17.0560    7.8380 H        28   C44       0.1174
    891 H3'        -3.8120  -16.8300    6.4080 H        28   C44       0.0615
    892 H2'        -4.8680  -17.1140    8.5030 H        28   C44       0.0972
    893 HO2'       -2.7440  -18.6730    8.9700 H        28   C44       0.4186
    894 H1'        -3.0190  -15.6730   10.0200 H        28   C44       0.2029
    895 H41        -8.2530  -12.1030    9.1460 H        28   C44       0.4234
    896 H42        -7.5940  -11.5230    7.6330 H        28   C44       0.4234
    897 H5         -5.5500  -12.3600    6.6780 H        28   C44       0.1928
    898 H6         -3.7010  -13.9420    6.9560 H        28   C44       0.1958
    899 P          -3.8480  -19.5550    6.1490 P.3      29   C45       1.1662
    900 OP1        -3.3010  -20.9310    6.1580 O.co2    29   C45      -0.7760
    901 OP2        -4.1480  -18.8880    4.8620 O.co2    29   C45      -0.7760
    902 O5'        -5.1820  -19.5380    7.0510 O.3      29   C45      -0.4989
    903 C5'        -5.1980  -20.1560    8.3400 C.3      29   C45       0.0558
    904 C4'        -6.5380  -19.9500    9.0420 C.3      29   C45       0.1065
    905 O4'        -6.7400  -18.5870    9.3790 O.3      29   C45      -0.3548
    906 C3'        -7.7000  -20.2990    8.1350 C.3      29   C45       0.2022
    907 O3'        -7.9580  -21.7070    8.1260 O.3      29   C45      -0.6541
    908 C2'        -8.8430  -19.5220    8.7740 C.3      29   C45       0.0670
    909 O2'        -9.5150  -20.3080    9.7660 O.3      29   C45      -0.6139
    910 C1'        -8.1440  -18.3110    9.4020 C.3      29   C45       0.0066
    911 N1         -8.4510  -17.0790    8.6490 N.am     29   C45      -0.0484
    912 C2         -9.6770  -16.4700    8.8820 C.2      29   C45       0.7538
    913 O2        -10.4560  -16.9450    9.6870 O.2      29   C45      -0.6252
    914 N3         -9.9750  -15.3380    8.1880 N.2      29   C45      -0.7584
    915 C4         -9.1100  -14.8240    7.3030 C.2      29   C45       0.8185
    916 N4         -9.4370  -13.7150    6.6390 N.pl3    29   C45      -0.9530
    917 C5         -7.8470  -15.4490    7.0590 C.2      29   C45      -0.5215
    918 C6         -7.5600  -16.5690    7.7490 C.2      29   C45       0.0053
    919 H5'        -4.4060  -19.7260    8.9510 H        29   C45       0.0679
    920 H5''       -5.0180  -21.2250    8.2240 H        29   C45       0.0679
    921 H4'        -6.5820  -20.5530    9.9460 H        29   C45       0.1174
    922 H3'        -7.5120  -19.9270    7.1250 H        29   C45       0.0615
    923 H2'        -9.5430  -19.1900    8.0040 H        29   C45       0.0972
    924 HO2'       -9.7400  -19.7210   10.4910 H        29   C45       0.4186
    925 H1'        -8.4720  -18.1990   10.4340 H        29   C45       0.2029
    926 H41       -10.3270  -13.2700    6.8080 H        29   C45       0.4234
    927 H42        -8.7970  -13.3240    5.9640 H        29   C45       0.4234
    928 H5         -7.1420  -15.0330    6.3390 H        29   C45       0.1928
    929 H6         -6.6100  -17.0780    7.5800 H        29   C45       0.1958
    930 HO3'       -8.2220  -21.9430    7.2340 H        29   C45       0.4376
@<TRIPOS>BOND
     1    1    2 1
     2    2   21 1
     3    2   22 1
     4    2    3 1
     5    3    5 1
     6    3   23 1
     7    3    4 1
     8    4    9 1
     9    5   24 1
    10    5    7 1
    11    5    6 1
    12    7    9 1
    13    7   25 1
    14    7    8 1
    15    8   26 1
    16    9   27 1
    17    9   10 1
    18   10   20 ar
    19   10   11 ar
    20   11   28 1
    21   11   12 ar
    22   12   13 ar
    23   13   20 ar
    24   13   14 1
    25   14   15 2
    26   14   16 am
    27   16   17 1
    28   16   29 1
    29   17   18 2
    30   17   19 2
    31   18   30 1
    32   18   31 1
    33   19   20 1
    34   32    1 1
    35   33   35 1
    36   33   34 1
    37   33   36 1
    38   36   37 1
    39   37   38 1
    40   37   56 1
    41   37   57 1
    42   38   40 1
    43   38   58 1
    44   38   39 1
    45   39   44 1
    46   40   41 1
    47   40   42 1
    48   40   59 1
    49   42   43 1
    50   42   60 1
    51   42   44 1
    52   43   61 1
    53   44   45 1
    54   44   62 1
    55   45   46 ar
    56   45   55 ar
    57   46   47 ar
    58   46   63 1
    59   47   48 ar
    60   48   55 ar
    61   48   49 1
    62   49   50 2
    63   49   51 am
    64   51   52 1
    65   51   64 1
    66   52   53 2
    67   52   54 2
    68   53   66 1
    69   53   65 1
    70   54   55 1
    71   33    6 1
    72   67   69 1
    73   67   68 1
    74   67   70 1
    75   70   71 1
    76   71   87 1
    77   71   88 1
    78   71   72 1
    79   72   74 1
    80   72   89 1
    81   72   73 1
    82   73   78 1
    83   74   90 1
    84   74   76 1
    85   74   75 1
    86   76   91 1
    87   76   77 1
    88   76   78 1
    89   77   92 1
    90   78   93 1
    91   78   79 1
    92   79   80 am
    93   79   86 1
    94   80   82 1
    95   80   81 2
    96   82   83 2
    97   83   85 2
    98   83   84 2
    99   84   94 1
   100   84   95 1
   101   85   86 2
   102   85   96 1
   103   86   97 1
   104   41   67 1
   105   98   99 1
   106   98  100 1
   107   98  101 1
   108  101  102 1
   109  102  120 1
   110  102  121 1
   111  102  103 1
   112  103  105 1
   113  103  122 1
   114  103  104 1
   115  104  109 1
   116  105  123 1
   117  105  107 1
   118  105  106 1
   119  107  109 1
   120  107  124 1
   121  107  108 1
   122  108  125 1
   123  109  126 1
   124  109  110 1
   125  110  119 ar
   126  110  111 ar
   127  111  127 1
   128  111  112 ar
   129  112  113 ar
   130  113  119 ar
   131  113  114 ar
   132  114  116 ar
   133  114  115 1
   134  115  128 1
   135  115  129 1
   136  116  117 ar
   137  117  130 1
   138  117  118 ar
   139  118  119 ar
   140   75   98 1
   141  131  133 1
   142  131  132 1
   143  131  134 1
   144  134  135 1
   145  135  136 1
   146  135  154 1
   147  135  155 1
   148  136  138 1
   149  136  156 1
   150  136  137 1
   151  137  142 1
   152  138  139 1
   153  138  140 1
   154  138  157 1
   155  140  141 1
   156  140  158 1
   157  140  142 1
   158  141  159 1
   159  142  143 1
   160  142  160 1
   161  143  144 ar
   162  143  153 ar
   163  144  145 ar
   164  144  161 1
   165  145  146 ar
   166  146  153 ar
   167  146  147 1
   168  147  148 2
   169  147  149 am
   170  149  150 1
   171  149  162 1
   172  150  151 2
   173  150  152 2
   174  151  164 1
   175  151  163 1
   176  152  153 1
   177  106  131 1
   178  165  166 1
   179  165  167 1
   180  165  168 1
   181  168  169 1
   182  169  187 1
   183  169  188 1
   184  169  170 1
   185  170  172 1
   186  170  189 1
   187  170  171 1
   188  171  176 1
   189  172  190 1
   190  172  174 1
   191  172  173 1
   192  174  176 1
   193  174  191 1
   194  174  175 1
   195  175  192 1
   196  176  193 1
   197  176  177 1
   198  177  186 ar
   199  177  178 ar
   200  178  194 1
   201  178  179 ar
   202  179  180 ar
   203  180  186 ar
   204  180  181 ar
   205  181  183 ar
   206  181  182 1
   207  182  195 1
   208  182  196 1
   209  183  184 ar
   210  184  197 1
   211  184  185 ar
   212  185  186 ar
   213  139  165 1
   214  198  199 1
   215  198  200 1
   216  198  201 1
   217  201  202 1
   218  202  218 1
   219  202  219 1
   220  202  203 1
   221  203  205 1
   222  203  220 1
   223  203  204 1
   224  204  209 1
   225  205  221 1
   226  205  207 1
   227  205  206 1
   228  207  222 1
   229  207  208 1
   230  207  209 1
   231  208  223 1
   232  209  224 1
   233  209  210 1
   234  210  211 am
   235  210  217 1
   236  211  212 2
   237  211  213 am
   238  213  214 am
   239  213  225 1
   240  214  216 1
   241  214  215 2
   242  216  217 2
   243  216  226 1
   244  217  227 1
   245  173  198 1
   246  228  230 1
   247  228  229 1
   248  228  231 1
   249  231  232 1
   250  232  248 1
   251  232  249 1
   252  232  233 1
   253  233  235 1
   254  233  250 1
   255  233  234 1
   256  234  239 1
   257  235  251 1
   258  235  237 1
   259  235  236 1
   260  237  252 1
   261  237  238 1
   262  237  239 1
   263  238  253 1
   264  239  254 1
   265  239  240 1
   266  240  241 am
   267  240  247 1
   268  241  243 1
   269  241  242 2
   270  243  244 2
   271  244  246 2
   272  244  245 2
   273  245  255 1
   274  245  256 1
   275  246  247 2
   276  246  257 1
   277  247  258 1
   278  206  228 1
   279  259  260 1
   280  259  261 1
   281  259  262 1
   282  262  263 1
   283  263  279 1
   284  263  280 1
   285  263  264 1
   286  264  266 1
   287  264  281 1
   288  264  265 1
   289  265  270 1
   290  266  282 1
   291  266  268 1
   292  266  267 1
   293  268  283 1
   294  268  269 1
   295  268  270 1
   296  269  284 1
   297  270  285 1
   298  270  271 1
   299  271  272 am
   300  271  278 1
   301  272  273 2
   302  272  274 am
   303  274  275 am
   304  274  286 1
   305  275  277 1
   306  275  276 2
   307  277  278 2
   308  277  287 1
   309  278  288 1
   310  236  259 1
   311  289  291 1
   312  289  290 1
   313  289  292 1
   314  292  293 1
   315  293  294 1
   316  293  312 1
   317  293  313 1
   318  294  296 1
   319  294  314 1
   320  294  295 1
   321  295  300 1
   322  296  297 1
   323  296  298 1
   324  296  315 1
   325  298  299 1
   326  298  316 1
   327  298  300 1
   328  299  317 1
   329  300  301 1
   330  300  318 1
   331  301  302 ar
   332  301  311 ar
   333  302  303 ar
   334  302  319 1
   335  303  304 ar
   336  304  311 ar
   337  304  305 1
   338  305  306 2
   339  305  307 am
   340  307  308 1
   341  307  320 1
   342  308  309 2
   343  308  310 2
   344  309  322 1
   345  309  321 1
   346  310  311 1
   347  267  289 1
   348  323  324 1
   349  323  325 1
   350  323  326 1
   351  326  327 1
   352  327  345 1
   353  327  346 1
   354  327  328 1
   355  328  330 1
   356  328  347 1
   357  328  329 1
   358  329  334 1
   359  330  348 1
   360  330  332 1
   361  330  331 1
   362  332  334 1
   363  332  349 1
   364  332  333 1
   365  333  350 1
   366  334  351 1
   367  334  335 1
   368  335  344 ar
   369  335  336 ar
   370  336  352 1
   371  336  337 ar
   372  337  338 ar
   373  338  344 ar
   374  338  339 ar
   375  339  341 ar
   376  339  340 1
   377  340  353 1
   378  340  354 1
   379  341  342 ar
   380  342  355 1
   381  342  343 ar
   382  343  344 ar
   383  297  323 1
   384  356  358 1
   385  356  357 1
   386  356  359 1
   387  359  360 1
   388  360  361 1
   389  360  379 1
   390  360  380 1
   391  361  363 1
   392  361  381 1
   393  361  362 1
   394  362  367 1
   395  363  364 1
   396  363  365 1
   397  363  382 1
   398  365  366 1
   399  365  383 1
   400  365  367 1
   401  366  384 1
   402  367  368 1
   403  367  385 1
   404  368  369 ar
   405  368  378 ar
   406  369  370 ar
   407  369  386 1
   408  370  371 ar
   409  371  378 ar
   410  371  372 1
   411  372  373 2
   412  372  374 am
   413  374  375 1
   414  374  387 1
   415  375  376 2
   416  375  377 2
   417  376  389 1
   418  376  388 1
   419  377  378 1
   420  331  356 1
   421  390  392 1
   422  390  391 1
   423  390  393 1
   424  393  394 1
   425  394  410 1
   426  394  411 1
   427  394  395 1
   428  395  397 1
   429  395  412 1
   430  395  396 1
   431  396  401 1
   432  397  413 1
   433  397  399 1
   434  397  398 1
   435  399  414 1
   436  399  400 1
   437  399  401 1
   438  400  415 1
   439  401  416 1
   440  401  402 1
   441  402  403 am
   442  402  409 1
   443  403  405 1
   444  403  404 2
   445  405  406 2
   446  406  408 2
   447  406  407 2
   448  407  417 1
   449  407  418 1
   450  408  409 2
   451  408  419 1
   452  409  420 1
   453  364  390 1
   454  421  423 1
   455  421  422 1
   456  421  424 1
   457  424  425 1
   458  425  441 1
   459  425  442 1
   460  425  426 1
   461  426  428 1
   462  426  443 1
   463  426  427 1
   464  427  432 1
   465  428  444 1
   466  428  430 1
   467  428  429 1
   468  430  445 1
   469  430  431 1
   470  430  432 1
   471  431  446 1
   472  432  447 1
   473  432  433 1
   474  433  434 am
   475  433  440 1
   476  434  436 1
   477  434  435 2
   478  436  437 2
   479  437  439 2
   480  437  438 2
   481  438  448 1
   482  438  449 1
   483  439  440 2
   484  439  450 1
   485  440  451 1
   486  398  421 1
   487  452  453 1
   488  452  454 1
   489  452  455 1
   490  455  456 1
   491  456  472 1
   492  456  473 1
   493  456  457 1
   494  457  459 1
   495  457  474 1
   496  457  458 1
   497  458  463 1
   498  459  475 1
   499  459  461 1
   500  459  460 1
   501  461  476 1
   502  461  462 1
   503  461  463 1
   504  462  477 1
   505  463  478 1
   506  463  464 1
   507  464  465 am
   508  464  471 1
   509  465  466 2
   510  465  467 am
   511  467  468 am
   512  467  479 1
   513  468  470 1
   514  468  469 2
   515  470  471 2
   516  470  480 1
   517  471  481 1
   518  429  452 1
   519  482  484 1
   520  482  483 1
   521  482  485 1
   522  485  486 1
   523  486  487 1
   524  486  505 1
   525  486  506 1
   526  487  489 1
   527  487  507 1
   528  487  488 1
   529  488  493 1
   530  489  490 1
   531  489  491 1
   532  489  508 1
   533  491  492 1
   534  491  509 1
   535  491  493 1
   536  492  510 1
   537  493  494 1
   538  493  511 1
   539  494  495 ar
   540  494  504 ar
   541  495  496 ar
   542  495  512 1
   543  496  497 ar
   544  497  504 ar
   545  497  498 1
   546  498  499 2
   547  498  500 am
   548  500  501 1
   549  500  513 1
   550  501  502 2
   551  501  503 2
   552  502  515 1
   553  502  514 1
   554  503  504 1
   555  460  482 1
   556  516  518 1
   557  516  517 1
   558  516  519 1
   559  519  520 1
   560  520  521 1
   561  520  539 1
   562  520  540 1
   563  521  523 1
   564  521  541 1
   565  521  522 1
   566  522  527 1
   567  523  524 1
   568  523  525 1
   569  523  542 1
   570  525  526 1
   571  525  543 1
   572  525  527 1
   573  526  544 1
   574  527  528 1
   575  527  545 1
   576  528  529 ar
   577  528  538 ar
   578  529  530 ar
   579  529  546 1
   580  530  531 ar
   581  531  538 ar
   582  531  532 1
   583  532  533 2
   584  532  534 am
   585  534  535 1
   586  534  547 1
   587  535  536 2
   588  535  537 2
   589  536  549 1
   590  536  548 1
   591  537  538 1
   592  490  516 1
   593  550  552 1
   594  550  551 1
   595  550  553 1
   596  553  554 1
   597  554  555 1
   598  554  573 1
   599  554  574 1
   600  555  557 1
   601  555  575 1
   602  555  556 1
   603  556  561 1
   604  557  558 1
   605  557  559 1
   606  557  576 1
   607  559  560 1
   608  559  577 1
   609  559  561 1
   610  560  578 1
   611  561  562 1
   612  561  579 1
   613  562  563 ar
   614  562  572 ar
   615  563  564 ar
   616  563  580 1
   617  564  565 ar
   618  565  572 ar
   619  565  566 1
   620  566  567 2
   621  566  568 am
   622  568  569 1
   623  568  581 1
   624  569  570 2
   625  569  571 2
   626  570  583 1
   627  570  582 1
   628  571  572 1
   629  524  550 1
   630  584  585 1
   631  584  586 1
   632  584  587 1
   633  587  588 1
   634  588  606 1
   635  588  607 1
   636  588  589 1
   637  589  591 1
   638  589  608 1
   639  589  590 1
   640  590  595 1
   641  591  609 1
   642  591  593 1
   643  591  592 1
   644  593  595 1
   645  593  610 1
   646  593  594 1
   647  594  611 1
   648  595  612 1
   649  595  596 1
   650  596  605 ar
   651  596  597 ar
   652  597  613 1
   653  597  598 ar
   654  598  599 ar
   655  599  605 ar
   656  599  600 ar
   657  600  602 ar
   658  600  601 1
   659  601  614 1
   660  601  615 1
   661  602  603 ar
   662  603  616 1
   663  603  604 ar
   664  604  605 ar
   665  558  584 1
   666  617  619 1
   667  617  618 1
   668  617  620 1
   669  620  621 1
   670  621  622 1
   671  621  640 1
   672  621  641 1
   673  622  624 1
   674  622  642 1
   675  622  623 1
   676  623  628 1
   677  624  625 1
   678  624  626 1
   679  624  643 1
   680  626  627 1
   681  626  644 1
   682  626  628 1
   683  627  645 1
   684  628  629 1
   685  628  646 1
   686  629  630 ar
   687  629  639 ar
   688  630  631 ar
   689  630  647 1
   690  631  632 ar
   691  632  639 ar
   692  632  633 1
   693  633  634 2
   694  633  635 am
   695  635  636 1
   696  635  648 1
   697  636  637 2
   698  636  638 2
   699  637  650 1
   700  637  649 1
   701  638  639 1
   702  592  617 1
   703  651  653 1
   704  651  652 1
   705  651  654 1
   706  654  655 1
   707  655  671 1
   708  655  672 1
   709  655  656 1
   710  656  658 1
   711  656  673 1
   712  656  657 1
   713  657  662 1
   714  658  674 1
   715  658  660 1
   716  658  659 1
   717  660  675 1
   718  660  661 1
   719  660  662 1
   720  661  676 1
   721  662  677 1
   722  662  663 1
   723  663  664 am
   724  663  670 1
   725  664  666 1
   726  664  665 2
   727  666  667 2
   728  667  669 2
   729  667  668 2
   730  668  678 1
   731  668  679 1
   732  669  670 2
   733  669  680 1
   734  670  681 1
   735  625  651 1
   736  682  683 1
   737  682  684 1
   738  682  685 1
   739  685  686 1
   740  686  702 1
   741  686  703 1
   742  686  687 1
   743  687  689 1
   744  687  704 1
   745  687  688 1
   746  688  693 1
   747  689  705 1
   748  689  691 1
   749  689  690 1
   750  691  706 1
   751  691  692 1
   752  691  693 1
   753  692  707 1
   754  693  708 1
   755  693  694 1
   756  694  695 am
   757  694  701 1
   758  695  696 2
   759  695  697 am
   760  697  698 am
   761  697  709 1
   762  698  700 1
   763  698  699 2
   764  700  701 2
   765  700  710 1
   766  701  711 1
   767  659  682 1
   768  712  714 1
   769  712  713 1
   770  712  715 1
   771  715  716 1
   772  716  732 1
   773  716  733 1
   774  716  717 1
   775  717  719 1
   776  717  734 1
   777  717  718 1
   778  718  723 1
   779  719  735 1
   780  719  721 1
   781  719  720 1
   782  721  736 1
   783  721  722 1
   784  721  723 1
   785  722  737 1
   786  723  738 1
   787  723  724 1
   788  724  725 am
   789  724  731 1
   790  725  727 1
   791  725  726 2
   792  727  728 2
   793  728  730 2
   794  728  729 2
   795  729  739 1
   796  729  740 1
   797  730  731 2
   798  730  741 1
   799  731  742 1
   800  690  712 1
   801  743  744 1
   802  743  745 1
   803  743  746 1
   804  746  747 1
   805  747  763 1
   806  747  764 1
   807  747  748 1
   808  748  750 1
   809  748  765 1
   810  748  749 1
   811  749  754 1
   812  750  766 1
   813  750  752 1
   814  750  751 1
   815  752  767 1
   816  752  753 1
   817  752  754 1
   818  753  768 1
   819  754  769 1
   820  754  755 1
   821  755  756 am
   822  755  762 1
   823  756  757 2
   824  756  758 am
   825  758  759 am
   826  758  770 1
   827  759  761 1
   828  759  760 2
   829  761  762 2
   830  761  771 1
   831  762  772 1
   832  720  743 1
   833  773  775 1
   834  773  774 1
   835  773  776 1
   836  776  777 1
   837  777  793 1
   838  777  794 1
   839  777  778 1
   840  778  780 1
   841  778  795 1
   842  778  779 1
   843  779  784 1
   844  780  796 1
   845  780  782 1
   846  780  781 1
   847  782  797 1
   848  782  783 1
   849  782  784 1
   850  783  798 1
   851  784  799 1
   852  784  785 1
   853  785  786 am
   854  785  792 1
   855  786  788 1
   856  786  787 2
   857  788  789 2
   858  789  791 2
   859  789  790 2
   860  790  800 1
   861  790  801 1
   862  791  792 2
   863  791  802 1
   864  792  803 1
   865  751  773 1
   866  804  805 1
   867  804  806 1
   868  804  807 1
   869  807  808 1
   870  808  824 1
   871  808  825 1
   872  808  809 1
   873  809  811 1
   874  809  826 1
   875  809  810 1
   876  810  815 1
   877  811  827 1
   878  811  813 1
   879  811  812 1
   880  813  828 1
   881  813  814 1
   882  813  815 1
   883  814  829 1
   884  815  830 1
   885  815  816 1
   886  816  817 am
   887  816  823 1
   888  817  818 2
   889  817  819 am
   890  819  820 am
   891  819  831 1
   892  820  822 1
   893  820  821 2
   894  822  823 2
   895  822  832 1
   896  823  833 1
   897  781  804 1
   898  834  836 1
   899  834  835 1
   900  834  837 1
   901  837  838 1
   902  838  839 1
   903  838  857 1
   904  838  858 1
   905  839  841 1
   906  839  859 1
   907  839  840 1
   908  840  845 1
   909  841  842 1
   910  841  843 1
   911  841  860 1
   912  843  844 1
   913  843  861 1
   914  843  845 1
   915  844  862 1
   916  845  846 1
   917  845  863 1
   918  846  847 ar
   919  846  856 ar
   920  847  848 ar
   921  847  864 1
   922  848  849 ar
   923  849  856 ar
   924  849  850 1
   925  850  851 2
   926  850  852 am
   927  852  853 1
   928  852  865 1
   929  853  854 2
   930  853  855 2
   931  854  867 1
   932  854  866 1
   933  855  856 1
   934  812  834 1
   935  868  870 1
   936  868  869 1
   937  868  871 1
   938  871  872 1
   939  872  888 1
   940  872  889 1
   941  872  873 1
   942  873  875 1
   943  873  890 1
   944  873  874 1
   945  874  879 1
   946  875  891 1
   947  875  877 1
   948  875  876 1
   949  877  892 1
   950  877  878 1
   951  877  879 1
   952  878  893 1
   953  879  894 1
   954  879  880 1
   955  880  881 am
   956  880  887 1
   957  881  883 1
   958  881  882 2
   959  883  884 2
   960  884  886 2
   961  884  885 2
   962  885  895 1
   963  885  896 1
   964  886  887 2
   965  886  897 1
   966  887  898 1
   967  842  868 1
   968  902  903 1
   969  903  919 1
   970  903  920 1
   971  903  904 1
   972  904  906 1
   973  904  921 1
   974  904  905 1
   975  905  910 1
   976  906  922 1
   977  906  908 1
   978  906  907 1
   979  908  923 1
   980  908  909 1
   981  908  910 1
   982  909  924 1
   983  910  925 1
   984  910  911 1
   985  911  918 1
   986  911  912 am
   987  912  913 2
   988  912  914 1
   989  914  915 2
   990  915  917 2
   991  915  916 2
   992  916  926 1
   993  916  927 1
   994  917  918 2
   995  917  928 1
   996  918  929 1
   997  899  900 1
   998  899  901 1
   999  899  902 1
  1000  930  907 1
  1001  876  899 1
@<TRIPOS>SUBSTRUCTURE
     1   G17       3 RESIDUE           4 B       G     1 ROOT
     2   G18      38 RESIDUE           4 B       G     2
     3   C19      72 RESIDUE           4 B       C     2
     4   A20     103 RESIDUE           4 B       A     2
     5   G21     136 RESIDUE           4 B       G     2
     6   A22     170 RESIDUE           4 B       A     2
     7   U23     203 RESIDUE           4 B       U     2
     8   C24     233 RESIDUE           4 B       C     2
     9   U25     264 RESIDUE           4 B       U     2
    10   G26     294 RESIDUE           4 B       G     2
    11   A27     328 RESIDUE           4 B       A     2
    12   G28     361 RESIDUE           4 B       G     2
    13   C29     395 RESIDUE           4 B       C     2
    14   C30     426 RESIDUE           4 B       C     2
    15   U31     457 RESIDUE           4 B       U     2
    16   G32     487 RESIDUE           4 B       G     2
    17   G33     521 RESIDUE           4 B       G     2
    18   G34     555 RESIDUE           4 B       G     2
    19   A35     589 RESIDUE           4 B       A     2
    20   G36     622 RESIDUE           4 B       G     2
    21   C37     656 RESIDUE           4 B       C     2
    22   U38     687 RESIDUE           4 B       U     2
    23   C39     717 RESIDUE           4 B       C     2
    24   U40     748 RESIDUE           4 B       U     2
    25   C41     778 RESIDUE           4 B       C     2
    26   U42     809 RESIDUE           4 B       U     2
    27   G43     839 RESIDUE           4 B       G     2
    28   C44     873 RESIDUE           4 B       C     2
    29   C45     904 RESIDUE           4 B       C     1
