@<TRIPOS>MOLECULE
4NYA.pdb
4972 5362 156 0 0
NUCLEIC_ACID
AMBER ff14SB


@<TRIPOS>ATOM
      1 O5'       -24.0420   -4.9240   70.6040 O.3       1   G11      -0.6223
      2 C5'       -23.0300   -5.3410   69.6980 C.3       1   G11       0.0558
      3 C4'       -23.0390   -4.4590   68.4640 C.3       1   G11       0.1065
      4 O4'       -24.2850   -4.6320   67.7460 O.3       1   G11      -0.3548
      5 C3'       -22.9880   -2.9640   68.7300 C.3       1   G11       0.2022
      6 O3'       -21.6540   -2.5430   68.9790 O.3       1   G11      -0.5246
      7 C2'       -23.4970   -2.4340   67.3960 C.3       1   G11       0.0670
      8 O2'       -22.5180   -2.5190   66.3800 O.3       1   G11      -0.6139
      9 C1'       -24.6310   -3.4140   67.1100 C.3       1   G11       0.0191
     10 N9        -25.9280   -2.9600   67.6100 N.ar      1   G11       0.0492
     11 C8        -26.6040   -3.4210   68.7150 C.ar      1   G11       0.1374
     12 N7        -27.7460   -2.8240   68.9120 N.ar      1   G11      -0.5709
     13 C5        -27.8360   -1.9040   67.8730 C.ar      1   G11       0.1744
     14 C6        -28.8570   -0.9730   67.5600 C.2       1   G11       0.4770
     15 O6        -29.9180   -0.7640   68.1640 O.2       1   G11      -0.5597
     16 N1        -28.5520   -0.2340   66.4180 N.am      1   G11      -0.4787
     17 C2        -27.4060   -0.3790   65.6730 C.2       1   G11       0.7657
     18 N2        -27.2860    0.4220   64.6050 N.pl3     1   G11      -0.9672
     19 N3        -26.4450   -1.2500   65.9530 N.2       1   G11      -0.6323
     20 C4        -26.7250   -1.9770   67.0640 C.ar      1   G11       0.1222
     21 H5'       -23.2134   -6.3744   69.4037 H         1   G11       0.0679
     22 H5''      -22.0575   -5.2711   70.1852 H         1   G11       0.0679
     23 H4'       -22.2082   -4.7380   67.8159 H         1   G11       0.1174
     24 H3'       -23.6518   -2.6836   69.5478 H         1   G11       0.0615
     25 H2'       -23.8731   -1.4158   67.4953 H         1   G11       0.0972
     26 H1'       -24.6994   -3.5784   66.0347 H         1   G11       0.2006
     27 H8        -26.2255   -4.2022   69.3576 H         1   G11       0.1640
     28 H1        -29.2221    0.4587   66.1159 H         1   G11       0.3424
     29 H21       -26.4663    0.3616   64.0180 H         1   G11       0.4364
     30 H22       -28.0153    1.0860   64.3872 H         1   G11       0.4364
     31 HO2'      -21.8082   -1.9001   66.5664 H         1   G11       0.4186
     32 HO5'      -24.2668   -5.4679   71.3625 H         1   G11       0.4295
     33 P         -21.5250   -1.3910   70.2090 P.3       2   A12       1.1662
     34 OP1       -20.0650   -1.3720   70.5200 O.co2     2   A12      -0.7760
     35 OP2       -22.5070   -1.6200   71.3000 O.co2     2   A12      -0.7760
     36 O5'       -21.9170   -0.0300   69.4810 O.3       2   A12      -0.4989
     37 C5'       -21.2780    0.3620   68.2700 C.3       2   A12       0.0558
     38 C4'       -22.0250    1.5110   67.6350 C.3       2   A12       0.1065
     39 O4'       -23.3140    1.0480   67.1510 O.3       2   A12      -0.3548
     40 C3'       -22.3760    2.6620   68.5630 C.3       2   A12       0.2022
     41 O3'       -21.2910    3.5660   68.7200 O.3       2   A12      -0.5246
     42 C2'       -23.5310    3.3030   67.8140 C.3       2   A12       0.0670
     43 O2'       -23.0760    4.0340   66.6960 O.3       2   A12      -0.6139
     44 C1'       -24.2840    2.0670   67.3260 C.3       2   A12       0.0394
     45 N9        -25.2660    1.5960   68.3000 N.ar      2   A12      -0.0251
     46 C8        -25.1440    0.5420   69.1670 C.ar      2   A12       0.2006
     47 N7        -26.1940    0.3640   69.9320 N.ar      2   A12      -0.6073
     48 C5        -27.0670    1.3670   69.5420 C.ar      2   A12       0.0515
     49 C6        -28.3620    1.7190   69.9730 C.ar      2   A12       0.7009
     50 N6        -29.0250    1.0740   70.9310 N.pl3     2   A12      -0.9019
     51 N1        -28.9590    2.7730   69.3740 N.ar      2   A12      -0.7615
     52 C2        -28.2910    3.4210   68.4130 C.ar      2   A12       0.5875
     53 N3        -27.0710    3.1860   67.9230 N.ar      2   A12      -0.6997
     54 C4        -26.5080    2.1340   68.5370 C.ar      2   A12       0.3053
     55 H5'       -21.2633   -0.4825   67.5810 H         2   A12       0.0679
     56 H5''      -20.2550    0.6709   68.4849 H         2   A12       0.0679
     57 H4'       -21.4447    1.8936   66.7953 H         2   A12       0.1174
     58 H3'       -22.7070    2.2873   69.5316 H         2   A12       0.0615
     59 H2'       -24.1469    3.9158   68.4721 H         2   A12       0.0972
     60 H1'       -24.7746    2.2809   66.3764 H         2   A12       0.2007
     61 H8        -24.2651   -0.0837   69.2157 H         2   A12       0.1553
     62 H2        -28.8141    4.2551   67.9691 H         2   A12       0.0473
     63 H61       -30.0137    1.2542   70.8307 H         2   A12       0.4115
     64 H62       -28.6054    0.4960   71.6451 H         2   A12       0.4115
     65 HO2'      -22.6012    4.8132   66.9943 H         2   A12       0.4186
     66 P         -21.0950    4.3350   70.1200 P.3       3   C13       1.1662
     67 OP1       -19.7780    5.0400   70.0900 O.co2     3   C13      -0.7760
     68 OP2       -21.4070    3.4080   71.2360 O.co2     3   C13      -0.7760
     69 O5'       -22.2230    5.4470   70.0960 O.3       3   C13      -0.4989
     70 C5'       -22.1680    6.5030   69.1520 C.3       3   C13       0.0558
     71 C4'       -23.3580    7.3990   69.3200 C.3       3   C13       0.1065
     72 O4'       -24.5640    6.6590   68.9800 O.3       3   C13      -0.3548
     73 C3'       -23.6210    7.8470   70.7440 C.3       3   C13       0.2022
     74 O3'       -22.7690    8.9080   71.1380 O.3       3   C13      -0.5246
     75 C2'       -25.0850    8.2400   70.6590 C.3       3   C13       0.0670
     76 O2'       -25.2810    9.4600   69.9670 O.3       3   C13      -0.6139
     77 C1'       -25.6320    7.0930   69.8070 C.3       3   C13       0.0066
     78 N1        -26.0810    5.9550   70.6210 N.am      3   C13      -0.0484
     79 C2        -27.3020    6.0560   71.2840 C.2       3   C13       0.7538
     80 O2        -27.9570    7.0920   71.1530 O.2       3   C13      -0.6252
     81 N3        -27.7360    5.0220   72.0500 N.2       3   C13      -0.7584
     82 C4        -26.9950    3.9150   72.1530 C.2       3   C13       0.8185
     83 N4        -27.4640    2.9210   72.9020 N.pl3     3   C13      -0.9530
     84 C5        -25.7400    3.7820   71.4840 C.2       3   C13      -0.5215
     85 C6        -25.3250    4.8170   70.7350 C.2       3   C13       0.0053
     86 H5'       -22.1679    6.0874   68.1444 H         3   C13       0.0679
     87 H5''      -21.2559    7.0795   69.3061 H         3   C13       0.0679
     88 H4'       -23.2615    8.2687   68.6700 H         3   C13       0.1174
     89 H3'       -23.5026    7.0044   71.4252 H         3   C13       0.0615
     90 H2'       -25.5500    8.2615   71.6446 H         3   C13       0.0972
     91 H1'       -26.4549    7.4522   69.1890 H         3   C13       0.2029
     92 H5        -25.1475    2.8838   71.5768 H         3   C13       0.1928
     93 H6        -24.3810    4.7516   70.2145 H         3   C13       0.1958
     94 H41       -28.3527    3.0186   73.3718 H         3   C13       0.4234
     95 H42       -26.9314    2.0686   73.0010 H         3   C13       0.4234
     96 HO2'      -24.9404   10.1860   70.4947 H         3   C13       0.4186
     97 P         -22.1820    8.9300   72.6340 P.3       4   U14       1.1662
     98 OP1       -21.0840    9.9250   72.7010 O.co2     4   U14      -0.7760
     99 OP2       -21.9240    7.5220   73.0490 O.co2     4   U14      -0.7760
    100 O5'       -23.3940    9.4740   73.5060 O.3       4   U14      -0.4989
    101 C5'       -24.0250   10.6870   73.1570 C.3       4   U14       0.0558
    102 C4'       -25.3860   10.7660   73.7870 C.3       4   U14       0.1065
    103 O4'       -26.2330    9.6820   73.3180 O.3       4   U14      -0.3548
    104 C3'       -25.3970   10.5830   75.2810 C.3       4   U14       0.2022
    105 O3'       -24.9750   11.7700   75.9210 O.3       4   U14      -0.5246
    106 C2'       -26.8570   10.2330   75.5390 C.3       4   U14       0.0670
    107 O2'       -27.7160   11.3510   75.5450 O.3       4   U14      -0.6139
    108 C1'       -27.1700    9.3520   74.3270 C.3       4   U14       0.0674
    109 N1        -27.0460    7.9220   74.6370 N.am      4   U14       0.0418
    110 C2        -28.1630    7.2910   75.1130 C.2       4   U14       0.4687
    111 O2        -29.2210    7.8680   75.2630 O.2       4   U14      -0.5477
    112 N3        -28.0010    5.9610   75.4080 N.am      4   U14      -0.3549
    113 C4        -26.8470    5.2140   75.2710 C.2       4   U14       0.5952
    114 O4        -26.8540    4.0180   75.5850 O.2       4   U14      -0.5761
    115 C5        -25.7280    5.9420   74.7650 C.2       4   U14      -0.3635
    116 C6        -25.8630    7.2400   74.4720 C.2       4   U14      -0.1126
    117 H5'       -24.1269   10.7404   72.0731 H         4   U14       0.0679
    118 H5''      -23.4175   11.5228   73.5041 H         4   U14       0.0679
    119 H4'       -25.8470   11.7211   73.5354 H         4   U14       0.1174
    120 H3'       -24.7528    9.7508   75.5648 H         4   U14       0.0615
    121 H2'       -26.9586    9.6650   76.4638 H         4   U14       0.0972
    122 H1'       -28.1788    9.5631   73.9723 H         4   U14       0.1824
    123 H3        -28.8125    5.4760   75.7635 H         4   U14       0.3154
    124 H5        -24.7787    5.4479   74.6198 H         4   U14       0.1811
    125 H6        -25.0066    7.7754   74.0895 H         4   U14       0.2188
    126 HO2'      -27.7578   11.7183   76.4310 H         4   U14       0.4186
    127 P         -24.5590   11.7140   77.4640 P.3       5   C15       1.1662
    128 OP1       -24.0020   13.0410   77.8310 O.co2     5   C15      -0.7760
    129 OP2       -23.7490   10.4790   77.6790 O.co2     5   C15      -0.7760
    130 O5'       -25.9570   11.5620   78.2020 O.3       5   C15      -0.4989
    131 C5'       -26.0640   10.9390   79.4720 C.3       5   C15       0.0558
    132 C4'       -27.4800   10.4790   79.6770 C.3       5   C15       0.1065
    133 O4'       -27.8330    9.5920   78.5790 O.3       5   C15      -0.3548
    134 C3'       -27.7460    9.6510   80.9210 C.3       5   C15       0.2022
    135 O3'       -27.9480   10.4600   82.0750 O.3       5   C15      -0.5246
    136 C2'       -29.0060    8.9040   80.5150 C.3       5   C15       0.0670
    137 O2'       -30.1700    9.7050   80.5730 O.3       5   C15      -0.6139
    138 C1'       -28.6830    8.5670   79.0580 C.3       5   C15       0.0066
    139 N1        -27.9700    7.2880   78.9640 N.am      5   C15      -0.0484
    140 C2        -28.6970    6.1200   79.1720 C.2       5   C15       0.7538
    141 O2        -29.9130    6.2120   79.4300 O.2       5   C15      -0.6252
    142 N3        -28.0690    4.9250   79.0960 N.2       5   C15      -0.7584
    143 C4        -26.7620    4.8740   78.8310 C.2       5   C15       0.8185
    144 N4        -26.1890    3.6700   78.7760 N.pl3     5   C15      -0.9530
    145 C5        -25.9900    6.0570   78.6130 C.2       5   C15      -0.5215
    146 C6        -26.6300    7.2320   78.6880 C.2       5   C15       0.0053
    147 H5'       -25.3921   10.0818   79.5156 H         5   C15       0.0679
    148 H5''      -25.7960   11.6522   80.2515 H         5   C15       0.0679
    149 H4'       -28.1443   11.3431   79.6702 H         5   C15       0.1174
    150 H3'       -26.9289    8.9496   81.0897 H         5   C15       0.0615
    151 H2'       -29.1281    7.9966   81.1065 H         5   C15       0.0972
    152 H1'       -29.5989    8.5314   78.4681 H         5   C15       0.2029
    153 H5        -24.9332    6.0060   78.3965 H         5   C15       0.1928
    154 H6        -26.0808    8.1482   78.5284 H         5   C15       0.1958
    155 H41       -26.7425    2.8397   78.9319 H         5   C15       0.4234
    156 H42       -25.2018    3.5891   78.5785 H         5   C15       0.4234
    157 HO2'      -30.3696    9.9144   81.4884 H         5   C15       0.4186
    158 P         -27.2770   10.0200   83.4710 P.3       6   G16       1.1662
    159 OP1       -27.5080   11.1070   84.4490 O.co2     6   G16      -0.7760
    160 OP2       -25.8900    9.5530   83.2030 O.co2     6   G16      -0.7760
    161 O5'       -28.1180    8.7450   83.9220 O.3       6   G16      -0.4989
    162 C5'       -29.5150    8.8460   84.1560 C.3       6   G16       0.0558
    163 C4'       -30.1430    7.4750   84.1890 C.3       6   G16       0.1065
    164 O4'       -29.8290    6.7800   82.9530 O.3       6   G16      -0.3548
    165 C3'       -29.6450    6.5150   85.2560 C.3       6   G16       0.2022
    166 O3'       -30.2610    6.7940   86.5100 O.3       6   G16      -0.5246
    167 C2'       -30.1050    5.1820   84.6780 C.3       6   G16       0.0670
    168 O2'       -31.4950    4.9650   84.8490 O.3       6   G16      -0.6139
    169 C1'       -29.7970    5.3830   83.1890 C.3       6   G16       0.0191
    170 N9        -28.4670    4.8800   82.8610 N.ar      6   G16       0.0492
    171 C8        -27.3540    5.5860   82.4690 C.ar      6   G16       0.1374
    172 N7        -26.2880    4.8400   82.3580 N.ar      6   G16      -0.5709
    173 C5        -26.7360    3.5640   82.6730 C.ar      6   G16       0.1744
    174 C6        -26.0400    2.3330   82.7450 C.2       6   G16       0.4770
    175 O6        -24.8400    2.1130   82.5390 O.2       6   G16      -0.5597
    176 N1        -26.8830    1.2930   83.1040 N.am      6   G16      -0.4787
    177 C2        -28.2250    1.4160   83.3540 C.2       6   G16       0.7657
    178 N2        -28.8880    0.2940   83.6800 N.pl3     6   G16      -0.9672
    179 N3        -28.8800    2.5520   83.2920 N.2       6   G16      -0.6323
    180 C4        -28.0820    3.5750   82.9560 C.ar      6   G16       0.1222
    181 H5'       -29.6840    9.3414   85.1121 H         6   G16       0.0679
    182 H5''      -29.9725    9.4332   83.3597 H         6   G16       0.0679
    183 H4'       -31.2245    7.5785   84.2769 H         6   G16       0.1174
    184 H3'       -28.5587    6.5513   85.3378 H         6   G16       0.0615
    185 H2'       -29.5258    4.3556   85.0899 H         6   G16       0.0972
    186 H1'       -30.5488    4.8819   82.5792 H         6   G16       0.2006
    187 H8        -27.3608    6.6481   82.2731 H         6   G16       0.1640
    188 H1        -26.4765    0.3723   83.1880 H         6   G16       0.3424
    189 H21       -28.3959   -0.5865   83.7313 H         6   G16       0.4364
    190 H22       -29.8785    0.3310   83.8738 H         6   G16       0.4364
    191 HO2'      -31.6859    4.8318   85.7804 H         6   G16       0.4186
    192 P         -29.4870    6.4600   87.8790 P.3       7   G17       1.1662
    193 OP1       -30.1870    7.1990   88.9600 O.co2     7   G17      -0.7760
    194 OP2       -28.0360    6.6550   87.6850 O.co2     7   G17      -0.7760
    195 O5'       -29.7530    4.9060   88.1030 O.3       7   G17      -0.4989
    196 C5'       -31.0720    4.4300   88.3190 C.3       7   G17       0.0558
    197 C4'       -31.0960    2.9240   88.3340 C.3       7   G17       0.1065
    198 O4'       -30.6210    2.4100   87.0550 O.3       7   G17      -0.3548
    199 C3'       -30.1980    2.2490   89.3550 C.3       7   G17       0.2022
    200 O3'       -30.7860    2.2520   90.6540 O.3       7   G17      -0.5246
    201 C2'       -30.0640    0.8610   88.7400 C.3       7   G17       0.0670
    202 O2'       -31.2470    0.1060   88.8610 O.3       7   G17      -0.6139
    203 C1'       -29.8870    1.2110   87.2590 C.3       7   G17       0.0191
    204 N9        -28.4880    1.4540   86.8960 N.ar      7   G17       0.0492
    205 C8        -27.9070    2.6630   86.5930 C.ar      7   G17       0.1374
    206 N7        -26.6280    2.5690   86.3380 N.ar      7   G17      -0.5709
    207 C5        -26.3450    1.2210   86.4700 C.ar      7   G17       0.1744
    208 C6        -25.1240    0.5130   86.3000 C.2       7   G17       0.4770
    209 O6        -24.0120    0.9470   85.9800 O.2       7   G17      -0.5597
    210 N1        -25.2830   -0.8400   86.5340 N.am      7   G17      -0.4787
    211 C2        -26.4530   -1.4480   86.8750 C.2       7   G17       0.7657
    212 N2        -26.3770   -2.7580   87.0580 N.pl3     7   G17      -0.9672
    213 N3        -27.6080   -0.8150   87.0280 N.2       7   G17      -0.6323
    214 C4        -27.4810    0.5130   86.8120 C.ar      7   G17       0.1222
    215 H5'       -31.4353    4.8035   89.2764 H         7   G17       0.0679
    216 H5''      -31.7207    4.7925   87.5216 H         7   G17       0.0679
    217 H4'       -32.1215    2.5890   88.4899 H         7   G17       0.1174
    218 H3'       -29.2261    2.7417   89.3827 H         7   G17       0.0615
    219 H2'       -29.2006    0.3256   89.1348 H         7   G17       0.0972
    220 H1'       -30.2980    0.4148   86.6384 H         7   G17       0.2006
    221 H8        -28.4517    3.5953   86.5682 H         7   G17       0.1640
    222 H1        -24.4648   -1.4254   86.4448 H         7   G17       0.3424
    223 H21       -25.4938   -3.2338   86.9412 H         7   G17       0.4364
    224 H22       -27.2023   -3.2808   87.3143 H         7   G17       0.4364
    225 HO2'      -31.0487   -0.8239   88.7284 H         7   G17       0.4186
    226 P         -29.8430    2.3480   91.9530 P.3       8   G18       1.1662
    227 OP1       -30.6510    2.5050   93.1800 O.co2     8   G18      -0.7760
    228 OP2       -28.7350    3.2940   91.6960 O.co2     8   G18      -0.7760
    229 O5'       -29.2100    0.9000   92.0190 O.3       8   G18      -0.4989
    230 C5'       -30.0240   -0.2330   91.8390 C.3       8   G18       0.0558
    231 C4'       -29.1720   -1.4490   91.8650 C.3       8   G18       0.1065
    232 O4'       -28.3930   -1.5470   90.6460 O.3       8   G18      -0.3548
    233 C3'       -28.1240   -1.4030   92.9490 C.3       8   G18       0.2022
    234 O3'       -28.7360   -1.7690   94.1730 O.3       8   G18      -0.5246
    235 C2'       -27.1300   -2.4370   92.4420 C.3       8   G18       0.0670
    236 O2'       -27.6270   -3.7350   92.6420 O.3       8   G18      -0.6139
    237 C1'       -27.1560   -2.1640   90.9380 C.3       8   G18       0.0191
    238 N9        -26.0980   -1.2920   90.4530 N.ar      8   G18       0.0492
    239 C8        -26.1560    0.0630   90.2500 C.ar      8   G18       0.1374
    240 N7        -25.0550    0.5490   89.7470 N.ar      8   G18      -0.5709
    241 C5        -24.2220   -0.5480   89.6250 C.ar      8   G18       0.1744
    242 C6        -22.9070   -0.6450   89.1320 C.2       8   G18       0.4770
    243 O6        -22.1910    0.2440   88.6830 O.2       8   G18      -0.5597
    244 N1        -22.4350   -1.9490   89.1890 N.am      8   G18      -0.4787
    245 C2        -23.1490   -3.0250   89.6540 C.2       8   G18       0.7657
    246 N2        -22.5360   -4.2110   89.6210 N.pl3     8   G18      -0.9672
    247 N3        -24.3770   -2.9450   90.1160 N.2       8   G18      -0.6323
    248 C4        -24.8470   -1.6870   90.0720 C.ar      8   G18       0.1222
    249 H5'       -30.5362   -0.1662   90.8792 H         8   G18       0.0679
    250 H5''      -30.7592   -0.2854   92.6420 H         8   G18       0.0679
    251 H4'       -29.7928   -2.3371   91.9836 H         8   G18       0.1174
    252 H3'       -27.6674   -0.4155   93.0154 H         8   G18       0.0615
    253 H2'       -26.1369   -2.3026   92.8707 H         8   G18       0.0972
    254 H1'       -27.1015   -3.1139   90.4062 H         8   G18       0.2006
    255 H8        -27.0224    0.6646   90.4822 H         8   G18       0.1640
    256 H1        -21.4942   -2.1191   88.8634 H         8   G18       0.3424
    257 H21       -21.5928   -4.2823   89.2668 H         8   G18       0.4364
    258 H22       -23.0156   -5.0367   89.9502 H         8   G18       0.4364
    259 HO2'      -27.3169   -4.0703   93.4864 H         8   G18       0.4186
    260 P         -27.9660   -1.5190   95.5480 P.3       9   G19       1.1662
    261 OP1       -28.9290   -1.7210   96.6410 O.co2     9   G19      -0.7760
    262 OP2       -27.2230   -0.2340   95.4540 O.co2     9   G19      -0.7760
    263 O5'       -26.8890   -2.6970   95.5700 O.3       9   G19      -0.4989
    264 C5'       -27.2780   -4.0400   95.8290 C.3       9   G19       0.0558
    265 C4'       -26.0550   -4.9050   95.9670 C.3       9   G19       0.1065
    266 O4'       -25.3690   -4.9420   94.6840 O.3       9   G19      -0.3548
    267 C3'       -25.0250   -4.3900   96.9590 C.3       9   G19       0.2022
    268 O3'       -25.2640   -4.9290   98.2540 O.3       9   G19      -0.5246
    269 C2'       -23.7460   -4.9760   96.4050 C.3       9   G19       0.0670
    270 O2'       -23.6830   -6.3260   96.7900 O.3       9   G19      -0.6139
    271 C1'       -23.9760   -4.8610   94.8920 C.3       9   G19       0.0191
    272 N9        -23.5370   -3.5910   94.3220 N.ar      9   G19       0.0492
    273 C8        -24.1090   -2.3650   94.5400 C.ar      9   G19       0.1374
    274 N7        -23.5260   -1.4040   93.8830 N.ar      9   G19      -0.5709
    275 C5        -22.5040   -2.0250   93.1900 C.ar      9   G19       0.1744
    276 C6        -21.5300   -1.4810   92.3160 C.2       9   G19       0.4770
    277 O6        -21.3860   -0.3110   91.9670 O.2       9   G19      -0.5597
    278 N1        -20.6680   -2.4650   91.8370 N.am      9   G19      -0.4787
    279 C2        -20.7400   -3.8040   92.1600 C.2       9   G19       0.7657
    280 N2        -19.8260   -4.6020   91.6040 N.pl3     9   G19      -0.9672
    281 N3        -21.6470   -4.3200   92.9740 N.2       9   G19      -0.6323
    282 C4        -22.4910   -3.3790   93.4510 C.ar      9   G19       0.1222
    283 H5'       -27.8547   -4.0781   96.7532 H         9   G19       0.0679
    284 H5''      -27.8898   -4.4058   95.0044 H         9   G19       0.0679
    285 H4'       -26.3549   -5.9148   96.2471 H         9   G19       0.1174
    286 H3'       -24.9935   -3.3006   96.9766 H         9   G19       0.0615
    287 H2'       -22.8674   -4.4177   96.7282 H         9   G19       0.0972
    288 H1'       -23.4790   -5.6853   94.3805 H         9   G19       0.2006
    289 H8        -24.9572   -2.2115   95.1907 H         9   G19       0.1640
    290 H1        -19.9348   -2.1760   91.2054 H         9   G19       0.3424
    291 H21       -19.1300   -4.2161   90.9821 H         9   G19       0.4364
    292 H22       -19.8303   -5.5918   91.8052 H         9   G19       0.4364
    293 HO2'      -22.8767   -6.7194   96.4483 H         9   G19       0.4186
    294 P         -24.7510   -4.1350   99.5630 P.3      10   U20       1.1662
    295 OP1       -25.1950   -4.8540  100.7730 O.co2    10   U20      -0.7760
    296 OP2       -25.0750   -2.6900   99.4060 O.co2    10   U20      -0.7760
    297 O5'       -23.1640   -4.2680   99.5140 O.3      10   U20      -0.4989
    298 C5'       -22.4980   -5.4210  100.0040 C.3      10   U20       0.0558
    299 C4'       -21.0220   -5.3050   99.7220 C.3      10   U20       0.1065
    300 O4'       -20.8780   -5.0550   98.3040 O.3      10   U20      -0.3548
    301 C3'       -20.3240   -4.1120  100.3590 C.3      10   U20       0.2022
    302 O3'       -19.8690   -4.4150  101.6710 O.3      10   U20      -0.5246
    303 C2'       -19.1470   -3.8690   99.4270 C.3      10   U20       0.0670
    304 O2'       -18.0190   -4.6660   99.6960 O.3      10   U20      -0.6139
    305 C1'       -19.7320   -4.2630   98.0770 C.3      10   U20       0.0674
    306 N1        -20.1040   -3.1050   97.2640 N.am     10   U20       0.0418
    307 C2        -19.2480   -2.7940   96.2650 C.2      10   U20       0.4687
    308 O2        -18.2410   -3.4430   96.0640 O.2      10   U20      -0.5477
    309 N3        -19.5970   -1.7020   95.5120 N.am     10   U20      -0.3549
    310 C4        -20.7050   -0.9020   95.6710 C.2      10   U20       0.5952
    311 O4        -20.8800    0.0430   94.9050 O.2      10   U20      -0.5761
    312 C5        -21.5640   -1.2900   96.7490 C.2      10   U20      -0.3635
    313 C6        -21.2410   -2.3640   97.4920 C.2      10   U20      -0.1126
    314 H5'       -22.6572   -5.5033  101.0792 H        10   U20       0.0679
    315 H5''      -22.8942   -6.3076   99.5089 H        10   U20       0.0679
    316 H4'       -20.5127   -6.2292   99.9951 H        10   U20       0.1174
    317 H3'       -20.9851   -3.2455  100.3741 H        10   U20       0.0615
    318 H2'       -18.8743   -2.8137   99.4283 H        10   U20       0.0972
    319 H1'       -18.9961   -4.8548   97.5326 H        10   U20       0.1824
    320 H3        -18.9715   -1.4582   94.7574 H        10   U20       0.3154
    321 H5        -22.4605   -0.7271   96.9630 H        10   U20       0.1811
    322 H6        -21.8986   -2.6556   98.2976 H        10   U20       0.2188
    323 HO2'      -17.6481   -4.4198  100.5465 H        10   U20       0.4186
    324 P         -20.6850   -3.8580  102.9350 P.3      11   G21       1.1662
    325 OP1       -21.6620   -2.8370  102.4560 O.co2    11   G21      -0.7760
    326 OP2       -19.7080   -3.4890  103.9860 O.co2    11   G21      -0.7760
    327 O5'       -21.4850   -5.1410  103.4160 O.3      11   G21      -0.4989
    328 C5'       -20.8390   -6.1410  104.1830 C.3      11   G21       0.0558
    329 C4'       -21.4260   -7.4950  103.8800 C.3      11   G21       0.1065
    330 O4'       -21.1550   -7.8730  102.4940 O.3      11   G21      -0.3548
    331 C3'       -20.8070   -8.5900  104.7180 C.3      11   G21       0.2022
    332 O3'       -21.5030   -8.6440  105.9590 O.3      11   G21      -0.5246
    333 C2'       -20.9730   -9.8110  103.8170 C.3      11   G21       0.0670
    334 O2'       -22.2930  -10.2930  103.7770 O.3      11   G21      -0.6139
    335 C1'       -20.6850   -9.2090  102.4410 C.3      11   G21       0.0191
    336 N9        -19.2710   -9.1740  102.0600 N.ar     11   G21       0.0492
    337 C8        -18.4910   -8.0490  101.8880 C.ar     11   G21       0.1374
    338 N7        -17.2700   -8.3210  101.5210 N.ar     11   G21      -0.5709
    339 C5        -17.2330   -9.7050  101.4460 C.ar     11   G21       0.1744
    340 C6        -16.1750  -10.5720  101.0820 C.2      11   G21       0.4770
    341 O6        -15.0360  -10.2790  100.7180 O.2      11   G21      -0.5597
    342 N1        -16.5540  -11.9070  101.1580 N.am     11   G21      -0.4787
    343 C2        -17.8040  -12.3530  101.5180 C.2      11   G21       0.7657
    344 N2        -17.9790  -13.6790  101.5250 N.pl3    11   G21      -0.9672
    345 N3        -18.8130  -11.5500  101.8460 N.2      11   G21      -0.6323
    346 C4        -18.4570  -10.2500  101.7900 C.ar     11   G21       0.1222
    347 H5'       -19.7761   -6.1481  103.9417 H        11   G21       0.0679
    348 H5''      -20.9668   -5.9214  105.2430 H        11   G21       0.0679
    349 H4'       -22.5027   -7.4717  104.0479 H        11   G21       0.1174
    350 H3'       -19.7497   -8.3853  104.8862 H        11   G21       0.0615
    351 H2'       -20.2631  -10.5986  104.0696 H        11   G21       0.0972
    352 H1'       -21.2469   -9.7573  101.6848 H        11   G21       0.2006
    353 H8        -18.8554   -7.0440  102.0419 H        11   G21       0.1640
    354 H1        -15.8580  -12.6029  100.9315 H        11   G21       0.3424
    355 H21       -17.2149  -14.2905  101.2755 H        11   G21       0.4364
    356 H22       -18.8753  -14.0688  101.7798 H        11   G21       0.4364
    357 HO2'      -22.5180  -10.6820  104.6253 H        11   G21       0.4186
    358 P         -20.6760   -8.6660  107.3430 P.3      12   C22       1.1662
    359 OP1       -21.6190   -8.7290  108.4870 O.co2    12   C22      -0.7760
    360 OP2       -19.6380   -7.6180  107.3170 O.co2    12   C22      -0.7760
    361 O5'       -19.9420  -10.0700  107.2720 O.3      12   C22      -0.4989
    362 C5'       -20.6800  -11.2790  107.2480 C.3      12   C22       0.0558
    363 C4'       -19.7340  -12.4330  107.0900 C.3      12   C22       0.1065
    364 O4'       -19.1810  -12.4350  105.7420 O.3      12   C22      -0.3548
    365 C3'       -18.5120  -12.3660  107.9890 C.3      12   C22       0.2022
    366 O3'       -18.8550  -12.8490  109.2780 O.3      12   C22      -0.5246
    367 C2'       -17.5280  -13.2580  107.2380 C.3      12   C22       0.0670
    368 O2'       -17.7400  -14.6420  107.4630 O.3      12   C22      -0.6139
    369 C1'       -17.8490  -12.9050  105.7760 C.3      12   C22       0.0066
    370 N1        -16.9960  -11.8450  105.2320 N.am     12   C22      -0.0484
    371 C2        -15.7140  -12.1780  104.7650 C.2      12   C22       0.7538
    372 O2        -15.3560  -13.3630  104.8000 O.2      12   C22      -0.6252
    373 N3        -14.9080  -11.1980  104.2910 N.2      12   C22      -0.7584
    374 C4        -15.3410   -9.9370  104.2610 C.2      12   C22       0.8185
    375 N4        -14.5230   -9.0080  103.7690 N.pl3    12   C22      -0.9530
    376 C5        -16.6400   -9.5730  104.7230 C.2      12   C22      -0.5215
    377 C6        -17.4300  -10.5500  105.1920 C.2      12   C22       0.0053
    378 H5'       -21.2331  -11.3866  108.1810 H        12   C22       0.0679
    379 H5''      -21.3778  -11.2630  106.4108 H        12   C22       0.0679
    380 H4'       -20.2662  -13.3676  107.2672 H        12   C22       0.1174
    381 H3'       -18.1354  -11.3449  108.0494 H        12   C22       0.0615
    382 H2'       -16.5014  -12.9840  107.4809 H        12   C22       0.0972
    383 H1'       -17.7611  -13.7980  105.1571 H        12   C22       0.2029
    384 H5        -16.9758   -8.5469  104.6962 H        12   C22       0.1928
    385 H6        -18.4228  -10.3099  105.5429 H        12   C22       0.1958
    386 H41       -14.8208   -8.0438  103.7272 H        12   C22       0.4234
    387 H42       -13.6049   -9.2678  103.4378 H        12   C22       0.4234
    388 HO2'      -17.4454  -15.1400  106.6970 H        12   C22       0.4186
    389 P         -18.0190  -12.3780  110.5660 P.3      13   C23       1.1662
    390 OP1       -18.8160  -12.7860  111.7520 O.co2    13   C23      -0.7760
    391 OP2       -17.6460  -10.9530  110.3940 O.co2    13   C23      -0.7760
    392 O5'       -16.6990  -13.2740  110.5150 O.3      13   C23      -0.4989
    393 C5'       -16.8010  -14.6500  110.1810 C.3      13   C23       0.0558
    394 C4'       -15.4370  -15.3080  110.0830 C.3      13   C23       0.1065
    395 O4'       -14.6460  -14.7320  109.0120 O.3      13   C23      -0.3548
    396 C3'       -14.6070  -15.1460  111.3470 C.3      13   C23       0.2022
    397 O3'       -14.0870  -16.4310  111.7080 O.3      13   C23      -0.5246
    398 C2'       -13.6450  -13.9860  111.0610 C.3      13   C23       0.0670
    399 O2'       -12.3480  -14.2040  111.5530 O.3      13   C23      -0.6139
    400 C1'       -13.5420  -14.0510  109.5400 C.3      13   C23       0.0066
    401 N1        -13.2560  -12.8630  108.7300 N.am     13   C23      -0.0484
    402 C2        -12.0360  -12.8240  108.0720 C.2      13   C23       0.7538
    403 O2        -11.2530  -13.7770  108.2280 O.2      13   C23      -0.6252
    404 N3        -11.7340  -11.7640  107.2860 N.2      13   C23      -0.7584
    405 C4        -12.6080  -10.7680  107.1560 C.2      13   C23       0.8185
    406 N4        -12.2760   -9.7430  106.3670 N.pl3    13   C23      -0.9530
    407 C5        -13.8650  -10.7790  107.8280 C.2      13   C23      -0.5215
    408 C6        -14.1430  -11.8370  108.6020 C.2      13   C23       0.0053
    409 H5'       -17.3831  -15.1576  110.9501 H        13   C23       0.0679
    410 H5''      -17.3133  -14.7474  109.2238 H        13   C23       0.0679
    411 H4'       -15.5733  -16.3714  109.8862 H        13   C23       0.1174
    412 H3'       -15.2793  -14.8273  112.1436 H        13   C23       0.0615
    413 H2'       -14.0503  -13.0321  111.3984 H        13   C23       0.0972
    414 H1'       -12.6986  -14.7159  109.3535 H        13   C23       0.2029
    415 H5        -14.5667   -9.9655  107.7176 H        13   C23       0.1928
    416 H6        -15.0833  -11.8768  109.1317 H        13   C23       0.1958
    417 H41       -11.3847   -9.7395  105.8919 H        13   C23       0.4234
    418 H42       -12.9162   -8.9713  106.2454 H        13   C23       0.4234
    419 HO2'      -12.3905  -14.4039  112.4910 H        13   C23       0.4186
    420 P         -13.5880  -16.7250  113.1900 P.3      14   C24       1.1662
    421 OP1       -14.4920  -17.7560  113.7520 O.co2    14   C24      -0.7760
    422 OP2       -13.4290  -15.4290  113.8910 O.co2    14   C24      -0.7760
    423 O5'       -12.1440  -17.3790  112.9570 O.3      14   C24      -0.4989
    424 C5'       -11.7750  -18.6030  113.6080 C.3      14   C24       0.0558
    425 C4'       -10.6100  -19.2920  112.8980 C.3      14   C24       0.1065
    426 O4'       -10.9510  -19.6130  111.5220 O.3      14   C24      -0.3548
    427 C3'        -9.2960  -18.5380  112.7570 C.3      14   C24       0.2022
    428 O3'        -8.5470  -18.5770  113.9630 O.3      14   C24      -0.5246
    429 C2'        -8.5880  -19.3410  111.6700 C.3      14   C24       0.0670
    430 O2'        -7.9380  -20.5010  112.1570 O.3      14   C24      -0.6139
    431 C1'        -9.7560  -19.7350  110.7630 C.3      14   C24       0.0066
    432 N1         -9.8460  -18.8830  109.5650 N.am     14   C24      -0.0484
    433 C2         -9.5380  -19.4490  108.3290 C.2      14   C24       0.7538
    434 O2         -9.2270  -20.6500  108.2830 O.2      14   C24      -0.6252
    435 N3         -9.5890  -18.6840  107.2180 N.2      14   C24      -0.7584
    436 C4         -9.9360  -17.4000  107.3100 C.2      14   C24       0.8185
    437 N4         -9.9690  -16.6890  106.1850 N.pl3    14   C24      -0.9530
    438 C5        -10.2610  -16.7940  108.5570 C.2      14   C24      -0.5215
    439 C6        -10.2060  -17.5650  109.6490 C.2      14   C24       0.0053
    440 H5'       -11.4823  -18.3826  114.6346 H        14   C24       0.0679
    441 H5''      -12.6336  -19.2744  113.6183 H        14   C24       0.0679
    442 H4'       -10.4055  -20.2271  113.4195 H        14   C24       0.1174
    443 H3'        -9.4670  -17.5106  112.4357 H        14   C24       0.0615
    444 H2'        -7.8833  -18.7094  111.1292 H        14   C24       0.0972
    445 H1'        -9.6337  -20.7732  110.4543 H        14   C24       0.2029
    446 H5        -10.5409  -15.7527  108.6188 H        14   C24       0.1928
    447 H6        -10.4495  -17.1408  110.6119 H        14   C24       0.1958
    448 H41        -9.7366  -17.1258  105.3045 H        14   C24       0.4234
    449 H42       -10.2264  -15.7127  106.2120 H        14   C24       0.4234
    450 HO2'       -7.2074  -20.2446  112.7245 H        14   C24       0.4186
    451 P          -8.0360  -17.2060  114.6230 P.3      15   U25       1.1662
    452 OP1        -7.4570  -17.5590  115.9470 O.co2    15   U25      -0.7760
    453 OP2        -9.1520  -16.2310  114.5500 O.co2    15   U25      -0.7760
    454 O5'        -6.8700  -16.7080  113.6530 O.3      15   U25      -0.4989
    455 C5'        -5.7480  -17.5420  113.3640 C.3      15   U25       0.0558
    456 C4'        -4.7330  -16.8030  112.5110 C.3      15   U25       0.1065
    457 O4'        -5.3140  -16.4810  111.2150 O.3      15   U25      -0.3548
    458 C3'        -4.2380  -15.4620  113.0330 C.3      15   U25       0.2022
    459 O3'        -3.1870  -15.6210  113.9780 O.3      15   U25      -0.5246
    460 C2'        -3.7170  -14.8100  111.7590 C.3      15   U25       0.0670
    461 O2'        -2.4530  -15.3300  111.4030 O.3      15   U25      -0.6139
    462 C1'        -4.7570  -15.2680  110.7320 C.3      15   U25       0.0674
    463 N1         -5.8480  -14.3030  110.5040 N.am     15   U25       0.0418
    464 C2         -5.5480  -13.1470  109.8020 C.2      15   U25       0.4687
    465 O2         -4.4350  -12.8950  109.3790 O.2      15   U25      -0.5477
    466 N3         -6.6060  -12.2920  109.6110 N.am     15   U25      -0.3549
    467 C4         -7.9020  -12.4630  110.0380 C.2      15   U25       0.5952
    468 O4         -8.7400  -11.5950  109.7790 O.2      15   U25      -0.5761
    469 C5         -8.1380  -13.6790  110.7600 C.2      15   U25      -0.3635
    470 C6         -7.1280  -14.5360  110.9620 C.2      15   U25      -0.1126
    471 H5'        -5.2766  -17.8436  114.2994 H        15   U25       0.0679
    472 H5''       -6.0879  -18.4295  112.8303 H        15   U25       0.0679
    473 H4'        -3.8725  -17.4533  112.3537 H        15   U25       0.1174
    474 H3'        -5.0584  -14.8837  113.4580 H        15   U25       0.0615
    475 H2'        -3.6926  -13.7238  111.8466 H        15   U25       0.0972
    476 H1'        -4.2549  -15.4631  109.7844 H        15   U25       0.1824
    477 H3         -6.4103  -11.4431  109.1000 H        15   U25       0.3154
    478 H5         -9.1243  -13.9029  111.1389 H        15   U25       0.1811
    479 H6         -7.3245  -15.4478  111.5065 H        15   U25       0.2188
    480 HO2'       -1.7625  -14.7714  111.7674 H        15   U25       0.4186
    481 P          -2.7930  -14.3990  114.9520 P.3      16   U26       1.1662
    482 OP1        -1.7460  -14.8870  115.8870 O.co2    16   U26      -0.7760
    483 OP2        -4.0340  -13.7880  115.5040 O.co2    16   U26      -0.7760
    484 O5'        -2.0800  -13.3490  113.9840 O.3      16   U26      -0.4989
    485 C5'        -0.7570  -13.5880  113.4920 C.3      16   U26       0.0558
    486 C4'        -0.2260  -12.3760  112.7470 C.3      16   U26       0.1065
    487 O4'        -1.0150  -12.1410  111.5490 O.3      16   U26      -0.3548
    488 C3'        -0.2610  -11.0470  113.4880 C.3      16   U26       0.2022
    489 O3'         0.8610  -10.9100  114.3570 O.3      16   U26      -0.5246
    490 C2'        -0.2120  -10.0480  112.3360 C.3      16   U26       0.0670
    491 O2'         1.0890   -9.8620  111.8120 O.3      16   U26      -0.6139
    492 C1'        -1.0920  -10.7460  111.2970 C.3      16   U26       0.0674
    493 N1         -2.4950  -10.3320  111.4300 N.am     16   U26       0.0418
    494 C2         -2.8430   -9.0980  110.9270 C.2      16   U26       0.4687
    495 O2         -2.0490   -8.3650  110.3720 O.2      16   U26      -0.5477
    496 N3         -4.1520   -8.7500  111.1050 N.am     16   U26      -0.3549
    497 C4         -5.1280   -9.4880  111.7250 C.2      16   U26       0.5952
    498 O4         -6.2600   -9.0200  111.8240 O.2      16   U26      -0.5761
    499 C5         -4.6970  -10.7620  112.2180 C.2      16   U26      -0.3635
    500 C6         -3.4270  -11.1340  112.0530 C.2      16   U26      -0.1126
    501 H5'        -0.0983  -13.8063  114.3326 H        16   U26       0.0679
    502 H5''       -0.7742  -14.4444  112.8179 H        16   U26       0.0679
    503 H4'         0.8028  -12.5778  112.4486 H        16   U26       0.1174
    504 H3'        -1.1920  -10.9436  114.0453 H        16   U26       0.0615
    505 H2'        -0.6483   -9.0944  112.6333 H        16   U26       0.0972
    506 H1'        -0.7306  -10.5266  110.2923 H        16   U26       0.1824
    507 H3         -4.4318   -7.8508  110.7401 H        16   U26       0.3154
    508 H5         -5.3950  -11.4161  112.7193 H        16   U26       0.1811
    509 H6         -3.1169  -12.1006  112.4216 H        16   U26       0.2188
    510 HO2'        1.3975   -8.9785  112.0263 H        16   U26       0.4186
    511 P           0.7700   -9.9380  115.6370 P.3      17   C27       1.1662
    512 OP1         2.0260  -10.1240  116.4000 O.co2    17   C27      -0.7760
    513 OP2        -0.5320  -10.1500  116.3090 O.co2    17   C27      -0.7760
    514 O5'         0.8020   -8.4730  115.0140 O.3      17   C27      -0.4989
    515 C5'         2.0220   -7.9240  114.5330 C.3      17   C27       0.0558
    516 C4'         1.7830   -6.5760  113.8990 C.3      17   C27       0.1065
    517 O4'         0.7760   -6.7150  112.8570 O.3      17   C27      -0.3548
    518 C3'         1.2250   -5.4880  114.8000 C.3      17   C27       0.2022
    519 O3'         2.2640   -4.8470  115.5370 O.3      17   C27      -0.5246
    520 C2'         0.6200   -4.5430  113.7730 C.3      17   C27       0.0670
    521 O2'         1.6180   -3.7930  113.1140 O.3      17   C27      -0.6139
    522 C1'        -0.0020   -5.5350  112.7870 C.3      17   C27       0.0066
    523 N1         -1.3990   -5.8760  113.1130 N.am     17   C27      -0.0484
    524 C2         -2.4070   -4.9860  112.7440 C.2      17   C27       0.7538
    525 O2         -2.1030   -3.9510  112.1330 O.2      17   C27      -0.6252
    526 N3         -3.6860   -5.2690  113.0570 N.2      17   C27      -0.7584
    527 C4         -3.9820   -6.3900  113.7090 C.2      17   C27       0.8185
    528 N4         -5.2710   -6.6130  114.0010 N.pl3    17   C27      -0.9530
    529 C5         -2.9770   -7.3240  114.0900 C.2      17   C27      -0.5215
    530 C6         -1.7110   -7.0300  113.7730 C.2      17   C27       0.0053
    531 H5'         2.4503   -8.5980  113.7911 H        17   C27       0.0679
    532 H5''        2.7191   -7.8128  115.3636 H        17   C27       0.0679
    533 H4'         2.7122   -6.2243  113.4506 H        17   C27       0.1174
    534 H3'         0.4593   -5.8852  115.4663 H        17   C27       0.0615
    535 H2'        -0.1355   -3.8971  114.2203 H        17   C27       0.0972
    536 H1'         0.0472   -5.1254  111.7781 H        17   C27       0.2029
    537 H5         -3.2271   -8.2344  114.6145 H        17   C27       0.1928
    538 H6         -0.9226   -7.7168  114.0436 H        17   C27       0.1958
    539 H41        -5.9744   -5.9424  113.7261 H        17   C27       0.4234
    540 H42        -5.5389   -7.4517  114.4960 H        17   C27       0.4234
    541 HO2'        2.0099   -3.1699  113.7302 H        17   C27       0.4186
    542 P           2.0140   -4.4190  117.0740 P.3      18   U28       1.1662
    543 OP1         1.1350   -3.2250  117.0680 O.co2    18   U28      -0.7760
    544 OP2         3.3360   -4.3450  117.7460 O.co2    18   U28      -0.7760
    545 O5'         1.2020   -5.6460  117.7030 O.3      18   U28      -0.4989
    546 C5'         0.9320   -5.7260  119.1110 C.3      18   U28       0.0558
    547 C4'        -0.5450   -5.9900  119.3490 C.3      18   U28       0.1065
    548 O4'        -1.2870   -4.9030  118.7610 O.3      18   U28      -0.3548
    549 C3'        -1.1150   -7.2480  118.6900 C.3      18   U28       0.2022
    550 O3'        -1.1660   -8.4320  119.5200 O.3      18   U28      -0.5246
    551 C2'        -2.5760   -6.8900  118.3880 C.3      18   U28       0.0670
    552 O2'        -3.4840   -7.3540  119.3690 O.3      18   U28      -0.6139
    553 C1'        -2.5700   -5.3650  118.4340 C.3      18   U28       0.0674
    554 N1         -3.1150   -4.6040  117.3030 N.am     18   U28       0.0418
    555 C2         -4.4540   -4.7800  117.0270 C.2      18   U28       0.4687
    556 O2         -5.1330   -5.6290  117.5740 O.2      18   U28      -0.5477
    557 N3         -4.9700   -3.9250  116.0880 N.am     18   U28      -0.3549
    558 C4         -4.2910   -2.9530  115.3910 C.2      18   U28       0.5952
    559 O4         -4.9140   -2.2170  114.6280 O.2      18   U28      -0.5761
    560 C5         -2.8870   -2.8800  115.6800 C.2      18   U28      -0.3635
    561 C6         -2.3580   -3.6970  116.5980 C.2      18   U28      -0.1126
    562 H5'         1.5168   -6.5376  119.5439 H        18   U28       0.0679
    563 H5''        1.2119   -4.7859  119.5863 H        18   U28       0.0679
    564 H4'        -0.7390   -6.0230  120.4211 H        18   U28       0.1174
    565 H3'        -0.5815   -7.4614  117.7638 H        18   U28       0.0615
    566 H2'        -2.8632   -7.2448  117.3982 H        18   U28       0.0972
    567 H1'        -3.1962   -5.1009  119.2862 H        18   U28       0.1824
    568 H3         -5.9552   -4.0190  115.8862 H        18   U28       0.3154
    569 H5         -2.2614   -2.1699  115.1596 H        18   U28       0.1811
    570 H6         -1.2971   -3.6424  116.7929 H        18   U28       0.2188
    571 HO2'       -4.3813   -7.2767  119.0366 H        18   U28       0.4186
    572 P          -0.7230   -8.4080  121.0890 P.3      19   G29       1.1662
    573 OP1         0.1450   -7.2430  121.4130 O.co2    19   G29      -0.7760
    574 OP2        -0.2210   -9.7820  121.3560 O.co2    19   G29      -0.7760
    575 O5'        -2.0890   -8.2650  121.9130 O.3      19   G29      -0.4989
    576 C5'        -2.6310   -9.3840  122.6290 C.3      19   G29       0.0558
    577 C4'        -3.5790   -8.9350  123.7330 C.3      19   G29       0.1065
    578 O4'        -2.8680   -8.0970  124.6810 O.3      19   G29      -0.3548
    579 C3'        -4.8060   -8.1240  123.3300 C.3      19   G29       0.2022
    580 O3'        -5.8910   -8.9810  122.9860 O.3      19   G29      -0.5246
    581 C2'        -5.1380   -7.3710  124.6120 C.3      19   G29       0.0670
    582 O2'        -5.9160   -8.1310  125.5070 O.3      19   G29      -0.6139
    583 C1'        -3.7440   -7.1030  125.1910 C.3      19   G29       0.0191
    584 N9         -3.2270   -5.7950  124.7990 N.ar     19   G29       0.0492
    585 C8         -2.0350   -5.5230  124.1720 C.ar     19   G29       0.1374
    586 N7         -1.8720   -4.2530  123.9120 N.ar     19   G29      -0.5709
    587 C5         -3.0220   -3.6510  124.4080 C.ar     19   G29       0.1744
    588 C6         -3.4200   -2.2940  124.4100 C.2      19   G29       0.4770
    589 O6         -2.8180   -1.3140  123.9540 O.2      19   G29      -0.5597
    590 N1         -4.6580   -2.1250  125.0140 N.am     19   G29      -0.4787
    591 C2         -5.4190   -3.1320  125.5450 C.2      19   G29       0.7657
    592 N2         -6.5920   -2.7750  126.0780 N.pl3    19   G29      -0.9672
    593 N3         -5.0610   -4.3990  125.5500 N.2      19   G29      -0.6323
    594 C4         -3.8610   -4.5870  124.9680 C.ar     19   G29       0.1222
    595 H5'        -1.8123   -9.9497  123.0738 H        19   G29       0.0679
    596 H5''       -3.1716  -10.0255  121.9330 H        19   G29       0.0679
    597 H4'        -3.9229   -9.8236  124.2623 H        19   G29       0.1174
    598 H3'        -4.5742   -7.4357  122.5172 H        19   G29       0.0615
    599 H2'        -5.6384   -6.4309  124.3798 H        19   G29       0.0972
    600 H1'        -3.7805   -7.1708  126.2783 H        19   G29       0.2006
    601 H8         -1.3079   -6.2808  123.9201 H        19   G29       0.1640
    602 H1         -5.0264   -1.1860  125.0660 H        19   G29       0.3424
    603 H21        -6.8734   -1.8050  126.0757 H        19   G29       0.4364
    604 H22        -7.1967   -3.4753  126.4829 H        19   G29       0.4364
    605 HO2'       -6.7830   -8.2869  125.1253 H        19   G29       0.4186
    606 P          -6.8340   -8.6240  121.7330 P.3      20   C30       1.1662
    607 OP1        -7.5460   -9.8730  121.3610 O.co2    20   C30      -0.7760
    608 OP2        -6.0200   -7.9140  120.7150 O.co2    20   C30      -0.7760
    609 O5'        -7.9100   -7.6090  122.3230 O.3      20   C30      -0.4989
    610 C5'        -8.8550   -8.0330  123.3030 C.3      20   C30       0.0558
    611 C4'        -9.7260   -6.8730  123.7310 C.3      20   C30       0.1065
    612 O4'        -8.9450   -5.9120  124.4950 O.3      20   C30      -0.3548
    613 C3'       -10.3080   -6.0580  122.5920 C.3      20   C30       0.2022
    614 O3'       -11.4810   -6.6680  122.0600 O.3      20   C30      -0.5246
    615 C2'       -10.5960   -4.7190  123.2660 C.3      20   C30       0.0670
    616 O2'       -11.8020   -4.7080  123.9960 O.3      20   C30      -0.6139
    617 C1'        -9.4170   -4.5990  124.2330 C.3      20   C30       0.0066
    618 N1         -8.3180   -3.8040  123.6580 N.am     20   C30      -0.0484
    619 C2         -8.3790   -2.4070  123.7470 C.2      20   C30       0.7538
    620 O2         -9.3290   -1.8880  124.3400 O.2      20   C30      -0.6252
    621 N3         -7.4040   -1.6630  123.1840 N.2      20   C30      -0.7584
    622 C4         -6.3910   -2.2610  122.5550 C.2      20   C30       0.8185
    623 N4         -5.4590   -1.4890  121.9990 N.pl3    20   C30      -0.9530
    624 C5         -6.2900   -3.6800  122.4660 C.2      20   C30      -0.5215
    625 C6         -7.2660   -4.4080  123.0300 C.2      20   C30       0.0053
    626 H5'        -9.4833   -8.8171  122.8805 H        20   C30       0.0679
    627 H5''       -8.3239   -8.4246  124.1706 H        20   C30       0.0679
    628 H4'       -10.5387   -7.2476  124.3534 H        20   C30       0.1174
    629 H3'        -9.5640   -5.9289  121.8059 H        20   C30       0.0615
    630 H2'       -10.5799   -3.9092  122.5366 H        20   C30       0.0972
    631 H1'        -9.7526   -4.1394  125.1626 H        20   C30       0.2029
    632 H5         -5.4587   -4.1518  121.9632 H        20   C30       0.1928
    633 H6         -7.2191   -5.4861  122.9868 H        20   C30       0.1958
    634 H41        -5.5324   -0.4837  122.0622 H        20   C30       0.4234
    635 H42        -4.6788   -1.9089  121.5142 H        20   C30       0.4234
    636 HO2'      -12.2383   -3.8608  123.8799 H        20   C30       0.4186
    637 P         -11.8760   -6.4180  120.5180 P.3      21   G31       1.1662
    638 OP1       -13.2120   -7.0100  120.2360 O.co2    21   G31      -0.7760
    639 OP2       -10.7000   -6.8350  119.7060 O.co2    21   G31      -0.7760
    640 O5'       -12.0160   -4.8330  120.4200 O.3      21   G31      -0.4989
    641 C5'       -13.0620   -4.1440  121.0960 C.3      21   G31       0.0558
    642 C4'       -12.9230   -2.6570  120.8820 C.3      21   G31       0.1065
    643 O4'       -11.6630   -2.2140  121.4490 O.3      21   G31      -0.3548
    644 C3'       -12.8510   -2.2280  119.4250 C.3      21   G31       0.2022
    645 O3'       -14.1520   -2.0570  118.8730 O.3      21   G31      -0.5246
    646 C2'       -12.0960   -0.9070  119.5070 C.3      21   G31       0.0670
    647 O2'       -12.9270    0.1830  119.8510 O.3      21   G31      -0.6139
    648 C1'       -11.1130   -1.1870  120.6440 C.3      21   G31       0.0191
    649 N9         -9.8000   -1.6210  120.1880 N.ar     21   G31       0.0492
    650 C8         -9.2230   -2.8510  120.3730 C.ar     21   G31       0.1374
    651 N7         -8.0160   -2.9280  119.8870 N.ar     21   G31      -0.5709
    652 C5         -7.7900   -1.6760  119.3380 C.ar     21   G31       0.1744
    653 C6         -6.6560   -1.1630  118.6710 C.2      21   G31       0.4770
    654 O6         -5.5820   -1.7260  118.4320 O.2      21   G31      -0.5597
    655 N1         -6.8500    0.1520  118.2680 N.am     21   G31      -0.4787
    656 C2         -7.9890    0.8840  118.4860 C.2      21   G31       0.7657
    657 N2         -7.9820    2.1490  118.0270 N.pl3    21   G31      -0.9672
    658 N3         -9.0580    0.4130  119.1120 N.2      21   G31      -0.6323
    659 C4         -8.8870   -0.8630  119.5070 C.ar     21   G31       0.1222
    660 H5'       -14.0240   -4.4763  120.7059 H        21   G31       0.0679
    661 H5''      -13.0090   -4.3626  122.1625 H        21   G31       0.0679
    662 H4'       -13.7463   -2.1393  121.3742 H        21   G31       0.1174
    663 H3'       -12.2838   -2.9542  118.8428 H        21   G31       0.0615
    664 H2'       -11.5638   -0.7082  118.5768 H        21   G31       0.0972
    665 H1'       -11.0000   -0.2855  121.2462 H        21   G31       0.2006
    666 H8         -9.7179   -3.6720  120.8705 H        21   G31       0.1640
    667 H1         -6.0929    0.6045  117.7759 H        21   G31       0.3424
    668 H21        -7.1672    2.5090  117.5510 H        21   G31       0.4364
    669 H22        -8.7916    2.7384  118.1585 H        21   G31       0.4364
    670 HO2'      -13.5424    0.3553  119.1347 H        21   G31       0.4186
    671 P         -14.4600   -2.5840  117.3840 P.3      22   U32       1.1662
    672 OP1       -15.9010   -2.3140  117.1110 O.co2    22   U32      -0.7760
    673 OP2       -13.9190   -3.9690  117.2490 O.co2    22   U32      -0.7760
    674 O5'       -13.6150   -1.6290  116.4310 O.3      22   U32      -0.4989
    675 C5'       -14.0170   -0.2800  116.2340 C.3      22   U32       0.0558
    676 C4'       -12.8740    0.5370  115.6850 C.3      22   U32       0.1065
    677 O4'       -11.7110    0.3780  116.5430 O.3      22   U32      -0.3548
    678 C3'       -12.3640    0.1380  114.3150 C.3      22   U32       0.2022
    679 O3'       -13.2110    0.6770  113.2980 O.3      22   U32      -0.5246
    680 C2'       -10.9760    0.7690  114.3350 C.3      22   U32       0.0670
    681 O2'       -11.0210    2.1740  114.1940 O.3      22   U32      -0.6139
    682 C1'       -10.5320    0.4680  115.7660 C.3      22   U32       0.0674
    683 N1         -9.7970   -0.7970  115.9000 N.am     22   U32       0.0418
    684 C2         -8.4600   -0.8140  115.5290 C.2      22   U32       0.4687
    685 O2         -7.8790    0.1580  115.0980 O.2      22   U32      -0.5477
    686 N3         -7.8300   -2.0190  115.6860 N.am     22   U32      -0.3549
    687 C4         -8.3810   -3.1850  116.1670 C.2      22   U32       0.5952
    688 O4         -7.6740   -4.1950  116.2560 O.2      22   U32      -0.5761
    689 C5         -9.7680   -3.0890  116.5280 C.2      22   U32      -0.3635
    690 C6        -10.4110   -1.9270  116.3840 C.2      22   U32      -0.1126
    691 H5'       -14.3343    0.1425  117.1874 H        22   U32       0.0679
    692 H5''      -14.8503   -0.2512  115.5320 H        22   U32       0.0679
    693 H4'       -13.1629    1.5878  115.6663 H        22   U32       0.1174
    694 H3'       -12.2955   -0.9463  114.2277 H        22   U32       0.0615
    695 H2'       -10.3131    0.3103  113.6014 H        22   U32       0.0972
    696 H1'        -9.9153    1.2875  116.1351 H        22   U32       0.1824
    697 H3         -6.8563   -2.0566  115.4204 H        22   U32       0.3154
    698 H5        -10.2888   -3.9527  116.9142 H        22   U32       0.1811
    699 H6        -11.4541   -1.8736  116.6587 H        22   U32       0.2188
    700 HO2'      -10.5163    2.4347  113.4201 H        22   U32       0.4186
    701 P         -13.6290   -0.2260  112.0230 P.3      23   G33       1.1662
    702 OP1       -14.8780    0.3730  111.4980 O.co2    23   G33      -0.7760
    703 OP2       -13.6040   -1.6730  112.3390 O.co2    23   G33      -0.7760
    704 O5'       -12.4540    0.0370  110.9790 O.3      23   G33      -0.4989
    705 C5'       -12.1370    1.3560  110.5460 C.3      23   G33       0.0558
    706 C4'       -10.6640    1.4640  110.2230 C.3      23   G33       0.1065
    707 O4'        -9.9140    1.1770  111.4320 O.3      23   G33      -0.3548
    708 C3'       -10.0820    0.4730  109.2230 C.3      23   G33       0.2022
    709 O3'       -10.2690    0.8450  107.8610 O.3      23   G33      -0.5246
    710 C2'        -8.6120    0.5350  109.5830 C.3      23   G33       0.0670
    711 O2'        -8.0630    1.7690  109.1660 O.3      23   G33      -0.6139
    712 C1'        -8.6920    0.5370  111.1060 C.3      23   G33       0.0191
    713 N9         -8.6990   -0.7980  111.6990 N.ar     23   G33       0.0492
    714 C8         -9.7800   -1.4710  112.2080 C.ar     23   G33       0.1374
    715 N7         -9.4710   -2.6390  112.7040 N.ar     23   G33      -0.5709
    716 C5         -8.1030   -2.7490  112.5020 C.ar     23   G33       0.1744
    717 C6         -7.2000   -3.8010  112.8310 C.2      23   G33       0.4770
    718 O6         -7.4350   -4.8840  113.3870 O.2      23   G33      -0.5597
    719 N1         -5.9070   -3.4990  112.4430 N.am     23   G33      -0.4787
    720 C2         -5.5170   -2.3420  111.8190 C.2      23   G33       0.7657
    721 N2         -4.2000   -2.2380  111.5210 N.pl3    23   G33      -0.9672
    722 N3         -6.3450   -1.3550  111.5080 N.2      23   G33      -0.6323
    723 C4         -7.6120   -1.6250  111.8770 C.ar     23   G33       0.1222
    724 H5'       -12.7184    1.5908  109.6544 H        23   G33       0.0679
    725 H5''      -12.3860    2.0646  111.3359 H        23   G33       0.0679
    726 H4'       -10.4415    2.4791  109.8943 H        23   G33       0.1174
    727 H3'       -10.4769   -0.5269  109.4030 H        23   G33       0.0615
    728 H2'        -8.0542   -0.3186  109.1979 H        23   G33       0.0972
    729 H1'        -7.8602    1.1118  111.5133 H        23   G33       0.2006
    730 H8        -10.7849   -1.0753  112.1996 H        23   G33       0.1640
    731 H1         -5.1923   -4.1864  112.6349 H        23   G33       0.3424
    732 H21        -3.5677   -2.9891  111.7581 H        23   G33       0.4364
    733 H22        -3.8501   -1.4094  111.0616 H        23   G33       0.4364
    734 HO2'       -7.1857    1.8723  109.5419 H        23   G33       0.4186
    735 P         -10.3010   -0.3020  106.7330 P.3      24   A34       1.1662
    736 OP1       -10.6730    0.2770  105.4120 O.co2    24   A34      -0.7760
    737 OP2       -11.1110   -1.4130  107.2960 O.co2    24   A34      -0.7760
    738 O5'        -8.7860   -0.7900  106.6290 O.3      24   A34      -0.4989
    739 C5'        -7.7560    0.1050  106.2130 C.3      24   A34       0.0558
    740 C4'        -6.3950   -0.5160  106.4270 C.3      24   A34       0.1065
    741 O4'        -6.2160   -0.8370  107.8370 O.3      24   A34      -0.3548
    742 C3'        -6.1440   -1.8440  105.7300 C.3      24   A34       0.2022
    743 O3'        -5.7670   -1.6750  104.3740 O.3      24   A34      -0.5246
    744 C2'        -4.9860   -2.3900  106.5400 C.3      24   A34       0.0670
    745 O2'        -3.7710   -1.7470  106.2120 O.3      24   A34      -0.6139
    746 C1'        -5.4220   -2.0110  107.9550 C.3      24   A34       0.0394
    747 N9         -6.2440   -3.0770  108.5300 N.ar     24   A34      -0.0251
    748 C8         -7.6140   -3.1680  108.6080 C.ar     24   A34       0.2006
    749 N7         -8.0370   -4.2670  109.1820 N.ar     24   A34      -0.6073
    750 C5         -6.8700   -4.9440  109.5050 C.ar     24   A34       0.0515
    751 C6         -6.6340   -6.1750  110.1310 C.ar     24   A34       0.7009
    752 N6         -7.5990   -6.9770  110.5810 N.pl3    24   A34      -0.9019
    753 N1         -5.3510   -6.5630  110.2860 N.ar     24   A34      -0.7615
    754 C2         -4.3770   -5.7580  109.8490 C.ar     24   A34       0.5875
    755 N3         -4.4690   -4.5790  109.2500 N.ar     24   A34      -0.6997
    756 C4         -5.7590   -4.2240  109.1060 C.ar     24   A34       0.3053
    757 H5'        -7.8252    1.0253  106.7930 H        24   A34       0.0679
    758 H5''       -7.8845    0.3353  105.1554 H        24   A34       0.0679
    759 H4'        -5.6273    0.1959  106.1238 H        24   A34       0.1174
    760 H3'        -7.0146   -2.4948  105.8117 H        24   A34       0.0615
    761 H2'        -4.9024   -3.4711  106.4294 H        24   A34       0.0972
    762 H1'        -4.5519   -1.8205  108.5832 H        24   A34       0.2007
    763 H8         -8.2789   -2.4049  108.2313 H        24   A34       0.1553
    764 H2         -3.3717   -6.1200  110.0065 H        24   A34       0.0473
    765 HO2'       -3.0821   -2.4050  106.0933 H        24   A34       0.4186
    766 H61        -8.5673   -6.7090  110.4781 H        24   A34       0.4115
    767 H62        -7.3618   -7.8527  111.0249 H        24   A34       0.4115
    768 P          -6.2540   -2.7450  103.2790 P.3      25   A35       1.1662
    769 OP1        -6.1510   -2.0450  101.9750 O.co2    25   A35      -0.7760
    770 OP2        -7.5450   -3.3410  103.6970 O.co2    25   A35      -0.7760
    771 O5'        -5.1680   -3.9090  103.3640 O.3      25   A35      -0.4989
    772 C5'        -3.7830   -3.6170  103.2450 C.3      25   A35       0.0558
    773 C4'        -2.9570   -4.7300  103.8440 C.3      25   A35       0.1065
    774 O4'        -3.2160   -4.8300  105.2770 O.3      25   A35      -0.3548
    775 C3'        -3.2350   -6.1320  103.3330 C.3      25   A35       0.2022
    776 O3'        -2.6530   -6.3730  102.0490 O.3      25   A35      -0.5246
    777 C2'        -2.6430   -6.9750  104.4660 C.3      25   A35       0.0670
    778 O2'        -1.2270   -7.0460  104.4880 O.3      25   A35      -0.6139
    779 C1'        -3.1000   -6.1800  105.6920 C.3      25   A35       0.0394
    780 N9         -4.4040   -6.6300  106.1900 N.ar     25   A35      -0.0251
    781 C8         -5.6250   -6.0110  106.0780 C.ar     25   A35       0.2006
    782 N7         -6.6110   -6.6860  106.6210 N.ar     25   A35      -0.6073
    783 C5         -5.9990   -7.8220  107.1270 C.ar     25   A35       0.0515
    784 C6         -6.4990   -8.9280  107.8250 C.ar     25   A35       0.7009
    785 N6         -7.7810   -9.0760  108.1510 N.pl3    25   A35      -0.9019
    786 N1         -5.6260   -9.8930  108.1860 N.ar     25   A35      -0.7615
    787 C2         -4.3380   -9.7440  107.8630 C.ar     25   A35       0.5875
    788 N3         -3.7450   -8.7440  107.2140 N.ar     25   A35      -0.6997
    789 C4         -4.6430   -7.8020  106.8720 C.ar     25   A35       0.3053
    790 H5'        -3.5283   -3.5083  102.1908 H        25   A35       0.0679
    791 H5''       -3.5648   -2.6851  103.7666 H        25   A35       0.0679
    792 H4'        -1.9014   -4.5042  103.6929 H        25   A35       0.1174
    793 H3'        -4.3116   -6.2946  103.2817 H        25   A35       0.0615
    794 H2'        -3.0787   -7.9741  104.4707 H        25   A35       0.0972
    795 H1'        -2.3546   -6.2604  106.4832 H        25   A35       0.2007
    796 H8         -5.7610   -5.0578  105.5888 H        25   A35       0.1553
    797 H2         -3.6862  -10.5479  108.1718 H        25   A35       0.0473
    798 H61        -8.1192   -9.8701  108.6756 H        25   A35       0.4115
    799 H62        -8.4405   -8.3674  107.8629 H        25   A35       0.4115
    800 HO2'       -0.9191   -7.5417  103.7257 H        25   A35       0.4186
    801 P          -3.4530   -7.2680  100.9690 P.3      26   G36       1.1662
    802 OP1        -2.5810   -7.5330   99.7870 O.co2    26   G36      -0.7760
    803 OP2        -4.7940   -6.6650  100.7560 O.co2    26   G36      -0.7760
    804 O5'        -3.6260   -8.6750  101.7090 O.3      26   G36      -0.4989
    805 C5'        -2.5040   -9.5390  101.8820 C.3      26   G36       0.0558
    806 C4'        -2.8770  -10.7490  102.7020 C.3      26   G36       0.1065
    807 O4'        -3.3560  -10.3410  104.0070 O.3      26   G36      -0.3548
    808 C3'        -4.0000  -11.6360  102.1900 C.3      26   G36       0.2022
    809 O3'        -3.5600  -12.5350  101.1810 O.3      26   G36      -0.5246
    810 C2'        -4.3570  -12.4070  103.4470 C.3      26   G36       0.0670
    811 O2'        -3.4020  -13.3950  103.7380 O.3      26   G36      -0.6139
    812 C1'        -4.2850  -11.3050  104.4960 C.3      26   G36       0.0191
    813 N9         -5.5840  -10.6560  104.6330 N.ar     26   G36       0.0492
    814 C8         -5.9470   -9.4430  104.1050 C.ar     26   G36       0.1374
    815 N7         -7.1850   -9.1270  104.3550 N.ar     26   G36      -0.5709
    816 C5         -7.6680  -10.1910  105.0960 C.ar     26   G36       0.1744
    817 C6         -8.9370  -10.4020  105.6380 C.2      26   G36       0.4770
    818 O6         -9.9240   -9.6810  105.5530 O.2      26   G36      -0.5597
    819 N1         -9.0060  -11.5960  106.3390 N.am     26   G36      -0.4787
    820 C2         -7.9720  -12.4790  106.4900 C.2      26   G36       0.7657
    821 N2         -8.2310  -13.5730  107.2180 N.pl3    26   G36      -0.9672
    822 N3         -6.7690  -12.2990  105.9670 N.2      26   G36      -0.6323
    823 C4         -6.6890  -11.1390  105.2890 C.ar     26   G36       0.1222
    824 H5'        -2.1515   -9.8660  100.9038 H        26   G36       0.0679
    825 H5''       -1.7063   -8.9947  102.3875 H        26   G36       0.0679
    826 H4'        -1.9864  -11.3627  102.8372 H        26   G36       0.1174
    827 H3'        -4.8437  -11.0395  101.8430 H        26   G36       0.0615
    828 H2'        -5.3596  -12.8298  103.3828 H        26   G36       0.0972
    829 H1'        -3.9534  -11.7070  105.4534 H        26   G36       0.2006
    830 H8         -5.2747   -8.8145  103.5398 H        26   G36       0.1640
    831 H1         -9.8876  -11.8322  106.7716 H        26   G36       0.3424
    832 H21        -9.1488  -13.7082  107.6174 H        26   G36       0.4364
    833 H22        -7.5085  -14.2628  107.3676 H        26   G36       0.4364
    834 HO2'       -3.8466  -14.1903  104.0405 H        26   G36       0.4186
    835 P          -4.5970  -13.0450  100.0820 P.3      27   G37       1.1662
    836 OP1        -3.8840  -13.8480   99.0580 O.co2    27   G37      -0.7760
    837 OP2        -5.4190  -11.8880   99.6630 O.co2    27   G37      -0.7760
    838 O5'        -5.5460  -14.0150  100.9020 O.3      27   G37      -0.4989
    839 C5'        -5.0280  -15.1630  101.5430 C.3      27   G37       0.0558
    840 C4'        -6.1180  -15.8440  102.3320 C.3      27   G37       0.1065
    841 O4'        -6.5920  -14.9690  103.3940 O.3      27   G37      -0.3548
    842 C3'        -7.3760  -16.1900  101.5530 C.3      27   G37       0.2022
    843 O3'        -7.1680  -17.3980  100.8340 O.3      27   G37      -0.5246
    844 C2'        -8.3890  -16.3340  102.6810 C.3      27   G37       0.0670
    845 O2'        -8.2360  -17.5230  103.4220 O.3      27   G37      -0.6139
    846 C1'        -7.9770  -15.1810  103.5940 C.3      27   G37       0.0191
    847 N9         -8.6900  -13.9490  103.2780 N.ar     27   G37       0.0492
    848 C8         -8.2240  -12.8430  102.6040 C.ar     27   G37       0.1374
    849 N7         -9.1200  -11.9030  102.4870 N.ar     27   G37      -0.5709
    850 C5        -10.2410  -12.4210  103.1200 C.ar     27   G37       0.1744
    851 C6        -11.5330  -11.8610  103.3260 C.2      27   G37       0.4770
    852 O6        -11.9640  -10.7620  102.9770 O.2      27   G37      -0.5597
    853 N1        -12.3550  -12.7300  104.0280 N.am     27   G37      -0.4787
    854 C2        -11.9910  -13.9770  104.4750 C.2      27   G37       0.7657
    855 N2        -12.9200  -14.6660  105.1320 N.pl3    27   G37      -0.9672
    856 N3        -10.8010  -14.5060  104.2890 N.2      27   G37      -0.6323
    857 C4         -9.9830  -13.6820  103.6130 C.ar     27   G37       0.1222
    858 H5'        -4.2236  -14.8688  102.2171 H        27   G37       0.0679
    859 H5''       -4.6388  -15.8520  100.7934 H        27   G37       0.0679
    860 H4'        -5.7162  -16.7543  102.7770 H        27   G37       0.1174
    861 H3'        -7.6539  -15.3786  100.8804 H        27   G37       0.0615
    862 H2'        -9.4107  -16.2147  102.3203 H        27   G37       0.0972
    863 H1'        -8.1595  -15.4536  104.6335 H        27   G37       0.2006
    864 H8         -7.2206  -12.7622  102.2128 H        27   G37       0.1640
    865 H1        -13.2961  -12.4215  104.2264 H        27   G37       0.3424
    866 H21       -13.8359  -14.2663  105.2786 H        27   G37       0.4364
    867 H22       -12.7095  -15.5889  105.4842 H        27   G37       0.4364
    868 HO2'       -7.3026  -17.6849  103.5776 H        27   G37       0.4186
    869 P          -8.0960  -17.7540   99.5810 P.3      28   C38       1.1662
    870 OP1        -7.7840  -19.1440   99.1910 O.co2    28   C38      -0.7760
    871 OP2        -8.0460  -16.6810   98.5490 O.co2    28   C38      -0.7760
    872 O5'        -9.5540  -17.7660  100.2270 O.3      28   C38      -0.4989
    873 C5'       -10.0330  -18.9150  100.9190 C.3      28   C38       0.0558
    874 C4'       -11.5340  -18.9030  100.9590 C.3      28   C38       0.1065
    875 O4'       -11.9820  -17.8030  101.7910 O.3      28   C38      -0.3548
    876 C3'       -12.2220  -18.6490   99.6340 C.3      28   C38       0.2022
    877 O3'       -12.2970  -19.8280   98.8460 O.3      28   C38      -0.5246
    878 C2'       -13.5930  -18.1550  100.0860 C.3      28   C38       0.0670
    879 O2'       -14.4570  -19.1830  100.5080 O.3      28   C38      -0.6139
    880 C1'       -13.2210  -17.3110  101.3050 C.3      28   C38       0.0066
    881 N1        -13.0620  -15.8830  100.9830 N.am     28   C38      -0.0484
    882 C2        -14.2030  -15.1130  100.7500 C.2      28   C38       0.7538
    883 O2        -15.3150  -15.6470  100.8260 O.2      28   C38      -0.6252
    884 N3        -14.0690  -13.8100  100.4520 N.2      28   C38      -0.7584
    885 C4        -12.8590  -13.2650  100.3870 C.2      28   C38       0.8185
    886 N4        -12.7810  -11.9700  100.1040 N.pl3    28   C38      -0.9530
    887 C5        -11.6770  -14.0230  100.6140 C.2      28   C38      -0.5215
    888 C6        -11.8220  -15.3160  100.9090 C.2      28   C38       0.0053
    889 H5'        -9.6450  -18.9103  101.9376 H        28   C38       0.0679
    890 H5''       -9.6920  -19.8144  100.4062 H        28   C38       0.0679
    891 H4'       -11.8923  -19.8431  101.3784 H        28   C38       0.1174
    892 H3'       -11.7021  -17.8635   99.0856 H        28   C38       0.0615
    893 H2'       -14.0613  -17.5429   99.3152 H        28   C38       0.0972
    894 H1'       -13.9847  -17.4271  102.0740 H        28   C38       0.2029
    895 H5        -10.6991  -13.5690  100.5500 H        28   C38       0.1928
    896 H6        -10.9471  -15.9223  101.0917 H        28   C38       0.1958
    897 H41       -13.6236  -11.4361   99.9454 H        28   C38       0.4234
    898 H42       -11.8791  -11.5189  100.0474 H        28   C38       0.4234
    899 HO2'      -15.3051  -19.0889  100.0682 H        28   C38       0.4186
    900 P         -12.3820  -19.7050   97.2480 P.3      29   U39       1.1662
    901 OP1       -12.1220  -21.0520   96.6890 O.co2    29   U39      -0.7760
    902 OP2       -11.5450  -18.5480   96.8220 O.co2    29   U39      -0.7760
    903 O5'       -13.8860  -19.2570   96.9610 O.3      29   U39      -0.4989
    904 C5'       -14.9990  -20.0840   97.2720 C.3      29   U39       0.0558
    905 C4'       -16.2880  -19.3550   96.9540 C.3      29   U39       0.1065
    906 O4'       -16.5150  -18.2860   97.9180 O.3      29   U39      -0.3548
    907 C3'       -16.3420  -18.6480   95.6060 C.3      29   U39       0.2022
    908 O3'       -16.6820  -19.5530   94.5700 O.3      29   U39      -0.5246
    909 C2'       -17.4630  -17.6510   95.8500 C.3      29   U39       0.0670
    910 O2'       -18.7100  -18.3020   95.8760 O.3      29   U39      -0.6139
    911 C1'       -17.1520  -17.1930   97.2730 C.3      29   U39       0.0674
    912 N1        -16.2560  -16.0220   97.3020 N.am     29   U39       0.0418
    913 C2        -16.8440  -14.7790   97.3920 C.2      29   U39       0.4687
    914 O2        -18.0380  -14.6260   97.4490 O.2      29   U39      -0.5477
    915 N3        -15.9720  -13.7190   97.4050 N.am     29   U39      -0.3549
    916 C4        -14.5960  -13.7760   97.3300 C.2      29   U39       0.5952
    917 O4        -13.9500  -12.7330   97.3520 O.2      29   U39      -0.5761
    918 C5        -14.0580  -15.0960   97.2370 C.2      29   U39      -0.3635
    919 C6        -14.8830  -16.1480   97.2290 C.2      29   U39      -0.1126
    920 H5'       -14.9459  -20.9984   96.6811 H        29   U39       0.0679
    921 H5''      -14.9777  -20.3362   98.3322 H        29   U39       0.0679
    922 H4'       -17.1152  -20.0624   97.0129 H        29   U39       0.1174
    923 H3'       -15.4026  -18.1388   95.3909 H        29   U39       0.0615
    924 H2'       -17.4433  -16.8261   95.1378 H        29   U39       0.0972
    925 H1'       -18.0810  -16.9546   97.7909 H        29   U39       0.1824
    926 H3        -16.3819  -12.7988   97.4772 H        29   U39       0.3154
    927 H5        -12.9900  -15.2435   97.1735 H        29   U39       0.1811
    928 H6        -14.4574  -17.1384   97.1626 H        29   U39       0.2188
    929 HO2'      -18.9332  -18.6023   94.9919 H        29   U39       0.4186
    930 P         -16.1270  -19.3160   93.0770 P.3      30   G40       1.1662
    931 OP1       -16.6240  -20.4530   92.2490 O.co2    30   G40      -0.7760
    932 OP2       -14.6700  -19.0150   93.1020 O.co2    30   G40      -0.7760
    933 O5'       -16.8570  -17.9930   92.5800 O.3      30   G40      -0.4989
    934 C5'       -18.2680  -17.9460   92.3900 C.3      30   G40       0.0558
    935 C4'       -18.7050  -16.5190   92.2420 C.3      30   G40       0.1065
    936 O4'       -18.3200  -15.7880   93.4370 O.3      30   G40      -0.3548
    937 C3'       -18.0170  -15.7470   91.1320 C.3      30   G40       0.2022
    938 O3'       -18.6210  -16.0270   89.8620 O.3      30   G40      -0.5246
    939 C2'       -18.2380  -14.3100   91.5910 C.3      30   G40       0.0670
    940 O2'       -19.5330  -13.8450   91.3170 O.3      30   G40      -0.6139
    941 C1'       -18.0900  -14.4320   93.1090 C.3      30   G40       0.0191
    942 N9        -16.7450  -14.0570   93.5300 N.ar     30   G40       0.0492
    943 C8        -15.6430  -14.8700   93.5660 C.ar     30   G40       0.1374
    944 N7        -14.5430  -14.2290   93.8400 N.ar     30   G40      -0.5709
    945 C5        -14.9450  -12.9190   94.0260 C.ar     30   G40       0.1744
    946 C6        -14.1810  -11.7820   94.3020 C.2      30   G40       0.4770
    947 O6        -12.9640  -11.7010   94.4200 O.2      30   G40      -0.5597
    948 N1        -14.9680  -10.6440   94.4200 N.am     30   G40      -0.4787
    949 C2        -16.3340  -10.6130   94.2740 C.2      30   G40       0.7657
    950 N2        -16.9230   -9.4030   94.4430 N.pl3    30   G40      -0.9672
    951 N3        -17.0670  -11.6880   93.9890 N.2      30   G40      -0.6323
    952 C4        -16.3060  -12.7970   93.8780 C.ar     30   G40       0.1222
    953 H5'       -18.5321  -18.5019   91.4904 H        30   G40       0.0679
    954 H5''      -18.7658  -18.3911   93.2515 H        30   G40       0.0679
    955 H4'       -19.7861  -16.4734   92.1110 H        30   G40       0.1174
    956 H3'       -16.9526  -15.9804   91.1080 H        30   G40       0.0615
    957 H2'       -17.4835  -13.6429   91.1741 H        30   G40       0.0972
    958 H1'       -18.8252  -13.7993   93.6063 H        30   G40       0.2006
    959 H8        -15.6824  -15.9341   93.3855 H        30   G40       0.1640
    960 H1        -14.5010   -9.7732   94.6290 H        30   G40       0.3424
    961 H21       -16.3600   -8.5933   94.6607 H        30   G40       0.4364
    962 H22       -17.9247   -9.3117   94.3511 H        30   G40       0.4364
    963 HO2'      -19.5108  -12.8945   91.1842 H        30   G40       0.4186
    964 P         -17.7110  -16.1030   88.5240 P.3      31   A41       1.1662
    965 OP1       -18.5680  -16.5010   87.3800 O.co2    31   A41      -0.7760
    966 OP2       -16.4940  -16.8950   88.8050 O.co2    31   A41      -0.7760
    967 O5'       -17.2900  -14.5860   88.2720 O.3      31   A41      -0.4989
    968 C5'       -16.4480  -14.2290   87.1810 C.3      31   A41       0.0558
    969 C4'       -16.5350  -12.7400   86.8970 C.3      31   A41       0.1065
    970 O4'       -17.8460  -12.3940   86.3840 O.3      31   A41      -0.3548
    971 C3'       -16.3460  -11.7970   88.0710 C.3      31   A41       0.2022
    972 O3'       -14.9660  -11.6210   88.3330 O.3      31   A41      -0.5246
    973 C2'       -16.9820  -10.5120   87.5450 C.3      31   A41       0.0670
    974 O2'       -16.1390   -9.8210   86.6390 O.3      31   A41      -0.6139
    975 C1'       -18.1660  -11.0640   86.7520 C.3      31   A41       0.0394
    976 N9        -19.4440  -11.0930   87.4620 N.ar     31   A41      -0.0251
    977 C8        -20.1930  -12.2140   87.7110 C.ar     31   A41       0.2006
    978 N7        -21.3390  -11.9710   88.2970 N.ar     31   A41      -0.6073
    979 C5        -21.3450  -10.5940   88.4620 C.ar     31   A41       0.0515
    980 C6        -22.3010   -9.7130   89.0060 C.ar     31   A41       0.7009
    981 N6        -23.4720  -10.1200   89.4950 N.pl3    31   A41      -0.9019
    982 N1        -22.0030   -8.3880   89.0230 N.ar     31   A41      -0.7615
    983 C2        -20.8210   -7.9930   88.5240 C.ar     31   A41       0.5875
    984 N3        -19.8400   -8.7290   87.9800 N.ar     31   A41      -0.6997
    985 C4        -20.1700  -10.0370   87.9730 C.ar     31   A41       0.3053
    986 H5'       -15.4175  -14.4862   87.4261 H        31   A41       0.0679
    987 H5''      -16.7553  -14.7826   86.2938 H        31   A41       0.0679
    988 H4'       -15.7940  -12.4928   86.1368 H        31   A41       0.1174
    989 H3'       -16.8699  -12.1609   88.9549 H        31   A41       0.0615
    990 H2'       -17.3111   -9.8656   88.3586 H        31   A41       0.0972
    991 H1'       -18.2847  -10.4708   85.8453 H        31   A41       0.2007
    992 H8        -19.8670  -13.2093   87.4473 H        31   A41       0.1553
    993 H2        -20.6328   -6.9304   88.5666 H        31   A41       0.0473
    994 H61       -23.7084  -11.1019   89.4879 H        31   A41       0.4115
    995 H62       -24.1231   -9.4465   89.8727 H        31   A41       0.4115
    996 HO2'      -15.3847   -9.4629   87.1127 H        31   A41       0.4186
    997 P         -14.4370  -11.6550   89.8420 P.3      32   G42       1.1662
    998 OP1       -12.9550  -11.7800   89.7910 O.co2    32   G42      -0.7760
    999 OP2       -15.2420  -12.6900   90.5450 O.co2    32   G42      -0.7760
   1000 O5'       -14.8170  -10.2280   90.4520 O.3      32   G42      -0.4989
   1001 C5'       -14.3570   -9.0090   89.8640 C.3      32   G42       0.0558
   1002 C4'       -15.1810   -7.8440   90.3810 C.3      32   G42       0.1065
   1003 O4'       -16.5490   -8.0010   89.9370 O.3      32   G42      -0.3548
   1004 C3'       -15.2760   -7.7420   91.8950 C.3      32   G42       0.2022
   1005 O3'       -14.2200   -6.9430   92.3980 O.3      32   G42      -0.5246
   1006 C2'       -16.6160   -7.0600   92.1140 C.3      32   G42       0.0670
   1007 O2'       -16.5390   -5.6530   91.9810 O.3      32   G42      -0.6139
   1008 C1'       -17.4440   -7.6190   90.9630 C.3      32   G42       0.0191
   1009 N9        -18.3110   -8.7600   91.2530 N.ar     32   G42       0.0492
   1010 C8        -17.9890  -10.0810   91.0960 C.ar     32   G42       0.1374
   1011 N7        -18.9940  -10.8810   91.3190 N.ar     32   G42      -0.5709
   1012 C5        -20.0370  -10.0420   91.6690 C.ar     32   G42       0.1744
   1013 C6        -21.3770  -10.3440   92.0070 C.2      32   G42       0.4770
   1014 O6        -21.9300  -11.4430   92.0570 O.2      32   G42      -0.5597
   1015 N1        -22.1010   -9.1990   92.3000 N.am     32   G42      -0.4787
   1016 C2        -21.6040   -7.9280   92.2690 C.2      32   G42       0.7657
   1017 N2        -22.4720   -6.9610   92.5820 N.pl3    32   G42      -0.9672
   1018 N3        -20.3530   -7.6310   91.9530 N.2      32   G42      -0.6323
   1019 C4        -19.6310   -8.7310   91.6630 C.ar     32   G42       0.1222
   1020 H5'       -13.3098   -8.8547   90.1243 H        32   G42       0.0679
   1021 H5''      -14.4557   -9.0698   88.7802 H        32   G42       0.0679
   1022 H4'       -14.7779   -6.9131   89.9822 H        32   G42       0.1174
   1023 H3'       -15.2652   -8.7316   92.3519 H        32   G42       0.0615
   1024 H2'       -17.0447   -7.3393   93.0764 H        32   G42       0.0972
   1025 H1'       -18.0692   -6.8131   90.5785 H        32   G42       0.2006
   1026 H8        -17.0042  -10.4251   90.8163 H        32   G42       0.1640
   1027 H1        -23.0712   -9.3139   92.5562 H        32   G42       0.3424
   1028 H21       -23.4248   -7.1957   92.8211 H        32   G42       0.4364
   1029 H22       -22.1751   -5.9956   92.5794 H        32   G42       0.4364
   1030 HO2'      -16.0189   -5.2909   92.7021 H        32   G42       0.4186
   1031 P         -13.7990   -7.0630   93.9360 P.3      33   A43       1.1662
   1032 OP1       -12.8620   -5.9500   94.2310 O.co2    33   A43      -0.7760
   1033 OP2       -13.3760   -8.4610   94.2070 O.co2    33   A43      -0.7760
   1034 O5'       -15.1710   -6.8130   94.7090 O.3      33   A43      -0.4989
   1035 C5'       -15.5370   -5.5410   95.2150 C.3      33   A43       0.0558
   1036 C4'       -15.9600   -5.6810   96.6580 C.3      33   A43       0.1065
   1037 O4'       -16.8050   -6.8260   96.7980 O.3      33   A43      -0.3548
   1038 C3'       -14.8300   -5.8400   97.6690 C.3      33   A43       0.2022
   1039 O3'       -14.8300   -4.5760   98.3430 O.3      33   A43      -0.5246
   1040 C2'       -15.3050   -6.9110   98.6630 C.3      33   A43       0.0670
   1041 O2'       -15.4900   -6.4070   99.9640 O.3      33   A43      -0.6139
   1042 C1'       -16.6570   -7.3350   98.0900 C.3      33   A43       0.0394
   1043 N9        -17.0700   -8.7360   98.1020 N.ar     33   A43      -0.0251
   1044 C8        -16.4000   -9.9070   97.8680 C.ar     33   A43       0.2006
   1045 N7        -17.1530  -10.9760   97.9690 N.ar     33   A43      -0.6073
   1046 C5        -18.3990  -10.4680   98.2940 C.ar     33   A43       0.0515
   1047 C6        -19.6350  -11.0700   98.5260 C.ar     33   A43       0.7009
   1048 N6        -19.8450  -12.3750   98.4750 N.pl3    33   A43      -0.9019
   1049 N1        -20.6750  -10.2640   98.8150 N.ar     33   A43      -0.7615
   1050 C2        -20.4800   -8.9460   98.8660 C.ar     33   A43       0.5875
   1051 N3        -19.3750   -8.2620   98.6660 N.ar     33   A43      -0.6997
   1052 C4        -18.3580   -9.0920   98.3800 C.ar     33   A43       0.3053
   1053 H5'       -14.6851   -4.8642   95.1494 H        33   A43       0.0679
   1054 H5''      -16.3653   -5.1412   94.6301 H        33   A43       0.0679
   1055 H4'       -16.5374   -4.7974   96.9300 H        33   A43       0.1174
   1056 H3'       -13.8722   -6.0791   97.2069 H        33   A43       0.0615
   1057 H2'       -14.6141   -7.7540   98.6749 H        33   A43       0.0972
   1058 H1'       -17.4003   -6.8116   98.6914 H        33   A43       0.2007
   1059 H8        -15.3489   -9.9466   97.6230 H        33   A43       0.1553
   1060 H2        -21.3530   -8.3570   99.1054 H        33   A43       0.0473
   1061 HO2'      -15.8325   -7.1017  100.5311 H        33   A43       0.4186
   1062 H61       -20.5038  -13.1316   98.5916 H        33   A43       0.4115
   1063 H62       -19.1497  -12.8942   97.9582 H        33   A43       0.4115
   1064 P         -13.4740   -3.9010   98.8440 P.3      34   A44       1.1662
   1065 OP1       -12.3130   -4.6590   98.2890 O.co2    34   A44      -0.7760
   1066 OP2       -13.5840   -3.6890  100.3100 O.co2    34   A44      -0.7760
   1067 O5'       -13.5410   -2.4690   98.1510 O.3      34   A44      -0.4989
   1068 C5'       -13.4890   -2.3440   96.7310 C.3      34   A44       0.0558
   1069 C4'       -14.2510   -1.1210   96.2850 C.3      34   A44       0.1065
   1070 O4'       -15.6100   -1.2380   96.7310 O.3      34   A44      -0.3548
   1071 C3'       -13.8010    0.2280   96.8390 C.3      34   A44       0.2022
   1072 O3'       -12.8780    0.8080   95.9140 O.3      34   A44      -0.5246
   1073 C2'       -15.0760    1.0840   96.7870 C.3      34   A44       0.0670
   1074 O2'       -15.1530    1.8860   95.6230 O.3      34   A44      -0.6139
   1075 C1'       -16.1860    0.0360   96.6900 C.3      34   A44       0.0394
   1076 N9        -17.3030    0.1010   97.6170 N.ar     34   A44      -0.0251
   1077 C8        -17.6500   -0.7780   98.6060 C.ar     34   A44       0.2006
   1078 N7        -18.7800   -0.4830   99.2020 N.ar     34   A44      -0.6073
   1079 C5        -19.1910    0.6830   98.5730 C.ar     34   A44       0.0515
   1080 C6        -20.3180    1.4960   98.7390 C.ar     34   A44       0.7009
   1081 N6        -21.2810    1.2530   99.6260 N.pl3    34   A44      -0.9019
   1082 N1        -20.4240    2.5850   97.9510 N.ar     34   A44      -0.7615
   1083 C2        -19.4510    2.8320   97.0600 C.ar     34   A44       0.5875
   1084 N3        -18.3460    2.1430   96.8110 N.ar     34   A44      -0.6997
   1085 C4        -18.2770    1.0640   97.6090 C.ar     34   A44       0.3053
   1086 H5'       -13.9323   -3.2296   96.2757 H        34   A44       0.0679
   1087 H5''      -12.4497   -2.2571   96.4142 H        34   A44       0.0679
   1088 H4'       -14.2399   -1.0764   95.1960 H        34   A44       0.1174
   1089 H3'       -13.3905    0.1504   97.8458 H        34   A44       0.0615
   1090 H2'       -15.1820    1.6874   97.6885 H        34   A44       0.0972
   1091 H1'       -16.6144    0.1416   95.6933 H        34   A44       0.2007
   1092 H8        -17.0491   -1.6353   98.8713 H        34   A44       0.1553
   1093 H2        -19.5879    3.7194   96.4598 H        34   A44       0.0473
   1094 HO2'      -16.0395    2.2449   95.5392 H        34   A44       0.4186
   1095 H61       -21.2218    0.4431  100.2266 H        34   A44       0.4115
   1096 H62       -22.0706    1.8786   99.6982 H        34   A44       0.4115
   1097 P         -11.2960    0.7770   96.2000 P.3      35   A45       1.1662
   1098 OP1       -10.9920   -0.3970   97.0560 O.co2    35   A45      -0.7760
   1099 OP2       -10.8740    2.1310   96.6530 O.co2    35   A45      -0.7760
   1100 O5'       -10.6830    0.4940   94.7490 O.3      35   A45      -0.4989
   1101 C5'       -10.9080    1.3950   93.6620 C.3      35   A45       0.0558
   1102 C4'       -11.0160    0.6330   92.3570 C.3      35   A45       0.1065
   1103 O4'       -12.0830   -0.3490   92.4800 O.3      35   A45      -0.3548
   1104 C3'       -11.3910    1.4630   91.1310 C.3      35   A45       0.2022
   1105 O3'       -10.2420    2.0270   90.4790 O.3      35   A45      -0.5246
   1106 C2'       -12.0760    0.4170   90.2550 C.3      35   A45       0.0670
   1107 O2'       -11.1650   -0.4600   89.6230 O.3      35   A45      -0.6139
   1108 C1'       -12.8650   -0.3720   91.2970 C.3      35   A45       0.0394
   1109 N9        -14.1620    0.2300   91.6080 N.ar     35   A45      -0.0251
   1110 C8        -14.6050    1.4940   91.3080 C.ar     35   A45       0.2006
   1111 N7        -15.7990    1.7600   91.7720 N.ar     35   A45      -0.6073
   1112 C5        -16.1780    0.5890   92.4120 C.ar     35   A45       0.0515
   1113 C6        -17.3500    0.2190   93.1120 C.ar     35   A45       0.7009
   1114 N6        -18.3950    1.0220   93.3000 N.pl3    35   A45      -0.9019
   1115 N1        -17.4060   -1.0310   93.6160 N.ar     35   A45      -0.7615
   1116 C2        -16.3630   -1.8470   93.4270 C.ar     35   A45       0.5875
   1117 N3        -15.2140   -1.6180   92.7910 N.ar     35   A45      -0.6997
   1118 C4        -15.1840   -0.3670   92.3030 C.ar     35   A45       0.3053
   1119 H5'       -11.8344    1.9425   93.8356 H        35   A45       0.0679
   1120 H5''      -10.0788    2.0998   93.6004 H        35   A45       0.0679
   1121 H4'       -10.0753    0.1168   92.1653 H        35   A45       0.1174
   1122 H3'       -12.0953    2.2484   91.4053 H        35   A45       0.0615
   1123 H2'       -12.7406    0.8852   89.5289 H        35   A45       0.0972
   1124 H1'       -13.0022   -1.3998   90.9609 H        35   A45       0.2007
   1125 H8        -14.0214    2.2040   90.7408 H        35   A45       0.1553
   1126 H2        -16.4669   -2.8347   93.8513 H        35   A45       0.0473
   1127 H61       -19.2632    0.6185   93.6219 H        35   A45       0.4115
   1128 H62       -18.3212    2.0139   93.1245 H        35   A45       0.4115
   1129 HO2'      -10.6606    0.0224   88.9639 H        35   A45       0.4186
   1130 P         -10.1200    3.6330   90.2720 P.3      36   U46       1.1662
   1131 OP1        -8.6610    3.9110   90.1780 O.co2    36   U46      -0.7760
   1132 OP2       -10.9300    4.3360   91.3020 O.co2    36   U46      -0.7760
   1133 O5'       -10.7700    3.9290   88.8400 O.3      36   U46      -0.4989
   1134 C5'       -11.6570    2.9990   88.2270 C.3      36   U46       0.0558
   1135 C4'       -12.9320    3.6830   87.7840 C.3      36   U46       0.1065
   1136 O4'       -13.5290    4.3820   88.9100 O.3      36   U46      -0.3548
   1137 C3'       -12.8100    4.7420   86.7000 C.3      36   U46       0.2022
   1138 O3'       -12.7340    4.1510   85.3960 O.3      36   U46      -0.5246
   1139 C2'       -14.0310    5.6300   86.9370 C.3      36   U46       0.0670
   1140 O2'       -15.2280    5.1940   86.3260 O.3      36   U46      -0.6139
   1141 C1'       -14.1630    5.5710   88.4620 C.3      36   U46       0.0674
   1142 H5'       -11.1678    2.5583   87.3583 H        36   U46       0.0679
   1143 H5''      -11.9008    2.2115   88.9400 H        36   U46       0.0679
   1144 H4'       -13.6314    2.9198   87.4426 H        36   U46       0.1174
   1145 H3'       -11.9073    5.3269   86.8766 H        36   U46       0.0615
   1146 H2'       -13.8096    6.6509   86.6259 H        36   U46       0.0972
   1147 H1'       -15.2163    5.5568   88.7420 H        36   U46       0.1824
   1148 H1''      -13.6755    6.4382   88.9074 H        36   U46       0.0000
   1149 HO2'      -15.3014    4.2404   86.4093 H        36   U46       0.4186
   1150 P         -13.8250    3.0500   84.9290 P.3      37   A47       1.1662
   1151 OP1       -14.2430    3.3680   83.5410 O.co2    37   A47      -0.7760
   1152 OP2       -14.8640    2.8760   85.9750 O.co2    37   A47      -0.7760
   1153 O5'       -12.9620    1.7120   84.8690 O.3      37   A47      -0.4989
   1154 C5'       -13.5510    0.4960   84.4530 C.3      37   A47       0.0558
   1155 C4'       -13.0900   -0.6370   85.3320 C.3      37   A47       0.1065
   1156 O4'       -13.0310   -0.2090   86.7220 O.3      37   A47      -0.3548
   1157 C3'       -14.0420   -1.8200   85.3140 C.3      37   A47       0.2022
   1158 O3'       -13.7600   -2.6630   84.2080 O.3      37   A47      -0.5246
   1159 C2'       -13.8050   -2.4440   86.6870 C.3      37   A47       0.0670
   1160 O2'       -12.6340   -3.2290   86.7720 O.3      37   A47      -0.6139
   1161 C1'       -13.6320   -1.1910   87.5520 C.3      37   A47       0.0394
   1162 N9        -14.8970   -0.6310   88.0330 N.ar     37   A47      -0.0251
   1163 C8        -15.3600    0.6390   87.7860 C.ar     37   A47       0.2006
   1164 N7        -16.5160    0.9010   88.3450 N.ar     37   A47      -0.6073
   1165 C5        -16.8410   -0.2730   89.0040 C.ar     37   A47       0.0515
   1166 C6        -17.9400   -0.6270   89.7850 C.ar     37   A47       0.7009
   1167 N6        -18.9540    0.1970   90.0480 N.pl3    37   A47      -0.9019
   1168 N1        -17.9680   -1.8740   90.2970 N.ar     37   A47      -0.7615
   1169 C2        -16.9460   -2.6980   90.0330 C.ar     37   A47       0.5875
   1170 N3        -15.8500   -2.4780   89.3120 N.ar     37   A47      -0.6997
   1171 C4        -15.8570   -1.2300   88.8180 C.ar     37   A47       0.3053
   1172 H5'       -14.6357    0.5819   84.5170 H        37   A47       0.0679
   1173 H5''      -13.2655    0.2913   83.4212 H        37   A47       0.0679
   1174 H4'       -12.1007   -0.9639   85.0118 H        37   A47       0.1174
   1175 H3'       -15.0692   -1.4615   85.2478 H        37   A47       0.0615
   1176 H2'       -14.6764   -3.0156   87.0063 H        37   A47       0.0972
   1177 H1'       -12.9796   -1.4114   88.3969 H        37   A47       0.2007
   1178 H8        -14.8201    1.3563   87.1856 H        37   A47       0.1553
   1179 H2        -17.0226   -3.6834   90.4683 H        37   A47       0.0473
   1180 H61       -19.7622    0.1053   90.6468 H        37   A47       0.4115
   1181 H62       -18.9051    1.0780   89.5566 H        37   A47       0.4115
   1182 HO2'      -12.7359   -4.0161   86.2319 H        37   A47       0.4186
   1183 P         -14.8730   -2.8740   83.0620 P.3      38   C48       1.1662
   1184 OP1       -14.2490   -3.4970   81.8650 O.co2    38   C48      -0.7760
   1185 OP2       -15.6790   -1.6430   82.9080 O.co2    38   C48      -0.7760
   1186 O5'       -15.7970   -3.9990   83.6890 O.3      38   C48      -0.4989
   1187 C5'       -15.2130   -5.1720   84.2310 C.3      38   C48       0.0558
   1188 C4'       -16.1310   -5.7690   85.2490 C.3      38   C48       0.1065
   1189 O4'       -16.2500   -4.8680   86.3770 O.3      38   C48      -0.3548
   1190 C3'       -17.5660   -5.9600   84.7890 C.3      38   C48       0.2022
   1191 O3'       -17.6610   -7.1680   84.0440 O.3      38   C48      -0.5246
   1192 C2'       -18.2780   -6.0650   86.1280 C.3      38   C48       0.0670
   1193 O2'       -18.0300   -7.3040   86.7460 O.3      38   C48      -0.6139
   1194 C1'       -17.5440   -4.9970   86.9400 C.3      38   C48       0.0066
   1195 N1        -18.2150   -3.6930   86.8800 N.am     38   C48      -0.0484
   1196 C2        -19.2820   -3.4590   87.7290 C.2      38   C48       0.7538
   1197 O2        -19.6270   -4.3510   88.5050 O.2      38   C48      -0.6252
   1198 N3        -19.9170   -2.2750   87.6850 N.2      38   C48      -0.7584
   1199 C4        -19.5200   -1.3410   86.8250 C.2      38   C48       0.8185
   1200 N4        -20.1870   -0.1840   86.8070 N.pl3    38   C48      -0.9530
   1201 C5        -18.4270   -1.5510   85.9440 C.2      38   C48      -0.5215
   1202 C6        -17.8070   -2.7300   86.0040 C.2      38   C48       0.0053
   1203 H5'       -14.2640   -4.9188   84.7036 H        38   C48       0.0679
   1204 H5''      -15.0393   -5.8930   83.4322 H        38   C48       0.0679
   1205 H4'       -15.7275   -6.7235   85.5871 H        38   C48       0.1174
   1206 H3'       -17.9195   -5.1049   84.2129 H        38   C48       0.0615
   1207 H2'       -19.3442   -5.8551   86.0432 H        38   C48       0.0972
   1208 H1'       -17.4613   -5.3188   87.9781 H        38   C48       0.2029
   1209 H5        -18.1097   -0.7852   85.2517 H        38   C48       0.1928
   1210 H6        -16.9701   -2.9253   85.3499 H        38   C48       0.1958
   1211 H41       -20.9649   -0.0397   87.4348 H        38   C48       0.4234
   1212 H42       -19.9135    0.5467   86.1656 H        38   C48       0.4234
   1213 HO2'      -18.8043   -7.5738   87.2452 H        38   C48       0.4186
   1214 P         -18.5350   -7.2290   82.6910 P.3      39   C49       1.1662
   1215 OP1       -18.1700   -8.5220   82.0580 O.co2    39   C49      -0.7760
   1216 OP2       -18.4390   -5.9690   81.9050 O.co2    39   C49      -0.7760
   1217 O5'       -20.0300   -7.3550   83.2140 O.3      39   C49      -0.4989
   1218 C5'       -20.4280   -8.4670   84.0030 C.3      39   C49       0.0558
   1219 C4'       -21.6620   -8.1250   84.7920 C.3      39   C49       0.1065
   1220 O4'       -21.3590   -7.0430   85.7120 O.3      39   C49      -0.3548
   1221 C3'       -22.8360   -7.5720   84.0030 C.3      39   C49       0.2022
   1222 O3'       -23.5540   -8.6180   83.3650 O.3      39   C49      -0.5246
   1223 C2'       -23.6440   -6.9250   85.1190 C.3      39   C49       0.0670
   1224 O2'       -24.3180   -7.8660   85.9170 O.3      39   C49      -0.6139
   1225 C1'       -22.5360   -6.2960   85.9620 C.3      39   C49       0.0066
   1226 N1        -22.3050   -4.9020   85.5710 N.am     39   C49      -0.0484
   1227 C2        -23.2090   -3.9340   86.0120 C.2      39   C49       0.7538
   1228 O2        -24.1310   -4.2730   86.7650 O.2      39   C49      -0.6252
   1229 N3        -23.0600   -2.6600   85.6140 N.2      39   C49      -0.7584
   1230 C4        -22.0490   -2.3260   84.8210 C.2      39   C49       0.8185
   1231 N4        -21.9500   -1.0510   84.4600 N.pl3    39   C49      -0.9530
   1232 C5        -21.0940   -3.2860   84.3700 C.2      39   C49      -0.5215
   1233 C6        -21.2560   -4.5530   84.7730 C.2      39   C49       0.0053
   1234 H5'       -20.6404   -9.3142   83.3508 H        39   C49       0.0679
   1235 H5''      -19.6224   -8.7311   84.6881 H        39   C49       0.0679
   1236 H4'       -21.9850   -9.0000   85.3561 H        39   C49       0.1174
   1237 H3'       -22.5042   -6.8278   83.2790 H        39   C49       0.0615
   1238 H2'       -24.3270   -6.1696   84.7304 H        39   C49       0.0972
   1239 H1'       -22.7950   -6.3495   87.0194 H        39   C49       0.2029
   1240 H5        -20.2727   -3.0019   83.7288 H        39   C49       0.1928
   1241 H6        -20.5477   -5.3068   84.4623 H        39   C49       0.1958
   1242 H41       -22.6301   -0.3794   84.7865 H        39   C49       0.4234
   1243 H42       -21.1947   -0.7535   83.8591 H        39   C49       0.4234
   1244 HO2'      -25.0596   -7.4421   86.3551 H        39   C49       0.4186
   1245 P         -24.1830   -8.3920   81.9030 P.3      40   C50       1.1662
   1246 OP1       -24.6240   -9.7310   81.4500 O.co2    40   C50      -0.7760
   1247 OP2       -23.2800   -7.5890   81.0500 O.co2    40   C50      -0.7760
   1248 O5'       -25.4930   -7.5270   82.1640 O.3      40   C50      -0.4989
   1249 C5'       -26.5950   -8.0990   82.8380 C.3      40   C50       0.0558
   1250 C4'       -27.5100   -7.0270   83.3500 C.3      40   C50       0.1065
   1251 O4'       -26.7670   -6.0590   84.1500 O.3      40   C50      -0.3548
   1252 C3'       -28.1920   -6.1560   82.3170 C.3      40   C50       0.2022
   1253 O3'       -29.3150   -6.8270   81.7780 O.3      40   C50      -0.5246
   1254 C2'       -28.6470   -5.0030   83.1940 C.3      40   C50       0.0670
   1255 O2'       -29.7390   -5.4200   83.9950 O.3      40   C50      -0.6139
   1256 C1'       -27.4080   -4.7970   84.0740 C.3      40   C50       0.0066
   1257 N1        -26.4730   -3.8360   83.4720 N.am     40   C50      -0.0484
   1258 C2        -26.8400   -2.4850   83.4180 C.2      40   C50       0.7538
   1259 O2        -27.9250   -2.1460   83.8760 O.2      40   C50      -0.6252
   1260 N3        -26.0080   -1.5910   82.8610 N.2      40   C50      -0.7584
   1261 C4        -24.8390   -1.9940   82.3570 C.2      40   C50       0.8185
   1262 N4        -24.0380   -1.0630   81.8120 N.pl3    40   C50      -0.9530
   1263 C5        -24.4350   -3.3660   82.3920 C.2      40   C50      -0.5215
   1264 C6        -25.2750   -4.2450   82.9580 C.2      40   C50       0.0053
   1265 H5'       -27.1440   -8.7401   82.1483 H        40   C50       0.0679
   1266 H5''      -26.2348   -8.6960   83.6759 H        40   C50       0.0679
   1267 H4'       -28.2726   -7.4880   83.9777 H        40   C50       0.1174
   1268 H3'       -27.5012   -5.8288   81.5399 H        40   C50       0.0615
   1269 H2'       -28.8851   -4.1144   82.6094 H        40   C50       0.0972
   1270 H1'       -27.7032   -4.4634   85.0688 H        40   C50       0.2029
   1271 H5        -23.4889   -3.6821   81.9781 H        40   C50       0.1928
   1272 H6        -25.0012   -5.2885   83.0081 H        40   C50       0.1958
   1273 H41       -24.3285   -0.0959   81.7920 H        40   C50       0.4234
   1274 H42       -23.1454   -1.3303   81.4223 H        40   C50       0.4234
   1275 HO2'      -29.9747   -4.7181   84.6060 H        40   C50       0.4186
   1276 P         -29.9610   -6.3070   80.4080 P.3      41   G51       1.1662
   1277 OP1       -31.0270   -7.2720   79.9960 O.co2    41   G51      -0.7760
   1278 OP2       -28.8540   -5.9820   79.4800 O.co2    41   G51      -0.7760
   1279 O5'       -30.6770   -4.9420   80.8040 O.3      41   G51      -0.4989
   1280 C5'       -31.8230   -4.9320   81.6510 C.3      41   G51       0.0558
   1281 C4'       -32.4930   -3.5910   81.5740 C.3      41   G51       0.1065
   1282 O4'       -31.6160   -2.5710   82.1060 O.3      41   G51      -0.3548
   1283 C3'       -32.7590   -3.1550   80.1510 C.3      41   G51       0.2022
   1284 O3'       -34.0340   -3.6210   79.7850 O.3      41   G51      -0.5246
   1285 C2'       -32.7700   -1.6410   80.2490 C.3      41   G51       0.0670
   1286 O2'       -34.0170   -1.1740   80.7140 O.3      41   G51      -0.6139
   1287 C1'       -31.7140   -1.3970   81.3220 C.3      41   G51       0.0191
   1288 N9        -30.3840   -1.0540   80.8320 N.ar     41   G51       0.0492
   1289 C8        -29.3200   -1.9040   80.6520 C.ar     41   G51       0.1374
   1290 N7        -28.2360   -1.2890   80.2670 N.ar     41   G51      -0.5709
   1291 C5        -28.6130    0.0430   80.1660 C.ar     41   G51       0.1744
   1292 C6        -27.8600    1.1900   79.7890 C.2      41   G51       0.4770
   1293 O6        -26.6650    1.2600   79.4520 O.2      41   G51      -0.5597
   1294 N1        -28.6360    2.3430   79.8250 N.am     41   G51      -0.4787
   1295 C2        -29.9590    2.3900   80.1690 C.2      41   G51       0.7657
   1296 N2        -30.5250    3.5890   80.1300 N.pl3    41   G51      -0.9672
   1297 N3        -30.6720    1.3340   80.5210 N.2      41   G51      -0.6323
   1298 C4        -29.9390    0.2010   80.5000 C.ar     41   G51       0.1222
   1299 H5'       -32.5201   -5.7050   81.3274 H        41   G51       0.0679
   1300 H5''      -31.5166   -5.1264   82.6788 H        41   G51       0.0679
   1301 H4'       -33.4260   -3.6092   82.1373 H        41   G51       0.1174
   1302 H3'       -31.9872   -3.5104   79.4682 H        41   G51       0.0615
   1303 H2'       -32.4950   -1.1757   79.3024 H        41   G51       0.0972
   1304 H1'       -32.0605   -0.5867   81.9634 H        41   G51       0.2006
   1305 H8        -29.3752   -2.9706   80.8126 H        41   G51       0.1640
   1306 H1        -28.1879    3.2138   79.5779 H        41   G51       0.3424
   1307 H21       -29.9808    4.3958   79.8596 H        41   G51       0.4364
   1308 H22       -31.5001    3.6952   80.3707 H        41   G51       0.4364
   1309 HO2'      -34.6362   -1.1305   79.9817 H        41   G51       0.4186
   1310 P         -34.4010   -3.7550   78.2450 P.3      42   U52       1.1662
   1311 OP1       -33.3890   -4.6800   77.6570 O.co2    42   U52      -0.7760
   1312 OP2       -34.5280   -2.3690   77.7270 O.co2    42   U52      -0.7760
   1313 O5'       -35.8180   -4.4780   78.2870 O.3      42   U52      -0.4989
   1314 C5'       -35.9160   -5.8300   78.7220 C.3      42   U52       0.0558
   1315 C4'       -37.3280   -6.1590   79.1370 C.3      42   U52       0.1065
   1316 O4'       -37.6670   -5.4270   80.3400 O.3      42   U52      -0.3548
   1317 C3'       -38.3270   -5.7180   78.0780 C.3      42   U52       0.2022
   1318 O3'       -39.2010   -6.7630   77.6510 O.3      42   U52      -0.5246
   1319 C2'       -38.8930   -4.3760   78.5540 C.3      42   U52       0.0670
   1320 O2'       -40.2880   -4.2750   78.3570 O.3      42   U52      -0.6139
   1321 C1'       -38.6560   -4.4630   80.0610 C.3      42   U52       0.0674
   1322 N1        -38.4090   -3.2580   80.8660 N.am     42   U52       0.0418
   1323 C2        -39.5170   -2.5840   81.3410 C.2      42   U52       0.4687
   1324 O2        -40.6610   -2.9110   81.0580 O.2      42   U52      -0.5477
   1325 N3        -39.2410   -1.5200   82.1650 N.am     42   U52      -0.3549
   1326 C4        -37.9960   -1.0620   82.5430 C.2      42   U52       0.5952
   1327 O4        -37.9130   -0.1000   83.3070 O.2      42   U52      -0.5761
   1328 C5        -36.8990   -1.7900   81.9860 C.2      42   U52      -0.3635
   1329 C6        -37.1380   -2.8350   81.1790 C.2      42   U52      -0.1126
   1330 H5'       -35.2498   -5.9810   79.5714 H        42   U52       0.0679
   1331 H5''      -35.6171   -6.4916   77.9090 H        42   U52       0.0679
   1332 H4'       -37.4232   -7.2302   79.3145 H        42   U52       0.1174
   1333 H3'       -37.7242   -5.4770   77.2024 H        42   U52       0.0615
   1334 H2'       -38.3613   -3.5342   78.1103 H        42   U52       0.0972
   1335 H1'       -39.5771   -4.8838   80.4643 H        42   U52       0.1824
   1336 H3        -40.0362   -1.0185   82.5342 H        42   U52       0.3154
   1337 H5        -35.8837   -1.5005   82.2134 H        42   U52       0.1811
   1338 H6        -36.2974   -3.3662   80.7576 H        42   U52       0.2188
   1339 HO2'      -40.7226   -4.1455   79.2031 H        42   U52       0.4186
   1340 P         -38.5890   -8.2190   77.3140 P.3      43   A53       1.1662
   1341 OP1       -37.1980   -7.9620   76.8540 O.co2    43   A53      -0.7760
   1342 OP2       -39.5190   -8.9820   76.4380 O.co2    43   A53      -0.7760
   1343 O5'       -38.5080   -8.9510   78.7340 O.3      43   A53      -0.4989
   1344 C5'       -37.5390   -9.9730   78.9690 C.3      43   A53       0.0558
   1345 C4'       -37.2080  -10.0910   80.4520 C.3      43   A53       0.1065
   1346 O4'       -36.6870   -8.8560   80.9850 O.3      43   A53      -0.3548
   1347 C3'       -38.3280  -10.4610   81.4090 C.3      43   A53       0.2022
   1348 O3'       -38.3990  -11.8890   81.4100 O.3      43   A53      -0.5246
   1349 C2'       -37.8190   -9.9640   82.7740 C.3      43   A53       0.0670
   1350 O2'       -37.1640  -10.9560   83.5350 O.3      43   A53      -0.6139
   1351 C1'       -36.7780   -8.9120   82.3880 C.3      43   A53       0.0394
   1352 N9        -36.8950   -7.5610   82.9350 N.ar     43   A53      -0.0251
   1353 C8        -35.8390   -6.7190   83.1670 C.ar     43   A53       0.2006
   1354 N7        -36.1790   -5.5690   83.6810 N.ar     43   A53      -0.6073
   1355 C5        -37.5570   -5.6510   83.7930 C.ar     43   A53       0.0515
   1356 C6        -38.5130   -4.7450   84.2730 C.ar     43   A53       0.7009
   1357 N6        -38.2050   -3.5330   84.7400 N.pl3    43   A53      -0.9019
   1358 N1        -39.8080   -5.1320   84.2580 N.ar     43   A53      -0.7615
   1359 C2        -40.1050   -6.3510   83.7860 C.ar     43   A53       0.5875
   1360 N3        -39.2920   -7.2910   83.3030 N.ar     43   A53      -0.6997
   1361 C4        -38.0150   -6.8740   83.3350 C.ar     43   A53       0.3053
   1362 H5'       -36.6286   -9.7321   78.4201 H        43   A53       0.0679
   1363 H5''      -37.9302  -10.9259   78.6127 H        43   A53       0.0679
   1364 H4'       -36.4282  -10.8458   80.5539 H        43   A53       0.1174
   1365 H3'       -39.2764  -10.0015   81.1307 H        43   A53       0.0615
   1366 H2'       -38.6294   -9.5122   83.3460 H        43   A53       0.0972
   1367 H1'       -35.8191   -9.2956   82.7365 H        43   A53       0.2007
   1368 H8        -34.8160   -6.9839   82.9441 H        43   A53       0.1553
   1369 H2        -41.1537   -6.6088   83.7988 H        43   A53       0.0473
   1370 H61       -37.2421   -3.2287   84.7588 H        43   A53       0.4115
   1371 H62       -38.9349   -2.9202   85.0746 H        43   A53       0.4115
   1372 HO2'      -37.6659  -11.1292   84.3348 H        43   A53       0.4186
   1373 P         -39.8090  -12.6350   81.6070 P.3      44   U54       1.1662
   1374 OP1       -40.1210  -13.2680   80.2990 O.co2    44   U54      -0.7760
   1375 OP2       -40.7860  -11.6950   82.2250 O.co2    44   U54      -0.7760
   1376 O5'       -39.4700  -13.7920   82.6520 O.3      44   U54      -0.4989
   1377 C5'       -39.0080  -13.4940   83.9750 C.3      44   U54       0.0558
   1378 C4'       -38.4340  -14.7400   84.6140 C.3      44   U54       0.1065
   1379 O4'       -39.4030  -15.7960   84.4260 O.3      44   U54      -0.3548
   1380 C3'       -37.1370  -15.2610   83.9990 C.3      44   U54       0.2022
   1381 O3'       -36.0190  -14.8010   84.7670 O.3      44   U54      -0.5246
   1382 C2'       -37.2300  -16.7730   84.2040 C.3      44   U54       0.0670
   1383 O2'       -36.6930  -17.1880   85.4480 O.3      44   U54      -0.6139
   1384 C1'       -38.7410  -17.0200   84.1980 C.3      44   U54       0.0674
   1385 N1        -39.2930  -17.6300   82.9810 N.am     44   U54       0.0418
   1386 C2        -39.3100  -19.0080   82.9200 C.2      44   U54       0.4687
   1387 O2        -38.8750  -19.7110   83.8170 O.2      44   U54      -0.5477
   1388 N3        -39.8550  -19.5330   81.7740 N.am     44   U54      -0.3549
   1389 C4        -40.3710  -18.8320   80.7010 C.2      44   U54       0.5952
   1390 O4        -40.8240  -19.4510   79.7340 O.2      44   U54      -0.5761
   1391 C5        -40.3120  -17.4050   80.8370 C.2      44   U54      -0.3635
   1392 C6        -39.7850  -16.8670   81.9450 C.2      44   U54      -0.1126
   1393 H5'       -38.2361  -12.7262   83.9235 H        44   U54       0.0679
   1394 H5''      -39.8413  -13.1299   84.5760 H        44   U54       0.0679
   1395 H4'       -38.2870  -14.5671   85.6801 H        44   U54       0.1174
   1396 H3'       -37.0475  -14.9952   82.9457 H        44   U54       0.0615
   1397 H2'       -36.7500  -17.3032   83.3814 H        44   U54       0.0972
   1398 H1'       -38.9714  -17.6813   85.0333 H        44   U54       0.1824
   1399 H3        -39.8815  -20.5405   81.7084 H        44   U54       0.3154
   1400 H5        -40.6902  -16.7683   80.0509 H        44   U54       0.1811
   1401 H6        -39.7442  -15.7911   82.0294 H        44   U54       0.2188
   1402 HO2'      -35.7454  -17.0345   85.4552 H        44   U54       0.4186
   1403 P         -35.2550  -13.4450   84.3670 P.3      45   C55       1.1662
   1404 OP1       -35.8430  -12.3430   85.1780 O.co2    45   C55      -0.7760
   1405 OP2       -35.2300  -13.3360   82.8800 O.co2    45   C55      -0.7760
   1406 O5'       -33.7590  -13.6800   84.8750 O.3      45   C55      -0.4989
   1407 C5'       -32.7810  -14.2760   84.0190 C.3      45   C55       0.0558
   1408 C4'       -31.4490  -14.3860   84.7300 C.3      45   C55       0.1065
   1409 O4'       -30.5280  -15.1470   83.9000 O.3      45   C55      -0.3548
   1410 C3'       -30.7250  -13.0720   84.9880 C.3      45   C55       0.2022
   1411 O3'       -31.1820  -12.4520   86.1840 O.3      45   C55      -0.5246
   1412 C2'       -29.2680  -13.5150   85.0950 C.3      45   C55       0.0670
   1413 O2'       -28.9160  -14.0180   86.3730 O.3      45   C55      -0.6139
   1414 C1'       -29.2130  -14.6360   84.0520 C.3      45   C55       0.0066
   1415 H5'       -33.1166  -15.2721   83.7305 H        45   C55       0.0679
   1416 H5''      -32.6628  -13.6629   83.1255 H        45   C55       0.0679
   1417 H4'       -31.5912  -14.9074   85.6766 H        45   C55       0.1174
   1418 H3'       -30.8531  -12.3980   84.1410 H        45   C55       0.0615
   1419 H2'       -28.6020  -12.7001   84.8115 H        45   C55       0.0972
   1420 H1'       -28.8558  -14.2411   83.1009 H        45   C55       0.2029
   1421 H1''      -28.5472  -15.4275   84.3960 H        45   C55       0.0000
   1422 HO2'      -28.9537  -13.3082   87.0183 H        45   C55       0.4186
   1423 P         -31.2620  -10.8500   86.2630 P.3      46   A56       1.1662
   1424 OP1       -32.5290  -10.5120   86.9480 O.co2    46   A56      -0.7760
   1425 OP2       -31.0010  -10.3340   84.9020 O.co2    46   A56      -0.7760
   1426 O5'       -30.0560  -10.4280   87.2170 O.3      46   A56      -0.4989
   1427 C5'       -28.7030  -10.5290   86.7800 C.3      46   A56       0.0558
   1428 C4'       -27.9270   -9.2940   87.1790 C.3      46   A56       0.1065
   1429 O4'       -28.4960   -8.1330   86.5230 O.3      46   A56      -0.3548
   1430 C3'       -27.9520   -8.9280   88.6530 C.3      46   A56       0.2022
   1431 O3'       -26.9870   -9.6870   89.3760 O.3      46   A56      -0.5246
   1432 C2'       -27.6100   -7.4410   88.6060 C.3      46   A56       0.0670
   1433 O2'       -26.2400   -7.1680   88.3500 O.3      46   A56      -0.6139
   1434 C1'       -28.3820   -7.0020   87.3680 C.3      46   A56       0.0394
   1435 N9        -29.7220   -6.4760   87.6330 N.ar     46   A56      -0.0251
   1436 C8        -30.9150   -7.1550   87.6080 C.ar     46   A56       0.2006
   1437 N7        -31.9580   -6.4000   87.8420 N.ar     46   A56      -0.6073
   1438 C5        -31.4160   -5.1390   88.0410 C.ar     46   A56       0.0515
   1439 C6        -31.9990   -3.8950   88.3190 C.ar     46   A56       0.7009
   1440 N6        -33.3070   -3.7130   88.4430 N.pl3    46   A56      -0.9019
   1441 N1        -31.1790   -2.8310   88.4640 N.ar     46   A56      -0.7615
   1442 C2        -29.8660   -3.0180   88.3290 C.ar     46   A56       0.5875
   1443 N3        -29.2000   -4.1320   88.0600 N.ar     46   A56      -0.6997
   1444 C4        -30.0410   -5.1730   87.9290 C.ar     46   A56       0.3053
   1445 H5'       -28.2427  -11.4053   87.2364 H        46   A56       0.0679
   1446 H5''      -28.6812  -10.6338   85.6953 H        46   A56       0.0679
   1447 H4'       -26.8910   -9.4085   86.8602 H        46   A56       0.1174
   1448 H3'       -28.9482   -9.0792   89.0686 H        46   A56       0.0615
   1449 H2'       -27.9599   -6.9228   89.4988 H        46   A56       0.0972
   1450 H1'       -27.8037   -6.2370   86.8499 H        46   A56       0.2007
   1451 H8        -30.9862   -8.2149   87.4131 H        46   A56       0.1553
   1452 H2        -29.2575   -2.1350   88.4572 H        46   A56       0.0473
   1453 H61       -33.8899   -2.9155   88.6535 H        46   A56       0.4115
   1454 H62       -33.8376   -4.5594   88.2939 H        46   A56       0.4115
   1455 HO2'      -25.7010   -7.5630   89.0392 H        46   A56       0.4186
   1456 P         -27.3360  -10.2250   90.8460 P.3      47   C57       1.1662
   1457 OP1       -26.0660  -10.4440   91.5850 O.co2    47   C57      -0.7760
   1458 OP2       -28.3320  -11.3200   90.7630 O.co2    47   C57      -0.7760
   1459 O5'       -28.0470   -8.9810   91.5310 O.3      47   C57      -0.4989
   1460 C5'       -27.2940   -7.9700   92.1780 C.3      47   C57       0.0558
   1461 C4'       -28.2060   -6.8500   92.5880 C.3      47   C57       0.1065
   1462 O4'       -29.0030   -6.4860   91.4250 O.3      47   C57      -0.3548
   1463 C3'       -29.2460   -7.1720   93.6480 C.3      47   C57       0.2022
   1464 O3'       -28.7160   -7.0630   94.9670 O.3      47   C57      -0.5246
   1465 C2'       -30.2920   -6.1050   93.3680 C.3      47   C57       0.0670
   1466 O2'       -29.9020   -4.8110   93.7990 O.3      47   C57      -0.6139
   1467 C1'       -30.3020   -6.1040   91.8400 C.3      47   C57       0.0066
   1468 N1        -31.2720   -7.0570   91.2860 N.am     47   C57      -0.0484
   1469 C2        -32.5960   -6.6460   91.1360 C.2      47   C57       0.7538
   1470 O2        -32.9040   -5.5020   91.4690 O.2      47   C57      -0.6252
   1471 N3        -33.5000   -7.4980   90.6340 N.2      47   C57      -0.7584
   1472 C4        -33.1300   -8.7260   90.2760 C.2      47   C57       0.8185
   1473 N4        -34.0720   -9.5380   89.7710 N.pl3    47   C57      -0.9530
   1474 C5        -31.7810   -9.1780   90.4190 C.2      47   C57      -0.5215
   1475 C6        -30.8970   -8.3210   90.9260 C.2      47   C57       0.0053
   1476 H5'       -26.5355   -7.5887   91.4943 H        47   C57       0.0679
   1477 H5''      -26.8103   -8.3865   93.0615 H        47   C57       0.0679
   1478 H4'       -27.6123   -5.9933   92.9068 H        47   C57       0.1174
   1479 H3'       -29.6620   -8.1662   93.4849 H        47   C57       0.0615
   1480 H2'       -31.2647   -6.3840   93.7731 H        47   C57       0.0972
   1481 H1'       -30.5236   -5.1011   91.4752 H        47   C57       0.2029
   1482 H5        -31.4902  -10.1763   90.1270 H        47   C57       0.1928
   1483 H6        -29.8698   -8.6289   91.0545 H        47   C57       0.1958
   1484 H41       -35.0223   -9.2100   89.6739 H        47   C57       0.4234
   1485 H42       -33.8305  -10.4770   89.4881 H        47   C57       0.4234
   1486 HO2'      -29.4836   -4.3437   93.0722 H        47   C57       0.4186
   1487 P         -29.4110   -7.8800   96.1670 P.3      48   C58       1.1662
   1488 OP1       -28.6230   -7.8180   97.4150 O.co2    48   C58      -0.7760
   1489 OP2       -29.8140   -9.2000   95.6280 O.co2    48   C58      -0.7760
   1490 O5'       -30.7360   -7.0500   96.4510 O.3      48   C58      -0.4989
   1491 C5'       -30.6660   -5.6940   96.8870 C.3      48   C58       0.0558
   1492 C4'       -32.0560   -5.1030   96.9730 C.3      48   C58       0.1065
   1493 O4'       -32.6870   -5.1690   95.6590 O.3      48   C58      -0.3548
   1494 C3'       -33.0430   -5.8230   97.8790 C.3      48   C58       0.2022
   1495 O3'       -32.8550   -5.4470   99.2390 O.3      48   C58      -0.5246
   1496 C2'       -34.3700   -5.3330   97.3140 C.3      48   C58       0.0670
   1497 O2'       -34.6660   -4.0030   97.6990 O.3      48   C58      -0.6139
   1498 C1'       -34.0790   -5.3640   95.8090 C.3      48   C58       0.0066
   1499 N1        -34.4220   -6.6440   95.1630 N.am     48   C58      -0.0484
   1500 C2        -35.7660   -6.9320   94.9090 C.2      48   C58       0.7538
   1501 O2        -36.6260   -6.1340   95.2770 O.2      48   C58      -0.6252
   1502 N3        -36.0890   -8.0700   94.2660 N.2      48   C58      -0.7584
   1503 C4        -35.1380   -8.9120   93.8760 C.2      48   C58       0.8185
   1504 N4        -35.5190   -9.9950   93.2030 N.pl3    48   C58      -0.9530
   1505 C5        -33.7570   -8.6690   94.1460 C.2      48   C58      -0.5215
   1506 C6        -33.4460   -7.5340   94.7920 C.2      48   C58       0.0053
   1507 H5'       -30.0726   -5.1175   96.1774 H        48   C58       0.0679
   1508 H5''      -30.1947   -5.6539   97.8690 H        48   C58       0.0679
   1509 H4'       -31.9824   -4.0603   97.2820 H        48   C58       0.1174
   1510 H3'       -32.9523   -6.9031   97.7635 H        48   C58       0.0615
   1511 H2'       -35.1840   -6.0100   97.5732 H        48   C58       0.0972
   1512 H1'       -34.6156   -4.5525   95.3174 H        48   C58       0.2029
   1513 H5        -32.9935   -9.3701   93.8427 H        48   C58       0.1928
   1514 H6        -32.4132   -7.3185   95.0228 H        48   C58       0.1958
   1515 H41       -36.4983  -10.1530   93.0131 H        48   C58       0.4234
   1516 H42       -34.8288  -10.6590   92.8822 H        48   C58       0.4234
   1517 HO2'      -35.4343   -3.6929   97.2141 H        48   C58       0.4186
   1518 P         -33.5610   -6.2870  100.4140 P.3      49   U59       1.1662
   1519 OP1       -33.3370   -5.5510  101.6830 O.co2    49   U59      -0.7760
   1520 OP2       -33.1670   -7.7060  100.3370 O.co2    49   U59      -0.7760
   1521 O5'       -35.0980   -6.2090  100.0210 O.3      49   U59      -0.4989
   1522 C5'       -35.9590   -5.2250  100.5690 C.3      49   U59       0.0558
   1523 C4'       -37.3650   -5.7520  100.5680 C.3      49   U59       0.1065
   1524 O4'       -37.6580   -6.1880   99.2200 O.3      49   U59      -0.3548
   1525 C3'       -37.5820   -6.9970  101.4200 C.3      49   U59       0.2022
   1526 O3'       -37.9450   -6.6090  102.7410 O.3      49   U59      -0.5246
   1527 C2'       -38.7550   -7.6720  100.7220 C.3      49   U59       0.0670
   1528 O2'       -39.9980   -7.0940  101.0690 O.3      49   U59      -0.6139
   1529 C1'       -38.4740   -7.3450   99.2580 C.3      49   U59       0.0674
   1530 N1        -37.8250   -8.3920   98.4630 N.am     49   U59       0.0418
   1531 C2        -38.6400   -9.2060   97.7130 C.2      49   U59       0.4687
   1532 O2        -39.8390   -9.1470   97.7770 O.2      49   U59      -0.5477
   1533 N3        -37.9920  -10.0900   96.8860 N.am     49   U59      -0.3549
   1534 C4        -36.6200  -10.2430   96.7590 C.2      49   U59       0.5952
   1535 O4        -36.1780  -11.0250   95.9280 O.2      49   U59      -0.5761
   1536 C5        -35.8350   -9.3950   97.6170 C.2      49   U59      -0.3635
   1537 C6        -36.4530   -8.5230   98.4250 C.2      49   U59      -0.1126
   1538 H5'       -35.6536   -5.0003  101.5909 H        49   U59       0.0679
   1539 H5''      -35.9085   -4.3188   99.9654 H        49   U59       0.0679
   1540 H4'       -38.0596   -4.9672  100.8674 H        49   U59       0.1174
   1541 H3'       -36.6992   -7.6363  101.4219 H        49   U59       0.0615
   1542 H2'       -38.7549   -8.7481  100.8958 H        49   U59       0.0972
   1543 H1'       -39.4232   -7.1016   98.7807 H        49   U59       0.1824
   1544 H3        -38.5718  -10.6874   96.3141 H        49   U59       0.3154
   1545 H5        -34.7570   -9.4610   97.6096 H        49   U59       0.1811
   1546 H6        -35.8536   -7.8989   99.0712 H        49   U59       0.2188
   1547 HO2'      -40.5221   -7.7315  101.5594 H        49   U59       0.4186
   1548 P         -37.5450   -7.5320  103.9910 P.3      50   G60       1.1662
   1549 OP1       -38.0590   -6.8560  105.1990 O.co2    50   G60      -0.7760
   1550 OP2       -36.1070   -7.8580  103.9000 O.co2    50   G60      -0.7760
   1551 O5'       -38.4120   -8.8460  103.7730 O.3      50   G60      -0.4989
   1552 C5'       -39.8270   -8.7600  103.6700 C.3      50   G60       0.0558
   1553 C4'       -40.3950  -10.0680  103.1880 C.3      50   G60       0.1065
   1554 O4'       -40.0350  -10.2980  101.8080 O.3      50   G60      -0.3548
   1555 C3'       -39.8890  -11.2780  103.9420 C.3      50   G60       0.2022
   1556 O3'       -40.7240  -11.4340  105.0760 O.3      50   G60      -0.5246
   1557 C2'       -40.0580  -12.4000  102.9230 C.3      50   G60       0.0670
   1558 O2'       -41.3710  -12.9240  102.8860 O.3      50   G60      -0.6139
   1559 C1'       -39.7790  -11.6720  101.6040 C.3      50   G60       0.0191
   1560 N9        -38.4260  -11.7810  101.0710 N.ar     50   G60       0.0492
   1561 C8        -37.3100  -11.1110  101.5130 C.ar     50   G60       0.1374
   1562 N7        -36.2600  -11.3210  100.7650 N.ar     50   G60      -0.5709
   1563 C5        -36.7040  -12.2040   99.7910 C.ar     50   G60       0.1744
   1564 C6        -36.0180  -12.7830   98.7160 C.2      50   G60       0.4770
   1565 O6        -34.8510  -12.6360   98.3880 O.2      50   G60      -0.5597
   1566 N1        -36.8290  -13.6180   97.9790 N.am     50   G60      -0.4787
   1567 C2        -38.1360  -13.8810   98.2410 C.2      50   G60       0.7657
   1568 N2        -38.7350  -14.7350   97.3970 N.pl3    50   G60      -0.9672
   1569 N3        -38.8040  -13.3470   99.2540 N.2      50   G60      -0.6323
   1570 C4        -38.0280  -12.5190   99.9800 C.ar     50   G60       0.1222
   1571 H5'       -40.2452   -8.5252  104.6488 H        50   G60       0.0679
   1572 H5''      -40.0904   -7.9707  102.9660 H        50   G60       0.0679
   1573 H4'       -41.4815  -10.0316  103.2678 H        50   G60       0.1174
   1574 H3'       -38.8449  -11.1579  104.2310 H        50   G60       0.0615
   1575 H2'       -39.3281  -13.1917  103.0919 H        50   G60       0.0972
   1576 H1'       -40.4755  -12.0435  100.8524 H        50   G60       0.2006
   1577 H8        -37.3022  -10.4772  102.3874 H        50   G60       0.1640
   1578 H1        -36.4174  -14.0728   97.1766 H        50   G60       0.3424
   1579 H21       -38.2145  -15.1348   96.6293 H        50   G60       0.4364
   1580 H22       -39.7063  -14.9780   97.5294 H        50   G60       0.4364
   1581 HO2'      -41.5563  -13.3827  103.7087 H        50   G60       0.4186
   1582 P         -40.1750  -12.1740  106.3840 P.3      51   A61       1.1662
   1583 OP1       -40.1890  -13.6310  106.0780 O.co2    51   A61      -0.7760
   1584 OP2       -40.9270  -11.6690  107.5610 O.co2    51   A61      -0.7760
   1585 O5'       -38.6770  -11.6550  106.5420 O.3      51   A61      -0.4989
   1586 C5'       -38.0550  -11.6680  107.8230 C.3      51   A61       0.0558
   1587 C4'       -36.5590  -11.5420  107.6980 C.3      51   A61       0.1065
   1588 O4'       -36.0310  -12.7080  107.0050 O.3      51   A61      -0.3548
   1589 C3'       -36.1330  -10.3530  106.8580 C.3      51   A61       0.2022
   1590 O3'       -35.5230   -9.2270  107.5040 O.3      51   A61      -0.5246
   1591 C2'       -35.8250  -10.8730  105.4560 C.3      51   A61       0.0670
   1592 O2'       -34.6740  -10.2990  104.8750 O.3      51   A61      -0.6139
   1593 C1'       -35.5570  -12.3560  105.7200 C.3      51   A61       0.0394
   1594 N9        -36.1410  -13.2710  104.7430 N.ar     51   A61      -0.0251
   1595 C8        -37.3200  -13.9630  104.8220 C.ar     51   A61       0.2006
   1596 N7        -37.5900  -14.6710  103.7510 N.ar     51   A61      -0.6073
   1597 C5        -36.5130  -14.4330  102.9150 C.ar     51   A61       0.0515
   1598 C6        -36.1960  -14.8950  101.6300 C.ar     51   A61       0.7009
   1599 N6        -36.9750  -15.7250  100.9200 N.pl3    51   A61      -0.9019
   1600 N1        -35.0290  -14.4770  101.0870 N.ar     51   A61      -0.7615
   1601 C2        -34.2510  -13.6610  101.8000 C.ar     51   A61       0.5875
   1602 N3        -34.4400  -13.1620  103.0150 N.ar     51   A61      -0.6997
   1603 C4        -35.6040  -13.5880  103.5210 C.ar     51   A61       0.3053
   1604 H5'       -38.2929  -12.6058  108.3251 H        51   A61       0.0679
   1605 H5''      -38.4368  -10.8367  108.4157 H        51   A61       0.0679
   1606 H4'       -36.1122  -11.4703  108.6896 H        51   A61       0.1174
   1607 H3'       -37.1160   -9.9233  106.6651 H        51   A61       0.0615
   1608 H2'       -36.6881  -10.7490  104.8020 H        51   A61       0.0972
   1609 H1'       -34.4773  -12.5054  105.7115 H        51   A61       0.2007
   1610 H8        -37.9675  -13.9291  105.6857 H        51   A61       0.1553
   1611 H2        -33.3321  -13.3626  101.3174 H        51   A61       0.0473
   1612 HO2'      -34.0546  -10.0535  105.5662 H        51   A61       0.4186
   1613 H61       -36.3553  -16.0194  100.1788 H        51   A61       0.4115
   1614 H62       -37.9361  -15.9883  101.0847 H        51   A61       0.4115
   1615 P         -34.0250   -9.3420  108.0750 P.3      52   U62       1.1662
   1616 OP1       -33.7860   -8.1660  108.9450 O.co2    52   U62      -0.7760
   1617 OP2       -33.1090   -9.6020  106.9350 O.co2    52   U62      -0.7760
   1618 O5'       -34.0830  -10.6460  108.9980 O.3      52   U62      -0.4989
   1619 C5'       -32.9740  -11.5440  109.0830 C.3      52   U62       0.0558
   1620 C4'       -32.8070  -12.0170  110.5040 C.3      52   U62       0.1065
   1621 O4'       -32.6370  -10.8430  111.3200 O.3      52   U62      -0.3548
   1622 C3'       -34.0140  -12.7470  111.0870 C.3      52   U62       0.2022
   1623 O3'       -33.8240  -14.1680  111.1200 O.3      52   U62      -0.5246
   1624 C2'       -33.9840  -12.3770  112.5710 C.3      52   U62       0.0670
   1625 O2'       -33.3050  -13.3550  113.3330 O.3      52   U62      -0.6139
   1626 C1'       -33.1640  -11.0900  112.5980 C.3      52   U62       0.0674
   1627 N1        -33.8010   -9.8710  113.1100 N.am     52   U62       0.0418
   1628 C2        -33.8870   -9.7280  114.4880 C.2      52   U62       0.4687
   1629 O2        -33.5300  -10.5960  115.2690 O.2      52   U62      -0.5477
   1630 N3        -34.4010   -8.5310  114.9160 N.am     52   U62      -0.3549
   1631 C4        -34.8400   -7.4920  114.1280 C.2      52   U62       0.5952
   1632 O4        -35.2650   -6.4690  114.6630 O.2      52   U62      -0.5761
   1633 C5        -34.7500   -7.7310  112.7140 C.2      52   U62      -0.3635
   1634 C6        -34.2530   -8.8880  112.2670 C.2      52   U62      -0.1126
   1635 H5'       -33.1530  -12.4020  108.4350 H        52   U62       0.0679
   1636 H5''      -32.0671  -11.0311  108.7629 H        52   U62       0.0679
   1637 H4'       -31.9224  -12.6493  110.5799 H        52   U62       0.1174
   1638 H3'       -34.9485  -12.4615  110.6039 H        52   U62       0.0615
   1639 H2'       -34.9905  -12.2095  112.9544 H        52   U62       0.0972
   1640 H1'       -32.3109  -11.2849  113.2478 H        52   U62       0.1824
   1641 H3        -34.4640   -8.3979  115.9152 H        52   U62       0.3154
   1642 H5        -35.0829   -6.9781  112.0149 H        52   U62       0.1811
   1643 H6        -34.2054   -9.0555  111.2011 H        52   U62       0.2188
   1644 HO2'      -32.9936  -12.9636  114.1524 H        52   U62       0.4186
   1645 P         -33.4640  -15.0000  109.7920 P.3      53   C63       1.1662
   1646 OP1       -33.0670  -16.3430  110.2840 O.co2    53   C63      -0.7760
   1647 OP2       -32.5300  -14.2440  108.9240 O.co2    53   C63      -0.7760
   1648 O5'       -34.8580  -15.1710  109.0460 O.3      53   C63      -0.4989
   1649 C5'       -36.0320  -15.5240  109.7650 C.3      53   C63       0.0558
   1650 C4'       -36.8800  -16.4510  108.9340 C.3      53   C63       0.1065
   1651 O4'       -36.9420  -15.9080  107.5860 O.3      53   C63      -0.3548
   1652 C3'       -36.3260  -17.8530  108.7220 C.3      53   C63       0.2022
   1653 O3'       -36.6660  -18.7180  109.8030 O.3      53   C63      -0.5246
   1654 C2'       -37.0390  -18.2770  107.4470 C.3      53   C63       0.0670
   1655 O2'       -38.3630  -18.6920  107.6950 O.3      53   C63      -0.6139
   1656 C1'       -37.0480  -16.9700  106.6530 C.3      53   C63       0.0066
   1657 N1        -35.9290  -16.8790  105.7050 N.am     53   C63      -0.0484
   1658 C2        -36.0200  -17.5770  104.4980 C.2      53   C63       0.7538
   1659 O2        -37.0310  -18.2500  104.2740 O.2      53   C63      -0.6252
   1660 N3        -35.0070  -17.5040  103.6090 N.2      53   C63      -0.7584
   1661 C4        -33.9300  -16.7710  103.8860 C.2      53   C63       0.8185
   1662 N4        -32.9600  -16.7180  102.9700 N.pl3    53   C63      -0.9530
   1663 C5        -33.8040  -16.0540  105.1150 C.2      53   C63      -0.5215
   1664 C6        -34.8210  -16.1350  105.9880 C.2      53   C63       0.0053
   1665 H5'       -35.7517  -16.0238  110.6922 H        53   C63       0.0679
   1666 H5''      -36.6000  -14.6229  109.9964 H        53   C63       0.0679
   1667 H4'       -37.8837  -16.5102  109.3548 H        53   C63       0.1174
   1668 H3'       -35.2467  -17.8251  108.5721 H        53   C63       0.0615
   1669 H2'       -36.4776  -19.0503  106.9226 H        53   C63       0.0972
   1670 H1'       -37.9895  -16.8826  106.1108 H        53   C63       0.2029
   1671 H5        -32.9233  -15.4684  105.3339 H        53   C63       0.1928
   1672 H6        -34.7611  -15.6042  106.9266 H        53   C63       0.1958
   1673 H41       -33.0566  -17.2257  102.1022 H        53   C63       0.4234
   1674 H42       -32.1297  -16.1702  103.1449 H        53   C63       0.4234
   1675 HO2'      -38.3536  -19.5124  108.1934 H        53   C63       0.4186
   1676 P         -35.7030  -19.9600  110.1780 P.3      54   U64       1.1662
   1677 OP1       -36.1760  -20.5030  111.4770 O.co2    54   U64      -0.7760
   1678 OP2       -34.2850  -19.5530  110.0370 O.co2    54   U64      -0.7760
   1679 O5'       -36.0010  -21.0460  109.0500 O.3      54   U64      -0.4989
   1680 C5'       -37.1620  -21.8650  109.1120 C.3      54   U64       0.0558
   1681 C4'       -37.1170  -22.9190  108.0310 C.3      54   U64       0.1065
   1682 O4'       -37.1180  -22.2680  106.7330 O.3      54   U64      -0.3548
   1683 C3'       -35.8620  -23.7700  108.0040 C.3      54   U64       0.2022
   1684 O3'       -35.9320  -24.8550  108.9150 O.3      54   U64      -0.5246
   1685 C2'       -35.8350  -24.2520  106.5600 C.3      54   U64       0.0670
   1686 O2'       -36.7330  -25.3230  106.3370 O.3      54   U64      -0.6139
   1687 C1'       -36.3150  -23.0020  105.8200 C.3      54   U64       0.0674
   1688 N1        -35.2230  -22.1280  105.3590 N.am     54   U64       0.0418
   1689 C2        -34.6840  -22.3690  104.1070 C.2      54   U64       0.4687
   1690 O2        -35.0860  -23.2530  103.3730 O.2      54   U64      -0.5477
   1691 N3        -33.6590  -21.5280  103.7470 N.am     54   U64      -0.3549
   1692 C4        -33.1350  -20.4950  104.4930 C.2      54   U64       0.5952
   1693 O4        -32.1990  -19.8460  104.0460 O.2      54   U64      -0.5761
   1694 C5        -33.7510  -20.3020  105.7650 C.2      54   U64      -0.3635
   1695 C6        -34.7470  -21.1050  106.1460 C.2      54   U64      -0.1126
   1696 H5'       -37.2076  -22.3511  110.0866 H        54   U64       0.0679
   1697 H5''      -38.0485  -21.2456  108.9756 H        54   U64       0.0679
   1698 H4'       -37.9918  -23.5638  108.1151 H        54   U64       0.1174
   1699 H3'       -34.9855  -23.1569  108.2138 H        54   U64       0.0615
   1700 H2'       -34.8232  -24.5210  106.2568 H        54   U64       0.0972
   1701 H1'       -36.9224  -23.3004  104.9656 H        54   U64       0.1824
   1702 H3        -33.2456  -21.6836  102.8387 H        54   U64       0.3154
   1703 H5        -33.4132  -19.5099  106.4168 H        54   U64       0.1811
   1704 H6        -35.1986  -20.9446  107.1139 H        54   U64       0.2188
   1705 HO2'      -36.4244  -26.1026  106.8046 H        54   U64       0.4186
   1706 P         -34.5770  -25.5690  109.3760 P.3      55   G65       1.1662
   1707 OP1       -34.8860  -26.6770  110.3170 O.co2    55   G65      -0.7760
   1708 OP2       -33.6700  -24.4800  109.8130 O.co2    55   G65      -0.7760
   1709 O5'       -34.0120  -26.2140  108.0290 O.3      55   G65      -0.4989
   1710 C5'       -34.3840  -27.5450  107.6410 C.3      55   G65       0.0558
   1711 C4'       -33.5220  -28.0510  106.4910 C.3      55   G65       0.1065
   1712 O4'       -33.6740  -27.1780  105.3280 O.3      55   G65      -0.3548
   1713 C3'       -32.0130  -28.0960  106.7080 C.3      55   G65       0.2022
   1714 O3'       -31.5670  -29.2430  107.4240 O.3      55   G65      -0.5246
   1715 C2'       -31.5170  -28.1520  105.2770 C.3      55   G65       0.0670
   1716 O2'       -31.6740  -29.4430  104.7370 O.3      55   G65      -0.6139
   1717 C1'       -32.4500  -27.1360  104.6070 C.3      55   G65       0.0191
   1718 N9        -31.8570  -25.8050  104.7470 N.ar     55   G65       0.0492
   1719 C8        -31.9690  -24.9520  105.8190 C.ar     55   G65       0.1374
   1720 N7        -31.2390  -23.8800  105.6970 N.ar     55   G65      -0.5709
   1721 C5        -30.6310  -24.0170  104.4590 C.ar     55   G65       0.1744
   1722 C6        -29.7170  -23.1630  103.7790 C.2      55   G65       0.4770
   1723 O6        -29.2540  -22.0740  104.1390 O.2      55   G65      -0.5597
   1724 N1        -29.3440  -23.6930  102.5580 N.am     55   G65      -0.4787
   1725 C2        -29.7840  -24.8790  102.0470 C.2      55   G65       0.7657
   1726 N2        -29.3040  -25.2040  100.8480 N.pl3    55   G65      -0.9672
   1727 N3        -30.6330  -25.6840  102.6630 N.2      55   G65      -0.6323
   1728 C4        -31.0130  -25.1920  103.8550 C.ar     55   G65       0.1222
   1729 H5'       -35.4280  -27.5440  107.3276 H        55   G65       0.0679
   1730 H5''      -34.2678  -28.2120  108.4952 H        55   G65       0.0679
   1731 H4'       -33.8615  -29.0504  106.2190 H        55   G65       0.1174
   1732 H3'       -31.6698  -27.1837  107.1959 H        55   G65       0.0615
   1733 H2'       -30.4784  -27.8274  105.2126 H        55   G65       0.0972
   1734 H1'       -32.6072  -27.3842  103.5573 H        55   G65       0.2006
   1735 H8        -32.5976  -25.1502  106.6745 H        55   G65       0.1640
   1736 H1        -28.6935  -23.1594  101.9993 H        55   G65       0.3424
   1737 H21       -28.6566  -24.5868  100.3790 H        55   G65       0.4364
   1738 H22       -29.5874  -26.0677  100.4077 H        55   G65       0.4364
   1739 HO2'      -30.8188  -29.7815  104.4619 H        55   G65       0.4186
   1740 P         -30.1480  -29.2070  108.1970 P.3      56   G66       1.1662
   1741 OP1       -30.0810  -30.4640  108.9870 O.co2    56   G66      -0.7760
   1742 OP2       -29.9900  -27.8970  108.8910 O.co2    56   G66      -0.7760
   1743 O5'       -29.0410  -29.2780  107.0460 O.3      56   G66      -0.4989
   1744 C5'       -28.9680  -30.3900  106.1580 C.3      56   G66       0.0558
   1745 C4'       -27.9460  -30.1420  105.0620 C.3      56   G66       0.1065
   1746 O4'       -28.3840  -29.0590  104.1880 O.3      56   G66      -0.3548
   1747 C3'       -26.5520  -29.7070  105.4910 C.3      56   G66       0.2022
   1748 O3'       -25.7550  -30.8030  105.9380 O.3      56   G66      -0.5246
   1749 C2'       -26.0240  -29.1170  104.1880 C.3      56   G66       0.0670
   1750 O2'       -25.7280  -30.1120  103.2430 O.3      56   G66      -0.6139
   1751 C1'       -27.2520  -28.3550  103.6910 C.3      56   G66       0.0191
   1752 N9        -27.2760  -26.9760  104.1900 N.ar     56   G66       0.0492
   1753 C8        -27.9940  -26.4790  105.2520 C.ar     56   G66       0.1374
   1754 N7        -27.7740  -25.2090  105.4710 N.ar     56   G66      -0.5709
   1755 C5        -26.8610  -24.8420  104.4890 C.ar     56   G66       0.1744
   1756 C6        -26.2510  -23.5790  104.2110 C.2      56   G66       0.4770
   1757 O6        -26.4010  -22.4880  104.7940 O.2      56   G66      -0.5597
   1758 N1        -25.3930  -23.6610  103.1270 N.am     56   G66      -0.4787
   1759 C2        -25.1510  -24.7920  102.3970 C.2      56   G66       0.7657
   1760 N2        -24.2770  -24.6630  101.3790 N.pl3    56   G66      -0.9672
   1761 N3        -25.7150  -25.9640  102.6370 N.2      56   G66      -0.6323
   1762 C4        -26.5490  -25.9170  103.6890 C.ar     56   G66       0.1222
   1763 H5'       -29.9462  -30.5491  105.7043 H        56   G66       0.0679
   1764 H5''      -28.6836  -31.2799  106.7195 H        56   G66       0.0679
   1765 H4'       -27.8546  -31.0496  104.4654 H        56   G66       0.1174
   1766 H3'       -26.6118  -28.9386  106.2618 H        56   G66       0.0615
   1767 H2'       -25.1760  -28.4534  104.3575 H        56   G66       0.0972
   1768 H1'       -27.2684  -28.3530  102.6011 H        56   G66       0.2006
   1769 H8        -28.6706  -27.0767  105.8448 H        56   G66       0.1640
   1770 H1        -24.9074  -22.8186  102.8538 H        56   G66       0.3424
   1771 H21       -23.8451  -23.7688  101.1944 H        56   G66       0.4364
   1772 H22       -24.0540  -25.4605  100.8008 H        56   G66       0.4364
   1773 HO2'      -25.5459  -29.7026  102.3940 H        56   G66       0.4186
   1774 P         -24.4520  -30.5290  106.8520 P.3      57   A67       1.1662
   1775 OP1       -23.7800  -31.8510  107.0270 O.co2    57   A67      -0.7760
   1776 OP2       -24.8560  -29.7430  108.0530 O.co2    57   A67      -0.7760
   1777 O5'       -23.4960  -29.6250  105.9450 O.3      57   A67      -0.4989
   1778 C5'       -22.7610  -30.2050  104.8680 C.3      57   A67       0.0558
   1779 C4'       -21.9100  -29.1650  104.1800 C.3      57   A67       0.1065
   1780 O4'       -22.7590  -28.0730  103.7220 O.3      57   A67      -0.3548
   1781 C3'       -20.8640  -28.4740  105.0340 C.3      57   A67       0.2022
   1782 O3'       -19.6720  -29.2380  105.1330 O.3      57   A67      -0.5246
   1783 C2'       -20.6360  -27.1810  104.2600 C.3      57   A67       0.0670
   1784 O2'       -19.8440  -27.3690  103.0990 O.3      57   A67      -0.6139
   1785 C1'       -22.0680  -26.8410  103.8440 C.3      57   A67       0.0394
   1786 N9        -22.7770  -26.0200  104.8250 N.ar     57   A67      -0.0251
   1787 C8        -23.7180  -26.4220  105.7400 C.ar     57   A67       0.2006
   1788 N7        -24.1890  -25.4460  106.4760 N.ar     57   A67      -0.6073
   1789 C5        -23.5090  -24.3270  106.0170 C.ar     57   A67       0.0515
   1790 C6        -23.5550  -22.9780  106.3870 C.ar     57   A67       0.7009
   1791 N6        -24.3600  -22.4920  107.3390 N.pl3    57   A67      -0.9019
   1792 N1        -22.7410  -22.1240  105.7370 N.ar     57   A67      -0.7615
   1793 C2        -21.9430  -22.6020  104.7780 C.ar     57   A67       0.5875
   1794 N3        -21.8150  -23.8420  104.3380 N.ar     57   A67      -0.6997
   1795 C4        -22.6340  -24.6670  105.0050 C.ar     57   A67       0.3053
   1796 H5'       -22.1168  -30.9929  105.2583 H        57   A67       0.0679
   1797 H5''      -23.4573  -30.6339  104.1474 H        57   A67       0.0679
   1798 H4'       -21.4210  -29.6198  103.3185 H        57   A67       0.1174
   1799 H3'       -21.2626  -28.2594  106.0255 H        57   A67       0.0615
   1800 H2'       -20.2172  -26.4059  104.9018 H        57   A67       0.0972
   1801 H1'       -22.0572  -26.3313  102.8806 H        57   A67       0.2007
   1802 H8        -24.0401  -27.4476  105.8435 H        57   A67       0.1553
   1803 H2        -21.3127  -21.8712  104.2932 H        57   A67       0.0473
   1804 H61       -24.9814  -23.1113  107.8395 H        57   A67       0.4115
   1805 H62       -24.3462  -21.5059  107.5570 H        57   A67       0.4115
   1806 HO2'      -19.8449  -26.5633  102.5771 H        57   A67       0.4186
   1807 P         -18.7660  -29.0950  106.4470 P.3      58   U68       1.1662
   1808 OP1       -17.5460  -29.9400  106.3140 O.co2    58   U68      -0.7760
   1809 OP2       -19.6650  -29.2640  107.6210 O.co2    58   U68      -0.7760
   1810 O5'       -18.2520  -27.5920  106.3920 O.3      58   U68      -0.4989
   1811 C5'       -17.3290  -27.1890  105.3940 C.3      58   U68       0.0558
   1812 C4'       -17.1140  -25.7040  105.4610 C.3      58   U68       0.1065
   1813 O4'       -18.4030  -25.0500  105.3750 O.3      58   U68      -0.3548
   1814 C3'       -16.5350  -25.1730  106.7610 C.3      58   U68       0.2022
   1815 O3'       -15.1150  -25.2970  106.7440 O.3      58   U68      -0.5246
   1816 C2'       -16.9720  -23.7100  106.7200 C.3      58   U68       0.0670
   1817 O2'       -16.1350  -22.8990  105.9200 O.3      58   U68      -0.6139
   1818 C1'       -18.3520  -23.8200  106.0670 C.3      58   U68       0.0674
   1819 N1        -19.4380  -23.7970  107.0480 N.am     58   U68       0.0418
   1820 C2        -19.9000  -22.5650  107.4460 C.2      58   U68       0.4687
   1821 O2        -19.4740  -21.5250  106.9880 O.2      58   U68      -0.5477
   1822 N3        -20.8760  -22.5910  108.4050 N.am     58   U68      -0.3549
   1823 C4        -21.4220  -23.6990  108.9880 C.2      58   U68       0.5952
   1824 O4        -22.2530  -23.5560  109.8730 O.2      58   U68      -0.5761
   1825 C5        -20.9080  -24.9430  108.5060 C.2      58   U68      -0.3635
   1826 C6        -19.9580  -24.9470  107.5680 C.2      58   U68      -0.1126
   1827 H5'       -17.7218  -27.4526  104.4120 H        58   U68       0.0679
   1828 H5''      -16.3791  -27.6995  105.5525 H        58   U68       0.0679
   1829 H4'       -16.4880  -25.3879  104.6266 H        58   U68       0.1174
   1830 H3'       -16.9640  -25.6872  107.6211 H        58   U68       0.0615
   1831 H2'       -17.0537  -23.3035  107.7281 H        58   U68       0.0972
   1832 H1'       -18.4847  -23.0009  105.3602 H        58   U68       0.1824
   1833 H3        -21.2297  -21.6969  108.7141 H        58   U68       0.3154
   1834 H5        -21.2865  -25.8751  108.8989 H        58   U68       0.1811
   1835 H6        -19.5872  -25.8951  107.2073 H        58   U68       0.2188
   1836 HO2'      -16.0900  -22.0166  106.2954 H        58   U68       0.4186
   1837 P         -14.3280  -25.6810  108.0920 P.3      59   A69       1.1662
   1838 OP1       -12.9200  -26.0130  107.7130 O.co2    59   A69      -0.7760
   1839 OP2       -15.1640  -26.6900  108.7920 O.co2    59   A69      -0.7760
   1840 O5'       -14.3200  -24.3330  108.9470 O.3      59   A69      -0.4989
   1841 C5'       -14.2000  -24.3490  110.3700 C.3      59   A69       0.0558
   1842 C4'       -14.3230  -22.9410  110.9210 C.3      59   A69       0.1065
   1843 O4'       -13.1880  -22.1460  110.4810 O.3      59   A69      -0.3548
   1844 C3'       -15.5670  -22.1620  110.4940 C.3      59   A69       0.2022
   1845 O3'       -16.6090  -22.3670  111.4450 O.3      59   A69      -0.5246
   1846 C2'       -15.0950  -20.7090  110.5380 C.3      59   A69       0.0670
   1847 O2'       -15.1810  -20.1470  111.8340 O.3      59   A69      -0.6139
   1848 C1'       -13.6230  -20.8390  110.1280 C.3      59   A69       0.0394
   1849 N9        -13.3750  -20.6630  108.7000 N.ar     59   A69      -0.0251
   1850 C8        -13.0860  -21.6610  107.7930 C.ar     59   A69       0.2006
   1851 N7        -12.8790  -21.2260  106.5720 N.ar     59   A69      -0.6073
   1852 C5        -13.0460  -19.8540  106.6790 C.ar     59   A69       0.0515
   1853 C6        -12.9580  -18.8310  105.7410 C.ar     59   A69       0.7009
   1854 N6        -12.6490  -19.0340  104.4590 N.pl3    59   A69      -0.9019
   1855 N1        -13.1980  -17.5750  106.1630 N.ar     59   A69      -0.7615
   1856 C2        -13.4960  -17.3770  107.4500 C.ar     59   A69       0.5875
   1857 N3        -13.5960  -18.2540  108.4320 N.ar     59   A69      -0.6997
   1858 C4        -13.3600  -19.4920  107.9810 C.ar     59   A69       0.3053
   1859 H5'       -14.9901  -24.9707  110.7910 H        59   A69       0.0679
   1860 H5''      -13.2296  -24.7616  110.6462 H        59   A69       0.0679
   1861 H4'       -14.3059  -22.9938  112.0096 H        59   A69       0.1174
   1862 H3'       -15.8857  -22.4444  109.4906 H        59   A69       0.0615
   1863 H2'       -15.6441  -20.1029  109.8174 H        59   A69       0.0972
   1864 H1'       -13.0348  -20.1079  110.6826 H        59   A69       0.2007
   1865 H8        -13.0347  -22.7055  108.0629 H        59   A69       0.1553
   1866 H2        -13.6823  -16.3501  107.7278 H        59   A69       0.0473
   1867 HO2'      -14.7239  -19.3029  111.8483 H        59   A69       0.4186
   1868 H61       -12.3309  -18.5469  103.6334 H        59   A69       0.4115
   1869 H62       -12.7774  -20.0112  104.2382 H        59   A69       0.4115
   1870 P         -18.1470  -22.4780  110.9690 P.3      60   A70       1.1662
   1871 OP1       -18.8820  -22.7260  112.2240 O.co2    60   A70      -0.7760
   1872 OP2       -18.2720  -23.4280  109.8340 O.co2    60   A70      -0.7760
   1873 O5'       -18.5280  -21.0290  110.4340 O.3      60   A70      -0.4989
   1874 C5'       -18.6780  -19.9330  111.3230 C.3      60   A70       0.0558
   1875 C4'       -18.7580  -18.6430  110.5450 C.3      60   A70       0.1065
   1876 O4'       -17.4810  -18.3850  109.8950 O.3      60   A70      -0.3548
   1877 C3'       -19.7790  -18.5770  109.4120 C.3      60   A70       0.2022
   1878 O3'       -21.0720  -18.2290  109.9200 O.3      60   A70      -0.5246
   1879 C2'       -19.2090  -17.4400  108.5730 C.3      60   A70       0.0670
   1880 O2'       -19.4810  -16.1930  109.1860 O.3      60   A70      -0.6139
   1881 C1'       -17.7020  -17.6970  108.6760 C.3      60   A70       0.0394
   1882 N9        -17.1440  -18.5000  107.5870 N.ar     60   A70      -0.0251
   1883 C8        -16.8530  -19.8400  107.5990 C.ar     60   A70       0.2006
   1884 N7        -16.3550  -20.2850  106.4720 N.ar     60   A70      -0.6073
   1885 C5        -16.3160  -19.1630  105.6640 C.ar     60   A70       0.0515
   1886 C6        -15.8810  -18.9710  104.3560 C.ar     60   A70       0.7009
   1887 N6        -15.3930  -19.9520  103.5950 N.pl3    60   A70      -0.9019
   1888 N1        -15.9550  -17.7280  103.8420 N.ar     60   A70      -0.7615
   1889 C2        -16.4410  -16.7560  104.6070 C.ar     60   A70       0.5875
   1890 N3        -16.8900  -16.8100  105.8560 N.ar     60   A70      -0.6997
   1891 C4        -16.7970  -18.0580  106.3350 C.ar     60   A70       0.3053
   1892 H5'       -19.5919  -20.0616  111.9029 H        60   A70       0.0679
   1893 H5''      -17.8233  -19.8956  111.9984 H        60   A70       0.0679
   1894 H4'       -18.9618  -17.8304  111.2423 H        60   A70       0.1174
   1895 H3'       -19.8102  -19.5100  108.8494 H        60   A70       0.0615
   1896 H2'       -19.5611  -17.4752  107.5420 H        60   A70       0.0972
   1897 H1'       -17.1820  -16.7397  108.7113 H        60   A70       0.2007
   1898 H8        -17.0193  -20.4712  108.4594 H        60   A70       0.1553
   1899 H2        -16.4760  -15.7800  104.1460 H        60   A70       0.0473
   1900 HO2'      -19.8276  -15.5828  108.5310 H        60   A70       0.4186
   1901 H61       -15.0150  -19.5198  102.7641 H        60   A70       0.4115
   1902 H62       -15.4002  -20.9390  103.8090 H        60   A70       0.4115
   1903 P         -22.4070  -18.7680  109.1960 P.3      61   U71       1.1662
   1904 OP1       -23.4630  -18.5860  110.2130 O.co2    61   U71      -0.7760
   1905 OP2       -22.1770  -20.1170  108.6260 O.co2    61   U71      -0.7760
   1906 O5'       -22.6720  -17.7610  107.9750 O.3      61   U71      -0.4989
   1907 C5'       -22.9280  -16.3610  108.1980 C.3      61   U71       0.0558
   1908 C4'       -22.5830  -15.5290  106.9680 C.3      61   U71       0.1065
   1909 O4'       -21.1770  -15.6810  106.6260 O.3      61   U71      -0.3548
   1910 C3'       -23.3230  -15.8470  105.6760 C.3      61   U71       0.2022
   1911 O3'       -24.5670  -15.1450  105.6250 O.3      61   U71      -0.5246
   1912 C2'       -22.3820  -15.2930  104.6050 C.3      61   U71       0.0670
   1913 O2'       -22.5550  -13.9200  104.3240 O.3      61   U71      -0.6139
   1914 C1'       -21.0040  -15.5160  105.2280 C.3      61   U71       0.0674
   1915 N1        -20.3610  -16.7120  104.6650 N.am     61   U71       0.0418
   1916 C2        -19.5130  -16.5390  103.5800 C.2      61   U71       0.4687
   1917 O2        -19.2250  -15.4500  103.1310 O.2      61   U71      -0.5477
   1918 N3        -19.0120  -17.6980  103.0450 N.am     61   U71      -0.3549
   1919 C4        -19.2490  -18.9850  103.4810 C.2      61   U71       0.5952
   1920 O4        -18.7080  -19.9280  102.9030 O.2      61   U71      -0.5761
   1921 C5        -20.1070  -19.0820  104.6170 C.2      61   U71      -0.3635
   1922 C6        -20.6170  -17.9710  105.1630 C.2      61   U71      -0.1126
   1923 H5'       -22.3230  -16.0195  109.0379 H        61   U71       0.0679
   1924 H5''      -23.9824  -16.2242  108.4379 H        61   U71       0.0679
   1925 H4'       -22.7602  -14.4809  107.2091 H        61   U71       0.1174
   1926 H3'       -23.4692  -16.9206  105.5575 H        61   U71       0.0615
   1927 H2'       -22.4757  -15.8758  103.6887 H        61   U71       0.0972
   1928 H1'       -20.3762  -14.6448  105.0407 H        61   U71       0.1824
   1929 H3        -18.4035  -17.5985  102.2450 H        61   U71       0.3154
   1930 H5        -20.3444  -20.0490  105.0353 H        61   U71       0.1811
   1931 H6        -21.2551  -18.0655  106.0292 H        61   U71       0.2188
   1932 HO2'      -22.4865  -13.4159  105.1381 H        61   U71       0.4186
   1933 P         -25.9120  -15.9210  105.2230 P.3      62   G72       1.1662
   1934 OP1       -26.8370  -15.8700  106.3760 O.co2    62   G72      -0.7760
   1935 OP2       -25.5100  -17.2380  104.6740 O.co2    62   G72      -0.7760
   1936 O5'       -26.5510  -15.0820  104.0340 O.3      62   G72      -0.4989
   1937 C5'       -25.7500  -14.5460  102.9880 C.3      62   G72       0.0558
   1938 C4'       -25.6750  -15.5080  101.8170 C.3      62   G72       0.1065
   1939 O4'       -26.9910  -15.9530  101.4130 O.3      62   G72      -0.3548
   1940 C3'       -25.0520  -14.9560  100.5430 C.3      62   G72       0.2022
   1941 O3'       -23.6480  -14.9970  100.7720 O.3      62   G72      -0.5246
   1942 C2'       -25.5880  -15.9230   99.4920 C.3      62   G72       0.0670
   1943 O2'       -24.9060  -17.1610   99.4790 O.3      62   G72      -0.6139
   1944 C1'       -27.0060  -16.1850  100.0100 C.3      62   G72       0.0191
   1945 N9        -28.0510  -15.3460   99.4280 N.ar     62   G72       0.0492
   1946 C8        -28.1940  -14.9390   98.1200 C.ar     62   G72       0.1374
   1947 N7        -29.2440  -14.1780   97.9340 N.ar     62   G72      -0.5709
   1948 C5        -29.8260  -14.0840   99.1940 C.ar     62   G72       0.1744
   1949 C6        -30.9980  -13.3860   99.6350 C.2      62   G72       0.4770
   1950 O6        -31.7870  -12.6810   98.9730 O.2      62   G72      -0.5597
   1951 N1        -31.2130  -13.5740  101.0030 N.am     62   G72      -0.4787
   1952 C2        -30.4190  -14.3350  101.8360 C.2      62   G72       0.7657
   1953 N2        -30.7860  -14.4140  103.1270 N.pl3    62   G72      -0.9672
   1954 N3        -29.3420  -14.9770  101.4360 N.2      62   G72      -0.6323
   1955 C4        -29.1040  -14.8080  100.1200 C.ar     62   G72       0.1222
   1956 H5'       -26.1864  -13.6060  102.6502 H        62   G72       0.0679
   1957 H5''      -24.7443  -14.3601  103.3650 H        62   G72       0.0679
   1958 H4'       -25.1001  -16.3803  102.1280 H        62   G72       0.1174
   1959 H3'       -25.3894  -13.9378  100.3492 H        62   G72       0.0615
   1960 H2'       -25.6037  -15.4667   98.5022 H        62   G72       0.0972
   1961 H1'       -27.2564  -17.2306   99.8308 H        62   G72       0.2006
   1962 H8        -27.5120  -15.2180   97.3304 H        62   G72       0.1640
   1963 H1        -32.0136  -13.1162  101.4148 H        62   G72       0.3424
   1964 H21       -31.6107  -13.9274  103.4483 H        62   G72       0.4364
   1965 H22       -30.2370  -14.9600  103.7756 H        62   G72       0.4364
   1966 HO2'      -24.4834  -17.2851   98.6260 H        62   G72       0.4186
   1967 P         -22.5940  -15.0230   99.5640 P.3      63   C73       1.1662
   1968 OP1       -21.7900  -13.8030   99.7730 O.co2    63   C73      -0.7760
   1969 OP2       -23.1820  -15.2670   98.2260 O.co2    63   C73      -0.7760
   1970 O5'       -21.7190  -16.2910   99.9710 O.3      63   C73      -0.4989
   1971 C5'       -20.6050  -16.7170   99.2020 C.3      63   C73       0.0558
   1972 C4'       -20.6160  -18.2240   99.0690 C.3      63   C73       0.1065
   1973 O4'       -20.4880  -18.8600  100.3760 O.3      63   C73      -0.3548
   1974 C3'       -21.9060  -18.8040   98.5210 C.3      63   C73       0.2022
   1975 O3'       -21.9500  -18.7310   97.1020 O.3      63   C73      -0.5246
   1976 C2'       -21.8270  -20.2410   98.9860 C.3      63   C73       0.0670
   1977 O2'       -21.0210  -20.9990   98.1220 O.3      63   C73      -0.6139
   1978 C1'       -21.1970  -20.0800  100.3740 C.3      63   C73       0.0066
   1979 N1        -22.2410  -19.9900  101.3910 N.am     63   C73      -0.0484
   1980 C2        -23.0070  -21.1340  101.6750 C.2      63   C73       0.7538
   1981 O2        -22.7250  -22.2010  101.1120 O.2      63   C73      -0.6252
   1982 N3        -24.0300  -21.0450  102.5550 N.2      63   C73      -0.7584
   1983 C4        -24.2850  -19.8870  103.1600 C.2      63   C73       0.8185
   1984 N4        -25.3050  -19.8450  104.0130 N.pl3    63   C73      -0.9530
   1985 C5        -23.5020  -18.7170  102.9160 C.2      63   C73      -0.5215
   1986 C6        -22.4960  -18.8150  102.0330 C.2      63   C73       0.0053
   1987 H5'       -19.6848  -16.4048   99.6957 H        63   C73       0.0679
   1988 H5''      -20.6553  -16.2657   98.2111 H        63   C73       0.0679
   1989 H4'       -19.7851  -18.5346   98.4356 H        63   C73       0.1174
   1990 H3'       -22.7698  -18.3042   98.9594 H        63   C73       0.0615
   1991 H2'       -22.8235  -20.6759   99.0636 H        63   C73       0.0972
   1992 H1'       -20.5261  -20.9120  100.5878 H        63   C73       0.2029
   1993 H5        -23.7121  -17.7873  103.4238 H        63   C73       0.1928
   1994 H6        -21.8804  -17.9515  101.8285 H        63   C73       0.1958
   1995 H41       -25.8559  -20.6744  104.1827 H        63   C73       0.4234
   1996 H42       -25.5285  -18.9838  104.4909 H        63   C73       0.4234
   1997 HO2'      -21.5630  -21.3721   97.4230 H        63   C73       0.4186
   1998 P         -23.3700  -18.7440   96.3560 P.3      64   C74       1.1662
   1999 OP1       -23.1250  -18.5020   94.9130 O.co2    64   C74      -0.7760
   2000 OP2       -24.3130  -17.8740   97.1030 O.co2    64   C74      -0.7760
   2001 O5'       -23.8570  -20.2550   96.4960 O.3      64   C74      -0.4989
   2002 C5'       -23.1720  -21.3090   95.8130 C.3      64   C74       0.0558
   2003 C4'       -23.8550  -22.6350   96.0680 C.3      64   C74       0.1065
   2004 O4'       -23.8130  -22.9520   97.4860 O.3      64   C74      -0.3548
   2005 C3'       -25.3350  -22.6900   95.7380 C.3      64   C74       0.2022
   2006 O3'       -25.5250  -22.9270   94.3550 O.3      64   C74      -0.5246
   2007 C2'       -25.8000  -23.8760   96.5680 C.3      64   C74       0.0670
   2008 O2'       -25.5250  -25.1190   95.9550 O.3      64   C74      -0.6139
   2009 C1'       -24.9500  -23.7150   97.8270 C.3      64   C74       0.0066
   2010 N1        -25.6570  -23.0310   98.9120 N.am     64   C74      -0.0484
   2011 C2        -26.6140  -23.7410   99.6140 C.2      64   C74       0.7538
   2012 O2        -26.8670  -24.9010   99.2620 O.2      64   C74      -0.6252
   2013 N3        -27.2450  -23.1580  100.6520 N.2      64   C74      -0.7584
   2014 C4        -26.9640  -21.9070  100.9840 C.2      64   C74       0.8185
   2015 N4        -27.6160  -21.3850  102.0210 N.pl3    64   C74      -0.9530
   2016 C5        -26.0020  -21.1380  100.2680 C.2      64   C74      -0.5215
   2017 C6        -25.3770  -21.7350   99.2440 C.2      64   C74       0.0053
   2018 H5'       -23.1745  -21.1040   94.7424 H        64   C74       0.0679
   2019 H5''      -22.1427  -21.3595   96.1680 H        64   C74       0.0679
   2020 H4'       -23.3363  -23.4162   95.5123 H        64   C74       0.1174
   2021 H3'       -25.8383  -21.7747   96.0496 H        64   C74       0.0615
   2022 H2'       -26.8604  -23.7890   96.8048 H        64   C74       0.0972
   2023 H1'       -24.6309  -24.6986   98.1717 H        64   C74       0.2029
   2024 H5        -25.7852  -20.1154  100.5395 H        64   C74       0.1928
   2025 H6        -24.6428  -21.1852   98.6738 H        64   C74       0.1958
   2026 H41       -28.2956  -21.9398  102.5214 H        64   C74       0.4234
   2027 H42       -27.4309  -20.4342  102.3072 H        64   C74       0.4234
   2028 HO2'      -26.0626  -25.2127   95.1652 H        64   C74       0.4186
   2029 P         -26.6670  -22.1250   93.5640 P.3      65   A75       1.1662
   2030 OP1       -26.5530  -22.5810   92.1550 O.co2    65   A75      -0.7760
   2031 OP2       -26.5620  -20.6760   93.8800 O.co2    65   A75      -0.7760
   2032 O5'       -28.0380  -22.6610   94.1950 O.3      65   A75      -0.4989
   2033 C5'       -28.5400  -23.9500   93.8500 C.3      65   A75       0.0558
   2034 C4'       -29.4840  -24.4810   94.9130 C.3      65   A75       0.1065
   2035 O4'       -28.9020  -24.3380   96.2380 O.3      65   A75      -0.3548
   2036 C3'       -30.8360  -23.8130   95.1030 C.3      65   A75       0.2022
   2037 O3'       -31.7580  -24.1490   94.0760 O.3      65   A75      -0.5246
   2038 C2'       -31.2610  -24.4000   96.4430 C.3      65   A75       0.0670
   2039 O2'       -31.6920  -25.7450   96.3660 O.3      65   A75      -0.6139
   2040 C1'       -29.9420  -24.3760   97.2060 C.3      65   A75       0.0394
   2041 N9        -29.8730  -23.1910   98.0490 N.ar     65   A75      -0.0251
   2042 C8        -29.1010  -22.0600   97.9230 C.ar     65   A75       0.2006
   2043 N7        -29.3060  -21.1760   98.8690 N.ar     65   A75      -0.6073
   2044 C5        -30.2790  -21.7650   99.6660 C.ar     65   A75       0.0515
   2045 C6        -30.9370  -21.3370  100.8260 C.ar     65   A75       0.7009
   2046 N6        -30.7070  -20.1670  101.4190 N.pl3    65   A75      -0.9019
   2047 N1        -31.8610  -22.1680  101.3670 N.ar     65   A75      -0.7615
   2048 C2        -32.0900  -23.3410  100.7740 C.ar     65   A75       0.5875
   2049 N3        -31.5330  -23.8520   99.6830 N.ar     65   A75      -0.6997
   2050 C4        -30.6310  -23.0050   99.1730 C.ar     65   A75       0.3053
   2051 H5'       -29.0759  -23.8797   92.9035 H        65   A75       0.0679
   2052 H5''      -27.7042  -24.6405   93.7371 H        65   A75       0.0679
   2053 H4'       -29.6498  -25.5417   94.7246 H        65   A75       0.1174
   2054 H3'       -30.7221  -22.7315   95.1771 H        65   A75       0.0615
   2055 H2'       -32.0090  -23.7733   96.9286 H        65   A75       0.0972
   2056 H1'       -29.8491  -25.2737   97.8173 H        65   A75       0.2007
   2057 H8        -28.3929  -21.9139   97.1207 H        65   A75       0.1553
   2058 H2        -32.8342  -23.9630  101.2491 H        65   A75       0.0473
   2059 HO2'      -32.5108  -25.8477   96.8566 H        65   A75       0.4186
   2060 H61       -31.2953  -20.1580  102.2399 H        65   A75       0.4115
   2061 H62       -30.0761  -19.4405  101.1120 H        65   A75       0.4115
   2062 P         -32.8680  -23.0780   93.6400 P.3      66   G76       1.1662
   2063 OP1       -33.2990  -23.4280   92.2640 O.co2    66   G76      -0.7760
   2064 OP2       -32.3240  -21.7280   93.9040 O.co2    66   G76      -0.7760
   2065 O5'       -34.0560  -23.2930   94.6930 O.3      66   G76      -0.4989
   2066 C5'       -34.6230  -24.5830   94.9250 C.3      66   G76       0.0558
   2067 C4'       -35.4430  -24.5860   96.2030 C.3      66   G76       0.1065
   2068 O4'       -34.5940  -24.2400   97.3340 O.3      66   G76      -0.3548
   2069 C3'       -36.5880  -23.5840   96.2680 C.3      66   G76       0.2022
   2070 O3'       -37.7560  -24.1080   95.6560 O.3      66   G76      -0.5246
   2071 C2'       -36.7840  -23.4000   97.7680 C.3      66   G76       0.0670
   2072 O2'       -37.5630  -24.4360   98.3260 O.3      66   G76      -0.6139
   2073 C1'       -35.3450  -23.5000   98.2860 C.3      66   G76       0.0191
   2074 N9        -34.6740  -22.2200   98.5080 N.ar     66   G76       0.0492
   2075 C8        -33.6620  -21.6670   97.7540 C.ar     66   G76       0.1374
   2076 N7        -33.2170  -20.5390   98.2380 N.ar     66   G76      -0.5709
   2077 C5        -33.9930  -20.3270   99.3690 C.ar     66   G76       0.1744
   2078 C6        -33.9640  -19.2830  100.3130 C.2      66   G76       0.4770
   2079 O6        -33.2190  -18.3060  100.3540 O.2      66   G76      -0.5597
   2080 N1        -34.9180  -19.4640  101.3030 N.am     66   G76      -0.4787
   2081 C2        -35.7820  -20.5200  101.3840 C.2      66   G76       0.7657
   2082 N2        -36.6230  -20.5200  102.4270 N.pl3    66   G76      -0.9672
   2083 N3        -35.8170  -21.5040  100.5140 N.2      66   G76      -0.6323
   2084 C4        -34.9040  -21.3490   99.5400 C.ar     66   G76       0.1222
   2085 H5'       -33.8209  -25.3159   95.0127 H        66   G76       0.0679
   2086 H5''      -35.2645  -24.8504   94.0853 H        66   G76       0.0679
   2087 H4'       -35.8443  -25.5873   96.3595 H        66   G76       0.1174
   2088 H3'       -36.3001  -22.6422   95.8008 H        66   G76       0.0615
   2089 H2'       -37.2137  -22.4232   97.9903 H        66   G76       0.0972
   2090 H1'       -35.3534  -24.0533   99.2251 H        66   G76       0.2006
   2091 H8        -33.2758  -22.1209   96.8533 H        66   G76       0.1640
   2092 H1        -34.9794  -18.7581  102.0227 H        66   G76       0.3424
   2093 H21       -36.5959  -19.7652  103.0976 H        66   G76       0.4364
   2094 H22       -37.2841  -21.2748  102.5426 H        66   G76       0.4364
   2095 HO2'      -38.4636  -24.3710   97.9999 H        66   G76       0.4186
   2096 P         -38.5220  -23.2390   94.5440 P.3      67   C77       1.1662
   2097 OP1       -39.7340  -23.9610   94.1020 O.co2    67   C77      -0.7760
   2098 OP2       -37.5320  -22.8110   93.5360 O.co2    67   C77      -0.7760
   2099 O5'       -38.9810  -21.9520   95.3590 O.3      67   C77      -0.4989
   2100 C5'       -39.8510  -22.0690   96.4800 C.3      67   C77       0.0558
   2101 C4'       -39.8750  -20.7790   97.2650 C.3      67   C77       0.1065
   2102 O4'       -38.5990  -20.5830   97.9300 O.3      67   C77      -0.3548
   2103 C3'       -40.0640  -19.5060   96.4530 C.3      67   C77       0.2022
   2104 O3'       -41.4340  -19.2720   96.2150 O.3      67   C77      -0.5246
   2105 C2'       -39.5010  -18.4550   97.3960 C.3      67   C77       0.0670
   2106 O2'       -40.4190  -18.1560   98.4280 O.3      67   C77      -0.6139
   2107 C1'       -38.2970  -19.1960   97.9770 C.3      67   C77       0.0066
   2108 N1        -37.0660  -18.9730   97.2090 N.am     67   C77      -0.0484
   2109 C2        -36.1590  -18.0240   97.6650 C.2      67   C77       0.7538
   2110 O2        -36.4330  -17.3890   98.6960 O.2      67   C77      -0.6252
   2111 N3        -35.0100  -17.8200   96.9780 N.2      67   C77      -0.7584
   2112 C4        -34.7610  -18.5220   95.8710 C.2      67   C77       0.8185
   2113 N4        -33.6140  -18.2950   95.2260 N.pl3    67   C77      -0.9530
   2114 C5        -35.6780  -19.4920   95.3760 C.2      67   C77      -0.5215
   2115 C6        -36.8080  -19.6830   96.0700 C.2      67   C77       0.0053
   2116 H5'       -39.4998  -22.8749   97.1244 H        67   C77       0.0679
   2117 H5''      -40.8583  -22.2983   96.1323 H        67   C77       0.0679
   2118 H4'       -40.6608  -20.8380   98.0181 H        67   C77       0.1174
   2119 H3'       -39.5009  -19.5438   95.5205 H        67   C77       0.0615
   2120 H2'       -39.1968  -17.5569   96.8584 H        67   C77       0.0972
   2121 H1'       -38.1433  -18.8898   99.0118 H        67   C77       0.2029
   2122 H5        -35.4708  -20.0521   94.4761 H        67   C77       0.1928
   2123 H6        -37.5272  -20.4104   95.7235 H        67   C77       0.1958
   2124 H41       -32.9639  -17.6072   95.5786 H        67   C77       0.4234
   2125 H42       -33.3966  -18.8111   94.3855 H        67   C77       0.4234
   2126 HO2'      -41.1740  -17.6907   98.0604 H        67   C77       0.4186
   2127 P         -41.8990  -18.5890   94.8490 P.3      68   G78       1.1662
   2128 OP1       -41.4690  -17.1730   94.9240 O.co2    68   G78      -0.7760
   2129 OP2       -43.3470  -18.9170   94.7200 O.co2    68   G78      -0.7760
   2130 O5'       -41.0830  -19.3630   93.7110 O.3      68   G78      -0.4989
   2131 C5'       -41.3730  -19.2040   92.3070 C.3      68   G78       0.0558
   2132 C4'       -40.0820  -18.9610   91.5600 C.3      68   G78       0.1065
   2133 O4'       -39.5620  -17.7350   92.0910 O.3      68   G78      -0.3548
   2134 C3'       -39.0260  -20.0400   91.8060 C.3      68   G78       0.2022
   2135 O3'       -38.6510  -20.8300   90.6570 O.3      68   G78      -0.5246
   2136 C2'       -37.7310  -19.2810   92.1010 C.3      68   G78       0.0670
   2137 O2'       -36.7610  -19.4380   91.0860 O.3      68   G78      -0.6139
   2138 C1'       -38.1800  -17.8230   92.1930 C.3      68   G78       0.0191
   2139 N9        -37.7540  -17.0680   93.3560 N.ar     68   G78       0.0492
   2140 C8        -38.5060  -16.7010   94.4410 C.ar     68   G78       0.1374
   2141 N7        -37.8510  -15.9460   95.2820 N.ar     68   G78      -0.5709
   2142 C5        -36.5870  -15.8310   94.7250 C.ar     68   G78       0.1744
   2143 C6        -35.4670  -15.1290   95.1700 C.2      68   G78       0.4770
   2144 O6        -35.3470  -14.4410   96.1760 O.2      68   G78      -0.5597
   2145 N1        -34.3960  -15.2720   94.3000 N.am     68   G78      -0.4787
   2146 C2        -34.4090  -16.0050   93.1440 C.2      68   G78       0.7657
   2147 N2        -33.2600  -16.0260   92.4540 N.pl3    68   G78      -0.9672
   2148 N3        -35.4610  -16.6670   92.7080 N.2      68   G78      -0.6323
   2149 C4        -36.5080  -16.5340   93.5440 C.ar     68   G78       0.1222
   2150 H5'       -42.0414  -18.3545   92.1664 H        68   G78       0.0679
   2151 H5''      -41.8486  -20.1087   91.9283 H        68   G78       0.0679
   2152 H4'       -40.2763  -18.8584   90.4924 H        68   G78       0.1174
   2153 H3'       -39.3058  -20.6774   92.6448 H        68   G78       0.0615
   2154 H2'       -37.3217  -19.6040   93.0582 H        68   G78       0.0972
   2155 H1'       -37.7689  -17.3135   91.3215 H        68   G78       0.2006
   2156 H8        -39.5324  -17.0041   94.5857 H        68   G78       0.1640
   2157 H1        -33.5373  -14.7969   94.5388 H        68   G78       0.3424
   2158 H21       -32.4565  -15.5182   92.7955 H        68   G78       0.4364
   2159 H22       -33.1977  -16.5496   91.5926 H        68   G78       0.4364
   2160 HO2'      -36.4741  -20.3536   91.0564 H        68   G78       0.4186
   2161 P         -39.6900  -21.1790   89.4690 P.3      69   U79       1.1662
   2162 OP1       -40.8420  -21.9230   90.0490 O.co2    69   U79      -0.7760
   2163 OP2       -38.8820  -21.7880   88.3880 O.co2    69   U79      -0.7760
   2164 O5'       -40.1870  -19.7860   88.8750 O.3      69   U79      -0.4989
   2165 C5'       -39.4460  -19.1180   87.8590 C.3      69   U79       0.0558
   2166 C4'       -40.3790  -18.4830   86.8500 C.3      69   U79       0.1065
   2167 O4'       -40.8370  -19.4850   85.9080 O.3      69   U79      -0.3548
   2168 C3'       -41.6360  -17.9180   87.5090 C.3      69   U79       0.2022
   2169 O3'       -41.9590  -16.5850   87.1150 O.3      69   U79      -0.5246
   2170 C2'       -42.7280  -18.9710   87.3130 C.3      69   U79       0.0670
   2171 O2'       -43.9730  -18.3930   86.9720 O.3      69   U79      -0.6139
   2172 C1'       -42.2200  -19.7240   86.0800 C.3      69   U79       0.0674
   2173 N1        -42.4780  -21.1690   86.0230 N.am     69   U79       0.0418
   2174 C2        -43.1420  -21.6390   84.9000 C.2      69   U79       0.4687
   2175 O2        -43.4890  -20.9070   83.9810 O.2      69   U79      -0.5477
   2176 N3        -43.3790  -22.9920   84.8900 N.am     69   U79      -0.3549
   2177 C4        -43.0240  -23.9040   85.8670 C.2      69   U79       0.5952
   2178 O4        -43.3080  -25.0930   85.7140 O.2      69   U79      -0.5761
   2179 C5        -42.3350  -23.3420   86.9940 C.2      69   U79      -0.3635
   2180 C6        -42.0920  -22.0240   87.0320 C.2      69   U79      -0.1126
   2181 H5'       -38.8308  -18.3426   88.3155 H        69   U79       0.0679
   2182 H5''      -38.8021  -19.8364   87.3517 H        69   U79       0.0679
   2183 H4'       -39.8565  -17.6893   86.3161 H        69   U79       0.1174
   2184 H3'       -41.4324  -17.8816   88.5792 H        69   U79       0.0615
   2185 H2'       -42.8132  -19.6279   88.1786 H        69   U79       0.0972
   2186 H1'       -42.7215  -19.2840   85.2180 H        69   U79       0.1824
   2187 H3        -43.8638  -23.3596   84.0838 H        69   U79       0.3154
   2188 H5        -42.0143  -23.9771   87.8065 H        69   U79       0.1811
   2189 H6        -41.5733  -21.6166   87.8872 H        69   U79       0.2188
   2190 HO2'      -44.3202  -17.9116   87.7265 H        69   U79       0.4186
   2191 P         -41.9050  -15.3880   88.1820 P.3      70   A80       1.1662
   2192 OP1       -42.9680  -14.4360   87.7610 O.co2    70   A80      -0.7760
   2193 OP2       -40.4900  -14.9190   88.2800 O.co2    70   A80      -0.7760
   2194 O5'       -42.3270  -16.0560   89.5670 O.3      70   A80      -0.4989
   2195 C5'       -43.6760  -16.4230   89.8300 C.3      70   A80       0.0558
   2196 C4'       -44.1530  -15.7580   91.0950 C.3      70   A80       0.1065
   2197 O4'       -43.2400  -16.0880   92.1780 O.3      70   A80      -0.3548
   2198 C3'       -44.1570  -14.2380   91.0620 C.3      70   A80       0.2022
   2199 O3'       -45.3720  -13.7720   90.4970 O.3      70   A80      -0.5246
   2200 C2'       -44.0700  -13.8970   92.5430 C.3      70   A80       0.0670
   2201 O2'       -45.3080  -14.0740   93.1970 O.3      70   A80      -0.6139
   2202 C1'       -43.0960  -14.9670   93.0360 C.3      70   A80       0.0394
   2203 N9        -41.6950  -14.5490   93.0070 N.ar     70   A80      -0.0251
   2204 C8        -40.7220  -14.9170   92.1110 C.ar     70   A80       0.2006
   2205 N7        -39.5410  -14.4140   92.3770 N.ar     70   A80      -0.6073
   2206 C5        -39.7530  -13.6520   93.5190 C.ar     70   A80       0.0515
   2207 C6        -38.8970  -12.8710   94.3100 C.ar     70   A80       0.7009
   2208 N6        -37.5920  -12.7220   94.0730 N.pl3    70   A80      -0.9019
   2209 N1        -39.4330  -12.2350   95.3750 N.ar     70   A80      -0.7615
   2210 C2        -40.7360  -12.3840   95.6220 C.ar     70   A80       0.5875
   2211 N3        -41.6370  -13.0950   94.9620 N.ar     70   A80      -0.6997
   2212 C4        -41.0770  -13.7150   93.9090 C.ar     70   A80       0.3053
   2213 H5'       -44.3047  -16.1077   88.9973 H        70   A80       0.0679
   2214 H5''      -43.7412  -17.5051   89.9433 H        70   A80       0.0679
   2215 H4'       -45.1521  -16.1184   91.3400 H        70   A80       0.1174
   2216 H3'       -43.2951  -13.8529   90.5171 H        70   A80       0.0615
   2217 H2'       -43.6746  -12.8934   92.6998 H        70   A80       0.0972
   2218 H1'       -43.3638  -15.2557   94.0524 H        70   A80       0.2007
   2219 H8        -40.9120  -15.5613   91.2653 H        70   A80       0.1553
   2220 H2        -41.1085  -11.8484   96.4827 H        70   A80       0.0473
   2221 H61       -37.2398  -12.0924   94.7799 H        70   A80       0.4115
   2222 H62       -37.0602  -13.1546   93.3313 H        70   A80       0.4115
   2223 HO2'      -45.9284  -13.4066   92.8948 H        70   A80       0.4186
   2224 P         -45.3730  -12.4900   89.5250 P.3      71   G81       1.1662
   2225 OP1       -46.7530  -12.3790   88.9840 O.co2    71   G81      -0.7760
   2226 OP2       -44.2260  -12.5490   88.5830 O.co2    71   G81      -0.7760
   2227 O5'       -45.1340  -11.2660   90.5220 O.3      71   G81      -0.4989
   2228 C5'       -46.2170  -10.6900   91.2280 C.3      71   G81       0.0558
   2229 C4'       -45.7210   -9.6580   92.2100 C.3      71   G81       0.1065
   2230 O4'       -44.8750  -10.3060   93.1980 O.3      71   G81      -0.3548
   2231 C3'       -44.8540   -8.5240   91.6850 C.3      71   G81       0.2022
   2232 O3'       -45.6040   -7.4650   91.1000 O.3      71   G81      -0.5246
   2233 C2'       -44.1920   -8.0710   92.9720 C.3      71   G81       0.0670
   2234 O2'       -45.0960   -7.4110   93.8180 O.3      71   G81      -0.6139
   2235 C1'       -43.8440   -9.4150   93.6000 C.3      71   G81       0.0191
   2236 N9        -42.5890   -9.8960   93.0350 N.ar     71   G81       0.0492
   2237 C8        -42.4490  -10.8050   92.0180 C.ar     71   G81       0.1374
   2238 N7        -41.2090  -11.0170   91.6880 N.ar     71   G81      -0.5709
   2239 C5        -40.4820  -10.2060   92.5500 C.ar     71   G81       0.1744
   2240 C6        -39.0790  -10.0120   92.6670 C.2      71   G81       0.4770
   2241 O6        -38.1700  -10.5400   92.0170 O.2      71   G81      -0.5597
   2242 N1        -38.7710   -9.1000   93.6610 N.am     71   G81      -0.4787
   2243 C2        -39.6780   -8.4580   94.4440 C.2      71   G81       0.7657
   2244 N2        -39.1590   -7.6170   95.3450 N.pl3    71   G81      -0.9672
   2245 N3        -40.9970   -8.6270   94.3530 N.2      71   G81      -0.6323
   2246 C4        -41.3210   -9.5110   93.3910 C.ar     71   G81       0.1222
   2247 H5'       -46.8939  -10.2135   90.5189 H        71   G81       0.0679
   2248 H5''      -46.7521  -11.4719   91.7669 H        71   G81       0.0679
   2249 H4'       -46.5813   -9.2266   92.7217 H        71   G81       0.1174
   2250 H3'       -44.1108   -8.9019   90.9830 H        71   G81       0.0615
   2251 H2'       -43.3028   -7.4703   92.7810 H        71   G81       0.0972
   2252 H1'       -43.7863   -9.3411   94.6860 H        71   G81       0.2006
   2253 H8        -43.2839  -11.2953   91.5395 H        71   G81       0.1640
   2254 H1        -37.7944   -8.8950   93.8172 H        71   G81       0.3424
   2255 H21       -38.1580   -7.4967   95.4057 H        71   G81       0.4364
   2256 H22       -39.7680   -7.1021   95.9648 H        71   G81       0.4364
   2257 HO2'      -45.3276   -6.5602   93.4383 H        71   G81       0.4186
   2258 P         -45.0300   -6.7000   89.7950 P.3      72   G82       1.1662
   2259 OP1       -46.1540   -5.9270   89.2090 O.co2    72   G82      -0.7760
   2260 OP2       -44.2850   -7.6540   88.9400 O.co2    72   G82      -0.7760
   2261 O5'       -43.9700   -5.6650   90.3740 O.3      72   G82      -0.4989
   2262 C5'       -44.2910   -4.8150   91.4590 C.3      72   G82       0.0558
   2263 C4'       -43.0330   -4.2550   92.0760 C.3      72   G82       0.1065
   2264 O4'       -42.2730   -5.3270   92.6960 O.3      72   G82      -0.3548
   2265 C3'       -42.0260   -3.6020   91.1350 C.3      72   G82       0.2022
   2266 O3'       -42.3570   -2.2510   90.8440 O.3      72   G82      -0.5246
   2267 C2'       -40.7720   -3.6430   91.9900 C.3      72   G82       0.0670
   2268 O2'       -40.7920   -2.6440   92.9940 O.3      72   G82      -0.6139
   2269 C1'       -40.8900   -5.0300   92.6250 C.3      72   G82       0.0191
   2270 N9        -40.2290   -6.0310   91.7900 N.ar     72   G82       0.0492
   2271 C8        -40.8110   -6.9750   90.9780 C.ar     72   G82       0.1374
   2272 N7        -39.9380   -7.6910   90.3200 N.ar     72   G82      -0.5709
   2273 C5        -38.7050   -7.1980   90.7330 C.ar     72   G82       0.1744
   2274 C6        -37.3820   -7.5700   90.3590 C.2      72   G82       0.4770
   2275 O6        -37.0100   -8.4320   89.5570 O.2      72   G82      -0.5597
   2276 N1        -36.4370   -6.8090   91.0230 N.am     72   G82      -0.4787
   2277 C2        -36.7030   -5.8200   91.9150 C.2      72   G82       0.7657
   2278 N2        -35.6370   -5.2160   92.4340 N.pl3    72   G82      -0.9672
   2279 N3        -37.9200   -5.4510   92.2700 N.2      72   G82      -0.6323
   2280 C4        -38.8670   -6.1820   91.6460 C.ar     72   G82       0.1222
   2281 H5'       -44.8380   -5.3834   92.2112 H        72   G82       0.0679
   2282 H5''      -44.9142   -3.9948   91.1027 H        72   G82       0.0679
   2283 H4'       -43.3116   -3.5341   92.8447 H        72   G82       0.1174
   2284 H3'       -41.9019   -4.1845   90.2221 H        72   G82       0.0615
   2285 H2'       -39.8745   -3.5662   91.3762 H        72   G82       0.0972
   2286 H1'       -40.4539   -5.0253   93.6240 H        72   G82       0.2006
   2287 H8        -41.8790   -7.1109   90.8926 H        72   G82       0.1640
   2288 H1        -35.4658   -7.0057   90.8278 H        72   G82       0.3424
   2289 H21       -34.7091   -5.5034   92.1574 H        72   G82       0.4364
   2290 H22       -35.7557   -4.4701   93.1045 H        72   G82       0.4364
   2291 HO2'      -40.0554   -2.7792   93.5947 H        72   G82       0.4186
   2292 P         -41.9980   -1.6250   89.4030 P.3      73   G83       1.1662
   2293 OP1       -42.4490   -0.2100   89.4550 O.co2    73   G83      -0.7760
   2294 OP2       -42.5100   -2.5140   88.3220 O.co2    73   G83      -0.7760
   2295 O5'       -40.4010   -1.6710   89.3220 O.3      73   G83      -0.4989
   2296 C5'       -39.5690   -1.0410   90.3010 C.3      73   G83       0.0558
   2297 C4'       -38.1090   -1.3260   89.9990 C.3      73   G83       0.1065
   2298 O4'       -37.8210   -2.7280   90.2540 O.3      73   G83      -0.3548
   2299 C3'       -37.7010   -1.1090   88.5440 C.3      73   G83       0.2022
   2300 O3'       -37.3100    0.2440   88.3170 O.3      73   G83      -0.5246
   2301 C2'       -36.5070   -2.0440   88.3980 C.3      73   G83       0.0670
   2302 O2'       -35.3200   -1.4960   88.9320 O.3      73   G83      -0.6139
   2303 C1'       -36.9390   -3.2220   89.2640 C.3      73   G83       0.0191
   2304 N9        -37.6240   -4.2820   88.5310 N.ar     73   G83       0.0492
   2305 C8        -38.9720   -4.4200   88.3410 C.ar     73   G83       0.1374
   2306 N7        -39.2890   -5.5040   87.6850 N.ar     73   G83      -0.5709
   2307 C5        -38.0710   -6.1080   87.4160 C.ar     73   G83       0.1744
   2308 C6        -37.7750   -7.3120   86.7320 C.2      73   G83       0.4770
   2309 O6        -38.5470   -8.1040   86.2090 O.2      73   G83      -0.5597
   2310 N1        -36.4080   -7.5540   86.6910 N.am     73   G83      -0.4787
   2311 C2        -35.4500   -6.7450   87.2390 C.2      73   G83       0.7657
   2312 N2        -34.1810   -7.1590   87.1090 N.pl3    73   G83      -0.9672
   2313 N3        -35.7150   -5.6180   87.8730 N.2      73   G83      -0.6323
   2314 C4        -37.0340   -5.3630   87.9230 C.ar     73   G83       0.1222
   2315 H5'       -39.7387    0.0355   90.2805 H        73   G83       0.0679
   2316 H5''      -39.8165   -1.4278   91.2895 H        73   G83       0.0679
   2317 H4'       -37.4826   -0.7085   90.6428 H        73   G83       0.1174
   2318 H3'       -38.5056   -1.3989   87.8682 H        73   G83       0.0615
   2319 H2'       -36.3688   -2.3476   87.3603 H        73   G83       0.0972
   2320 H1'       -36.0598   -3.6421   89.7525 H        73   G83       0.2006
   2321 H8        -39.6995   -3.7056   88.6971 H        73   G83       0.1640
   2322 H1        -36.0970   -8.3918   86.2204 H        73   G83       0.3424
   2323 H21       -33.9785   -8.0226   86.6260 H        73   G83       0.4364
   2324 H22       -33.4278   -6.6072   87.4941 H        73   G83       0.4364
   2325 HO2'      -35.1040   -0.6850   88.4659 H        73   G83       0.4186
   2326 P         -38.1660    1.1660   87.3280 P.3      74   A84       1.1662
   2327 OP1       -38.9080    2.1010   88.2080 O.co2    74   A84      -0.7760
   2328 OP2       -38.9150    0.3110   86.3640 O.co2    74   A84      -0.7760
   2329 O5'       -37.0740    1.9520   86.4750 O.3      74   A84      -0.4989
   2330 C5'       -36.1070    2.8080   87.0730 C.3      74   A84       0.0558
   2331 C4'       -34.8730    2.8650   86.1950 C.3      74   A84       0.1065
   2332 O4'       -33.9390    1.8160   86.5610 O.3      74   A84      -0.3548
   2333 C3'       -35.1650    2.6470   84.7180 C.3      74   A84       0.2022
   2334 O3'       -35.5450    3.8820   84.1110 O.3      74   A84      -0.5246
   2335 C2'       -33.8520    2.0710   84.1850 C.3      74   A84       0.0670
   2336 O2'       -32.9080    3.0530   83.8090 O.3      74   A84      -0.6139
   2337 C1'       -33.3350    1.2800   85.3940 C.3      74   A84       0.0394
   2338 N9        -33.6370   -0.1500   85.3470 N.ar     74   A84      -0.0251
   2339 C8        -34.8730   -0.7360   85.3380 C.ar     74   A84       0.2006
   2340 N7        -34.8400   -2.0460   85.2620 N.ar     74   A84      -0.6073
   2341 C5        -33.4870   -2.3420   85.2260 C.ar     74   A84       0.0515
   2342 C6        -32.7840   -3.5600   85.1440 C.ar     74   A84       0.7009
   2343 N6        -33.3730   -4.7550   85.0670 N.pl3    74   A84      -0.9019
   2344 N1        -31.4350   -3.5040   85.1400 N.ar     74   A84      -0.7615
   2345 C2        -30.8450   -2.3100   85.2080 C.ar     74   A84       0.5875
   2346 N3        -31.3940   -1.0990   85.2860 N.ar     74   A84      -0.6997
   2347 C4        -32.7330   -1.1840   85.2880 C.ar     74   A84       0.3053
   2348 H5'       -36.5242    3.8094   87.1791 H        74   A84       0.0679
   2349 H5''      -35.8367    2.4208   88.0554 H        74   A84       0.0679
   2350 H4'       -34.3891    3.8333   86.3232 H        74   A84       0.1174
   2351 H3'       -35.9648    1.9155   84.6023 H        74   A84       0.0615
   2352 H2'       -34.0476    1.3978   83.3504 H        74   A84       0.0972
   2353 H1'       -32.2551    1.4100   85.4646 H        74   A84       0.2007
   2354 H8        -35.7926   -0.1720   85.3888 H        74   A84       0.1553
   2355 H2        -29.7652   -2.3275   85.1984 H        74   A84       0.0473
   2356 HO2'      -32.3119    3.2219   84.5423 H        74   A84       0.4186
   2357 H61       -34.2462   -4.5468   84.6042 H        74   A84       0.4115
   2358 H62       -33.0300   -5.6478   85.3916 H        74   A84       0.4115
   2359 P         -36.3970    3.8790   82.7450 P.3      75   A85       1.1662
   2360 OP1       -36.4360    5.2820   82.2530 O.co2    75   A85      -0.7760
   2361 OP2       -37.6750    3.1300   82.9090 O.co2    75   A85      -0.7760
   2362 O5'       -35.4750    3.0290   81.7730 O.3      75   A85      -0.4989
   2363 C5'       -36.0440    2.3150   80.7120 C.3      75   A85       0.0558
   2364 C4'       -36.0890    3.1850   79.5050 C.3      75   A85       0.1065
   2365 O4'       -34.7390    3.3680   78.9950 O.3      75   A85      -0.3548
   2366 C3'       -36.8550    2.4590   78.4210 C.3      75   A85       0.2022
   2367 O3'       -37.9520    3.2330   77.9580 O.3      75   A85      -0.5246
   2368 C2'       -35.8080    1.8230   77.5000 C.3      75   A85       0.0670
   2369 O2'       -36.1410    1.8390   76.1270 O.3      75   A85      -0.6139
   2370 C1'       -34.6080    2.7380   77.7420 C.3      75   A85       0.0394
   2371 N9        -33.2370    2.2580   77.5390 N.ar     75   A85      -0.0251
   2372 C8        -32.7280    0.9840   77.5360 C.ar     75   A85       0.2006
   2373 N7        -31.4510    0.9240   77.2250 N.ar     75   A85      -0.6073
   2374 C5        -31.0940    2.2480   77.0300 C.ar     75   A85       0.0515
   2375 C6        -29.8770    2.8610   76.6780 C.ar     75   A85       0.7009
   2376 N6        -28.7380    2.1910   76.4560 N.pl3    75   A85      -0.9019
   2377 N1        -29.8650    4.2070   76.5640 N.ar     75   A85      -0.7615
   2378 C2        -30.9950    4.8780   76.8000 C.ar     75   A85       0.5875
   2379 N3        -32.1940    4.4190   77.1440 N.ar     75   A85      -0.6997
   2380 C4        -32.1770    3.0810   77.2390 C.ar     75   A85       0.3053
   2381 H5'       -35.4409    1.4316   80.5022 H        75   A85       0.0679
   2382 H5''      -37.0558    2.0102   80.9792 H        75   A85       0.0679
   2383 H4'       -36.5525    4.1447   79.7336 H        75   A85       0.1174
   2384 H3'       -37.3155    1.6141   78.9331 H        75   A85       0.0615
   2385 H2'       -35.5830    0.8071   77.8248 H        75   A85       0.0972
   2386 H1'       -34.7266    3.5431   77.0168 H        75   A85       0.2007
   2387 H8        -33.3206    0.1113   77.7675 H        75   A85       0.1553
   2388 H2        -30.9244    5.9507   76.6962 H        75   A85       0.0473
   2389 H61       -28.2581    3.0408   76.1960 H        75   A85       0.4115
   2390 H62       -28.4668    1.2204   76.5224 H        75   A85       0.4115
   2391 HO2'      -36.7087    1.0913   75.9262 H        75   A85       0.4186
   2392 P         -38.9490    2.6530   76.8460 P.3      76   G86       1.1662
   2393 OP1       -40.2830    3.1150   77.3180 O.co2    76   G86      -0.7760
   2394 OP2       -38.7160    1.2040   76.5690 O.co2    76   G86      -0.7760
   2395 O5'       -38.5480    3.4830   75.5440 O.3      76   G86      -0.4989
   2396 C5'       -38.7990    4.8740   75.5050 C.3      76   G86       0.0558
   2397 C4'       -37.7900    5.5930   74.6400 C.3      76   G86       0.1065
   2398 O4'       -36.4640    5.6280   75.2370 O.3      76   G86      -0.3548
   2399 C3'       -37.4930    5.0940   73.2410 C.3      76   G86       0.2022
   2400 O3'       -38.5880    5.3610   72.3750 O.3      76   G86      -0.5246
   2401 C2'       -36.2960    5.9800   72.9020 C.3      76   G86       0.0670
   2402 O2'       -36.7050    7.3120   72.6500 O.3      76   G86      -0.6139
   2403 C1'       -35.5230    5.9670   74.2250 C.3      76   G86       0.0191
   2404 N9        -34.4540    4.9760   74.2190 N.ar     76   G86       0.0492
   2405 C8        -34.5270    3.6840   74.6630 C.ar     76   G86       0.1374
   2406 N7        -33.4210    3.0170   74.4880 N.ar     76   G86      -0.5709
   2407 C5        -32.5620    3.9300   73.9010 C.ar     76   G86       0.1744
   2408 C6        -31.2230    3.7800   73.4800 C.2      76   G86       0.4770
   2409 O6        -30.5130    2.7760   73.5360 O.2      76   G86      -0.5597
   2410 N1        -30.7190    4.9600   72.9420 N.am     76   G86      -0.4787
   2411 C2        -31.4240    6.1320   72.8180 C.2      76   G86       0.7657
   2412 N2        -30.7740    7.1570   72.2660 N.pl3    76   G86      -0.9672
   2413 N3        -32.6800    6.2830   73.2070 N.2      76   G86      -0.6323
   2414 C4        -33.1810    5.1480   73.7360 C.ar     76   G86       0.1222
   2415 H5'       -39.7969    5.0428   75.1003 H        76   G86       0.0679
   2416 H5''      -38.7515    5.2744   76.5177 H        76   G86       0.0679
   2417 H4'       -38.1264    6.6256   74.5468 H        76   G86       0.1174
   2418 H3'       -37.2257    4.0373   73.2384 H        76   G86       0.0615
   2419 H2'       -35.7063    5.5722   72.0810 H        76   G86       0.0972
   2420 H1'       -35.1092    6.9561   74.4212 H        76   G86       0.2006
   2421 H8        -35.4121    3.2595   75.1132 H        76   G86       0.1640
   2422 H1        -29.7623    4.9542   72.6182 H        76   G86       0.3424
   2423 H21       -29.8158    7.0452   71.9670 H        76   G86       0.4364
   2424 H22       -31.2399    8.0452   72.1469 H        76   G86       0.4364
   2425 HO2'      -36.4288    7.5706   71.7677 H        76   G86       0.4186
   2426 P         -38.5980    4.7580   70.8860 P.3      77   U87       1.1662
   2427 OP1       -39.8290    5.2670   70.2470 O.co2    77   U87      -0.7760
   2428 OP2       -38.3350    3.3010   70.9060 O.co2    77   U87      -0.7760
   2429 O5'       -37.3710    5.4700   70.1630 O.3      77   U87      -0.4989
   2430 C5'       -37.5230    6.7620   69.5870 C.3      77   U87       0.0558
   2431 C4'       -36.2760    7.1460   68.8360 C.3      77   U87       0.1065
   2432 O4'       -35.1430    7.0530   69.7400 O.3      77   U87      -0.3548
   2433 C3'       -35.8820    6.2390   67.6860 C.3      77   U87       0.2022
   2434 O3'       -36.6000    6.5750   66.5080 O.3      77   U87      -0.5246
   2435 C2'       -34.3990    6.5500   67.5660 C.3      77   U87       0.0670
   2436 O2'       -34.1650    7.8290   67.0350 O.3      77   U87      -0.6139
   2437 C1'       -34.0040    6.6070   69.0350 C.3      77   U87       0.0674
   2438 N1        -33.6010    5.3030   69.5780 N.am     77   U87       0.0418
   2439 C2        -32.3130    4.8810   69.3200 C.2      77   U87       0.4687
   2440 O2        -31.5310    5.5250   68.6500 O.2      77   U87      -0.5477
   2441 N3        -31.9730    3.6780   69.8700 N.am     77   U87      -0.3549
   2442 C4        -32.7710    2.8620   70.6270 C.2      77   U87       0.5952
   2443 O4        -32.3170    1.7950   71.0360 O.2      77   U87      -0.5761
   2444 C5        -34.1000    3.3540   70.8430 C.2      77   U87      -0.3635
   2445 C6        -34.4610    4.5310   70.3220 C.2      77   U87      -0.1126
   2446 H5'       -38.3687    6.7524   68.8994 H        77   U87       0.0679
   2447 H5''      -37.7077    7.4902   70.3768 H        77   U87       0.0679
   2448 H4'       -36.3699    8.1703   68.4753 H        77   U87       0.1174
   2449 H3'       -36.0375    5.1925   67.9482 H        77   U87       0.0615
   2450 H2'       -33.8582    5.7741   67.0241 H        77   U87       0.0972
   2451 H1'       -33.1920    7.3223   69.1659 H        77   U87       0.1824
   2452 H3        -31.0312    3.3552   69.7001 H        77   U87       0.3154
   2453 H5        -34.8053    2.7773   71.4231 H        77   U87       0.1811
   2454 H6        -35.4658    4.8886   70.4920 H        77   U87       0.2188
   2455 HO2'      -34.4020    7.8381   66.1048 H        77   U87       0.4186
   2456 P         -37.0920    5.3130   65.5550 P.3      78   U88       1.1662
   2457 OP1       -38.1070    5.8500   64.6140 O.co2    78   U88      -0.7760
   2458 OP2       -37.4400    4.1610   66.4260 O.co2    78   U88      -0.7760
   2459 O5'       -35.7930    4.9210   64.7020 O.3      78   U88      -0.4989
   2460 C5'       -35.0220    5.9110   64.0260 C.3      78   U88       0.0558
   2461 C4'       -33.6050    5.4190   63.7730 C.3      78   U88       0.1065
   2462 O4'       -32.9270    5.2050   65.0360 O.3      78   U88      -0.3548
   2463 C3'       -33.4940    4.0800   63.0550 C.3      78   U88       0.2022
   2464 O3'       -33.5510    4.2670   61.6500 O.3      78   U88      -0.6541
   2465 C2'       -32.1070    3.6200   63.4830 C.3      78   U88       0.0670
   2466 O2'       -31.0900    4.2300   62.7160 O.3      78   U88      -0.6139
   2467 C1'       -32.0440    4.1040   64.9280 C.3      78   U88       0.0674
   2468 N1        -32.4270    3.0650   65.9330 N.am     78   U88       0.0418
   2469 C2        -31.4670    2.1770   66.3690 C.2      78   U88       0.4687
   2470 O2        -30.3180    2.1980   65.9650 O.2      78   U88      -0.5477
   2471 N3        -31.9050    1.2590   67.2940 N.am     78   U88      -0.3549
   2472 C4        -33.1810    1.1490   67.8160 C.2      78   U88       0.5952
   2473 O4        -33.4290    0.2780   68.6440 O.2      78   U88      -0.5761
   2474 C5        -34.1290    2.1130   67.3160 C.2      78   U88      -0.3635
   2475 C6        -33.7220    3.0140   66.4130 C.2      78   U88      -0.1126
   2476 H5'       -34.9825    6.8117   64.6387 H        78   U88       0.0679
   2477 H5''      -35.4959    6.1458   63.0729 H        78   U88       0.0679
   2478 H4'       -33.0635    6.1737   63.2027 H        78   U88       0.1174
   2479 H3'       -34.2628    3.3852   63.3929 H        78   U88       0.0615
   2480 H2'       -32.0282    2.5339   63.4354 H        78   U88       0.0972
   2481 H1'       -31.0305    4.4435   65.1416 H        78   U88       0.1824
   2482 H3        -31.2221    0.5940   67.6279 H        78   U88       0.3154
   2483 H5        -35.1513    2.1086   67.6642 H        78   U88       0.1811
   2484 H6        -34.4378    3.7332   66.0432 H        78   U88       0.2188
   2485 HO3'      -33.4800    3.4165   61.2104 H        78   U88       0.4376
   2486 HO2'      -31.1408    3.9172   61.8098 H        78   U88       0.4186
   2487 O5'        35.1200    7.4790  154.6140 O.3      79   G11      -0.6223
   2488 C5'        36.3280    8.0700  154.0980 C.3      79   G11       0.0558
   2489 C4'        37.4210    7.0310  154.0130 C.3      79   G11       0.1065
   2490 O4'        38.2940    7.1600  155.1690 O.3      79   G11      -0.3548
   2491 C3'        36.9500    5.5820  154.0070 C.3      79   G11       0.2022
   2492 O3'        36.7820    5.1150  152.6730 O.3      79   G11      -0.5246
   2493 C2'        38.0970    4.8560  154.7000 C.3      79   G11       0.0670
   2494 O2'        39.1730    4.5570  153.8340 O.3      79   G11      -0.6139
   2495 C1'        38.5190    5.8870  155.7440 C.3      79   G11       0.0191
   2496 N9         37.7520    5.8050  156.9830 N.ar     79   G11       0.0492
   2497 C8         36.7910    6.6830  157.4210 C.ar     79   G11       0.1374
   2498 N7         36.2750    6.3460  158.5720 N.ar     79   G11      -0.5709
   2499 C5         36.9360    5.1740  158.9150 C.ar     79   G11       0.1744
   2500 C6         36.8010    4.3430  160.0570 C.2      79   G11       0.4770
   2501 O6         36.0460    4.4810  161.0270 O.2      79   G11      -0.5597
   2502 N1         37.6660    3.2550  160.0010 N.am     79   G11      -0.4787
   2503 C2         38.5460    2.9970  158.9800 C.2      79   G11       0.7657
   2504 N2         39.2970    1.8930  159.1110 N.pl3    79   G11      -0.9672
   2505 N3         38.6810    3.7630  157.9100 N.2      79   G11      -0.6323
   2506 C4         37.8510    4.8270  157.9430 C.ar     79   G11       0.1222
   2507 H5'        36.6468    8.8746  154.7607 H        79   G11       0.0679
   2508 H5''       36.1363    8.4749  153.1043 H        79   G11       0.0679
   2509 H4'        38.0060    7.2121  153.1113 H        79   G11       0.1174
   2510 H3'        36.0253    5.4737  154.5738 H        79   G11       0.0615
   2511 H2'        37.7356    3.9492  155.1851 H        79   G11       0.0972
   2512 H1'        39.5800    5.7692  155.9640 H        79   G11       0.2006
   2513 H8         36.4926    7.5624  156.8696 H        79   G11       0.1640
   2514 H1         37.6447    2.6036  160.7726 H        79   G11       0.3424
   2515 H21        39.1953    1.3070  159.9273 H        79   G11       0.4364
   2516 H22        39.9641    1.6479  158.3933 H        79   G11       0.4364
   2517 HO2'       39.0458    3.6845  153.4542 H        79   G11       0.4186
   2518 HO5'       34.3193    7.9996  154.7110 H        79   G11       0.4295
   2519 P          35.9590    3.7720  152.3930 P.3      80   A12       1.1662
   2520 OP1        35.9890    3.5110  150.9320 O.co2    80   A12      -0.7760
   2521 OP2        34.6540    3.8790  153.0940 O.co2    80   A12      -0.7760
   2522 O5'        36.8330    2.6560  153.1200 O.3      80   A12      -0.4989
   2523 C5'        37.9690    2.0630  152.4630 C.3      80   A12       0.0558
   2524 C4'        38.4480    0.8580  153.2360 C.3      80   A12       0.1065
   2525 O4'        38.8500    1.2750  154.5700 O.3      80   A12      -0.3548
   2526 C3'        37.4130   -0.2470  153.4380 C.3      80   A12       0.2022
   2527 O3'        37.5170   -1.2250  152.4090 O.3      80   A12      -0.5246
   2528 C2'        37.8090   -0.8320  154.7890 C.3      80   A12       0.0670
   2529 O2'        38.8600   -1.7730  154.7040 O.3      80   A12      -0.6139
   2530 C1'        38.2680    0.4190  155.5350 C.3      80   A12       0.0394
   2531 N9         37.1750    1.1400  156.1860 N.ar     80   A12      -0.0251
   2532 C8         36.5990    2.3240  155.7960 C.ar     80   A12       0.2006
   2533 N7         35.6330    2.7270  156.5850 N.ar     80   A12      -0.6073
   2534 C5         35.5680    1.7420  157.5610 C.ar     80   A12       0.0515
   2535 C6         34.7460    1.5830  158.6910 C.ar     80   A12       0.7009
   2536 N6         33.7930    2.4490  159.0420 N.pl3    80   A12      -0.9019
   2537 N1         34.9400    0.4880  159.4580 N.ar     80   A12      -0.7615
   2538 C2         35.8960   -0.3800  159.1050 C.ar     80   A12       0.5875
   2539 N3         36.7310   -0.3400  158.0690 N.ar     80   A12      -0.6997
   2540 C4         36.5120    0.7590  157.3270 C.ar     80   A12       0.3053
   2541 H5'        37.6829    1.7550  151.4573 H        80   A12       0.0679
   2542 H5''       38.7736    2.7957  152.4012 H        80   A12       0.0679
   2543 H4'        39.3141    0.4368  152.7255 H        80   A12       0.1174
   2544 H3'        36.4060    0.1685  153.4765 H        80   A12       0.0615
   2545 H2'        36.9424   -1.2727  155.2818 H        80   A12       0.0972
   2546 H1'        39.0171    0.1455  156.2780 H        80   A12       0.2007
   2547 H8         36.9129    2.8724  154.9202 H        80   A12       0.1553
   2548 H2         36.0057   -1.2361  159.7542 H        80   A12       0.0473
   2549 H61        33.6302    3.2746  158.4834 H        80   A12       0.4115
   2550 H62        33.2346    2.2788  159.8662 H        80   A12       0.4115
   2551 HO2'       38.5553   -2.5521  154.2330 H        80   A12       0.4186
   2552 P          36.1970   -1.9200  151.8300 P.3      81   C13       1.1662
   2553 OP1        36.4980   -2.4600  150.4810 O.co2    81   C13      -0.7760
   2554 OP2        35.0530   -0.9900  152.0080 O.co2    81   C13      -0.7760
   2555 O5'        35.9700   -3.1570  152.8030 O.3      81   C13      -0.4989
   2556 C5'        36.9470   -4.1840  152.9360 C.3      81   C13       0.0558
   2557 C4'        36.5690   -5.1020  154.0720 C.3      81   C13       0.1065
   2558 O4'        36.6940   -4.3890  155.3360 O.3      81   C13      -0.3548
   2559 C3'        35.1240   -5.5760  154.0630 C.3      81   C13       0.2022
   2560 O3'        34.9550   -6.7040  153.2270 O.3      81   C13      -0.5246
   2561 C2'        34.9100   -5.9400  155.5220 C.3      81   C13       0.0670
   2562 O2'        35.4980   -7.1890  155.8340 O.3      81   C13      -0.6139
   2563 C1'        35.6650   -4.8060  156.2260 C.3      81   C13       0.0066
   2564 N1         34.7960   -3.6490  156.5020 N.am     81   C13      -0.0484
   2565 C2         33.8380   -3.7530  157.5090 C.2      81   C13       0.7538
   2566 O2         33.7900   -4.7860  158.1740 O.2      81   C13      -0.6252
   2567 N3         32.9920   -2.7180  157.7310 N.2      81   C13      -0.7584
   2568 C4         33.0940   -1.6040  156.9990 C.2      81   C13       0.8185
   2569 N4         32.2430   -0.6150  157.2440 N.pl3    81   C13      -0.9530
   2570 C5         34.0770   -1.4600  155.9840 C.2      81   C13      -0.5215
   2571 C6         34.9030   -2.4960  155.7710 C.2      81   C13       0.0053
   2572 H5'        36.9991   -4.7564  152.0099 H        81   C13       0.0679
   2573 H5''       37.9192   -3.7355  153.1403 H        81   C13       0.0679
   2574 H4'        37.2336   -5.9659  154.0761 H        81   C13       0.1174
   2575 H3'        34.4546   -4.7695  153.7638 H        81   C13       0.0615
   2576 H2'        33.8510   -5.9277  155.7798 H        81   C13       0.0972
   2577 H1'        36.1028   -5.1717  157.1548 H        81   C13       0.2029
   2578 H5         34.1567   -0.5514  155.4057 H        81   C13       0.1928
   2579 H6         35.6653   -2.4191  155.0099 H        81   C13       0.1958
   2580 H41        31.5442   -0.7173  157.9660 H        81   C13       0.4234
   2581 H42        32.2944    0.2397  156.7084 H        81   C13       0.4234
   2582 HO2'       35.0171   -7.8900  155.3879 H        81   C13       0.4186
   2583 P          33.6480   -6.8180  152.3040 P.3      82   U14       1.1662
   2584 OP1        33.9000   -7.9310  151.3530 O.co2    82   U14      -0.7760
   2585 OP2        33.3330   -5.4600  151.7810 O.co2    82   U14      -0.7760
   2586 O5'        32.4760   -7.2540  153.2930 O.3      82   U14      -0.4989
   2587 C5'        32.4930   -8.5280  153.9340 C.3      82   U14       0.0558
   2588 C4'        31.5890   -8.5320  155.1550 C.3      82   U14       0.1065
   2589 O4'        32.0000   -7.4920  156.0930 O.3      82   U14      -0.3548
   2590 C3'        30.1150   -8.2340  154.9220 C.3      82   U14       0.2022
   2591 O3'        29.4020   -9.3670  154.4500 O.3      82   U14      -0.5246
   2592 C2'        29.6530   -7.8260  156.3170 C.3      82   U14       0.0670
   2593 O2'        29.4290   -8.9200  157.1750 O.3      82   U14      -0.6139
   2594 C1'        30.8590   -7.0270  156.8110 C.3      82   U14       0.0674
   2595 N1         30.6730   -5.5950  156.5460 N.am     82   U14       0.0418
   2596 C2         29.8160   -4.8990  157.3770 C.2      82   U14       0.4687
   2597 O2         29.2370   -5.4150  158.3200 O.2      82   U14      -0.5477
   2598 N3         29.6570   -3.5760  157.0610 N.am     82   U14      -0.3549
   2599 C4         30.2560   -2.8930  156.0270 C.2      82   U14       0.5952
   2600 O4         30.0000   -1.7020  155.8650 O.2      82   U14      -0.5761
   2601 C5         31.1350   -3.6770  155.2240 C.2      82   U14      -0.3635
   2602 C6         31.3100   -4.9700  155.5040 C.2      82   U14      -0.1126
   2603 H5'        32.1467   -9.2858  153.2311 H        82   U14       0.0679
   2604 H5''       33.5123   -8.7620  154.2411 H        82   U14       0.0679
   2605 H4'        31.6748   -9.5000  155.6487 H        82   U14       0.1174
   2606 H3'        30.0029   -7.4009  154.2281 H        82   U14       0.0615
   2607 H2'        28.7677   -7.1927  156.2603 H        82   U14       0.0972
   2608 H1'        31.0006   -7.1913  157.8792 H        82   U14       0.1824
   2609 H3         29.0327   -3.0440  157.6504 H        82   U14       0.3154
   2610 H5         31.6570   -3.2266  154.3927 H        82   U14       0.1811
   2611 H6         31.9804   -5.5479  154.8851 H        82   U14       0.2188
   2612 HO2'       28.6095   -8.7867  157.6570 H        82   U14       0.4186
   2613 P          28.0440   -9.1560  153.6150 P.3      83   C15       1.1662
   2614 OP1        27.5480  -10.5000  153.2220 O.co2    83   C15      -0.7760
   2615 OP2        28.3160   -8.1310  152.5620 O.co2    83   C15      -0.7760
   2616 O5'        27.0080   -8.5650  154.6780 O.3      83   C15      -0.4989
   2617 C5'        26.3690   -9.4300  155.6160 C.3      83   C15       0.0558
   2618 C4'        25.5050   -8.6490  156.5940 C.3      83   C15       0.1065
   2619 O4'        26.3010   -7.6160  157.2470 O.3      83   C15      -0.3548
   2620 C3'        24.3310   -7.8310  156.0750 C.3      83   C15       0.2022
   2621 O3'        23.1790   -8.5840  155.7220 O.3      83   C15      -0.5246
   2622 C2'        24.0320   -6.9830  157.3000 C.3      83   C15       0.0670
   2623 O2'        23.4500   -7.7410  158.3380 O.3      83   C15      -0.6139
   2624 C1'        25.4420   -6.5760  157.7050 C.3      83   C15       0.0066
   2625 N1         25.7860   -5.3160  157.0310 N.am     83   C15      -0.0484
   2626 C2         25.3710   -4.1220  157.6240 C.2      83   C15       0.7538
   2627 O2         24.7430   -4.1740  158.6920 O.2      83   C15      -0.6252
   2628 N3         25.6550   -2.9450  157.0220 N.2      83   C15      -0.7584
   2629 C4         26.3230   -2.9320  155.8710 C.2      83   C15       0.8185
   2630 N4         26.5770   -1.7470  155.3170 N.pl3    83   C15      -0.9530
   2631 C5         26.7590   -4.1370  155.2390 C.2      83   C15      -0.5215
   2632 C6         26.4730   -5.2970  155.8510 C.2      83   C15       0.0053
   2633 H5'        25.7405  -10.1372  155.0747 H        83   C15       0.0679
   2634 H5''       27.1294   -9.9796  156.1709 H        83   C15       0.0679
   2635 H4'        25.1377   -9.3362  157.3562 H        83   C15       0.1174
   2636 H3'        24.6441   -7.2008  155.2426 H        83   C15       0.0615
   2637 H2'        23.4221   -6.1157  157.0473 H        83   C15       0.0972
   2638 H1'        25.5146   -6.4657  158.7870 H        83   C15       0.2029
   2639 H5         27.2986   -4.1153  154.3037 H        83   C15       0.1928
   2640 H6         26.7904   -6.2276  155.4042 H        83   C15       0.1958
   2641 H41        26.2650   -0.9002  155.7706 H        83   C15       0.4234
   2642 H42        27.0815   -1.6956  154.4435 H        83   C15       0.4234
   2643 HO2'       22.7943   -7.2083  158.7940 H        83   C15       0.4186
   2644 P          22.0780   -7.9290  154.7390 P.3      84   G16       1.1662
   2645 OP1        21.0820   -9.0010  154.4620 O.co2    84   G16      -0.7760
   2646 OP2        22.7500   -7.2260  153.6090 O.co2    84   G16      -0.7760
   2647 O5'        21.3900   -6.7840  155.6020 O.3      84   G16      -0.4989
   2648 C5'        20.8300   -7.0710  156.8700 C.3      84   G16       0.0558
   2649 C4'        20.3560   -5.8020  157.5310 C.3      84   G16       0.1065
   2650 O4'        21.4730   -4.8970  157.7490 O.3      84   G16      -0.3548
   2651 C3'        19.3860   -4.9330  156.7560 C.3      84   G16       0.2022
   2652 O3'        18.0640   -5.4610  156.8050 O.3      84   G16      -0.5246
   2653 C2'        19.4840   -3.6470  157.5580 C.3      84   G16       0.0670
   2654 O2'        18.8460   -3.8160  158.8080 O.3      84   G16      -0.6139
   2655 C1'        20.9930   -3.5630  157.7860 C.3      84   G16       0.0191
   2656 N9         21.6780   -2.7940  156.7520 N.ar     84   G16       0.0492
   2657 C8         22.4790   -3.2770  155.7450 C.ar     84   G16       0.1374
   2658 N7         22.9580   -2.3370  154.9770 N.ar     84   G16      -0.5709
   2659 C5         22.4390   -1.1630  155.5090 C.ar     84   G16       0.1744
   2660 C6         22.6100    0.1990  155.1050 C.2      84   G16       0.4770
   2661 O6         23.2700    0.6530  154.1590 O.2      84   G16      -0.5597
   2662 N1         21.9080    1.0660  155.9340 N.am     84   G16      -0.4787
   2663 C2         21.1380    0.6820  157.0030 C.2      84   G16       0.7657
   2664 N2         20.5360    1.6600  157.6740 N.pl3    84   G16      -0.9672
   2665 N3         20.9720   -0.5710  157.3850 N.2      84   G16      -0.6323
   2666 C4         21.6460   -1.4320  156.6020 C.ar     84   G16       0.1222
   2667 H5'        19.9853   -7.7485  156.7450 H        84   G16       0.0679
   2668 H5''       21.5836   -7.5456  157.4984 H        84   G16       0.0679
   2669 H4'        19.9121   -6.0517  158.4947 H        84   G16       0.1174
   2670 H3'        19.7176   -4.7865  155.7280 H        84   G16       0.0615
   2671 H2'        19.0996   -2.7869  157.0098 H        84   G16       0.0972
   2672 H1'        21.1941   -3.1261  158.7641 H        84   G16       0.2006
   2673 H8         22.6903   -4.3267  155.6038 H        84   G16       0.1640
   2674 H1         21.9693    2.0542  155.7344 H        84   G16       0.3424
   2675 H21        20.6596    2.6202  157.3863 H        84   G16       0.4364
   2676 H22        19.9553    1.4424  158.4712 H        84   G16       0.4364
   2677 HO2'       19.2072   -4.5880  159.2498 H        84   G16       0.4186
   2678 P          16.9560   -4.9310  155.7670 P.3      85   G17       1.1662
   2679 OP1        15.7020   -5.6620  156.0720 O.co2    85   G17      -0.7760
   2680 OP2        17.5250   -4.9930  154.3940 O.co2    85   G17      -0.7760
   2681 O5'        16.7310   -3.4180  156.2220 O.3      85   G17      -0.4989
   2682 C5'        16.2480   -3.1370  157.5380 C.3      85   G17       0.0558
   2683 C4'        16.0710   -1.6460  157.7470 C.3      85   G17       0.1065
   2684 O4'        17.3590   -0.9710  157.6790 O.3      85   G17      -0.3548
   2685 C3'        15.2340   -0.8970  156.7220 C.3      85   G17       0.2022
   2686 O3'        13.8400   -1.0490  156.9290 O.3      85   G17      -0.5246
   2687 C2'        15.6720    0.5320  156.9780 C.3      85   G17       0.0670
   2688 O2'        15.0880    1.0390  158.1600 O.3      85   G17      -0.6139
   2689 C1'        17.1780    0.3380  157.1630 C.3      85   G17       0.0191
   2690 N9         17.8950    0.4290  155.8960 N.ar     85   G17       0.0492
   2691 C8         18.4900   -0.5930  155.2110 C.ar     85   G17       0.1374
   2692 N7         19.0590   -0.2020  154.1030 N.ar     85   G17      -0.5709
   2693 C5         18.8220    1.1620  154.0560 C.ar     85   G17       0.1744
   2694 C6         19.1920    2.1270  153.0840 C.2      85   G17       0.4770
   2695 O6         19.8220    1.9630  152.0440 O.2      85   G17      -0.5597
   2696 N1         18.7440    3.3960  153.4220 N.am     85   G17      -0.4787
   2697 C2         18.0310    3.7000  154.5520 C.2      85   G17       0.7657
   2698 N2         17.6870    4.9840  154.7120 N.pl3    85   G17      -0.9672
   2699 N3         17.6780    2.8110  155.4650 N.2      85   G17      -0.6323
   2700 C4         18.1050    1.5680  155.1540 C.ar     85   G17       0.1222
   2701 H5'        15.2873   -3.6326  157.6780 H        85   G17       0.0679
   2702 H5''       16.9589   -3.5198  158.2702 H        85   G17       0.0679
   2703 H4'        15.6423   -1.4807  158.7354 H        85   G17       0.1174
   2704 H3'        15.5049   -1.2034  155.7116 H        85   G17       0.0615
   2705 H2'        15.4565    1.1724  156.1227 H        85   G17       0.0972
   2706 H1'        17.5665    1.0745  157.8664 H        85   G17       0.2006
   2707 H8         18.4895   -1.6180  155.5511 H        85   G17       0.1640
   2708 H1         18.9595    4.1520  152.7879 H        85   G17       0.3424
   2709 H21        17.9536    5.6684  154.0187 H        85   G17       0.4364
   2710 H22        17.1609    5.2682  155.5260 H        85   G17       0.4364
   2711 HO2'       14.9412    1.9830  158.0655 H        85   G17       0.4186
   2712 P          12.8530   -1.0710  155.6590 P.3      86   G18       1.1662
   2713 OP1        11.4860   -1.3130  156.1800 O.co2    86   G18      -0.7760
   2714 OP2        13.4090   -1.9670  154.5970 O.co2    86   G18      -0.7760
   2715 O5'        12.8790    0.4320  155.1250 O.3      86   G18      -0.4989
   2716 C5'        12.4130    1.5090  155.9480 C.3      86   G18       0.0558
   2717 C4'        12.5290    2.8250  155.2190 C.3      86   G18       0.1065
   2718 O4'        13.9210    3.1230  154.9380 O.3      86   G18      -0.3548
   2719 C3'        11.8720    2.8610  153.8550 C.3      86   G18       0.2022
   2720 O3'        10.4660    3.0670  154.0070 O.3      86   G18      -0.5246
   2721 C2'        12.6020    4.0210  153.1720 C.3      86   G18       0.0670
   2722 O2'        12.1420    5.3070  153.5190 O.3      86   G18      -0.6139
   2723 C1'        14.0070    3.8930  153.7530 C.3      86   G18       0.0191
   2724 N9         14.9710    3.2950  152.8330 N.ar     86   G18       0.0492
   2725 C8         15.3560    1.9810  152.7360 C.ar     86   G18       0.1374
   2726 N7         16.2330    1.7750  151.7920 N.ar     86   G18      -0.5709
   2727 C5         16.4420    3.0270  151.2370 C.ar     86   G18       0.1744
   2728 C6         17.2900    3.4340  150.1750 C.2      86   G18       0.4770
   2729 O6         18.0530    2.7500  149.4960 O.2      86   G18      -0.5597
   2730 N1         17.1940    4.7980  149.9350 N.am     86   G18      -0.4787
   2731 C2         16.3870    5.6680  150.6360 C.2      86   G18       0.7657
   2732 N2         16.4400    6.9640  150.2710 N.pl3    86   G18      -0.9672
   2733 N3         15.5920    5.3000  151.6270 N.2      86   G18      -0.6323
   2734 C4         15.6710    3.9740  151.8700 C.ar     86   G18       0.1222
   2735 H5'        13.0125    1.5497  156.8574 H        86   G18       0.0679
   2736 H5''       11.3699    1.3347  156.2121 H        86   G18       0.0679
   2737 H4'        12.1107    3.6172  155.8398 H        86   G18       0.1174
   2738 H3'        12.0610    1.9299  153.3208 H        86   G18       0.0615
   2739 H2'        12.6144    3.8904  152.0899 H        86   G18       0.0972
   2740 H1'        14.3598    4.8898  154.0177 H        86   G18       0.2006
   2741 H8         14.9728    1.1989  153.3747 H        86   G18       0.1640
   2742 H1         17.7582    5.1818  149.1904 H        86   G18       0.3424
   2743 H21        17.0472    7.2519  149.5170 H        86   G18       0.4364
   2744 H22        15.8725    7.6476  150.7514 H        86   G18       0.4364
   2745 HO2'       11.7600    5.7300  152.7465 H        86   G18       0.4186
   2746 P           9.4790    2.7900  152.7710 P.3      87   G19       1.1662
   2747 OP1         8.0800    2.8740  153.2810 O.co2    87   G19      -0.7760
   2748 OP2         9.9260    1.5730  152.0520 O.co2    87   G19      -0.7760
   2749 O5'         9.7130    4.0400  151.8190 O.3      87   G19      -0.4989
   2750 C5'         9.2250    5.3270  152.1900 C.3      87   G19       0.0558
   2751 C4'         9.5160    6.3200  151.1030 C.3      87   G19       0.1065
   2752 O4'        10.9520    6.4820  150.9760 O.3      87   G19      -0.3548
   2753 C3'         9.0680    5.8920  149.7200 C.3      87   G19       0.2022
   2754 O3'         7.7030    6.2390  149.5370 O.3      87   G19      -0.5246
   2755 C2'         9.9810    6.7360  148.8460 C.3      87   G19       0.0670
   2756 O2'         9.5680    8.0880  148.8480 O.3      87   G19      -0.6139
   2757 C1'        11.2950    6.6480  149.6190 C.3      87   G19       0.0191
   2758 N9         12.1550    5.5340  149.2360 N.ar     87   G19       0.0492
   2759 C8         11.9900    4.1980  149.5200 C.ar     87   G19       0.1374
   2760 N7         12.9670    3.4550  149.0740 N.ar     87   G19      -0.5709
   2761 C5         13.8170    4.3550  148.4530 C.ar     87   G19       0.1744
   2762 C6         15.0420    4.1490  147.7870 C.2      87   G19       0.4770
   2763 O6         15.6520    3.0910  147.6040 O.2      87   G19      -0.5597
   2764 N1         15.5660    5.3440  147.3020 N.am     87   G19      -0.4787
   2765 C2         14.9820    6.5800  147.4420 C.2      87   G19       0.7657
   2766 N2         15.6390    7.6210  146.9140 N.pl3    87   G19      -0.9672
   2767 N3         13.8410    6.7810  148.0550 N.2      87   G19      -0.6323
   2768 C4         13.3190    5.6380  148.5350 C.ar     87   G19       0.1222
   2769 H5'         9.7135    5.6464  153.1106 H        87   G19       0.0679
   2770 H5''        8.1484    5.2728  152.3518 H        87   G19       0.0679
   2771 H4'         9.0615    7.2786  151.3533 H        87   G19       0.1174
   2772 H3'         9.2340    4.8269  149.5587 H        87   G19       0.0615
   2773 H2'        10.0701    6.3347  147.8365 H        87   G19       0.0972
   2774 H1'        11.8441    7.5820  149.4998 H        87   G19       0.2006
   2775 H8         11.1397    3.8041  150.0568 H        87   G19       0.1640
   2776 H1         16.4457    5.2990  146.8077 H        87   G19       0.3424
   2777 H21        16.5192    7.4752  146.4406 H        87   G19       0.4364
   2778 H22        15.2542    8.5518  146.9893 H        87   G19       0.4364
   2779 HO2'        9.5386    8.4154  147.9460 H        87   G19       0.4186
   2780 P           6.7490    5.2930  148.6700 P.3      88   U20       1.1662
   2781 OP1         5.3570    5.7740  148.8320 O.co2    88   U20      -0.7760
   2782 OP2         7.0870    3.8860  148.9830 O.co2    88   U20      -0.7760
   2783 O5'         7.1540    5.6200  147.1740 O.3      88   U20      -0.4989
   2784 C5'         6.9060    6.8990  146.6240 C.3      88   U20       0.0558
   2785 C4'         7.7970    7.1150  145.4320 C.3      88   U20       0.1065
   2786 O4'         9.1740    6.9460  145.8610 O.3      88   U20      -0.3548
   2787 C3'         7.6260    6.1170  144.2940 C.3      88   U20       0.2022
   2788 O3'         6.6310    6.5900  143.3870 O.3      88   U20      -0.5246
   2789 C2'         8.9910    6.1770  143.6150 C.3      88   U20       0.0670
   2790 O2'         9.0690    7.2760  142.7430 O.3      88   U20      -0.6139
   2791 C1'         9.9380    6.4090  144.7990 C.3      88   U20       0.0674
   2792 N1         10.5820    5.1790  145.2720 N.am     88   U20       0.0418
   2793 C2         11.9040    4.9880  144.9450 C.2      88   U20       0.4687
   2794 O2         12.5470    5.8070  144.3180 O.2      88   U20      -0.5477
   2795 N3         12.4480    3.8060  145.3860 N.am     88   U20      -0.3549
   2796 C4         11.8120    2.8260  146.1160 C.2      88   U20       0.5952
   2797 O4         12.4230    1.8040  146.4220 O.2      88   U20      -0.5761
   2798 C5         10.4470    3.1090  146.4280 C.2      88   U20      -0.3635
   2799 C6          9.8920    4.2470  146.0040 C.2      88   U20      -0.1126
   2800 H5'         5.8630    6.9648  146.3142 H        88   U20       0.0679
   2801 H5''        7.1111    7.6629  147.3740 H        88   U20       0.0679
   2802 H4'         7.6565    8.1269  145.0520 H        88   U20       0.1174
   2803 H3'         7.3984    5.1164  144.6615 H        88   U20       0.0615
   2804 H2'         9.2199    5.2440  143.0999 H        88   U20       0.0972
   2805 H1'        10.7051    7.1273  144.5097 H        88   U20       0.1824
   2806 H3         13.4156    3.6379  145.1503 H        88   U20       0.3154
   2807 H5          9.8659    2.4048  147.0049 H        88   U20       0.1811
   2808 H6          8.8579    4.4413  146.2474 H        88   U20       0.2188
   2809 HO2'        8.5480    8.0013  143.0953 H        88   U20       0.4186
   2810 P           5.3320    5.6900  143.0460 P.3      89   G21       1.1662
   2811 OP1         5.1890    4.6650  144.1190 O.co2    89   G21      -0.7760
   2812 OP2         5.3650    5.2740  141.6160 O.co2    89   G21      -0.7760
   2813 O5'         4.1170    6.7120  143.1830 O.3      89   G21      -0.4989
   2814 C5'         3.5440    6.9780  144.4510 C.3      89   G21       0.0558
   2815 C4'         3.5030    8.4630  144.7030 C.3      89   G21       0.1065
   2816 O4'         4.8440    9.0340  144.7000 O.3      89   G21      -0.3548
   2817 C3'         2.8220    9.2960  143.6400 C.3      89   G21       0.2022
   2818 O3'         1.4210    9.1870  143.7110 O.3      89   G21      -0.5246
   2819 C2'         3.3040   10.6920  144.0090 C.3      89   G21       0.0670
   2820 O2'         2.6920   11.1990  145.1760 O.3      89   G21      -0.6139
   2821 C1'         4.7630   10.4050  144.3340 C.3      89   G21       0.0191
   2822 N9          5.6170   10.6590  143.1810 N.ar     89   G21       0.0492
   2823 C8          6.3740    9.7680  142.4580 C.ar     89   G21       0.1374
   2824 N7          7.0820   10.3450  141.5240 N.ar     89   G21      -0.5709
   2825 C5          6.7590   11.6930  141.6320 C.ar     89   G21       0.1744
   2826 C6          7.2220   12.8250  140.8990 C.2      89   G21       0.4770
   2827 O6          8.0530   12.8720  139.9750 O.2      89   G21      -0.5597
   2828 N1          6.6220   13.9970  141.3430 N.am     89   G21      -0.4787
   2829 C2          5.7030   14.0810  142.3510 C.2      89   G21       0.7657
   2830 N2          5.2460   15.3100  142.6300 N.pl3    89   G21      -0.9672
   2831 N3          5.2660   13.0430  143.0360 N.2      89   G21      -0.6323
   2832 C4          5.8380   11.8940  142.6320 C.ar     89   G21       0.1222
   2833 H5'         4.1436    6.4982  145.2246 H        89   G21       0.0679
   2834 H5''        2.5302    6.5786  144.4801 H        89   G21       0.0679
   2835 H4'         3.0318    8.6528  145.6674 H        89   G21       0.1174
   2836 H3'         3.1782    9.0173  142.6483 H        89   G21       0.0615
   2837 H2'         3.2078   11.3840  143.1724 H        89   G21       0.0972
   2838 H1'         5.0816   11.0272  145.1704 H        89   G21       0.2006
   2839 H8          6.3825    8.7039  142.6425 H        89   G21       0.1640
   2840 H1          6.8865   14.8566  140.8835 H        89   G21       0.3424
   2841 H21         5.5821   16.1049  142.1053 H        89   G21       0.4364
   2842 H22         4.5656   15.4410  143.3649 H        89   G21       0.4364
   2843 HO2'        1.7681   11.3886  144.9968 H        89   G21       0.4186
   2844 P           0.5640    9.4870  142.4090 P.3      90   C22       1.1662
   2845 OP1        -0.8390    9.2090  142.7810 O.co2    90   C22      -0.7760
   2846 OP2         1.1740    8.8020  141.2450 O.co2    90   C22      -0.7760
   2847 O5'         0.7480   11.0520  142.1980 O.3      90   C22      -0.4989
   2848 C5'         0.0440   11.9770  143.0070 C.3      90   C22       0.0558
   2849 C4'         0.2300   13.3620  142.4680 C.3      90   C22       0.1065
   2850 O4'         1.6520   13.6050  142.3550 O.3      90   C22      -0.3548
   2851 C3'        -0.2640   13.5870  141.0550 C.3      90   C22       0.2022
   2852 O3'        -1.6540   13.8720  141.0270 O.3      90   C22      -0.5246
   2853 C2'         0.5670   14.7870  140.6160 C.3      90   C22       0.0670
   2854 O2'         0.0870   16.0030  141.1540 O.3      90   C22      -0.6139
   2855 C1'         1.9100   14.4620  141.2590 C.3      90   C22       0.0066
   2856 N1          2.8820   13.7990  140.3800 N.am     90   C22      -0.0484
   2857 C2          3.7280   14.5890  139.6040 C.2      90   C22       0.7538
   2858 O2          3.6060   15.8180  139.6540 O.2      90   C22      -0.6252
   2859 N3          4.6600   13.9980  138.8290 N.2      90   C22      -0.7584
   2860 C4          4.7680   12.6720  138.8080 C.2      90   C22       0.8185
   2861 N4          5.7100   12.1440  138.0420 N.pl3    90   C22      -0.9530
   2862 C5          3.9120   11.8330  139.5750 C.2      90   C22      -0.5215
   2863 C6          2.9840   12.4340  140.3380 C.2      90   C22       0.0053
   2864 H5'        -1.0169   11.7266  143.0043 H        90   C22       0.0679
   2865 H5''        0.4252   11.9304  144.0271 H        90   C22       0.0679
   2866 H4'        -0.2214   14.0896  143.1424 H        90   C22       0.1174
   2867 H3'        -0.0407   12.7212  140.4316 H        90   C22       0.0615
   2868 H2'         0.6485   14.8378  139.5302 H        90   C22       0.0972
   2869 H1'         2.3508   15.3858  141.6338 H        90   C22       0.2029
   2870 H5          4.0046   10.7574  139.5449 H        90   C22       0.1928
   2871 H6          2.3083   11.8317  140.9271 H        90   C22       0.1958
   2872 H41         6.3152   12.7439  137.4998 H        90   C22       0.4234
   2873 H42         5.8234   11.1413  137.9998 H        90   C22       0.4234
   2874 HO2'        0.6856   16.7158  140.9191 H        90   C22       0.4186
   2875 P          -2.5500   13.2400  139.8610 P.3      91   C23       1.1662
   2876 OP1        -3.8750   13.9110  139.8460 O.co2    91   C23      -0.7760
   2877 OP2        -2.4760   11.7570  139.9730 O.co2    91   C23      -0.7760
   2878 O5'        -1.7460   13.6510  138.5630 O.3      91   C23      -0.4989
   2879 C5'        -2.4050   14.1860  137.4400 C.3      91   C23       0.0558
   2880 C4'        -1.9420   15.5970  137.2130 C.3      91   C23       0.1065
   2881 O4'        -0.5010   15.6490  137.3160 O.3      91   C23      -0.3548
   2882 C3'        -2.2900   16.1130  135.8340 C.3      91   C23       0.2022
   2883 O3'        -2.8910   17.3960  135.8860 O.3      91   C23      -0.5246
   2884 C2'        -1.0330   15.9330  134.9890 C.3      91   C23       0.0670
   2885 O2'        -0.7450   17.1010  134.2600 O.3      91   C23      -0.6139
   2886 C1'         0.0690   15.8470  136.0470 C.3      91   C23       0.0066
   2887 N1          1.0680   14.7960  135.8270 N.am     91   C23      -0.0484
   2888 C2          2.0700   15.0280  134.9100 C.2      91   C23       0.7538
   2889 O2          2.0540   16.0870  134.2750 O.2      91   C23      -0.6252
   2890 N3          3.0280   14.1010  134.7290 N.2      91   C23      -0.7584
   2891 C4          2.9920   12.9660  135.4240 C.2      91   C23       0.8185
   2892 N4          3.9660   12.0790  135.2220 N.pl3    91   C23      -0.9530
   2893 C5          1.9590   12.6910  136.3550 C.2      91   C23      -0.5215
   2894 C6          1.0240   13.6230  136.5240 C.2      91   C23       0.0053
   2895 H5'        -2.1747   13.5825  136.5620 H        91   C23       0.0679
   2896 H5''       -3.4812   14.1800  137.6131 H        91   C23       0.0679
   2897 H4'        -2.3834   16.2493  137.9665 H        91   C23       0.1174
   2898 H3'        -3.0392   15.4340  135.4269 H        91   C23       0.0615
   2899 H2'        -1.0769   15.0457  134.3574 H        91   C23       0.0972
   2900 H1'         0.5908   16.8039  136.0624 H        91   C23       0.2029
   2901 H5          1.9318   11.7621  136.9053 H        91   C23       0.1928
   2902 H6          0.2190   13.4488  137.2225 H        91   C23       0.1958
   2903 H41         4.7007   12.2781  134.5581 H        91   C23       0.4234
   2904 H42         3.9695   11.2077  135.7328 H        91   C23       0.4234
   2905 HO2'        0.2024   17.2559  134.2642 H        91   C23       0.4186
   2906 P          -4.2700   17.6700  135.1300 P.3      92   C24       1.1662
   2907 OP1        -5.2010   18.1980  136.1650 O.co2    92   C24      -0.7760
   2908 OP2        -4.6410   16.4580  134.3550 O.co2    92   C24      -0.7760
   2909 O5'        -3.8760   18.8310  134.1130 O.3      92   C24      -0.4989
   2910 C5'        -4.7690   19.8970  133.8310 C.3      92   C24       0.0558
   2911 C4'        -4.0930   20.9100  132.9390 C.3      92   C24       0.1065
   2912 O4'        -3.0170   21.5530  133.6710 O.3      92   C24      -0.3548
   2913 C3'        -3.4130   20.3330  131.7070 C.3      92   C24       0.2022
   2914 O3'        -4.3550   20.1380  130.6430 O.3      92   C24      -0.5246
   2915 C2'        -2.3780   21.4080  131.3790 C.3      92   C24       0.0670
   2916 O2'        -2.8980   22.4680  130.6140 O.3      92   C24      -0.6139
   2917 C1'        -1.9920   21.9270  132.7700 C.3      92   C24       0.0066
   2918 N1         -0.7170   21.3710  133.2430 N.am     92   C24      -0.0484
   2919 C2          0.3800   22.2300  133.4050 C.2      92   C24       0.7538
   2920 O2          0.2300   23.4440  133.2060 O.2      92   C24      -0.6252
   2921 N3          1.5740   21.7140  133.7810 N.2      92   C24      -0.7584
   2922 C4          1.6900   20.4070  134.0070 C.2      92   C24       0.8185
   2923 N4          2.8790   19.9410  134.3750 N.pl3    92   C24      -0.9530
   2924 C5          0.5880   19.5160  133.8680 C.2      92   C24      -0.5215
   2925 C6         -0.5880   20.0350  133.4930 C.2      92   C24       0.0053
   2926 H5'        -5.0648   20.3771  134.7638 H        92   C24       0.0679
   2927 H5''       -5.6536   19.5053  133.3288 H        92   C24       0.0679
   2928 H4'        -4.8198   21.6618  132.6313 H        92   C24       0.1174
   2929 H3'        -2.9185   19.3931  131.9523 H        92   C24       0.0615
   2930 H2'        -1.5136   20.9670  130.8826 H        92   C24       0.0972
   2931 H1'        -1.9200   23.0142  132.7399 H        92   C24       0.2029
   2932 H5          0.6969   18.4585  134.0584 H        92   C24       0.1928
   2933 H6         -1.4462   19.3880  133.3869 H        92   C24       0.1958
   2934 H41         3.6604   20.5731  134.4745 H        92   C24       0.4234
   2935 H42         3.0012   18.9547  134.5552 H        92   C24       0.4234
   2936 HO2'       -3.1404   22.1457  129.7428 H        92   C24       0.4186
   2937 P          -4.5640   18.6650  130.0000 P.3      93   U25       1.1662
   2938 OP1        -5.7820   18.7340  129.1460 O.co2    93   U25      -0.7760
   2939 OP2        -4.4950   17.6570  131.0980 O.co2    93   U25      -0.7760
   2940 O5'        -3.3000   18.4800  129.0370 O.3      93   U25      -0.4989
   2941 C5'        -2.8940   19.5370  128.1710 C.3      93   U25       0.0558
   2942 C4'        -1.6620   19.1530  127.3750 C.3      93   U25       0.1065
   2943 O4'        -0.4920   19.0670  128.2310 O.3      93   U25      -0.3548
   2944 C3'        -1.6570   17.8040  126.6830 C.3      93   U25       0.2022
   2945 O3'        -2.4340   17.8020  125.4960 O.3      93   U25      -0.5246
   2946 C2'        -0.1770   17.6400  126.3590 C.3      93   U25       0.0670
   2947 O2'         0.2240   18.3790  125.2200 O.3      93   U25      -0.6139
   2948 C1'         0.4750   18.2260  127.6150 C.3      93   U25       0.0674
   2949 N1          0.8660   17.1580  128.5460 N.am     93   U25       0.0418
   2950 C2          1.8840   16.3220  128.1440 C.2      93   U25       0.4687
   2951 O2          2.4720   16.4610  127.0930 O.2      93   U25      -0.5477
   2952 N3          2.1870   15.3140  129.0100 N.am     93   U25      -0.3549
   2953 C4          1.5990   15.0630  130.2090 C.2      93   U25       0.5952
   2954 O4          1.9880   14.1090  130.8760 O.2      93   U25      -0.5761
   2955 C5          0.5650   15.9780  130.5710 C.2      93   U25      -0.3635
   2956 C6          0.2430   16.9720  129.7480 C.2      93   U25      -0.1126
   2957 H5'        -3.7068   19.7626  127.4807 H        93   U25       0.0679
   2958 H5''       -2.6737   20.4230  128.7664 H        93   U25       0.0679
   2959 H4'        -1.4833   19.9240  126.6256 H        93   U25       0.1174
   2960 H3'        -1.9913   17.0209  127.3635 H        93   U25       0.0615
   2961 H2'         0.0794   16.5866  126.2461 H        93   U25       0.0972
   2962 H1'         1.3508   18.8124  127.3370 H        93   U25       0.1824
   2963 H3          2.9276   14.6867  128.7307 H        93   U25       0.3154
   2964 H5          0.0454   15.8635  131.5108 H        93   U25       0.1811
   2965 H6         -0.5392   17.6570  130.0403 H        93   U25       0.2188
   2966 HO2'        0.2006   17.8121  124.4456 H        93   U25       0.4186
   2967 P          -2.8070   16.4040  124.7950 P.3      94   U26       1.1662
   2968 OP1        -3.6360   16.7490  123.6080 O.co2    94   U26      -0.7760
   2969 OP2        -3.3360   15.4590  125.8070 O.co2    94   U26      -0.7760
   2970 O5'        -1.4130   15.8390  124.2660 O.3      94   U26      -0.4989
   2971 C5'        -0.8380   16.3650  123.0720 C.3      94   U26       0.0558
   2972 C4'         0.3850   15.5720  122.6600 C.3      94   U26       0.1065
   2973 O4'         1.3700   15.5930  123.7310 O.3      94   U26      -0.3548
   2974 C3'         0.1890   14.0900  122.3900 C.3      94   U26       0.2022
   2975 O3'        -0.3610   13.8380  121.1000 O.3      94   U26      -0.5246
   2976 C2'         1.6140   13.5710  122.5200 C.3      94   U26       0.0670
   2977 O2'         2.4140   13.8480  121.3870 O.3      94   U26      -0.6139
   2978 C1'         2.1010   14.3750  123.7260 C.3      94   U26       0.0674
   2979 N1          1.8060   13.6600  124.9730 N.am     94   U26       0.0418
   2980 C2          2.6190   12.6050  125.3090 C.2      94   U26       0.4687
   2981 O2          3.5710   12.2630  124.6310 O.2      94   U26      -0.5477
   2982 N3          2.2790   11.9580  126.4670 N.am     94   U26      -0.3549
   2983 C4          1.2330   12.2590  127.3040 C.2      94   U26       0.5952
   2984 O4          1.0520   11.5780  128.3110 O.2      94   U26      -0.5761
   2985 C5          0.4430   13.3720  126.8920 C.2      94   U26      -0.3635
   2986 C6          0.7510   14.0200  125.7680 C.2      94   U26      -0.1126
   2987 H5'        -0.5487   17.4019  123.2432 H        94   U26       0.0679
   2988 H5''       -1.5766   16.3265  122.2713 H        94   U26       0.0679
   2989 H4'         0.8205   16.0348  121.7744 H        94   U26       0.1174
   2990 H3'        -0.4431   13.6484  123.1604 H        94   U26       0.0615
   2991 H2'         1.6166   12.5038  122.7419 H        94   U26       0.0972
   2992 H1'         3.1698   14.5731  123.6447 H        94   U26       0.1824
   2993 H3          2.8596   11.1759  126.7339 H        94   U26       0.3154
   2994 H5         -0.4007   13.6887  127.4873 H        94   U26       0.1811
   2995 H6          0.1437   14.8629  125.4728 H        94   U26       0.2188
   2996 HO2'        2.6416   13.0259  120.9467 H        94   U26       0.4186
   2997 P          -1.2100   12.4920  120.8470 P.3      95   C27       1.1662
   2998 OP1        -1.9060   12.6590  119.5390 O.co2    95   C27      -0.7760
   2999 OP2        -2.0060   12.2110  122.0720 O.co2    95   C27      -0.7760
   3000 O5'        -0.0980   11.3560  120.6980 O.3      95   C27      -0.4989
   3001 C5'         0.8680   11.4010  119.6450 C.3      95   C27       0.0558
   3002 C4'         1.9080   10.3130  119.8290 C.3      95   C27       0.1065
   3003 O4'         2.6200   10.5350  121.0800 O.3      95   C27      -0.3548
   3004 C3'         1.3710    8.8950  119.9600 C.3      95   C27       0.2022
   3005 O3'         1.0830    8.3060  118.6950 O.3      95   C27      -0.5246
   3006 C2'         2.5060    8.1910  120.7020 C.3      95   C27       0.0670
   3007 O2'         3.5910    7.7780  119.8930 O.3      95   C27      -0.6139
   3008 C1'         2.9460    9.2850  121.6790 C.3      95   C27       0.0066
   3009 N1          2.2300    9.1800  122.9650 N.am     95   C27      -0.0484
   3010 C2          2.6750    8.2520  123.9190 C.2      95   C27       0.7538
   3011 O2          3.6800    7.5610  123.6670 O.2      95   C27      -0.6252
   3012 N3          2.0030    8.1330  125.0880 N.2      95   C27      -0.7584
   3013 C4          0.9370    8.8980  125.3250 C.2      95   C27       0.8185
   3014 N4          0.3090    8.7510  126.4900 N.pl3    95   C27      -0.9530
   3015 C5          0.4680    9.8500  124.3780 C.2      95   C27      -0.5215
   3016 C6          1.1390    9.9610  123.2230 C.2      95   C27       0.0053
   3017 H5'         0.3635   11.2565  118.6896 H        95   C27       0.0679
   3018 H5''        1.3599   12.3737  119.6489 H        95   C27       0.0679
   3019 H4'         2.6170   10.3521  119.0020 H        95   C27       0.1174
   3020 H3'         0.4731    8.8972  120.5779 H        95   C27       0.0615
   3021 H2'         2.1124    7.3383  121.2553 H        95   C27       0.0972
   3022 H1'         4.0212    9.2227  121.8465 H        95   C27       0.2029
   3023 H5         -0.3982   10.4618  124.5824 H        95   C27       0.1928
   3024 H6          0.8123   10.6787  122.4851 H        95   C27       0.1958
   3025 H41         0.6432    8.0752  127.1621 H        95   C27       0.4234
   3026 H42        -0.5015    9.3153  126.7015 H        95   C27       0.4234
   3027 HO2'        3.2971    7.0931  119.2879 H        95   C27       0.4186
   3028 P          -0.2240    7.3770  118.5230 P.3      96   U28       1.1662
   3029 OP1         0.1430    6.0320  119.0400 O.co2    96   U28      -0.7760
   3030 OP2        -0.7130    7.5210  117.1220 O.co2    96   U28      -0.7760
   3031 O5'        -1.3100    8.0260  119.4990 O.3      96   U28      -0.4989
   3032 C5'        -2.6860    7.6260  119.4620 C.3      96   U28       0.0558
   3033 C4'        -3.1450    7.2220  120.8500 C.3      96   U28       0.1065
   3034 O4'        -2.3620    6.0710  121.2360 O.3      96   U28      -0.3548
   3035 C3'        -2.9030    8.2730  121.9320 C.3      96   U28       0.2022
   3036 O3'        -4.0400    9.0900  122.2730 O.3      96   U28      -0.5246
   3037 C2'        -2.5940    7.4500  123.1890 C.3      96   U28       0.0670
   3038 O2'        -3.7190    7.2090  124.0110 O.3      96   U28      -0.6139
   3039 C1'        -2.1070    6.1150  122.6220 C.3      96   U28       0.0674
   3040 N1         -0.7060    5.7480  122.8690 N.am     96   U28       0.0418
   3041 C2         -0.3850    5.2550  124.1180 C.2      96   U28       0.4687
   3042 O2         -1.1890    5.1770  125.0250 O.2      96   U28      -0.5477
   3043 N3          0.9130    4.8550  124.2640 N.am     96   U28      -0.3549
   3044 C4          1.9030    4.9080  123.3120 C.2      96   U28       0.5952
   3045 O4          3.0270    4.4950  123.5870 O.2      96   U28      -0.5761
   3046 C5          1.4990    5.4560  122.0580 C.2      96   U28      -0.3635
   3047 C6          0.2400    5.8540  121.8880 C.2      96   U28      -0.1126
   3048 H5'        -2.7979    6.7798  118.7842 H        96   U28       0.0679
   3049 H5''       -3.2952    8.4572  119.1069 H        96   U28       0.0679
   3050 H4'        -4.2018    6.9563  120.8251 H        96   U28       0.1174
   3051 H3'        -2.0505    8.8993  121.6691 H        96   U28       0.0615
   3052 H2'        -1.8010    7.9262  123.7657 H        96   U28       0.0972
   3053 H1'        -2.7200    5.3379  123.0786 H        96   U28       0.1824
   3054 H3          1.1723    4.4812  125.1658 H        96   U28       0.3154
   3055 H5          2.2109    5.5474  121.2510 H        96   U28       0.1811
   3056 H6         -0.0455    6.2778  120.9365 H        96   U28       0.2188
   3057 HO2'       -3.5396    6.4641  124.5894 H        96   U28       0.4186
   3058 P          -5.3210    9.2420  121.2850 P.3      97   G29       1.1662
   3059 OP1        -5.1490    8.5430  119.9860 O.co2    97   G29      -0.7760
   3060 OP2        -5.6830   10.6810  121.2940 O.co2    97   G29      -0.7760
   3061 O5'        -6.4900    8.4890  122.0590 O.3      97   G29      -0.4989
   3062 C5'        -7.6090    9.2070  122.5660 C.3      97   G29       0.0558
   3063 C4'        -8.6280    8.2530  123.1530 C.3      97   G29       0.1065
   3064 O4'        -9.1570    7.3830  122.1080 O.3      97   G29      -0.3548
   3065 C3'        -8.1070    7.2870  124.2050 C.3      97   G29       0.2022
   3066 O3'        -8.0360    7.8970  125.4870 O.3      97   G29      -0.5246
   3067 C2'        -9.1510    6.1820  124.1390 C.3      97   G29       0.0670
   3068 O2'       -10.3670    6.5450  124.7700 O.3      97   G29      -0.6139
   3069 C1'        -9.3460    6.0720  122.6240 C.3      97   G29       0.0191
   3070 N9         -8.3300    5.2120  122.0230 N.ar     97   G29       0.0492
   3071 C8         -7.2610    5.6140  121.2580 C.ar     97   G29       0.1374
   3072 N7         -6.4800    4.6280  120.9080 N.ar     97   G29      -0.5709
   3073 C5         -7.0780    3.5030  121.4610 C.ar     97   G29       0.1744
   3074 C6         -6.6820    2.1450  121.4230 C.2      97   G29       0.4770
   3075 O6         -5.6950    1.6490  120.8780 O.2      97   G29      -0.5597
   3076 N1         -7.5690    1.3340  122.1150 N.am     97   G29      -0.4787
   3077 C2         -8.6930    1.7680  122.7630 C.2      97   G29       0.7657
   3078 N2         -9.4140    0.8220  123.3790 N.pl3    97   G29      -0.9672
   3079 N3         -9.0800    3.0340  122.8070 N.2      97   G29      -0.6323
   3080 C4         -8.2280    3.8420  122.1420 C.ar     97   G29       0.1222
   3081 H5'        -7.2725    9.8946  123.3420 H        97   G29       0.0679
   3082 H5''       -8.0700    9.7740  121.7572 H        97   G29       0.0679
   3083 H4'        -9.4478    8.8309  123.5796 H        97   G29       0.1174
   3084 H3'        -7.1295    6.9020  123.9144 H        97   G29       0.0615
   3085 H2'        -8.7605    5.2513  124.5507 H        97   G29       0.0972
   3086 H1'       -10.3462    5.7071  122.3903 H        97   G29       0.2006
   3087 H8         -7.0850    6.6413  120.9751 H        97   G29       0.1640
   3088 H1         -7.3693    0.3443  122.1428 H        97   G29       0.3424
   3089 H21        -9.1160   -0.1424  123.3448 H        97   G29       0.4364
   3090 H22       -10.2556    1.0731  123.8777 H        97   G29       0.4364
   3091 HO2'      -11.0330    5.8778  124.5886 H        97   G29       0.4186
   3092 P          -6.9140    7.4190  126.5300 P.3      98   C30       1.1662
   3093 OP1        -6.9030    8.3650  127.6730 O.co2    98   C30      -0.7760
   3094 OP2        -5.6570    7.1540  125.7870 O.co2    98   C30      -0.7760
   3095 O5'        -7.4760    6.0270  127.0530 O.3      98   C30      -0.4989
   3096 C5'        -8.6620    5.9710  127.8270 C.3      98   C30       0.0558
   3097 C4'        -8.8570    4.5800  128.3640 C.3      98   C30       0.1065
   3098 O4'        -9.1270    3.6710  127.2620 O.3      98   C30      -0.3548
   3099 C3'        -7.6470    3.9590  129.0430 C.3      98   C30       0.2022
   3100 O3'        -7.4970    4.4200  130.3830 O.3      98   C30      -0.5246
   3101 C2'        -8.0080    2.4830  128.9700 C.3      98   C30       0.0670
   3102 O2'        -9.0200    2.1330  129.8930 O.3      98   C30      -0.6139
   3103 C1'        -8.5700    2.3960  127.5500 C.3      98   C30       0.0066
   3104 N1         -7.4990    2.1210  126.5780 N.am     98   C30      -0.0484
   3105 C2         -7.1830    0.7930  126.2900 C.2      98   C30       0.7538
   3106 O2         -7.8410   -0.1060  126.8320 O.2      98   C30      -0.6252
   3107 N3         -6.1730    0.5240  125.4310 N.2      98   C30      -0.7584
   3108 C4         -5.4950    1.5230  124.8650 C.2      98   C30       0.8185
   3109 N4         -4.5020    1.2130  124.0360 N.pl3    98   C30      -0.9530
   3110 C5         -5.8050    2.8880  125.1270 C.2      98   C30      -0.5215
   3111 C6         -6.8080    3.1390  125.9800 C.2      98   C30       0.0053
   3112 H5'        -9.5140    6.2401  127.2027 H        98   C30       0.0679
   3113 H5''       -8.5858    6.6726  128.6577 H        98   C30       0.0679
   3114 H4'        -9.7014    4.5735  129.0533 H        98   C30       0.1174
   3115 H3'        -6.7430    4.1590  128.4678 H        98   C30       0.0615
   3116 H2'        -7.1270    1.8521  129.0881 H        98   C30       0.0972
   3117 H1'        -9.3390    1.6256  127.4939 H        98   C30       0.2029
   3118 H5         -5.2538    3.6891  124.6571 H        98   C30       0.1928
   3119 H6         -7.0752    4.1623  126.1989 H        98   C30       0.1958
   3120 H41        -4.2821    0.2447  123.8512 H        98   C30       0.4234
   3121 H42        -3.9680    1.9459  123.5913 H        98   C30       0.4234
   3122 HO2'       -9.3166    1.2369  129.7181 H        98   C30       0.4186
   3123 P          -6.0370    4.4550  131.0640 P.3      99   G31       1.1662
   3124 OP1        -6.2580    4.7640  132.5000 O.co2    99   G31      -0.7760
   3125 OP2        -5.1110    5.3040  130.2650 O.co2    99   G31      -0.7760
   3126 O5'        -5.5500    2.9450  130.9920 O.3      99   G31      -0.4989
   3127 C5'        -6.2800    1.9210  131.6570 C.3      99   G31       0.0558
   3128 C4'        -5.6650    0.5800  131.3710 C.3      99   G31       0.1065
   3129 O4'        -5.8040    0.2850  129.9540 O.3      99   G31      -0.3548
   3130 C3'        -4.1670    0.5070  131.6190 C.3      99   G31       0.2022
   3131 O3'        -3.8760    0.2430  132.9900 O.3      99   G31      -0.5246
   3132 C2'        -3.7620   -0.6520  130.7190 C.3      99   G31       0.0670
   3133 O2'        -4.0740   -1.9020  131.3040 O.3      99   G31      -0.6139
   3134 C1'        -4.6510   -0.4060  129.4960 C.3      99   G31       0.0191
   3135 N9         -4.0110    0.4090  128.4670 N.ar     99   G31       0.0492
   3136 C8         -4.3320    1.6980  128.1200 C.ar     99   G31       0.1374
   3137 N7         -3.5890    2.1700  127.1560 N.ar     99   G31      -0.5709
   3138 C5         -2.7230    1.1320  126.8480 C.ar     99   G31       0.1744
   3139 C6         -1.6920    1.0560  125.8800 C.2      99   G31       0.4770
   3140 O6         -1.3290    1.9190  125.0720 O.2      99   G31      -0.5597
   3141 N1         -1.0590   -0.1800  125.9040 N.am     99   G31      -0.4787
   3142 C2         -1.3800   -1.2150  126.7490 C.2      99   G31       0.7657
   3143 N2         -0.6540   -2.3380  126.6160 N.pl3    99   G31      -0.9672
   3144 N3         -2.3420   -1.1560  127.6570 N.2      99   G31      -0.6323
   3145 C4         -2.9680    0.0380  127.6500 C.ar     99   G31       0.1222
   3146 H5'        -6.2612    2.1045  132.7313 H        99   G31       0.0679
   3147 H5''       -7.3123    1.9274  131.3071 H        99   G31       0.0679
   3148 H4'        -6.1711   -0.1876  131.9564 H        99   G31       0.1174
   3149 H3'        -3.6816    1.4281  131.2965 H        99   G31       0.0615
   3150 H2'        -2.7060   -0.5942  130.4552 H        99   G31       0.0972
   3151 H1'        -4.9490   -1.3626  129.0668 H        99   G31       0.2006
   3152 H8         -5.1191    2.2639  128.5961 H        99   G31       0.1640
   3153 H1         -0.3043   -0.3297  125.2497 H        99   G31       0.3424
   3154 H21         0.0800   -2.3858  125.9239 H        99   G31       0.4364
   3155 H22        -0.8424   -3.1342  127.2081 H        99   G31       0.4364
   3156 HO2'       -3.9277   -2.6010  130.6624 H        99   G31       0.4186
   3157 P          -2.5600    0.8820  133.6640 P.3     100   U32       1.1662
   3158 OP1        -2.3880    0.2320  134.9880 O.co2   100   U32      -0.7760
   3159 OP2        -2.6460    2.3640  133.5780 O.co2   100   U32      -0.7760
   3160 O5'        -1.3720    0.3880  132.7270 O.3     100   U32      -0.4989
   3161 C5'        -1.1380   -1.0040  132.5310 C.3     100   U32       0.0558
   3162 C4'        -0.0230   -1.2110  131.5380 C.3     100   U32       0.1065
   3163 O4'        -0.4540   -0.8580  130.1990 O.3     100   U32      -0.3548
   3164 C3'         1.2020   -0.3530  131.7860 C.3     100   U32       0.2022
   3165 O3'         2.0000   -0.9770  132.7840 O.3     100   U32      -0.5246
   3166 C2'         1.8590   -0.3220  130.4070 C.3     100   U32       0.0670
   3167 O2'         2.6240   -1.4750  130.1300 O.3     100   U32      -0.6139
   3168 C1'         0.6370   -0.3050  129.4820 C.3     100   U32       0.0674
   3169 N1          0.2470    1.0330  129.0190 N.am    100   U32       0.0418
   3170 C2          0.8910    1.5500  127.9060 C.2     100   U32       0.4687
   3171 O2          1.7740    0.9550  127.3150 O.2     100   U32      -0.5477
   3172 N3          0.4590    2.7920  127.5130 N.am    100   U32      -0.3549
   3173 C4         -0.5240    3.5560  128.1080 C.2     100   U32       0.5952
   3174 O4         -0.8100    4.6540  127.6320 O.2     100   U32      -0.5761
   3175 C5         -1.1320    2.9580  129.2580 C.2     100   U32      -0.3635
   3176 C6         -0.7340    1.7480  129.6640 C.2     100   U32      -0.1126
   3177 H5'        -2.0472   -1.4719  132.1536 H       100   U32       0.0679
   3178 H5''       -0.8643   -1.4615  133.4817 H       100   U32       0.0679
   3179 H4'         0.2715   -2.2604  131.5500 H       100   U32       0.1174
   3180 H3'         0.9123    0.6507  132.0969 H       100   U32       0.0615
   3181 H2'         2.4560    0.5811  130.2803 H       100   U32       0.0972
   3182 H1'         0.8428   -0.9321  128.6145 H       100   U32       0.1824
   3183 H3          0.9090    3.1896  126.7009 H       100   U32       0.3154
   3184 H5         -1.9087    3.4820  129.7951 H       100   U32       0.1811
   3185 H6         -1.2027    1.3142  130.5350 H       100   U32       0.2188
   3186 HO2'        3.5374   -1.2238  129.9746 H       100   U32       0.4186
   3187 P           2.9950   -0.0960  133.6860 P.3     101   G33       1.1662
   3188 OP1         3.1390   -0.8240  134.9720 O.co2   101   G33      -0.7760
   3189 OP2         2.5250    1.3160  133.6940 O.co2   101   G33      -0.7760
   3190 O5'         4.3750   -0.1870  132.8860 O.3     101   G33      -0.4989
   3191 C5'         5.2060    0.9600  132.7010 C.3     101   G33       0.0558
   3192 C4'         5.8380    0.9340  131.3250 C.3     101   G33       0.1065
   3193 O4'         4.7950    0.9320  130.3130 O.3     101   G33      -0.3548
   3194 C3'         6.6800    2.1540  130.9910 C.3     101   G33       0.2022
   3195 O3'         8.0100    2.0030  131.4710 O.3     101   G33      -0.5246
   3196 C2'         6.6220    2.1950  129.4680 C.3     101   G33       0.0670
   3197 O2'         7.5190    1.2950  128.8480 O.3     101   G33      -0.6139
   3198 C1'         5.1880    1.7400  129.2120 C.3     101   G33       0.0191
   3199 N9          4.2240    2.8280  129.0830 N.ar    101   G33       0.0492
   3200 C8          3.1440    3.0630  129.8980 C.ar    101   G33       0.1374
   3201 N7          2.4210    4.0780  129.5130 N.ar    101   G33      -0.5709
   3202 C5          3.0670    4.5520  128.3820 C.ar    101   G33       0.1744
   3203 C6          2.7410    5.6370  127.5290 C.2     101   G33       0.4770
   3204 O6          1.7860    6.4140  127.6060 O.2     101   G33      -0.5597
   3205 N1          3.6640    5.7730  126.4970 N.am    101   G33      -0.4787
   3206 C2          4.7610    4.9670  126.3100 C.2     101   G33       0.7657
   3207 N2          5.5380    5.2650  125.2550 N.pl3   101   G33      -0.9672
   3208 N3          5.0740    3.9460  127.0990 N.2     101   G33      -0.6323
   3209 C4          4.1900    3.7990  128.1080 C.ar    101   G33       0.1222
   3210 H5'         4.6020    1.8617  132.8023 H       101   G33       0.0679
   3211 H5''        5.9900    0.9637  133.4583 H       101   G33       0.0679
   3212 H4'         6.4453    0.0348  131.2217 H       101   G33       0.1174
   3213 H3'         6.2267    3.0521  131.4105 H       101   G33       0.0615
   3214 H2'         6.7772    3.2099  129.1019 H       101   G33       0.0972
   3215 H1'         5.1647    1.1370  128.3043 H       101   G33       0.2006
   3216 H8          2.9163    2.4675  130.7697 H       101   G33       0.1640
   3217 H1          3.5165    6.5212  125.8348 H       101   G33       0.3424
   3218 H21         5.2995    6.0422  124.6556 H       101   G33       0.4364
   3219 H22         6.3606    4.7118  125.0614 H       101   G33       0.4364
   3220 HO2'        8.4214    1.5804  129.0085 H       101   G33       0.4186
   3221 P           8.8750    3.3110  131.8240 P.3     102   A34       1.1662
   3222 OP1        10.0170    2.8870  132.6790 O.co2   102   A34      -0.7760
   3223 OP2         7.9310    4.3510  132.3180 O.co2   102   A34      -0.7760
   3224 O5'         9.4420    3.8000  130.4170 O.3     102   A34      -0.4989
   3225 C5'         9.8660    5.1460  130.2470 C.3     102   A34       0.0558
   3226 C4'         9.6790    5.5810  128.8160 C.3     102   A34       0.1065
   3227 O4'         8.3310    5.2560  128.3870 O.3     102   A34      -0.3548
   3228 C3'         9.7760    7.0820  128.5940 C.3     102   A34       0.2022
   3229 O3'        11.1200    7.5400  128.4960 O.3     102   A34      -0.5246
   3230 C2'         9.0020    7.2610  127.2960 C.3     102   A34       0.0670
   3231 O2'         9.7690    6.9400  126.1530 O.3     102   A34      -0.6139
   3232 C1'         7.8680    6.2490  127.4840 C.3     102   A34       0.0394
   3233 N9          6.6530    6.8460  128.0390 N.ar    102   A34      -0.0251
   3234 C8          5.9530    6.4510  129.1500 C.ar    102   A34       0.2006
   3235 N7          4.8940    7.1840  129.3930 N.ar    102   A34      -0.6073
   3236 C5          4.8980    8.1290  128.3730 C.ar    102   A34       0.0515
   3237 C6          4.0320    9.2050  128.0620 C.ar    102   A34       0.7009
   3238 N6          2.9450    9.5190  128.7740 N.pl3   102   A34      -0.9019
   3239 N1          4.3250    9.9530  126.9770 N.ar    102   A34      -0.7615
   3240 C2          5.4070    9.6360  126.2570 C.ar    102   A34       0.5875
   3241 N3          6.2920    8.6560  126.4460 N.ar    102   A34      -0.6997
   3242 C4          5.9770    7.9310  127.5330 C.ar    102   A34       0.3053
   3243 H5'        10.9204    5.2260  130.5113 H       102   A34       0.0679
   3244 H5''        9.2806    5.7934  130.8999 H       102   A34       0.0679
   3245 H4'        10.4003    5.0685  128.1794 H       102   A34       0.1174
   3246 H3'         9.2663    7.6071  129.4018 H       102   A34       0.0615
   3247 H2'         8.6054    8.2735  127.2212 H       102   A34       0.0972
   3248 H1'         7.6363    5.7848  126.5254 H       102   A34       0.2007
   3249 H8          6.2467    5.6145  129.7668 H       102   A34       0.1553
   3250 H2          5.5906   10.2647  125.3982 H       102   A34       0.0473
   3251 H61         2.2185   10.2096  128.6503 H       102   A34       0.4115
   3252 H62         2.8265    8.9520  129.6014 H       102   A34       0.4115
   3253 HO2'       10.4744    7.5829  126.0495 H       102   A34       0.4186
   3254 P          11.5720    8.8290  129.3430 P.3     103   A35       1.1662
   3255 OP1        13.0580    8.8880  129.3790 O.co2   103   A35      -0.7760
   3256 OP2        10.8020    8.7630  130.6130 O.co2   103   A35      -0.7760
   3257 O5'        11.0420   10.0720  128.4980 O.3     103   A35      -0.4989
   3258 C5'        11.5630   10.3330  127.2030 C.3     103   A35       0.0558
   3259 C4'        10.7650   11.4160  126.5150 C.3     103   A35       0.1065
   3260 O4'         9.4050   10.9620  126.2580 O.3     103   A35      -0.3548
   3261 C3'        10.5430   12.6890  127.3010 C.3     103   A35       0.2022
   3262 O3'        11.7010   13.4980  127.3400 O.3     103   A35      -0.5246
   3263 C2'         9.3910   13.3160  126.5300 C.3     103   A35       0.0670
   3264 O2'         9.7850   13.9020  125.3060 O.3     103   A35      -0.6139
   3265 C1'         8.5280   12.0820  126.2560 C.3     103   A35       0.0394
   3266 N9          7.5270   11.8900  127.3050 N.ar    103   A35      -0.0251
   3267 C8          7.4820   10.9420  128.2980 C.ar    103   A35       0.2006
   3268 N7          6.4390   11.0570  129.0880 N.ar    103   A35      -0.6073
   3269 C5          5.7550   12.1540  128.5800 C.ar    103   A35       0.0515
   3270 C6          4.5680   12.7990  128.9700 C.ar    103   A35       0.7009
   3271 N6          3.8280   12.4260  130.0040 N.pl3   103   A35      -0.9019
   3272 N1          4.1650   13.8640  128.2500 N.ar    103   A35      -0.7615
   3273 C2          4.9090   14.2540  127.2120 C.ar    103   A35       0.5875
   3274 N3          6.0430   13.7360  126.7480 N.ar    103   A35      -0.6997
   3275 C4          6.4140   12.6750  127.4840 C.ar    103   A35       0.3053
   3276 H5'        12.6003   10.6554  127.2930 H       103   A35       0.0679
   3277 H5''       11.5201    9.4211  126.6074 H       103   A35       0.0679
   3278 H4'        11.2430   11.6622  125.5668 H       103   A35       0.1174
   3279 H3'        10.2238   12.4484  128.3151 H       103   A35       0.0615
   3280 H2'         8.8549   14.0348  127.1497 H       103   A35       0.0972
   3281 H1'         8.0404   12.1741  125.2855 H       103   A35       0.2007
   3282 H8          8.2328   10.1750  128.4178 H       103   A35       0.1553
   3283 H2          4.5371   15.1123  126.6722 H       103   A35       0.0473
   3284 H61         3.1765   13.1297  130.3208 H       103   A35       0.4115
   3285 H62         3.9085   11.5173  130.4375 H       103   A35       0.4115
   3286 HO2'       10.3260   14.6756  125.4806 H       103   A35       0.4186
   3287 P          12.0890   14.2360  128.7110 P.3     104   G36       1.1662
   3288 OP1        13.4500   14.8140  128.5850 O.co2   104   G36      -0.7760
   3289 OP2        11.7880   13.2950  129.8260 O.co2   104   G36      -0.7760
   3290 O5'        11.0610   15.4450  128.7690 O.3     104   G36      -0.4989
   3291 C5'        10.9440   16.3340  127.6700 C.3     104   G36       0.0558
   3292 C4'         9.6320   17.0600  127.7380 C.3     104   G36       0.1065
   3293 O4'         8.5320   16.1080  127.6010 O.3     104   G36      -0.3548
   3294 C3'         9.3640   17.6930  129.0830 C.3     104   G36       0.2022
   3295 O3'        10.1040   18.8910  129.2760 O.3     104   G36      -0.5246
   3296 C2'         7.8530   17.8620  129.0340 C.3     104   G36       0.0670
   3297 O2'         7.4430   18.9250  128.2070 O.3     104   G36      -0.6139
   3298 C1'         7.4420   16.5210  128.4180 C.3     104   G36       0.0191
   3299 N9          7.2320   15.5220  129.4640 N.ar    104   G36       0.0492
   3300 C8          7.9850   14.4040  129.7370 C.ar    104   G36       0.1374
   3301 N7          7.5610   13.7450  130.7820 N.ar    104   G36      -0.5709
   3302 C5          6.4570   14.4640  131.2120 C.ar    104   G36       0.1744
   3303 C6          5.5790   14.2350  132.2970 C.2     104   G36       0.4770
   3304 O6          5.6020   13.3120  133.1190 O.2     104   G36      -0.5597
   3305 N1          4.5920   15.2180  132.3750 N.am    104   G36      -0.4787
   3306 C2          4.4670   16.2820  131.5090 C.2     104   G36       0.7657
   3307 N2          3.4660   17.1530  131.7430 N.pl3   104   G36      -0.9672
   3308 N3          5.2700   16.4890  130.4850 N.2     104   G36      -0.6323
   3309 C4          6.2360   15.5540  130.4010 C.ar    104   G36       0.1222
   3310 H5'        11.7591   17.0570  127.7017 H       104   G36       0.0679
   3311 H5''       10.9973   15.7687  126.7396 H       104   G36       0.0679
   3312 H4'         9.5778   17.8124  126.9512 H       104   G36       0.1174
   3313 H3'         9.6196   16.9835  129.8700 H       104   G36       0.0615
   3314 H2'         7.4419   17.9703  130.0377 H       104   G36       0.0972
   3315 H1'         6.5398   16.6387  127.8177 H       104   G36       0.2006
   3316 H8          8.8386   14.1022  129.1482 H       104   G36       0.1640
   3317 H1          3.9178   15.1439  133.1234 H       104   G36       0.3424
   3318 H21         2.8440   17.0091  132.5257 H       104   G36       0.4364
   3319 H22         3.3376   17.9498  131.1357 H       104   G36       0.4364
   3320 HO2'        7.7059   19.7590  128.6031 H       104   G36       0.4186
   3321 P          10.8170   19.1560  130.6990 P.3     105   G37       1.1662
   3322 OP1        11.7840   20.2740  130.5340 O.co2   105   G37      -0.7760
   3323 OP2        11.2940   17.8390  131.2210 O.co2   105   G37      -0.7760
   3324 O5'         9.6150   19.6430  131.6280 O.3     105   G37      -0.4989
   3325 C5'         8.7570   20.7000  131.2090 C.3     105   G37       0.0558
   3326 C4'         7.5710   20.8170  132.1350 C.3     105   G37       0.1065
   3327 O4'         6.7270   19.6350  132.0150 O.3     105   G37      -0.3548
   3328 C3'         7.8790   20.8550  133.6220 C.3     105   G37       0.2022
   3329 O3'         8.3400   22.1210  134.0690 O.3     105   G37      -0.5246
   3330 C2'         6.5200   20.5030  134.2050 C.3     105   G37       0.0670
   3331 O2'         5.5990   21.5790  134.1110 O.3     105   G37      -0.6139
   3332 C1'         6.0990   19.3730  133.2670 C.3     105   G37       0.0191
   3333 N9          6.5560   18.0780  133.7760 N.ar    105   G37       0.0492
   3334 C8          7.6330   17.3320  133.3530 C.ar    105   G37       0.1374
   3335 N7          7.7990   16.2330  134.0440 N.ar    105   G37      -0.5709
   3336 C5          6.7650   16.2480  134.9660 C.ar    105   G37       0.1744
   3337 C6          6.4280   15.3200  135.9880 C.2     105   G37       0.4770
   3338 O6          6.9960   14.2550  136.2840 O.2     105   G37      -0.5597
   3339 N1          5.3040   15.7340  136.7040 N.am    105   G37      -0.4787
   3340 C2          4.5920   16.8820  136.4640 C.2     105   G37       0.7657
   3341 N2          3.5360   17.1030  137.2490 N.pl3   105   G37      -0.9672
   3342 N3          4.8930   17.7520  135.5160 N.2     105   G37      -0.6323
   3343 C4          5.9840   17.3760  134.8110 C.ar    105   G37       0.1222
   3344 H5'         9.3126   21.6377  131.2178 H       105   G37       0.0679
   3345 H5''        8.4055   20.4990  130.1970 H       105   G37       0.0679
   3346 H4'         6.9917   21.7002  131.8660 H       105   G37       0.1174
   3347 H3'         8.6054   20.0822  133.8734 H       105   G37       0.0615
   3348 H2'         6.6108   20.1499  135.2322 H       105   G37       0.0972
   3349 H1'         5.0154   19.3680  133.1490 H       105   G37       0.2006
   3350 H8          8.2750   17.6237  132.5350 H       105   G37       0.1640
   3351 H1          4.9896   15.1414  137.4590 H       105   G37       0.3424
   3352 H21         3.2990   16.4417  137.9747 H       105   G37       0.4364
   3353 H22         2.9736   17.9315  137.1175 H       105   G37       0.4364
   3354 HO2'        5.7585   22.2001  134.8254 H       105   G37       0.4186
   3355 P           9.3710   22.1930  135.3020 P.3     106   C38       1.1662
   3356 OP1         9.7450   23.6260  135.4950 O.co2   106   C38      -0.7760
   3357 OP2        10.4300   21.1680  135.0700 O.co2   106   C38      -0.7760
   3358 O5'         8.5060   21.7820  136.5810 O.3     106   C38      -0.4989
   3359 C5'         7.4190   22.6050  137.0230 C.3     106   C38       0.0558
   3360 C4'         6.9040   22.1450  138.3710 C.3     106   C38       0.1065
   3361 O4'         6.1970   20.8750  138.2450 O.3     106   C38      -0.3548
   3362 C3'         7.9560   21.8460  139.4230 C.3     106   C38       0.2022
   3363 O3'         8.5360   23.0090  140.0210 O.3     106   C38      -0.5246
   3364 C2'         7.1630   20.9910  140.3980 C.3     106   C38       0.0670
   3365 O2'         6.2600   21.7820  141.1390 O.3     106   C38      -0.6139
   3366 C1'         6.3790   20.1030  139.4300 C.3     106   C38       0.0066
   3367 N1          7.0970   18.8530  139.0780 N.am    106   C38      -0.0484
   3368 C2          6.9820   17.7300  139.9200 C.2     106   C38       0.7538
   3369 O2          6.2980   17.8160  140.9560 O.2     106   C38      -0.6252
   3370 N3          7.6240   16.5860  139.5830 N.2     106   C38      -0.7584
   3371 C4          8.3610   16.5390  138.4700 C.2     106   C38       0.8185
   3372 N4          8.9760   15.3890  138.1660 N.pl3   106   C38      -0.9530
   3373 C5          8.5020   17.6640  137.6140 C.2     106   C38      -0.5215
   3374 C6          7.8610   18.7840  137.9490 C.2     106   C38       0.0053
   3375 H5'         7.7632   23.6359  137.1058 H       106   C38       0.0679
   3376 H5''        6.6106   22.5541  136.2936 H       106   C38       0.0679
   3377 H4'         6.2165   22.8952  138.7617 H       106   C38       0.1174
   3378 H3'         8.7458   21.2412  138.9773 H       106   C38       0.0615
   3379 H2'         7.8151   20.4059  141.0465 H       106   C38       0.0972
   3380 H1'         5.4081   19.8589  139.8611 H       106   C38       0.2029
   3381 H5          9.1082   17.6137  136.7216 H       106   C38       0.1928
   3382 H6          7.9480   19.6537  137.3146 H       106   C38       0.1958
   3383 H41         8.8766   14.5875  138.7724 H       106   C38       0.4234
   3384 H42         9.5393   15.3231  137.3303 H       106   C38       0.4234
   3385 HO2'        6.2648   21.4989  142.0563 H       106   C38       0.4186
   3386 P          10.1400   23.0820  140.1800 P.3     107   U39       1.1662
   3387 OP1        10.5590   24.5000  140.1610 O.co2   107   U39      -0.7760
   3388 OP2        10.7170   22.1320  139.1920 O.co2   107   U39      -0.7760
   3389 O5'        10.4090   22.4740  141.6240 O.3     107   U39      -0.4989
   3390 C5'         9.6280   22.8820  142.7340 C.3     107   U39       0.0558
   3391 C4'         9.7300   21.8640  143.8300 C.3     107   U39       0.1065
   3392 O4'         9.0010   20.6680  143.4580 O.3     107   U39      -0.3548
   3393 C3'        11.1330   21.3580  144.1060 C.3     107   U39       0.2022
   3394 O3'        11.8590   22.2820  144.9210 O.3     107   U39      -0.5246
   3395 C2'        10.8550   20.0300  144.8080 C.3     107   U39       0.0670
   3396 O2'        10.5750   20.1820  146.1850 O.3     107   U39      -0.6139
   3397 C1'         9.5930   19.5450  144.0860 C.3     107   U39       0.0674
   3398 N1          9.8440   18.5150  143.0690 N.am    107   U39       0.0418
   3399 C2          9.7980   17.1940  143.4730 C.2     107   U39       0.4687
   3400 O2          9.5390   16.8580  144.6120 O.2     107   U39      -0.5477
   3401 N3         10.0660   16.2770  142.4910 N.am    107   U39      -0.3549
   3402 C4         10.3650   16.5380  141.1750 C.2     107   U39       0.5952
   3403 O4         10.6100   15.5990  140.4190 O.2     107   U39      -0.5761
   3404 C5         10.3790   17.9230  140.8300 C.2     107   U39      -0.3635
   3405 C6         10.1230   18.8430  141.7660 C.2     107   U39      -0.1126
   3406 H5'         9.9915   23.8429  143.0982 H       107   U39       0.0679
   3407 H5''        8.5867   22.9812  142.4274 H       107   U39       0.0679
   3408 H4'         9.3069   22.2753  144.7464 H       107   U39       0.1174
   3409 H3'        11.6624   21.1853  143.1690 H       107   U39       0.0615
   3410 H2'        11.6790   19.3328  144.6560 H       107   U39       0.0972
   3411 H1'         8.8966   19.1475  144.8243 H       107   U39       0.1824
   3412 H3         10.0412   15.3047  142.7633 H       107   U39       0.3154
   3413 H5         10.5956   18.2268  139.8165 H       107   U39       0.1811
   3414 H6         10.1363   19.8858  141.4853 H       107   U39       0.2188
   3415 HO2'       11.2865   19.7961  146.7012 H       107   U39       0.4186
   3416 P          13.4590   22.3970  144.7710 P.3     108   G40       1.1662
   3417 OP1        13.9280   23.5080  145.6490 O.co2   108   G40      -0.7760
   3418 OP2        13.8150   22.4110  143.3250 O.co2   108   G40      -0.7760
   3419 O5'        13.9920   21.0380  145.4080 O.3     108   G40      -0.4989
   3420 C5'        13.6910   20.7090  146.7580 C.3     108   G40       0.0558
   3421 C4'        14.0770   19.2810  147.0480 C.3     108   G40       0.1065
   3422 O4'        13.2020   18.3710  146.3270 O.3     108   G40      -0.3548
   3423 C3'        15.4750   18.8670  146.6180 C.3     108   G40       0.2022
   3424 O3'        16.4420   19.2730  147.5830 O.3     108   G40      -0.5246
   3425 C2'        15.3300   17.3520  146.5610 C.3     108   G40       0.0670
   3426 O2'        15.3410   16.7690  147.8480 O.3     108   G40      -0.6139
   3427 C1'        13.9280   17.2080  145.9610 C.3     108   G40       0.0191
   3428 N9         13.9640   17.1060  144.5020 N.ar    108   G40       0.0492
   3429 C8         14.2040   18.1140  143.6030 C.ar    108   G40       0.1374
   3430 N7         14.2410   17.6960  142.3680 N.ar    108   G40      -0.5709
   3431 C5         13.9970   16.3320  142.4540 C.ar    108   G40       0.1744
   3432 C6         13.9280   15.3340  141.4390 C.2     108   G40       0.4770
   3433 O6         14.0820   15.4560  140.2230 O.2     108   G40      -0.5597
   3434 N1         13.6480   14.0850  141.9690 N.am    108   G40      -0.4787
   3435 C2         13.4590   13.8150  143.2940 C.2     108   G40       0.7657
   3436 N2         13.1800   12.5410  143.5960 N.pl3   108   G40      -0.9672
   3437 N3         13.5330   14.7250  144.2510 N.2     108   G40      -0.6323
   3438 C4         13.8040   15.9540  143.7610 C.ar    108   G40       0.1222
   3439 H5'        14.2451   21.3728  147.4217 H       108   G40       0.0679
   3440 H5''       12.6223   20.8360  146.9306 H       108   G40       0.0679
   3441 H4'        13.9697   19.0983  148.1172 H       108   G40       0.1174
   3442 H3'        15.7144   19.2714  145.6345 H       108   G40       0.0615
   3443 H2'        16.0861   16.9046  145.9158 H       108   G40       0.0972
   3444 H1'        13.4407   16.3264  146.3774 H       108   G40       0.2006
   3445 H8         14.3473   19.1458  143.8880 H       108   G40       0.1640
   3446 H1         13.5780   13.3117  141.3231 H       108   G40       0.3424
   3447 H21        13.1226   11.8490  142.8625 H       108   G40       0.4364
   3448 H22        13.0269   12.2718  144.5573 H       108   G40       0.4364
   3449 HO2'       15.1503   15.8309  147.7765 H       108   G40       0.4186
   3450 P          17.9900   19.4410  147.1570 P.3     109   A41       1.1662
   3451 OP1        18.6730   19.9500  148.3780 O.co2   109   A41      -0.7760
   3452 OP2        18.0800   20.2100  145.8900 O.co2   109   A41      -0.7760
   3453 O5'        18.5020   17.9560  146.8690 O.3     109   A41      -0.4989
   3454 C5'        19.7890   17.7260  146.2920 C.3     109   A41       0.0558
   3455 C4'        20.1130   16.2450  146.2670 C.3     109   A41       0.1065
   3456 O4'        20.2180   15.7350  147.6230 O.3     109   A41      -0.3548
   3457 C3'        19.0960   15.3220  145.6110 C.3     109   A41       0.2022
   3458 O3'        19.2870   15.2970  144.2050 O.3     109   A41      -0.5246
   3459 C2'        19.4680   13.9710  146.2100 C.3     109   A41       0.0670
   3460 O2'        20.6070   13.4110  145.5830 O.3     109   A41      -0.6139
   3461 C1'        19.8420   14.3650  147.6390 C.3     109   A41       0.0394
   3462 N9         18.7780   14.1900  148.6280 N.ar    109   A41      -0.0251
   3463 C8         18.1040   15.1720  149.3000 C.ar    109   A41       0.2006
   3464 N7         17.2590   14.7160  150.1890 N.ar    109   A41      -0.6073
   3465 C5         17.3700   13.3390  150.0830 C.ar    109   A41       0.0515
   3466 C6         16.7410   12.2850  150.7620 C.ar    109   A41       0.7009
   3467 N6         15.8290   12.4640  151.7150 N.pl3   109   A41      -0.9019
   3468 N1         17.0810   11.0230  150.4210 N.ar    109   A41      -0.7615
   3469 C2         17.9790   10.8460  149.4530 C.ar    109   A41       0.5875
   3470 N3         18.6340   11.7540  148.7390 N.ar    109   A41      -0.6997
   3471 C4         18.2840   12.9990  149.1100 C.ar    109   A41       0.3053
   3472 H5'        19.7967   18.1103  145.2720 H       109   A41       0.0679
   3473 H5''       20.5443   18.2491  146.8786 H       109   A41       0.0679
   3474 H4'        21.0740   16.1093  145.7709 H       109   A41       0.1174
   3475 H3'        18.0757   15.6053  145.8696 H       109   A41       0.0615
   3476 H2'        18.6241   13.2813  146.1940 H       109   A41       0.0972
   3477 H1'        20.7033   13.7726  147.9478 H       109   A41       0.2007
   3478 H8         18.2550   16.2252  149.1144 H       109   A41       0.1553
   3479 H2         18.2067    9.8174  149.2151 H       109   A41       0.0473
   3480 HO2'       20.3312   12.7225  144.9734 H       109   A41       0.4186
   3481 H61        15.8502   12.4643  152.7248 H       109   A41       0.4115
   3482 H62        14.9061   12.6394  151.3440 H       109   A41       0.4115
   3483 P          18.0170   15.2200  143.2240 P.3     110   G42       1.1662
   3484 OP1        18.5370   15.4360  141.8570 O.co2   110   G42      -0.7760
   3485 OP2        16.9560   16.1200  143.7500 O.co2   110   G42      -0.7760
   3486 O5'        17.5480   13.7010  143.3290 O.3     110   G42      -0.4989
   3487 C5'        18.3590   12.6490  142.8070 C.3     110   G42       0.0558
   3488 C4'        17.9250   11.3180  143.3830 C.3     110   G42       0.1065
   3489 O4'        18.0260   11.3870  144.8330 O.3     110   G42      -0.3548
   3490 C3'        16.4810   10.9090  143.1070 C.3     110   G42       0.2022
   3491 O3'        16.3990   10.1620  141.8970 O.3     110   G42      -0.5246
   3492 C2'        16.1730   10.0100  144.2960 C.3     110   G42       0.0670
   3493 O2'        16.7420    8.7250  144.1240 O.3     110   G42      -0.6139
   3494 C1'        16.9070   10.7420  145.4240 C.3     110   G42       0.0191
   3495 N9         16.1210   11.7570  146.1280 N.ar    110   G42       0.0492
   3496 C8         16.0430   13.0950  145.8260 C.ar    110   G42       0.1374
   3497 N7         15.2880   13.7650  146.6550 N.ar    110   G42      -0.5709
   3498 C5         14.8390   12.8120  147.5540 C.ar    110   G42       0.1744
   3499 C6         13.9980   12.9450  148.6760 C.2     110   G42       0.4770
   3500 O6         13.4710   13.9630  149.1260 O.2     110   G42      -0.5597
   3501 N1         13.7890   11.7250  149.3030 N.am    110   G42      -0.4787
   3502 C2         14.3290   10.5290  148.9080 C.2     110   G42       0.7657
   3503 N2         14.0110    9.4600  149.6530 N.pl3   110   G42      -0.9672
   3504 N3         15.1210   10.3930  147.8630 N.2     110   G42      -0.6323
   3505 C4         15.3330   11.5660  147.2360 C.ar    110   G42       0.1222
   3506 H5'        18.2581   12.6215  141.7220 H       110   G42       0.0679
   3507 H5''       19.4011   12.8329  143.0682 H       110   G42       0.0679
   3508 H4'        18.5919   10.5375  143.0168 H       110   G42       0.1174
   3509 H3'        15.8207   11.7759  143.0836 H       110   G42       0.0615
   3510 H2'        15.1015    9.9514  144.4871 H       110   G42       0.0972
   3511 H1'        17.2640   10.0084  146.1468 H       110   G42       0.2006
   3512 H8         16.5539   13.5468  144.9885 H       110   G42       0.1640
   3513 H1         13.1904   11.7178  150.1164 H       110   G42       0.3424
   3514 H21        13.4045    9.5649  150.4538 H       110   G42       0.4364
   3515 H22        14.3781    8.5501  149.4132 H       110   G42       0.4364
   3516 HO2'       16.2840    8.2637  143.4176 H       110   G42       0.4186
   3517 P          15.3230   10.5680  140.7840 P.3     111   A43       1.1662
   3518 OP1        15.5970    9.7560  139.5820 O.co2   111   A43      -0.7760
   3519 OP2        15.3290   12.0420  140.6820 O.co2   111   A43      -0.7760
   3520 O5'        13.9220   10.1200  141.3980 O.3     111   A43      -0.4989
   3521 C5'        13.6130    8.7480  141.6630 C.3     111   A43       0.0558
   3522 C4'        12.1140    8.5740  141.7640 C.3     111   A43       0.1065
   3523 O4'        11.6100    9.4950  142.7510 O.3     111   A43      -0.3548
   3524 C3'        11.3430    8.8980  140.4840 C.3     111   A43       0.2022
   3525 O3'        11.0910    7.6730  139.7840 O.3     111   A43      -0.5246
   3526 C2'        10.0000    9.4720  140.9640 C.3     111   A43       0.0670
   3527 O2'         8.9020    8.5800  140.8580 O.3     111   A43      -0.6139
   3528 C1'        10.2750    9.8250  142.4330 C.3     111   A43       0.0394
   3529 N9          9.9820   11.1960  142.8540 N.ar    111   A43      -0.0251
   3530 C8         10.3580   12.3910  142.2970 C.ar    111   A43       0.2006
   3531 N7          9.8950   13.4400  142.9360 N.ar    111   A43      -0.6073
   3532 C5          9.1690   12.8950  143.9850 C.ar    111   A43       0.0515
   3533 C6          8.4300   13.4750  145.0280 C.ar    111   A43       0.7009
   3534 N6          8.2950   14.7910  145.1990 N.pl3   111   A43      -0.9019
   3535 N1          7.8250   12.6470  145.9050 N.ar    111   A43      -0.7615
   3536 C2          7.9620   11.3300  145.7410 C.ar    111   A43       0.5875
   3537 N3          8.6300   10.6650  144.8050 N.ar    111   A43      -0.6997
   3538 C4          9.2170   11.5170  143.9470 C.ar    111   A43       0.3053
   3539 H5'        14.0768    8.4471  142.6024 H       111   A43       0.0679
   3540 H5''       13.9966    8.1268  140.8536 H       111   A43       0.0679
   3541 H4'        11.8885    7.5534  142.0734 H       111   A43       0.1174
   3542 H3'        11.8832    9.6110  139.8611 H       111   A43       0.0615
   3543 H2'         9.7787   10.3839  140.4093 H       111   A43       0.0972
   3544 H1'         9.6414    9.1726  143.0339 H       111   A43       0.2007
   3545 H8         10.9772   12.4626  141.4150 H       111   A43       0.1553
   3546 H2          7.4579   10.7173  146.4737 H       111   A43       0.0473
   3547 HO2'        9.1113    7.7590  141.3094 H       111   A43       0.4186
   3548 H61         9.1601   15.2827  145.0261 H       111   A43       0.4115
   3549 H62         7.4321   15.2413  145.4687 H       111   A43       0.4115
   3550 P          11.6680    7.4470  138.3070 P.3     112   A44       1.1662
   3551 OP1        12.7310    8.4520  138.0710 O.co2   112   A44      -0.7760
   3552 OP2        10.5300    7.3530  137.3680 O.co2   112   A44      -0.7760
   3553 O5'        12.3640    6.0190  138.4000 O.3     112   A44      -0.4989
   3554 C5'        13.7860    5.8990  138.3490 C.3     112   A44       0.0558
   3555 C4'        14.2070    4.4910  138.6980 C.3     112   A44       0.1065
   3556 O4'        13.8080    4.2250  140.0600 O.3     112   A44      -0.3548
   3557 C3'        13.5550    3.3770  137.8810 C.3     112   A44       0.2022
   3558 O3'        14.3220    2.9740  136.7310 O.3     112   A44      -0.5246
   3559 C2'        13.5950    2.1790  138.8330 C.3     112   A44       0.0670
   3560 O2'        14.7540    1.3920  138.6270 O.3     112   A44      -0.6139
   3561 C1'        13.6390    2.8360  140.2190 C.3     112   A44       0.0394
   3562 N9         12.4890    2.5960  141.0840 N.ar    112   A44      -0.0251
   3563 C8         11.3580    3.3590  141.2480 C.ar    112   A44       0.2006
   3564 N7         10.5220    2.8760  142.1370 N.ar    112   A44      -0.6073
   3565 C5         11.1390    1.7150  142.5800 C.ar    112   A44       0.0515
   3566 C6         10.7650    0.7460  143.5250 C.ar    112   A44       0.7009
   3567 N6          9.6260    0.7940  144.2220 N.pl3   112   A44      -0.9019
   3568 N1         11.6120   -0.2870  143.7330 N.ar    112   A44      -0.7615
   3569 C2         12.7540   -0.3330  143.0310 C.ar    112   A44       0.5875
   3570 N3         13.2140    0.5160  142.1160 N.ar    112   A44      -0.6997
   3571 C4         12.3500    1.5290  141.9360 C.ar    112   A44       0.3053
   3572 H5'        14.1309    6.1382  137.3431 H       112   A44       0.0679
   3573 H5''       14.2325    6.5955  139.0587 H       112   A44       0.0679
   3574 H4'        15.2910    4.4090  138.6179 H       112   A44       0.1174
   3575 H3'        12.5315    3.6324  137.6064 H       112   A44       0.0615
   3576 H2'        12.6956    1.5728  138.7244 H       112   A44       0.0972
   3577 H1'        14.5212    2.4556  140.7339 H       112   A44       0.2007
   3578 H8         11.1744    4.2698  140.6975 H       112   A44       0.1553
   3579 H2         13.3910   -1.1802  143.2382 H       112   A44       0.0473
   3580 H61         8.9798    1.5575  144.0816 H       112   A44       0.4115
   3581 H62         9.4112    0.0668  144.8892 H       112   A44       0.4115
   3582 HO2'       14.6499    0.8730  137.8261 H       112   A44       0.4186
   3583 P          15.3920    3.9780  136.0470 P.3     113   A45       1.1662
   3584 OP1        14.7420    5.2930  135.7990 O.co2   113   A45      -0.7760
   3585 OP2        16.0200    3.2480  134.9080 O.co2   113   A45      -0.7760
   3586 O5'        16.5240    4.1680  137.1540 O.3     113   A45      -0.4989
   3587 C5'        17.5380    3.1890  137.3450 C.3     113   A45       0.0558
   3588 C4'        18.6480    3.7640  138.1900 C.3     113   A45       0.1065
   3589 O4'        18.0850    4.2800  139.4220 O.3     113   A45      -0.3548
   3590 C3'        19.7170    2.7800  138.6300 C.3     113   A45       0.2022
   3591 O3'        20.7250    2.6800  137.6260 O.3     113   A45      -0.5246
   3592 C2'        20.2460    3.4100  139.9160 C.3     113   A45       0.0670
   3593 O2'        21.2170    4.4100  139.6870 O.3     113   A45      -0.6139
   3594 C1'        18.9830    4.0530  140.4960 C.3     113   A45       0.0394
   3595 N9         18.2870    3.2410  141.4930 N.ar    113   A45      -0.0251
   3596 C8         18.5910    1.9790  141.9460 C.ar    113   A45       0.2006
   3597 N7         17.7360    1.5130  142.8270 N.ar    113   A45      -0.6073
   3598 C5         16.8160    2.5390  142.9700 C.ar    113   A45       0.0515
   3599 C6         15.6640    2.6660  143.7530 C.ar    113   A45       0.7009
   3600 N6         15.2310    1.7160  144.5850 N.pl3   113   A45      -0.9019
   3601 N1         14.9630    3.8190  143.6580 N.ar    113   A45      -0.7615
   3602 C2         15.4080    4.7770  142.8330 C.ar    113   A45       0.5875
   3603 N3         16.4810    4.7770  142.0500 N.ar    113   A45      -0.6997
   3604 C4         17.1480    3.6150  142.1640 C.ar    113   A45       0.3053
   3605 H5'        17.1127    2.3205  137.8480 H       113   A45       0.0679
   3606 H5''       17.9381    2.8876  136.3769 H       113   A45       0.0679
   3607 H4'        19.1208    4.5818  137.6461 H       113   A45       0.1174
   3608 H3'        19.2791    1.8027  138.8331 H       113   A45       0.0615
   3609 H2'        20.6325    2.6448  140.5891 H       113   A45       0.0972
   3610 H1'        19.2480    5.0110  140.9433 H       113   A45       0.2007
   3611 H8         19.4530    1.4226  141.6086 H       113   A45       0.1553
   3612 H2         14.8098    5.6756  142.8002 H       113   A45       0.0473
   3613 HO2'       22.0854    4.0054  139.6258 H       113   A45       0.4186
   3614 H61        14.5169    1.6812  145.2985 H       113   A45       0.4115
   3615 H62        15.7251    0.8417  144.4776 H       113   A45       0.4115
   3616 P          21.7310    1.4260  137.6270 P.3     114   U46       1.1662
   3617 OP1        22.4820    1.4600  136.3410 O.co2   114   U46      -0.7760
   3618 OP2        20.9520    0.2090  137.9920 O.co2   114   U46      -0.7760
   3619 O5'        22.7470    1.7610  138.8100 O.3     114   U46      -0.4989
   3620 C5'        23.4330    0.7320  139.5260 C.3     114   U46       0.0558
   3621 C4'        23.0500    0.7820  140.9890 C.3     114   U46       0.1065
   3622 O4'        21.6270    0.5100  141.0890 O.3     114   U46      -0.3548
   3623 C3'        23.7100   -0.2450  141.8990 C.3     114   U46       0.2022
   3624 O3'        25.0700    0.1080  142.2400 O.3     114   U46      -0.5246
   3625 C2'        22.6750   -0.4760  143.0060 C.3     114   U46       0.0670
   3626 O2'        22.7340    0.3860  144.1210 O.3     114   U46      -0.6139
   3627 C1'        21.3540   -0.2400  142.2600 C.3     114   U46       0.0674
   3628 N1         20.6100   -1.4480  141.8690 N.am    114   U46       0.0418
   3629 C2         19.5460   -1.8350  142.6700 C.2     114   U46       0.4687
   3630 O2         19.2130   -1.2250  143.6710 O.2     114   U46      -0.5477
   3631 N3         18.8850   -2.9630  142.2530 N.am    114   U46      -0.3549
   3632 C4         19.1700   -3.7320  141.1430 C.2     114   U46       0.5952
   3633 O4         18.4800   -4.7270  140.9040 O.2     114   U46      -0.5761
   3634 C5         20.2840   -3.2690  140.3660 C.2     114   U46      -0.3635
   3635 C6         20.9490   -2.1710  140.7470 C.2     114   U46      -0.1126
   3636 H5'        23.1597   -0.2393  139.1137 H       114   U46       0.0679
   3637 H5''       24.5088    0.8777  139.4279 H       114   U46       0.0679
   3638 H4'        23.2498    1.7813  141.3757 H       114   U46       0.1174
   3639 H3'        23.7652   -1.1725  141.3292 H       114   U46       0.0615
   3640 H2'        22.7247   -1.5117  143.3420 H       114   U46       0.0972
   3641 H1'        20.7082    0.3601  142.9010 H       114   U46       0.1824
   3642 H3         18.1050   -3.2631  142.8202 H       114   U46       0.3154
   3643 H5         20.5849   -3.8040  139.4774 H       114   U46       0.1811
   3644 H6         21.7854   -1.8388  140.1500 H       114   U46       0.2188
   3645 HO2'       23.6510    0.5346  144.3630 H       114   U46       0.4186
   3646 P          25.4070    1.2000  143.3970 P.3     115   A47       1.1662
   3647 OP1        26.8910    1.3170  143.4370 O.co2   115   A47      -0.7760
   3648 OP2        24.6760    0.9180  144.6610 O.co2   115   A47      -0.7760
   3649 O5'        24.9120    2.5920  142.7980 O.3     115   A47      -0.4989
   3650 C5'        25.2230    3.8130  143.4630 C.3     115   A47       0.0558
   3651 C4'        24.6430    4.9940  142.7160 C.3     115   A47       0.1065
   3652 O4'        23.4410    4.6000  142.0050 O.3     115   A47      -0.3548
   3653 C3'        24.2390    6.1280  143.6440 C.3     115   A47       0.2022
   3654 O3'        25.3020    7.0650  143.7920 O.3     115   A47      -0.5246
   3655 C2'        23.0230    6.7230  142.9490 C.3     115   A47       0.0670
   3656 O2'        23.3780    7.6640  141.9570 O.3     115   A47      -0.6139
   3657 C1'        22.3820    5.4740  142.3330 C.3     115   A47       0.0394
   3658 N9         21.5170    4.7350  143.2470 N.ar    115   A47      -0.0251
   3659 C8         21.7920    3.4980  143.7550 C.ar    115   A47       0.2006
   3660 N7         20.8730    3.0410  144.5620 N.ar    115   A47      -0.6073
   3661 C5         19.9240    4.0470  144.5860 C.ar    115   A47       0.0515
   3662 C6         18.7080    4.1670  145.2620 C.ar    115   A47       0.7009
   3663 N6         18.2260    3.2290  146.0780 N.pl3   115   A47      -0.9019
   3664 N1         17.9930    5.2950  145.0740 N.ar    115   A47      -0.7615
   3665 C2         18.4820    6.2310  144.2540 C.ar    115   A47       0.5875
   3666 N3         19.6200    6.2340  143.5630 N.ar    115   A47      -0.6997
   3667 C4         20.3040    5.0970  143.7760 C.ar    115   A47       0.3053
   3668 H5'        24.8064    3.7876  144.4699 H       115   A47       0.0679
   3669 H5''       26.3057    3.9231  143.5246 H       115   A47       0.0679
   3670 H4'        25.3784    5.3615  142.0003 H       115   A47       0.1174
   3671 H3'        23.9544    5.7297  144.6179 H       115   A47       0.0615
   3672 H2'        22.3511    7.1748  143.6787 H       115   A47       0.0972
   3673 H1'        21.8293    5.7440  141.4332 H       115   A47       0.2007
   3674 H8         22.6886    2.9473  143.5114 H       115   A47       0.1553
   3675 H2         17.8659    7.1101  144.1352 H       115   A47       0.0473
   3676 H61        17.3682    3.1433  146.6042 H       115   A47       0.4115
   3677 H62        18.8473    2.4412  146.1939 H       115   A47       0.4115
   3678 HO2'       23.7757    8.4328  142.3722 H       115   A47       0.4186
   3679 P          25.8040    7.4720  145.2640 P.3     116   C48       1.1662
   3680 OP1        26.9800    8.3650  145.0900 O.co2   116   C48      -0.7760
   3681 OP2        25.9310    6.2340  146.0800 O.co2   116   C48      -0.7760
   3682 O5'        24.6000    8.3240  145.8660 O.3     116   C48      -0.4989
   3683 C5'        24.0380    9.4200  145.1490 C.3     116   C48       0.0558
   3684 C4'        22.7130    9.8100  145.7600 C.3     116   C48       0.1065
   3685 O4'        21.6670    8.8650  145.3920 O.3     116   C48      -0.3548
   3686 C3'        22.7040    9.7790  147.2740 C.3     116   C48       0.2022
   3687 O3'        23.2710   10.9680  147.7960 O.3     116   C48      -0.5246
   3688 C2'        21.2170    9.6750  147.5670 C.3     116   C48       0.0670
   3689 O2'        20.5800   10.9200  147.3890 O.3     116   C48      -0.6139
   3690 C1'        20.7630    8.7070  146.4750 C.3     116   C48       0.0066
   3691 N1         20.8230    7.3100  146.9290 N.am    116   C48      -0.0484
   3692 C2         19.7180    6.7570  147.5960 C.2     116   C48       0.7538
   3693 O2         18.7010    7.4460  147.7590 O.2     116   C48      -0.6252
   3694 N3         19.7910    5.4840  148.0460 N.2     116   C48      -0.7584
   3695 C4         20.9030    4.7700  147.8530 C.2     116   C48       0.8185
   3696 N4         20.9340    3.5200  148.3150 N.pl3   116   C48      -0.9530
   3697 C5         22.0320    5.3040  147.1740 C.2     116   C48      -0.5215
   3698 C6         21.9470    6.5630  146.7270 C.2     116   C48       0.0053
   3699 H5'        23.8850    9.1309  144.1092 H       116   C48       0.0679
   3700 H5''       24.7204   10.2689  145.1921 H       116   C48       0.0679
   3701 H4'        22.4363   10.8070  145.4172 H       116   C48       0.1174
   3702 H3'        23.2338    8.9021  147.6461 H       116   C48       0.0615
   3703 H2'        21.0328    9.2702  148.5621 H       116   C48       0.0972
   3704 H1'        19.7503    8.9528  146.1553 H       116   C48       0.2029
   3705 H5         22.9253    4.7157  147.0243 H       116   C48       0.1928
   3706 H6         22.7829    6.9952  146.1971 H       116   C48       0.1958
   3707 H41        20.1317    3.1394  148.7962 H       116   C48       0.4234
   3708 H42        21.7598    2.9535  148.1838 H       116   C48       0.4234
   3709 HO2'       19.6940   10.8821  147.7567 H       116   C48       0.4186
   3710 P          24.1470   10.9080  149.1350 P.3     117   C49       1.1662
   3711 OP1        24.7660   12.2540  149.2450 O.co2   117   C49      -0.7760
   3712 OP2        24.9950    9.6840  149.1120 O.co2   117   C49      -0.7760
   3713 O5'        23.0940   10.7510  150.3180 O.3     117   C49      -0.4989
   3714 C5'        22.0560   11.7060  150.4970 C.3     117   C49       0.0558
   3715 C4'        20.9710   11.1380  151.3730 C.3     117   C49       0.1065
   3716 O4'        20.3230   10.0140  150.7110 O.3     117   C49      -0.3548
   3717 C3'        21.4240   10.5050  152.6710 C.3     117   C49       0.2022
   3718 O3'        21.7790   11.4770  153.6420 O.3     117   C49      -0.5246
   3719 C2'        20.1780    9.7180  153.0490 C.3     117   C49       0.0670
   3720 O2'        19.1410   10.5430  153.5170 O.3     117   C49      -0.6139
   3721 C1'        19.7620    9.1590  151.6910 C.3     117   C49       0.0066
   3722 N1         20.2940    7.8110  151.5150 N.am    117   C49      -0.0484
   3723 C2         19.5760    6.7380  152.0610 C.2     117   C49       0.7538
   3724 O2         18.5010    6.9660  152.6210 O.2     117   C49      -0.6252
   3725 N3         20.0720    5.4860  151.9640 N.2     117   C49      -0.7584
   3726 C4         21.2360    5.2810  151.3410 C.2     117   C49       0.8185
   3727 N4         21.6960    4.0280  151.2750 N.pl3   117   C49      -0.9530
   3728 C5         21.9820    6.3540  150.7580 C.2     117   C49      -0.5215
   3729 C6         21.4740    7.5930  150.8660 C.2     117   C49       0.0053
   3730 H5'        22.4666   12.5998  150.9667 H       117   C49       0.0679
   3731 H5''       21.6358   11.9688  149.5262 H       117   C49       0.0679
   3732 H4'        20.2320   11.9110  151.5839 H       117   C49       0.1174
   3733 H3'        22.2589    9.8279  152.4906 H       117   C49       0.0615
   3734 H2'        20.4068    8.9215  153.7570 H       117   C49       0.0972
   3735 H1'        18.6755    9.1492  151.6047 H       117   C49       0.2029
   3736 H5         22.9182    6.1745  150.2503 H       117   C49       0.1928
   3737 H6         22.0066    8.4271  150.4335 H       117   C49       0.1958
   3738 H41        21.1668    3.2734  151.6881 H       117   C49       0.4234
   3739 H42        22.5728    3.8357  150.8121 H       117   C49       0.4234
   3740 HO2'       18.4565   10.0016  153.9168 H       117   C49       0.4186
   3741 P          22.9980   11.1870  154.6510 P.3     118   C50       1.1662
   3742 OP1        23.2570   12.4650  155.3570 O.co2   118   C50      -0.7760
   3743 OP2        24.1050   10.5080  153.9200 O.co2   118   C50      -0.7760
   3744 O5'        22.4020   10.1520  155.7040 O.3     118   C50      -0.4989
   3745 C5'        21.2620   10.5000  156.4790 C.3     118   C50       0.0558
   3746 C4'        20.6130    9.2700  157.0630 C.3     118   C50       0.1065
   3747 O4'        20.2690    8.3410  155.9970 O.3     118   C50      -0.3548
   3748 C3'        21.4410    8.4090  158.0030 C.3     118   C50       0.2022
   3749 O3'        21.4800    8.9640  159.3080 O.3     118   C50      -0.5246
   3750 C2'        20.6250    7.1260  157.9960 C.3     118   C50       0.0670
   3751 O2'        19.4290    7.2810  158.7310 O.3     118   C50      -0.6139
   3752 C1'        20.2580    7.0190  156.5160 C.3     118   C50       0.0066
   3753 N1         21.2160    6.1990  155.7650 N.am    118   C50      -0.0484
   3754 C2         21.2770    4.8460  156.0450 C.2     118   C50       0.7538
   3755 O2         20.5190    4.3880  156.9130 O.2     118   C50      -0.6252
   3756 N3         22.1550    4.0640  155.3720 N.2     118   C50      -0.7584
   3757 C4         22.9510    4.6040  154.4470 C.2     118   C50       0.8185
   3758 N4         23.8080    3.8010  153.8110 N.pl3   118   C50      -0.9530
   3759 C5         22.9050    5.9910  154.1370 C.2     118   C50      -0.5215
   3760 C6         22.0320    6.7450  154.8140 C.2     118   C50       0.0053
   3761 H5'        20.5422   11.0156  155.8433 H       118   C50       0.0679
   3762 H5''       21.5668   11.1638  157.2881 H       118   C50       0.0679
   3763 H4'        19.6984    9.5675  157.5760 H       118   C50       0.1174
   3764 H3'        22.4446    8.2441  157.6109 H       118   C50       0.0615
   3765 H2'        21.2065    6.2692  158.3365 H       118   C50       0.0972
   3766 H1'        19.2584    6.5959  156.4170 H       118   C50       0.2029
   3767 H5         23.5501    6.4191  153.3840 H       118   C50       0.1928
   3768 H6         21.9708    7.8030  154.6058 H       118   C50       0.1958
   3769 H41        23.8387    2.8166  154.0348 H       118   C50       0.4234
   3770 H42        24.4254    4.1782  153.1062 H       118   C50       0.4234
   3771 HO2'       18.9648    6.4415  158.7684 H       118   C50       0.4186
   3772 P          22.6700    8.5610  160.3130 P.3     119   G51       1.1662
   3773 OP1        22.5000    9.3610  161.5580 O.co2   119   G51      -0.7760
   3774 OP2        23.9650    8.6200  159.5790 O.co2   119   G51      -0.7760
   3775 O5'        22.3520    7.0490  160.6940 O.3     119   G51      -0.4989
   3776 C5'        21.2690    6.7330  161.5480 C.3     119   G51       0.0558
   3777 C4'        21.3200    5.2770  161.9290 C.3     119   G51       0.1065
   3778 O4'        21.2120    4.4600  160.7420 O.3     119   G51      -0.3548
   3779 C3'        22.6100    4.8050  162.5750 C.3     119   G51       0.2022
   3780 O3'        22.5340    5.0400  163.9680 O.3     119   G51      -0.5246
   3781 C2'        22.5860    3.3050  162.3100 C.3     119   G51       0.0670
   3782 O2'        21.8690    2.5940  163.2940 O.3     119   G51      -0.6139
   3783 C1'        21.8530    3.2220  160.9680 C.3     119   G51       0.0191
   3784 N9         22.7390    2.9460  159.8450 N.ar    119   G51       0.0492
   3785 C8         23.2770    3.8470  158.9600 C.ar    119   G51       0.1374
   3786 N7         24.0610    3.2930  158.0810 N.ar    119   G51      -0.5709
   3787 C5         24.0350    1.9430  158.4050 C.ar    119   G51       0.1744
   3788 C6         24.7010    0.8380  157.8100 C.2     119   G51       0.4770
   3789 O6         25.4830    0.8330  156.8530 O.2     119   G51      -0.5597
   3790 N1         24.3810   -0.3500  158.4490 N.am    119   G51      -0.4787
   3791 C2         23.5360   -0.4640  159.5220 C.2     119   G51       0.7657
   3792 N2         23.3540   -1.6960  160.0070 N.pl3   119   G51      -0.9672
   3793 N3         22.9130    0.5520  160.0850 N.2     119   G51      -0.6323
   3794 C4         23.2100    1.7160  159.4810 C.ar    119   G51       0.1222
   3795 H5'        20.3311    6.9381  161.0320 H       119   G51       0.0679
   3796 H5''       21.3278    7.3447  162.4482 H       119   G51       0.0679
   3797 H4'        20.4855    5.0528  162.5934 H       119   G51       0.1174
   3798 H3'        23.4839    5.2813  162.1306 H       119   G51       0.0615
   3799 H2'        23.5999    2.9156  162.2179 H       119   G51       0.0972
   3800 H1'        21.0983    2.4376  161.0247 H       119   G51       0.2006
   3801 H8         23.0709    4.9067  158.9900 H       119   G51       0.1640
   3802 H1         24.8033   -1.1971  158.0965 H       119   G51       0.3424
   3803 H21        23.8276   -2.4808  159.5828 H       119   G51       0.4364
   3804 H22        22.7428   -1.8423  160.7977 H       119   G51       0.4364
   3805 HO2'       22.3336    2.6500  164.1322 H       119   G51       0.4186
   3806 P          23.8490    5.4590  164.7790 P.3     120   U52       1.1662
   3807 OP1        24.5310    6.5040  163.9680 O.co2   120   U52      -0.7760
   3808 OP2        24.5780    4.2170  165.1490 O.co2   120   U52      -0.7760
   3809 O5'        23.2740    6.1060  166.1220 O.3     120   U52      -0.4989
   3810 C5'        22.6650    7.4020  166.1180 C.3     120   U52       0.0558
   3811 C4'        21.7700    7.5830  167.3330 C.3     120   U52       0.1065
   3812 O4'        20.6220    6.7040  167.2210 O.3     120   U52      -0.3548
   3813 C3'        22.4660    7.1970  168.6390 C.3     120   U52       0.2022
   3814 O3'        22.3500    8.1470  169.6980 O.3     120   U52      -0.5246
   3815 C2'        21.9980    5.7820  168.9670 C.3     120   U52       0.0670
   3816 O2'        21.6700    5.6660  170.3290 O.3     120   U52      -0.6139
   3817 C1'        20.6730    5.7100  168.2150 C.3     120   U52       0.0674
   3818 N1         20.2490    4.4210  167.6540 N.am    120   U52       0.0418
   3819 C2         19.6850    3.5190  168.5330 C.2     120   U52       0.4687
   3820 O2         19.5720    3.7490  169.7220 O.2     120   U52      -0.5477
   3821 N3         19.2550    2.3430  167.9710 N.am    120   U52      -0.3549
   3822 C4         19.3360    1.9810  166.6400 C.2     120   U52       0.5952
   3823 O4         18.8980    0.8820  166.2810 O.2     120   U52      -0.5761
   3824 C5         19.9500    2.9660  165.7930 C.2     120   U52      -0.3635
   3825 C6         20.3780    4.1250  166.3200 C.2     120   U52      -0.1126
   3826 H5'        23.4452    8.1631  166.1328 H       120   U52       0.0679
   3827 H5''       22.0689    7.5160  165.2126 H       120   U52       0.0679
   3828 H4'        21.4342    8.6184  167.3893 H       120   U52       0.1174
   3829 H3'        23.5289    7.1226  168.4093 H       120   U52       0.0615
   3830 H2'        22.7064    5.0206  168.6407 H       120   U52       0.0972
   3831 H1'        19.9071    5.9809  168.9417 H       120   U52       0.1824
   3832 H3         18.8347    1.6708  168.5968 H       120   U52       0.3154
   3833 H5         20.0669    2.7751  164.7364 H       120   U52       0.1811
   3834 H6         20.8413    4.8517  165.6692 H       120   U52       0.2188
   3835 HO2'       20.7868    5.2999  170.4159 H       120   U52       0.4186
   3836 P          23.2600    9.4740  169.7050 P.3     121   A53       1.1662
   3837 OP1        24.5070    9.2150  168.9290 O.co2   121   A53      -0.7760
   3838 OP2        23.3490    9.9500  171.1170 O.co2   121   A53      -0.7760
   3839 O5'        22.4090   10.5480  168.8980 O.3     121   A53      -0.4989
   3840 C5'        21.0960   10.8880  169.3090 C.3     121   A53       0.0558
   3841 C4'        20.2660   11.2380  168.1070 C.3     121   A53       0.1065
   3842 O4'        20.2330   10.1200  167.1910 O.3     121   A53      -0.3548
   3843 C3'        18.8050   11.5370  168.3770 C.3     121   A53       0.2022
   3844 O3'        18.6980   12.9120  168.7390 O.3     121   A53      -0.5246
   3845 C2'        18.1460   11.2770  167.0180 C.3     121   A53       0.0670
   3846 O2'        18.1390   12.4280  166.1970 O.3     121   A53      -0.6139
   3847 C1'        19.0750   10.2270  166.3940 C.3     121   A53       0.0394
   3848 N9         18.5330    8.8910  166.1170 N.ar    121   A53      -0.0251
   3849 C8         18.4550    8.3120  164.8720 C.ar    121   A53       0.2006
   3850 N7         17.9160    7.1200  164.8710 N.ar    121   A53      -0.6073
   3851 C5         17.6200    6.8910  166.2030 C.ar    121   A53       0.0515
   3852 C6         17.0370    5.8010  166.8530 C.ar    121   A53       0.7009
   3853 N6         16.6330    4.6940  166.2190 N.pl3   121   A53      -0.9019
   3854 N1         16.8800    5.8830  168.1900 N.ar    121   A53      -0.7615
   3855 C2         17.2920    6.9950  168.8170 C.ar    121   A53       0.5875
   3856 N3         17.8590    8.0880  168.3140 N.ar    121   A53      -0.6997
   3857 C4         17.9960    7.9730  166.9860 C.ar    121   A53       0.3053
   3858 H5'        21.1372   11.7438  169.9828 H       121   A53       0.0679
   3859 H5''       20.6465   10.0402  169.8261 H       121   A53       0.0679
   3860 H4'        20.7153   12.0943  167.6040 H       121   A53       0.1174
   3861 H3'        18.3987   10.8857  169.1509 H       121   A53       0.0615
   3862 H2'        17.1382   10.8810  167.1428 H       121   A53       0.0972
   3863 H1'        19.3978   10.6328  165.4353 H       121   A53       0.2007
   3864 H8         18.8076    8.7984  163.9745 H       121   A53       0.1553
   3865 H2         17.1413    7.0041  169.8864 H       121   A53       0.0473
   3866 HO2'       17.6179   12.2558  165.4093 H       121   A53       0.4186
   3867 H61        17.0384    4.4023  165.3411 H       121   A53       0.4115
   3868 H62        15.9007    4.1334  166.6307 H       121   A53       0.4115
   3869 P          17.4450   13.4210  169.6030 P.3     122   U54       1.1662
   3870 OP1        17.8200   13.2720  171.0320 O.co2   122   U54      -0.7760
   3871 OP2        16.2140   12.7600  169.0890 O.co2   122   U54      -0.7760
   3872 O5'        17.3650   14.9770  169.2630 O.3     122   U54      -0.4989
   3873 C5'        16.2860   15.5210  168.5010 C.3     122   U54       0.0558
   3874 C4'        16.7970   16.6160  167.5950 C.3     122   U54       0.1065
   3875 O4'        17.5870   17.5330  168.4030 O.3     122   U54      -0.3548
   3876 C3'        17.7430   16.1530  166.4920 C.3     122   U54       0.2022
   3877 O3'        17.0220   15.8030  165.3050 O.3     122   U54      -0.5246
   3878 C2'        18.6180   17.3810  166.2670 C.3     122   U54       0.0670
   3879 O2'        18.0130   18.3360  165.4190 O.3     122   U54      -0.6139
   3880 C1'        18.7420   17.9360  167.6870 C.3     122   U54       0.0674
   3881 H5'        15.5371   15.9323  169.1778 H       122   U54       0.0679
   3882 H5''       15.8352   14.7329  167.8979 H       122   U54       0.0679
   3883 H4'        15.9546   17.1493  167.1545 H       122   U54       0.1174
   3884 H3'        18.3461   15.3120  166.8343 H       122   U54       0.0615
   3885 H2'        19.5954   17.0904  165.8819 H       122   U54       0.0972
   3886 H1'        19.6355   17.5360  168.1663 H       122   U54       0.1824
   3887 H1''       18.7957   19.0242  167.6549 H       122   U54       0.0000
   3888 HO2'       17.9407   17.9766  164.5318 H       122   U54       0.4186
   3889 P          17.7920   15.0890  164.0740 P.3     123   C55       1.1662
   3890 OP1        17.8360   13.6250  164.3270 O.co2   123   C55      -0.7760
   3891 OP2        19.0630   15.8300  163.8240 O.co2   123   C55      -0.7760
   3892 O5'        16.8220   15.2890  162.8210 O.3     123   C55      -0.4989
   3893 C5'        17.0720   16.2940  161.8360 C.3     123   C55       0.0558
   3894 C4'        18.1210   15.8150  160.8510 C.3     123   C55       0.1065
   3895 O4'        19.4610   16.0950  161.3450 O.3     123   C55      -0.3548
   3896 C3'        18.1310   14.3190  160.5950 C.3     123   C55       0.2022
   3897 O3'        17.1490   13.9330  159.6520 O.3     123   C55      -0.5246
   3898 C2'        19.5430   14.0790  160.0740 C.3     123   C55       0.0670
   3899 O2'        19.6740   14.3500  158.6890 O.3     123   C55      -0.6139
   3900 C1'        20.3540   15.0780  160.9110 C.3     123   C55       0.0066
   3901 H5'        16.1477   16.5102  161.3002 H       123   C55       0.0679
   3902 H5''       17.4252   17.2008  162.3270 H       123   C55       0.0679
   3903 H4'        17.9785   16.3343  159.9033 H       123   C55       0.1174
   3904 H3'        17.9820   13.7797  161.5304 H       123   C55       0.0615
   3905 H2'        19.8586   13.0586  160.2917 H       123   C55       0.0972
   3906 H1'        21.1477   15.5138  160.3042 H       123   C55       0.2029
   3907 H1''       20.7851   14.5718  161.7747 H       123   C55       0.0000
   3908 HO2'       19.1590   13.7135  158.1878 H       123   C55       0.4186
   3909 P          16.3320   12.5820  159.8970 P.3     124   A56       1.1662
   3910 OP1        15.0950   12.9390  160.6420 O.co2   124   A56      -0.7760
   3911 OP2        17.2930   11.6160  160.4930 O.co2   124   A56      -0.7760
   3912 O5'        15.9410   12.0850  158.4300 O.3     124   A56      -0.4989
   3913 C5'        16.8010   12.3210  157.3180 C.3     124   A56       0.0558
   3914 C4'        16.8160   11.1200  156.3950 C.3     124   A56       0.1065
   3915 O4'        17.3680    9.9890  157.1130 O.3     124   A56      -0.3548
   3916 C3'        15.4730   10.6020  155.8970 C.3     124   A56       0.2022
   3917 O3'        14.9730   11.3510  154.7840 O.3     124   A56      -0.5246
   3918 C2'        15.8220    9.1640  155.5170 C.3     124   A56       0.0670
   3919 O2'        16.5230    9.0460  154.2900 O.3     124   A56      -0.6139
   3920 C1'        16.7860    8.7940  156.6380 C.3     124   A56       0.0394
   3921 N9         16.1710    8.1000  157.7630 N.ar    124   A56      -0.0251
   3922 C8         15.8570    8.5840  159.0020 C.ar    124   A56       0.2006
   3923 N7         15.3700    7.6790  159.8120 N.ar    124   A56      -0.6073
   3924 C5         15.3470    6.5230  159.0450 C.ar    124   A56       0.0515
   3925 C6         14.9510    5.2040  159.3230 C.ar    124   A56       0.7009
   3926 N6         14.5030    4.8010  160.5020 N.pl3   124   A56      -0.9019
   3927 N1         15.0460    4.2980  158.3370 N.ar    124   A56      -0.7615
   3928 C2         15.5250    4.6870  157.1600 C.ar    124   A56       0.5875
   3929 N3         15.9470    5.8880  156.7790 N.ar    124   A56      -0.6997
   3930 C4         15.8250    6.7730  157.7790 C.ar    124   A56       0.3053
   3931 H5'        16.4448   13.1918  156.7676 H       124   A56       0.0679
   3932 H5''       17.8120   12.5112  157.6783 H       124   A56       0.0679
   3933 H4'        17.4515   11.3399  155.5372 H       124   A56       0.1174
   3934 H3'        14.7456   10.6081  156.7088 H       124   A56       0.0615
   3935 H2'        14.9380    8.5264  155.5298 H       124   A56       0.0972
   3936 H1'        17.5732    8.1622  156.2266 H       124   A56       0.2007
   3937 H8         15.9976    9.6165  159.2859 H       124   A56       0.1553
   3938 H2         15.5790    3.9166  156.4050 H       124   A56       0.0473
   3939 H61        14.3146    3.9174  160.9534 H       124   A56       0.4115
   3940 H62        14.2953    5.5814  161.1086 H       124   A56       0.4115
   3941 HO2'       15.9490    9.3099  153.5671 H       124   A56       0.4186
   3942 P          13.4750   11.9510  154.8270 P.3     125   C57       1.1662
   3943 OP1        13.1110   12.3700  153.4470 O.co2   125   C57      -0.7760
   3944 OP2        13.4180   12.9300  155.9400 O.co2   125   C57      -0.7760
   3945 O5'        12.5280   10.7270  155.1950 O.3     125   C57      -0.4989
   3946 C5'        12.2860    9.7080  154.2410 C.3     125   C57       0.0558
   3947 C4'        11.8900    8.4200  154.9240 C.3     125   C57       0.1065
   3948 O4'        12.8030    8.1420  156.0230 O.3     125   C57      -0.3548
   3949 C3'        10.5350    8.4020  155.5890 C.3     125   C57       0.2022
   3950 O3'         9.5660    8.1000  154.6090 O.3     125   C57      -0.5246
   3951 C2'        10.6930    7.2360  156.5470 C.3     125   C57       0.0670
   3952 O2'        10.6730    6.0130  155.8530 O.3     125   C57      -0.6139
   3953 C1'        12.1120    7.4540  157.0450 C.3     125   C57       0.0066
   3954 N1         12.1830    8.2610  158.2580 N.am    125   C57      -0.0484
   3955 C2         11.9760    7.6420  159.4860 C.2     125   C57       0.7538
   3956 O2         11.7300    6.4350  159.5100 O.2     125   C57      -0.6252
   3957 N3         12.0570    8.3710  160.6130 N.2     125   C57      -0.7584
   3958 C4         12.3510    9.6670  160.5440 C.2     125   C57       0.8185
   3959 N4         12.4430   10.3480  161.6880 N.pl3   125   C57      -0.9530
   3960 C5         12.5690   10.3240  159.3020 C.2     125   C57      -0.5215
   3961 C6         12.4670    9.5930  158.1950 C.2     125   C57       0.0053
   3962 H5'        11.4807   10.0232  153.5775 H       125   C57       0.0679
   3963 H5''       13.1901    9.5414  153.6555 H       125   C57       0.0679
   3964 H4'        11.9429    7.6044  154.2029 H       125   C57       0.1174
   3965 H3'        10.3186    9.3355  156.1084 H       125   C57       0.0615
   3966 H2'         9.9626    7.2640  157.3556 H       125   C57       0.0972
   3967 H1'        12.5883    6.4895  157.2210 H       125   C57       0.2029
   3968 H5         12.8083   11.3763  159.2589 H       125   C57       0.1928
   3969 H6         12.6112   10.0615  157.2327 H       125   C57       0.1958
   3970 H41        12.2894    9.8785  162.5689 H       125   C57       0.4234
   3971 H42        12.6663   11.3329  161.6729 H       125   C57       0.4234
   3972 HO2'       11.1675    6.1007  155.0349 H       125   C57       0.4186
   3973 P           8.0350    8.5220  154.8420 P.3     126   C58       1.1662
   3974 OP1         7.3330    8.3010  153.5570 O.co2   126   C58      -0.7760
   3975 OP2         8.0270    9.8660  155.4650 O.co2   126   C58      -0.7760
   3976 O5'         7.4780    7.4680  155.9000 O.3     126   C58      -0.4989
   3977 C5'         7.2960    6.1010  155.5410 C.3     126   C58       0.0558
   3978 C4'         6.9580    5.2700  156.7600 C.3     126   C58       0.1065
   3979 O4'         7.9960    5.4480  157.7600 O.3     126   C58      -0.3548
   3980 C3'         5.6690    5.6280  157.4900 C.3     126   C58       0.2022
   3981 O3'         4.5660    4.9480  156.8990 O.3     126   C58      -0.5246
   3982 C2'         5.9350    5.0870  158.8910 C.3     126   C58       0.0670
   3983 O2'         5.7510    3.6860  158.9700 O.3     126   C58      -0.6139
   3984 C1'         7.4210    5.4080  159.0580 C.3     126   C58       0.0066
   3985 N1          7.6990    6.6880  159.7250 N.am    126   C58      -0.0484
   3986 C2          7.6290    6.7450  161.1120 C.2     126   C58       0.7538
   3987 O2          7.2660    5.7370  161.7280 O.2     126   C58      -0.6252
   3988 N3          7.9580    7.8950  161.7500 N.2     126   C58      -0.7584
   3989 C4          8.3320    8.9630  161.0430 C.2     126   C58       0.8185
   3990 N4          8.6730   10.0660  161.7070 N.pl3   126   C58      -0.9530
   3991 C5          8.3770    8.9440  159.6200 C.2     126   C58      -0.5215
   3992 C6          8.0510    7.7950  159.0070 C.2     126   C58       0.0053
   3993 H5'         6.4824    6.0256  154.8195 H       126   C58       0.0679
   3994 H5''        8.2132    5.7221  155.0901 H       126   C58       0.0679
   3995 H4'         6.9210    4.2193  156.4722 H       126   C58       0.1174
   3996 H3'         5.5082    6.7060  157.5052 H       126   C58       0.0615
   3997 H2'         5.3326    5.6069  159.6359 H       126   C58       0.0972
   3998 H1'         7.8920    4.6060  159.6264 H       126   C58       0.2029
   3999 H5          8.6622    9.8197  159.0559 H       126   C58       0.1928
   4000 H6          8.0674    7.7453  157.9283 H       126   C58       0.1958
   4001 H41         8.6422   10.0776  162.7165 H       126   C58       0.4234
   4002 H42         8.9624   10.8909  161.2011 H       126   C58       0.4234
   4003 HO2'        6.0549    3.3712  159.8245 H       126   C58       0.4186
   4004 P           3.0690    5.4760  157.1550 P.3     127   U59       1.1662
   4005 OP1         2.1920    4.3880  156.6460 O.co2   127   U59      -0.7760
   4006 OP2         2.9280    6.8580  156.6140 O.co2   127   U59      -0.7760
   4007 O5'         2.9560    5.5410  158.7460 O.3     127   U59      -0.4989
   4008 C5'         2.6050    4.3890  159.5110 C.3     127   U59       0.0558
   4009 C4'         2.0610    4.8060  160.8600 C.3     127   U59       0.1065
   4010 O4'         3.1370    5.3470  161.6610 O.3     127   U59      -0.3548
   4011 C3'         0.9860    5.8910  160.8420 C.3     127   U59       0.2022
   4012 O3'        -0.3080    5.2970  160.6990 O.3     127   U59      -0.5246
   4013 C2'         1.1430    6.5370  162.2150 C.3     127   U59       0.0670
   4014 O2'         0.4400    5.8390  163.2210 O.3     127   U59      -0.6139
   4015 C1'         2.6520    6.4100  162.4600 C.3     127   U59       0.0674
   4016 N1          3.4340    7.6140  162.1440 N.am    127   U59       0.0418
   4017 C2          3.6000    8.5560  163.1420 C.2     127   U59       0.4687
   4018 O2          3.1150    8.4410  164.2500 O.2     127   U59      -0.5477
   4019 N3          4.3580    9.6410  162.7930 N.am    127   U59      -0.3549
   4020 C4          4.9510    9.8770  161.5760 C.2     127   U59       0.5952
   4021 O4          5.6130   10.8990  161.4180 O.2     127   U59      -0.5761
   4022 C5          4.7250    8.8630  160.5960 C.2     127   U59      -0.3635
   4023 C6          3.9910    7.7940  160.9060 C.2     127   U59      -0.1126
   4024 H5'         1.8448    3.8194  158.9764 H       127   U59       0.0679
   4025 H5''        3.4887    3.7671  159.6541 H       127   U59       0.0679
   4026 H4'         1.6602    3.9256  161.3623 H       127   U59       0.1174
   4027 H3'         1.1738    6.6131  160.0474 H       127   U59       0.0615
   4028 H2'         0.8417    7.5842  162.1872 H       127   U59       0.0972
   4029 H1'         2.8130    6.1573  163.5080 H       127   U59       0.1824
   4030 H3          4.4962   10.3430  163.5059 H       127   U59       0.3154
   4031 H5          5.1473    8.9618  159.6069 H       127   U59       0.1811
   4032 H6          3.8292    7.0396  160.1503 H       127   U59       0.2188
   4033 HO2'       -0.2385    6.4082  163.5915 H       127   U59       0.4186
   4034 P          -1.5390    6.1550  160.1080 P.3     128   G60       1.1662
   4035 OP1        -2.7220    5.2580  160.1460 O.co2   128   G60      -0.7760
   4036 OP2        -1.1600    6.8180  158.8310 O.co2   128   G60      -0.7760
   4037 O5'        -1.7750    7.2840  161.2000 O.3     128   G60      -0.4989
   4038 C5'        -2.2320    6.9400  162.5020 C.3     128   G60       0.0558
   4039 C4'        -2.2230    8.1590  163.3790 C.3     128   G60       0.1065
   4040 O4'        -0.8520    8.5620  163.6220 O.3     128   G60      -0.3548
   4041 C3'        -2.8850    9.3670  162.7420 C.3     128   G60       0.2022
   4042 O3'        -4.2840    9.3220  162.9980 O.3     128   G60      -0.5246
   4043 C2'        -2.1840   10.5270  163.4400 C.3     128   G60       0.0670
   4044 O2'        -2.7370   10.8220  164.7050 O.3     128   G60      -0.6139
   4045 C1'        -0.7570    9.9780  163.5950 C.3     128   G60       0.0191
   4046 N9          0.1190   10.3360  162.4850 N.ar    128   G60       0.0492
   4047 C8          0.1030    9.7750  161.2360 C.ar    128   G60       0.1374
   4048 N7          0.9610   10.3150  160.4220 N.ar    128   G60      -0.5709
   4049 C5          1.5950   11.2860  161.1800 C.ar    128   G60       0.1744
   4050 C6          2.6180   12.2020  160.8230 C.2     128   G60       0.4770
   4051 O6          3.1680   12.3440  159.7300 O.2     128   G60      -0.5597
   4052 N1          2.9870   13.0090  161.8970 N.am    128   G60      -0.4787
   4053 C2          2.4380   12.9460  163.1500 C.2     128   G60       0.7657
   4054 N2          2.9370   13.8010  164.0480 N.pl3   128   G60      -0.9672
   4055 N3          1.4660   12.1000  163.4960 N.2     128   G60      -0.6323
   4056 C4          1.0970   11.3060  162.4630 C.ar    128   G60       0.1222
   4057 H5'        -3.2467    6.5472  162.4378 H       128   G60       0.0679
   4058 H5''       -1.5756    6.1814  162.9283 H       128   G60       0.0679
   4059 H4'        -2.7110    7.9316  164.3267 H       128   G60       0.1174
   4060 H3'        -2.6913    9.3903  161.6696 H       128   G60       0.0615
   4061 H2'        -2.1862   11.4132  162.8053 H       128   G60       0.0972
   4062 H1'        -0.3269   10.3344  164.5310 H       128   G60       0.2006
   4063 H8         -0.5554    8.9662  160.9556 H       128   G60       0.1640
   4064 H1          3.7142   13.6920  161.7396 H       128   G60       0.3424
   4065 H21         3.6729   14.4397  163.7825 H       128   G60       0.4364
   4066 H22         2.5781   13.8083  164.9921 H       128   G60       0.4364
   4067 HO2'       -3.6272   11.1636  164.5938 H       128   G60       0.4186
   4068 P          -5.3250    9.9530  161.9380 P.3     129   A61       1.1662
   4069 OP1        -5.2500   11.4350  162.0860 O.co2   129   A61      -0.7760
   4070 OP2        -6.6220    9.2590  162.1450 O.co2   129   A61      -0.7760
   4071 O5'        -4.7670    9.5460  160.4950 O.3     129   A61      -0.4989
   4072 C5'        -5.6390    9.4950  159.3590 C.3     129   A61       0.0558
   4073 C4'        -4.8780    9.8040  158.0880 C.3     129   A61       0.1065
   4074 O4'        -4.2960   11.1270  158.1990 O.3     129   A61      -0.3548
   4075 C3'        -3.7130    8.8500  157.8510 C.3     129   A61       0.2022
   4076 O3'        -3.6090    8.3100  156.5290 O.3     129   A61      -0.5246
   4077 C2'        -2.4640    9.5700  158.3640 C.3     129   A61       0.0670
   4078 O2'        -1.3640    9.4380  157.4850 O.3     129   A61      -0.6139
   4079 C1'        -2.8910   11.0390  158.3090 C.3     129   A61       0.0394
   4080 N9         -2.4550   11.8740  159.4230 N.ar    129   A61      -0.0251
   4081 C8         -3.0340   12.0180  160.6550 C.ar    129   A61       0.2006
   4082 N7         -2.4140   12.8690  161.4350 N.ar    129   A61      -0.6073
   4083 C5         -1.3490   13.3120  160.6610 C.ar    129   A61       0.0515
   4084 C6         -0.3150   14.2290  160.9100 C.ar    129   A61       0.7009
   4085 N6         -0.1730   14.8930  162.0560 N.pl3   129   A61      -0.9019
   4086 N1          0.5820   14.4420  159.9260 N.ar    129   A61      -0.7615
   4087 C2          0.4410   13.7700  158.7780 C.ar    129   A61       0.5875
   4088 N3         -0.4860   12.8880  158.4260 N.ar    129   A61      -0.6997
   4089 C4         -1.3610   12.7020  159.4230 C.ar    129   A61       0.3053
   4090 H5'        -6.4358   10.2278  159.4862 H       129   A61       0.0679
   4091 H5''       -6.0749    8.4987  159.2843 H       129   A61       0.0679
   4092 H4'        -5.5576    9.7722  157.2364 H       129   A61       0.1174
   4093 H3'        -3.8721    8.0015  158.5165 H       129   A61       0.0615
   4094 H2'        -2.2090    9.2620  159.3780 H       129   A61       0.0972
   4095 H1'        -2.4676   11.4654  157.3996 H       129   A61       0.2007
   4096 H8         -3.9204   11.4797  160.9564 H       129   A61       0.1553
   4097 H2          1.1909   13.9751  158.0283 H       129   A61       0.0473
   4098 HO2'       -0.8517    8.6630  157.7269 H       129   A61       0.4186
   4099 H61         0.2216   15.7629  162.3841 H       129   A61       0.4115
   4100 H62        -0.5792   14.3743  162.8216 H       129   A61       0.4115
   4101 P          -4.9240    7.8360  155.7340 P.3     130   U62       1.1662
   4102 OP1        -5.6850    6.9300  156.6330 O.co2   130   U62      -0.7760
   4103 OP2        -4.4870    7.3560  154.3990 O.co2   130   U62      -0.7760
   4104 O5'        -5.7740    9.1690  155.5160 O.3     130   U62      -0.4989
   4105 C5'        -5.2530   10.2760  154.7750 C.3     130   U62       0.0558
   4106 C4'        -6.3050   10.8020  153.8230 C.3     130   U62       0.1065
   4107 O4'        -6.6640    9.7060  152.9480 O.3     130   U62      -0.3548
   4108 C3'        -7.6200   11.2570  154.4570 C.3     130   U62       0.2022
   4109 O3'        -7.6890   12.6680  154.6930 O.3     130   U62      -0.5246
   4110 C2'        -8.6320   10.9890  153.3480 C.3     130   U62       0.0670
   4111 O2'        -8.7040   12.0640  152.4290 O.3     130   U62      -0.6139
   4112 C1'        -8.0480    9.7480  152.6700 C.3     130   U62       0.0674
   4113 N1         -8.6340    8.4830  153.1250 N.am    130   U62       0.0418
   4114 C2         -9.6470    7.9410  152.3660 C.2     130   U62       0.4687
   4115 O2        -10.0880    8.4820  151.3660 O.2     130   U62      -0.5477
   4116 N3        -10.1240    6.7390  152.8190 N.am    130   U62      -0.3549
   4117 C4         -9.6980    6.0470  153.9310 C.2     130   U62       0.5952
   4118 O4        -10.2090    4.9610  154.1970 O.2     130   U62      -0.5761
   4119 C5         -8.6560    6.6880  154.6710 C.2     130   U62      -0.3635
   4120 C6         -8.1750    7.8560  154.2530 C.2     130   U62      -0.1126
   4121 H5'        -4.9627   11.0679  155.4655 H       130   U62       0.0679
   4122 H5''       -4.3803    9.9529  154.2074 H       130   U62       0.0679
   4123 H4'        -5.8857   11.6163  153.2321 H       130   U62       0.1174
   4124 H3'        -7.8503   10.6873  155.3573 H       130   U62       0.0615
   4125 H2'        -9.6149   10.7731  153.7668 H       130   U62       0.0972
   4126 H1'        -8.1891    9.8350  151.5927 H       130   U62       0.1824
   4127 H3        -10.8664    6.3158  152.2806 H       130   U62       0.3154
   4128 H5         -8.2615    6.2267  155.5643 H       130   U62       0.1811
   4129 H6         -7.3911    8.3287  154.8262 H       130   U62       0.2188
   4130 HO2'       -9.0716   12.8354  152.8664 H       130   U62       0.4186
   4131 P          -6.3870   13.4860  155.1630 P.3     131   C63       1.1662
   4132 OP1        -6.8350   14.8790  155.4300 O.co2   131   C63      -0.7760
   4133 OP2        -5.2910   13.2530  154.1790 O.co2   131   C63      -0.7760
   4134 O5'        -5.9790   12.8200  156.5580 O.3     131   C63      -0.4989
   4135 C5'        -6.9290   12.6500  157.6100 C.3     131   C63       0.0558
   4136 C4'        -6.7000   13.6800  158.6940 C.3     131   C63       0.1065
   4137 O4'        -5.3130   13.6370  159.1180 O.3     131   C63      -0.3548
   4138 C3'        -6.9000   15.1310  158.2820 C.3     131   C63       0.2022
   4139 O3'        -8.2770   15.4700  158.3680 O.3     131   C63      -0.5246
   4140 C2'        -6.0740   15.8900  159.3180 C.3     131   C63       0.0670
   4141 O2'        -6.7570   16.0900  160.5390 O.3     131   C63      -0.6139
   4142 C1'        -4.9090   14.9270  159.5520 C.3     131   C63       0.0066
   4143 N1         -3.6770   15.3040  158.8500 N.am    131   C63      -0.0484
   4144 C2         -2.8350   16.2440  159.4420 C.2     131   C63       0.7538
   4145 O2         -3.1660   16.7450  160.5260 O.2     131   C63      -0.6252
   4146 N3         -1.6870   16.5860  158.8240 N.2     131   C63      -0.7584
   4147 C4         -1.3720   16.0310  157.6570 C.2     131   C63       0.8185
   4148 N4         -0.2280   16.3960  157.0880 N.pl3   131   C63      -0.9530
   4149 C5         -2.2160   15.0770  157.0230 C.2     131   C63      -0.5215
   4150 C6         -3.3490   14.7460  157.6480 C.2     131   C63       0.0053
   4151 H5'        -6.8214   11.6516  158.0340 H       131   C63       0.0679
   4152 H5''       -7.9361   12.7654  157.2092 H       131   C63       0.0679
   4153 H4'        -7.3433   13.4558  159.5449 H       131   C63       0.1174
   4154 H3'        -6.5183   15.3060  157.2761 H       131   C63       0.0615
   4155 H2'        -5.7188   16.8374  158.9125 H       131   C63       0.0972
   4156 H1'        -4.7014   14.8853  160.6212 H       131   C63       0.2029
   4157 H5         -1.9507   14.6374  156.0729 H       131   C63       0.1928
   4158 H6         -4.0154   14.0264  157.1959 H       131   C63       0.1958
   4159 H41         0.3682   17.0733  157.5418 H       131   C63       0.4234
   4160 H42         0.0454   15.9961  156.2018 H       131   C63       0.4234
   4161 HO2'       -7.0912   15.2492  160.8599 H       131   C63       0.4186
   4162 P          -8.8220   16.7740  157.6130 P.3     132   U64       1.1662
   4163 OP1       -10.2380   16.9360  158.0290 O.co2   132   U64      -0.7760
   4164 OP2        -8.4980   16.6520  156.1690 O.co2   132   U64      -0.7760
   4165 O5'        -7.9760   17.9710  158.2510 O.3     132   U64      -0.4989
   4166 C5'        -8.4450   18.6390  159.4220 C.3     132   U64       0.0558
   4167 C4'        -7.6640   19.9120  159.6760 C.3     132   U64       0.1065
   4168 O4'        -6.3140   19.6020  160.1120 O.3     132   U64      -0.3548
   4169 C3'        -7.4480   20.8420  158.4980 C.3     132   U64       0.2022
   4170 O3'        -8.5870   21.6400  158.2130 O.3     132   U64      -0.5246
   4171 C2'        -6.2900   21.6910  158.9970 C.3     132   U64       0.0670
   4172 O2'        -6.6920   22.6670  159.9310 O.3     132   U64      -0.6139
   4173 C1'        -5.4300   20.6370  159.6950 C.3     132   U64       0.0674
   4174 N1         -4.4540   20.0710  158.7540 N.am    132   U64       0.0418
   4175 C2         -3.2710   20.7690  158.5400 C.2     132   U64       0.4687
   4176 O2         -2.9860   21.7980  159.1340 O.2     132   U64      -0.5477
   4177 N3         -2.4360   20.2110  157.6020 N.am    132   U64      -0.3549
   4178 C4         -2.6540   19.0470  156.8800 C.2     132   U64       0.5952
   4179 O4         -1.8160   18.6750  156.0600 O.2     132   U64      -0.5761
   4180 C5         -3.8840   18.3800  157.1770 C.2     132   U64      -0.3635
   4181 C6         -4.7170   18.8970  158.0820 C.2     132   U64      -0.1126
   4182 H5'        -9.4981   18.8881  159.2914 H       132   U64       0.0679
   4183 H5''       -8.3376   17.9756  160.2801 H       132   U64       0.0679
   4184 H4'        -8.1626   20.4699  160.4686 H       132   U64       0.1174
   4185 H3'        -7.1509   20.2750  157.6158 H       132   U64       0.0615
   4186 H2'        -5.7520   22.1452  158.1649 H       132   U64       0.0972
   4187 H1'        -4.9207   21.0712  160.5553 H       132   U64       0.1824
   4188 H3         -1.5717   20.7005  157.4189 H       132   U64       0.3154
   4189 H5         -4.1377   17.4606  156.6702 H       132   U64       0.1811
   4190 H6         -5.6366   18.3731  158.2971 H       132   U64       0.2188
   4191 HO2'       -6.4852   23.5405  159.5908 H       132   U64       0.4186
   4192 P          -8.7190   22.3480  156.7720 P.3     133   G65       1.1662
   4193 OP1       -10.0980   22.9040  156.7060 O.co2   133   G65      -0.7760
   4194 OP2        -8.2530   21.4150  155.7120 O.co2   133   G65      -0.7760
   4195 O5'        -7.6570   23.5390  156.8240 O.3     133   G65      -0.4989
   4196 C5'        -7.8950   24.7180  157.5890 C.3     133   G65       0.0558
   4197 C4'        -6.7110   25.6540  157.4850 C.3     133   G65       0.1065
   4198 O4'        -5.5380   25.0010  158.0500 O.3     133   G65      -0.3548
   4199 C3'        -6.2740   26.0120  156.0720 C.3     133   G65       0.2022
   4200 O3'        -7.0350   27.0650  155.4840 O.3     133   G65      -0.5246
   4201 C2'        -4.8260   26.4110  156.2970 C.3     133   G65       0.0670
   4202 O2'        -4.6990   27.6930  156.8740 O.3     133   G65      -0.6139
   4203 C1'        -4.3860   25.3340  157.2870 C.3     133   G65       0.0191
   4204 N9         -3.9440   24.1330  156.5820 N.ar    133   G65       0.0492
   4205 C8         -4.6400   22.9540  156.4530 C.ar    133   G65       0.1374
   4206 N7         -4.0170   22.0660  155.7230 N.ar    133   G65      -0.5709
   4207 C5         -2.8310   22.6880  155.3550 C.ar    133   G65       0.1744
   4208 C6         -1.7540   22.2150  154.5520 C.2     133   G65       0.4770
   4209 O6         -1.6340   21.1220  153.9900 O.2     133   G65      -0.5597
   4210 N1         -0.7480   23.1700  154.4330 N.am    133   G65      -0.4787
   4211 C2         -0.7730   24.4190  155.0080 C.2     133   G65       0.7657
   4212 N2          0.2980   25.1860  154.7740 N.pl3   133   G65      -0.9672
   4213 N3         -1.7700   24.8760  155.7540 N.2     133   G65      -0.6323
   4214 C4         -2.7610   23.9640  155.8850 C.ar    133   G65       0.1222
   4215 H5'        -8.0479   24.4452  158.6332 H       133   G65       0.0679
   4216 H5''       -8.7864   25.2195  157.2122 H       133   G65       0.0679
   4217 H4'        -6.9209   26.5672  158.0418 H       133   G65       0.1174
   4218 H3'        -6.3179   25.1269  155.4374 H       133   G65       0.0615
   4219 H2'        -4.2558   26.3436  155.3705 H       133   G65       0.0972
   4220 H1'        -3.5942   25.7104  157.9346 H       133   G65       0.2006
   4221 H8         -5.6035   22.7793  156.9085 H       133   G65       0.1640
   4222 H1          0.0627   22.9268  153.8819 H       133   G65       0.3424
   4223 H21         1.0560   24.8353  154.2060 H       133   G65       0.4364
   4224 H22         0.3485   26.1157  155.1653 H       133   G65       0.4364
   4225 HO2'       -3.9411   28.1420  156.4924 H       133   G65       0.4186
   4226 P          -7.0450   27.2420  153.8750 P.3     134   G66       1.1662
   4227 OP1        -7.9310   28.3970  153.5650 O.co2   134   G66      -0.7760
   4228 OP2        -7.3280   25.9160  153.2590 O.co2   134   G66      -0.7760
   4229 O5'        -5.5410   27.6360  153.4970 O.3     134   G66      -0.4989
   4230 C5'        -4.9960   28.9050  153.8560 C.3     134   G66       0.0558
   4231 C4'        -3.6250   29.0970  153.2290 C.3     134   G66       0.1065
   4232 O4'        -2.6980   28.1060  153.7670 O.3     134   G66      -0.3548
   4233 C3'        -3.5010   28.9060  151.7190 C.3     134   G66       0.2022
   4234 O3'        -3.9410   30.0330  150.9590 O.3     134   G66      -0.5246
   4235 C2'        -2.0020   28.6590  151.5810 C.3     134   G66       0.0670
   4236 O2'        -1.2190   29.8230  151.7900 O.3     134   G66      -0.6139
   4237 C1'        -1.7700   27.7130  152.7560 C.3     134   G66       0.0191
   4238 N9         -2.0310   26.3170  152.4030 N.ar    134   G66       0.0492
   4239 C8         -3.1170   25.5610  152.7750 C.ar    134   G66       0.1374
   4240 N7         -3.0700   24.3340  152.3290 N.ar    134   G66      -0.5709
   4241 C5         -1.8810   24.2730  151.6150 C.ar    134   G66       0.1744
   4242 C6         -1.2870   23.1880  150.9080 C.2     134   G66       0.4770
   4243 O6         -1.7210   22.0320  150.7640 O.2     134   G66      -0.5597
   4244 N1         -0.0730   23.5610  150.3300 N.am    134   G66      -0.4787
   4245 C2          0.4890   24.8150  150.4160 C.2     134   G66       0.7657
   4246 N2          1.6580   24.9840  149.8020 N.pl3   134   G66      -0.9672
   4247 N3         -0.0580   25.8340  151.0660 N.2     134   G66      -0.6323
   4248 C4         -1.2320   25.4930  151.6410 C.ar    134   G66       0.1222
   4249 H5'        -5.6630   29.6928  153.5059 H       134   G66       0.0679
   4250 H5''       -4.9071   28.9645  154.9407 H       134   G66       0.0679
   4251 H4'        -3.2602   30.0915  153.4859 H       134   G66       0.1174
   4252 H3'        -4.0516   28.0165  151.4129 H       134   G66       0.0615
   4253 H2'        -1.7619   28.1817  150.6309 H       134   G66       0.0972
   4254 H1'        -0.7498   27.8198  153.1247 H       134   G66       0.2006
   4255 H8         -3.9286   25.9434  153.3763 H       134   G66       0.1640
   4256 H1          0.4316   22.8580  149.8092 H       134   G66       0.3424
   4257 H21         2.0838   24.2141  149.3059 H       134   G66       0.4364
   4258 H22         2.1191   25.8821  149.8322 H       134   G66       0.4364
   4259 HO2'       -1.3505   30.4329  151.0604 H       134   G66       0.4186
   4260 P          -4.7490   29.7990  149.5770 P.3     135   A67       1.1662
   4261 OP1        -5.4460   31.0680  149.2400 O.co2   135   A67      -0.7760
   4262 OP2        -5.5320   28.5310  149.6890 O.co2   135   A67      -0.7760
   4263 O5'        -3.6150   29.5620  148.4840 O.3     135   A67      -0.4989
   4264 C5'        -2.5290   30.4680  148.3440 C.3     135   A67       0.0558
   4265 C4'        -1.3570   29.7680  147.7030 C.3     135   A67       0.1065
   4266 O4'        -0.9950   28.6300  148.5290 O.3     135   A67      -0.3548
   4267 C3'        -1.6200   29.1450  146.3380 C.3     135   A67       0.2022
   4268 O3'        -1.4620   30.0910  145.2930 O.3     135   A67      -0.5246
   4269 C2'        -0.5320   28.0840  146.2670 C.3     135   A67       0.0670
   4270 O2'         0.7390   28.6230  145.9570 O.3     135   A67      -0.6139
   4271 C1'        -0.5320   27.5730  147.7050 C.3     135   A67       0.0394
   4272 N9         -1.4010   26.4110  147.8930 N.ar    135   A67      -0.0251
   4273 C8         -2.6270   26.3070  148.5080 C.ar    135   A67       0.2006
   4274 N7         -3.1010   25.0830  148.5320 N.ar    135   A67      -0.6073
   4275 C5         -2.1250   24.3360  147.8820 C.ar    135   A67       0.0515
   4276 C6         -2.0110   22.9650  147.5880 C.ar    135   A67       0.7009
   4277 N6         -2.9140   22.0440  147.9360 N.pl3   135   A67      -0.9019
   4278 N1         -0.9130   22.5590  146.9190 N.ar    135   A67      -0.7615
   4279 C2          0.0070   23.4700  146.5810 C.ar    135   A67       0.5875
   4280 N3          0.0230   24.7730  146.8100 N.ar    135   A67      -0.6997
   4281 C4         -1.0840   25.1470  147.4720 C.ar    135   A67       0.3053
   4282 H5'        -2.2364   30.8362  149.3273 H       135   A67       0.0679
   4283 H5''       -2.8355   31.3071  147.7195 H       135   A67       0.0679
   4284 H4'        -0.5130   30.4544  147.6355 H       135   A67       0.1174
   4285 H3'        -2.6096   28.6894  146.3032 H       135   A67       0.0615
   4286 H2'        -0.8024   27.2914  145.5693 H       135   A67       0.0972
   4287 H1'         0.4860   27.3113  147.9937 H       135   A67       0.2007
   4288 H8         -3.1500   27.1520  148.9309 H       135   A67       0.1553
   4289 H2          0.8609   23.0857  146.0429 H       135   A67       0.0473
   4290 H61        -3.7451   22.3171  148.4408 H       135   A67       0.4115
   4291 H62        -2.7656   21.0746  147.6943 H       135   A67       0.4115
   4292 HO2'        0.7388   28.9444  145.0524 H       135   A67       0.4186
   4293 P          -2.2710   29.9010  143.9150 P.3     136   U68       1.1662
   4294 OP1        -1.6640   30.8970  142.9860 O.co2   136   U68      -0.7760
   4295 OP2        -3.7420   29.9260  144.1770 O.co2   136   U68      -0.7760
   4296 O5'        -1.8770   28.4370  143.4080 O.3     136   U68      -0.4989
   4297 C5'        -0.6130   28.1960  142.7900 C.3     136   U68       0.0558
   4298 C4'        -0.5040   26.7610  142.3250 C.3     136   U68       0.1065
   4299 O4'        -0.5940   25.8570  143.4590 O.3     136   U68      -0.3548
   4300 C3'        -1.5880   26.2630  141.3860 C.3     136   U68       0.2022
   4301 O3'        -1.3030   26.6540  140.0480 O.3     136   U68      -0.5246
   4302 C2'        -1.4430   24.7570  141.5430 C.3     136   U68       0.0670
   4303 O2'        -0.3020   24.3070  140.8470 O.3     136   U68      -0.6139
   4304 C1'        -1.1870   24.6360  143.0470 C.3     136   U68       0.0674
   4305 N1         -2.4200   24.4360  143.8200 N.am    136   U68       0.0418
   4306 C2         -2.7530   23.1450  144.1710 C.2     136   U68       0.4687
   4307 O2         -2.0690   22.1840  143.8810 O.2     136   U68      -0.5477
   4308 N3         -3.9160   23.0190  144.8830 N.am    136   U68      -0.3549
   4309 C4         -4.7610   24.0350  145.2790 C.2     136   U68       0.5952
   4310 O4         -5.7720   23.7640  145.9300 O.2     136   U68      -0.5761
   4311 C5         -4.3460   25.3430  144.8770 C.2     136   U68      -0.3635
   4312 C6         -3.2180   25.4940  144.1780 C.2     136   U68      -0.1126
   4313 H5'        -0.5037   28.8584  141.9313 H       136   U68       0.0679
   4314 H5''        0.1821   28.4027  143.5064 H       136   U68       0.0679
   4315 H4'         0.4645   26.6226  141.8445 H       136   U68       0.1174
   4316 H3'        -2.5748   26.6036  141.6996 H       136   U68       0.0615
   4317 H2'        -2.3443   24.2254  141.2376 H       136   U68       0.0972
   4318 H1'        -0.4985   23.8124  143.2362 H       136   U68       0.1824
   4319 H3         -4.1839   22.0815  145.1465 H       136   U68       0.3154
   4320 H5         -4.9421   26.2051  145.1375 H       136   U68       0.1811
   4321 H6         -2.9215   26.4895  143.8822 H       136   U68       0.2188
   4322 HO2'       -0.1757   23.3696  141.0109 H       136   U68       0.4186
   4323 P          -2.5020   26.8150  138.9880 P.3     137   A69       1.1662
   4324 OP1        -1.8900   27.3650  137.7510 O.co2   137   A69      -0.7760
   4325 OP2        -3.6410   27.5240  139.6290 O.co2   137   A69      -0.7760
   4326 O5'        -2.9770   25.3260  138.6860 O.3     137   A69      -0.4989
   4327 C5'        -4.2330   25.0770  138.0600 C.3     137   A69       0.0558
   4328 C4'        -4.3320   23.6270  137.6670 C.3     137   A69       0.1065
   4329 O4'        -3.2870   23.3350  136.7070 O.3     137   A69      -0.3548
   4330 C3'        -4.0740   22.6510  138.7990 C.3     137   A69       0.2022
   4331 O3'        -5.2600   22.4350  139.5540 O.3     137   A69      -0.5246
   4332 C2'        -3.5970   21.4080  138.0560 C.3     137   A69       0.0670
   4333 O2'        -4.6570   20.6800  137.4690 O.3     137   A69      -0.6139
   4334 C1'        -2.7720   22.0330  136.9360 C.3     137   A69       0.0394
   4335 N9         -1.3330   22.1530  137.1780 N.ar    137   A69      -0.0251
   4336 C8         -0.6120   23.3190  137.2260 C.ar    137   A69       0.2006
   4337 N7          0.6780   23.1390  137.3470 N.ar    137   A69      -0.6073
   4338 C5          0.8170   21.7620  137.4040 C.ar    137   A69       0.0515
   4339 C6          1.9370   20.9440  137.5140 C.ar    137   A69       0.7009
   4340 N6          3.1820   21.4120  137.5820 N.pl3   137   A69      -0.9019
   4341 N1          1.7400   19.6120  137.5530 N.ar    137   A69      -0.7615
   4342 C2          0.4930   19.1500  137.4840 C.ar    137   A69       0.5875
   4343 N3         -0.6450   19.8190  137.3720 N.ar    137   A69      -0.6997
   4344 C4         -0.4130   21.1410  137.3320 C.ar    137   A69       0.3053
   4345 H5'        -5.0371   25.3185  138.7551 H       137   A69       0.0679
   4346 H5''       -4.3240   25.7002  137.1704 H       137   A69       0.0679
   4347 H4'        -5.3078   23.4296  137.2233 H       137   A69       0.1174
   4348 H3'        -3.2817   23.0281  139.4456 H       137   A69       0.0615
   4349 H2'        -2.9839   20.7728  138.6953 H       137   A69       0.0972
   4350 H1'        -2.9192   21.4425  136.0317 H       137   A69       0.2007
   4351 H8         -1.0678   24.2964  137.1691 H       137   A69       0.1553
   4352 H2          0.3953   18.0752  137.5253 H       137   A69       0.0473
   4353 HO2'       -4.3043   19.9139  137.0104 H       137   A69       0.4186
   4354 H61         4.1378   21.2427  137.8610 H       137   A69       0.4115
   4355 H62         3.1614   22.3384  137.1801 H       137   A69       0.4115
   4356 P          -5.2040   22.5250  141.1590 P.3     138   A70       1.1662
   4357 OP1        -6.6020   22.4910  141.6600 O.co2   138   A70      -0.7760
   4358 OP2        -4.3130   23.6540  141.5510 O.co2   138   A70      -0.7760
   4359 O5'        -4.4890   21.1670  141.5590 O.3     138   A70      -0.4989
   4360 C5'        -5.0920   19.9160  141.2590 C.3     138   A70       0.0558
   4361 C4'        -4.0850   18.8120  141.4260 C.3     138   A70       0.1065
   4362 O4'        -3.0120   19.0300  140.4780 O.3     138   A70      -0.3548
   4363 C3'        -3.3620   18.7720  142.7620 C.3     138   A70       0.2022
   4364 O3'        -4.1610   18.1270  143.7510 O.3     138   A70      -0.5246
   4365 C2'        -2.1110   17.9820  142.4010 C.3     138   A70       0.0670
   4366 O2'        -2.3730   16.5980  142.2420 O.3     138   A70      -0.6139
   4367 C1'        -1.7990   18.5460  141.0180 C.3     138   A70       0.0394
   4368 N9         -0.8080   19.6190  140.9600 N.ar    138   A70      -0.0251
   4369 C8         -1.0060   20.9790  140.9220 C.ar    138   A70       0.2006
   4370 N7          0.1070   21.6700  140.7950 N.ar    138   A70      -0.6073
   4371 C5          1.0980   20.6990  140.7580 C.ar    138   A70       0.0515
   4372 C6          2.4880   20.7730  140.6170 C.ar    138   A70       0.7009
   4373 N6          3.1620   21.9090  140.4650 N.pl3   138   A70      -0.9019
   4374 N1          3.1790   19.6180  140.6300 N.ar    138   A70      -0.7615
   4375 C2          2.5130   18.4790  140.7680 C.ar    138   A70       0.5875
   4376 N3          1.2100   18.2770  140.8950 N.ar    138   A70      -0.6997
   4377 C4          0.5500   19.4370  140.8800 C.ar    138   A70       0.3053
   4378 H5'        -5.9298   19.7468  141.9355 H       138   A70       0.0679
   4379 H5''       -5.4528   19.9249  140.2305 H       138   A70       0.0679
   4380 H4'        -4.5578   17.8490  141.2332 H       138   A70       0.1174
   4381 H3'        -3.0975   19.7796  143.0829 H       138   A70       0.0615
   4382 H2'        -1.2993   18.1630  143.1056 H       138   A70       0.0972
   4383 H1'        -1.4500   17.7274  140.3885 H       138   A70       0.2007
   4384 H8         -1.9818   21.4367  140.9899 H       138   A70       0.1553
   4385 H2          3.1215   17.5868  140.7783 H       138   A70       0.0473
   4386 HO2'       -1.7357   16.0908  142.7501 H       138   A70       0.4186
   4387 H61         4.1571   21.7511  140.5359 H       138   A70       0.4115
   4388 H62         2.7357   22.8097  140.3005 H       138   A70       0.4115
   4389 P          -3.9850   18.5170  145.3070 P.3     139   U71       1.1662
   4390 OP1        -5.1160   17.8970  146.0320 O.co2   139   U71      -0.7760
   4391 OP2        -3.7260   19.9790  145.4540 O.co2   139   U71      -0.7760
   4392 O5'        -2.6750   17.7350  145.7510 O.3     139   U71      -0.4989
   4393 C5'        -2.6700   16.3220  145.7920 C.3     139   U71       0.0558
   4394 C4'        -1.2550   15.8060  145.7370 C.3     139   U71       0.1065
   4395 O4'        -0.5750   16.4610  144.6420 O.3     139   U71      -0.3548
   4396 C3'        -0.3270   16.0990  146.9080 C.3     139   U71       0.2022
   4397 O3'        -0.5340   15.1520  147.9570 O.3     139   U71      -0.5246
   4398 C2'         1.0310   15.8370  146.2680 C.3     139   U71       0.0670
   4399 O2'         1.2690   14.4470  146.1580 O.3     139   U71      -0.6139
   4400 C1'         0.8160   16.3720  144.8510 C.3     139   U71       0.0674
   4401 N1          1.4320   17.6750  144.5770 N.am    139   U71       0.0418
   4402 C2          2.7860   17.6780  144.3030 C.2     139   U71       0.4687
   4403 O2          3.4550   16.6630  144.2970 O.2     139   U71      -0.5477
   4404 N3          3.3250   18.9120  144.0380 N.am    139   U71      -0.3549
   4405 C4          2.6580   20.1120  144.0250 C.2     139   U71       0.5952
   4406 O4          3.2810   21.1400  143.7690 O.2     139   U71      -0.5761
   4407 C5          1.2560   20.0260  144.3240 C.2     139   U71      -0.3635
   4408 C6          0.7050   18.8390  144.5840 C.2     139   U71      -0.1126
   4409 H5'        -3.1399   15.9869  146.7167 H       139   U71       0.0679
   4410 H5''       -3.2296   15.9338  144.9409 H       139   U71       0.0679
   4411 H4'        -1.2730   14.7314  145.5552 H       139   U71       0.1174
   4412 H3'        -0.4227   17.1264  147.2592 H       139   U71       0.0615
   4413 H2'         1.8383   16.3543  146.7864 H       139   U71       0.0972
   4414 H1'         1.2222   15.6466  144.1461 H       139   U71       0.1824
   4415 H3          4.3132   18.9403  143.8314 H       139   U71       0.3154
   4416 H5          0.6495   20.9195  144.3384 H       139   U71       0.1811
   4417 H6         -0.3505   18.7925  144.8079 H       139   U71       0.2188
   4418 HO2'        1.4090   14.0757  147.0321 H       139   U71       0.4186
   4419 P          -0.7390   15.6570  149.4690 P.3     140   G72       1.1662
   4420 OP1        -2.0840   15.2090  149.9150 O.co2   140   G72      -0.7760
   4421 OP2        -0.3860   17.0990  149.5360 O.co2   140   G72      -0.7760
   4422 O5'         0.3260   14.8250  150.3060 O.3     140   G72      -0.4989
   4423 C5'         1.6920   14.7880  149.9220 C.3     140   G72       0.0558
   4424 C4'         2.4580   15.8660  150.6460 C.3     140   G72       0.1065
   4425 O4'         2.2890   15.7490  152.0780 O.3     140   G72      -0.3548
   4426 C3'         3.9680   15.8750  150.4630 C.3     140   G72       0.2022
   4427 O3'         4.2450   16.5800  149.2610 O.3     140   G72      -0.5246
   4428 C2'         4.4550   16.6840  151.6720 C.3     140   G72       0.0670
   4429 O2'         4.5750   18.0660  151.4060 O.3     140   G72      -0.6139
   4430 C1'         3.3260   16.4790  152.6880 C.3     140   G72       0.0191
   4431 N9          3.6790   15.9000  153.9790 N.ar    140   G72       0.0492
   4432 C8          3.3100   16.4040  155.2010 C.ar    140   G72       0.1374
   4433 N7          3.8410   15.7650  156.2020 N.ar    140   G72      -0.5709
   4434 C5          4.5880   14.7580  155.6090 C.ar    140   G72       0.1744
   4435 C6          5.3950   13.7490  156.1990 C.2     140   G72       0.4770
   4436 O6          5.6150   13.5400  157.4030 O.2     140   G72      -0.5597
   4437 N1          5.9770   12.9350  155.2340 N.am    140   G72      -0.4787
   4438 C2          5.8070   13.0680  153.8750 C.2     140   G72       0.7657
   4439 N2          6.4660   12.1720  153.1090 N.pl3   140   G72      -0.9672
   4440 N3          5.0500   14.0070  153.3110 N.2     140   G72      -0.6323
   4441 C4          4.4800   14.8140  154.2330 C.ar    140   G72       0.1222
   4442 H5'         2.1121   13.8145  150.1748 H       140   G72       0.0679
   4443 H5''        1.7703   14.9481  148.8467 H       140   G72       0.0679
   4444 H4'         2.0682   16.8343  150.3321 H       140   G72       0.1174
   4445 H3'         4.3841   14.8676  150.4510 H       140   G72       0.0615
   4446 H2'         5.3939   16.2816  152.0524 H       140   G72       0.0972
   4447 H1'         2.9204   17.4687  152.8978 H       140   G72       0.2006
   4448 H8          2.6452   17.2469  155.3197 H       140   G72       0.1640
   4449 H1          6.5726   12.1857  155.5563 H       140   G72       0.3424
   4450 H21         7.0390   11.4620  153.5422 H       140   G72       0.4364
   4451 H22         6.3859   12.2120  152.1030 H       140   G72       0.4364
   4452 HO2'        5.4841   18.2701  151.1749 H       140   G72       0.4186
   4453 P           5.5420   16.2260  148.3800 P.3     141   C73       1.1662
   4454 OP1         5.2870   14.9250  147.7170 O.co2   141   C73      -0.7760
   4455 OP2         6.7830   16.4170  149.1840 O.co2   141   C73      -0.7760
   4456 O5'         5.4950   17.3620  147.2660 O.3     141   C73      -0.4989
   4457 C5'         6.6740   17.9910  146.7940 C.3     141   C73       0.0558
   4458 C4'         6.5510   19.4940  146.9190 C.3     141   C73       0.1065
   4459 O4'         5.2640   19.9320  146.4080 O.3     141   C73      -0.3548
   4460 C3'         6.5750   20.0110  148.3420 C.3     141   C73       0.2022
   4461 O3'         7.9280   20.1720  148.7470 O.3     141   C73      -0.5246
   4462 C2'         5.8560   21.3510  148.2260 C.3     141   C73       0.0670
   4463 O2'         6.6910   22.4150  147.8380 O.3     141   C73      -0.6139
   4464 C1'         4.8220   21.0590  147.1390 C.3     141   C73       0.0066
   4465 N1          3.5000   20.7600  147.6950 N.am    141   C73      -0.0484
   4466 C2          2.7680   21.8040  148.2620 C.2     141   C73       0.7538
   4467 O2          3.2620   22.9400  148.2550 O.2     141   C73      -0.6252
   4468 N3          1.5450   21.5490  148.8040 N.2     141   C73      -0.7584
   4469 C4          1.0580   20.3040  148.7830 C.2     141   C73       0.8185
   4470 N4         -0.1410   20.0840  149.3320 N.pl3   141   C73      -0.9530
   4471 C5          1.7840   19.2220  148.1990 C.2     141   C73      -0.5215
   4472 C6          2.9900   19.4930  147.6710 C.2     141   C73       0.0053
   4473 H5'         7.5248   17.6493  147.3835 H       141   C73       0.0679
   4474 H5''        6.8301   17.7272  145.7480 H       141   C73       0.0679
   4475 H4'         7.3478   19.9705  146.3479 H       141   C73       0.1174
   4476 H3'         6.0424   19.3371  149.0130 H       141   C73       0.0615
   4477 H2'         5.3558   21.5903  149.1644 H       141   C73       0.0972
   4478 H1'         4.7476   21.9170  146.4708 H       141   C73       0.2029
   4479 H5          1.3784   18.2212  148.1821 H       141   C73       0.1928
   4480 H6          3.5645   18.6969  147.2209 H       141   C73       0.1958
   4481 H41        -0.6545   20.8485  149.7467 H       141   C73       0.4234
   4482 H42        -0.5333   19.1533  149.3321 H       141   C73       0.4234
   4483 HO2'        6.4685   23.1986  148.3460 H       141   C73       0.4186
   4484 P           8.3080   20.0750  150.3000 P.3     142   C74       1.1662
   4485 OP1         9.7840   20.2050  150.3760 O.co2   142   C74      -0.7760
   4486 OP2         7.6450   18.8550  150.8270 O.co2   142   C74      -0.7760
   4487 O5'         7.6480   21.3860  150.9330 O.3     142   C74      -0.4989
   4488 C5'         8.0920   22.6810  150.5260 C.3     142   C74       0.0558
   4489 C4'         7.2750   23.7750  151.1830 C.3     142   C74       0.1065
   4490 O4'         5.9140   23.7770  150.6820 O.3     142   C74      -0.3548
   4491 C3'         7.0610   23.7090  152.6850 C.3     142   C74       0.2022
   4492 O3'         8.2050   24.1090  153.4140 O.3     142   C74      -0.5246
   4493 C2'         5.9220   24.7060  152.8650 C.3     142   C74       0.0670
   4494 O2'         6.3540   26.0520  152.7870 O.3     142   C74      -0.6139
   4495 C1'         5.0620   24.3890  151.6440 C.3     142   C74       0.0066
   4496 N1          3.9770   23.4650  151.9760 N.am    142   C74      -0.0484
   4497 C2          2.8810   23.9610  152.6550 C.2     142   C74       0.7538
   4498 O2          2.8770   25.1440  152.9760 O.2     142   C74      -0.6252
   4499 N3          1.8500   23.1460  152.9470 N.2     142   C74      -0.7584
   4500 C4          1.8980   21.8650  152.5870 C.2     142   C74       0.8185
   4501 N4          0.8510   21.0950  152.8880 N.pl3   142   C74      -0.9530
   4502 C5          3.0190   21.3190  151.9030 C.2     142   C74      -0.5215
   4503 C6          4.0300   22.1480  151.6220 C.2     142   C74       0.0053
   4504 H5'         9.1382   22.8020  150.8070 H       142   C74       0.0679
   4505 H5''        8.0000   22.7669  149.4433 H       142   C74       0.0679
   4506 H4'         7.7309   24.7355  150.9428 H       142   C74       0.1174
   4507 H3'         6.7462   22.7092  152.9839 H       142   C74       0.0615
   4508 H2'         5.3771   24.5196  153.7904 H       142   C74       0.0972
   4509 H1'         4.6483   25.3111  151.2357 H       142   C74       0.2029
   4510 H5          3.0524   20.2768  151.6218 H       142   C74       0.1928
   4511 H6          4.9010   21.7698  151.1075 H       142   C74       0.1958
   4512 H41         0.0576   21.4886  153.3735 H       142   C74       0.4234
   4513 H42         0.8517   20.1184  152.6304 H       142   C74       0.4234
   4514 HO2'        6.8959   26.2595  153.5518 H       142   C74       0.4186
   4515 P           8.5080   23.4210  154.8250 P.3     143   A75       1.1662
   4516 OP1         9.8070   23.9570  155.3130 O.co2   143   A75      -0.7760
   4517 OP2         8.3370   21.9630  154.6620 O.co2   143   A75      -0.7760
   4518 O5'         7.3270   23.9430  155.7540 O.3     143   A75      -0.4989
   4519 C5'         7.2950   25.2960  156.1980 C.3     143   A75       0.0558
   4520 C4'         6.0590   25.5520  157.0310 C.3     143   A75       0.1065
   4521 O4'         4.8760   25.3150  156.2260 O.3     143   A75      -0.3548
   4522 C3'         5.8250   24.6540  158.2340 C.3     143   A75       0.2022
   4523 O3'         6.6190   25.0320  159.3600 O.3     143   A75      -0.5246
   4524 C2'         4.3440   24.8950  158.4970 C.3     143   A75       0.0670
   4525 O2'         4.0980   26.1160  159.1770 O.3     143   A75      -0.6139
   4526 C1'         3.7910   24.9710  157.0710 C.3     143   A75       0.0394
   4527 N9          3.2330   23.6950  156.6250 N.ar    143   A75      -0.0251
   4528 C8          3.8060   22.7700  155.7900 C.ar    143   A75       0.2006
   4529 N7          3.0710   21.7000  155.6030 N.ar    143   A75      -0.6073
   4530 C5          1.9330   21.9420  156.3570 C.ar    143   A75       0.0515
   4531 C6          0.7760   21.1860  156.5790 C.ar    143   A75       0.7009
   4532 N6          0.5700   19.9910  156.0340 N.pl3   143   A75      -0.9019
   4533 N1         -0.1730   21.7060  157.3890 N.ar    143   A75      -0.7615
   4534 C2          0.0440   22.9030  157.9340 C.ar    143   A75       0.5875
   4535 N3          1.0950   23.7120  157.8020 N.ar    143   A75      -0.6997
   4536 C4          2.0150   23.1670  156.9880 C.ar    143   A75       0.3053
   4537 H5'         7.2866   25.9574  155.3316 H       143   A75       0.0679
   4538 H5''        8.1821   25.4993  156.7978 H       143   A75       0.0679
   4539 H4'         6.0619   26.5913  157.3596 H       143   A75       0.1174
   4540 H3'         6.0027   23.6107  157.9732 H       143   A75       0.0615
   4541 H2'         3.9057   24.0561  159.0376 H       143   A75       0.0972
   4542 H1'         3.0250   25.7445  157.0163 H       143   A75       0.2007
   4543 H8          4.7727   22.9098  155.3292 H       143   A75       0.1553
   4544 H2         -0.7447   23.2698  158.5742 H       143   A75       0.0473
   4545 HO2'        3.3609   26.0032  159.7816 H       143   A75       0.4186
   4546 H61        -0.3388   19.5707  155.9019 H       143   A75       0.4115
   4547 H62         1.3785   19.4670  155.7310 H       143   A75       0.4115
   4548 P           7.0790   23.9120  160.4260 P.3     144   G76       1.1662
   4549 OP1         8.1810   24.5020  161.2290 O.co2   144   G76      -0.7760
   4550 OP2         7.3160   22.6360  159.7040 O.co2   144   G76      -0.7760
   4551 O5'         5.7940   23.7010  161.3510 O.3     144   G76      -0.4989
   4552 C5'         5.0480   24.8110  161.8480 C.3     144   G76       0.0558
   4553 C4'         3.6380   24.3840  162.2020 C.3     144   G76       0.1065
   4554 O4'         2.9610   23.9330  161.0000 O.3     144   G76      -0.3548
   4555 C3'         3.5100   23.2080  163.1600 C.3     144   G76       0.2022
   4556 O3'         3.5970   23.6560  164.5100 O.3     144   G76      -0.5246
   4557 C2'         2.1100   22.6820  162.8410 C.3     144   G76       0.0670
   4558 O2'         1.0810   23.4040  163.4880 O.3     144   G76      -0.6139
   4559 C1'         2.0130   22.9320  161.3320 C.3     144   G76       0.0191
   4560 N9          2.2510   21.7530  160.5000 N.ar    144   G76       0.0492
   4561 C8          3.3660   21.4690  159.7490 C.ar    144   G76       0.1374
   4562 N7          3.2700   20.3430  159.0960 N.ar    144   G76      -0.5709
   4563 C5          2.0190   19.8540  159.4390 C.ar    144   G76       0.1744
   4564 C6          1.3440   18.6700  159.0260 C.2     144   G76       0.4770
   4565 O6          1.7270   17.7930  158.2440 O.2     144   G76      -0.5597
   4566 N1          0.0910   18.5600  159.6190 N.am    144   G76      -0.4787
   4567 C2         -0.4500   19.4690  160.4880 C.2     144   G76       0.7657
   4568 N2         -1.6660   19.1680  160.9550 N.pl3   144   G76      -0.9672
   4569 N3          0.1580   20.5830  160.8720 N.2     144   G76      -0.6323
   4570 C4          1.3810   20.7080  160.3120 C.ar    144   G76       0.1222
   4571 H5'         5.0069   25.5870  161.0837 H       144   G76       0.0679
   4572 H5''        5.5390   25.2064  162.7372 H       144   G76       0.0679
   4573 H4'         3.1005   25.2382  162.6137 H       144   G76       0.1174
   4574 H3'         4.2668   22.4518  162.9513 H       144   G76       0.0615
   4575 H2'         2.0357   21.6175  163.0633 H       144   G76       0.0972
   4576 H1'         1.0167   23.3144  161.1099 H       144   G76       0.2006
   4577 H8          4.2329   22.1115  159.7037 H       144   G76       0.1640
   4578 H1         -0.4627   17.7467  159.3910 H       144   G76       0.3424
   4579 H21        -2.1237   18.3171  160.6606 H       144   G76       0.4364
   4580 H22        -2.1270   19.7915  161.6022 H       144   G76       0.4364
   4581 HO2'        1.1316   23.2550  164.4350 H       144   G76       0.4186
   4582 P           4.4520   22.8170  165.5930 P.3     145   C77       1.1662
   4583 OP1         4.1890   23.4800  166.8930 O.co2   145   C77      -0.7760
   4584 OP2         5.8610   22.6750  165.1150 O.co2   145   C77      -0.7760
   4585 O5'         3.7310   21.3960  165.6410 O.3     145   C77      -0.4989
   4586 C5'         2.4710   21.2510  166.2840 C.3     145   C77       0.0558
   4587 C4'         1.8050   19.9600  165.8680 C.3     145   C77       0.1065
   4588 O4'         1.6690   19.9260  164.4200 O.3     145   C77      -0.3548
   4589 C3'         2.5530   18.6760  166.1840 C.3     145   C77       0.2022
   4590 O3'         2.3350   18.2770  167.5310 O.3     145   C77      -0.5246
   4591 C2'         1.9170   17.6970  165.2030 C.3     145   C77       0.0670
   4592 O2'         0.6610   17.2420  165.6650 O.3     145   C77      -0.6139
   4593 C1'         1.7360   18.5830  163.9630 C.3     145   C77       0.0066
   4594 N1          2.8530   18.4880  163.0110 N.am    145   C77      -0.0484
   4595 C2          2.8020   17.5300  161.9790 C.2     145   C77       0.7538
   4596 O2          1.8080   16.7850  161.8870 O.2     145   C77      -0.6252
   4597 N3          3.8380   17.4410  161.1130 N.2     145   C77      -0.7584
   4598 C4          4.8850   18.2520  161.2420 C.2     145   C77       0.8185
   4599 N4          5.8740   18.1280  160.3700 N.pl3   145   C77      -0.9530
   4600 C5          4.9620   19.2300  162.2770 C.2     145   C77      -0.5215
   4601 C6          3.9320   19.3160  163.1270 C.2     145   C77       0.0053
   4602 H5'         1.8304   22.0889  166.0088 H       145   C77       0.0679
   4603 H5''        2.6165   21.2490  167.3642 H       145   C77       0.0679
   4604 H4'         0.8134   19.9121  166.3180 H       145   C77       0.1174
   4605 H3'         3.6181   18.7891  165.9817 H       145   C77       0.0615
   4606 H2'         2.5847   16.8612  164.9941 H       145   C77       0.0972
   4607 H1'         0.8048   18.3216  163.4604 H       145   C77       0.2029
   4608 H5          5.8208   19.8780  162.3715 H       145   C77       0.1928
   4609 H6          3.9548   20.0520  163.9171 H       145   C77       0.1958
   4610 H41         5.8176   17.4347  159.6377 H       145   C77       0.4234
   4611 H42         6.6846   18.7267  160.4373 H       145   C77       0.4234
   4612 HO2'        0.7856   16.6893  166.4400 H       145   C77       0.4186
   4613 P           3.5740   17.7800  168.4240 P.3     146   G78       1.1662
   4614 OP1         3.8440   16.3670  168.0450 O.co2   146   G78      -0.7760
   4615 OP2         3.2380   18.1140  169.8280 O.co2   146   G78      -0.7760
   4616 O5'         4.7940   18.7110  167.9620 O.3     146   G78      -0.4989
   4617 C5'         6.0980   18.6010  168.5650 C.3     146   G78       0.0558
   4618 C4'         7.1560   18.5120  167.4890 C.3     146   G78       0.1065
   4619 O4'         6.8200   17.4140  166.6330 O.3     146   G78      -0.3548
   4620 C3'         7.2530   19.7440  166.5950 C.3     146   G78       0.2022
   4621 O3'         8.5300   20.3530  166.7870 O.3     146   G78      -0.5246
   4622 C2'         7.3680   19.2140  165.1610 C.3     146   G78       0.0670
   4623 O2'         8.6060   19.5380  164.5670 O.3     146   G78      -0.6139
   4624 C1'         7.2810   17.7010  165.3460 C.3     146   G78       0.0191
   4625 N9          6.5570   16.8930  164.3780 N.ar    146   G78       0.0492
   4626 C8          5.3240   16.3130  164.5260 C.ar    146   G78       0.1374
   4627 N7          5.0090   15.5270  163.5330 N.ar    146   G78      -0.5709
   4628 C5          6.0870   15.6230  162.6660 C.ar    146   G78       0.1744
   4629 C6          6.3260   14.9870  161.4230 C.2     146   G78       0.4770
   4630 O6          5.6110   14.1630  160.8210 O.2     146   G78      -0.5597
   4631 N1          7.5460   15.3840  160.8750 N.am    146   G78      -0.4787
   4632 C2          8.4220   16.2670  161.4520 C.2     146   G78       0.7657
   4633 N2          9.5360   16.5180  160.7630 N.pl3   146   G78      -0.9672
   4634 N3          8.2160   16.8560  162.6170 N.2     146   G78      -0.6323
   4635 C4          7.0360   16.4900  163.1620 C.ar    146   G78       0.1222
   4636 H5'         6.1355   17.7044  169.1838 H       146   G78       0.0679
   4637 H5''        6.2852   19.4774  169.1855 H       146   G78       0.0679
   4638 H4'         8.1252   18.3250  167.9513 H       146   G78       0.1174
   4639 H3'         6.4231   20.4376  166.7300 H       146   G78       0.0615
   4640 H2'         6.5412   19.5753  164.5495 H       146   G78       0.0972
   4641 H1'         8.3099   17.3423  165.3163 H       146   G78       0.2006
   4642 H8          4.6805   16.4881  165.3755 H       146   G78       0.1640
   4643 H1          7.8046   14.9895  159.9819 H       146   G78       0.3424
   4644 H21         9.6917   16.0668  159.8729 H       146   G78       0.4364
   4645 H22        10.2239   17.1593  161.1313 H       146   G78       0.4364
   4646 HO2'        8.8956   18.8100  164.0123 H       146   G78       0.4186
   4647 P           8.8700   21.1850  168.1120 P.3     147   U79       1.1662
   4648 OP1         7.6570   21.9680  168.4780 O.co2   147   U79      -0.7760
   4649 OP2        10.1460   21.8840  167.8070 O.co2   147   U79      -0.7760
   4650 O5'         9.2020   20.0850  169.2180 O.3     147   U79      -0.4989
   4651 C5'        10.3070   19.2000  169.0460 C.3     147   U79       0.0558
   4652 C4'        10.8190   18.6960  170.3840 C.3     147   U79       0.1065
   4653 O4'        11.3510   19.8080  171.1450 O.3     147   U79      -0.3548
   4654 C3'         9.7360   18.0710  171.2540 C.3     147   U79       0.2022
   4655 O3'        10.0750   16.7930  171.7970 O.3     147   U79      -0.5246
   4656 C2'         9.3060   19.1580  172.2420 C.3     147   U79       0.0670
   4657 O2'         9.1640   18.6440  173.5510 O.3     147   U79      -0.6139
   4658 C1'        10.5260   20.0840  172.2550 C.3     147   U79       0.0674
   4659 N1         10.2800   21.5290  172.2880 N.am    147   U79       0.0418
   4660 C2         10.0230   22.1120  173.5140 C.2     147   U79       0.4687
   4661 O2          9.9580   21.4720  174.5500 O.2     147   U79      -0.5477
   4662 N3          9.8470   23.4770  173.4790 N.am    147   U79      -0.3549
   4663 C4          9.8960   24.2930  172.3580 C.2     147   U79       0.5952
   4664 O4          9.7250   25.5060  172.4810 O.2     147   U79      -0.5761
   4665 C5         10.1520   23.6070  171.1300 C.2     147   U79      -0.3635
   4666 C6         10.3270   22.2810  171.1370 C.2     147   U79      -0.1126
   4667 H5'        11.1106   19.7297  168.5344 H       147   U79       0.0679
   4668 H5''        9.9945   18.3504  168.4389 H       147   U79       0.0679
   4669 H4'        11.6099   17.9654  170.2142 H       147   U79       0.1174
   4670 H3'         8.8814   17.9035  170.5985 H       147   U79       0.0615
   4671 H2'         8.4065   19.6761  171.9095 H       147   U79       0.0972
   4672 H1'        11.1016   19.8390  173.1476 H       147   U79       0.1824
   4673 H3          9.6630   23.9320  174.3617 H       147   U79       0.3154
   4674 H5         10.2038   24.1566  170.2017 H       147   U79       0.1811
   4675 H6         10.5132   21.7792  170.1989 H       147   U79       0.2188
   4676 HO2'        9.5988   19.2304  174.1745 H       147   U79       0.4186
   4677 P          10.0080   15.4750  170.8760 P.3     148   A80       1.1662
   4678 OP1        10.4470   14.3290  171.7280 O.co2   148   A80      -0.7760
   4679 OP2        10.7080   15.7470  169.5890 O.co2   148   A80      -0.7760
   4680 O5'         8.4570   15.3010  170.5690 O.3     148   A80      -0.4989
   4681 C5'         7.4940   15.5350  171.5760 C.3     148   A80       0.0558
   4682 C4'         6.3070   14.6440  171.3610 C.3     148   A80       0.1065
   4683 O4'         5.6740   14.9960  170.1080 O.3     148   A80      -0.3548
   4684 C3'         6.6250   13.1740  171.1940 C.3     148   A80       0.2022
   4685 O3'         6.7990   12.5430  172.4520 O.3     148   A80      -0.5246
   4686 C2'         5.3830   12.6810  170.4740 C.3     148   A80       0.0670
   4687 O2'         4.2760   12.5860  171.3450 O.3     148   A80      -0.6139
   4688 C1'         5.1250   13.8360  169.5100 C.3     148   A80       0.0394
   4689 N9          5.7300   13.6630  168.1880 N.ar    148   A80      -0.0251
   4690 C8          6.7740   14.3690  167.6380 C.ar    148   A80       0.2006
   4691 N7          7.0760   13.9990  166.4190 N.ar    148   A80      -0.6073
   4692 C5          6.1790   12.9740  166.1500 C.ar    148   A80       0.0515
   4693 C6          5.9820   12.1590  165.0210 C.ar    148   A80       0.7009
   4694 N6          6.7060   12.2440  163.9070 N.pl3   148   A80      -0.9019
   4695 N1          4.9990   11.2380  165.0770 N.ar    148   A80      -0.7615
   4696 C2          4.2700   11.1500  166.1930 C.ar    148   A80       0.5875
   4697 N3          4.3600   11.8550  167.3170 N.ar    148   A80      -0.6997
   4698 C4          5.3450   12.7590  167.2300 C.ar    148   A80       0.3053
   4699 H5'         7.1759   16.5768  171.5372 H       148   A80       0.0679
   4700 H5''        7.9320   15.3259  172.5520 H       148   A80       0.0679
   4701 H4'         5.5982   14.7747  172.1787 H       148   A80       0.1174
   4702 H3'         7.5093   13.0402  170.5710 H       148   A80       0.0615
   4703 H2'         5.5650   11.7450  169.9459 H       148   A80       0.0972
   4704 H1'         4.0494   13.9700  169.3946 H       148   A80       0.2007
   4705 H8          7.2962   15.1554  168.1627 H       148   A80       0.1553
   4706 H2          3.4955   10.3974  166.1806 H       148   A80       0.0473
   4707 H61         6.1613   12.0029  163.0914 H       148   A80       0.4115
   4708 H62         7.6784   12.5157  163.8808 H       148   A80       0.4115
   4709 HO2'        4.4152   11.8644  171.9627 H       148   A80       0.4186
   4710 P           7.9300   11.4160  172.6230 P.3     149   G81       1.1662
   4711 OP1         8.1550   11.2170  174.0780 O.co2   149   G81      -0.7760
   4712 OP2         9.0760   11.7710  171.7500 O.co2   149   G81      -0.7760
   4713 O5'         7.2500   10.1120  172.0260 O.3     149   G81      -0.4989
   4714 C5'         6.0330    9.6180  172.5610 C.3     149   G81       0.0558
   4715 C4'         5.4640    8.5750  171.6410 C.3     149   G81       0.1065
   4716 O4'         5.0710    9.2160  170.4000 O.3     149   G81      -0.3548
   4717 C3'         6.4580    7.5050  171.2150 C.3     149   G81       0.2022
   4718 O3'         6.5200    6.4380  172.1500 O.3     149   G81      -0.5246
   4719 C2'         5.8880    7.0380  169.8860 C.3     149   G81       0.0670
   4720 O2'         4.8510    6.0880  170.0470 O.3     149   G81      -0.6139
   4721 C1'         5.3530    8.3530  169.3080 C.3     149   G81       0.0191
   4722 N9          6.2870    9.0370  168.4130 N.ar    149   G81       0.0492
   4723 C8          7.0200   10.1720  168.6810 C.ar    149   G81       0.1374
   4724 N7          7.7400   10.5710  167.6660 N.ar    149   G81      -0.5709
   4725 C5          7.4740    9.6380  166.6730 C.ar    149   G81       0.1744
   4726 C6          7.9570    9.5490  165.3440 C.2     149   G81       0.4770
   4727 O6          8.7520   10.2970  164.7600 O.2     149   G81      -0.5597
   4728 N1          7.4230    8.4500  164.6800 N.am    149   G81      -0.4787
   4729 C2          6.5470    7.5480  165.2240 C.2     149   G81       0.7657
   4730 N2          6.1530    6.5550  164.4240 N.pl3   149   G81      -0.9672
   4731 N3          6.0910    7.6170  166.4590 N.2     149   G81      -0.6323
   4732 C4          6.5880    8.6790  167.1220 C.ar    149   G81       0.1222
   4733 H5'         6.2203    9.1753  173.5393 H       149   G81       0.0679
   4734 H5''        5.3223   10.4380  172.6637 H       149   G81       0.0679
   4735 H4'         4.5958    8.1077  172.1056 H       149   G81       0.1174
   4736 H3'         7.4465    7.9413  171.0714 H       149   G81       0.0615
   4737 H2'         6.6784    6.6362  169.2520 H       149   G81       0.0972
   4738 H1'         4.4280    8.1518  168.7677 H       149   G81       0.2006
   4739 H8          7.0016   10.6807  169.6335 H       149   G81       0.1640
   4740 H1          7.7032    8.3053  163.7205 H       149   G81       0.3424
   4741 H21         6.5008    6.5010  163.4773 H       149   G81       0.4364
   4742 H22         5.5071    5.8576  164.7653 H       149   G81       0.4364
   4743 HO2'        5.2134    5.2763  170.4096 H       149   G81       0.4186
   4744 P           7.8810    5.5990  172.3000 P.3     150   G82       1.1662
   4745 OP1         7.8160    4.8640  173.5930 O.co2   150   G82      -0.7760
   4746 OP2         9.0140    6.5300  172.0290 O.co2   150   G82      -0.7760
   4747 O5'         7.8000    4.5340  171.1200 O.3     150   G82      -0.4989
   4748 C5'         8.9560    4.1450  170.3770 C.3     150   G82       0.0558
   4749 C4'         8.5510    3.7950  168.9630 C.3     150   G82       0.1065
   4750 O4'         8.1410    5.0060  168.2740 O.3     150   G82      -0.3548
   4751 C3'         9.6290    3.2260  168.0630 C.3     150   G82       0.2022
   4752 O3'         9.7730    1.8310  168.2560 O.3     150   G82      -0.5246
   4753 C2'         9.0780    3.5180  166.6750 C.3     150   G82       0.0670
   4754 O2'         8.1180    2.5790  166.2380 O.3     150   G82      -0.6139
   4755 C1'         8.4220    4.8820  166.8890 C.3     150   G82       0.0191
   4756 N9          9.2730    5.9950  166.4690 N.ar    150   G82       0.0492
   4757 C8          9.7380    7.0350  167.2380 C.ar    150   G82       0.1374
   4758 N7         10.4700    7.8800  166.5650 N.ar    150   G82      -0.5709
   4759 C5         10.4940    7.3650  165.2760 C.ar    150   G82       0.1744
   4760 C6         11.1350    7.8460  164.0980 C.2     150   G82       0.4770
   4761 O6         11.8360    8.8580  163.9560 O.2     150   G82      -0.5597
   4762 N1         10.8960    7.0120  163.0110 N.am    150   G82      -0.4787
   4763 C2         10.1410    5.8650  163.0450 C.2     150   G82       0.7657
   4764 N2         10.0270    5.1960  161.8910 N.pl3   150   G82      -0.9672
   4765 N3          9.5400    5.4080  164.1300 N.2     150   G82      -0.6323
   4766 C4          9.7600    6.2020  165.2010 C.ar    150   G82       0.1222
   4767 H5'         9.6694    4.9688  170.3573 H       150   G82       0.0679
   4768 H5''        9.4162    3.2768  170.8488 H       150   G82       0.0679
   4769 H4'         7.7107    3.1014  168.9946 H       150   G82       0.1174
   4770 H3'        10.5774    3.7397  168.2203 H       150   G82       0.0615
   4771 H2'         9.8901    3.5959  165.9522 H       150   G82       0.0972
   4772 H1'         7.4864    4.9187  166.3310 H       150   G82       0.2006
   4773 H8          9.5201    7.1418  168.2904 H       150   G82       0.1640
   4774 H1         11.3103    7.2701  162.1268 H       150   G82       0.3424
   4775 H21        10.4840    5.5420  161.0594 H       150   G82       0.4364
   4776 H22         9.4840    4.3453  161.8520 H       150   G82       0.4364
   4777 HO2'        8.5399    1.7267  166.1068 H       150   G82       0.4186
   4778 P          11.1980    1.1400  167.9890 P.3     151   G83       1.1662
   4779 OP1        10.9780   -0.3330  167.8770 O.co2   151   G83      -0.7760
   4780 OP2        12.1660    1.6820  168.9920 O.co2   151   G83      -0.7760
   4781 O5'        11.6350    1.6790  166.5550 O.3     151   G83      -0.4989
   4782 C5'        11.2720    0.9860  165.3650 C.3     151   G83       0.0558
   4783 C4'        12.0170    1.5700  164.1920 C.3     151   G83       0.1065
   4784 O4'        11.5910    2.9460  163.9830 O.3     151   G83      -0.3548
   4785 C3'        13.5180    1.6750  164.3970 C.3     151   G83       0.2022
   4786 O3'        14.1560    0.4550  164.0380 O.3     151   G83      -0.5246
   4787 C2'        13.8810    2.7900  163.4290 C.3     151   G83       0.0670
   4788 O2'        13.9410    2.3210  162.0960 O.3     151   G83      -0.6139
   4789 C1'        12.6990    3.7430  163.6160 C.3     151   G83       0.0191
   4790 N9         12.9400    4.7020  164.6900 N.ar    151   G83       0.0492
   4791 C8         12.6310    4.5570  166.0190 C.ar    151   G83       0.1374
   4792 N7         13.0270    5.5650  166.7480 N.ar    151   G83      -0.5709
   4793 C5         13.6230    6.4330  165.8430 C.ar    151   G83       0.1744
   4794 C6         14.2430    7.7020  166.0420 C.2     151   G83       0.4770
   4795 O6         14.3860    8.3400  167.0900 O.2     151   G83      -0.5597
   4796 N1         14.7160    8.2300  164.8500 N.am    151   G83      -0.4787
   4797 C2         14.5970    7.6350  163.6220 C.2     151   G83       0.7657
   4798 N2         15.1120    8.3050  162.5860 N.pl3   151   G83      -0.9672
   4799 N3         14.0180    6.4690  163.4230 N.2     151   G83      -0.6323
   4800 C4         13.5630    5.9240  164.5690 C.ar    151   G83       0.1222
   4801 H5'        11.5269   -0.0688  165.4676 H       151   G83       0.0679
   4802 H5''       10.1992    1.0858  165.1998 H       151   G83       0.0679
   4803 H4'        11.8098    0.9827  163.2975 H       151   G83       0.1174
   4804 H3'        13.7550    1.9543  165.4236 H       151   G83       0.0615
   4805 H2'        14.8173    3.2679  163.7173 H       151   G83       0.0972
   4806 H1'        12.4903    4.2686  162.6842 H       151   G83       0.2006
   4807 H8         12.1138    3.6980  166.4204 H       151   G83       0.1640
   4808 H1         15.1851    9.1235  164.8906 H       151   G83       0.3424
   4809 H21        15.5575    9.1993  162.7341 H       151   G83       0.4364
   4810 H22        15.0556    7.9169  161.6553 H       151   G83       0.4364
   4811 HO2'       14.6418    1.6697  162.0172 H       151   G83       0.4186
   4812 P          15.0550   -0.3320  165.1200 P.3     152   A84       1.1662
   4813 OP1        14.2430   -1.5040  165.5430 O.co2   152   A84      -0.7760
   4814 OP2        15.5900    0.6090  166.1490 O.co2   152   A84      -0.7760
   4815 O5'        16.2550   -0.8970  164.2450 O.3     152   A84      -0.4989
   4816 C5'        16.0100   -1.8440  163.2050 C.3     152   A84       0.0558
   4817 C4'        16.9790   -1.6180  162.0720 C.3     152   A84       0.1065
   4818 O4'        16.6240   -0.4040  161.3640 O.3     152   A84      -0.3548
   4819 C3'        18.4110   -1.3870  162.5220 C.3     152   A84       0.2022
   4820 O3'        19.0730   -2.6350  162.7160 O.3     152   A84      -0.5246
   4821 C2'        18.9960   -0.5950  161.3580 C.3     152   A84       0.0670
   4822 O2'        19.3800   -1.4310  160.2900 O.3     152   A84      -0.6139
   4823 C1'        17.8000    0.2560  160.9250 C.3     152   A84       0.0394
   4824 N9         17.7860    1.6140  161.4670 N.ar    152   A84      -0.0251
   4825 C8         17.6260    1.9780  162.7790 C.ar    152   A84       0.2006
   4826 N7         17.6400    3.2740  162.9740 N.ar    152   A84      -0.6073
   4827 C5         17.8240    3.7980  161.7030 C.ar    152   A84       0.0515
   4828 C6         17.9250    5.1110  161.2380 C.ar    152   A84       0.7009
   4829 N6         17.8530    6.1660  162.0280 N.pl3   152   A84      -0.9019
   4830 N1         18.1050    5.3020  159.9160 N.ar    152   A84      -0.7615
   4831 C2         18.1780    4.2310  159.1240 C.ar    152   A84       0.5875
   4832 N3         18.0950    2.9420  159.4430 N.ar    152   A84      -0.6997
   4833 C4         17.9170    2.7890  160.7660 C.ar    152   A84       0.3053
   4834 H5'        16.1395   -2.8531  163.5963 H       152   A84       0.0679
   4835 H5''       14.9902   -1.7251  162.8391 H       152   A84       0.0679
   4836 H4'        16.9435   -2.4646  161.3864 H       152   A84       0.1174
   4837 H3'        18.4338   -0.7954  163.4372 H       152   A84       0.0615
   4838 H2'        19.8260    0.0309  161.6858 H       152   A84       0.0972
   4839 H1'        17.7852    0.3124  159.8366 H       152   A84       0.2007
   4840 H8         17.5000    1.2627  163.5783 H       152   A84       0.1553
   4841 H2         18.3254    4.4400  158.0747 H       152   A84       0.0473
   4842 HO2'       18.8028   -2.1975  160.2595 H       152   A84       0.4186
   4843 H61        17.7247    6.1425  163.0295 H       152   A84       0.4115
   4844 H62        17.9330    7.0744  161.5938 H       152   A84       0.4115
   4845 P          20.3530   -2.7220  163.6850 P.3     153   A85       1.1662
   4846 OP1        21.2200   -3.7770  163.0870 O.co2   153   A85      -0.7760
   4847 OP2        19.9250   -2.8280  165.1100 O.co2   153   A85      -0.7760
   4848 O5'        21.0830   -1.3160  163.5090 O.3     153   A85      -0.4989
   4849 C5'        21.9510   -0.8220  164.5210 C.3     153   A85       0.0558
   4850 C4'        23.1850   -1.6820  164.5930 C.3     153   A85       0.1065
   4851 O4'        23.7960   -1.7610  163.2860 O.3     153   A85      -0.3548
   4852 C3'        24.2890   -1.2110  165.5260 C.3     153   A85       0.2022
   4853 O3'        24.0110   -1.7420  166.8220 O.3     153   A85      -0.5246
   4854 C2'        25.5370   -1.8540  164.9260 C.3     153   A85       0.0670
   4855 O2'        25.6990   -3.1760  165.3950 O.3     153   A85      -0.6139
   4856 C1'        25.1910   -1.9140  163.4330 C.3     153   A85       0.0394
   4857 N9         25.8490   -0.9460  162.5600 N.ar    153   A85      -0.0251
   4858 C8         25.8490    0.4220  162.6300 C.ar    153   A85       0.2006
   4859 N7         26.4900    0.9980  161.6430 N.ar    153   A85      -0.6073
   4860 C5         26.9570   -0.0610  160.8820 C.ar    153   A85       0.0515
   4861 C6         27.7100   -0.1150  159.7020 C.ar    153   A85       0.7009
   4862 N6         28.1380    0.9700  159.0540 N.pl3   153   A85      -0.9019
   4863 N1         28.0160   -1.3360  159.2030 N.ar    153   A85      -0.7615
   4864 C2         27.5870   -2.4200  159.8610 C.ar    153   A85       0.5875
   4865 N3         26.8720   -2.4970  160.9790 N.ar    153   A85      -0.6997
   4866 C4         26.5840   -1.2660  161.4430 C.ar    153   A85       0.3053
   4867 H5'        21.4371   -0.8442  165.4820 H       153   A85       0.0679
   4868 H5''       22.2364    0.2033  164.2857 H       153   A85       0.0679
   4869 H4'        22.8865   -2.6863  164.8937 H       153   A85       0.1174
   4870 H3'        24.3649   -0.1238  165.5438 H       153   A85       0.0615
   4871 H2'        26.4267   -1.2512  165.1083 H       153   A85       0.0972
   4872 H1'        25.4519   -2.9099  163.0750 H       153   A85       0.2007
   4873 H8         25.3665    0.9735  163.4234 H       153   A85       0.1553
   4874 H2         27.8609   -3.3673  159.4206 H       153   A85       0.0473
   4875 HO2'       26.6074   -3.4551  165.2593 H       153   A85       0.4186
   4876 H61        27.9210    1.8897  159.4107 H       153   A85       0.4115
   4877 H62        28.6790    0.8716  158.2068 H       153   A85       0.4115
   4878 P          25.0690   -1.5540  168.0200 P.3     154   G86       1.1662
   4879 OP1        24.3470   -1.8680  169.2830 O.co2   154   G86      -0.7760
   4880 OP2        25.7460   -0.2300  167.8660 O.co2   154   G86      -0.7760
   4881 O5'        26.1450   -2.7060  167.7780 O.3     154   G86      -0.4989
   4882 C5'        27.5370   -2.4400  167.9250 C.3     154   G86       0.0558
   4883 C4'        28.3470   -3.4750  167.1900 C.3     154   G86       0.1065
   4884 O4'        27.9890   -3.4570  165.7810 O.3     154   G86      -0.3548
   4885 C3'        29.8410   -3.2260  167.1530 C.3     154   G86       0.2022
   4886 O3'        30.4620   -3.6340  168.3560 O.3     154   G86      -0.5246
   4887 C2'        30.2570   -4.0960  165.9800 C.3     154   G86       0.0670
   4888 O2'        30.2810   -5.4660  166.3220 O.3     154   G86      -0.6139
   4889 C1'        29.1100   -3.8390  165.0030 C.3     154   G86       0.0191
   4890 N9         29.4230   -2.7680  164.0600 N.ar    154   G86       0.0492
   4891 C8         29.0820   -1.4340  164.1360 C.ar    154   G86       0.1374
   4892 N7         29.5450   -0.7290  163.1370 N.ar    154   G86      -0.5709
   4893 C5         30.2230   -1.6530  162.3520 C.ar    154   G86       0.1744
   4894 C6         30.9270   -1.4880  161.1360 C.2     154   G86       0.4770
   4895 O6         31.0990   -0.4600  160.4830 O.2     154   G86      -0.5597
   4896 N1         31.4670   -2.6920  160.6880 N.am    154   G86      -0.4787
   4897 C2         31.3420   -3.9040  161.3240 C.2     154   G86       0.7657
   4898 N2         31.9320   -4.9550  160.7370 N.pl3   154   G86      -0.9672
   4899 N3         30.6860   -4.0720  162.4540 N.2     154   G86      -0.6323
   4900 C4         30.1560   -2.9140  162.9100 C.ar    154   G86       0.1222
   4901 H5'        27.7595   -1.4537  167.5178 H       154   G86       0.0679
   4902 H5''       27.7988   -2.4612  168.9829 H       154   G86       0.0679
   4903 H4'        28.1487   -4.4621  167.6075 H       154   G86       0.1174
   4904 H3'        30.0515   -2.1764  166.9477 H       154   G86       0.0615
   4905 H2'        31.2119   -3.7734  165.5652 H       154   G86       0.0972
   4906 H1'        28.8822   -4.7540  164.4562 H       154   G86       0.2006
   4907 H8         28.4930   -1.0147  164.9383 H       154   G86       0.1640
   4908 H1         31.9929   -2.6724  159.8260 H       154   G86       0.3424
   4909 H21        32.4364   -4.8321  159.8706 H       154   G86       0.4364
   4910 H22        31.8721   -5.8697  161.1611 H       154   G86       0.4364
   4911 HO2'       31.0400   -5.8852  165.9099 H       154   G86       0.4186
   4912 P          31.8370   -2.9580  168.8150 P.3     155   U87       1.1662
   4913 OP1        32.2000   -3.5110  170.1450 O.co2   155   U87      -0.7760
   4914 OP2        31.7090   -1.4890  168.6410 O.co2   155   U87      -0.7760
   4915 O5'        32.8820   -3.5040  167.7440 O.3     155   U87      -0.4989
   4916 C5'        33.1960   -4.9070  167.6670 C.3     155   U87       0.0558
   4917 C4'        34.3070   -5.1390  166.6700 C.3     155   U87       0.1065
   4918 O4'        33.7460   -5.1820  165.3300 O.3     155   U87      -0.3548
   4919 C3'        35.3890   -4.0660  166.6330 C.3     155   U87       0.2022
   4920 O3'        36.4640   -4.4090  167.5010 O.3     155   U87      -0.5246
   4921 C2'        35.8340   -4.0940  165.1760 C.3     155   U87       0.0670
   4922 O2'        36.7720   -5.1130  164.8970 O.3     155   U87      -0.6139
   4923 C1'        34.5120   -4.3680  164.4620 C.3     155   U87       0.0674
   4924 N1         33.7410   -3.1520  164.1730 N.am    155   U87       0.0418
   4925 C2         33.8310   -2.6200  162.9020 C.2     155   U87       0.4687
   4926 O2         34.5160   -3.1160  162.0240 O.2     155   U87      -0.5477
   4927 N3         33.0880   -1.4850  162.6990 N.am    155   U87      -0.3549
   4928 C4         32.2810   -0.8390  163.6120 C.2     155   U87       0.5952
   4929 O4         31.6740    0.1780  163.2730 O.2     155   U87      -0.5761
   4930 C5         32.2410   -1.4510  164.9050 C.2     155   U87      -0.3635
   4931 C6         32.9550   -2.5590  165.1350 C.2     155   U87      -0.1126
   4932 H5'        33.5138   -5.2591  168.6484 H       155   U87       0.0679
   4933 H5''       32.3094   -5.4590  167.3548 H       155   U87       0.0679
   4934 H4'        34.7745   -6.1000  166.8845 H       155   U87       0.1174
   4935 H3'        34.9768   -3.0911  166.8934 H       155   U87       0.0615
   4936 H2'        36.2303   -3.1223  164.8814 H       155   U87       0.0972
   4937 H1'        34.7044   -4.9061  163.5338 H       155   U87       0.1824
   4938 H3         33.1375   -1.0762  161.7768 H       155   U87       0.3154
   4939 H5         31.6378   -1.0209  165.6909 H       155   U87       0.1811
   4940 H6         32.9129   -3.0070  166.1168 H       155   U87       0.2188
   4941 HO2'       37.5507   -4.7285  164.4878 H       155   U87       0.4186
   4942 P          37.4650   -3.2740  168.0210 P.3     156   U88       1.1662
   4943 OP1        38.3760   -3.8880  169.0200 O.co2   156   U88      -0.7760
   4944 OP2        36.6580   -2.0850  168.3960 O.co2   156   U88      -0.7760
   4945 O5'        38.3100   -2.9160  166.7190 O.3     156   U88      -0.4989
   4946 C5'        38.9690   -3.9460  165.9590 C.3     156   U88       0.0558
   4947 C4'        39.6430   -3.3490  164.7460 C.3     156   U88       0.1065
   4948 O4'        38.6350   -3.0260  163.7490 O.3     156   U88      -0.3548
   4949 C3'        40.4120   -2.0570  164.9930 C.3     156   U88       0.2022
   4950 O3'        41.7770   -2.3350  165.2840 O.3     156   U88      -0.6541
   4951 C2'        40.2750   -1.3300  163.6610 C.3     156   U88       0.0670
   4952 O2'        41.2110   -1.7560  162.6930 O.3     156   U88      -0.6139
   4953 C1'        38.8580   -1.7210  163.2470 C.3     156   U88       0.0674
   4954 N1         37.8230   -0.8350  163.7970 N.am    156   U88       0.0418
   4955 C2         37.3980    0.2200  163.0140 C.2     156   U88       0.4687
   4956 O2         37.8430    0.4400  161.9000 O.2     156   U88      -0.5477
   4957 N3         36.4320    1.0090  163.5860 N.am    156   U88      -0.3549
   4958 C4         35.8580    0.8570  164.8300 C.2     156   U88       0.5952
   4959 O4         34.9960    1.6550  165.2020 O.2     156   U88      -0.5761
   4960 C5         36.3510   -0.2580  165.5790 C.2     156   U88      -0.3635
   4961 C6         37.2930   -1.0460  165.0500 C.2     156   U88      -0.1126
   4962 H5'        39.7181   -4.4314  166.5846 H       156   U88       0.0679
   4963 H5''       38.2340   -4.6838  165.6373 H       156   U88       0.0679
   4964 H4'        40.3259   -4.0877  164.3263 H       156   U88       0.1174
   4965 H3'        39.9540   -1.4814  165.7973 H       156   U88       0.0615
   4966 H2'        40.3441   -0.2521  163.8077 H       156   U88       0.0972
   4967 H1'        38.7868   -1.7324  162.1594 H       156   U88       0.1824
   4968 H3         36.1048    1.7886  163.0335 H       156   U88       0.3154
   4969 H5         35.9643   -0.4621  166.5665 H       156   U88       0.1811
   4970 H6         37.6531   -1.8829  165.6299 H       156   U88       0.2188
   4971 HO3'       42.2462   -1.5115  165.4367 H       156   U88       0.4376
   4972 HO2'       42.0950   -1.5025  162.9686 H       156   U88       0.4186
@<TRIPOS>BOND
     1    1    2 1
     2    2    3 1
     3    3    5 1
     4    3    4 1
     5    4    9 1
     6    5    7 1
     7    5    6 1
     8    7    9 1
     9    7    8 1
    10    9   10 1
    11   10   20 ar
    12   10   11 ar
    13   11   12 ar
    14   12   13 ar
    15   13   20 ar
    16   13   14 1
    17   14   15 2
    18   14   16 am
    19   16   17 1
    20   17   18 2
    21   17   19 2
    22   19   20 1
    23   33   35 1
    24   33   34 1
    25   33   36 1
    26   36   37 1
    27   37   38 1
    28   38   40 1
    29   38   39 1
    30   39   44 1
    31   40   42 1
    32   40   41 1
    33   42   43 1
    34   42   44 1
    35   44   45 1
    36   45   46 ar
    37   45   54 ar
    38   46   47 ar
    39   47   48 ar
    40   48   54 ar
    41   48   49 ar
    42   49   50 1
    43   49   51 ar
    44   51   52 ar
    45   52   53 ar
    46   53   54 ar
    47   33    6 1
    48   66   69 1
    49   66   68 1
    50   66   67 1
    51   69   70 1
    52   70   71 1
    53   71   73 1
    54   71   72 1
    55   72   77 1
    56   73   74 1
    57   73   75 1
    58   75   76 1
    59   75   77 1
    60   77   78 1
    61   78   85 1
    62   78   79 am
    63   79   80 2
    64   79   81 1
    65   81   82 2
    66   82   84 2
    67   82   83 2
    68   84   85 2
    69   41   66 1
    70   97  100 1
    71   97   98 1
    72   97   99 1
    73  100  101 1
    74  101  102 1
    75  102  104 1
    76  102  103 1
    77  103  108 1
    78  104  106 1
    79  104  105 1
    80  106  107 1
    81  106  108 1
    82  108  109 1
    83  109  110 am
    84  109  116 1
    85  110  111 2
    86  110  112 am
    87  112  113 am
    88  113  115 1
    89  113  114 2
    90  115  116 2
    91   74   97 1
    92  127  130 1
    93  127  129 1
    94  127  128 1
    95  130  131 1
    96  131  132 1
    97  132  134 1
    98  132  133 1
    99  133  138 1
   100  134  135 1
   101  134  136 1
   102  136  137 1
   103  136  138 1
   104  138  139 1
   105  139  146 1
   106  139  140 am
   107  140  141 2
   108  140  142 1
   109  142  143 2
   110  143  145 2
   111  143  144 2
   112  145  146 2
   113  105  127 1
   114  158  159 1
   115  158  160 1
   116  158  161 1
   117  161  162 1
   118  162  163 1
   119  163  165 1
   120  163  164 1
   121  164  169 1
   122  165  167 1
   123  165  166 1
   124  167  169 1
   125  167  168 1
   126  169  170 1
   127  170  180 ar
   128  170  171 ar
   129  171  172 ar
   130  172  173 ar
   131  173  180 ar
   132  173  174 1
   133  174  175 2
   134  174  176 am
   135  176  177 1
   136  177  178 2
   137  177  179 2
   138  179  180 1
   139  135  158 1
   140  192  193 1
   141  192  194 1
   142  192  195 1
   143  195  196 1
   144  196  197 1
   145  197  199 1
   146  197  198 1
   147  198  203 1
   148  199  201 1
   149  199  200 1
   150  201  203 1
   151  201  202 1
   152  203  204 1
   153  204  214 ar
   154  204  205 ar
   155  205  206 ar
   156  206  207 ar
   157  207  214 ar
   158  207  208 1
   159  208  209 2
   160  208  210 am
   161  210  211 1
   162  211  212 2
   163  211  213 2
   164  213  214 1
   165  166  192 1
   166  226  227 1
   167  226  228 1
   168  226  229 1
   169  229  230 1
   170  230  231 1
   171  231  233 1
   172  231  232 1
   173  232  237 1
   174  233  235 1
   175  233  234 1
   176  235  237 1
   177  235  236 1
   178  237  238 1
   179  238  248 ar
   180  238  239 ar
   181  239  240 ar
   182  240  241 ar
   183  241  248 ar
   184  241  242 1
   185  242  243 2
   186  242  244 am
   187  244  245 1
   188  245  246 2
   189  245  247 2
   190  247  248 1
   191  200  226 1
   192  260  261 1
   193  260  262 1
   194  260  263 1
   195  263  264 1
   196  264  265 1
   197  265  267 1
   198  265  266 1
   199  266  271 1
   200  267  269 1
   201  267  268 1
   202  269  271 1
   203  269  270 1
   204  271  272 1
   205  272  282 ar
   206  272  273 ar
   207  273  274 ar
   208  274  275 ar
   209  275  282 ar
   210  275  276 1
   211  276  277 2
   212  276  278 am
   213  278  279 1
   214  279  280 2
   215  279  281 2
   216  281  282 1
   217  234  260 1
   218  294  297 1
   219  294  295 1
   220  294  296 1
   221  297  298 1
   222  298  299 1
   223  299  301 1
   224  299  300 1
   225  300  305 1
   226  301  303 1
   227  301  302 1
   228  303  304 1
   229  303  305 1
   230  305  306 1
   231  306  307 am
   232  306  313 1
   233  307  308 2
   234  307  309 am
   235  309  310 am
   236  310  312 1
   237  310  311 2
   238  312  313 2
   239  268  294 1
   240  324  325 1
   241  324  326 1
   242  324  327 1
   243  327  328 1
   244  328  329 1
   245  329  331 1
   246  329  330 1
   247  330  335 1
   248  331  333 1
   249  331  332 1
   250  333  335 1
   251  333  334 1
   252  335  336 1
   253  336  346 ar
   254  336  337 ar
   255  337  338 ar
   256  338  339 ar
   257  339  346 ar
   258  339  340 1
   259  340  341 2
   260  340  342 am
   261  342  343 1
   262  343  344 2
   263  343  345 2
   264  345  346 1
   265  302  324 1
   266  358  361 1
   267  358  360 1
   268  358  359 1
   269  361  362 1
   270  362  363 1
   271  363  365 1
   272  363  364 1
   273  364  369 1
   274  365  366 1
   275  365  367 1
   276  367  368 1
   277  367  369 1
   278  369  370 1
   279  370  377 1
   280  370  371 am
   281  371  372 2
   282  371  373 1
   283  373  374 2
   284  374  376 2
   285  374  375 2
   286  376  377 2
   287  332  358 1
   288  389  392 1
   289  389  391 1
   290  389  390 1
   291  392  393 1
   292  393  394 1
   293  394  396 1
   294  394  395 1
   295  395  400 1
   296  396  397 1
   297  396  398 1
   298  398  399 1
   299  398  400 1
   300  400  401 1
   301  401  408 1
   302  401  402 am
   303  402  403 2
   304  402  404 1
   305  404  405 2
   306  405  407 2
   307  405  406 2
   308  407  408 2
   309  366  389 1
   310  420  423 1
   311  420  422 1
   312  420  421 1
   313  423  424 1
   314  424  425 1
   315  425  427 1
   316  425  426 1
   317  426  431 1
   318  427  428 1
   319  427  429 1
   320  429  430 1
   321  429  431 1
   322  431  432 1
   323  432  439 1
   324  432  433 am
   325  433  434 2
   326  433  435 1
   327  435  436 2
   328  436  438 2
   329  436  437 2
   330  438  439 2
   331  397  420 1
   332  451  454 1
   333  451  452 1
   334  451  453 1
   335  454  455 1
   336  455  456 1
   337  456  458 1
   338  456  457 1
   339  457  462 1
   340  458  460 1
   341  458  459 1
   342  460  461 1
   343  460  462 1
   344  462  463 1
   345  463  464 am
   346  463  470 1
   347  464  465 2
   348  464  466 am
   349  466  467 am
   350  467  469 1
   351  467  468 2
   352  469  470 2
   353  428  451 1
   354  481  484 1
   355  481  482 1
   356  481  483 1
   357  484  485 1
   358  485  486 1
   359  486  488 1
   360  486  487 1
   361  487  492 1
   362  488  490 1
   363  488  489 1
   364  490  491 1
   365  490  492 1
   366  492  493 1
   367  493  494 am
   368  493  500 1
   369  494  495 2
   370  494  496 am
   371  496  497 am
   372  497  499 1
   373  497  498 2
   374  499  500 2
   375  459  481 1
   376  511  514 1
   377  511  513 1
   378  511  512 1
   379  514  515 1
   380  515  516 1
   381  516  518 1
   382  516  517 1
   383  517  522 1
   384  518  519 1
   385  518  520 1
   386  520  521 1
   387  520  522 1
   388  522  523 1
   389  523  530 1
   390  523  524 am
   391  524  525 2
   392  524  526 1
   393  526  527 2
   394  527  529 2
   395  527  528 2
   396  529  530 2
   397  489  511 1
   398  542  545 1
   399  542  543 1
   400  542  544 1
   401  545  546 1
   402  546  547 1
   403  547  549 1
   404  547  548 1
   405  548  553 1
   406  549  551 1
   407  549  550 1
   408  551  552 1
   409  551  553 1
   410  553  554 1
   411  554  555 am
   412  554  561 1
   413  555  556 2
   414  555  557 am
   415  557  558 am
   416  558  560 1
   417  558  559 2
   418  560  561 2
   419  519  542 1
   420  572  573 1
   421  572  574 1
   422  572  575 1
   423  575  576 1
   424  576  577 1
   425  577  579 1
   426  577  578 1
   427  578  583 1
   428  579  581 1
   429  579  580 1
   430  581  583 1
   431  581  582 1
   432  583  584 1
   433  584  594 ar
   434  584  585 ar
   435  585  586 ar
   436  586  587 ar
   437  587  594 ar
   438  587  588 1
   439  588  589 2
   440  588  590 am
   441  590  591 1
   442  591  592 2
   443  591  593 2
   444  593  594 1
   445  550  572 1
   446  606  609 1
   447  606  608 1
   448  606  607 1
   449  609  610 1
   450  610  611 1
   451  611  613 1
   452  611  612 1
   453  612  617 1
   454  613  614 1
   455  613  615 1
   456  615  616 1
   457  615  617 1
   458  617  618 1
   459  618  625 1
   460  618  619 am
   461  619  620 2
   462  619  621 1
   463  621  622 2
   464  622  624 2
   465  622  623 2
   466  624  625 2
   467  580  606 1
   468  637  638 1
   469  637  639 1
   470  637  640 1
   471  640  641 1
   472  641  642 1
   473  642  644 1
   474  642  643 1
   475  643  648 1
   476  644  646 1
   477  644  645 1
   478  646  648 1
   479  646  647 1
   480  648  649 1
   481  649  659 ar
   482  649  650 ar
   483  650  651 ar
   484  651  652 ar
   485  652  659 ar
   486  652  653 1
   487  653  654 2
   488  653  655 am
   489  655  656 1
   490  656  657 2
   491  656  658 2
   492  658  659 1
   493  614  637 1
   494  671  674 1
   495  671  672 1
   496  671  673 1
   497  674  675 1
   498  675  676 1
   499  676  678 1
   500  676  677 1
   501  677  682 1
   502  678  680 1
   503  678  679 1
   504  680  681 1
   505  680  682 1
   506  682  683 1
   507  683  684 am
   508  683  690 1
   509  684  685 2
   510  684  686 am
   511  686  687 am
   512  687  689 1
   513  687  688 2
   514  689  690 2
   515  645  671 1
   516  701  702 1
   517  701  703 1
   518  701  704 1
   519  704  705 1
   520  705  706 1
   521  706  708 1
   522  706  707 1
   523  707  712 1
   524  708  710 1
   525  708  709 1
   526  710  712 1
   527  710  711 1
   528  712  713 1
   529  713  723 ar
   530  713  714 ar
   531  714  715 ar
   532  715  716 ar
   533  716  723 ar
   534  716  717 1
   535  717  718 2
   536  717  719 am
   537  719  720 1
   538  720  721 2
   539  720  722 2
   540  722  723 1
   541  679  701 1
   542  735  737 1
   543  735  736 1
   544  735  738 1
   545  738  739 1
   546  739  740 1
   547  740  742 1
   548  740  741 1
   549  741  746 1
   550  742  744 1
   551  742  743 1
   552  744  745 1
   553  744  746 1
   554  746  747 1
   555  747  748 ar
   556  747  756 ar
   557  748  749 ar
   558  749  750 ar
   559  750  756 ar
   560  750  751 ar
   561  751  752 1
   562  751  753 ar
   563  753  754 ar
   564  754  755 ar
   565  755  756 ar
   566  709  735 1
   567  768  770 1
   568  768  769 1
   569  768  771 1
   570  771  772 1
   571  772  773 1
   572  773  775 1
   573  773  774 1
   574  774  779 1
   575  775  777 1
   576  775  776 1
   577  777  778 1
   578  777  779 1
   579  779  780 1
   580  780  781 ar
   581  780  789 ar
   582  781  782 ar
   583  782  783 ar
   584  783  789 ar
   585  783  784 ar
   586  784  785 1
   587  784  786 ar
   588  786  787 ar
   589  787  788 ar
   590  788  789 ar
   591  743  768 1
   592  801  802 1
   593  801  803 1
   594  801  804 1
   595  804  805 1
   596  805  806 1
   597  806  808 1
   598  806  807 1
   599  807  812 1
   600  808  810 1
   601  808  809 1
   602  810  812 1
   603  810  811 1
   604  812  813 1
   605  813  823 ar
   606  813  814 ar
   607  814  815 ar
   608  815  816 ar
   609  816  823 ar
   610  816  817 1
   611  817  818 2
   612  817  819 am
   613  819  820 1
   614  820  821 2
   615  820  822 2
   616  822  823 1
   617  776  801 1
   618  835  836 1
   619  835  837 1
   620  835  838 1
   621  838  839 1
   622  839  840 1
   623  840  842 1
   624  840  841 1
   625  841  846 1
   626  842  844 1
   627  842  843 1
   628  844  846 1
   629  844  845 1
   630  846  847 1
   631  847  857 ar
   632  847  848 ar
   633  848  849 ar
   634  849  850 ar
   635  850  857 ar
   636  850  851 1
   637  851  852 2
   638  851  853 am
   639  853  854 1
   640  854  855 2
   641  854  856 2
   642  856  857 1
   643  809  835 1
   644  869  872 1
   645  869  871 1
   646  869  870 1
   647  872  873 1
   648  873  874 1
   649  874  876 1
   650  874  875 1
   651  875  880 1
   652  876  877 1
   653  876  878 1
   654  878  879 1
   655  878  880 1
   656  880  881 1
   657  881  888 1
   658  881  882 am
   659  882  883 2
   660  882  884 1
   661  884  885 2
   662  885  887 2
   663  885  886 2
   664  887  888 2
   665  843  869 1
   666  900  903 1
   667  900  901 1
   668  900  902 1
   669  903  904 1
   670  904  905 1
   671  905  907 1
   672  905  906 1
   673  906  911 1
   674  907  909 1
   675  907  908 1
   676  909  910 1
   677  909  911 1
   678  911  912 1
   679  912  913 am
   680  912  919 1
   681  913  914 2
   682  913  915 am
   683  915  916 am
   684  916  918 1
   685  916  917 2
   686  918  919 2
   687  877  900 1
   688  930  931 1
   689  930  932 1
   690  930  933 1
   691  933  934 1
   692  934  935 1
   693  935  937 1
   694  935  936 1
   695  936  941 1
   696  937  939 1
   697  937  938 1
   698  939  941 1
   699  939  940 1
   700  941  942 1
   701  942  952 ar
   702  942  943 ar
   703  943  944 ar
   704  944  945 ar
   705  945  952 ar
   706  945  946 1
   707  946  947 2
   708  946  948 am
   709  948  949 1
   710  949  950 2
   711  949  951 2
   712  951  952 1
   713  908  930 1
   714  964  966 1
   715  964  965 1
   716  964  967 1
   717  967  968 1
   718  968  969 1
   719  969  971 1
   720  969  970 1
   721  970  975 1
   722  971  973 1
   723  971  972 1
   724  973  974 1
   725  973  975 1
   726  975  976 1
   727  976  977 ar
   728  976  985 ar
   729  977  978 ar
   730  978  979 ar
   731  979  985 ar
   732  979  980 ar
   733  980  981 1
   734  980  982 ar
   735  982  983 ar
   736  983  984 ar
   737  984  985 ar
   738  938  964 1
   739  997  998 1
   740  997  999 1
   741  997 1000 1
   742 1000 1001 1
   743 1001 1002 1
   744 1002 1004 1
   745 1002 1003 1
   746 1003 1008 1
   747 1004 1006 1
   748 1004 1005 1
   749 1006 1008 1
   750 1006 1007 1
   751 1008 1009 1
   752 1009 1019 ar
   753 1009 1010 ar
   754 1010 1011 ar
   755 1011 1012 ar
   756 1012 1019 ar
   757 1012 1013 1
   758 1013 1014 2
   759 1013 1015 am
   760 1015 1016 1
   761 1016 1017 2
   762 1016 1018 2
   763 1018 1019 1
   764  972  997 1
   765 1031 1033 1
   766 1031 1032 1
   767 1031 1034 1
   768 1034 1035 1
   769 1035 1036 1
   770 1036 1038 1
   771 1036 1037 1
   772 1037 1042 1
   773 1038 1040 1
   774 1038 1039 1
   775 1040 1041 1
   776 1040 1042 1
   777 1042 1043 1
   778 1043 1044 ar
   779 1043 1052 ar
   780 1044 1045 ar
   781 1045 1046 ar
   782 1046 1052 ar
   783 1046 1047 ar
   784 1047 1048 1
   785 1047 1049 ar
   786 1049 1050 ar
   787 1050 1051 ar
   788 1051 1052 ar
   789 1005 1031 1
   790 1064 1066 1
   791 1064 1065 1
   792 1064 1067 1
   793 1067 1068 1
   794 1068 1069 1
   795 1069 1071 1
   796 1069 1070 1
   797 1070 1075 1
   798 1071 1073 1
   799 1071 1072 1
   800 1073 1074 1
   801 1073 1075 1
   802 1075 1076 1
   803 1076 1077 ar
   804 1076 1085 ar
   805 1077 1078 ar
   806 1078 1079 ar
   807 1079 1085 ar
   808 1079 1080 ar
   809 1080 1081 1
   810 1080 1082 ar
   811 1082 1083 ar
   812 1083 1084 ar
   813 1084 1085 ar
   814 1039 1064 1
   815 1097 1099 1
   816 1097 1098 1
   817 1097 1100 1
   818 1100 1101 1
   819 1101 1102 1
   820 1102 1104 1
   821 1102 1103 1
   822 1103 1108 1
   823 1104 1106 1
   824 1104 1105 1
   825 1106 1107 1
   826 1106 1108 1
   827 1108 1109 1
   828 1109 1110 ar
   829 1109 1118 ar
   830 1110 1111 ar
   831 1111 1112 ar
   832 1112 1118 ar
   833 1112 1113 ar
   834 1113 1114 1
   835 1113 1115 ar
   836 1115 1116 ar
   837 1116 1117 ar
   838 1117 1118 ar
   839 1072 1097 1
   840 1130 1133 1
   841 1130 1131 1
   842 1130 1132 1
   843 1133 1134 1
   844 1134 1135 1
   845 1135 1137 1
   846 1135 1136 1
   847 1136 1141 1
   848 1137 1139 1
   849 1137 1138 1
   850 1139 1140 1
   851 1139 1141 1
   852 1105 1130 1
   853 1150 1152 1
   854 1150 1151 1
   855 1150 1153 1
   856 1153 1154 1
   857 1154 1155 1
   858 1155 1157 1
   859 1155 1156 1
   860 1156 1161 1
   861 1157 1159 1
   862 1157 1158 1
   863 1159 1160 1
   864 1159 1161 1
   865 1161 1162 1
   866 1162 1163 ar
   867 1162 1171 ar
   868 1163 1164 ar
   869 1164 1165 ar
   870 1165 1171 ar
   871 1165 1166 ar
   872 1166 1167 1
   873 1166 1168 ar
   874 1168 1169 ar
   875 1169 1170 ar
   876 1170 1171 ar
   877 1138 1150 1
   878 1183 1186 1
   879 1183 1185 1
   880 1183 1184 1
   881 1186 1187 1
   882 1187 1188 1
   883 1188 1190 1
   884 1188 1189 1
   885 1189 1194 1
   886 1190 1191 1
   887 1190 1192 1
   888 1192 1193 1
   889 1192 1194 1
   890 1194 1195 1
   891 1195 1202 1
   892 1195 1196 am
   893 1196 1197 2
   894 1196 1198 1
   895 1198 1199 2
   896 1199 1201 2
   897 1199 1200 2
   898 1201 1202 2
   899 1158 1183 1
   900 1214 1217 1
   901 1214 1216 1
   902 1214 1215 1
   903 1217 1218 1
   904 1218 1219 1
   905 1219 1221 1
   906 1219 1220 1
   907 1220 1225 1
   908 1221 1222 1
   909 1221 1223 1
   910 1223 1224 1
   911 1223 1225 1
   912 1225 1226 1
   913 1226 1233 1
   914 1226 1227 am
   915 1227 1228 2
   916 1227 1229 1
   917 1229 1230 2
   918 1230 1232 2
   919 1230 1231 2
   920 1232 1233 2
   921 1191 1214 1
   922 1245 1248 1
   923 1245 1247 1
   924 1245 1246 1
   925 1248 1249 1
   926 1249 1250 1
   927 1250 1252 1
   928 1250 1251 1
   929 1251 1256 1
   930 1252 1253 1
   931 1252 1254 1
   932 1254 1255 1
   933 1254 1256 1
   934 1256 1257 1
   935 1257 1264 1
   936 1257 1258 am
   937 1258 1259 2
   938 1258 1260 1
   939 1260 1261 2
   940 1261 1263 2
   941 1261 1262 2
   942 1263 1264 2
   943 1222 1245 1
   944 1276 1277 1
   945 1276 1278 1
   946 1276 1279 1
   947 1279 1280 1
   948 1280 1281 1
   949 1281 1283 1
   950 1281 1282 1
   951 1282 1287 1
   952 1283 1285 1
   953 1283 1284 1
   954 1285 1287 1
   955 1285 1286 1
   956 1287 1288 1
   957 1288 1298 ar
   958 1288 1289 ar
   959 1289 1290 ar
   960 1290 1291 ar
   961 1291 1298 ar
   962 1291 1292 1
   963 1292 1293 2
   964 1292 1294 am
   965 1294 1295 1
   966 1295 1296 2
   967 1295 1297 2
   968 1297 1298 1
   969 1253 1276 1
   970 1310 1313 1
   971 1310 1311 1
   972 1310 1312 1
   973 1313 1314 1
   974 1314 1315 1
   975 1315 1317 1
   976 1315 1316 1
   977 1316 1321 1
   978 1317 1319 1
   979 1317 1318 1
   980 1319 1320 1
   981 1319 1321 1
   982 1321 1322 1
   983 1322 1323 am
   984 1322 1329 1
   985 1323 1324 2
   986 1323 1325 am
   987 1325 1326 am
   988 1326 1328 1
   989 1326 1327 2
   990 1328 1329 2
   991 1284 1310 1
   992 1340 1342 1
   993 1340 1341 1
   994 1340 1343 1
   995 1343 1344 1
   996 1344 1345 1
   997 1345 1347 1
   998 1345 1346 1
   999 1346 1351 1
  1000 1347 1349 1
  1001 1347 1348 1
  1002 1349 1350 1
  1003 1349 1351 1
  1004 1351 1352 1
  1005 1352 1353 ar
  1006 1352 1361 ar
  1007 1353 1354 ar
  1008 1354 1355 ar
  1009 1355 1361 ar
  1010 1355 1356 ar
  1011 1356 1357 1
  1012 1356 1358 ar
  1013 1358 1359 ar
  1014 1359 1360 ar
  1015 1360 1361 ar
  1016 1318 1340 1
  1017 1373 1376 1
  1018 1373 1374 1
  1019 1373 1375 1
  1020 1376 1377 1
  1021 1377 1378 1
  1022 1378 1380 1
  1023 1378 1379 1
  1024 1379 1384 1
  1025 1380 1382 1
  1026 1380 1381 1
  1027 1382 1383 1
  1028 1382 1384 1
  1029 1384 1385 1
  1030 1385 1386 am
  1031 1385 1392 1
  1032 1386 1387 2
  1033 1386 1388 am
  1034 1388 1389 am
  1035 1389 1391 1
  1036 1389 1390 2
  1037 1391 1392 2
  1038 1348 1373 1
  1039 1403 1406 1
  1040 1403 1405 1
  1041 1403 1404 1
  1042 1406 1407 1
  1043 1407 1408 1
  1044 1408 1410 1
  1045 1408 1409 1
  1046 1409 1414 1
  1047 1410 1411 1
  1048 1410 1412 1
  1049 1412 1413 1
  1050 1412 1414 1
  1051 1381 1403 1
  1052 1423 1425 1
  1053 1423 1424 1
  1054 1423 1426 1
  1055 1426 1427 1
  1056 1427 1428 1
  1057 1428 1430 1
  1058 1428 1429 1
  1059 1429 1434 1
  1060 1430 1432 1
  1061 1430 1431 1
  1062 1432 1433 1
  1063 1432 1434 1
  1064 1434 1435 1
  1065 1435 1436 ar
  1066 1435 1444 ar
  1067 1436 1437 ar
  1068 1437 1438 ar
  1069 1438 1444 ar
  1070 1438 1439 ar
  1071 1439 1440 1
  1072 1439 1441 ar
  1073 1441 1442 ar
  1074 1442 1443 ar
  1075 1443 1444 ar
  1076 1411 1423 1
  1077 1456 1459 1
  1078 1456 1458 1
  1079 1456 1457 1
  1080 1459 1460 1
  1081 1460 1461 1
  1082 1461 1463 1
  1083 1461 1462 1
  1084 1462 1467 1
  1085 1463 1464 1
  1086 1463 1465 1
  1087 1465 1466 1
  1088 1465 1467 1
  1089 1467 1468 1
  1090 1468 1475 1
  1091 1468 1469 am
  1092 1469 1470 2
  1093 1469 1471 1
  1094 1471 1472 2
  1095 1472 1474 2
  1096 1472 1473 2
  1097 1474 1475 2
  1098 1431 1456 1
  1099 1487 1490 1
  1100 1487 1489 1
  1101 1487 1488 1
  1102 1490 1491 1
  1103 1491 1492 1
  1104 1492 1494 1
  1105 1492 1493 1
  1106 1493 1498 1
  1107 1494 1495 1
  1108 1494 1496 1
  1109 1496 1497 1
  1110 1496 1498 1
  1111 1498 1499 1
  1112 1499 1506 1
  1113 1499 1500 am
  1114 1500 1501 2
  1115 1500 1502 1
  1116 1502 1503 2
  1117 1503 1505 2
  1118 1503 1504 2
  1119 1505 1506 2
  1120 1464 1487 1
  1121 1518 1521 1
  1122 1518 1519 1
  1123 1518 1520 1
  1124 1521 1522 1
  1125 1522 1523 1
  1126 1523 1525 1
  1127 1523 1524 1
  1128 1524 1529 1
  1129 1525 1527 1
  1130 1525 1526 1
  1131 1527 1528 1
  1132 1527 1529 1
  1133 1529 1530 1
  1134 1530 1531 am
  1135 1530 1537 1
  1136 1531 1532 2
  1137 1531 1533 am
  1138 1533 1534 am
  1139 1534 1536 1
  1140 1534 1535 2
  1141 1536 1537 2
  1142 1495 1518 1
  1143 1548 1549 1
  1144 1548 1550 1
  1145 1548 1551 1
  1146 1551 1552 1
  1147 1552 1553 1
  1148 1553 1555 1
  1149 1553 1554 1
  1150 1554 1559 1
  1151 1555 1557 1
  1152 1555 1556 1
  1153 1557 1559 1
  1154 1557 1558 1
  1155 1559 1560 1
  1156 1560 1570 ar
  1157 1560 1561 ar
  1158 1561 1562 ar
  1159 1562 1563 ar
  1160 1563 1570 ar
  1161 1563 1564 1
  1162 1564 1565 2
  1163 1564 1566 am
  1164 1566 1567 1
  1165 1567 1568 2
  1166 1567 1569 2
  1167 1569 1570 1
  1168 1526 1548 1
  1169 1582 1584 1
  1170 1582 1583 1
  1171 1582 1585 1
  1172 1585 1586 1
  1173 1586 1587 1
  1174 1587 1589 1
  1175 1587 1588 1
  1176 1588 1593 1
  1177 1589 1591 1
  1178 1589 1590 1
  1179 1591 1592 1
  1180 1591 1593 1
  1181 1593 1594 1
  1182 1594 1595 ar
  1183 1594 1603 ar
  1184 1595 1596 ar
  1185 1596 1597 ar
  1186 1597 1603 ar
  1187 1597 1598 ar
  1188 1598 1599 1
  1189 1598 1600 ar
  1190 1600 1601 ar
  1191 1601 1602 ar
  1192 1602 1603 ar
  1193 1556 1582 1
  1194 1615 1618 1
  1195 1615 1616 1
  1196 1615 1617 1
  1197 1618 1619 1
  1198 1619 1620 1
  1199 1620 1622 1
  1200 1620 1621 1
  1201 1621 1626 1
  1202 1622 1624 1
  1203 1622 1623 1
  1204 1624 1625 1
  1205 1624 1626 1
  1206 1626 1627 1
  1207 1627 1628 am
  1208 1627 1634 1
  1209 1628 1629 2
  1210 1628 1630 am
  1211 1630 1631 am
  1212 1631 1633 1
  1213 1631 1632 2
  1214 1633 1634 2
  1215 1590 1615 1
  1216 1645 1648 1
  1217 1645 1647 1
  1218 1645 1646 1
  1219 1648 1649 1
  1220 1649 1650 1
  1221 1650 1652 1
  1222 1650 1651 1
  1223 1651 1656 1
  1224 1652 1653 1
  1225 1652 1654 1
  1226 1654 1655 1
  1227 1654 1656 1
  1228 1656 1657 1
  1229 1657 1664 1
  1230 1657 1658 am
  1231 1658 1659 2
  1232 1658 1660 1
  1233 1660 1661 2
  1234 1661 1663 2
  1235 1661 1662 2
  1236 1663 1664 2
  1237 1623 1645 1
  1238 1676 1679 1
  1239 1676 1677 1
  1240 1676 1678 1
  1241 1679 1680 1
  1242 1680 1681 1
  1243 1681 1683 1
  1244 1681 1682 1
  1245 1682 1687 1
  1246 1683 1685 1
  1247 1683 1684 1
  1248 1685 1686 1
  1249 1685 1687 1
  1250 1687 1688 1
  1251 1688 1689 am
  1252 1688 1695 1
  1253 1689 1690 2
  1254 1689 1691 am
  1255 1691 1692 am
  1256 1692 1694 1
  1257 1692 1693 2
  1258 1694 1695 2
  1259 1653 1676 1
  1260 1706 1707 1
  1261 1706 1708 1
  1262 1706 1709 1
  1263 1709 1710 1
  1264 1710 1711 1
  1265 1711 1713 1
  1266 1711 1712 1
  1267 1712 1717 1
  1268 1713 1715 1
  1269 1713 1714 1
  1270 1715 1717 1
  1271 1715 1716 1
  1272 1717 1718 1
  1273 1718 1728 ar
  1274 1718 1719 ar
  1275 1719 1720 ar
  1276 1720 1721 ar
  1277 1721 1728 ar
  1278 1721 1722 1
  1279 1722 1723 2
  1280 1722 1724 am
  1281 1724 1725 1
  1282 1725 1726 2
  1283 1725 1727 2
  1284 1727 1728 1
  1285 1684 1706 1
  1286 1740 1741 1
  1287 1740 1742 1
  1288 1740 1743 1
  1289 1743 1744 1
  1290 1744 1745 1
  1291 1745 1747 1
  1292 1745 1746 1
  1293 1746 1751 1
  1294 1747 1749 1
  1295 1747 1748 1
  1296 1749 1751 1
  1297 1749 1750 1
  1298 1751 1752 1
  1299 1752 1762 ar
  1300 1752 1753 ar
  1301 1753 1754 ar
  1302 1754 1755 ar
  1303 1755 1762 ar
  1304 1755 1756 1
  1305 1756 1757 2
  1306 1756 1758 am
  1307 1758 1759 1
  1308 1759 1760 2
  1309 1759 1761 2
  1310 1761 1762 1
  1311 1714 1740 1
  1312 1774 1776 1
  1313 1774 1775 1
  1314 1774 1777 1
  1315 1777 1778 1
  1316 1778 1779 1
  1317 1779 1781 1
  1318 1779 1780 1
  1319 1780 1785 1
  1320 1781 1783 1
  1321 1781 1782 1
  1322 1783 1784 1
  1323 1783 1785 1
  1324 1785 1786 1
  1325 1786 1787 ar
  1326 1786 1795 ar
  1327 1787 1788 ar
  1328 1788 1789 ar
  1329 1789 1795 ar
  1330 1789 1790 ar
  1331 1790 1791 1
  1332 1790 1792 ar
  1333 1792 1793 ar
  1334 1793 1794 ar
  1335 1794 1795 ar
  1336 1748 1774 1
  1337 1807 1810 1
  1338 1807 1808 1
  1339 1807 1809 1
  1340 1810 1811 1
  1341 1811 1812 1
  1342 1812 1814 1
  1343 1812 1813 1
  1344 1813 1818 1
  1345 1814 1816 1
  1346 1814 1815 1
  1347 1816 1817 1
  1348 1816 1818 1
  1349 1818 1819 1
  1350 1819 1820 am
  1351 1819 1826 1
  1352 1820 1821 2
  1353 1820 1822 am
  1354 1822 1823 am
  1355 1823 1825 1
  1356 1823 1824 2
  1357 1825 1826 2
  1358 1782 1807 1
  1359 1837 1839 1
  1360 1837 1838 1
  1361 1837 1840 1
  1362 1840 1841 1
  1363 1841 1842 1
  1364 1842 1844 1
  1365 1842 1843 1
  1366 1843 1848 1
  1367 1844 1846 1
  1368 1844 1845 1
  1369 1846 1847 1
  1370 1846 1848 1
  1371 1848 1849 1
  1372 1849 1850 ar
  1373 1849 1858 ar
  1374 1850 1851 ar
  1375 1851 1852 ar
  1376 1852 1858 ar
  1377 1852 1853 ar
  1378 1853 1854 1
  1379 1853 1855 ar
  1380 1855 1856 ar
  1381 1856 1857 ar
  1382 1857 1858 ar
  1383 1815 1837 1
  1384 1870 1872 1
  1385 1870 1871 1
  1386 1870 1873 1
  1387 1873 1874 1
  1388 1874 1875 1
  1389 1875 1877 1
  1390 1875 1876 1
  1391 1876 1881 1
  1392 1877 1879 1
  1393 1877 1878 1
  1394 1879 1880 1
  1395 1879 1881 1
  1396 1881 1882 1
  1397 1882 1883 ar
  1398 1882 1891 ar
  1399 1883 1884 ar
  1400 1884 1885 ar
  1401 1885 1891 ar
  1402 1885 1886 ar
  1403 1886 1887 1
  1404 1886 1888 ar
  1405 1888 1889 ar
  1406 1889 1890 ar
  1407 1890 1891 ar
  1408 1845 1870 1
  1409 1903 1906 1
  1410 1903 1904 1
  1411 1903 1905 1
  1412 1906 1907 1
  1413 1907 1908 1
  1414 1908 1910 1
  1415 1908 1909 1
  1416 1909 1914 1
  1417 1910 1912 1
  1418 1910 1911 1
  1419 1912 1913 1
  1420 1912 1914 1
  1421 1914 1915 1
  1422 1915 1916 am
  1423 1915 1922 1
  1424 1916 1917 2
  1425 1916 1918 am
  1426 1918 1919 am
  1427 1919 1921 1
  1428 1919 1920 2
  1429 1921 1922 2
  1430 1878 1903 1
  1431 1933 1934 1
  1432 1933 1935 1
  1433 1933 1936 1
  1434 1936 1937 1
  1435 1937 1938 1
  1436 1938 1940 1
  1437 1938 1939 1
  1438 1939 1944 1
  1439 1940 1942 1
  1440 1940 1941 1
  1441 1942 1944 1
  1442 1942 1943 1
  1443 1944 1945 1
  1444 1945 1955 ar
  1445 1945 1946 ar
  1446 1946 1947 ar
  1447 1947 1948 ar
  1448 1948 1955 ar
  1449 1948 1949 1
  1450 1949 1950 2
  1451 1949 1951 am
  1452 1951 1952 1
  1453 1952 1953 2
  1454 1952 1954 2
  1455 1954 1955 1
  1456 1911 1933 1
  1457 1967 1970 1
  1458 1967 1969 1
  1459 1967 1968 1
  1460 1970 1971 1
  1461 1971 1972 1
  1462 1972 1974 1
  1463 1972 1973 1
  1464 1973 1978 1
  1465 1974 1975 1
  1466 1974 1976 1
  1467 1976 1977 1
  1468 1976 1978 1
  1469 1978 1979 1
  1470 1979 1986 1
  1471 1979 1980 am
  1472 1980 1981 2
  1473 1980 1982 1
  1474 1982 1983 2
  1475 1983 1985 2
  1476 1983 1984 2
  1477 1985 1986 2
  1478 1941 1967 1
  1479 1998 2001 1
  1480 1998 2000 1
  1481 1998 1999 1
  1482 2001 2002 1
  1483 2002 2003 1
  1484 2003 2005 1
  1485 2003 2004 1
  1486 2004 2009 1
  1487 2005 2006 1
  1488 2005 2007 1
  1489 2007 2008 1
  1490 2007 2009 1
  1491 2009 2010 1
  1492 2010 2017 1
  1493 2010 2011 am
  1494 2011 2012 2
  1495 2011 2013 1
  1496 2013 2014 2
  1497 2014 2016 2
  1498 2014 2015 2
  1499 2016 2017 2
  1500 1975 1998 1
  1501 2029 2031 1
  1502 2029 2030 1
  1503 2029 2032 1
  1504 2032 2033 1
  1505 2033 2034 1
  1506 2034 2036 1
  1507 2034 2035 1
  1508 2035 2040 1
  1509 2036 2038 1
  1510 2036 2037 1
  1511 2038 2039 1
  1512 2038 2040 1
  1513 2040 2041 1
  1514 2041 2042 ar
  1515 2041 2050 ar
  1516 2042 2043 ar
  1517 2043 2044 ar
  1518 2044 2050 ar
  1519 2044 2045 ar
  1520 2045 2046 1
  1521 2045 2047 ar
  1522 2047 2048 ar
  1523 2048 2049 ar
  1524 2049 2050 ar
  1525 2006 2029 1
  1526 2062 2063 1
  1527 2062 2064 1
  1528 2062 2065 1
  1529 2065 2066 1
  1530 2066 2067 1
  1531 2067 2069 1
  1532 2067 2068 1
  1533 2068 2073 1
  1534 2069 2071 1
  1535 2069 2070 1
  1536 2071 2073 1
  1537 2071 2072 1
  1538 2073 2074 1
  1539 2074 2084 ar
  1540 2074 2075 ar
  1541 2075 2076 ar
  1542 2076 2077 ar
  1543 2077 2084 ar
  1544 2077 2078 1
  1545 2078 2079 2
  1546 2078 2080 am
  1547 2080 2081 1
  1548 2081 2082 2
  1549 2081 2083 2
  1550 2083 2084 1
  1551 2037 2062 1
  1552 2096 2099 1
  1553 2096 2098 1
  1554 2096 2097 1
  1555 2099 2100 1
  1556 2100 2101 1
  1557 2101 2103 1
  1558 2101 2102 1
  1559 2102 2107 1
  1560 2103 2104 1
  1561 2103 2105 1
  1562 2105 2106 1
  1563 2105 2107 1
  1564 2107 2108 1
  1565 2108 2115 1
  1566 2108 2109 am
  1567 2109 2110 2
  1568 2109 2111 1
  1569 2111 2112 2
  1570 2112 2114 2
  1571 2112 2113 2
  1572 2114 2115 2
  1573 2070 2096 1
  1574 2127 2128 1
  1575 2127 2129 1
  1576 2127 2130 1
  1577 2130 2131 1
  1578 2131 2132 1
  1579 2132 2134 1
  1580 2132 2133 1
  1581 2133 2138 1
  1582 2134 2136 1
  1583 2134 2135 1
  1584 2136 2138 1
  1585 2136 2137 1
  1586 2138 2139 1
  1587 2139 2149 ar
  1588 2139 2140 ar
  1589 2140 2141 ar
  1590 2141 2142 ar
  1591 2142 2149 ar
  1592 2142 2143 1
  1593 2143 2144 2
  1594 2143 2145 am
  1595 2145 2146 1
  1596 2146 2147 2
  1597 2146 2148 2
  1598 2148 2149 1
  1599 2104 2127 1
  1600 2161 2164 1
  1601 2161 2162 1
  1602 2161 2163 1
  1603 2164 2165 1
  1604 2165 2166 1
  1605 2166 2168 1
  1606 2166 2167 1
  1607 2167 2172 1
  1608 2168 2170 1
  1609 2168 2169 1
  1610 2170 2171 1
  1611 2170 2172 1
  1612 2172 2173 1
  1613 2173 2174 am
  1614 2173 2180 1
  1615 2174 2175 2
  1616 2174 2176 am
  1617 2176 2177 am
  1618 2177 2179 1
  1619 2177 2178 2
  1620 2179 2180 2
  1621 2135 2161 1
  1622 2191 2193 1
  1623 2191 2192 1
  1624 2191 2194 1
  1625 2194 2195 1
  1626 2195 2196 1
  1627 2196 2198 1
  1628 2196 2197 1
  1629 2197 2202 1
  1630 2198 2200 1
  1631 2198 2199 1
  1632 2200 2201 1
  1633 2200 2202 1
  1634 2202 2203 1
  1635 2203 2204 ar
  1636 2203 2212 ar
  1637 2204 2205 ar
  1638 2205 2206 ar
  1639 2206 2212 ar
  1640 2206 2207 ar
  1641 2207 2208 1
  1642 2207 2209 ar
  1643 2209 2210 ar
  1644 2210 2211 ar
  1645 2211 2212 ar
  1646 2169 2191 1
  1647 2224 2225 1
  1648 2224 2226 1
  1649 2224 2227 1
  1650 2227 2228 1
  1651 2228 2229 1
  1652 2229 2231 1
  1653 2229 2230 1
  1654 2230 2235 1
  1655 2231 2233 1
  1656 2231 2232 1
  1657 2233 2235 1
  1658 2233 2234 1
  1659 2235 2236 1
  1660 2236 2246 ar
  1661 2236 2237 ar
  1662 2237 2238 ar
  1663 2238 2239 ar
  1664 2239 2246 ar
  1665 2239 2240 1
  1666 2240 2241 2
  1667 2240 2242 am
  1668 2242 2243 1
  1669 2243 2244 2
  1670 2243 2245 2
  1671 2245 2246 1
  1672 2199 2224 1
  1673 2258 2259 1
  1674 2258 2260 1
  1675 2258 2261 1
  1676 2261 2262 1
  1677 2262 2263 1
  1678 2263 2265 1
  1679 2263 2264 1
  1680 2264 2269 1
  1681 2265 2267 1
  1682 2265 2266 1
  1683 2267 2269 1
  1684 2267 2268 1
  1685 2269 2270 1
  1686 2270 2280 ar
  1687 2270 2271 ar
  1688 2271 2272 ar
  1689 2272 2273 ar
  1690 2273 2280 ar
  1691 2273 2274 1
  1692 2274 2275 2
  1693 2274 2276 am
  1694 2276 2277 1
  1695 2277 2278 2
  1696 2277 2279 2
  1697 2279 2280 1
  1698 2232 2258 1
  1699 2292 2293 1
  1700 2292 2294 1
  1701 2292 2295 1
  1702 2295 2296 1
  1703 2296 2297 1
  1704 2297 2299 1
  1705 2297 2298 1
  1706 2298 2303 1
  1707 2299 2301 1
  1708 2299 2300 1
  1709 2301 2303 1
  1710 2301 2302 1
  1711 2303 2304 1
  1712 2304 2314 ar
  1713 2304 2305 ar
  1714 2305 2306 ar
  1715 2306 2307 ar
  1716 2307 2314 ar
  1717 2307 2308 1
  1718 2308 2309 2
  1719 2308 2310 am
  1720 2310 2311 1
  1721 2311 2312 2
  1722 2311 2313 2
  1723 2313 2314 1
  1724 2266 2292 1
  1725 2326 2328 1
  1726 2326 2327 1
  1727 2326 2329 1
  1728 2329 2330 1
  1729 2330 2331 1
  1730 2331 2333 1
  1731 2331 2332 1
  1732 2332 2337 1
  1733 2333 2335 1
  1734 2333 2334 1
  1735 2335 2336 1
  1736 2335 2337 1
  1737 2337 2338 1
  1738 2338 2339 ar
  1739 2338 2347 ar
  1740 2339 2340 ar
  1741 2340 2341 ar
  1742 2341 2347 ar
  1743 2341 2342 ar
  1744 2342 2343 1
  1745 2342 2344 ar
  1746 2344 2345 ar
  1747 2345 2346 ar
  1748 2346 2347 ar
  1749 2300 2326 1
  1750 2359 2361 1
  1751 2359 2360 1
  1752 2359 2362 1
  1753 2362 2363 1
  1754 2363 2364 1
  1755 2364 2366 1
  1756 2364 2365 1
  1757 2365 2370 1
  1758 2366 2368 1
  1759 2366 2367 1
  1760 2368 2369 1
  1761 2368 2370 1
  1762 2370 2371 1
  1763 2371 2372 ar
  1764 2371 2380 ar
  1765 2372 2373 ar
  1766 2373 2374 ar
  1767 2374 2380 ar
  1768 2374 2375 ar
  1769 2375 2376 1
  1770 2375 2377 ar
  1771 2377 2378 ar
  1772 2378 2379 ar
  1773 2379 2380 ar
  1774 2334 2359 1
  1775 2392 2393 1
  1776 2392 2394 1
  1777 2392 2395 1
  1778 2395 2396 1
  1779 2396 2397 1
  1780 2397 2399 1
  1781 2397 2398 1
  1782 2398 2403 1
  1783 2399 2401 1
  1784 2399 2400 1
  1785 2401 2403 1
  1786 2401 2402 1
  1787 2403 2404 1
  1788 2404 2414 ar
  1789 2404 2405 ar
  1790 2405 2406 ar
  1791 2406 2407 ar
  1792 2407 2414 ar
  1793 2407 2408 1
  1794 2408 2409 2
  1795 2408 2410 am
  1796 2410 2411 1
  1797 2411 2412 2
  1798 2411 2413 2
  1799 2413 2414 1
  1800 2367 2392 1
  1801 2426 2429 1
  1802 2426 2427 1
  1803 2426 2428 1
  1804 2429 2430 1
  1805 2430 2431 1
  1806 2431 2433 1
  1807 2431 2432 1
  1808 2432 2437 1
  1809 2433 2435 1
  1810 2433 2434 1
  1811 2435 2436 1
  1812 2435 2437 1
  1813 2437 2438 1
  1814 2438 2439 am
  1815 2438 2445 1
  1816 2439 2440 2
  1817 2439 2441 am
  1818 2441 2442 am
  1819 2442 2444 1
  1820 2442 2443 2
  1821 2444 2445 2
  1822 2400 2426 1
  1823 2459 2460 1
  1824 2460 2461 1
  1825 2461 2463 1
  1826 2461 2462 1
  1827 2462 2467 1
  1828 2463 2465 1
  1829 2463 2464 1
  1830 2465 2466 1
  1831 2465 2467 1
  1832 2467 2468 1
  1833 2468 2475 1
  1834 2468 2469 am
  1835 2469 2471 am
  1836 2469 2470 2
  1837 2471 2472 am
  1838 2472 2474 1
  1839 2472 2473 2
  1840 2474 2475 2
  1841 2456 2457 1
  1842 2456 2458 1
  1843 2456 2459 1
  1844 2434 2456 1
  1845 2487 2488 1
  1846 2488 2489 1
  1847 2489 2491 1
  1848 2489 2490 1
  1849 2490 2495 1
  1850 2491 2493 1
  1851 2491 2492 1
  1852 2493 2495 1
  1853 2493 2494 1
  1854 2495 2496 1
  1855 2496 2506 ar
  1856 2496 2497 ar
  1857 2497 2498 ar
  1858 2498 2499 ar
  1859 2499 2506 ar
  1860 2499 2500 1
  1861 2500 2501 2
  1862 2500 2502 am
  1863 2502 2503 1
  1864 2503 2504 2
  1865 2503 2505 2
  1866 2505 2506 1
  1867 2519 2521 1
  1868 2519 2520 1
  1869 2519 2522 1
  1870 2522 2523 1
  1871 2523 2524 1
  1872 2524 2526 1
  1873 2524 2525 1
  1874 2525 2530 1
  1875 2526 2528 1
  1876 2526 2527 1
  1877 2528 2529 1
  1878 2528 2530 1
  1879 2530 2531 1
  1880 2531 2532 ar
  1881 2531 2540 ar
  1882 2532 2533 ar
  1883 2533 2534 ar
  1884 2534 2540 ar
  1885 2534 2535 ar
  1886 2535 2536 1
  1887 2535 2537 ar
  1888 2537 2538 ar
  1889 2538 2539 ar
  1890 2539 2540 ar
  1891 2519 2492 1
  1892 2552 2555 1
  1893 2552 2554 1
  1894 2552 2553 1
  1895 2555 2556 1
  1896 2556 2557 1
  1897 2557 2559 1
  1898 2557 2558 1
  1899 2558 2563 1
  1900 2559 2560 1
  1901 2559 2561 1
  1902 2561 2562 1
  1903 2561 2563 1
  1904 2563 2564 1
  1905 2564 2571 1
  1906 2564 2565 am
  1907 2565 2566 2
  1908 2565 2567 1
  1909 2567 2568 2
  1910 2568 2570 2
  1911 2568 2569 2
  1912 2570 2571 2
  1913 2527 2552 1
  1914 2583 2586 1
  1915 2583 2584 1
  1916 2583 2585 1
  1917 2586 2587 1
  1918 2587 2588 1
  1919 2588 2590 1
  1920 2588 2589 1
  1921 2589 2594 1
  1922 2590 2592 1
  1923 2590 2591 1
  1924 2592 2593 1
  1925 2592 2594 1
  1926 2594 2595 1
  1927 2595 2596 am
  1928 2595 2602 1
  1929 2596 2597 2
  1930 2596 2598 am
  1931 2598 2599 am
  1932 2599 2601 1
  1933 2599 2600 2
  1934 2601 2602 2
  1935 2560 2583 1
  1936 2613 2616 1
  1937 2613 2615 1
  1938 2613 2614 1
  1939 2616 2617 1
  1940 2617 2618 1
  1941 2618 2620 1
  1942 2618 2619 1
  1943 2619 2624 1
  1944 2620 2621 1
  1945 2620 2622 1
  1946 2622 2623 1
  1947 2622 2624 1
  1948 2624 2625 1
  1949 2625 2632 1
  1950 2625 2626 am
  1951 2626 2627 2
  1952 2626 2628 1
  1953 2628 2629 2
  1954 2629 2631 2
  1955 2629 2630 2
  1956 2631 2632 2
  1957 2591 2613 1
  1958 2644 2645 1
  1959 2644 2646 1
  1960 2644 2647 1
  1961 2647 2648 1
  1962 2648 2649 1
  1963 2649 2651 1
  1964 2649 2650 1
  1965 2650 2655 1
  1966 2651 2653 1
  1967 2651 2652 1
  1968 2653 2655 1
  1969 2653 2654 1
  1970 2655 2656 1
  1971 2656 2666 ar
  1972 2656 2657 ar
  1973 2657 2658 ar
  1974 2658 2659 ar
  1975 2659 2666 ar
  1976 2659 2660 1
  1977 2660 2661 2
  1978 2660 2662 am
  1979 2662 2663 1
  1980 2663 2664 2
  1981 2663 2665 2
  1982 2665 2666 1
  1983 2621 2644 1
  1984 2678 2679 1
  1985 2678 2680 1
  1986 2678 2681 1
  1987 2681 2682 1
  1988 2682 2683 1
  1989 2683 2685 1
  1990 2683 2684 1
  1991 2684 2689 1
  1992 2685 2687 1
  1993 2685 2686 1
  1994 2687 2689 1
  1995 2687 2688 1
  1996 2689 2690 1
  1997 2690 2700 ar
  1998 2690 2691 ar
  1999 2691 2692 ar
  2000 2692 2693 ar
  2001 2693 2700 ar
  2002 2693 2694 1
  2003 2694 2695 2
  2004 2694 2696 am
  2005 2696 2697 1
  2006 2697 2698 2
  2007 2697 2699 2
  2008 2699 2700 1
  2009 2652 2678 1
  2010 2712 2713 1
  2011 2712 2714 1
  2012 2712 2715 1
  2013 2715 2716 1
  2014 2716 2717 1
  2015 2717 2719 1
  2016 2717 2718 1
  2017 2718 2723 1
  2018 2719 2721 1
  2019 2719 2720 1
  2020 2721 2723 1
  2021 2721 2722 1
  2022 2723 2724 1
  2023 2724 2734 ar
  2024 2724 2725 ar
  2025 2725 2726 ar
  2026 2726 2727 ar
  2027 2727 2734 ar
  2028 2727 2728 1
  2029 2728 2729 2
  2030 2728 2730 am
  2031 2730 2731 1
  2032 2731 2732 2
  2033 2731 2733 2
  2034 2733 2734 1
  2035 2686 2712 1
  2036 2746 2747 1
  2037 2746 2748 1
  2038 2746 2749 1
  2039 2749 2750 1
  2040 2750 2751 1
  2041 2751 2753 1
  2042 2751 2752 1
  2043 2752 2757 1
  2044 2753 2755 1
  2045 2753 2754 1
  2046 2755 2757 1
  2047 2755 2756 1
  2048 2757 2758 1
  2049 2758 2768 ar
  2050 2758 2759 ar
  2051 2759 2760 ar
  2052 2760 2761 ar
  2053 2761 2768 ar
  2054 2761 2762 1
  2055 2762 2763 2
  2056 2762 2764 am
  2057 2764 2765 1
  2058 2765 2766 2
  2059 2765 2767 2
  2060 2767 2768 1
  2061 2720 2746 1
  2062 2780 2783 1
  2063 2780 2781 1
  2064 2780 2782 1
  2065 2783 2784 1
  2066 2784 2785 1
  2067 2785 2787 1
  2068 2785 2786 1
  2069 2786 2791 1
  2070 2787 2789 1
  2071 2787 2788 1
  2072 2789 2790 1
  2073 2789 2791 1
  2074 2791 2792 1
  2075 2792 2793 am
  2076 2792 2799 1
  2077 2793 2794 2
  2078 2793 2795 am
  2079 2795 2796 am
  2080 2796 2798 1
  2081 2796 2797 2
  2082 2798 2799 2
  2083 2754 2780 1
  2084 2810 2811 1
  2085 2810 2812 1
  2086 2810 2813 1
  2087 2813 2814 1
  2088 2814 2815 1
  2089 2815 2817 1
  2090 2815 2816 1
  2091 2816 2821 1
  2092 2817 2819 1
  2093 2817 2818 1
  2094 2819 2821 1
  2095 2819 2820 1
  2096 2821 2822 1
  2097 2822 2832 ar
  2098 2822 2823 ar
  2099 2823 2824 ar
  2100 2824 2825 ar
  2101 2825 2832 ar
  2102 2825 2826 1
  2103 2826 2827 2
  2104 2826 2828 am
  2105 2828 2829 1
  2106 2829 2830 2
  2107 2829 2831 2
  2108 2831 2832 1
  2109 2788 2810 1
  2110 2844 2847 1
  2111 2844 2846 1
  2112 2844 2845 1
  2113 2847 2848 1
  2114 2848 2849 1
  2115 2849 2851 1
  2116 2849 2850 1
  2117 2850 2855 1
  2118 2851 2852 1
  2119 2851 2853 1
  2120 2853 2854 1
  2121 2853 2855 1
  2122 2855 2856 1
  2123 2856 2863 1
  2124 2856 2857 am
  2125 2857 2858 2
  2126 2857 2859 1
  2127 2859 2860 2
  2128 2860 2862 2
  2129 2860 2861 2
  2130 2862 2863 2
  2131 2818 2844 1
  2132 2875 2878 1
  2133 2875 2877 1
  2134 2875 2876 1
  2135 2878 2879 1
  2136 2879 2880 1
  2137 2880 2882 1
  2138 2880 2881 1
  2139 2881 2886 1
  2140 2882 2883 1
  2141 2882 2884 1
  2142 2884 2885 1
  2143 2884 2886 1
  2144 2886 2887 1
  2145 2887 2894 1
  2146 2887 2888 am
  2147 2888 2889 2
  2148 2888 2890 1
  2149 2890 2891 2
  2150 2891 2893 2
  2151 2891 2892 2
  2152 2893 2894 2
  2153 2852 2875 1
  2154 2906 2909 1
  2155 2906 2908 1
  2156 2906 2907 1
  2157 2909 2910 1
  2158 2910 2911 1
  2159 2911 2913 1
  2160 2911 2912 1
  2161 2912 2917 1
  2162 2913 2914 1
  2163 2913 2915 1
  2164 2915 2916 1
  2165 2915 2917 1
  2166 2917 2918 1
  2167 2918 2925 1
  2168 2918 2919 am
  2169 2919 2920 2
  2170 2919 2921 1
  2171 2921 2922 2
  2172 2922 2924 2
  2173 2922 2923 2
  2174 2924 2925 2
  2175 2883 2906 1
  2176 2937 2940 1
  2177 2937 2938 1
  2178 2937 2939 1
  2179 2940 2941 1
  2180 2941 2942 1
  2181 2942 2944 1
  2182 2942 2943 1
  2183 2943 2948 1
  2184 2944 2946 1
  2185 2944 2945 1
  2186 2946 2947 1
  2187 2946 2948 1
  2188 2948 2949 1
  2189 2949 2950 am
  2190 2949 2956 1
  2191 2950 2951 2
  2192 2950 2952 am
  2193 2952 2953 am
  2194 2953 2955 1
  2195 2953 2954 2
  2196 2955 2956 2
  2197 2914 2937 1
  2198 2967 2970 1
  2199 2967 2968 1
  2200 2967 2969 1
  2201 2970 2971 1
  2202 2971 2972 1
  2203 2972 2974 1
  2204 2972 2973 1
  2205 2973 2978 1
  2206 2974 2976 1
  2207 2974 2975 1
  2208 2976 2977 1
  2209 2976 2978 1
  2210 2978 2979 1
  2211 2979 2980 am
  2212 2979 2986 1
  2213 2980 2981 2
  2214 2980 2982 am
  2215 2982 2983 am
  2216 2983 2985 1
  2217 2983 2984 2
  2218 2985 2986 2
  2219 2945 2967 1
  2220 2997 3000 1
  2221 2997 2999 1
  2222 2997 2998 1
  2223 3000 3001 1
  2224 3001 3002 1
  2225 3002 3004 1
  2226 3002 3003 1
  2227 3003 3008 1
  2228 3004 3005 1
  2229 3004 3006 1
  2230 3006 3007 1
  2231 3006 3008 1
  2232 3008 3009 1
  2233 3009 3016 1
  2234 3009 3010 am
  2235 3010 3011 2
  2236 3010 3012 1
  2237 3012 3013 2
  2238 3013 3015 2
  2239 3013 3014 2
  2240 3015 3016 2
  2241 2975 2997 1
  2242 3028 3031 1
  2243 3028 3029 1
  2244 3028 3030 1
  2245 3031 3032 1
  2246 3032 3033 1
  2247 3033 3035 1
  2248 3033 3034 1
  2249 3034 3039 1
  2250 3035 3037 1
  2251 3035 3036 1
  2252 3037 3038 1
  2253 3037 3039 1
  2254 3039 3040 1
  2255 3040 3041 am
  2256 3040 3047 1
  2257 3041 3042 2
  2258 3041 3043 am
  2259 3043 3044 am
  2260 3044 3046 1
  2261 3044 3045 2
  2262 3046 3047 2
  2263 3005 3028 1
  2264 3058 3059 1
  2265 3058 3060 1
  2266 3058 3061 1
  2267 3061 3062 1
  2268 3062 3063 1
  2269 3063 3065 1
  2270 3063 3064 1
  2271 3064 3069 1
  2272 3065 3067 1
  2273 3065 3066 1
  2274 3067 3069 1
  2275 3067 3068 1
  2276 3069 3070 1
  2277 3070 3080 ar
  2278 3070 3071 ar
  2279 3071 3072 ar
  2280 3072 3073 ar
  2281 3073 3080 ar
  2282 3073 3074 1
  2283 3074 3075 2
  2284 3074 3076 am
  2285 3076 3077 1
  2286 3077 3078 2
  2287 3077 3079 2
  2288 3079 3080 1
  2289 3036 3058 1
  2290 3092 3095 1
  2291 3092 3094 1
  2292 3092 3093 1
  2293 3095 3096 1
  2294 3096 3097 1
  2295 3097 3099 1
  2296 3097 3098 1
  2297 3098 3103 1
  2298 3099 3100 1
  2299 3099 3101 1
  2300 3101 3102 1
  2301 3101 3103 1
  2302 3103 3104 1
  2303 3104 3111 1
  2304 3104 3105 am
  2305 3105 3106 2
  2306 3105 3107 1
  2307 3107 3108 2
  2308 3108 3110 2
  2309 3108 3109 2
  2310 3110 3111 2
  2311 3066 3092 1
  2312 3123 3124 1
  2313 3123 3125 1
  2314 3123 3126 1
  2315 3126 3127 1
  2316 3127 3128 1
  2317 3128 3130 1
  2318 3128 3129 1
  2319 3129 3134 1
  2320 3130 3132 1
  2321 3130 3131 1
  2322 3132 3134 1
  2323 3132 3133 1
  2324 3134 3135 1
  2325 3135 3145 ar
  2326 3135 3136 ar
  2327 3136 3137 ar
  2328 3137 3138 ar
  2329 3138 3145 ar
  2330 3138 3139 1
  2331 3139 3140 2
  2332 3139 3141 am
  2333 3141 3142 1
  2334 3142 3143 2
  2335 3142 3144 2
  2336 3144 3145 1
  2337 3100 3123 1
  2338 3157 3160 1
  2339 3157 3158 1
  2340 3157 3159 1
  2341 3160 3161 1
  2342 3161 3162 1
  2343 3162 3164 1
  2344 3162 3163 1
  2345 3163 3168 1
  2346 3164 3166 1
  2347 3164 3165 1
  2348 3166 3167 1
  2349 3166 3168 1
  2350 3168 3169 1
  2351 3169 3170 am
  2352 3169 3176 1
  2353 3170 3171 2
  2354 3170 3172 am
  2355 3172 3173 am
  2356 3173 3175 1
  2357 3173 3174 2
  2358 3175 3176 2
  2359 3131 3157 1
  2360 3187 3188 1
  2361 3187 3189 1
  2362 3187 3190 1
  2363 3190 3191 1
  2364 3191 3192 1
  2365 3192 3194 1
  2366 3192 3193 1
  2367 3193 3198 1
  2368 3194 3196 1
  2369 3194 3195 1
  2370 3196 3198 1
  2371 3196 3197 1
  2372 3198 3199 1
  2373 3199 3209 ar
  2374 3199 3200 ar
  2375 3200 3201 ar
  2376 3201 3202 ar
  2377 3202 3209 ar
  2378 3202 3203 1
  2379 3203 3204 2
  2380 3203 3205 am
  2381 3205 3206 1
  2382 3206 3207 2
  2383 3206 3208 2
  2384 3208 3209 1
  2385 3165 3187 1
  2386 3221 3223 1
  2387 3221 3222 1
  2388 3221 3224 1
  2389 3224 3225 1
  2390 3225 3226 1
  2391 3226 3228 1
  2392 3226 3227 1
  2393 3227 3232 1
  2394 3228 3230 1
  2395 3228 3229 1
  2396 3230 3231 1
  2397 3230 3232 1
  2398 3232 3233 1
  2399 3233 3234 ar
  2400 3233 3242 ar
  2401 3234 3235 ar
  2402 3235 3236 ar
  2403 3236 3242 ar
  2404 3236 3237 ar
  2405 3237 3238 1
  2406 3237 3239 ar
  2407 3239 3240 ar
  2408 3240 3241 ar
  2409 3241 3242 ar
  2410 3195 3221 1
  2411 3254 3256 1
  2412 3254 3255 1
  2413 3254 3257 1
  2414 3257 3258 1
  2415 3258 3259 1
  2416 3259 3261 1
  2417 3259 3260 1
  2418 3260 3265 1
  2419 3261 3263 1
  2420 3261 3262 1
  2421 3263 3264 1
  2422 3263 3265 1
  2423 3265 3266 1
  2424 3266 3267 ar
  2425 3266 3275 ar
  2426 3267 3268 ar
  2427 3268 3269 ar
  2428 3269 3275 ar
  2429 3269 3270 ar
  2430 3270 3271 1
  2431 3270 3272 ar
  2432 3272 3273 ar
  2433 3273 3274 ar
  2434 3274 3275 ar
  2435 3229 3254 1
  2436 3287 3288 1
  2437 3287 3289 1
  2438 3287 3290 1
  2439 3290 3291 1
  2440 3291 3292 1
  2441 3292 3294 1
  2442 3292 3293 1
  2443 3293 3298 1
  2444 3294 3296 1
  2445 3294 3295 1
  2446 3296 3298 1
  2447 3296 3297 1
  2448 3298 3299 1
  2449 3299 3309 ar
  2450 3299 3300 ar
  2451 3300 3301 ar
  2452 3301 3302 ar
  2453 3302 3309 ar
  2454 3302 3303 1
  2455 3303 3304 2
  2456 3303 3305 am
  2457 3305 3306 1
  2458 3306 3307 2
  2459 3306 3308 2
  2460 3308 3309 1
  2461 3262 3287 1
  2462 3321 3322 1
  2463 3321 3323 1
  2464 3321 3324 1
  2465 3324 3325 1
  2466 3325 3326 1
  2467 3326 3328 1
  2468 3326 3327 1
  2469 3327 3332 1
  2470 3328 3330 1
  2471 3328 3329 1
  2472 3330 3332 1
  2473 3330 3331 1
  2474 3332 3333 1
  2475 3333 3343 ar
  2476 3333 3334 ar
  2477 3334 3335 ar
  2478 3335 3336 ar
  2479 3336 3343 ar
  2480 3336 3337 1
  2481 3337 3338 2
  2482 3337 3339 am
  2483 3339 3340 1
  2484 3340 3341 2
  2485 3340 3342 2
  2486 3342 3343 1
  2487 3295 3321 1
  2488 3355 3358 1
  2489 3355 3357 1
  2490 3355 3356 1
  2491 3358 3359 1
  2492 3359 3360 1
  2493 3360 3362 1
  2494 3360 3361 1
  2495 3361 3366 1
  2496 3362 3363 1
  2497 3362 3364 1
  2498 3364 3365 1
  2499 3364 3366 1
  2500 3366 3367 1
  2501 3367 3374 1
  2502 3367 3368 am
  2503 3368 3369 2
  2504 3368 3370 1
  2505 3370 3371 2
  2506 3371 3373 2
  2507 3371 3372 2
  2508 3373 3374 2
  2509 3329 3355 1
  2510 3386 3389 1
  2511 3386 3387 1
  2512 3386 3388 1
  2513 3389 3390 1
  2514 3390 3391 1
  2515 3391 3393 1
  2516 3391 3392 1
  2517 3392 3397 1
  2518 3393 3395 1
  2519 3393 3394 1
  2520 3395 3396 1
  2521 3395 3397 1
  2522 3397 3398 1
  2523 3398 3399 am
  2524 3398 3405 1
  2525 3399 3400 2
  2526 3399 3401 am
  2527 3401 3402 am
  2528 3402 3404 1
  2529 3402 3403 2
  2530 3404 3405 2
  2531 3363 3386 1
  2532 3416 3417 1
  2533 3416 3418 1
  2534 3416 3419 1
  2535 3419 3420 1
  2536 3420 3421 1
  2537 3421 3423 1
  2538 3421 3422 1
  2539 3422 3427 1
  2540 3423 3425 1
  2541 3423 3424 1
  2542 3425 3427 1
  2543 3425 3426 1
  2544 3427 3428 1
  2545 3428 3438 ar
  2546 3428 3429 ar
  2547 3429 3430 ar
  2548 3430 3431 ar
  2549 3431 3438 ar
  2550 3431 3432 1
  2551 3432 3433 2
  2552 3432 3434 am
  2553 3434 3435 1
  2554 3435 3436 2
  2555 3435 3437 2
  2556 3437 3438 1
  2557 3394 3416 1
  2558 3450 3452 1
  2559 3450 3451 1
  2560 3450 3453 1
  2561 3453 3454 1
  2562 3454 3455 1
  2563 3455 3457 1
  2564 3455 3456 1
  2565 3456 3461 1
  2566 3457 3459 1
  2567 3457 3458 1
  2568 3459 3460 1
  2569 3459 3461 1
  2570 3461 3462 1
  2571 3462 3463 ar
  2572 3462 3471 ar
  2573 3463 3464 ar
  2574 3464 3465 ar
  2575 3465 3471 ar
  2576 3465 3466 ar
  2577 3466 3467 1
  2578 3466 3468 ar
  2579 3468 3469 ar
  2580 3469 3470 ar
  2581 3470 3471 ar
  2582 3424 3450 1
  2583 3483 3484 1
  2584 3483 3485 1
  2585 3483 3486 1
  2586 3486 3487 1
  2587 3487 3488 1
  2588 3488 3490 1
  2589 3488 3489 1
  2590 3489 3494 1
  2591 3490 3492 1
  2592 3490 3491 1
  2593 3492 3494 1
  2594 3492 3493 1
  2595 3494 3495 1
  2596 3495 3505 ar
  2597 3495 3496 ar
  2598 3496 3497 ar
  2599 3497 3498 ar
  2600 3498 3505 ar
  2601 3498 3499 1
  2602 3499 3500 2
  2603 3499 3501 am
  2604 3501 3502 1
  2605 3502 3503 2
  2606 3502 3504 2
  2607 3504 3505 1
  2608 3458 3483 1
  2609 3517 3519 1
  2610 3517 3518 1
  2611 3517 3520 1
  2612 3520 3521 1
  2613 3521 3522 1
  2614 3522 3524 1
  2615 3522 3523 1
  2616 3523 3528 1
  2617 3524 3526 1
  2618 3524 3525 1
  2619 3526 3527 1
  2620 3526 3528 1
  2621 3528 3529 1
  2622 3529 3530 ar
  2623 3529 3538 ar
  2624 3530 3531 ar
  2625 3531 3532 ar
  2626 3532 3538 ar
  2627 3532 3533 ar
  2628 3533 3534 1
  2629 3533 3535 ar
  2630 3535 3536 ar
  2631 3536 3537 ar
  2632 3537 3538 ar
  2633 3491 3517 1
  2634 3550 3552 1
  2635 3550 3551 1
  2636 3550 3553 1
  2637 3553 3554 1
  2638 3554 3555 1
  2639 3555 3557 1
  2640 3555 3556 1
  2641 3556 3561 1
  2642 3557 3559 1
  2643 3557 3558 1
  2644 3559 3560 1
  2645 3559 3561 1
  2646 3561 3562 1
  2647 3562 3563 ar
  2648 3562 3571 ar
  2649 3563 3564 ar
  2650 3564 3565 ar
  2651 3565 3571 ar
  2652 3565 3566 ar
  2653 3566 3567 1
  2654 3566 3568 ar
  2655 3568 3569 ar
  2656 3569 3570 ar
  2657 3570 3571 ar
  2658 3525 3550 1
  2659 3583 3585 1
  2660 3583 3584 1
  2661 3583 3586 1
  2662 3586 3587 1
  2663 3587 3588 1
  2664 3588 3590 1
  2665 3588 3589 1
  2666 3589 3594 1
  2667 3590 3592 1
  2668 3590 3591 1
  2669 3592 3593 1
  2670 3592 3594 1
  2671 3594 3595 1
  2672 3595 3596 ar
  2673 3595 3604 ar
  2674 3596 3597 ar
  2675 3597 3598 ar
  2676 3598 3604 ar
  2677 3598 3599 ar
  2678 3599 3600 1
  2679 3599 3601 ar
  2680 3601 3602 ar
  2681 3602 3603 ar
  2682 3603 3604 ar
  2683 3558 3583 1
  2684 3616 3619 1
  2685 3616 3617 1
  2686 3616 3618 1
  2687 3619 3620 1
  2688 3620 3621 1
  2689 3621 3623 1
  2690 3621 3622 1
  2691 3622 3627 1
  2692 3623 3625 1
  2693 3623 3624 1
  2694 3625 3626 1
  2695 3625 3627 1
  2696 3627 3628 1
  2697 3628 3629 am
  2698 3628 3635 1
  2699 3629 3630 2
  2700 3629 3631 am
  2701 3631 3632 am
  2702 3632 3634 1
  2703 3632 3633 2
  2704 3634 3635 2
  2705 3591 3616 1
  2706 3646 3648 1
  2707 3646 3647 1
  2708 3646 3649 1
  2709 3649 3650 1
  2710 3650 3651 1
  2711 3651 3653 1
  2712 3651 3652 1
  2713 3652 3657 1
  2714 3653 3655 1
  2715 3653 3654 1
  2716 3655 3656 1
  2717 3655 3657 1
  2718 3657 3658 1
  2719 3658 3659 ar
  2720 3658 3667 ar
  2721 3659 3660 ar
  2722 3660 3661 ar
  2723 3661 3667 ar
  2724 3661 3662 ar
  2725 3662 3663 1
  2726 3662 3664 ar
  2727 3664 3665 ar
  2728 3665 3666 ar
  2729 3666 3667 ar
  2730 3624 3646 1
  2731 3679 3682 1
  2732 3679 3681 1
  2733 3679 3680 1
  2734 3682 3683 1
  2735 3683 3684 1
  2736 3684 3686 1
  2737 3684 3685 1
  2738 3685 3690 1
  2739 3686 3687 1
  2740 3686 3688 1
  2741 3688 3689 1
  2742 3688 3690 1
  2743 3690 3691 1
  2744 3691 3698 1
  2745 3691 3692 am
  2746 3692 3693 2
  2747 3692 3694 1
  2748 3694 3695 2
  2749 3695 3697 2
  2750 3695 3696 2
  2751 3697 3698 2
  2752 3654 3679 1
  2753 3710 3713 1
  2754 3710 3712 1
  2755 3710 3711 1
  2756 3713 3714 1
  2757 3714 3715 1
  2758 3715 3717 1
  2759 3715 3716 1
  2760 3716 3721 1
  2761 3717 3718 1
  2762 3717 3719 1
  2763 3719 3720 1
  2764 3719 3721 1
  2765 3721 3722 1
  2766 3722 3729 1
  2767 3722 3723 am
  2768 3723 3724 2
  2769 3723 3725 1
  2770 3725 3726 2
  2771 3726 3728 2
  2772 3726 3727 2
  2773 3728 3729 2
  2774 3687 3710 1
  2775 3741 3744 1
  2776 3741 3743 1
  2777 3741 3742 1
  2778 3744 3745 1
  2779 3745 3746 1
  2780 3746 3748 1
  2781 3746 3747 1
  2782 3747 3752 1
  2783 3748 3749 1
  2784 3748 3750 1
  2785 3750 3751 1
  2786 3750 3752 1
  2787 3752 3753 1
  2788 3753 3760 1
  2789 3753 3754 am
  2790 3754 3755 2
  2791 3754 3756 1
  2792 3756 3757 2
  2793 3757 3759 2
  2794 3757 3758 2
  2795 3759 3760 2
  2796 3718 3741 1
  2797 3772 3773 1
  2798 3772 3774 1
  2799 3772 3775 1
  2800 3775 3776 1
  2801 3776 3777 1
  2802 3777 3779 1
  2803 3777 3778 1
  2804 3778 3783 1
  2805 3779 3781 1
  2806 3779 3780 1
  2807 3781 3783 1
  2808 3781 3782 1
  2809 3783 3784 1
  2810 3784 3794 ar
  2811 3784 3785 ar
  2812 3785 3786 ar
  2813 3786 3787 ar
  2814 3787 3794 ar
  2815 3787 3788 1
  2816 3788 3789 2
  2817 3788 3790 am
  2818 3790 3791 1
  2819 3791 3792 2
  2820 3791 3793 2
  2821 3793 3794 1
  2822 3749 3772 1
  2823 3806 3809 1
  2824 3806 3807 1
  2825 3806 3808 1
  2826 3809 3810 1
  2827 3810 3811 1
  2828 3811 3813 1
  2829 3811 3812 1
  2830 3812 3817 1
  2831 3813 3815 1
  2832 3813 3814 1
  2833 3815 3816 1
  2834 3815 3817 1
  2835 3817 3818 1
  2836 3818 3819 am
  2837 3818 3825 1
  2838 3819 3820 2
  2839 3819 3821 am
  2840 3821 3822 am
  2841 3822 3824 1
  2842 3822 3823 2
  2843 3824 3825 2
  2844 3780 3806 1
  2845 3836 3838 1
  2846 3836 3837 1
  2847 3836 3839 1
  2848 3839 3840 1
  2849 3840 3841 1
  2850 3841 3843 1
  2851 3841 3842 1
  2852 3842 3847 1
  2853 3843 3845 1
  2854 3843 3844 1
  2855 3845 3846 1
  2856 3845 3847 1
  2857 3847 3848 1
  2858 3848 3849 ar
  2859 3848 3857 ar
  2860 3849 3850 ar
  2861 3850 3851 ar
  2862 3851 3857 ar
  2863 3851 3852 ar
  2864 3852 3853 1
  2865 3852 3854 ar
  2866 3854 3855 ar
  2867 3855 3856 ar
  2868 3856 3857 ar
  2869 3814 3836 1
  2870 3869 3872 1
  2871 3869 3870 1
  2872 3869 3871 1
  2873 3872 3873 1
  2874 3873 3874 1
  2875 3874 3876 1
  2876 3874 3875 1
  2877 3875 3880 1
  2878 3876 3878 1
  2879 3876 3877 1
  2880 3878 3879 1
  2881 3878 3880 1
  2882 3844 3869 1
  2883 3889 3892 1
  2884 3889 3891 1
  2885 3889 3890 1
  2886 3892 3893 1
  2887 3893 3894 1
  2888 3894 3896 1
  2889 3894 3895 1
  2890 3895 3900 1
  2891 3896 3897 1
  2892 3896 3898 1
  2893 3898 3899 1
  2894 3898 3900 1
  2895 3877 3889 1
  2896 3909 3911 1
  2897 3909 3910 1
  2898 3909 3912 1
  2899 3912 3913 1
  2900 3913 3914 1
  2901 3914 3916 1
  2902 3914 3915 1
  2903 3915 3920 1
  2904 3916 3918 1
  2905 3916 3917 1
  2906 3918 3919 1
  2907 3918 3920 1
  2908 3920 3921 1
  2909 3921 3922 ar
  2910 3921 3930 ar
  2911 3922 3923 ar
  2912 3923 3924 ar
  2913 3924 3930 ar
  2914 3924 3925 ar
  2915 3925 3926 1
  2916 3925 3927 ar
  2917 3927 3928 ar
  2918 3928 3929 ar
  2919 3929 3930 ar
  2920 3897 3909 1
  2921 3942 3945 1
  2922 3942 3944 1
  2923 3942 3943 1
  2924 3945 3946 1
  2925 3946 3947 1
  2926 3947 3949 1
  2927 3947 3948 1
  2928 3948 3953 1
  2929 3949 3950 1
  2930 3949 3951 1
  2931 3951 3952 1
  2932 3951 3953 1
  2933 3953 3954 1
  2934 3954 3961 1
  2935 3954 3955 am
  2936 3955 3956 2
  2937 3955 3957 1
  2938 3957 3958 2
  2939 3958 3960 2
  2940 3958 3959 2
  2941 3960 3961 2
  2942 3917 3942 1
  2943 3973 3976 1
  2944 3973 3975 1
  2945 3973 3974 1
  2946 3976 3977 1
  2947 3977 3978 1
  2948 3978 3980 1
  2949 3978 3979 1
  2950 3979 3984 1
  2951 3980 3981 1
  2952 3980 3982 1
  2953 3982 3983 1
  2954 3982 3984 1
  2955 3984 3985 1
  2956 3985 3992 1
  2957 3985 3986 am
  2958 3986 3987 2
  2959 3986 3988 1
  2960 3988 3989 2
  2961 3989 3991 2
  2962 3989 3990 2
  2963 3991 3992 2
  2964 3950 3973 1
  2965 4004 4007 1
  2966 4004 4005 1
  2967 4004 4006 1
  2968 4007 4008 1
  2969 4008 4009 1
  2970 4009 4011 1
  2971 4009 4010 1
  2972 4010 4015 1
  2973 4011 4013 1
  2974 4011 4012 1
  2975 4013 4014 1
  2976 4013 4015 1
  2977 4015 4016 1
  2978 4016 4017 am
  2979 4016 4023 1
  2980 4017 4018 2
  2981 4017 4019 am
  2982 4019 4020 am
  2983 4020 4022 1
  2984 4020 4021 2
  2985 4022 4023 2
  2986 3981 4004 1
  2987 4034 4035 1
  2988 4034 4036 1
  2989 4034 4037 1
  2990 4037 4038 1
  2991 4038 4039 1
  2992 4039 4041 1
  2993 4039 4040 1
  2994 4040 4045 1
  2995 4041 4043 1
  2996 4041 4042 1
  2997 4043 4045 1
  2998 4043 4044 1
  2999 4045 4046 1
  3000 4046 4056 ar
  3001 4046 4047 ar
  3002 4047 4048 ar
  3003 4048 4049 ar
  3004 4049 4056 ar
  3005 4049 4050 1
  3006 4050 4051 2
  3007 4050 4052 am
  3008 4052 4053 1
  3009 4053 4054 2
  3010 4053 4055 2
  3011 4055 4056 1
  3012 4012 4034 1
  3013 4068 4070 1
  3014 4068 4069 1
  3015 4068 4071 1
  3016 4071 4072 1
  3017 4072 4073 1
  3018 4073 4075 1
  3019 4073 4074 1
  3020 4074 4079 1
  3021 4075 4077 1
  3022 4075 4076 1
  3023 4077 4078 1
  3024 4077 4079 1
  3025 4079 4080 1
  3026 4080 4081 ar
  3027 4080 4089 ar
  3028 4081 4082 ar
  3029 4082 4083 ar
  3030 4083 4089 ar
  3031 4083 4084 ar
  3032 4084 4085 1
  3033 4084 4086 ar
  3034 4086 4087 ar
  3035 4087 4088 ar
  3036 4088 4089 ar
  3037 4042 4068 1
  3038 4101 4104 1
  3039 4101 4102 1
  3040 4101 4103 1
  3041 4104 4105 1
  3042 4105 4106 1
  3043 4106 4108 1
  3044 4106 4107 1
  3045 4107 4112 1
  3046 4108 4110 1
  3047 4108 4109 1
  3048 4110 4111 1
  3049 4110 4112 1
  3050 4112 4113 1
  3051 4113 4114 am
  3052 4113 4120 1
  3053 4114 4115 2
  3054 4114 4116 am
  3055 4116 4117 am
  3056 4117 4119 1
  3057 4117 4118 2
  3058 4119 4120 2
  3059 4076 4101 1
  3060 4131 4134 1
  3061 4131 4133 1
  3062 4131 4132 1
  3063 4134 4135 1
  3064 4135 4136 1
  3065 4136 4138 1
  3066 4136 4137 1
  3067 4137 4142 1
  3068 4138 4139 1
  3069 4138 4140 1
  3070 4140 4141 1
  3071 4140 4142 1
  3072 4142 4143 1
  3073 4143 4150 1
  3074 4143 4144 am
  3075 4144 4145 2
  3076 4144 4146 1
  3077 4146 4147 2
  3078 4147 4149 2
  3079 4147 4148 2
  3080 4149 4150 2
  3081 4109 4131 1
  3082 4162 4165 1
  3083 4162 4163 1
  3084 4162 4164 1
  3085 4165 4166 1
  3086 4166 4167 1
  3087 4167 4169 1
  3088 4167 4168 1
  3089 4168 4173 1
  3090 4169 4171 1
  3091 4169 4170 1
  3092 4171 4172 1
  3093 4171 4173 1
  3094 4173 4174 1
  3095 4174 4175 am
  3096 4174 4181 1
  3097 4175 4176 2
  3098 4175 4177 am
  3099 4177 4178 am
  3100 4178 4180 1
  3101 4178 4179 2
  3102 4180 4181 2
  3103 4139 4162 1
  3104 4192 4193 1
  3105 4192 4194 1
  3106 4192 4195 1
  3107 4195 4196 1
  3108 4196 4197 1
  3109 4197 4199 1
  3110 4197 4198 1
  3111 4198 4203 1
  3112 4199 4201 1
  3113 4199 4200 1
  3114 4201 4203 1
  3115 4201 4202 1
  3116 4203 4204 1
  3117 4204 4214 ar
  3118 4204 4205 ar
  3119 4205 4206 ar
  3120 4206 4207 ar
  3121 4207 4214 ar
  3122 4207 4208 1
  3123 4208 4209 2
  3124 4208 4210 am
  3125 4210 4211 1
  3126 4211 4212 2
  3127 4211 4213 2
  3128 4213 4214 1
  3129 4170 4192 1
  3130 4226 4227 1
  3131 4226 4228 1
  3132 4226 4229 1
  3133 4229 4230 1
  3134 4230 4231 1
  3135 4231 4233 1
  3136 4231 4232 1
  3137 4232 4237 1
  3138 4233 4235 1
  3139 4233 4234 1
  3140 4235 4237 1
  3141 4235 4236 1
  3142 4237 4238 1
  3143 4238 4248 ar
  3144 4238 4239 ar
  3145 4239 4240 ar
  3146 4240 4241 ar
  3147 4241 4248 ar
  3148 4241 4242 1
  3149 4242 4243 2
  3150 4242 4244 am
  3151 4244 4245 1
  3152 4245 4246 2
  3153 4245 4247 2
  3154 4247 4248 1
  3155 4200 4226 1
  3156 4260 4262 1
  3157 4260 4261 1
  3158 4260 4263 1
  3159 4263 4264 1
  3160 4264 4265 1
  3161 4265 4267 1
  3162 4265 4266 1
  3163 4266 4271 1
  3164 4267 4269 1
  3165 4267 4268 1
  3166 4269 4270 1
  3167 4269 4271 1
  3168 4271 4272 1
  3169 4272 4273 ar
  3170 4272 4281 ar
  3171 4273 4274 ar
  3172 4274 4275 ar
  3173 4275 4281 ar
  3174 4275 4276 ar
  3175 4276 4277 1
  3176 4276 4278 ar
  3177 4278 4279 ar
  3178 4279 4280 ar
  3179 4280 4281 ar
  3180 4234 4260 1
  3181 4293 4296 1
  3182 4293 4294 1
  3183 4293 4295 1
  3184 4296 4297 1
  3185 4297 4298 1
  3186 4298 4300 1
  3187 4298 4299 1
  3188 4299 4304 1
  3189 4300 4302 1
  3190 4300 4301 1
  3191 4302 4303 1
  3192 4302 4304 1
  3193 4304 4305 1
  3194 4305 4306 am
  3195 4305 4312 1
  3196 4306 4307 2
  3197 4306 4308 am
  3198 4308 4309 am
  3199 4309 4311 1
  3200 4309 4310 2
  3201 4311 4312 2
  3202 4268 4293 1
  3203 4323 4325 1
  3204 4323 4324 1
  3205 4323 4326 1
  3206 4326 4327 1
  3207 4327 4328 1
  3208 4328 4330 1
  3209 4328 4329 1
  3210 4329 4334 1
  3211 4330 4332 1
  3212 4330 4331 1
  3213 4332 4333 1
  3214 4332 4334 1
  3215 4334 4335 1
  3216 4335 4336 ar
  3217 4335 4344 ar
  3218 4336 4337 ar
  3219 4337 4338 ar
  3220 4338 4344 ar
  3221 4338 4339 ar
  3222 4339 4340 1
  3223 4339 4341 ar
  3224 4341 4342 ar
  3225 4342 4343 ar
  3226 4343 4344 ar
  3227 4301 4323 1
  3228 4356 4358 1
  3229 4356 4357 1
  3230 4356 4359 1
  3231 4359 4360 1
  3232 4360 4361 1
  3233 4361 4363 1
  3234 4361 4362 1
  3235 4362 4367 1
  3236 4363 4365 1
  3237 4363 4364 1
  3238 4365 4366 1
  3239 4365 4367 1
  3240 4367 4368 1
  3241 4368 4369 ar
  3242 4368 4377 ar
  3243 4369 4370 ar
  3244 4370 4371 ar
  3245 4371 4377 ar
  3246 4371 4372 ar
  3247 4372 4373 1
  3248 4372 4374 ar
  3249 4374 4375 ar
  3250 4375 4376 ar
  3251 4376 4377 ar
  3252 4331 4356 1
  3253 4389 4392 1
  3254 4389 4390 1
  3255 4389 4391 1
  3256 4392 4393 1
  3257 4393 4394 1
  3258 4394 4396 1
  3259 4394 4395 1
  3260 4395 4400 1
  3261 4396 4398 1
  3262 4396 4397 1
  3263 4398 4399 1
  3264 4398 4400 1
  3265 4400 4401 1
  3266 4401 4402 am
  3267 4401 4408 1
  3268 4402 4403 2
  3269 4402 4404 am
  3270 4404 4405 am
  3271 4405 4407 1
  3272 4405 4406 2
  3273 4407 4408 2
  3274 4364 4389 1
  3275 4419 4420 1
  3276 4419 4421 1
  3277 4419 4422 1
  3278 4422 4423 1
  3279 4423 4424 1
  3280 4424 4426 1
  3281 4424 4425 1
  3282 4425 4430 1
  3283 4426 4428 1
  3284 4426 4427 1
  3285 4428 4430 1
  3286 4428 4429 1
  3287 4430 4431 1
  3288 4431 4441 ar
  3289 4431 4432 ar
  3290 4432 4433 ar
  3291 4433 4434 ar
  3292 4434 4441 ar
  3293 4434 4435 1
  3294 4435 4436 2
  3295 4435 4437 am
  3296 4437 4438 1
  3297 4438 4439 2
  3298 4438 4440 2
  3299 4440 4441 1
  3300 4397 4419 1
  3301 4453 4456 1
  3302 4453 4455 1
  3303 4453 4454 1
  3304 4456 4457 1
  3305 4457 4458 1
  3306 4458 4460 1
  3307 4458 4459 1
  3308 4459 4464 1
  3309 4460 4461 1
  3310 4460 4462 1
  3311 4462 4463 1
  3312 4462 4464 1
  3313 4464 4465 1
  3314 4465 4472 1
  3315 4465 4466 am
  3316 4466 4467 2
  3317 4466 4468 1
  3318 4468 4469 2
  3319 4469 4471 2
  3320 4469 4470 2
  3321 4471 4472 2
  3322 4427 4453 1
  3323 4484 4487 1
  3324 4484 4486 1
  3325 4484 4485 1
  3326 4487 4488 1
  3327 4488 4489 1
  3328 4489 4491 1
  3329 4489 4490 1
  3330 4490 4495 1
  3331 4491 4492 1
  3332 4491 4493 1
  3333 4493 4494 1
  3334 4493 4495 1
  3335 4495 4496 1
  3336 4496 4503 1
  3337 4496 4497 am
  3338 4497 4498 2
  3339 4497 4499 1
  3340 4499 4500 2
  3341 4500 4502 2
  3342 4500 4501 2
  3343 4502 4503 2
  3344 4461 4484 1
  3345 4515 4517 1
  3346 4515 4516 1
  3347 4515 4518 1
  3348 4518 4519 1
  3349 4519 4520 1
  3350 4520 4522 1
  3351 4520 4521 1
  3352 4521 4526 1
  3353 4522 4524 1
  3354 4522 4523 1
  3355 4524 4525 1
  3356 4524 4526 1
  3357 4526 4527 1
  3358 4527 4528 ar
  3359 4527 4536 ar
  3360 4528 4529 ar
  3361 4529 4530 ar
  3362 4530 4536 ar
  3363 4530 4531 ar
  3364 4531 4532 1
  3365 4531 4533 ar
  3366 4533 4534 ar
  3367 4534 4535 ar
  3368 4535 4536 ar
  3369 4492 4515 1
  3370 4548 4549 1
  3371 4548 4550 1
  3372 4548 4551 1
  3373 4551 4552 1
  3374 4552 4553 1
  3375 4553 4555 1
  3376 4553 4554 1
  3377 4554 4559 1
  3378 4555 4557 1
  3379 4555 4556 1
  3380 4557 4559 1
  3381 4557 4558 1
  3382 4559 4560 1
  3383 4560 4570 ar
  3384 4560 4561 ar
  3385 4561 4562 ar
  3386 4562 4563 ar
  3387 4563 4570 ar
  3388 4563 4564 1
  3389 4564 4565 2
  3390 4564 4566 am
  3391 4566 4567 1
  3392 4567 4568 2
  3393 4567 4569 2
  3394 4569 4570 1
  3395 4523 4548 1
  3396 4582 4585 1
  3397 4582 4584 1
  3398 4582 4583 1
  3399 4585 4586 1
  3400 4586 4587 1
  3401 4587 4589 1
  3402 4587 4588 1
  3403 4588 4593 1
  3404 4589 4590 1
  3405 4589 4591 1
  3406 4591 4592 1
  3407 4591 4593 1
  3408 4593 4594 1
  3409 4594 4601 1
  3410 4594 4595 am
  3411 4595 4596 2
  3412 4595 4597 1
  3413 4597 4598 2
  3414 4598 4600 2
  3415 4598 4599 2
  3416 4600 4601 2
  3417 4556 4582 1
  3418 4613 4614 1
  3419 4613 4615 1
  3420 4613 4616 1
  3421 4616 4617 1
  3422 4617 4618 1
  3423 4618 4620 1
  3424 4618 4619 1
  3425 4619 4624 1
  3426 4620 4622 1
  3427 4620 4621 1
  3428 4622 4624 1
  3429 4622 4623 1
  3430 4624 4625 1
  3431 4625 4635 ar
  3432 4625 4626 ar
  3433 4626 4627 ar
  3434 4627 4628 ar
  3435 4628 4635 ar
  3436 4628 4629 1
  3437 4629 4630 2
  3438 4629 4631 am
  3439 4631 4632 1
  3440 4632 4633 2
  3441 4632 4634 2
  3442 4634 4635 1
  3443 4590 4613 1
  3444 4647 4650 1
  3445 4647 4648 1
  3446 4647 4649 1
  3447 4650 4651 1
  3448 4651 4652 1
  3449 4652 4654 1
  3450 4652 4653 1
  3451 4653 4658 1
  3452 4654 4656 1
  3453 4654 4655 1
  3454 4656 4657 1
  3455 4656 4658 1
  3456 4658 4659 1
  3457 4659 4660 am
  3458 4659 4666 1
  3459 4660 4661 2
  3460 4660 4662 am
  3461 4662 4663 am
  3462 4663 4665 1
  3463 4663 4664 2
  3464 4665 4666 2
  3465 4621 4647 1
  3466 4677 4679 1
  3467 4677 4678 1
  3468 4677 4680 1
  3469 4680 4681 1
  3470 4681 4682 1
  3471 4682 4684 1
  3472 4682 4683 1
  3473 4683 4688 1
  3474 4684 4686 1
  3475 4684 4685 1
  3476 4686 4687 1
  3477 4686 4688 1
  3478 4688 4689 1
  3479 4689 4690 ar
  3480 4689 4698 ar
  3481 4690 4691 ar
  3482 4691 4692 ar
  3483 4692 4698 ar
  3484 4692 4693 ar
  3485 4693 4694 1
  3486 4693 4695 ar
  3487 4695 4696 ar
  3488 4696 4697 ar
  3489 4697 4698 ar
  3490 4655 4677 1
  3491 4710 4711 1
  3492 4710 4712 1
  3493 4710 4713 1
  3494 4713 4714 1
  3495 4714 4715 1
  3496 4715 4717 1
  3497 4715 4716 1
  3498 4716 4721 1
  3499 4717 4719 1
  3500 4717 4718 1
  3501 4719 4721 1
  3502 4719 4720 1
  3503 4721 4722 1
  3504 4722 4732 ar
  3505 4722 4723 ar
  3506 4723 4724 ar
  3507 4724 4725 ar
  3508 4725 4732 ar
  3509 4725 4726 1
  3510 4726 4727 2
  3511 4726 4728 am
  3512 4728 4729 1
  3513 4729 4730 2
  3514 4729 4731 2
  3515 4731 4732 1
  3516 4685 4710 1
  3517 4744 4745 1
  3518 4744 4746 1
  3519 4744 4747 1
  3520 4747 4748 1
  3521 4748 4749 1
  3522 4749 4751 1
  3523 4749 4750 1
  3524 4750 4755 1
  3525 4751 4753 1
  3526 4751 4752 1
  3527 4753 4755 1
  3528 4753 4754 1
  3529 4755 4756 1
  3530 4756 4766 ar
  3531 4756 4757 ar
  3532 4757 4758 ar
  3533 4758 4759 ar
  3534 4759 4766 ar
  3535 4759 4760 1
  3536 4760 4761 2
  3537 4760 4762 am
  3538 4762 4763 1
  3539 4763 4764 2
  3540 4763 4765 2
  3541 4765 4766 1
  3542 4718 4744 1
  3543 4778 4779 1
  3544 4778 4780 1
  3545 4778 4781 1
  3546 4781 4782 1
  3547 4782 4783 1
  3548 4783 4785 1
  3549 4783 4784 1
  3550 4784 4789 1
  3551 4785 4787 1
  3552 4785 4786 1
  3553 4787 4789 1
  3554 4787 4788 1
  3555 4789 4790 1
  3556 4790 4800 ar
  3557 4790 4791 ar
  3558 4791 4792 ar
  3559 4792 4793 ar
  3560 4793 4800 ar
  3561 4793 4794 1
  3562 4794 4795 2
  3563 4794 4796 am
  3564 4796 4797 1
  3565 4797 4798 2
  3566 4797 4799 2
  3567 4799 4800 1
  3568 4752 4778 1
  3569 4812 4814 1
  3570 4812 4813 1
  3571 4812 4815 1
  3572 4815 4816 1
  3573 4816 4817 1
  3574 4817 4819 1
  3575 4817 4818 1
  3576 4818 4823 1
  3577 4819 4821 1
  3578 4819 4820 1
  3579 4821 4822 1
  3580 4821 4823 1
  3581 4823 4824 1
  3582 4824 4825 ar
  3583 4824 4833 ar
  3584 4825 4826 ar
  3585 4826 4827 ar
  3586 4827 4833 ar
  3587 4827 4828 ar
  3588 4828 4829 1
  3589 4828 4830 ar
  3590 4830 4831 ar
  3591 4831 4832 ar
  3592 4832 4833 ar
  3593 4786 4812 1
  3594 4845 4847 1
  3595 4845 4846 1
  3596 4845 4848 1
  3597 4848 4849 1
  3598 4849 4850 1
  3599 4850 4852 1
  3600 4850 4851 1
  3601 4851 4856 1
  3602 4852 4854 1
  3603 4852 4853 1
  3604 4854 4855 1
  3605 4854 4856 1
  3606 4856 4857 1
  3607 4857 4858 ar
  3608 4857 4866 ar
  3609 4858 4859 ar
  3610 4859 4860 ar
  3611 4860 4866 ar
  3612 4860 4861 ar
  3613 4861 4862 1
  3614 4861 4863 ar
  3615 4863 4864 ar
  3616 4864 4865 ar
  3617 4865 4866 ar
  3618 4820 4845 1
  3619 4878 4879 1
  3620 4878 4880 1
  3621 4878 4881 1
  3622 4881 4882 1
  3623 4882 4883 1
  3624 4883 4885 1
  3625 4883 4884 1
  3626 4884 4889 1
  3627 4885 4887 1
  3628 4885 4886 1
  3629 4887 4889 1
  3630 4887 4888 1
  3631 4889 4890 1
  3632 4890 4900 ar
  3633 4890 4891 ar
  3634 4891 4892 ar
  3635 4892 4893 ar
  3636 4893 4900 ar
  3637 4893 4894 1
  3638 4894 4895 2
  3639 4894 4896 am
  3640 4896 4897 1
  3641 4897 4898 2
  3642 4897 4899 2
  3643 4899 4900 1
  3644 4853 4878 1
  3645 4912 4915 1
  3646 4912 4913 1
  3647 4912 4914 1
  3648 4915 4916 1
  3649 4916 4917 1
  3650 4917 4919 1
  3651 4917 4918 1
  3652 4918 4923 1
  3653 4919 4921 1
  3654 4919 4920 1
  3655 4921 4922 1
  3656 4921 4923 1
  3657 4923 4924 1
  3658 4924 4925 am
  3659 4924 4931 1
  3660 4925 4926 2
  3661 4925 4927 am
  3662 4927 4928 am
  3663 4928 4930 1
  3664 4928 4929 2
  3665 4930 4931 2
  3666 4886 4912 1
  3667 4945 4946 1
  3668 4946 4947 1
  3669 4947 4949 1
  3670 4947 4948 1
  3671 4948 4953 1
  3672 4949 4951 1
  3673 4949 4950 1
  3674 4951 4952 1
  3675 4951 4953 1
  3676 4953 4954 1
  3677 4954 4961 1
  3678 4954 4955 am
  3679 4955 4957 am
  3680 4955 4956 2
  3681 4957 4958 am
  3682 4958 4960 1
  3683 4958 4959 2
  3684 4960 4961 2
  3685 4942 4943 1
  3686 4942 4944 1
  3687 4942 4945 1
  3688 4920 4942 1
  3689   21    2 1
  3690   22    2 1
  3691   23    3 1
  3692   24    5 1
  3693   25    7 1
  3694   26    9 1
  3695   27   11 1
  3696   28   16 1
  3697   55   37 1
  3698   56   37 1
  3699   57   38 1
  3700   58   40 1
  3701   59   42 1
  3702   60   44 1
  3703   61   46 1
  3704   62   52 1
  3705   86   70 1
  3706   87   70 1
  3707   88   71 1
  3708   89   73 1
  3709   90   75 1
  3710   91   77 1
  3711   92   84 1
  3712   93   85 1
  3713  117  101 1
  3714  118  101 1
  3715  119  102 1
  3716  120  104 1
  3717  121  106 1
  3718  122  108 1
  3719  123  112 1
  3720  124  115 1
  3721  125  116 1
  3722  147  131 1
  3723  148  131 1
  3724  149  132 1
  3725  150  134 1
  3726  151  136 1
  3727  152  138 1
  3728  153  145 1
  3729  154  146 1
  3730  181  162 1
  3731  182  162 1
  3732  183  163 1
  3733  184  165 1
  3734  185  167 1
  3735  186  169 1
  3736  187  171 1
  3737  188  176 1
  3738  215  196 1
  3739  216  196 1
  3740  217  197 1
  3741  218  199 1
  3742  219  201 1
  3743  220  203 1
  3744  221  205 1
  3745  222  210 1
  3746  249  230 1
  3747  250  230 1
  3748  251  231 1
  3749  252  233 1
  3750  253  235 1
  3751  254  237 1
  3752  255  239 1
  3753  256  244 1
  3754  283  264 1
  3755  284  264 1
  3756  285  265 1
  3757  286  267 1
  3758  287  269 1
  3759  288  271 1
  3760  289  273 1
  3761  290  278 1
  3762  314  298 1
  3763  315  298 1
  3764  316  299 1
  3765  317  301 1
  3766  318  303 1
  3767  319  305 1
  3768  320  309 1
  3769  321  312 1
  3770  322  313 1
  3771  347  328 1
  3772  348  328 1
  3773  349  329 1
  3774  350  331 1
  3775  351  333 1
  3776  352  335 1
  3777  353  337 1
  3778  354  342 1
  3779  378  362 1
  3780  379  362 1
  3781  380  363 1
  3782  381  365 1
  3783  382  367 1
  3784  383  369 1
  3785  384  376 1
  3786  385  377 1
  3787  409  393 1
  3788  410  393 1
  3789  411  394 1
  3790  412  396 1
  3791  413  398 1
  3792  414  400 1
  3793  415  407 1
  3794  416  408 1
  3795  440  424 1
  3796  441  424 1
  3797  442  425 1
  3798  443  427 1
  3799  444  429 1
  3800  445  431 1
  3801  446  438 1
  3802  447  439 1
  3803  471  455 1
  3804  472  455 1
  3805  473  456 1
  3806  474  458 1
  3807  475  460 1
  3808  476  462 1
  3809  477  466 1
  3810  478  469 1
  3811  479  470 1
  3812  501  485 1
  3813  502  485 1
  3814  503  486 1
  3815  504  488 1
  3816  505  490 1
  3817  506  492 1
  3818  507  496 1
  3819  508  499 1
  3820  509  500 1
  3821  531  515 1
  3822  532  515 1
  3823  533  516 1
  3824  534  518 1
  3825  535  520 1
  3826  536  522 1
  3827  537  529 1
  3828  538  530 1
  3829  562  546 1
  3830  563  546 1
  3831  564  547 1
  3832  565  549 1
  3833  566  551 1
  3834  567  553 1
  3835  568  557 1
  3836  569  560 1
  3837  570  561 1
  3838  595  576 1
  3839  596  576 1
  3840  597  577 1
  3841  598  579 1
  3842  599  581 1
  3843  600  583 1
  3844  601  585 1
  3845  602  590 1
  3846  626  610 1
  3847  627  610 1
  3848  628  611 1
  3849  629  613 1
  3850  630  615 1
  3851  631  617 1
  3852  632  624 1
  3853  633  625 1
  3854  660  641 1
  3855  661  641 1
  3856  662  642 1
  3857  663  644 1
  3858  664  646 1
  3859  665  648 1
  3860  666  650 1
  3861  667  655 1
  3862  691  675 1
  3863  692  675 1
  3864  693  676 1
  3865  694  678 1
  3866  695  680 1
  3867  696  682 1
  3868  697  686 1
  3869  698  689 1
  3870  699  690 1
  3871  724  705 1
  3872  725  705 1
  3873  726  706 1
  3874  727  708 1
  3875  728  710 1
  3876  729  712 1
  3877  730  714 1
  3878  731  719 1
  3879  757  739 1
  3880  758  739 1
  3881  759  740 1
  3882  760  742 1
  3883  761  744 1
  3884  762  746 1
  3885  763  748 1
  3886  764  754 1
  3887  790  772 1
  3888  791  772 1
  3889  792  773 1
  3890  793  775 1
  3891  794  777 1
  3892  795  779 1
  3893  796  781 1
  3894  797  787 1
  3895  824  805 1
  3896  825  805 1
  3897  826  806 1
  3898  827  808 1
  3899  828  810 1
  3900  829  812 1
  3901  830  814 1
  3902  831  819 1
  3903  858  839 1
  3904  859  839 1
  3905  860  840 1
  3906  861  842 1
  3907  862  844 1
  3908  863  846 1
  3909  864  848 1
  3910  865  853 1
  3911  889  873 1
  3912  890  873 1
  3913  891  874 1
  3914  892  876 1
  3915  893  878 1
  3916  894  880 1
  3917  895  887 1
  3918  896  888 1
  3919  920  904 1
  3920  921  904 1
  3921  922  905 1
  3922  923  907 1
  3923  924  909 1
  3924  925  911 1
  3925  926  915 1
  3926  927  918 1
  3927  928  919 1
  3928  953  934 1
  3929  954  934 1
  3930  955  935 1
  3931  956  937 1
  3932  957  939 1
  3933  958  941 1
  3934  959  943 1
  3935  960  948 1
  3936  986  968 1
  3937  987  968 1
  3938  988  969 1
  3939  989  971 1
  3940  990  973 1
  3941  991  975 1
  3942  992  977 1
  3943  993  983 1
  3944 1020 1001 1
  3945 1021 1001 1
  3946 1022 1002 1
  3947 1023 1004 1
  3948 1024 1006 1
  3949 1025 1008 1
  3950 1026 1010 1
  3951 1027 1015 1
  3952 1053 1035 1
  3953 1054 1035 1
  3954 1055 1036 1
  3955 1056 1038 1
  3956 1057 1040 1
  3957 1058 1042 1
  3958 1059 1044 1
  3959 1060 1050 1
  3960 1086 1068 1
  3961 1087 1068 1
  3962 1088 1069 1
  3963 1089 1071 1
  3964 1090 1073 1
  3965 1091 1075 1
  3966 1092 1077 1
  3967 1093 1083 1
  3968 1119 1101 1
  3969 1120 1101 1
  3970 1121 1102 1
  3971 1122 1104 1
  3972 1123 1106 1
  3973 1124 1108 1
  3974 1125 1110 1
  3975 1126 1116 1
  3976 1142 1134 1
  3977 1143 1134 1
  3978 1144 1135 1
  3979 1145 1137 1
  3980 1146 1139 1
  3981 1147 1141 1
  3982 1148 1141 1
  3983 1172 1154 1
  3984 1173 1154 1
  3985 1174 1155 1
  3986 1175 1157 1
  3987 1176 1159 1
  3988 1177 1161 1
  3989 1178 1163 1
  3990 1179 1169 1
  3991 1203 1187 1
  3992 1204 1187 1
  3993 1205 1188 1
  3994 1206 1190 1
  3995 1207 1192 1
  3996 1208 1194 1
  3997 1209 1201 1
  3998 1210 1202 1
  3999 1234 1218 1
  4000 1235 1218 1
  4001 1236 1219 1
  4002 1237 1221 1
  4003 1238 1223 1
  4004 1239 1225 1
  4005 1240 1232 1
  4006 1241 1233 1
  4007 1265 1249 1
  4008 1266 1249 1
  4009 1267 1250 1
  4010 1268 1252 1
  4011 1269 1254 1
  4012 1270 1256 1
  4013 1271 1263 1
  4014 1272 1264 1
  4015 1299 1280 1
  4016 1300 1280 1
  4017 1301 1281 1
  4018 1302 1283 1
  4019 1303 1285 1
  4020 1304 1287 1
  4021 1305 1289 1
  4022 1306 1294 1
  4023 1330 1314 1
  4024 1331 1314 1
  4025 1332 1315 1
  4026 1333 1317 1
  4027 1334 1319 1
  4028 1335 1321 1
  4029 1336 1325 1
  4030 1337 1328 1
  4031 1338 1329 1
  4032 1362 1344 1
  4033 1363 1344 1
  4034 1364 1345 1
  4035 1365 1347 1
  4036 1366 1349 1
  4037 1367 1351 1
  4038 1368 1353 1
  4039 1369 1359 1
  4040 1393 1377 1
  4041 1394 1377 1
  4042 1395 1378 1
  4043 1396 1380 1
  4044 1397 1382 1
  4045 1398 1384 1
  4046 1399 1388 1
  4047 1400 1391 1
  4048 1401 1392 1
  4049 1415 1407 1
  4050 1416 1407 1
  4051 1417 1408 1
  4052 1418 1410 1
  4053 1419 1412 1
  4054 1420 1414 1
  4055 1421 1414 1
  4056 1445 1427 1
  4057 1446 1427 1
  4058 1447 1428 1
  4059 1448 1430 1
  4060 1449 1432 1
  4061 1450 1434 1
  4062 1451 1436 1
  4063 1452 1442 1
  4064 1476 1460 1
  4065 1477 1460 1
  4066 1478 1461 1
  4067 1479 1463 1
  4068 1480 1465 1
  4069 1481 1467 1
  4070 1482 1474 1
  4071 1483 1475 1
  4072 1507 1491 1
  4073 1508 1491 1
  4074 1509 1492 1
  4075 1510 1494 1
  4076 1511 1496 1
  4077 1512 1498 1
  4078 1513 1505 1
  4079 1514 1506 1
  4080 1538 1522 1
  4081 1539 1522 1
  4082 1540 1523 1
  4083 1541 1525 1
  4084 1542 1527 1
  4085 1543 1529 1
  4086 1544 1533 1
  4087 1545 1536 1
  4088 1546 1537 1
  4089 1571 1552 1
  4090 1572 1552 1
  4091 1573 1553 1
  4092 1574 1555 1
  4093 1575 1557 1
  4094 1576 1559 1
  4095 1577 1561 1
  4096 1578 1566 1
  4097 1604 1586 1
  4098 1605 1586 1
  4099 1606 1587 1
  4100 1607 1589 1
  4101 1608 1591 1
  4102 1609 1593 1
  4103 1610 1595 1
  4104 1611 1601 1
  4105 1635 1619 1
  4106 1636 1619 1
  4107 1637 1620 1
  4108 1638 1622 1
  4109 1639 1624 1
  4110 1640 1626 1
  4111 1641 1630 1
  4112 1642 1633 1
  4113 1643 1634 1
  4114 1665 1649 1
  4115 1666 1649 1
  4116 1667 1650 1
  4117 1668 1652 1
  4118 1669 1654 1
  4119 1670 1656 1
  4120 1671 1663 1
  4121 1672 1664 1
  4122 1696 1680 1
  4123 1697 1680 1
  4124 1698 1681 1
  4125 1699 1683 1
  4126 1700 1685 1
  4127 1701 1687 1
  4128 1702 1691 1
  4129 1703 1694 1
  4130 1704 1695 1
  4131 1729 1710 1
  4132 1730 1710 1
  4133 1731 1711 1
  4134 1732 1713 1
  4135 1733 1715 1
  4136 1734 1717 1
  4137 1735 1719 1
  4138 1736 1724 1
  4139 1763 1744 1
  4140 1764 1744 1
  4141 1765 1745 1
  4142 1766 1747 1
  4143 1767 1749 1
  4144 1768 1751 1
  4145 1769 1753 1
  4146 1770 1758 1
  4147 1796 1778 1
  4148 1797 1778 1
  4149 1798 1779 1
  4150 1799 1781 1
  4151 1800 1783 1
  4152 1801 1785 1
  4153 1802 1787 1
  4154 1803 1793 1
  4155 1827 1811 1
  4156 1828 1811 1
  4157 1829 1812 1
  4158 1830 1814 1
  4159 1831 1816 1
  4160 1832 1818 1
  4161 1833 1822 1
  4162 1834 1825 1
  4163 1835 1826 1
  4164 1859 1841 1
  4165 1860 1841 1
  4166 1861 1842 1
  4167 1862 1844 1
  4168 1863 1846 1
  4169 1864 1848 1
  4170 1865 1850 1
  4171 1866 1856 1
  4172 1892 1874 1
  4173 1893 1874 1
  4174 1894 1875 1
  4175 1895 1877 1
  4176 1896 1879 1
  4177 1897 1881 1
  4178 1898 1883 1
  4179 1899 1889 1
  4180 1923 1907 1
  4181 1924 1907 1
  4182 1925 1908 1
  4183 1926 1910 1
  4184 1927 1912 1
  4185 1928 1914 1
  4186 1929 1918 1
  4187 1930 1921 1
  4188 1931 1922 1
  4189 1956 1937 1
  4190 1957 1937 1
  4191 1958 1938 1
  4192 1959 1940 1
  4193 1960 1942 1
  4194 1961 1944 1
  4195 1962 1946 1
  4196 1963 1951 1
  4197 1987 1971 1
  4198 1988 1971 1
  4199 1989 1972 1
  4200 1990 1974 1
  4201 1991 1976 1
  4202 1992 1978 1
  4203 1993 1985 1
  4204 1994 1986 1
  4205 2018 2002 1
  4206 2019 2002 1
  4207 2020 2003 1
  4208 2021 2005 1
  4209 2022 2007 1
  4210 2023 2009 1
  4211 2024 2016 1
  4212 2025 2017 1
  4213 2051 2033 1
  4214 2052 2033 1
  4215 2053 2034 1
  4216 2054 2036 1
  4217 2055 2038 1
  4218 2056 2040 1
  4219 2057 2042 1
  4220 2058 2048 1
  4221 2085 2066 1
  4222 2086 2066 1
  4223 2087 2067 1
  4224 2088 2069 1
  4225 2089 2071 1
  4226 2090 2073 1
  4227 2091 2075 1
  4228 2092 2080 1
  4229 2116 2100 1
  4230 2117 2100 1
  4231 2118 2101 1
  4232 2119 2103 1
  4233 2120 2105 1
  4234 2121 2107 1
  4235 2122 2114 1
  4236 2123 2115 1
  4237 2150 2131 1
  4238 2151 2131 1
  4239 2152 2132 1
  4240 2153 2134 1
  4241 2154 2136 1
  4242 2155 2138 1
  4243 2156 2140 1
  4244 2157 2145 1
  4245 2181 2165 1
  4246 2182 2165 1
  4247 2183 2166 1
  4248 2184 2168 1
  4249 2185 2170 1
  4250 2186 2172 1
  4251 2187 2176 1
  4252 2188 2179 1
  4253 2189 2180 1
  4254 2213 2195 1
  4255 2214 2195 1
  4256 2215 2196 1
  4257 2216 2198 1
  4258 2217 2200 1
  4259 2218 2202 1
  4260 2219 2204 1
  4261 2220 2210 1
  4262 2247 2228 1
  4263 2248 2228 1
  4264 2249 2229 1
  4265 2250 2231 1
  4266 2251 2233 1
  4267 2252 2235 1
  4268 2253 2237 1
  4269 2254 2242 1
  4270 2281 2262 1
  4271 2282 2262 1
  4272 2283 2263 1
  4273 2284 2265 1
  4274 2285 2267 1
  4275 2286 2269 1
  4276 2287 2271 1
  4277 2288 2276 1
  4278 2315 2296 1
  4279 2316 2296 1
  4280 2317 2297 1
  4281 2318 2299 1
  4282 2319 2301 1
  4283 2320 2303 1
  4284 2321 2305 1
  4285 2322 2310 1
  4286 2348 2330 1
  4287 2349 2330 1
  4288 2350 2331 1
  4289 2351 2333 1
  4290 2352 2335 1
  4291 2353 2337 1
  4292 2354 2339 1
  4293 2355 2345 1
  4294 2381 2363 1
  4295 2382 2363 1
  4296 2383 2364 1
  4297 2384 2366 1
  4298 2385 2368 1
  4299 2386 2370 1
  4300 2387 2372 1
  4301 2388 2378 1
  4302 2415 2396 1
  4303 2416 2396 1
  4304 2417 2397 1
  4305 2418 2399 1
  4306 2419 2401 1
  4307 2420 2403 1
  4308 2421 2405 1
  4309 2422 2410 1
  4310 2446 2430 1
  4311 2447 2430 1
  4312 2448 2431 1
  4313 2449 2433 1
  4314 2450 2435 1
  4315 2451 2437 1
  4316 2452 2441 1
  4317 2453 2444 1
  4318 2454 2445 1
  4319 2476 2460 1
  4320 2477 2460 1
  4321 2478 2461 1
  4322 2479 2463 1
  4323 2480 2465 1
  4324 2481 2467 1
  4325 2482 2471 1
  4326 2483 2474 1
  4327 2484 2475 1
  4328 2507 2488 1
  4329 2508 2488 1
  4330 2509 2489 1
  4331 2510 2491 1
  4332 2511 2493 1
  4333 2512 2495 1
  4334 2513 2497 1
  4335 2514 2502 1
  4336 2541 2523 1
  4337 2542 2523 1
  4338 2543 2524 1
  4339 2544 2526 1
  4340 2545 2528 1
  4341 2546 2530 1
  4342 2547 2532 1
  4343 2548 2538 1
  4344 2572 2556 1
  4345 2573 2556 1
  4346 2574 2557 1
  4347 2575 2559 1
  4348 2576 2561 1
  4349 2577 2563 1
  4350 2578 2570 1
  4351 2579 2571 1
  4352 2603 2587 1
  4353 2604 2587 1
  4354 2605 2588 1
  4355 2606 2590 1
  4356 2607 2592 1
  4357 2608 2594 1
  4358 2609 2598 1
  4359 2610 2601 1
  4360 2611 2602 1
  4361 2633 2617 1
  4362 2634 2617 1
  4363 2635 2618 1
  4364 2636 2620 1
  4365 2637 2622 1
  4366 2638 2624 1
  4367 2639 2631 1
  4368 2640 2632 1
  4369 2667 2648 1
  4370 2668 2648 1
  4371 2669 2649 1
  4372 2670 2651 1
  4373 2671 2653 1
  4374 2672 2655 1
  4375 2673 2657 1
  4376 2674 2662 1
  4377 2701 2682 1
  4378 2702 2682 1
  4379 2703 2683 1
  4380 2704 2685 1
  4381 2705 2687 1
  4382 2706 2689 1
  4383 2707 2691 1
  4384 2708 2696 1
  4385 2735 2716 1
  4386 2736 2716 1
  4387 2737 2717 1
  4388 2738 2719 1
  4389 2739 2721 1
  4390 2740 2723 1
  4391 2741 2725 1
  4392 2742 2730 1
  4393 2769 2750 1
  4394 2770 2750 1
  4395 2771 2751 1
  4396 2772 2753 1
  4397 2773 2755 1
  4398 2774 2757 1
  4399 2775 2759 1
  4400 2776 2764 1
  4401 2800 2784 1
  4402 2801 2784 1
  4403 2802 2785 1
  4404 2803 2787 1
  4405 2804 2789 1
  4406 2805 2791 1
  4407 2806 2795 1
  4408 2807 2798 1
  4409 2808 2799 1
  4410 2833 2814 1
  4411 2834 2814 1
  4412 2835 2815 1
  4413 2836 2817 1
  4414 2837 2819 1
  4415 2838 2821 1
  4416 2839 2823 1
  4417 2840 2828 1
  4418 2864 2848 1
  4419 2865 2848 1
  4420 2866 2849 1
  4421 2867 2851 1
  4422 2868 2853 1
  4423 2869 2855 1
  4424 2870 2862 1
  4425 2871 2863 1
  4426 2895 2879 1
  4427 2896 2879 1
  4428 2897 2880 1
  4429 2898 2882 1
  4430 2899 2884 1
  4431 2900 2886 1
  4432 2901 2893 1
  4433 2902 2894 1
  4434 2926 2910 1
  4435 2927 2910 1
  4436 2928 2911 1
  4437 2929 2913 1
  4438 2930 2915 1
  4439 2931 2917 1
  4440 2932 2924 1
  4441 2933 2925 1
  4442 2957 2941 1
  4443 2958 2941 1
  4444 2959 2942 1
  4445 2960 2944 1
  4446 2961 2946 1
  4447 2962 2948 1
  4448 2963 2952 1
  4449 2964 2955 1
  4450 2965 2956 1
  4451 2987 2971 1
  4452 2988 2971 1
  4453 2989 2972 1
  4454 2990 2974 1
  4455 2991 2976 1
  4456 2992 2978 1
  4457 2993 2982 1
  4458 2994 2985 1
  4459 2995 2986 1
  4460 3017 3001 1
  4461 3018 3001 1
  4462 3019 3002 1
  4463 3020 3004 1
  4464 3021 3006 1
  4465 3022 3008 1
  4466 3023 3015 1
  4467 3024 3016 1
  4468 3048 3032 1
  4469 3049 3032 1
  4470 3050 3033 1
  4471 3051 3035 1
  4472 3052 3037 1
  4473 3053 3039 1
  4474 3054 3043 1
  4475 3055 3046 1
  4476 3056 3047 1
  4477 3081 3062 1
  4478 3082 3062 1
  4479 3083 3063 1
  4480 3084 3065 1
  4481 3085 3067 1
  4482 3086 3069 1
  4483 3087 3071 1
  4484 3088 3076 1
  4485 3112 3096 1
  4486 3113 3096 1
  4487 3114 3097 1
  4488 3115 3099 1
  4489 3116 3101 1
  4490 3117 3103 1
  4491 3118 3110 1
  4492 3119 3111 1
  4493 3146 3127 1
  4494 3147 3127 1
  4495 3148 3128 1
  4496 3149 3130 1
  4497 3150 3132 1
  4498 3151 3134 1
  4499 3152 3136 1
  4500 3153 3141 1
  4501 3177 3161 1
  4502 3178 3161 1
  4503 3179 3162 1
  4504 3180 3164 1
  4505 3181 3166 1
  4506 3182 3168 1
  4507 3183 3172 1
  4508 3184 3175 1
  4509 3185 3176 1
  4510 3210 3191 1
  4511 3211 3191 1
  4512 3212 3192 1
  4513 3213 3194 1
  4514 3214 3196 1
  4515 3215 3198 1
  4516 3216 3200 1
  4517 3217 3205 1
  4518 3243 3225 1
  4519 3244 3225 1
  4520 3245 3226 1
  4521 3246 3228 1
  4522 3247 3230 1
  4523 3248 3232 1
  4524 3249 3234 1
  4525 3250 3240 1
  4526 3276 3258 1
  4527 3277 3258 1
  4528 3278 3259 1
  4529 3279 3261 1
  4530 3280 3263 1
  4531 3281 3265 1
  4532 3282 3267 1
  4533 3283 3273 1
  4534 3310 3291 1
  4535 3311 3291 1
  4536 3312 3292 1
  4537 3313 3294 1
  4538 3314 3296 1
  4539 3315 3298 1
  4540 3316 3300 1
  4541 3317 3305 1
  4542 3344 3325 1
  4543 3345 3325 1
  4544 3346 3326 1
  4545 3347 3328 1
  4546 3348 3330 1
  4547 3349 3332 1
  4548 3350 3334 1
  4549 3351 3339 1
  4550 3375 3359 1
  4551 3376 3359 1
  4552 3377 3360 1
  4553 3378 3362 1
  4554 3379 3364 1
  4555 3380 3366 1
  4556 3381 3373 1
  4557 3382 3374 1
  4558 3406 3390 1
  4559 3407 3390 1
  4560 3408 3391 1
  4561 3409 3393 1
  4562 3410 3395 1
  4563 3411 3397 1
  4564 3412 3401 1
  4565 3413 3404 1
  4566 3414 3405 1
  4567 3439 3420 1
  4568 3440 3420 1
  4569 3441 3421 1
  4570 3442 3423 1
  4571 3443 3425 1
  4572 3444 3427 1
  4573 3445 3429 1
  4574 3446 3434 1
  4575 3472 3454 1
  4576 3473 3454 1
  4577 3474 3455 1
  4578 3475 3457 1
  4579 3476 3459 1
  4580 3477 3461 1
  4581 3478 3463 1
  4582 3479 3469 1
  4583 3506 3487 1
  4584 3507 3487 1
  4585 3508 3488 1
  4586 3509 3490 1
  4587 3510 3492 1
  4588 3511 3494 1
  4589 3512 3496 1
  4590 3513 3501 1
  4591 3539 3521 1
  4592 3540 3521 1
  4593 3541 3522 1
  4594 3542 3524 1
  4595 3543 3526 1
  4596 3544 3528 1
  4597 3545 3530 1
  4598 3546 3536 1
  4599 3572 3554 1
  4600 3573 3554 1
  4601 3574 3555 1
  4602 3575 3557 1
  4603 3576 3559 1
  4604 3577 3561 1
  4605 3578 3563 1
  4606 3579 3569 1
  4607 3605 3587 1
  4608 3606 3587 1
  4609 3607 3588 1
  4610 3608 3590 1
  4611 3609 3592 1
  4612 3610 3594 1
  4613 3611 3596 1
  4614 3612 3602 1
  4615 3636 3620 1
  4616 3637 3620 1
  4617 3638 3621 1
  4618 3639 3623 1
  4619 3640 3625 1
  4620 3641 3627 1
  4621 3642 3631 1
  4622 3643 3634 1
  4623 3644 3635 1
  4624 3668 3650 1
  4625 3669 3650 1
  4626 3670 3651 1
  4627 3671 3653 1
  4628 3672 3655 1
  4629 3673 3657 1
  4630 3674 3659 1
  4631 3675 3665 1
  4632 3699 3683 1
  4633 3700 3683 1
  4634 3701 3684 1
  4635 3702 3686 1
  4636 3703 3688 1
  4637 3704 3690 1
  4638 3705 3697 1
  4639 3706 3698 1
  4640 3730 3714 1
  4641 3731 3714 1
  4642 3732 3715 1
  4643 3733 3717 1
  4644 3734 3719 1
  4645 3735 3721 1
  4646 3736 3728 1
  4647 3737 3729 1
  4648 3761 3745 1
  4649 3762 3745 1
  4650 3763 3746 1
  4651 3764 3748 1
  4652 3765 3750 1
  4653 3766 3752 1
  4654 3767 3759 1
  4655 3768 3760 1
  4656 3795 3776 1
  4657 3796 3776 1
  4658 3797 3777 1
  4659 3798 3779 1
  4660 3799 3781 1
  4661 3800 3783 1
  4662 3801 3785 1
  4663 3802 3790 1
  4664 3826 3810 1
  4665 3827 3810 1
  4666 3828 3811 1
  4667 3829 3813 1
  4668 3830 3815 1
  4669 3831 3817 1
  4670 3832 3821 1
  4671 3833 3824 1
  4672 3834 3825 1
  4673 3858 3840 1
  4674 3859 3840 1
  4675 3860 3841 1
  4676 3861 3843 1
  4677 3862 3845 1
  4678 3863 3847 1
  4679 3864 3849 1
  4680 3865 3855 1
  4681 3881 3873 1
  4682 3882 3873 1
  4683 3883 3874 1
  4684 3884 3876 1
  4685 3885 3878 1
  4686 3886 3880 1
  4687 3887 3880 1
  4688 3901 3893 1
  4689 3902 3893 1
  4690 3903 3894 1
  4691 3904 3896 1
  4692 3905 3898 1
  4693 3906 3900 1
  4694 3907 3900 1
  4695 3931 3913 1
  4696 3932 3913 1
  4697 3933 3914 1
  4698 3934 3916 1
  4699 3935 3918 1
  4700 3936 3920 1
  4701 3937 3922 1
  4702 3938 3928 1
  4703 3962 3946 1
  4704 3963 3946 1
  4705 3964 3947 1
  4706 3965 3949 1
  4707 3966 3951 1
  4708 3967 3953 1
  4709 3968 3960 1
  4710 3969 3961 1
  4711 3993 3977 1
  4712 3994 3977 1
  4713 3995 3978 1
  4714 3996 3980 1
  4715 3997 3982 1
  4716 3998 3984 1
  4717 3999 3991 1
  4718 4000 3992 1
  4719 4024 4008 1
  4720 4025 4008 1
  4721 4026 4009 1
  4722 4027 4011 1
  4723 4028 4013 1
  4724 4029 4015 1
  4725 4030 4019 1
  4726 4031 4022 1
  4727 4032 4023 1
  4728 4057 4038 1
  4729 4058 4038 1
  4730 4059 4039 1
  4731 4060 4041 1
  4732 4061 4043 1
  4733 4062 4045 1
  4734 4063 4047 1
  4735 4064 4052 1
  4736 4090 4072 1
  4737 4091 4072 1
  4738 4092 4073 1
  4739 4093 4075 1
  4740 4094 4077 1
  4741 4095 4079 1
  4742 4096 4081 1
  4743 4097 4087 1
  4744 4121 4105 1
  4745 4122 4105 1
  4746 4123 4106 1
  4747 4124 4108 1
  4748 4125 4110 1
  4749 4126 4112 1
  4750 4127 4116 1
  4751 4128 4119 1
  4752 4129 4120 1
  4753 4151 4135 1
  4754 4152 4135 1
  4755 4153 4136 1
  4756 4154 4138 1
  4757 4155 4140 1
  4758 4156 4142 1
  4759 4157 4149 1
  4760 4158 4150 1
  4761 4182 4166 1
  4762 4183 4166 1
  4763 4184 4167 1
  4764 4185 4169 1
  4765 4186 4171 1
  4766 4187 4173 1
  4767 4188 4177 1
  4768 4189 4180 1
  4769 4190 4181 1
  4770 4215 4196 1
  4771 4216 4196 1
  4772 4217 4197 1
  4773 4218 4199 1
  4774 4219 4201 1
  4775 4220 4203 1
  4776 4221 4205 1
  4777 4222 4210 1
  4778 4249 4230 1
  4779 4250 4230 1
  4780 4251 4231 1
  4781 4252 4233 1
  4782 4253 4235 1
  4783 4254 4237 1
  4784 4255 4239 1
  4785 4256 4244 1
  4786 4282 4264 1
  4787 4283 4264 1
  4788 4284 4265 1
  4789 4285 4267 1
  4790 4286 4269 1
  4791 4287 4271 1
  4792 4288 4273 1
  4793 4289 4279 1
  4794 4313 4297 1
  4795 4314 4297 1
  4796 4315 4298 1
  4797 4316 4300 1
  4798 4317 4302 1
  4799 4318 4304 1
  4800 4319 4308 1
  4801 4320 4311 1
  4802 4321 4312 1
  4803 4345 4327 1
  4804 4346 4327 1
  4805 4347 4328 1
  4806 4348 4330 1
  4807 4349 4332 1
  4808 4350 4334 1
  4809 4351 4336 1
  4810 4352 4342 1
  4811 4378 4360 1
  4812 4379 4360 1
  4813 4380 4361 1
  4814 4381 4363 1
  4815 4382 4365 1
  4816 4383 4367 1
  4817 4384 4369 1
  4818 4385 4375 1
  4819 4409 4393 1
  4820 4410 4393 1
  4821 4411 4394 1
  4822 4412 4396 1
  4823 4413 4398 1
  4824 4414 4400 1
  4825 4415 4404 1
  4826 4416 4407 1
  4827 4417 4408 1
  4828 4442 4423 1
  4829 4443 4423 1
  4830 4444 4424 1
  4831 4445 4426 1
  4832 4446 4428 1
  4833 4447 4430 1
  4834 4448 4432 1
  4835 4449 4437 1
  4836 4473 4457 1
  4837 4474 4457 1
  4838 4475 4458 1
  4839 4476 4460 1
  4840 4477 4462 1
  4841 4478 4464 1
  4842 4479 4471 1
  4843 4480 4472 1
  4844 4504 4488 1
  4845 4505 4488 1
  4846 4506 4489 1
  4847 4507 4491 1
  4848 4508 4493 1
  4849 4509 4495 1
  4850 4510 4502 1
  4851 4511 4503 1
  4852 4537 4519 1
  4853 4538 4519 1
  4854 4539 4520 1
  4855 4540 4522 1
  4856 4541 4524 1
  4857 4542 4526 1
  4858 4543 4528 1
  4859 4544 4534 1
  4860 4571 4552 1
  4861 4572 4552 1
  4862 4573 4553 1
  4863 4574 4555 1
  4864 4575 4557 1
  4865 4576 4559 1
  4866 4577 4561 1
  4867 4578 4566 1
  4868 4602 4586 1
  4869 4603 4586 1
  4870 4604 4587 1
  4871 4605 4589 1
  4872 4606 4591 1
  4873 4607 4593 1
  4874 4608 4600 1
  4875 4609 4601 1
  4876 4636 4617 1
  4877 4637 4617 1
  4878 4638 4618 1
  4879 4639 4620 1
  4880 4640 4622 1
  4881 4641 4624 1
  4882 4642 4626 1
  4883 4643 4631 1
  4884 4667 4651 1
  4885 4668 4651 1
  4886 4669 4652 1
  4887 4670 4654 1
  4888 4671 4656 1
  4889 4672 4658 1
  4890 4673 4662 1
  4891 4674 4665 1
  4892 4675 4666 1
  4893 4699 4681 1
  4894 4700 4681 1
  4895 4701 4682 1
  4896 4702 4684 1
  4897 4703 4686 1
  4898 4704 4688 1
  4899 4705 4690 1
  4900 4706 4696 1
  4901 4733 4714 1
  4902 4734 4714 1
  4903 4735 4715 1
  4904 4736 4717 1
  4905 4737 4719 1
  4906 4738 4721 1
  4907 4739 4723 1
  4908 4740 4728 1
  4909 4767 4748 1
  4910 4768 4748 1
  4911 4769 4749 1
  4912 4770 4751 1
  4913 4771 4753 1
  4914 4772 4755 1
  4915 4773 4757 1
  4916 4774 4762 1
  4917 4801 4782 1
  4918 4802 4782 1
  4919 4803 4783 1
  4920 4804 4785 1
  4921 4805 4787 1
  4922 4806 4789 1
  4923 4807 4791 1
  4924 4808 4796 1
  4925 4834 4816 1
  4926 4835 4816 1
  4927 4836 4817 1
  4928 4837 4819 1
  4929 4838 4821 1
  4930 4839 4823 1
  4931 4840 4825 1
  4932 4841 4831 1
  4933 4867 4849 1
  4934 4868 4849 1
  4935 4869 4850 1
  4936 4870 4852 1
  4937 4871 4854 1
  4938 4872 4856 1
  4939 4873 4858 1
  4940 4874 4864 1
  4941 4901 4882 1
  4942 4902 4882 1
  4943 4903 4883 1
  4944 4904 4885 1
  4945 4905 4887 1
  4946 4906 4889 1
  4947 4907 4891 1
  4948 4908 4896 1
  4949 4932 4916 1
  4950 4933 4916 1
  4951 4934 4917 1
  4952 4935 4919 1
  4953 4936 4921 1
  4954 4937 4923 1
  4955 4938 4927 1
  4956 4939 4930 1
  4957 4940 4931 1
  4958 4962 4946 1
  4959 4963 4946 1
  4960 4964 4947 1
  4961 4965 4949 1
  4962 4966 4951 1
  4963 4967 4953 1
  4964 4968 4957 1
  4965 4969 4960 1
  4966 4970 4961 1
  4967   29   18 1
  4968   30   18 1
  4969   94   83 1
  4970   95   83 1
  4971  155  144 1
  4972  156  144 1
  4973  189  178 1
  4974  190  178 1
  4975  223  212 1
  4976  224  212 1
  4977  257  246 1
  4978  258  246 1
  4979  291  280 1
  4980  292  280 1
  4981  355  344 1
  4982  356  344 1
  4983  386  375 1
  4984  387  375 1
  4985  417  406 1
  4986  418  406 1
  4987  448  437 1
  4988  449  437 1
  4989  539  528 1
  4990  540  528 1
  4991  603  592 1
  4992  604  592 1
  4993  634  623 1
  4994  635  623 1
  4995  668  657 1
  4996  669  657 1
  4997  732  721 1
  4998  733  721 1
  4999  832  821 1
  5000  833  821 1
  5001  866  855 1
  5002  867  855 1
  5003  897  886 1
  5004  898  886 1
  5005  961  950 1
  5006  962  950 1
  5007 1028 1017 1
  5008 1029 1017 1
  5009 1211 1200 1
  5010 1212 1200 1
  5011 1242 1231 1
  5012 1243 1231 1
  5013 1273 1262 1
  5014 1274 1262 1
  5015 1307 1296 1
  5016 1308 1296 1
  5017 1484 1473 1
  5018 1485 1473 1
  5019 1515 1504 1
  5020 1516 1504 1
  5021 1579 1568 1
  5022 1580 1568 1
  5023 1673 1662 1
  5024 1674 1662 1
  5025 1737 1726 1
  5026 1738 1726 1
  5027 1771 1760 1
  5028 1772 1760 1
  5029 1964 1953 1
  5030 1965 1953 1
  5031 1995 1984 1
  5032 1996 1984 1
  5033 2026 2015 1
  5034 2027 2015 1
  5035 2093 2082 1
  5036 2094 2082 1
  5037 2124 2113 1
  5038 2125 2113 1
  5039 2158 2147 1
  5040 2159 2147 1
  5041 2255 2244 1
  5042 2256 2244 1
  5043 2289 2278 1
  5044 2290 2278 1
  5045 2323 2312 1
  5046 2324 2312 1
  5047 2423 2412 1
  5048 2424 2412 1
  5049 2515 2504 1
  5050 2516 2504 1
  5051 2580 2569 1
  5052 2581 2569 1
  5053 2641 2630 1
  5054 2642 2630 1
  5055 2675 2664 1
  5056 2676 2664 1
  5057 2709 2698 1
  5058 2710 2698 1
  5059 2743 2732 1
  5060 2744 2732 1
  5061 2777 2766 1
  5062 2778 2766 1
  5063 2841 2830 1
  5064 2842 2830 1
  5065 2872 2861 1
  5066 2873 2861 1
  5067 2903 2892 1
  5068 2904 2892 1
  5069 2934 2923 1
  5070 2935 2923 1
  5071 3025 3014 1
  5072 3026 3014 1
  5073 3089 3078 1
  5074 3090 3078 1
  5075 3120 3109 1
  5076 3121 3109 1
  5077 3154 3143 1
  5078 3155 3143 1
  5079 3218 3207 1
  5080 3219 3207 1
  5081 3318 3307 1
  5082 3319 3307 1
  5083 3352 3341 1
  5084 3353 3341 1
  5085 3383 3372 1
  5086 3384 3372 1
  5087 3447 3436 1
  5088 3448 3436 1
  5089 3514 3503 1
  5090 3515 3503 1
  5091 3707 3696 1
  5092 3708 3696 1
  5093 3738 3727 1
  5094 3739 3727 1
  5095 3769 3758 1
  5096 3770 3758 1
  5097 3803 3792 1
  5098 3804 3792 1
  5099 3970 3959 1
  5100 3971 3959 1
  5101 4001 3990 1
  5102 4002 3990 1
  5103 4065 4054 1
  5104 4066 4054 1
  5105 4159 4148 1
  5106 4160 4148 1
  5107 4223 4212 1
  5108 4224 4212 1
  5109 4257 4246 1
  5110 4258 4246 1
  5111 4450 4439 1
  5112 4451 4439 1
  5113 4481 4470 1
  5114 4482 4470 1
  5115 4512 4501 1
  5116 4513 4501 1
  5117 4579 4568 1
  5118 4580 4568 1
  5119 4610 4599 1
  5120 4611 4599 1
  5121 4644 4633 1
  5122 4645 4633 1
  5123 4741 4730 1
  5124 4742 4730 1
  5125 4775 4764 1
  5126 4776 4764 1
  5127 4809 4798 1
  5128 4810 4798 1
  5129 4909 4898 1
  5130 4910 4898 1
  5131 3645 3626 1
  5132 3866 3846 1
  5133 3547 3527 1
  5134 4875 4855 1
  5135 1149 1140 1
  5136 3709 3689 1
  5137 2874 2854 1
  5138 1966 1943 1
  5139 1213 1193 1
  5140 3771 3751 1
  5141 4322 4303 1
  5142 1612 1592 1
  5143 1836 1817 1
  5144 1275 1255 1
  5145  388  368 1
  5146  419  399 1
  5147 4353 4333 1
  5148 3835 3816 1
  5149  571  552 1
  5150 4098 4078 1
  5151  225  202 1
  5152 2905 2885 1
  5153 4386 4366 1
  5154  963  940 1
  5155 4941 4922 1
  5156 4033 4014 1
  5157 1061 1041 1
  5158 2745 2722 1
  5159 3972 3952 1
  5160 1339 1320 1
  5161 4545 4525 1
  5162 2517 2494 1
  5163 4676 4657 1
  5164 1900 1880 1
  5165  700  681 1
  5166 1867 1847 1
  5167 2966 2947 1
  5168 3613 3593 1
  5169  259  236 1
  5170 1486 1466 1
  5171  126  107 1
  5172 3415 3396 1
  5173 4191 4172 1
  5174 2779 2756 1
  5175 4452 4429 1
  5176 3449 3426 1
  5177 3186 3167 1
  5178 4483 4463 1
  5179 1309 1286 1
  5180 2711 2688 1
  5181  765  745 1
  5182  480  461 1
  5183 1547 1528 1
  5184 2425 2402 1
  5185  510  491 1
  5186 2996 2977 1
  5187 4646 4623 1
  5188 1997 1977 1
  5189 1739 1716 1
  5190 3480 3460 1
  5191 1644 1625 1
  5192 2612 2593 1
  5193 3057 3038 1
  5194 2059 2039 1
  5195 1094 1074 1
  5196  899  879 1
  5197 2356 2336 1
  5198 4842 4822 1
  5199 3740 3720 1
  5200 1244 1224 1
  5201 1901 1887 1
  5202 1902 1887 1
  5203 2357 2343 1
  5204 2358 2343 1
  5205 1062 1048 1
  5206 1063 1048 1
  5207 1370 1357 1
  5208 1371 1357 1
  5209 2060 2046 1
  5210 2061 2046 1
  5211 1453 1440 1
  5212 1454 1440 1
  5213  994  981 1
  5214  995  981 1
  5215 3580 3567 1
  5216 3581 3567 1
  5217 4876 4862 1
  5218 4877 4862 1
  5219 1613 1599 1
  5220 1614 1599 1
  5221 2221 2208 1
  5222 2222 2208 1
  5223 3284 3271 1
  5224 3285 3271 1
  5225 4354 4340 1
  5226 4355 4340 1
  5227 4843 4829 1
  5228 4844 4829 1
  5229 4099 4085 1
  5230 4100 4085 1
  5231 2389 2376 1
  5232 2390 2376 1
  5233 3676 3663 1
  5234 3677 3663 1
  5235 1095 1081 1
  5236 1096 1081 1
  5237  798  785 1
  5238  799  785 1
  5239 1180 1167 1
  5240 1181 1167 1
  5241 1868 1854 1
  5242 1869 1854 1
  5243 2549 2536 1
  5244 2550 2536 1
  5245 3614 3600 1
  5246 3615 3600 1
  5247 4387 4373 1
  5248 4388 4373 1
  5249  766  752 1
  5250  767  752 1
  5251 1804 1791 1
  5252 1805 1791 1
  5253 4290 4277 1
  5254 4291 4277 1
  5255 3548 3534 1
  5256 3549 3534 1
  5257 4546 4532 1
  5258 4547 4532 1
  5259 3251 3238 1
  5260 3252 3238 1
  5261 3481 3467 1
  5262 3482 3467 1
  5263   63   50 1
  5264   64   50 1
  5265 1127 1114 1
  5266 1128 1114 1
  5267 4707 4694 1
  5268 4708 4694 1
  5269 3867 3853 1
  5270 3868 3853 1
  5271 3939 3926 1
  5272 3940 3926 1
  5273 1455 1433 1
  5274 2325 2302 1
  5275  868  845 1
  5276 3941 3919 1
  5277 4811 4788 1
  5278 3354 3331 1
  5279 3385 3365 1
  5280  191  168 1
  5281 2809 2790 1
  5282 2677 2654 1
  5283 4418 4399 1
  5284 2160 2137 1
  5285 3678 3656 1
  5286 1402 1383 1
  5287 2936 2916 1
  5288   96   76 1
  5289 2190 2171 1
  5290 1422 1413 1
  5291  157  137 1
  5292 3516 3493 1
  5293 3582 3560 1
  5294 2223 2201 1
  5295 4514 4494 1
  5296 3220 3197 1
  5297 2257 2234 1
  5298 3027 3007 1
  5299 1517 1497 1
  5300 4292 4270 1
  5301 3805 3782 1
  5302 2291 2268 1
  5303  929  910 1
  5304 1705 1686 1
  5305  800  778 1
  5306 3091 3068 1
  5307 1581 1558 1
  5308   31    8 1
  5309  834  811 1
  5310 3122 3102 1
  5311  996  974 1
  5312 1773 1750 1
  5313 3888 3879 1
  5314 2843 2820 1
  5315 2391 2369 1
  5316 3156 3133 1
  5317 1030 1007 1
  5318 3908 3899 1
  5319 1806 1784 1
  5320 1675 1655 1
  5321 4581 4558 1
  5322 3253 3231 1
  5323 2455 2436 1
  5324 4743 4720 1
  5325 4003 3983 1
  5326 4612 4592 1
  5327 2485 2464 1
  5328 2486 2466 1
  5329 4777 4754 1
  5330  357  334 1
  5331 3286 3264 1
  5332 4067 4044 1
  5333 2551 2529 1
  5334 3320 3297 1
  5335   65   43 1
  5336 4709 4687 1
  5337 2582 2562 1
  5338  323  304 1
  5339 4130 4111 1
  5340  636  616 1
  5341 4911 4888 1
  5342 2028 2008 1
  5343 4161 4141 1
  5344 2643 2623 1
  5345 1129 1107 1
  5346 2126 2106 1
  5347  541  521 1
  5348 4971 4950 1
  5349 1932 1913 1
  5350 4972 4952 1
  5351 2095 2072 1
  5352 4225 4202 1
  5353 1182 1160 1
  5354  734  711 1
  5355  293  270 1
  5356  605  582 1
  5357  450  430 1
  5358 4259 4236 1
  5359 1372 1350 1
  5360  670  647 1
  5361   32    1 1
  5362 2518 2487 1
@<TRIPOS>SUBSTRUCTURE
     1   G11       3 RESIDUE           4 A       G     1 ROOT
     2   A12      38 RESIDUE           4 A       A     2
     3   C13      71 RESIDUE           4 A       C     2
     4   U14     102 RESIDUE           4 A       U     2
     5   C15     132 RESIDUE           4 A       C     2
     6   G16     163 RESIDUE           4 A       G     2
     7   G17     197 RESIDUE           4 A       G     2
     8   G18     231 RESIDUE           4 A       G     2
     9   G19     265 RESIDUE           4 A       G     2
    10   U20     299 RESIDUE           4 A       U     2
    11   G21     329 RESIDUE           4 A       G     2
    12   C22     363 RESIDUE           4 A       C     2
    13   C23     394 RESIDUE           4 A       C     2
    14   C24     425 RESIDUE           4 A       C     2
    15   U25     456 RESIDUE           4 A       U     2
    16   U26     486 RESIDUE           4 A       U     2
    17   C27     516 RESIDUE           4 A       C     2
    18   U28     547 RESIDUE           4 A       U     2
    19   G29     577 RESIDUE           4 A       G     2
    20   C30     611 RESIDUE           4 A       C     2
    21   G31     642 RESIDUE           4 A       G     2
    22   U32     676 RESIDUE           4 A       U     2
    23   G33     706 RESIDUE           4 A       G     2
    24   A34     740 RESIDUE           4 A       A     2
    25   A35     773 RESIDUE           4 A       A     2
    26   G36     806 RESIDUE           4 A       G     2
    27   G37     840 RESIDUE           4 A       G     2
    28   C38     874 RESIDUE           4 A       C     2
    29   U39     905 RESIDUE           4 A       U     2
    30   G40     935 RESIDUE           4 A       G     2
    31   A41     969 RESIDUE           4 A       A     2
    32   G42    1002 RESIDUE           4 A       G     2
    33   A43    1036 RESIDUE           4 A       A     2
    34   A44    1069 RESIDUE           4 A       A     2
    35   A45    1102 RESIDUE           4 A       A     2
    36   U46    1135 RESIDUE           4 A       U     2
    37   A47    1155 RESIDUE           4 A       A     2
    38   C48    1188 RESIDUE           4 A       C     2
    39   C49    1219 RESIDUE           4 A       C     2
    40   C50    1250 RESIDUE           4 A       C     2
    41   G51    1281 RESIDUE           4 A       G     2
    42   U52    1315 RESIDUE           4 A       U     2
    43   A53    1345 RESIDUE           4 A       A     2
    44   U54    1378 RESIDUE           4 A       U     2
    45   C55    1408 RESIDUE           4 A       C     2
    46   A56    1428 RESIDUE           4 A       A     2
    47   C57    1461 RESIDUE           4 A       C     2
    48   C58    1492 RESIDUE           4 A       C     2
    49   U59    1523 RESIDUE           4 A       U     2
    50   G60    1553 RESIDUE           4 A       G     2
    51   A61    1587 RESIDUE           4 A       A     2
    52   U62    1620 RESIDUE           4 A       U     2
    53   C63    1650 RESIDUE           4 A       C     2
    54   U64    1681 RESIDUE           4 A       U     2
    55   G65    1711 RESIDUE           4 A       G     2
    56   G66    1745 RESIDUE           4 A       G     2
    57   A67    1779 RESIDUE           4 A       A     2
    58   U68    1812 RESIDUE           4 A       U     2
    59   A69    1842 RESIDUE           4 A       A     2
    60   A70    1875 RESIDUE           4 A       A     2
    61   U71    1908 RESIDUE           4 A       U     2
    62   G72    1938 RESIDUE           4 A       G     2
    63   C73    1972 RESIDUE           4 A       C     2
    64   C74    2003 RESIDUE           4 A       C     2
    65   A75    2034 RESIDUE           4 A       A     2
    66   G76    2067 RESIDUE           4 A       G     2
    67   C77    2101 RESIDUE           4 A       C     2
    68   G78    2132 RESIDUE           4 A       G     2
    69   U79    2166 RESIDUE           4 A       U     2
    70   A80    2196 RESIDUE           4 A       A     2
    71   G81    2229 RESIDUE           4 A       G     2
    72   G82    2263 RESIDUE           4 A       G     2
    73   G83    2297 RESIDUE           4 A       G     2
    74   A84    2331 RESIDUE           4 A       A     2
    75   A85    2364 RESIDUE           4 A       A     2
    76   G86    2397 RESIDUE           4 A       G     2
    77   U87    2431 RESIDUE           4 A       U     2
    78   U88    2461 RESIDUE           4 A       U     1
    79   G11    2489 RESIDUE           4 B       G     1 ROOT
    80   A12    2524 RESIDUE           4 B       A     2
    81   C13    2557 RESIDUE           4 B       C     2
    82   U14    2588 RESIDUE           4 B       U     2
    83   C15    2618 RESIDUE           4 B       C     2
    84   G16    2649 RESIDUE           4 B       G     2
    85   G17    2683 RESIDUE           4 B       G     2
    86   G18    2717 RESIDUE           4 B       G     2
    87   G19    2751 RESIDUE           4 B       G     2
    88   U20    2785 RESIDUE           4 B       U     2
    89   G21    2815 RESIDUE           4 B       G     2
    90   C22    2849 RESIDUE           4 B       C     2
    91   C23    2880 RESIDUE           4 B       C     2
    92   C24    2911 RESIDUE           4 B       C     2
    93   U25    2942 RESIDUE           4 B       U     2
    94   U26    2972 RESIDUE           4 B       U     2
    95   C27    3002 RESIDUE           4 B       C     2
    96   U28    3033 RESIDUE           4 B       U     2
    97   G29    3063 RESIDUE           4 B       G     2
    98   C30    3097 RESIDUE           4 B       C     2
    99   G31    3128 RESIDUE           4 B       G     2
   100   U32    3162 RESIDUE           4 B       U     2
   101   G33    3192 RESIDUE           4 B       G     2
   102   A34    3226 RESIDUE           4 B       A     2
   103   A35    3259 RESIDUE           4 B       A     2
   104   G36    3292 RESIDUE           4 B       G     2
   105   G37    3326 RESIDUE           4 B       G     2
   106   C38    3360 RESIDUE           4 B       C     2
   107   U39    3391 RESIDUE           4 B       U     2
   108   G40    3421 RESIDUE           4 B       G     2
   109   A41    3455 RESIDUE           4 B       A     2
   110   G42    3488 RESIDUE           4 B       G     2
   111   A43    3522 RESIDUE           4 B       A     2
   112   A44    3555 RESIDUE           4 B       A     2
   113   A45    3588 RESIDUE           4 B       A     2
   114   U46    3621 RESIDUE           4 B       U     2
   115   A47    3651 RESIDUE           4 B       A     2
   116   C48    3684 RESIDUE           4 B       C     2
   117   C49    3715 RESIDUE           4 B       C     2
   118   C50    3746 RESIDUE           4 B       C     2
   119   G51    3777 RESIDUE           4 B       G     2
   120   U52    3811 RESIDUE           4 B       U     2
   121   A53    3841 RESIDUE           4 B       A     2
   122   U54    3874 RESIDUE           4 B       U     2
   123   C55    3894 RESIDUE           4 B       C     2
   124   A56    3914 RESIDUE           4 B       A     2
   125   C57    3947 RESIDUE           4 B       C     2
   126   C58    3978 RESIDUE           4 B       C     2
   127   U59    4009 RESIDUE           4 B       U     2
   128   G60    4039 RESIDUE           4 B       G     2
   129   A61    4073 RESIDUE           4 B       A     2
   130   U62    4106 RESIDUE           4 B       U     2
   131   C63    4136 RESIDUE           4 B       C     2
   132   U64    4167 RESIDUE           4 B       U     2
   133   G65    4197 RESIDUE           4 B       G     2
   134   G66    4231 RESIDUE           4 B       G     2
   135   A67    4265 RESIDUE           4 B       A     2
   136   U68    4298 RESIDUE           4 B       U     2
   137   A69    4328 RESIDUE           4 B       A     2
   138   A70    4361 RESIDUE           4 B       A     2
   139   U71    4394 RESIDUE           4 B       U     2
   140   G72    4424 RESIDUE           4 B       G     2
   141   C73    4458 RESIDUE           4 B       C     2
   142   C74    4489 RESIDUE           4 B       C     2
   143   A75    4520 RESIDUE           4 B       A     2
   144   G76    4553 RESIDUE           4 B       G     2
   145   C77    4587 RESIDUE           4 B       C     2
   146   G78    4618 RESIDUE           4 B       G     2
   147   U79    4652 RESIDUE           4 B       U     2
   148   A80    4682 RESIDUE           4 B       A     2
   149   G81    4715 RESIDUE           4 B       G     2
   150   G82    4749 RESIDUE           4 B       G     2
   151   G83    4783 RESIDUE           4 B       G     2
   152   A84    4817 RESIDUE           4 B       A     2
   153   A85    4850 RESIDUE           4 B       A     2
   154   G86    4883 RESIDUE           4 B       G     2
   155   U87    4917 RESIDUE           4 B       U     2
   156   U88    4947 RESIDUE           4 B       U     1
