@<TRIPOS>MOLECULE
1Y26.pdb
2257 2432 71 0 0
NUCLEIC_ACID
AMBER ff14SB


@<TRIPOS>ATOM
      1 O5'         0.0470   -6.9590    1.4890 O.3       1   C13      -0.6223
      2 C5'         1.1060   -6.8460    0.5280 C.3       1   C13       0.0558
      3 C4'         0.6590   -6.1750   -0.7640 C.3       1   C13       0.1065
      4 O4'        -0.1850   -5.0250   -0.4770 O.3       1   C13      -0.3548
      5 C3'         1.7900   -5.5920   -1.6020 C.3       1   C13       0.2022
      6 O3'         2.4080   -6.5690   -2.4380 O.3       1   C13      -0.5246
      7 C2'         1.0530   -4.5380   -2.4190 C.3       1   C13       0.0670
      8 O2'         0.2970   -5.0900   -3.4840 O.3       1   C13      -0.6139
      9 C1'         0.1340   -3.9450   -1.3500 C.3       1   C13       0.0066
     10 N1          0.6640   -2.7440   -0.5540 N.am      1   C13      -0.0484
     11 C2          1.1730   -1.5720   -1.1810 C.2       1   C13       0.7538
     12 O2          1.2250   -1.4660   -2.4140 O.2       1   C13      -0.6252
     13 N3          1.6210   -0.5420   -0.4110 N.2       1   C13      -0.7584
     14 C4          1.5790   -0.6400    0.9200 C.2       1   C13       0.8185
     15 N4          2.0370    0.3920    1.6290 N.pl3     1   C13      -0.9530
     16 C5          1.0680   -1.8040    1.5810 C.2       1   C13      -0.5215
     17 C6          0.6260   -2.8090    0.8150 C.2       1   C13       0.0053
     18 H5'         1.4715   -7.8457    0.2931 H         1   C13       0.0679
     19 H5''        1.9190   -6.2659    0.9646 H         1   C13       0.0679
     20 H4'         0.0985   -6.8908   -1.3653 H         1   C13       0.1174
     21 H3'         2.5329   -5.1204   -0.9587 H         1   C13       0.0615
     22 H2'         1.7474   -3.7843   -2.7904 H         1   C13       0.0972
     23 H1'        -0.7878   -3.6345   -1.8420 H         1   C13       0.2029
     24 H5          1.0404   -1.8683    2.6587 H         1   C13       0.1928
     25 H6          0.2288   -3.6949    1.2882 H         1   C13       0.1958
     26 H41         2.3971    1.2090    1.1568 H         1   C13       0.4234
     27 H42         2.0239    0.3568    2.6383 H         1   C13       0.4234
     28 HO5'        0.3782   -7.3867    2.2821 H         1   C13       0.4295
     29 HO2'        0.8915   -5.4561   -4.1429 H         1   C13       0.4186
     30 P           3.9690   -6.8910   -2.2980 P.3       2   G14       1.1662
     31 OP1         4.0950   -8.3660   -2.2740 O.co2     2   G14      -0.7760
     32 OP2         4.5270   -6.1240   -1.1620 O.co2     2   G14      -0.7760
     33 O5'         4.6410   -6.3760   -3.6580 O.3       2   G14      -0.4989
     34 C5'         3.9010   -5.7270   -4.6870 C.3       2   G14       0.0558
     35 C4'         4.5480   -4.4240   -5.1370 C.3       2   G14       0.1065
     36 O4'         3.7960   -3.2930   -4.6180 O.3       2   G14      -0.3548
     37 C3'         5.9760   -4.1560   -4.6680 C.3       2   G14       0.2022
     38 O3'         6.9500   -4.8640   -5.4480 O.3       2   G14      -0.5246
     39 C2'         6.0410   -2.6470   -4.8760 C.3       2   G14       0.0670
     40 O2'         6.1760   -2.2900   -6.2350 O.3       2   G14      -0.6139
     41 C1'         4.6770   -2.2150   -4.3470 C.3       2   G14       0.0191
     42 N9          4.6980   -1.9060   -2.9110 N.ar      2   G14       0.0492
     43 C8          4.2990   -2.7210   -1.8750 C.ar      2   G14       0.1374
     44 N7          4.4390   -2.1880   -0.6920 N.ar      2   G14      -0.5709
     45 C5          4.9720   -0.9330   -0.9510 C.ar      2   G14       0.1744
     46 C6          5.3360    0.1050   -0.0540 C.2       2   G14       0.4770
     47 O6          5.2590    0.1160    1.1830 O.2       2   G14      -0.5597
     48 N1          5.8430    1.2190   -0.7260 N.am      2   G14      -0.4787
     49 C2          5.9760    1.3190   -2.0950 C.2       2   G14       0.7657
     50 N2          6.4820    2.4690   -2.5650 N.pl3     2   G14      -0.9672
     51 N3          5.6360    0.3530   -2.9440 N.2       2   G14      -0.6323
     52 C4          5.1420   -0.7440   -2.3090 C.ar      2   G14       0.1222
     53 H5'         3.8322   -6.3972   -5.5439 H         2   G14       0.0679
     54 H5''        2.8962   -5.5156   -4.3212 H         2   G14       0.0679
     55 H4'         4.5272   -4.3842   -6.2261 H         2   G14       0.1174
     56 H3'         6.0827   -4.4004   -3.6111 H         2   G14       0.0615
     57 H2'         6.8422   -2.2094   -4.2805 H         2   G14       0.0972
     58 H1'         4.3435   -1.3348   -4.8966 H         2   G14       0.2006
     59 H8          3.9046   -3.7147   -2.0282 H         2   G14       0.1640
     60 H1          6.1336    2.0095   -0.1686 H         2   G14       0.3424
     61 H21         6.7423    3.2053   -1.9245 H         2   G14       0.4364
     62 H22         6.6027    2.5986   -3.5594 H         2   G14       0.4364
     63 HO2'        6.8445   -1.6065   -6.3219 H         2   G14       0.4186
     64 P           8.3500   -5.3350   -4.8070 P.3       3   C15       1.1662
     65 OP1         9.0750   -6.1340   -5.8260 O.co2     3   C15      -0.7760
     66 OP2         8.1040   -5.9270   -3.4630 O.co2     3   C15      -0.7760
     67 O5'         9.1480   -3.9650   -4.6450 O.3       3   C15      -0.4989
     68 C5'         9.6070   -3.2870   -5.7980 C.3       3   C15       0.0558
     69 C4'        10.0080   -1.8810   -5.4200 C.3       3   C15       0.1065
     70 O4'         8.9360   -1.2620   -4.6630 O.3       3   C15      -0.3548
     71 C3'        11.2010   -1.8130   -4.4850 C.3       3   C15       0.2022
     72 O3'        12.4250   -1.9290   -5.2030 O.3       3   C15      -0.5246
     73 C2'        11.0030   -0.4450   -3.8440 C.3       3   C15       0.0670
     74 O2'        11.4320    0.6200   -4.6750 O.3       3   C15      -0.6139
     75 C1'         9.4840   -0.4110   -3.6660 C.3       3   C15       0.0066
     76 N1          9.0200   -0.8130   -2.2750 N.am      3   C15      -0.0484
     77 C2          9.0830    0.1280   -1.2290 C.2       3   C15       0.7538
     78 O2          9.5090    1.2720   -1.4400 O.2       3   C15      -0.6252
     79 N3          8.6700   -0.2430    0.0080 N.2       3   C15      -0.7584
     80 C4          8.2080   -1.4760    0.2310 C.2       3   C15       0.8185
     81 N4          7.8180   -1.7620    1.4750 N.pl3     3   C15      -0.9530
     82 C5          8.1330   -2.4540   -0.8090 C.2       3   C15      -0.5215
     83 C6          8.5440   -2.0790   -2.0300 C.2       3   C15       0.0053
     84 H5'        10.4676   -3.8128   -6.2117 H         3   C15       0.0679
     85 H5''        8.8103   -3.2513   -6.5410 H         3   C15       0.0679
     86 H4'        10.2094   -1.2993   -6.3195 H         3   C15       0.1174
     87 H3'        11.1322   -2.5959   -3.7297 H         3   C15       0.0615
     88 H2'        11.5026   -0.4001   -2.8763 H         3   C15       0.0972
     89 H1'         9.1409    0.6054   -3.8593 H         3   C15       0.2029
     90 H5          7.7620   -3.4505   -0.6203 H         3   C15       0.1928
     91 H6          8.4997   -2.7904   -2.8414 H         3   C15       0.1958
     92 H41         7.8789   -1.0589    2.1975 H         3   C15       0.4234
     93 H42         7.4620   -2.6815    1.6938 H         3   C15       0.4234
     94 HO2'       12.1965    1.0462   -4.2806 H         3   C15       0.4186
     95 P          13.6890   -2.6270   -4.4990 P.3       4   U16       1.1662
     96 OP1        14.7660   -2.7290   -5.5130 O.co2     4   U16      -0.7760
     97 OP2        13.2360   -3.8420   -3.7700 O.co2     4   U16      -0.7760
     98 O5'        14.1450   -1.5370   -3.4270 O.3       4   U16      -0.4989
     99 C5'        14.5210   -0.2250   -3.8350 C.3       4   U16       0.0558
    100 C4'        14.7350    0.6250   -2.6030 C.3       4   U16       0.1065
    101 O4'        13.4670    0.8720   -1.9420 O.3       4   U16      -0.3548
    102 C3'        15.5820   -0.0660   -1.5470 C.3       4   U16       0.2022
    103 O3'        16.9570    0.1310   -1.8090 O.3       4   U16      -0.5246
    104 C2'        15.1570    0.6560   -0.2800 C.3       4   U16       0.0670
    105 O2'        15.9280    1.8120   -0.0190 O.3       4   U16      -0.6139
    106 C1'        13.6860    0.9900   -0.5460 C.3       4   U16       0.0674
    107 N1         12.8220    0.0450    0.2310 N.am      4   U16       0.0418
    108 C2         12.6310    0.2950    1.5820 C.2       4   U16       0.4687
    109 O2         13.1140    1.2530    2.1650 O.2       4   U16      -0.5477
    110 N3         11.8440   -0.6250    2.2340 N.am      4   U16      -0.3549
    111 C4         11.2490   -1.7490    1.6850 C.2       4   U16       0.5952
    112 O4         10.5680   -2.4750    2.4010 O.2       4   U16      -0.5761
    113 C5         11.4990   -1.9500    0.2780 C.2       4   U16      -0.3635
    114 C6         12.2600   -1.0650   -0.3820 C.2       4   U16      -0.1126
    115 H5'        13.7302    0.2091   -4.4468 H         4   U16       0.0679
    116 H5''       15.4449   -0.2722   -4.4115 H         4   U16       0.0679
    117 H4'        15.1955    1.5722   -2.8837 H         4   U16       0.1174
    118 H3'        15.3440   -1.1281   -1.4894 H         4   U16       0.0615
    119 H2'        15.2270   -0.0260    0.5674 H         4   U16       0.0972
    120 H1'        13.4820    2.0132   -0.2305 H         4   U16       0.1824
    121 H3         11.6826   -0.4641    3.2179 H         4   U16       0.3154
    122 H5         11.0789   -2.8016   -0.2364 H         4   U16       0.1811
    123 H6         12.4429   -1.2231   -1.4346 H         4   U16       0.2188
    124 HO2'       16.4767    1.6633    0.7546 H         4   U16       0.4186
    125 P          18.0360   -0.9660   -1.3670 P.3       5   U17       1.1662
    126 OP1        19.3480   -0.3330   -1.6390 O.co2     5   U17      -0.7760
    127 OP2        17.7000   -2.2710   -1.9930 O.co2     5   U17      -0.7760
    128 O5'        17.8330   -1.1130    0.2170 O.3       5   U17      -0.4989
    129 C5'        18.9190   -0.9680    1.1120 C.3       5   U17       0.0558
    130 C4'        18.6240    0.0890    2.1590 C.3       5   U17       0.1065
    131 O4'        17.2470    0.5620    2.0990 O.3       5   U17      -0.3548
    132 C3'        18.7720   -0.4300    3.5770 C.3       5   U17       0.2022
    133 O3'        20.1250   -0.3800    3.9780 O.3       5   U17      -0.5246
    134 C2'        17.8750    0.5290    4.3490 C.3       5   U17       0.0670
    135 O2'        18.4490    1.8060    4.5190 O.3       5   U17      -0.6139
    136 C1'        16.6770    0.5870    3.4020 C.3       5   U17       0.0674
    137 N1         15.6750   -0.5550    3.5970 N.am      5   U17       0.0418
    138 C2         15.0110   -0.7170    4.8150 C.2       5   U17       0.4687
    139 O2         15.1620    0.0110    5.7810 O.2       5   U17      -0.5477
    140 N3         14.1380   -1.7820    4.8750 N.am      5   U17      -0.3549
    141 C4         13.8590   -2.6920    3.8650 C.2       5   U17       0.5952
    142 O4         13.0570   -3.5990    4.0610 O.2       5   U17      -0.5761
    143 C5         14.5830   -2.4740    2.6340 C.2       5   U17      -0.3635
    144 C6         15.4360   -1.4410    2.5530 C.2       5   U17      -0.1126
    145 H5'        19.1005   -1.9209    1.6091 H         5   U17       0.0679
    146 H5''       19.8090   -0.6801    0.5524 H         5   U17       0.0679
    147 H4'        19.2986    0.9330    2.0149 H         5   U17       0.1174
    148 H3'        18.3913   -1.4487    3.6504 H         5   U17       0.0615
    149 H2'        17.5885    0.1022    5.3102 H         5   U17       0.0972
    150 H1'        16.1613    1.5368    3.5433 H         5   U17       0.1824
    151 H3         13.6484   -1.9144    5.7484 H         5   U17       0.3154
    152 H5         14.4398   -3.1332    1.7906 H         5   U17       0.1811
    153 H6         15.9665   -1.2897    1.6245 H         5   U17       0.2188
    154 HO2'       19.1978    1.7438    5.1165 H         5   U17       0.4186
    155 P          20.8990   -1.7350    4.3200 P.3       6   C18       1.1662
    156 OP1        22.3420   -1.4200    4.3610 O.co2     6   C18      -0.7760
    157 OP2        20.4210   -2.8090    3.4160 O.co2     6   C18      -0.7760
    158 O5'        20.4020   -2.0630    5.8110 O.3       6   C18      -0.4989
    159 C5'        20.5470   -1.1260    6.8710 C.3       6   C18       0.0558
    160 C4'        19.4880   -1.3330    7.9400 C.3       6   C18       0.1065
    161 O4'        18.1550   -1.2970    7.3650 O.3       6   C18      -0.3548
    162 C3'        19.5130   -2.6830    8.6340 C.3       6   C18       0.2022
    163 O3'        20.5430   -2.7600    9.5970 O.3       6   C18      -0.5246
    164 C2'        18.1200   -2.7490    9.2480 C.3       6   C18       0.0670
    165 O2'        17.9540   -1.9470   10.4080 O.3       6   C18      -0.6139
    166 C1'        17.3020   -2.1830    8.0860 C.3       6   C18       0.0066
    167 N1         16.7180   -3.2340    7.1640 N.am      6   C18      -0.0484
    168 C2         15.7560   -4.1440    7.6430 C.2       6   C18       0.7538
    169 O2         15.3860   -4.1010    8.8220 O.2       6   C18      -0.6252
    170 N3         15.2450   -5.0720    6.7940 N.2       6   C18      -0.7584
    171 C4         15.6480   -5.1190    5.5210 C.2       6   C18       0.8185
    172 N4         15.1100   -6.0570    4.7320 N.pl3     6   C18      -0.9530
    173 C5         16.6250   -4.2090    5.0100 C.2       6   C18      -0.5215
    174 C6         17.1210   -3.2940    5.8560 C.2       6   C18       0.0053
    175 H5'        21.5328   -1.2477    7.3198 H         6   C18       0.0679
    176 H5''       20.4585   -0.1161    6.4705 H         6   C18       0.0679
    177 H4'        19.5761   -0.5449    8.6878 H         6   C18       0.1174
    178 H3'        19.6326   -3.4775    7.8974 H         6   C18       0.0615
    179 H2'        17.8372   -3.7820    9.4506 H         6   C18       0.0972
    180 H1'        16.4797   -1.6003    8.5012 H         6   C18       0.2029
    181 H5         16.9514   -4.2565    3.9816 H         6   C18       0.1928
    182 H6         17.8554   -2.5879    5.4976 H         6   C18       0.1958
    183 H41        14.4224   -6.6964    5.1042 H         6   C18       0.4234
    184 H42        15.3916   -6.1253    3.7645 H         6   C18       0.4234
    185 HO2'       18.4724   -2.3137   11.1280 H         6   C18       0.4186
    186 P          21.4750   -4.0630    9.5820 P.3       7   A19       1.1662
    187 OP1        22.8130   -3.6510   10.0670 O.co2     7   A19      -0.7760
    188 OP2        21.3400   -4.7310    8.2630 O.co2     7   A19      -0.7760
    189 O5'        20.7970   -4.9930   10.7050 O.3       7   A19      -0.4989
    190 C5'        20.3580   -4.4500   11.9660 C.3       7   A19       0.0558
    191 C4'        19.2320   -5.2800   12.5700 C.3       7   A19       0.1065
    192 O4'        18.0310   -5.1370   11.7760 O.3       7   A19      -0.3548
    193 C3'        19.4360   -6.7890   12.5880 C.3       7   A19       0.2022
    194 O3'        20.2180   -7.1780   13.6980 O.3       7   A19      -0.5246
    195 C2'        18.0070   -7.3030   12.7240 C.3       7   A19       0.0670
    196 O2'        17.5100   -7.2140   14.0440 O.3       7   A19      -0.6139
    197 C1'        17.2550   -6.3210   11.8480 C.3       7   A19       0.0394
    198 N9         17.0010   -6.7890   10.4860 N.ar      7   A19      -0.0251
    199 C8         17.6400   -6.3530    9.3620 C.ar      7   A19       0.2006
    200 N7         17.2190   -6.9110    8.2590 N.ar      7   A19      -0.6073
    201 C5         16.2210   -7.7730    8.6800 C.ar      7   A19       0.0515
    202 C6         15.3740   -8.6530    7.9720 C.ar      7   A19       0.7009
    203 N6         15.4200   -8.8050    6.6430 N.pl3     7   A19      -0.9019
    204 N1         14.4870   -9.3740    8.6910 N.ar      7   A19      -0.7615
    205 C2         14.4480   -9.2240   10.0250 C.ar      7   A19       0.5875
    206 N3         15.1860   -8.4190   10.7990 N.ar      7   A19      -0.6997
    207 C4         16.0690   -7.7140   10.0580 C.ar      7   A19       0.3053
    208 H5'        21.1997   -4.4380   12.6585 H         7   A19       0.0679
    209 H5''       20.0069   -3.4295   11.8127 H         7   A19       0.0679
    210 H4'        19.0348   -4.9327   13.5842 H         7   A19       0.1174
    211 H3'        19.8856   -7.1319   11.6561 H         7   A19       0.0615
    212 H2'        17.9178   -8.3190   12.3395 H         7   A19       0.0972
    213 H1'        16.3017   -6.0871   12.3219 H         7   A19       0.2007
    214 H8         18.4250   -5.6115    9.3828 H         7   A19       0.1553
    215 H2         13.7237   -9.8351   10.5430 H         7   A19       0.0473
    216 H61        14.5674   -9.2480    6.3316 H         7   A19       0.4115
    217 H62        16.1847   -8.5221    6.0470 H         7   A19       0.4115
    218 HO2'       17.9812   -7.8332   14.6063 H         7   A19       0.4186
    219 P          21.2310   -8.4090   13.5790 P.3       8   U20       1.1662
    220 OP1        22.0300   -8.4460   14.8290 O.co2     8   U20      -0.7760
    221 OP2        21.8800   -8.3490   12.2490 O.co2     8   U20      -0.7760
    222 O5'        20.2780   -9.6880   13.5860 O.3       8   U20      -0.4989
    223 C5'        19.5620  -10.0670   14.7540 C.3       8   U20       0.0558
    224 C4'        18.5690  -11.1530   14.3830 C.3       8   U20       0.1065
    225 O4'        17.6510  -10.6650   13.3700 O.3       8   U20      -0.3548
    226 C3'        19.1850  -12.3600   13.7070 C.3       8   U20       0.2022
    227 O3'        19.8420  -13.1890   14.6500 O.3       8   U20      -0.5246
    228 C2'        17.9280  -12.9860   13.1010 C.3       8   U20       0.0670
    229 O2'        17.0800  -13.6380   14.0270 O.3       8   U20      -0.6139
    230 C1'        17.2140  -11.7500   12.5690 C.3       8   U20       0.0674
    231 N1         17.4350  -11.5060   11.0910 N.am      8   U20       0.0418
    232 C2         16.6820  -12.2270   10.1780 C.2       8   U20       0.4687
    233 O2         15.8590  -13.0650   10.4990 O.2       8   U20      -0.5477
    234 N3         16.9300  -11.9550    8.8550 N.am      8   U20      -0.3549
    235 C4         17.8390  -11.0370    8.3520 C.2       8   U20       0.5952
    236 O4         17.9580  -10.8940    7.1350 O.2       8   U20      -0.5761
    237 C5         18.5840  -10.3250    9.3550 C.2       8   U20      -0.3635
    238 C6         18.3590  -10.5820   10.6520 C.2       8   U20      -0.1126
    239 H5'        20.2568  -10.4456   15.5036 H         8   U20       0.0679
    240 H5''       19.0285   -9.2040   15.1523 H         8   U20       0.0679
    241 H4'        18.0137  -11.4660   15.2672 H         8   U20       0.1174
    242 H3'        19.8753  -12.0496   12.9226 H         8   U20       0.0615
    243 H2'        18.1908  -13.6577   12.2838 H         8   U20       0.0972
    244 H1'        16.1445  -11.8813   12.7331 H         8   U20       0.1824
    245 H3         16.3941  -12.4785    8.1776 H         8   U20       0.3154
    246 H5         19.3193   -9.5887    9.0660 H         8   U20       0.1811
    247 H6         18.9304  -10.0378   11.3894 H         8   U20       0.2188
    248 HO2'       17.5201  -14.4195   14.3694 H         8   U20       0.4186
    249 P          21.1650  -13.9870   14.2160 P.3       9   A21       1.1662
    250 OP1        21.6780  -14.7260   15.3960 O.co2     9   A21      -0.7760
    251 OP2        22.0180  -13.0230   13.4930 O.co2     9   A21      -0.7760
    252 O5'        20.6430  -15.0910   13.1670 O.3       9   A21      -0.4989
    253 C5'        19.6460  -16.0450   13.5200 C.3       9   A21       0.0558
    254 C4'        19.2330  -16.7870   12.2740 C.3       9   A21       0.1065
    255 O4'        18.4940  -15.9080   11.3950 O.3       9   A21      -0.3548
    256 C3'        20.3820  -17.2250   11.3800 C.3       9   A21       0.2022
    257 O3'        21.0900  -18.3350   11.9570 O.3       9   A21      -0.5246
    258 C2'        19.5980  -17.5830   10.1160 C.3       9   A21       0.0670
    259 O2'        19.1410  -18.9330   10.1100 O.3       9   A21      -0.6139
    260 C1'        18.4740  -16.5180   10.1110 C.3       9   A21       0.0394
    261 N9         18.7470  -15.5090    9.0800 N.ar      9   A21      -0.0251
    262 C8         19.5840  -14.4350    9.1910 C.ar      9   A21       0.2006
    263 N7         19.6760  -13.7110    8.1040 N.ar      9   A21      -0.6073
    264 C5         18.8520  -14.3350    7.2000 C.ar      9   A21       0.0515
    265 C6         18.5330  -14.0650    5.8540 C.ar      9   A21       0.7009
    266 N6         19.0170  -13.0230    5.1590 N.pl3     9   A21      -0.9019
    267 N1         17.6950  -14.9130    5.2300 N.ar      9   A21      -0.7615
    268 C2         17.1940  -15.9580    5.9130 C.ar      9   A21       0.5875
    269 N3         17.4340  -16.3100    7.1790 N.ar      9   A21      -0.6997
    270 C4         18.2850  -15.4630    7.7770 C.ar      9   A21       0.3053
    271 H5'        20.0506  -16.7471   14.2490 H         9   A21       0.0679
    272 H5''       18.7826  -15.5327   13.9446 H         9   A21       0.0679
    273 H4'        18.6199  -17.6480   12.5401 H         9   A21       0.1174
    274 H3'        21.0601  -16.3931   11.1896 H         9   A21       0.0615
    275 H2'        20.2377  -17.4239    9.2479 H         9   A21       0.0972
    276 H1'        17.5077  -16.9894    9.9317 H         9   A21       0.2007
    277 H8         20.1234  -14.2031   10.0975 H         9   A21       0.1553
    278 H2         16.5109  -16.5931    5.3686 H         9   A21       0.0473
    279 HO2'       18.4030  -19.0188    9.5021 H         9   A21       0.4186
    280 H61        18.4421  -12.8536    4.3460 H         9   A21       0.4115
    281 H62        19.8352  -12.4876    5.4119 H         9   A21       0.4115
    282 P          22.6550  -18.2700   12.2970 P.3      10   U22       1.1662
    283 OP1        22.9760  -19.5420   12.9580 O.co2    10   U22      -0.7760
    284 OP2        22.9960  -17.0070   12.9840 O.co2    10   U22      -0.7760
    285 O5'        23.3920  -18.2710   10.8940 O.3      10   U22      -0.4989
    286 C5'        24.6790  -17.6350   10.7270 C.3      10   U22       0.0558
    287 C4'        24.8800  -17.2270    9.2700 C.3      10   U22       0.1065
    288 O4'        24.6880  -18.3880    8.4220 O.3      10   U22      -0.3548
    289 C3'        23.8600  -16.2010    8.7870 C.3      10   U22       0.2022
    290 O3'        24.3810  -15.2850    7.8140 O.3      10   U22      -0.5246
    291 C2'        22.7860  -17.0920    8.1710 C.3      10   U22       0.0670
    292 O2'        21.9480  -16.3990    7.2610 O.3      10   U22      -0.6139
    293 C1'        23.6420  -18.1710    7.4890 C.3      10   U22       0.0674
    294 N1         22.8740  -19.4370    7.2450 N.am     10   U22       0.0418
    295 C2         22.5600  -19.8890    5.9580 C.2      10   U22       0.4687
    296 O2         22.8800  -19.3120    4.9050 O.2      10   U22      -0.5477
    297 N3         21.8430  -21.0760    5.9570 N.am     10   U22      -0.3549
    298 C4         21.4140  -21.7920    7.0800 C.2      10   U22       0.5952
    299 O4         20.7610  -22.8180    6.9780 O.2      10   U22      -0.5761
    300 C5         21.7830  -21.2580    8.3440 C.2      10   U22      -0.3635
    301 C6         22.4870  -20.1290    8.3640 C.2      10   U22      -0.1126
    302 H5'        25.4653  -18.3318   11.0174 H        10   U22       0.0679
    303 H5''       24.7292  -16.7493   11.3604 H        10   U22       0.0679
    304 H4'        25.8880  -16.8352    9.1339 H        10   U22       0.1174
    305 H3'        23.4502  -15.6528    9.6353 H        10   U22       0.0615
    306 H2'        22.1828  -17.5424    8.9592 H        10   U22       0.0972
    307 H1'        24.0479  -17.7913    6.5513 H        10   U22       0.1824
    308 H3         21.6066  -21.4628    5.0544 H        10   U22       0.3154
    309 H5         21.5005  -21.7536    9.2610 H        10   U22       0.1811
    310 H6         22.7729  -19.7308    9.3263 H        10   U22       0.2188
    311 HO2'       21.2931  -17.0036    6.9043 H        10   U22       0.4186
    312 P          25.3930  -14.0930    8.1810 P.3      11   A23       1.1662
    313 OP1        25.4620  -13.9920    9.6430 O.co2    11   A23      -0.7760
    314 OP2        25.0630  -12.9180    7.3340 O.co2    11   A23      -0.7760
    315 O5'        26.6610  -14.8720    7.5830 O.3      11   A23      -0.4989
    316 C5'        28.0190  -14.5030    7.5960 C.3      11   A23       0.0558
    317 C4'        28.8580  -15.7430    7.2450 C.3      11   A23       0.1065
    318 O4'        28.6070  -16.8340    8.1810 O.3      11   A23      -0.3548
    319 C3'        28.6670  -16.4490    5.8970 C.3      11   A23       0.2022
    320 O3'        29.3000  -15.7480    4.8080 O.3      11   A23      -0.5246
    321 C2'        29.4630  -17.7330    6.1640 C.3      11   A23       0.0670
    322 O2'        30.8590  -17.5150    6.0940 O.3      11   A23      -0.6139
    323 C1'        29.1730  -18.0200    7.6410 C.3      11   A23       0.0394
    324 N9         28.3240  -19.1730    7.9370 N.ar     11   A23      -0.0251
    325 C8         28.3910  -19.8530    9.1300 C.ar     11   A23       0.2006
    326 N7         27.5640  -20.8530    9.2100 N.ar     11   A23      -0.6073
    327 C5         26.9070  -20.8390    8.0000 C.ar     11   A23       0.0515
    328 C6         25.9150  -21.6820    7.4800 C.ar     11   A23       0.7009
    329 N6         25.4010  -22.7140    8.1940 N.pl3    11   A23      -0.9019
    330 N1         25.4590  -21.4090    6.2240 N.ar     11   A23      -0.7615
    331 C2         25.9730  -20.3770    5.5380 C.ar     11   A23       0.5875
    332 N3         26.9180  -19.5230    5.9390 N.ar     11   A23      -0.6997
    333 C4         27.3590  -19.8040    7.1920 C.ar     11   A23       0.3053
    334 H5'        28.1950  -13.7184    6.8601 H        11   A23       0.0679
    335 H5''       28.2923  -14.1437    8.5881 H        11   A23       0.0679
    336 H4'        29.9092  -15.4677    7.3298 H        11   A23       0.1174
    337 H3'        27.6169  -16.6566    5.6916 H        11   A23       0.0615
    338 H2'        29.1449  -18.5520    5.5189 H        11   A23       0.0972
    339 H1'        30.1299  -18.1818    8.1373 H        11   A23       0.2007
    340 H8         29.0678  -19.5817    9.9267 H        11   A23       0.1553
    341 H2         25.5764  -20.2185    4.5461 H        11   A23       0.0473
    342 H61        24.8240  -23.4253    7.7684 H        11   A23       0.4115
    343 H62        26.2490  -23.2606    8.2414 H        11   A23       0.4115
    344 HO2'       31.1090  -17.3280    5.1862 H        11   A23       0.4186
    345 P          28.5960  -15.6070    3.3650 P.3      12   A24       1.1662
    346 OP1        29.4450  -14.7370    2.5240 O.co2    12   A24      -0.7760
    347 OP2        27.2040  -15.2070    3.6300 O.co2    12   A24      -0.7760
    348 O5'        28.5700  -17.0190    2.6440 O.3      12   A24      -0.4989
    349 C5'        27.5810  -17.9920    2.9110 C.3      12   A24       0.0558
    350 C4'        26.9050  -18.5190    1.6580 C.3      12   A24       0.1065
    351 O4'        25.9500  -17.5370    1.2210 O.3      12   A24      -0.3548
    352 C3'        27.7620  -18.7480    0.4230 C.3      12   A24       0.2022
    353 O3'        28.3680  -20.0020    0.4820 O.3      12   A24      -0.5246
    354 C2'        26.6680  -18.7870   -0.6350 C.3      12   A24       0.0670
    355 O2'        25.9600  -20.0010   -0.6620 O.3      12   A24      -0.6139
    356 C1'        25.7470  -17.6880   -0.1620 C.3      12   A24       0.0394
    357 N9         25.9950  -16.3920   -0.7800 N.ar     12   A24      -0.0251
    358 C8         26.5450  -15.2700   -0.2210 C.ar     12   A24       0.2006
    359 N7         26.5910  -14.2510   -1.0510 N.ar     12   A24      -0.6073
    360 C5         26.0450  -14.7510   -2.2170 C.ar     12   A24       0.0515
    361 C6         25.8030  -14.1830   -3.4850 C.ar     12   A24       0.7009
    362 N6         26.0970  -12.9330   -3.8020 N.pl3    12   A24      -0.9019
    363 N1         25.2370  -14.9620   -4.4190 N.ar     12   A24      -0.7615
    364 C2         24.9230  -16.2300   -4.1320 C.ar     12   A24       0.5875
    365 N3         25.1030  -16.8650   -2.9720 N.ar     12   A24      -0.6997
    366 C4         25.6650  -16.0590   -2.0630 C.ar     12   A24       0.3053
    367 H5'        28.0496  -18.8286    3.4293 H        12   A24       0.0679
    368 H5''       26.8238  -17.5546    3.5617 H        12   A24       0.0679
    369 H4'        26.3787  -19.4422    1.9006 H        12   A24       0.1174
    370 H3'        28.4785  -17.9439    0.2553 H        12   A24       0.0615
    371 H2'        27.0739  -18.5542   -1.6195 H        12   A24       0.0972
    372 H1'        24.7132  -17.9816   -0.3441 H        12   A24       0.2007
    373 H8         26.9041  -15.2262    0.7966 H        12   A24       0.1553
    374 H2         24.4733  -16.8045   -4.9283 H        12   A24       0.0473
    375 H61        26.5222  -12.3249   -3.1168 H        12   A24       0.4115
    376 H62        25.8963  -12.5866   -4.7293 H        12   A24       0.4115
    377 HO2'       25.3359  -19.9911   -1.3914 H        12   A24       0.4186
    378 P          29.8370  -20.4080    0.0060 P.3      13   U25       1.1662
    379 OP1        30.5260  -19.2660   -0.6070 O.co2    13   U25      -0.7760
    380 OP2        29.7070  -21.6270   -0.8220 O.co2    13   U25      -0.7760
    381 O5'        30.5580  -20.8180    1.3610 O.3      13   U25      -0.4989
    382 C5'        30.9620  -19.8430    2.3300 C.3      13   U25       0.0558
    383 C4'        30.9400  -20.4200    3.7420 C.3      13   U25       0.1065
    384 O4'        29.5430  -20.5360    4.1740 O.3      13   U25      -0.3548
    385 C3'        31.4800  -21.8260    3.9020 C.3      13   U25       0.2022
    386 O3'        32.9230  -21.8870    3.9690 O.3      13   U25      -0.5246
    387 C2'        30.8070  -22.1970    5.2370 C.3      13   U25       0.0670
    388 O2'        31.3850  -21.5920    6.3880 O.3      13   U25      -0.6139
    389 C1'        29.3900  -21.6620    5.0050 C.3      13   U25       0.0674
    390 N1         28.4260  -22.6380    4.3750 N.am     13   U25       0.0418
    391 C2         27.9360  -23.7130    5.1150 C.2      13   U25       0.4687
    392 O2         28.2440  -23.9670    6.2730 O.2      13   U25      -0.5477
    393 N3         27.0850  -24.5160    4.4310 N.am     13   U25      -0.3549
    394 C4         26.6700  -24.3790    3.1300 C.2      13   U25       0.5952
    395 O4         25.8820  -25.1840    2.6830 O.2      13   U25      -0.5761
    396 C5         27.1790  -23.2430    2.4110 C.2      13   U25      -0.3635
    397 C6         28.0160  -22.4280    3.0640 C.2      13   U25      -0.1126
    398 H5'        31.9740  -19.5110    2.0983 H        13   U25       0.0679
    399 H5''       30.2858  -18.9895    2.2819 H        13   U25       0.0679
    400 H4'        31.4727  -19.7488    4.4157 H        13   U25       0.1174
    401 H3'        31.1109  -22.4667    3.1011 H        13   U25       0.0615
    402 H2'        30.7832  -23.2803    5.3557 H        13   U25       0.0972
    403 H1'        28.9802  -21.3360    5.9610 H        13   U25       0.1824
    404 H3         26.7131  -25.3068    4.9374 H        13   U25       0.3154
    405 H5         26.8974  -23.0548    1.3855 H        13   U25       0.1811
    406 H6         28.3932  -21.5600    2.5438 H        13   U25       0.2188
    407 HO2'       32.2712  -21.9366    6.5203 H        13   U25       0.4186
    408 P          33.6690  -23.2060    3.3760 P.3      14   C26       1.1662
    409 OP1        35.1060  -22.9660    3.5550 O.co2    14   C26      -0.7760
    410 OP2        33.1050  -23.6540    2.1110 O.co2    14   C26      -0.7760
    411 O5'        33.3500  -24.3420    4.4710 O.3      14   C26      -0.4989
    412 C5'        33.8610  -24.1840    5.7700 C.3      14   C26       0.0558
    413 C4'        33.1910  -25.2370    6.6420 C.3      14   C26       0.1065
    414 O4'        31.7540  -25.1020    6.5180 O.3      14   C26      -0.3548
    415 C3'        33.4380  -26.6470    6.1340 C.3      14   C26       0.2022
    416 O3'        34.6750  -27.1130    6.6440 O.3      14   C26      -0.5246
    417 C2'        32.2490  -27.3990    6.7200 C.3      14   C26       0.0670
    418 O2'        32.4250  -27.5380    8.1170 O.3      14   C26      -0.6139
    419 C1'        31.1500  -26.3800    6.4790 C.3      14   C26       0.0066
    420 N1         30.3750  -26.6700    5.2350 N.am     14   C26      -0.0484
    421 C2         29.4190  -27.7080    5.3450 C.2      14   C26       0.7538
    422 O2         29.2990  -28.3180    6.4120 O.2      14   C26      -0.6252
    423 N3         28.6980  -28.0370    4.2710 N.2      14   C26      -0.7584
    424 C4         28.8680  -27.3680    3.1300 C.2      14   C26       0.8185
    425 N4         28.1190  -27.7500    2.1120 N.pl3    14   C26      -0.9530
    426 C5         29.8260  -26.3160    2.9800 C.2      14   C26      -0.5215
    427 C6         30.5500  -25.9930    4.0640 C.2      14   C26       0.0053
    428 H5'        34.9410  -24.3315    5.7680 H        14   C26       0.0679
    429 H5''       33.6236  -23.1878    6.1432 H        14   C26       0.0679
    430 H4'        33.5031  -25.1375    7.6816 H        14   C26       0.1174
    431 H3'        33.4251  -26.6798    5.0446 H        14   C26       0.0615
    432 H2'        32.0616  -28.3495    6.2205 H        14   C26       0.0972
    433 H1'        30.4572  -26.4407    7.3183 H        14   C26       0.2029
    434 H5         29.9608  -25.8050    2.0381 H        14   C26       0.1928
    435 H6         31.2740  -25.1936    4.0082 H        14   C26       0.1958
    436 H41        27.4549  -28.5021    2.2278 H        14   C26       0.4234
    437 H42        28.2101  -27.2901    1.2174 H        14   C26       0.4234
    438 HO2'       32.4921  -28.4692    8.3404 H        14   C26       0.4186
    439 P          35.4520  -28.2950    5.8850 P.3      15   C27       1.1662
    440 OP1        36.8290  -28.2720    6.4310 O.co2    15   C27      -0.7760
    441 OP2        35.1940  -28.2470    4.4250 O.co2    15   C27      -0.7760
    442 O5'        34.6660  -29.5970    6.4050 O.3      15   C27      -0.4989
    443 C5'        34.6070  -30.0100    7.8010 C.3      15   C27       0.0558
    444 C4'        33.6750  -31.2210    7.8530 C.3      15   C27       0.1065
    445 O4'        32.3130  -30.8620    7.4890 O.3      15   C27      -0.3548
    446 C3'        33.9800  -32.3200    6.8420 C.3      15   C27       0.2022
    447 O3'        35.0810  -33.1310    7.2700 O.3      15   C27      -0.5246
    448 C2'        32.6650  -33.0910    6.8830 C.3      15   C27       0.0670
    449 O2'        32.4930  -33.7440    8.1290 O.3      15   C27      -0.6139
    450 C1'        31.6940  -31.9260    6.7660 C.3      15   C27       0.0066
    451 N1         31.1830  -31.5530    5.3340 N.am     15   C27      -0.0484
    452 C2         30.1720  -32.3640    4.7650 C.2      15   C27       0.7538
    453 O2         29.7070  -33.3650    5.4010 O.2      15   C27      -0.6252
    454 N3         29.7140  -32.0390    3.5310 N.2      15   C27      -0.7584
    455 C4         30.2000  -30.9760    2.8760 C.2      15   C27       0.8185
    456 N4         29.6400  -30.7390    1.6850 N.pl3    15   C27      -0.9530
    457 C5         31.2310  -30.1260    3.4170 C.2      15   C27      -0.5215
    458 C6         31.6620  -30.4750    4.6390 C.2      15   C27       0.0053
    459 H5'        35.6008  -30.2836    8.1555 H        15   C27       0.0679
    460 H5''       34.2029  -29.2025    8.4116 H        15   C27       0.0679
    461 H4'        33.6826  -31.6413    8.8587 H        15   C27       0.1174
    462 H3'        34.1606  -31.9034    5.8511 H        15   C27       0.0615
    463 H2'        32.5730  -33.7826    6.0455 H        15   C27       0.0972
    464 H1'        30.8109  -32.2085    7.3391 H        15   C27       0.2029
    465 H5         31.6255  -29.2754    2.8811 H        15   C27       0.1928
    466 H6         32.4299  -29.8716    5.1002 H        15   C27       0.1958
    467 H41        28.9131  -31.3486    1.3384 H        15   C27       0.4234
    468 H42        29.9439  -29.9503    1.1320 H        15   C27       0.4234
    469 HO2'       31.5942  -34.0748    8.1953 H        15   C27       0.4186
    470 P          35.9380  -33.9210    6.1620 P.3      16   U28       1.1662
    471 OP1        37.0530  -34.5400    6.9340 O.co2    16   U28      -0.7760
    472 OP2        36.2080  -33.0820    4.9830 O.co2    16   U28      -0.7760
    473 O5'        34.9630  -35.1030    5.6820 O.3      16   U28      -0.4989
    474 C5'        34.4660  -36.0950    6.6290 C.3      16   U28       0.0558
    475 C4'        33.3790  -36.9030    5.9150 C.3      16   U28       0.1065
    476 O4'        32.2910  -36.0270    5.4770 O.3      16   U28      -0.3548
    477 C3'        33.8220  -37.5820    4.6180 C.3      16   U28       0.2022
    478 O3'        34.5330  -38.7990    4.8600 O.3      16   U28      -0.5246
    479 C2'        32.5080  -37.7970    3.8620 C.3      16   U28       0.0670
    480 O2'        31.7580  -38.9460    4.2670 O.3      16   U28      -0.6139
    481 C1'        31.7620  -36.5140    4.2450 C.3      16   U28       0.0674
    482 N1         31.8360  -35.4400    3.2070 N.am     16   U28       0.0418
    483 C2         31.0800  -35.6140    2.0630 C.2      16   U28       0.4687
    484 O2         30.3620  -36.5780    1.8710 O.2      16   U28      -0.5477
    485 N3         31.1720  -34.6000    1.1570 N.am     16   U28      -0.3549
    486 C4         31.9350  -33.4410    1.2500 C.2      16   U28       0.5952
    487 O4         31.8910  -32.6490    0.3190 O.2      16   U28      -0.5761
    488 C5         32.7260  -33.3250    2.4480 C.2      16   U28      -0.3635
    489 C6         32.6340  -34.3190    3.3810 C.2      16   U28      -0.1126
    490 H5'        34.0468  -35.5979    7.5038 H        16   U28       0.0679
    491 H5''       35.2781  -36.7555    6.9328 H        16   U28       0.0679
    492 H4'        32.9829  -37.6549    6.5975 H        16   U28       0.1174
    493 H3'        34.4564  -36.8999    4.0521 H        16   U28       0.0615
    494 H2'        32.6894  -37.8229    2.7875 H        16   U28       0.0972
    495 H1'        30.7127  -36.7645    4.4009 H        16   U28       0.1824
    496 H3         30.6199  -34.7026    0.3175 H        16   U28       0.3154
    497 H5         33.3742  -32.4755    2.6046 H        16   U28       0.1811
    498 H6         33.2067  -34.2280    4.2921 H        16   U28       0.2188
    499 HO2'       31.7884  -39.6093    3.5736 H        16   U28       0.4186
    500 P          35.7080  -39.1450    3.8100 P.3      17   A29       1.1662
    501 OP1        36.5580  -40.1770    4.4480 O.co2    17   A29      -0.7760
    502 OP2        36.2850  -37.9010    3.2830 O.co2    17   A29      -0.7760
    503 O5'        34.9120  -39.8160    2.6010 O.3      17   A29      -0.4989
    504 C5'        34.1740  -41.0560    2.9350 C.3      17   A29       0.0558
    505 C4'        33.3520  -41.5550    1.7580 C.3      17   A29       0.1065
    506 O4'        32.3190  -40.5700    1.4730 O.3      17   A29      -0.3548
    507 C3'        34.1300  -41.6510    0.4510 C.3      17   A29       0.2022
    508 O3'        34.7400  -42.9380    0.3930 O.3      17   A29      -0.5246
    509 C2'        33.0190  -41.4810   -0.5780 C.3      17   A29       0.0670
    510 O2'        32.2320  -42.6450   -0.7630 O.3      17   A29      -0.6139
    511 C1'        32.1590  -40.4270    0.0850 C.3      17   A29       0.0394
    512 N9         32.4680  -39.0540   -0.2850 N.ar     17   A29      -0.0251
    513 C8         33.2910  -38.1550    0.3670 C.ar     17   A29       0.2006
    514 N7         33.3480  -36.9930   -0.2210 N.ar     17   A29      -0.6073
    515 C5         32.4980  -37.1250   -1.3070 C.ar     17   A29       0.0515
    516 C6         32.1120  -36.2320   -2.3280 C.ar     17   A29       0.7009
    517 N6         32.5750  -34.9760   -2.4060 N.pl3    17   A29      -0.9019
    518 N1         31.2510  -36.6760   -3.2800 N.ar     17   A29      -0.7615
    519 C2         30.7950  -37.9300   -3.2150 C.ar     17   A29       0.5875
    520 N3         31.0850  -38.8600   -2.2870 N.ar     17   A29      -0.6997
    521 C4         31.9530  -38.3860   -1.3710 C.ar     17   A29       0.3053
    522 H5'        34.8899  -41.8276    3.2182 H        17   A29       0.0679
    523 H5''       33.5095  -40.8599    3.7765 H        17   A29       0.0679
    524 H4'        32.8985  -42.5169    1.9971 H        17   A29       0.1174
    525 H3'        34.8713  -40.8559    0.3705 H        17   A29       0.0615
    526 H2'        33.4162  -41.1219   -1.5274 H        17   A29       0.0972
    527 H1'        31.1166  -40.6253   -0.1644 H        17   A29       0.2007
    528 H8         33.8318  -38.3913    1.2715 H        17   A29       0.1553
    529 H2         30.1150  -38.2321   -3.9978 H        17   A29       0.0473
    530 HO2'       32.7185  -43.2796   -1.2942 H        17   A29       0.4186
    531 H61        32.2248  -34.2887   -3.0579 H        17   A29       0.4115
    532 H62        33.3161  -34.7017   -1.7771 H        17   A29       0.4115
    533 P          36.0170  -43.2090   -0.5330 P.3      18   A30       1.1662
    534 OP1        36.5160  -44.5490   -0.1410 O.co2    18   A30      -0.7760
    535 OP2        36.8780  -42.0060   -0.5810 O.co2    18   A30      -0.7760
    536 O5'        35.3560  -43.3570   -1.9760 O.3      18   A30      -0.4989
    537 C5'        35.7440  -42.5400   -3.0210 C.3      18   A30       0.0558
    538 C4'        34.5950  -42.4710   -3.9980 C.3      18   A30       0.1065
    539 O4'        33.6640  -41.4300   -3.5920 O.3      18   A30      -0.3548
    540 C3'        35.0830  -42.0430   -5.3690 C.3      18   A30       0.2022
    541 O3'        35.4650  -43.1920   -6.0940 O.3      18   A30      -0.5246
    542 C2'        33.8530  -41.3430   -5.9330 C.3      18   A30       0.0670
    543 O2'        32.8990  -42.2650   -6.4160 O.3      18   A30      -0.6139
    544 C1'        33.3410  -40.6010   -4.7020 C.3      18   A30       0.0394
    545 N9         33.9100  -39.2650   -4.4930 N.ar     18   A30      -0.0251
    546 C8         34.7640  -38.8660   -3.5020 C.ar     18   A30       0.2006
    547 N7         35.1060  -37.5950   -3.5480 N.ar     18   A30      -0.6073
    548 C5         34.4290  -37.1280   -4.6600 C.ar     18   A30       0.0515
    549 C6         34.3690  -35.8590   -5.2800 C.ar     18   A30       0.7009
    550 N6         35.0200  -34.7740   -4.8420 N.pl3    18   A30      -0.9019
    551 N1         33.6180  -35.7390   -6.3950 N.ar     18   A30      -0.7615
    552 C2         32.9540  -36.8030   -6.8500 C.ar     18   A30       0.5875
    553 N3         32.9250  -38.0400   -6.3480 N.ar     18   A30      -0.6997
    554 C4         33.6950  -38.1390   -5.2490 C.ar     18   A30       0.3053
    555 H5'        35.9739  -41.5424   -2.6469 H        18   A30       0.0679
    556 H5''       36.6212  -42.9610   -3.5123 H        18   A30       0.0679
    557 H4'        34.0875  -43.4338   -4.0578 H        18   A30       0.1174
    558 H3'        35.9171  -41.3468   -5.2817 H        18   A30       0.0615
    559 H2'        34.1368  -40.6389   -6.7152 H        18   A30       0.0972
    560 H1'        32.2567  -40.5137   -4.7708 H        18   A30       0.2007
    561 H8         35.1292  -39.5402   -2.7415 H        18   A30       0.1553
    562 H2         32.3633  -36.6430   -7.7399 H        18   A30       0.0473
    563 H61        34.6208  -33.9540   -5.2760 H        18   A30       0.4115
    564 H62        35.7863  -34.7754   -4.1840 H        18   A30       0.4115
    565 HO2'       33.2500  -42.7143   -7.1884 H        18   A30       0.4186
    566 P          36.7560  -43.1360   -7.0290 P.3      19   U31       1.1662
    567 OP1        36.8870  -44.4320   -7.7250 O.co2    19   U31      -0.7760
    568 OP2        37.8810  -42.6110   -6.2250 O.co2    19   U31      -0.7760
    569 O5'        36.3580  -41.9860   -8.0730 O.3      19   U31      -0.4989
    570 C5'        35.3580  -42.1390   -9.0810 C.3      19   U31       0.0558
    571 C4'        35.0980  -40.7970   -9.7460 C.3      19   U31       0.1065
    572 O4'        34.6860  -39.7900   -8.7730 O.3      19   U31      -0.3548
    573 C3'        36.3300  -40.1720  -10.3680 C.3      19   U31       0.2022
    574 O3'        36.6520  -40.7640  -11.6210 O.3      19   U31      -0.5246
    575 C2'        35.8750  -38.7280  -10.5030 C.3      19   U31       0.0670
    576 O2'        35.0040  -38.5620  -11.6000 O.3      19   U31      -0.6139
    577 C1'        35.1420  -38.4960   -9.1820 C.3      19   U31       0.0674
    578 N1         36.0130  -37.8480   -8.1340 N.am     19   U31       0.0418
    579 C2         36.3280  -36.4850   -8.2190 C.2      19   U31       0.4687
    580 O2         35.9350  -35.7210   -9.1040 O.2      19   U31      -0.5477
    581 N3         37.1540  -36.0190   -7.2110 N.am     19   U31      -0.3549
    582 C4         37.6770  -36.7740   -6.1640 C.2      19   U31       0.5952
    583 O4         38.3850  -36.2130   -5.3530 O.2      19   U31      -0.5761
    584 C5         37.3330  -38.1790   -6.1240 C.2      19   U31      -0.3635
    585 C6         36.5330  -38.6440   -7.1010 C.2      19   U31      -0.1126
    586 H5'        35.7023  -42.8539   -9.8284 H        19   U31       0.0679
    587 H5''       34.4369  -42.5038   -8.6265 H        19   U31       0.0679
    588 H4'        34.3235  -40.9097  -10.5046 H        19   U31       0.1174
    589 H3'        37.1772  -40.2415   -9.6858 H        19   U31       0.0615
    590 H2'        36.7329  -38.0611  -10.5889 H        19   U31       0.0972
    591 H1'        34.2770  -37.8586   -9.3655 H        19   U31       0.1824
    592 H3         37.4006  -35.0399   -7.2371 H        19   U31       0.3154
    593 H5         37.7027  -38.8270   -5.3431 H        19   U31       0.1811
    594 H6         36.2754  -39.6928   -7.0898 H        19   U31       0.2188
    595 HO2'       35.4853  -38.7123  -12.4169 H        19   U31       0.4186
    596 P          38.1880  -40.9930  -12.0280 P.3      20   G32       1.1662
    597 OP1        38.2690  -41.9550  -13.1530 O.co2    20   G32      -0.7760
    598 OP2        38.9260  -41.3050  -10.7830 O.co2    20   G32      -0.7760
    599 O5'        38.7010  -39.5870  -12.5570 O.3      20   G32      -0.4989
    600 C5'        38.0280  -38.8440  -13.6160 C.3      20   G32       0.0558
    601 C4'        38.4300  -37.3770  -13.5860 C.3      20   G32       0.1065
    602 O4'        38.0300  -36.6930  -12.3660 O.3      20   G32      -0.3548
    603 C3'        39.9200  -37.1310  -13.6020 C.3      20   G32       0.2022
    604 O3'        40.3280  -37.3160  -14.9290 O.3      20   G32      -0.5246
    605 C2'        39.9540  -35.6520  -13.2160 C.3      20   G32       0.0670
    606 O2'        39.5480  -34.8380  -14.2860 O.3      20   G32      -0.6139
    607 C1'        38.8950  -35.5760  -12.1370 C.3      20   G32       0.0191
    608 N9         39.4240  -35.6200  -10.7600 N.ar     20   G32       0.0492
    609 C8         39.5210  -36.7590   -9.9900 C.ar     20   G32       0.1374
    610 N7         40.0180  -36.5530   -8.8110 N.ar     20   G32      -0.5709
    611 C5         40.2890  -35.1840   -8.7950 C.ar     20   G32       0.1744
    612 C6         40.8320  -34.3810   -7.7550 C.2      20   G32       0.4770
    613 O6         41.1960  -34.7400   -6.6400 O.2      20   G32      -0.5597
    614 N1         40.9330  -33.0440   -8.0860 N.am     20   G32      -0.4787
    615 C2         40.5760  -32.5310   -9.3150 C.2      20   G32       0.7657
    616 N2         40.7750  -31.2160   -9.4690 N.pl3    20   G32      -0.9672
    617 N3         40.0510  -33.2690  -10.2910 N.2      20   G32      -0.6323
    618 C4         39.9240  -34.5890   -9.9780 C.ar     20   G32       0.1222
    619 H5'        38.3023  -39.2699  -14.5811 H        20   G32       0.0679
    620 H5''       36.9493  -38.9239  -13.4814 H        20   G32       0.0679
    621 H4'        37.9793  -36.8699  -14.4391 H        20   G32       0.1174
    622 H3'        40.4617  -37.7648  -12.8998 H        20   G32       0.0615
    623 H2'        40.9334  -35.3586  -12.8381 H        20   G32       0.0972
    624 H1'        38.3249  -34.6561  -12.2666 H        20   G32       0.2006
    625 H8         39.2113  -37.7336  -10.3373 H        20   G32       0.1640
    626 H1         41.2885  -32.4060   -7.3884 H        20   G32       0.3424
    627 H21        41.1686  -30.6730   -8.7138 H        20   G32       0.4364
    628 H22        40.5315  -30.7670  -10.3403 H        20   G32       0.4364
    629 HO2'       40.2777  -34.7285  -14.9002 H        20   G32       0.4186
    630 P          41.8500  -37.4630  -15.3710 P.3      21   A33       1.1662
    631 OP1        41.8260  -38.0920  -16.7190 O.co2    21   A33      -0.7760
    632 OP2        42.6080  -38.1310  -14.2850 O.co2    21   A33      -0.7760
    633 O5'        42.3220  -35.9400  -15.5580 O.3      21   A33      -0.4989
    634 C5'        43.5800  -35.4360  -15.1260 C.3      21   A33       0.0558
    635 C4'        43.5270  -33.9160  -14.9860 C.3      21   A33       0.1065
    636 O4'        42.7870  -33.5140  -13.8060 O.3      21   A33      -0.3548
    637 C3'        44.8750  -33.2520  -14.7520 C.3      21   A33       0.2022
    638 O3'        45.6150  -33.2270  -15.9560 O.3      21   A33      -0.5246
    639 C2'        44.4190  -31.8820  -14.2690 C.3      21   A33       0.0670
    640 O2'        43.9660  -31.0640  -15.3230 O.3      21   A33      -0.6139
    641 C1'        43.2390  -32.2390  -13.3610 C.3      21   A33       0.0394
    642 N9         43.5710  -32.3100  -11.9280 N.ar     21   A33      -0.0251
    643 C8         43.4680  -33.4180  -11.1320 C.ar     21   A33       0.2006
    644 N7         43.8330  -33.2360   -9.8900 N.ar     21   A33      -0.6073
    645 C5         44.1940  -31.9100   -9.8700 C.ar     21   A33       0.0515
    646 C6         44.6600  -31.1070   -8.8230 C.ar     21   A33       0.7009
    647 N6         44.8450  -31.5810   -7.5880 N.pl3    21   A33      -0.9019
    648 N1         44.9430  -29.8210   -9.1000 N.ar     21   A33      -0.7615
    649 C2         44.7580  -29.3580  -10.3540 C.ar     21   A33       0.5875
    650 N3         44.2970  -30.0230  -11.4160 N.ar     21   A33      -0.6997
    651 C4         44.0370  -31.3100  -11.1010 C.ar     21   A33       0.3053
    652 H5'        43.8307  -35.8766  -14.1610 H        21   A33       0.0679
    653 H5''       44.3452  -35.7044  -15.8544 H        21   A33       0.0679
    654 H4'        43.0594  -33.4860  -15.8717 H        21   A33       0.1174
    655 H3'        45.4293  -33.7711  -13.9701 H        21   A33       0.0615
    656 H2'        45.2084  -31.3864  -13.7039 H        21   A33       0.0972
    657 H1'        42.4435  -31.5082  -13.5067 H        21   A33       0.2007
    658 H8         43.1128  -34.3689  -11.5010 H        21   A33       0.1553
    659 H2         45.0144  -28.3219  -10.5188 H        21   A33       0.0473
    660 HO2'       44.0993  -30.1416  -15.0928 H        21   A33       0.4186
    661 H61        45.2449  -30.9035   -6.9546 H        21   A33       0.4115
    662 H62        44.6083  -32.5240   -7.3145 H        21   A33       0.4115
    663 P          47.2090  -33.3800  -16.0520 P.3      22   U34       1.1662
    664 OP1        47.5050  -33.3810  -17.5070 O.co2    22   U34      -0.7760
    665 OP2        47.6500  -34.5480  -15.2610 O.co2    22   U34      -0.7760
    666 O5'        47.7870  -32.0370  -15.3840 O.3      22   U34      -0.4989
    667 C5'        47.4890  -30.7280  -15.9340 C.3      22   U34       0.0558
    668 C4'        47.8100  -29.6360  -14.9230 C.3      22   U34       0.1065
    669 O4'        47.1780  -29.9610  -13.6480 O.3      22   U34      -0.3548
    670 C3'        49.3080  -29.4590  -14.6450 C.3      22   U34       0.2022
    671 O3'        49.6430  -28.0930  -14.6490 O.3      22   U34      -0.5246
    672 C2'        49.4880  -30.0520  -13.2470 C.3      22   U34       0.0670
    673 O2'        50.5020  -29.4540  -12.4530 O.3      22   U34      -0.6139
    674 C1'        48.1180  -29.7950  -12.6060 C.3      22   U34       0.0674
    675 N1         47.9180  -30.7910  -11.5370 N.am     22   U34       0.0418
    676 C2         48.0770  -30.4030  -10.2200 C.2      22   U34       0.4687
    677 O2         48.3630  -29.2590   -9.8900 O.2      22   U34      -0.5477
    678 N3         47.8830  -31.4180   -9.2990 N.am     22   U34      -0.3549
    679 C4         47.5930  -32.7620   -9.5800 C.2      22   U34       0.5952
    680 O4         47.4430  -33.5820   -8.6730 O.2      22   U34      -0.5761
    681 C5         47.4370  -33.0810  -10.9750 C.2      22   U34      -0.3635
    682 C6         47.6130  -32.1010  -11.8780 C.2      22   U34      -0.1126
    683 H5'        46.4305  -30.6795  -16.1895 H        22   U34       0.0679
    684 H5''       48.0840  -30.5717  -16.8338 H        22   U34       0.0679
    685 H4'        47.4054  -28.6910  -15.2855 H        22   U34       0.1174
    686 H3'        49.9039  -30.0052  -15.3762 H        22   U34       0.0615
    687 H2'        49.6640  -31.1251  -13.3220 H        22   U34       0.0972
    688 H1'        48.0676  -28.7839  -12.2020 H        22   U34       0.1824
    689 H3         47.9579  -31.1652   -8.3240 H        22   U34       0.3154
    690 H5         47.1847  -34.0833  -11.2884 H        22   U34       0.1811
    691 H6         47.5116  -32.3463  -12.9249 H        22   U34       0.2188
    692 HO2'       50.6549  -29.9901  -11.6714 H        22   U34       0.4186
    693 P          50.3620  -27.4130  -15.9280 P.3      23   A35       1.1662
    694 OP1        49.5900  -27.7300  -17.1610 O.co2    23   A35      -0.7760
    695 OP2        51.8420  -27.6530  -15.9150 O.co2    23   A35      -0.7760
    696 O5'        50.1220  -25.8920  -15.5160 O.3      23   A35      -0.4989
    697 C5'        48.8430  -25.2810  -15.6010 C.3      23   A35       0.0558
    698 C4'        49.0180  -23.7860  -15.3750 C.3      23   A35       0.1065
    699 O4'        49.3680  -23.5300  -13.9910 O.3      23   A35      -0.3548
    700 C3'        50.0930  -23.0610  -16.1790 C.3      23   A35       0.2022
    701 O3'        49.6510  -21.7070  -16.4020 O.3      23   A35      -0.5246
    702 C2'        51.3120  -23.1810  -15.2460 C.3      23   A35       0.0670
    703 O2'        52.2860  -22.1930  -15.5150 O.3      23   A35      -0.6139
    704 C1'        50.6710  -23.0010  -13.8630 C.3      23   A35       0.0394
    705 N9         51.2450  -23.6580  -12.6780 N.ar     23   A35      -0.0251
    706 C8         50.9800  -24.9290  -12.2020 C.ar     23   A35       0.2006
    707 N7         51.6120  -25.2510  -11.0850 N.ar     23   A35      -0.6073
    708 C5         52.3340  -24.0930  -10.7880 C.ar     23   A35       0.0515
    709 C6         53.2320  -23.7450   -9.7340 C.ar     23   A35       0.7009
    710 N6         53.5640  -24.5630   -8.7250 N.pl3    23   A35      -0.9019
    711 N1         53.7820  -22.4940   -9.7510 N.ar     23   A35      -0.7615
    712 C2         53.4570  -21.6560  -10.7440 C.ar     23   A35       0.5875
    713 N3         52.6460  -21.8730  -11.7800 N.ar     23   A35      -0.6997
    714 C4         52.1100  -23.1070  -11.7550 C.ar     23   A35       0.3053
    715 H5'        48.4139  -25.4578  -16.5873 H        23   A35       0.0679
    716 H5''       48.1866  -25.6942  -14.8351 H        23   A35       0.0679
    717 H4'        48.0628  -23.3010  -15.5760 H        23   A35       0.1174
    718 H3'        50.2779  -23.5691  -17.1254 H        23   A35       0.0615
    719 H2'        51.7522  -24.1747  -15.3293 H        23   A35       0.0972
    720 H1'        50.5898  -21.9335  -13.6583 H        23   A35       0.2007
    721 H8         50.3073  -25.6082  -12.7045 H        23   A35       0.1553
    722 H2         53.9109  -20.6770  -10.6999 H        23   A35       0.0473
    723 H61        54.4492  -25.0068   -8.5259 H        23   A35       0.4115
    724 H62        52.8223  -24.7644   -8.0697 H        23   A35       0.4115
    725 HO2'       52.6608  -22.3413  -16.3863 H        23   A35       0.4186
    726 P          49.6720  -21.0340  -17.8800 P.3      24   U36       1.1662
    727 OP1        50.9410  -21.4640  -18.5580 O.co2    24   U36      -0.7760
    728 OP2        49.4080  -19.5730  -17.6780 O.co2    24   U36      -0.7760
    729 O5'        48.3760  -21.7080  -18.6000 O.3      24   U36      -0.4989
    730 C5'        47.0190  -21.3590  -18.2000 C.3      24   U36       0.0558
    731 C4'        45.9340  -22.0500  -19.0860 C.3      24   U36       0.1065
    732 O4'        46.3790  -22.0450  -20.5110 O.3      24   U36      -0.3548
    733 C3'        45.6390  -23.5870  -18.8810 C.3      24   U36       0.2022
    734 O3'        44.2790  -23.7820  -19.4930 O.3      24   U36      -0.5246
    735 C2'        46.6870  -24.3220  -19.7420 C.3      24   U36       0.0670
    736 O2'        46.3010  -25.6530  -20.1610 O.3      24   U36      -0.6139
    737 C1'        46.6630  -23.3880  -20.9960 C.3      24   U36       0.0674
    738 N1         47.9080  -23.2990  -21.8420 N.am     24   U36       0.0418
    739 C2         47.7010  -23.3760  -23.2570 C.2      24   U36       0.4687
    740 O2         46.5600  -23.5350  -23.8150 O.2      24   U36      -0.5477
    741 N3         48.8770  -23.2760  -23.9870 N.am     24   U36      -0.3549
    742 C4         50.2160  -23.0920  -23.4560 C.2      24   U36       0.5952
    743 O4         51.1790  -23.0160  -24.2300 O.2      24   U36      -0.5761
    744 C5         50.3310  -22.9830  -21.9910 C.2      24   U36      -0.3635
    745 C6         49.2110  -23.0890  -21.2510 C.2      24   U36      -0.1126
    746 H5'        46.8708  -21.6656  -17.1646 H        24   U36       0.0679
    747 H5''       46.8967  -20.2781  -18.2697 H        24   U36       0.0679
    748 H4'        45.0000  -21.4942  -19.0029 H        24   U36       0.1174
    749 H3'        45.6739  -23.8846  -17.8330 H        24   U36       0.0615
    750 H2'        47.6665  -24.3227  -19.2638 H        24   U36       0.0972
    751 H1'        45.8381  -23.6998  -21.6366 H        24   U36       0.1824
    752 H3         48.7929  -23.3376  -24.9916 H        24   U36       0.3154
    753 H5         51.2905  -22.8220  -21.5221 H        24   U36       0.1811
    754 H6         49.2887  -23.0144  -20.1764 H        24   U36       0.2188
    755 HO2'       46.3097  -26.2426  -19.4034 H        24   U36       0.4186
    756 P          43.0780  -24.1970  -18.1160 P.3      25   G37       1.1662
    757 OP1        41.7980  -24.8970  -19.0330 O.co2    25   G37      -0.7760
    758 OP2        42.7180  -22.9490  -17.5580 O.co2    25   G37      -0.7760
    759 O5'        44.2720  -25.2850  -16.8050 O.3      25   G37      -0.4989
    760 C5'        44.0630  -26.6730  -17.1910 C.3      25   G37       0.0558
    761 C4'        44.1180  -27.4410  -15.8700 C.3      25   G37       0.1065
    762 O4'        45.3940  -27.1340  -15.2860 O.3      25   G37      -0.3548
    763 C3'        43.1160  -26.8460  -14.8460 C.3      25   G37       0.2022
    764 O3'        41.8200  -27.3920  -15.1450 O.3      25   G37      -0.5246
    765 C2'        43.8150  -27.3230  -13.5560 C.3      25   G37       0.0670
    766 O2'        43.7700  -28.7260  -13.4300 O.3      25   G37      -0.6139
    767 C1'        45.2700  -26.9610  -13.8660 C.3      25   G37       0.0191
    768 N9         45.7390  -25.6080  -13.5420 N.ar     25   G37       0.0492
    769 C8         45.5170  -24.4270  -14.2300 C.ar     25   G37       0.1374
    770 N7         46.0920  -23.3810  -13.6910 N.ar     25   G37      -0.5709
    771 C5         46.7360  -23.9030  -12.5700 C.ar     25   G37       0.1744
    772 C6         47.5360  -23.2550  -11.5860 C.2      25   G37       0.4770
    773 O6         47.8370  -22.0560  -11.4950 O.2      25   G37      -0.5597
    774 N1         48.0170  -24.1450  -10.6320 N.am     25   G37      -0.4787
    775 C2         47.7530  -25.5020  -10.6140 C.2      25   G37       0.7657
    776 N2         48.3140  -26.1780   -9.6080 N.pl3    25   G37      -0.9672
    777 N3         47.0140  -26.1370  -11.5260 N.2      25   G37      -0.6323
    778 C4         46.5400  -25.2730  -12.4740 C.ar     25   G37       0.1222
    779 H5'        44.8496  -27.0090  -17.8666 H        25   G37       0.0679
    780 H5''       43.0856  -26.7930  -17.6584 H        25   G37       0.0679
    781 H4'        43.9762  -28.5126  -16.0102 H        25   G37       0.1174
    782 H3'        43.1023  -25.7575  -14.9019 H        25   G37       0.0615
    783 H2'        43.4404  -26.8139  -12.6680 H        25   G37       0.0972
    784 H1'        45.9203  -27.6818  -13.3703 H        25   G37       0.2006
    785 H8         44.9230  -24.3733  -15.1303 H        25   G37       0.1640
    786 H1         48.6024  -23.7726   -9.8980 H        25   G37       0.3424
    787 H21        48.8780  -25.6920   -8.9255 H        25   G37       0.4364
    788 H22        48.1742  -27.1752   -9.5297 H        25   G37       0.4364
    789 HO2'       44.2785  -28.9952  -12.6616 H        25   G37       0.4186
    790 P          40.4860  -26.9130  -14.4080 P.3      26   G38       1.1662
    791 OP1        39.4830  -27.9410  -14.7570 O.co2    26   G38      -0.7760
    792 OP2        40.2330  -25.4870  -14.6950 O.co2    26   G38      -0.7760
    793 O5'        40.8050  -26.9850  -12.8450 O.3      26   G38      -0.4989
    794 C5'        40.7990  -28.2070  -12.1350 C.3      26   G38       0.0558
    795 C4'        41.1690  -27.9140  -10.6990 C.3      26   G38       0.1065
    796 O4'        42.5230  -27.4260  -10.6710 O.3      26   G38      -0.3548
    797 C3'        40.3830  -26.8110  -10.0130 C.3      26   G38       0.2022
    798 O3'        39.1940  -27.3520   -9.4730 O.3      26   G38      -0.5246
    799 C2'        41.3590  -26.3400   -8.9290 C.3      26   G38       0.0670
    800 O2'        41.2690  -26.9990   -7.6760 O.3      26   G38      -0.6139
    801 C1'        42.7270  -26.5580   -9.5780 C.3      26   G38       0.0191
    802 N9         43.2090  -25.2600  -10.0640 N.ar     26   G38       0.0492
    803 C8         42.7600  -24.5690  -11.1620 C.ar     26   G38       0.1374
    804 N7         43.3230  -23.4110  -11.3120 N.ar     26   G38      -0.5709
    805 C5         44.1890  -23.2990  -10.2390 C.ar     26   G38       0.1744
    806 C6         45.0790  -22.2510   -9.8910 C.2      26   G38       0.4770
    807 O6         45.2510  -21.1810  -10.5040 O.2      26   G38      -0.5597
    808 N1         45.7930  -22.5320   -8.7200 N.am     26   G38      -0.4787
    809 C2         45.6430  -23.7080   -7.9890 C.2      26   G38       0.7657
    810 N2         46.3780  -23.8520   -6.8790 N.pl3    26   G38      -0.9672
    811 N3         44.8180  -24.6920   -8.3170 N.2      26   G38      -0.6323
    812 C4         44.1290  -24.4360   -9.4550 C.ar     26   G38       0.1222
    813 H5'        39.8060  -28.6544  -12.1772 H        26   G38       0.0679
    814 H5''       41.5287  -28.8893  -12.5710 H        26   G38       0.0679
    815 H4'        41.1000  -28.8295  -10.1114 H        26   G38       0.1174
    816 H3'        40.1594  -26.0035  -10.7102 H        26   G38       0.0615
    817 H2'        41.2148  -25.2711   -8.7713 H        26   G38       0.0972
    818 H1'        43.4296  -26.9903   -8.8655 H        26   G38       0.2006
    819 H8         42.0093  -24.9535  -11.8365 H        26   G38       0.1640
    820 H1         46.4532  -21.8440   -8.3870 H        26   G38       0.3424
    821 H21        47.0162  -23.1215   -6.5976 H        26   G38       0.4364
    822 H22        46.2941  -24.6911   -6.3231 H        26   G38       0.4364
    823 HO2'       40.4019  -26.8444   -7.2942 H        26   G38       0.4186
    824 P          37.8440  -26.4880   -9.4250 P.3      27   U39       1.1662
    825 OP1        38.2000  -25.1240   -9.8930 O.co2    27   U39      -0.7760
    826 OP2        37.2570  -26.7400   -8.0800 O.co2    27   U39      -0.7760
    827 O5'        36.9120  -27.1510  -10.5490 O.3      27   U39      -0.4989
    828 C5'        37.2010  -27.1140  -11.9380 C.3      27   U39       0.0558
    829 C4'        36.8210  -28.4490  -12.5690 C.3      27   U39       0.1065
    830 O4'        37.6520  -29.5360  -12.0460 O.3      27   U39      -0.3548
    831 C3'        35.4190  -28.9530  -12.2430 C.3      27   U39       0.2022
    832 O3'        34.3500  -28.3060  -12.9910 O.3      27   U39      -0.5246
    833 C2'        35.5430  -30.4120  -12.6390 C.3      27   U39       0.0670
    834 O2'        35.4350  -30.5390  -14.0390 O.3      27   U39      -0.6139
    835 C1'        36.9550  -30.7650  -12.1580 C.3      27   U39       0.0674
    836 N1         37.0150  -31.4900  -10.8120 N.am     27   U39       0.0418
    837 C2         36.6640  -32.8300  -10.7350 C.2      27   U39       0.4687
    838 O2         36.2760  -33.5050  -11.6960 O.2      27   U39      -0.5477
    839 N3         36.7760  -33.3580   -9.4580 N.am     27   U39      -0.3549
    840 C4         37.2110  -32.6980   -8.3140 C.2      27   U39       0.5952
    841 O4         37.2800  -33.3070   -7.2560 O.2      27   U39      -0.5761
    842 C5         37.5710  -31.3220   -8.4830 C.2      27   U39      -0.3635
    843 C6         37.4610  -30.7880   -9.7040 C.2      27   U39      -0.1126
    844 H5'        36.6287  -26.3138  -12.4074 H        27   U39       0.0679
    845 H5''       38.2660  -26.9330  -12.0833 H        27   U39       0.0679
    846 H4'        36.9424  -28.3872  -13.6505 H        27   U39       0.1174
    847 H3'        35.2306  -28.8701  -11.1726 H        27   U39       0.0615
    848 H2'        34.7937  -31.0200  -12.1321 H        27   U39       0.0972
    849 H1'        37.4427  -31.3808  -12.9137 H        27   U39       0.1824
    850 H3         36.5132  -34.3268   -9.3466 H        27   U39       0.3154
    851 H5         37.9212  -30.7328   -7.6484 H        27   U39       0.1811
    852 H6         37.7352  -29.7515   -9.8337 H        27   U39       0.2188
    853 HO2'       35.5141  -31.4639  -14.2839 H        27   U39       0.4186
    854 P          32.8660  -28.1620  -12.3580 P.3      28   U40       1.1662
    855 OP1        32.0970  -27.5210  -13.4540 O.co2    28   U40      -0.7760
    856 OP2        32.9540  -27.5420  -11.0180 O.co2    28   U40      -0.7760
    857 O5'        32.2900  -29.6740  -12.2670 O.3      28   U40      -0.4989
    858 C5'        32.1400  -30.4220  -13.5310 C.3      28   U40       0.0558
    859 C4'        31.8500  -31.9050  -13.2900 C.3      28   U40       0.1065
    860 O4'        32.9580  -32.5220  -12.5750 O.3      28   U40      -0.3548
    861 C3'        30.6330  -32.1750  -12.3970 C.3      28   U40       0.2022
    862 O3'        29.4610  -32.3090  -13.2010 O.3      28   U40      -0.5246
    863 C2'        30.9350  -33.5020  -11.7180 C.3      28   U40       0.0670
    864 O2'        30.5030  -34.6150  -12.4900 O.3      28   U40      -0.6139
    865 C1'        32.4650  -33.4750  -11.6230 C.3      28   U40       0.0674
    866 N1         32.9600  -33.1510  -10.2600 N.am     28   U40       0.0418
    867 C2         32.9750  -34.1400   -9.3020 C.2      28   U40       0.4687
    868 O2         32.6010  -35.2780   -9.5270 O.2      28   U40      -0.5477
    869 N3         33.4390  -33.7460   -8.0670 N.am     28   U40      -0.3549
    870 C4         33.9180  -32.5050   -7.7010 C.2      28   U40       0.5952
    871 O4         34.3270  -32.2960   -6.5560 O.2      28   U40      -0.5761
    872 C5         33.8580  -31.5240   -8.7450 C.2      28   U40      -0.3635
    873 C6         33.3940  -31.8830   -9.9550 C.2      28   U40      -0.1126
    874 H5'        31.3160  -29.9905  -14.0992 H        28   U40       0.0679
    875 H5''       33.0586  -30.3289  -14.1104 H        28   U40       0.0679
    876 H4'        31.7138  -32.4069  -14.2479 H        28   U40       0.1174
    877 H3'        30.5091  -31.3816  -11.6600 H        28   U40       0.0615
    878 H2'        30.4909  -33.5318  -10.7230 H        28   U40       0.0972
    879 H1'        32.8421  -34.4599  -11.8985 H        28   U40       0.1824
    880 H3         33.4273  -34.4495   -7.3424 H        28   U40       0.3154
    881 H5         34.1813  -30.5099   -8.5619 H        28   U40       0.1811
    882 H6         33.3605  -31.1326  -10.7310 H        28   U40       0.2188
    883 HO2'       29.5708  -34.7758  -12.3266 H        28   U40       0.4186
    884 P          28.0640  -31.9380  -12.4950 P.3      29   U41       1.1662
    885 OP1        27.0600  -31.9330  -13.6000 O.co2    29   U41      -0.7760
    886 OP2        28.2740  -30.7980  -11.5390 O.co2    29   U41      -0.7760
    887 O5'        27.7740  -33.2540  -11.6320 O.3      29   U41      -0.4989
    888 C5'        27.2090  -33.1880  -10.3590 C.3      29   U41       0.0558
    889 C4'        27.2360  -34.6110   -9.8570 C.3      29   U41       0.1065
    890 O4'        28.6090  -35.0590   -9.6650 O.3      29   U41      -0.3548
    891 C3'        26.5360  -34.7960   -8.5220 C.3      29   U41       0.2022
    892 O3'        25.1440  -34.9880   -8.7450 O.3      29   U41      -0.5246
    893 C2'        27.2280  -36.0540   -8.0040 C.3      29   U41       0.0670
    894 O2'        26.7790  -37.2830   -8.5870 O.3      29   U41      -0.6139
    895 C1'        28.6700  -35.7650   -8.4390 C.3      29   U41       0.0674
    896 N1         29.4770  -35.0200   -7.3980 N.am     29   U41       0.0418
    897 C2         29.8810  -35.7150   -6.2760 C.2      29   U41       0.4687
    898 O2         29.6140  -36.8900   -6.0800 O.2      29   U41      -0.5477
    899 N3         30.6080  -34.9730   -5.3760 N.am     29   U41      -0.3549
    900 C4         30.9770  -33.6420   -5.4840 C.2      29   U41       0.5952
    901 O4         31.6340  -33.1170   -4.5770 O.2      29   U41      -0.5761
    902 C5         30.5150  -32.9870   -6.6670 C.2      29   U41      -0.3635
    903 C6         29.8020  -33.6900   -7.5610 C.2      29   U41      -0.1126
    904 H5'        26.1851  -32.8178  -10.4112 H        29   U41       0.0679
    905 H5''       27.8093  -32.5481   -9.7123 H        29   U41       0.0679
    906 H4'        26.7573  -35.2532  -10.5963 H        29   U41       0.1174
    907 H3'        26.7158  -33.9474   -7.8620 H        29   U41       0.0615
    908 H2'        27.1621  -36.1032   -6.9171 H        29   U41       0.0972
    909 H1'        29.1621  -36.7195   -8.6254 H        29   U41       0.1824
    910 H3         30.9077  -35.4534   -4.5396 H        29   U41       0.3154
    911 H5         30.7358  -31.9439   -6.8389 H        29   U41       0.1811
    912 H6         29.4650  -33.1872   -8.4554 H        29   U41       0.2188
    913 HO2'       26.3262  -37.8066   -7.9219 H        29   U41       0.4186
    914 P          24.1660  -34.4410   -7.6050 P.3      30   G42       1.1662
    915 OP1        22.8500  -34.3470   -8.2760 O.co2    30   G42      -0.7760
    916 OP2        24.7950  -33.2530   -6.9770 O.co2    30   G42      -0.7760
    917 O5'        24.1480  -35.6120   -6.4920 O.3      30   G42      -0.4989
    918 C5'        23.9050  -37.0000   -6.8780 C.3      30   G42       0.0558
    919 C4'        24.2390  -37.9240   -5.7140 C.3      30   G42       0.1065
    920 O4'        25.6850  -38.0000   -5.5310 O.3      30   G42      -0.3548
    921 C3'        23.7690  -37.4790   -4.3290 C.3      30   G42       0.2022
    922 O3'        22.3650  -37.7300   -4.1080 O.3      30   G42      -0.5246
    923 C2'        24.6230  -38.4040   -3.4670 C.3      30   G42       0.0670
    924 O2'        24.1220  -39.7320   -3.4620 O.3      30   G42      -0.6139
    925 C1'        25.9720  -38.3050   -4.1890 C.3      30   G42       0.0191
    926 N9         26.7990  -37.2400   -3.6300 N.ar     30   G42       0.0492
    927 C8         27.0380  -35.9690   -4.1140 C.ar     30   G42       0.1374
    928 N7         27.8180  -35.2420   -3.3380 N.ar     30   G42      -0.5709
    929 C5         28.1060  -36.0630   -2.2720 C.ar     30   G42       0.1744
    930 C6         28.9040  -35.8290   -1.1300 C.2      30   G42       0.4770
    931 O6         29.5130  -34.7880   -0.8470 O.2      30   G42      -0.5597
    932 N1         28.9160  -36.9360   -0.2730 N.am     30   G42      -0.4787
    933 C2         28.2690  -38.1220   -0.5140 C.2      30   G42       0.7657
    934 N2         28.3990  -39.1040    0.4160 N.pl3    30   G42      -0.9672
    935 N3         27.5230  -38.3590   -1.6010 N.2      30   G42      -0.6323
    936 C4         27.4780  -37.2920   -2.4280 C.ar     30   G42       0.1222
    937 H5'        24.5324  -37.2532   -7.7326 H        30   G42       0.0679
    938 H5''       22.8564  -37.1227   -7.1490 H        30   G42       0.0679
    939 H4'        23.8500  -38.9206   -5.9228 H        30   G42       0.1174
    940 H3'        24.0152  -36.4329   -4.1471 H        30   G42       0.0615
    941 H2'        24.7016  -38.0187   -2.4504 H        30   G42       0.0972
    942 H1'        26.4987  -39.2573   -4.1274 H        30   G42       0.2006
    943 H8         26.6243  -35.6040   -5.0424 H        30   G42       0.1640
    944 H1         29.4399  -36.8558    0.5868 H        30   G42       0.3424
    945 H21        28.9559  -38.9453    1.2435 H        30   G42       0.4364
    946 H22        27.9387  -39.9926    0.2798 H        30   G42       0.4364
    947 HO2'       24.6823  -40.2838   -2.9115 H        30   G42       0.4186
    948 P          21.5300  -36.6990   -3.2220 P.3      31   G43       1.1662
    949 OP1        20.1110  -37.1380   -3.2420 O.co2    31   G43      -0.7760
    950 OP2        21.9400  -35.3500   -3.6620 O.co2    31   G43      -0.7760
    951 O5'        22.0410  -36.9200   -1.7310 O.3      31   G43      -0.4989
    952 C5'        21.8650  -38.2240   -1.1360 C.3      31   G43       0.0558
    953 C4'        22.6440  -38.3330    0.1660 C.3      31   G43       0.1065
    954 O4'        24.0710  -38.2350   -0.0790 O.3      31   G43      -0.3548
    955 C3'        22.4130  -37.2450    1.1970 C.3      31   G43       0.2022
    956 O3'        21.1500  -37.4290    1.8860 O.3      31   G43      -0.5246
    957 C2'        23.6470  -37.4520    2.0960 C.3      31   G43       0.0670
    958 O2'        23.5080  -38.5740    2.9400 O.3      31   G43      -0.6139
    959 C1'        24.7470  -37.7080    1.0570 C.3      31   G43       0.0191
    960 N9         25.3670  -36.4320    0.7120 N.ar     31   G43       0.0492
    961 C8         25.0960  -35.6840   -0.4010 C.ar     31   G43       0.1374
    962 N7         25.7700  -34.5700   -0.4260 N.ar     31   G43      -0.5709
    963 C5         26.4930  -34.5460    0.7470 C.ar     31   G43       0.1744
    964 C6         27.3920  -33.5850    1.2320 C.2      31   G43       0.4770
    965 O6         27.7160  -32.5210    0.6900 O.2      31   G43      -0.5597
    966 N1         27.9460  -33.9480    2.4520 N.am     31   G43      -0.4787
    967 C2         27.6450  -35.1150    3.1150 C.2      31   G43       0.7657
    968 N2         28.2360  -35.3360    4.3140 N.pl3    31   G43      -0.9672
    969 N3         26.8070  -36.0270    2.6500 N.2      31   G43      -0.6323
    970 C4         26.2670  -35.6890    1.4640 C.ar     31   G43       0.1222
    971 H5'        20.8061  -38.3842   -0.9333 H        31   G43       0.0679
    972 H5''       22.2174  -38.9865   -1.8306 H        31   G43       0.0679
    973 H4'        22.4317  -39.2999    0.6223 H        31   G43       0.1174
    974 H3'        22.4480  -36.2628    0.7257 H        31   G43       0.0615
    975 H2'        23.8609  -36.5539    2.6754 H        31   G43       0.0972
    976 H1'        25.4867  -38.4136    1.4351 H        31   G43       0.2006
    977 H8         24.4015  -35.9836   -1.1719 H        31   G43       0.1640
    978 H1         28.6099  -33.3174    2.8784 H        31   G43       0.3424
    979 H21        28.8779  -34.6550    4.6938 H        31   G43       0.4364
    980 H22        28.0346  -36.1818    4.8280 H        31   G43       0.4364
    981 HO2'       23.8117  -38.3505    3.8228 H        31   G43       0.4186
    982 P          20.3980  -36.1010    2.4270 P.3      32   G44       1.1662
    983 OP1        19.0550  -36.4950    2.9120 O.co2    32   G44      -0.7760
    984 OP2        20.5430  -35.0810    1.3580 O.co2    32   G44      -0.7760
    985 O5'        21.2550  -35.6170    3.6900 O.3      32   G44      -0.4989
    986 C5'        21.3880  -36.4280    4.8510 C.3      32   G44       0.0558
    987 C4'        22.5740  -35.9700    5.6730 C.3      32   G44       0.1065
    988 O4'        23.7410  -35.7960    4.8290 O.3      32   G44      -0.3548
    989 C3'        22.4360  -34.5840    6.2790 C.3      32   G44       0.2022
    990 O3'        21.5720  -34.6540    7.4210 O.3      32   G44      -0.5246
    991 C2'        23.9150  -34.3480    6.6200 C.3      32   G44       0.0670
    992 O2'        24.3550  -35.1970    7.6860 O.3      32   G44      -0.6139
    993 C1'        24.5950  -34.7860    5.3240 C.3      32   G44       0.0191
    994 N9         24.7740  -33.6980    4.3450 N.ar     32   G44       0.0492
    995 C8         24.1910  -33.5210    3.0990 C.ar     32   G44       0.1374
    996 N7         24.5760  -32.4130    2.4950 N.ar     32   G44      -0.5709
    997 C5         25.4630  -31.8260    3.4020 C.ar     32   G44       0.1744
    998 C6         26.2040  -30.6280    3.3600 C.2      32   G44       0.4770
    999 O6         26.2400  -29.7910    2.4530 O.2      32   G44      -0.5597
   1000 N1         26.9740  -30.4080    4.5010 N.am     32   G44      -0.4787
   1001 C2         27.0400  -31.2380    5.5680 C.2      32   G44       0.7657
   1002 N2         27.8370  -30.8790    6.5900 N.pl3    32   G44      -0.9672
   1003 N3         26.3410  -32.3730    5.6130 N.2      32   G44      -0.6323
   1004 C4         25.5810  -32.6030    4.5270 C.ar     32   G44       0.1222
   1005 H5'        20.4816  -36.3493    5.4513 H        32   G44       0.0679
   1006 H5''       21.5346  -37.4659    4.5521 H        32   G44       0.0679
   1007 H4'        22.7869  -36.6981    6.4557 H        32   G44       0.1174
   1008 H3'        22.0740  -33.8617    5.5473 H        32   G44       0.0615
   1009 H2'        24.1115  -33.2984    6.8388 H        32   G44       0.0972
   1010 H1'        25.5666  -35.2210    5.5582 H        32   G44       0.2006
   1011 H8         23.4914  -34.2207    2.6662 H        32   G44       0.1640
   1012 H1         27.5260  -29.5628    4.5340 H        32   G44       0.3424
   1013 H21        28.3604  -30.0165    6.5434 H        32   G44       0.4364
   1014 H22        27.9122  -31.4719    7.4042 H        32   G44       0.4364
   1015 HO2'       25.3078  -35.1256    7.7795 H        32   G44       0.4186
   1016 P          20.8960  -33.3270    8.0260 P.3      33   A45       1.1662
   1017 OP1        19.9370  -33.7660    9.0590 O.co2    33   A45      -0.7760
   1018 OP2        20.4800  -32.4260    6.9340 O.co2    33   A45      -0.7760
   1019 O5'        22.1070  -32.5660    8.7430 O.3      33   A45      -0.4989
   1020 C5'        22.7890  -33.1390    9.8700 C.3      33   A45       0.0558
   1021 C4'        23.8290  -32.1380   10.3530 C.3      33   A45       0.1065
   1022 O4'        24.7980  -31.8790    9.3060 O.3      33   A45      -0.3548
   1023 C3'        23.2870  -30.7410   10.5990 C.3      33   A45       0.2022
   1024 O3'        22.6480  -30.6490   11.8390 O.3      33   A45      -0.5246
   1025 C2'        24.5400  -29.8830   10.5200 C.3      33   A45       0.0670
   1026 O2'        25.3410  -30.0560   11.6730 O.3      33   A45      -0.6139
   1027 C1'        25.2010  -30.5010    9.3180 C.3      33   A45       0.0394
   1028 N9         24.8910  -29.9010    8.0190 N.ar     33   A45      -0.0251
   1029 C8         24.0080  -30.3910    7.1140 C.ar     33   A45       0.2006
   1030 N7         23.9350  -29.6790    6.0180 N.ar     33   A45      -0.6073
   1031 C5         24.8130  -28.6280    6.2200 C.ar     33   A45       0.0515
   1032 C6         25.1670  -27.5240    5.3960 C.ar     33   A45       0.7009
   1033 N6         24.6630  -27.3360    4.1800 N.pl3    33   A45      -0.9019
   1034 N1         26.0820  -26.6660    5.8640 N.ar     33   A45      -0.7615
   1035 C2         26.5850  -26.8810    7.0790 C.ar     33   A45       0.5875
   1036 N3         26.3390  -27.8670    7.9410 N.ar     33   A45      -0.6997
   1037 C4         25.4210  -28.7340    7.4380 C.ar     33   A45       0.3053
   1038 H5'        23.2790  -34.0661    9.5727 H        33   A45       0.0679
   1039 H5''       22.0746  -33.3406   10.6682 H        33   A45       0.0679
   1040 H4'        24.3285  -32.5128   11.2464 H        33   A45       0.1174
   1041 H3'        22.5958  -30.4645    9.8028 H        33   A45       0.0615
   1042 H2'        24.2989  -28.8335   10.3514 H        33   A45       0.0972
   1043 H1'        26.2805  -30.4619    9.4637 H        33   A45       0.2007
   1044 H8         23.4217  -31.2824    7.2813 H        33   A45       0.1553
   1045 H2         27.3000  -26.1451    7.4160 H        33   A45       0.0473
   1046 H61        25.1806  -26.6042    3.7145 H        33   A45       0.4115
   1047 H62        23.8853  -27.8447    3.7843 H        33   A45       0.4115
   1048 HO2'       24.9049  -29.6564   12.4291 H        33   A45       0.4186
   1049 P          21.4950  -29.5500   12.0520 P.3      34   G46       1.1662
   1050 OP1        21.2040  -29.6120   13.5140 O.co2    34   G46      -0.7760
   1051 OP2        20.4430  -29.7590   11.0400 O.co2    34   G46      -0.7760
   1052 O5'        22.1490  -28.1190   11.7600 O.3      34   G46      -0.4989
   1053 C5'        23.1150  -27.4910   12.6310 C.3      34   G46       0.0558
   1054 C4'        23.6520  -26.2470   11.9250 C.3      34   G46       0.1065
   1055 O4'        24.1240  -26.5910   10.6010 O.3      34   G46      -0.3548
   1056 C3'        22.6170  -25.1720   11.6330 C.3      34   G46       0.2022
   1057 O3'        22.4440  -24.4080   12.7700 O.3      34   G46      -0.5246
   1058 C2'        23.2480  -24.3960   10.4820 C.3      34   G46       0.0670
   1059 O2'        24.2810  -23.5410   10.9380 O.3      34   G46      -0.6139
   1060 C1'        23.8600  -25.5370    9.6770 C.3      34   G46       0.0191
   1061 N9         23.0430  -26.0750    8.5960 N.ar     34   G46       0.0492
   1062 C8         22.2270  -27.1720    8.6460 C.ar     34   G46       0.1374
   1063 N7         21.6280  -27.4290    7.5070 N.ar     34   G46      -0.5709
   1064 C5         22.0850  -26.4500    6.6310 C.ar     34   G46       0.1744
   1065 C6         21.8000  -26.2270    5.2720 C.2      34   G46       0.4770
   1066 O6         21.0460  -26.8740    4.5400 O.2      34   G46      -0.5597
   1067 N1         22.4760  -25.1090    4.7570 N.am     34   G46      -0.4787
   1068 C2         23.3340  -24.3220    5.4980 C.2      34   G46       0.7657
   1069 N2         23.9110  -23.2950    4.8650 N.pl3    34   G46      -0.9672
   1070 N3         23.6190  -24.5450    6.7780 N.2      34   G46      -0.6323
   1071 C4         22.9600  -25.6070    7.2840 C.ar     34   G46       0.1222
   1072 H5'        22.6371  -27.2064   13.5684 H        34   G46       0.0679
   1073 H5''       23.9337  -28.1823   12.8309 H        34   G46       0.0679
   1074 H4'        24.4696  -25.8202   12.5060 H        34   G46       0.1174
   1075 H3'        21.6731  -25.6204   11.3232 H        34   G46       0.0615
   1076 H2'        22.5001  -23.8520    9.9052 H        34   G46       0.0972
   1077 H1'        24.8076  -25.1970    9.2591 H        34   G46       0.2006
   1078 H8         22.0893  -27.7682    9.5359 H        34   G46       0.1640
   1079 H1         22.3255  -24.8668    3.7881 H        34   G46       0.3424
   1080 H21        23.7055  -23.1221    3.8914 H        34   G46       0.4364
   1081 H22        24.5523  -22.6923    5.3606 H        34   G46       0.4364
   1082 HO2'       24.5451  -22.9507   10.2284 H        34   G46       0.4186
   1083 P          21.1180  -24.6300   13.6680 P.3      35   U47       1.1662
   1084 OP1        21.3910  -24.2580   15.0610 O.co2    35   U47      -0.7760
   1085 OP2        20.4870  -25.9190   13.3060 O.co2    35   U47      -0.7760
   1086 O5'        20.2370  -23.4750   13.0180 O.3      35   U47      -0.4989
   1087 C5'        20.5370  -22.1190   13.2860 C.3      35   U47       0.0558
   1088 C4'        19.5270  -21.2890   12.5310 C.3      35   U47       0.1065
   1089 O4'        19.5810  -21.6470   11.1070 O.3      35   U47      -0.3548
   1090 C3'        18.0890  -21.4870   12.9980 C.3      35   U47       0.2022
   1091 O3'        17.4060  -20.2530   13.0410 O.3      35   U47      -0.5246
   1092 C2'        17.5290  -22.3550   11.8700 C.3      35   U47       0.0670
   1093 O2'        16.1340  -22.2560   11.7450 O.3      35   U47      -0.6139
   1094 C1'        18.2550  -21.7790   10.6560 C.3      35   U47       0.0674
   1095 N1         18.1930  -22.6730    9.4900 N.am     35   U47       0.0418
   1096 C2         17.7720  -22.1760    8.2580 C.2      35   U47       0.4687
   1097 O2         17.4930  -20.9960    8.0320 O.2      35   U47      -0.5477
   1098 N3         17.7330  -23.1260    7.2560 N.am     35   U47      -0.3549
   1099 C4         18.0510  -24.4590    7.3440 C.2      35   U47       0.5952
   1100 O4         17.9610  -25.1710    6.3480 O.2      35   U47      -0.5761
   1101 C5         18.4520  -24.8920    8.6600 C.2      35   U47      -0.3635
   1102 C6         18.5130  -24.0060    9.6630 C.2      35   U47      -0.1126
   1103 H5'        21.5452  -21.8838   12.9450 H        35   U47       0.0679
   1104 H5''       20.4521  -21.9245   14.3552 H        35   U47       0.0679
   1105 H4'        19.7884  -20.2362   12.6379 H        35   U47       0.1174
   1106 H3'        18.0470  -22.0017   13.9579 H        35   U47       0.0615
   1107 H2'        17.8181  -23.3952   12.0198 H        35   U47       0.0972
   1108 H1'        17.8453  -20.8013   10.4021 H        35   U47       0.1824
   1109 H3         17.4341  -22.8005    6.3478 H        35   U47       0.3154
   1110 H5         18.7024  -25.9277    8.8364 H        35   U47       0.1811
   1111 H6         18.8229  -24.3453   10.6404 H        35   U47       0.2188
   1112 HO2'       15.7129  -22.8171   12.4003 H        35   U47       0.4186
   1113 P          17.2460  -19.3650   14.3610 P.3      36   U48       1.1662
   1114 OP1        16.7130  -18.0350   13.9530 O.co2    36   U48      -0.7760
   1115 OP2        18.4740  -19.4730   15.1740 O.co2    36   U48      -0.7760
   1116 O5'        16.0990  -20.1080   15.1560 O.3      36   U48      -0.4989
   1117 C5'        14.9270  -20.3980   14.4520 C.3      36   U48       0.0558
   1118 C4'        14.0960  -21.3320   15.2830 C.3      36   U48       0.1065
   1119 O4'        13.7590  -20.6570   16.5110 O.3      36   U48      -0.3548
   1120 C3'        12.7950  -21.7110   14.5880 C.3      36   U48       0.2022
   1121 O3'        12.6150  -23.1260   14.5950 O.3      36   U48      -0.5246
   1122 C2'        11.7410  -20.9920   15.4080 C.3      36   U48       0.0670
   1123 O2'        10.5540  -21.7400   15.4560 O.3      36   U48      -0.6139
   1124 C1'        12.4130  -20.9800   16.7740 C.3      36   U48       0.0674
   1125 N1         11.8180  -20.0710   17.8190 N.am     36   U48       0.0418
   1126 C2         11.6200  -20.6330   19.0550 C.2      36   U48       0.4687
   1127 O2         11.9160  -21.7940   19.2730 O.2      36   U48      -0.5477
   1128 N3         11.0810  -19.7910   20.0130 N.am     36   U48      -0.3549
   1129 C4         10.7190  -18.4590   19.8500 C.2      36   U48       0.5952
   1130 O4         10.2350  -17.8300   20.8020 O.2      36   U48      -0.5761
   1131 C5         10.9590  -17.9390   18.5210 C.2      36   U48      -0.3635
   1132 C6         11.4880  -18.7480   17.5740 C.2      36   U48      -0.1126
   1133 H5'        14.3723  -19.4784   14.2655 H        36   U48       0.0679
   1134 H5''       15.1769  -20.8743   13.5040 H        36   U48       0.0679
   1135 H4'        14.6685  -22.2325   15.5051 H        36   U48       0.1174
   1136 H3'        12.7936  -21.3374   13.5640 H        36   U48       0.0615
   1137 H2'        11.5645  -19.9819   15.0383 H        36   U48       0.0972
   1138 H1'        12.3865  -21.9970   17.1654 H        36   U48       0.1824
   1139 H3         10.9350  -20.1880   20.9302 H        36   U48       0.3154
   1140 H5         10.7177  -16.9127   18.2867 H        36   U48       0.1811
   1141 H6         11.6600  -18.3458   16.5866 H        36   U48       0.2188
   1142 HO2'       10.1400  -21.7401   14.5898 H        36   U48       0.4186
   1143 P          13.4280  -24.0550   13.5720 P.3      37   U49       1.1662
   1144 OP1        12.9140  -25.4260   13.7900 O.co2    37   U49      -0.7760
   1145 OP2        14.8780  -23.7710   13.6990 O.co2    37   U49      -0.7760
   1146 O5'        13.0370  -23.5810   12.0970 O.3      37   U49      -0.4989
   1147 C5'        11.7080  -23.2580   11.6980 C.3      37   U49       0.0558
   1148 C4'        11.7340  -22.7750   10.2570 C.3      37   U49       0.1065
   1149 O4'        12.0920  -21.3740   10.2460 O.3      37   U49      -0.3548
   1150 C3'        12.7680  -23.4460    9.3450 C.3      37   U49       0.2022
   1151 O3'        12.2150  -23.7860    8.0680 O.3      37   U49      -0.5246
   1152 C2'        13.8630  -22.3920    9.2120 C.3      37   U49       0.0670
   1153 O2'        14.6170  -22.5750    8.0340 O.3      37   U49      -0.6139
   1154 C1'        12.9900  -21.1430    9.1730 C.3      37   U49       0.0674
   1155 N1         13.6100  -19.8040    9.4620 N.am     37   U49       0.0418
   1156 C2         13.2140  -18.7110    8.7270 C.2      37   U49       0.4687
   1157 O2         12.4200  -18.7760    7.8140 O.2      37   U49      -0.5477
   1158 N3         13.8170  -17.5240    9.0720 N.am     37   U49      -0.3549
   1159 C4         14.7330  -17.3150   10.1060 C.2      37   U49       0.5952
   1160 O4         15.1780  -16.1840   10.3200 O.2      37   U49      -0.5761
   1161 C5         15.0790  -18.4970   10.8430 C.2      37   U49      -0.3635
   1162 C6         14.5160  -19.6590   10.5110 C.2      37   U49      -0.1126
   1163 H5'        11.0766  -24.1430   11.7764 H        37   U49       0.0679
   1164 H5''       11.3147  -22.4702   12.3405 H        37   U49       0.0679
   1165 H4'        10.7419  -22.8943    9.8216 H        37   U49       0.1174
   1166 H3'        13.1667  -24.3383    9.8276 H        37   U49       0.0615
   1167 H2'        14.5083  -22.3884   10.0904 H        37   U49       0.0972
   1168 H1'        12.4414  -21.1027    8.2320 H        37   U49       0.1824
   1169 H3         13.5710  -16.7161    8.5180 H        37   U49       0.3154
   1170 H5         15.7871  -18.4457   11.6569 H        37   U49       0.1811
   1171 H6         14.7761  -20.5354   11.0861 H        37   U49       0.2188
   1172 HO2'       14.5700  -23.4948    7.7631 H        37   U49       0.4186
   1173 P          12.8030  -25.0860    7.3520 P.3      38   C50       1.1662
   1174 OP1        12.3450  -26.2110    8.2070 O.co2    38   C50      -0.7760
   1175 OP2        14.2620  -24.9060    7.1560 O.co2    38   C50      -0.7760
   1176 O5'        12.0850  -25.1580    5.9310 O.3      38   C50      -0.4989
   1177 C5'        10.7160  -25.4920    5.8050 C.3      38   C50       0.0558
   1178 C4'        10.1250  -24.7210    4.6390 C.3      38   C50       0.1065
   1179 O4'        10.0590  -23.3100    4.9910 O.3      38   C50      -0.3548
   1180 C3'        10.9600  -24.6950    3.3730 C.3      38   C50       0.2022
   1181 O3'        10.9000  -25.9370    2.6490 O.3      38   C50      -0.5246
   1182 C2'        10.2880  -23.5150    2.6770 C.3      38   C50       0.0670
   1183 O2'         8.9700  -23.7750    2.2200 O.3      38   C50      -0.6139
   1184 C1'        10.2050  -22.5150    3.8350 C.3      38   C50       0.0066
   1185 N1         11.4170  -21.5860    3.9930 N.am     38   C50      -0.0484
   1186 C2         11.7440  -20.6940    2.9600 C.2      38   C50       0.7538
   1187 O2         11.0520  -20.6840    1.9330 O.2      38   C50      -0.6252
   1188 N3         12.8200  -19.8730    3.1250 N.2      38   C50      -0.7584
   1189 C4         13.5540  -19.9020    4.2500 C.2      38   C50       0.8185
   1190 N4         14.5940  -19.0640    4.3300 N.pl3    38   C50      -0.9530
   1191 C5         13.2390  -20.7820    5.3340 C.2      38   C50      -0.5215
   1192 C6         12.1820  -21.5890    5.1520 C.2      38   C50       0.0053
   1193 H5'        10.6162  -26.5621    5.6236 H        38   C50       0.0679
   1194 H5''       10.1898  -25.2268    6.7220 H        38   C50       0.0679
   1195 H4'         9.1255  -25.0945    4.4162 H        38   C50       0.1174
   1196 H3'        11.9949  -24.4497    3.6115 H        38   C50       0.0615
   1197 H2'        10.9123  -23.1291    1.8711 H        38   C50       0.0972
   1198 H1'         9.3091  -21.9066    3.7110 H        38   C50       0.2029
   1199 H5         13.8182  -20.7959    6.2455 H        38   C50       0.1928
   1200 H6         11.9139  -22.2726    5.9439 H        38   C50       0.1958
   1201 H41        14.8039  -18.4447    3.5603 H        38   C50       0.4234
   1202 H42        15.1692  -19.0507    5.1601 H        38   C50       0.4234
   1203 HO2'        9.0006  -24.4009    1.4927 H        38   C50       0.4186
   1204 P          12.2330  -26.7090    2.1810 P.3      39   U51       1.1662
   1205 OP1        11.7530  -27.8300    1.3340 O.co2    39   U51      -0.7760
   1206 OP2        13.1230  -26.9690    3.3300 O.co2    39   U51      -0.7760
   1207 O5'        12.9700  -25.6840    1.2000 O.3      39   U51      -0.4989
   1208 C5'        12.2910  -25.3050   -0.0230 C.3      39   U51       0.0558
   1209 C4'        12.9020  -24.0540   -0.6070 C.3      39   U51       0.1065
   1210 O4'        12.8320  -22.9570    0.3440 O.3      39   U51      -0.3548
   1211 C3'        14.3890  -24.1680   -0.8980 C.3      39   U51       0.2022
   1212 O3'        14.5750  -24.7940   -2.1710 O.3      39   U51      -0.5246
   1213 C2'        14.7700  -22.6890   -0.9190 C.3      39   U51       0.0670
   1214 O2'        14.2580  -21.9790   -2.0290 O.3      39   U51      -0.6139
   1215 C1'        14.0260  -22.1980    0.2940 C.3      39   U51       0.0674
   1216 N1         14.8170  -22.1880    1.5920 N.am     39   U51       0.0418
   1217 C2         15.7630  -21.1800    1.7150 C.2      39   U51       0.4687
   1218 O2         15.9610  -20.3670    0.8020 O.2      39   U51      -0.5477
   1219 N3         16.4520  -21.1450    2.9090 N.am     39   U51      -0.3549
   1220 C4         16.2830  -22.0250    3.9600 C.2      39   U51       0.5952
   1221 O4         16.9550  -21.8870    4.9760 O.2      39   U51      -0.5761
   1222 C5         15.2700  -23.0450    3.7530 C.2      39   U51      -0.3635
   1223 C6         14.5780  -23.0870    2.6020 C.2      39   U51      -0.1126
   1224 H5'        12.3770  -26.1162   -0.7460 H        39   U51       0.0679
   1225 H5''       11.2377  -25.1245    0.1915 H        39   U51       0.0679
   1226 H4'        12.3717  -23.7805   -1.5192 H        39   U51       0.1174
   1227 H3'        14.9121  -24.7054   -0.1070 H        39   U51       0.0615
   1228 H2'        15.8460  -22.5496   -0.8143 H        39   U51       0.0972
   1229 H1'        13.7370  -21.1667    0.0918 H        39   U51       0.1824
   1230 H3         17.1387  -20.4135    3.0248 H        39   U51       0.3154
   1231 H5         15.0723  -23.7721    4.5267 H        39   U51       0.1811
   1232 H6         13.8185  -23.8431    2.4686 H        39   U51       0.2188
   1233 HO2'       14.3997  -21.0383   -1.9002 H        39   U51       0.4186
   1234 P          15.9340  -25.5050   -2.5560 P.3      40   A52       1.1662
   1235 OP1        15.7910  -25.9630   -3.9580 O.co2    40   A52      -0.7760
   1236 OP2        16.3160  -26.4720   -1.5140 O.co2    40   A52      -0.7760
   1237 O5'        17.0340  -24.3470   -2.6080 O.3      40   A52      -0.4989
   1238 C5'        16.9910  -23.3090   -3.5950 C.3      40   A52       0.0558
   1239 C4'        18.0880  -22.2840   -3.3250 C.3      40   A52       0.1065
   1240 O4'        17.7760  -21.5720   -2.0900 O.3      40   A52      -0.3548
   1241 C3'        19.5090  -22.8100   -3.1280 C.3      40   A52       0.2022
   1242 O3'        20.2050  -22.8700   -4.3950 O.3      40   A52      -0.5246
   1243 C2'        20.1350  -21.7490   -2.2110 C.3      40   A52       0.0670
   1244 O2'        20.5510  -20.5790   -2.9450 O.3      40   A52      -0.6139
   1245 C1'        18.9580  -21.4100   -1.3430 C.3      40   A52       0.0394
   1246 N9         18.8400  -22.1840   -0.1010 N.ar     40   A52      -0.0251
   1247 C8         18.0740  -23.2840    0.1730 C.ar     40   A52       0.2006
   1248 N7         18.2140  -23.7350    1.4270 N.ar     40   A52      -0.6073
   1249 C5         19.1420  -22.8770    1.9850 C.ar     40   A52       0.0515
   1250 C6         19.7270  -22.7930    3.2760 C.ar     40   A52       0.7009
   1251 N6         19.4220  -23.6330    4.3010 N.pl3    40   A52      -0.9019
   1252 N1         20.6100  -21.7960    3.4830 N.ar     40   A52      -0.7615
   1253 C2         20.9090  -20.9480    2.4920 C.ar     40   A52       0.5875
   1254 N3         20.4230  -20.9330    1.2460 N.ar     40   A52      -0.6997
   1255 C4         19.5310  -21.9200    1.0540 C.ar     40   A52       0.3053
   1256 H5'        16.0197  -22.8158   -3.5574 H        40   A52       0.0679
   1257 H5''       17.1378  -23.7438   -4.5837 H        40   A52       0.0679
   1258 H4'        18.0971  -21.5651   -4.1443 H        40   A52       0.1174
   1259 H3'        19.4988  -23.7862   -2.6431 H        40   A52       0.0615
   1260 H2'        20.9553  -22.1635   -1.6250 H        40   A52       0.0972
   1261 H1'        19.0377  -20.3573   -1.0718 H        40   A52       0.2007
   1262 H8         17.4193  -23.7447   -0.5519 H        40   A52       0.1553
   1263 H2         21.6320  -20.1810    2.7273 H        40   A52       0.0473
   1264 H61        19.9989  -23.4485    5.1092 H        40   A52       0.4115
   1265 H62        18.7106  -24.3487    4.2594 H        40   A52       0.4115
   1266 HO2'       21.3036  -20.7990   -3.4989 H        40   A52       0.4186
   1267 P          21.0970  -24.1360   -4.8300 P.3      41   C53       1.1662
   1268 OP1        21.3520  -23.9160   -6.2780 O.co2    41   C53      -0.7760
   1269 OP2        20.4720  -25.4050   -4.4410 O.co2    41   C53      -0.7760
   1270 O5'        22.4480  -23.9760   -4.0180 O.3      41   C53      -0.4989
   1271 C5'        23.2370  -22.7990   -4.1770 C.3      41   C53       0.0558
   1272 C4'        24.1670  -22.6310   -2.9870 C.3      41   C53       0.1065
   1273 O4'        23.3360  -22.2760   -1.8430 O.3      41   C53      -0.3548
   1274 C3'        24.9810  -23.8500   -2.5300 C.3      41   C53       0.2022
   1275 O3'        26.2220  -23.9860   -3.2550 O.3      41   C53      -0.5246
   1276 C2'        25.2530  -23.4570   -1.0810 C.3      41   C53       0.0670
   1277 O2'        26.3530  -22.5800   -0.9010 O.3      41   C53      -0.6139
   1278 C1'        23.9550  -22.7550   -0.6720 C.3      41   C53       0.0066
   1279 N1         23.0160  -23.6840    0.0170 N.am     41   C53      -0.0484
   1280 C2         23.0740  -23.7890    1.4060 C.2      41   C53       0.7538
   1281 O2         23.8950  -23.0930    2.0230 O.2      41   C53      -0.6252
   1282 N3         22.2210  -24.6600    2.0330 N.2      41   C53      -0.7584
   1283 C4         21.3700  -25.4030    1.3130 C.2      41   C53       0.8185
   1284 N4         20.5420  -26.2380    1.9650 N.pl3    41   C53      -0.9530
   1285 C5         21.2980  -25.2910   -0.1030 C.2      41   C53      -0.5215
   1286 C6         22.1430  -24.4530   -0.7230 C.2      41   C53       0.0053
   1287 H5'        23.8290  -22.8820   -5.0885 H        41   C53       0.0679
   1288 H5''       22.5815  -21.9311   -4.2492 H        41   C53       0.0679
   1289 H4'        24.8524  -21.8084   -3.1911 H        41   C53       0.1174
   1290 H3'        24.3889  -24.7634   -2.5865 H        41   C53       0.0615
   1291 H2'        25.3935  -24.3530   -0.4764 H        41   C53       0.0972
   1292 H1'        24.1862  -21.9173   -0.0140 H        41   C53       0.2029
   1293 H5         20.5794  -25.8675   -0.6666 H        41   C53       0.1928
   1294 H6         22.1393  -24.3810   -1.8006 H        41   C53       0.1958
   1295 H41        20.5826  -26.3053    2.9719 H        41   C53       0.4234
   1296 H42        19.8794  -26.7979    1.4478 H        41   C53       0.4234
   1297 HO2'       26.0541  -21.6710   -0.9785 H        41   C53       0.4186
   1298 P          26.5850  -25.2680   -4.1640 P.3      42   C54       1.1662
   1299 OP1        25.3960  -26.0720   -4.5350 O.co2    42   C54      -0.7760
   1300 OP2        27.7740  -25.9240   -3.5870 O.co2    42   C54      -0.7760
   1301 O5'        27.0650  -24.4570   -5.4760 O.3      42   C54      -0.4989
   1302 C5'        26.2750  -24.1770   -6.5910 C.3      42   C54       0.0558
   1303 C4'        26.2120  -22.7060   -7.0200 C.3      42   C54       0.1065
   1304 O4'        25.9610  -21.8040   -5.9060 O.3      42   C54      -0.3548
   1305 C3'        27.3720  -22.0050   -7.7450 C.3      42   C54       0.2022
   1306 O3'        27.6240  -22.5220   -9.0470 O.3      42   C54      -0.5246
   1307 C2'        26.7840  -20.5990   -7.7830 C.3      42   C54       0.0670
   1308 O2'        25.8190  -20.4130   -8.7980 O.3      42   C54      -0.6139
   1309 C1'        26.1090  -20.4810   -6.4150 C.3      42   C54       0.0066
   1310 N1         27.0050  -19.7230   -5.4650 N.am     42   C54      -0.0484
   1311 C2         27.2760  -18.3500   -5.6500 C.2      42   C54       0.7538
   1312 O2         26.7590  -17.7130   -6.5900 O.2      42   C54      -0.6252
   1313 N3         28.1160  -17.7450   -4.7670 N.2      42   C54      -0.7584
   1314 C4         28.6900  -18.4080   -3.7790 C.2      42   C54       0.8185
   1315 N4         29.5020  -17.7290   -2.9500 N.pl3    42   C54      -0.9530
   1316 C5         28.4480  -19.7990   -3.6080 C.2      42   C54      -0.5215
   1317 C6         27.6340  -20.4140   -4.4720 C.2      42   C54       0.0053
   1318 H5'        25.2588  -24.5032   -6.3696 H        42   C54       0.0679
   1319 H5''       26.6477  -24.7632   -7.4310 H        42   C54       0.0679
   1320 H4'        25.3479  -22.6202   -7.6789 H        42   C54       0.1174
   1321 H3'        28.2772  -22.0287   -7.1383 H        42   C54       0.0615
   1322 H2'        27.5790  -19.8593   -7.8772 H        42   C54       0.0972
   1323 H1'        25.1393  -19.9913   -6.5043 H        42   C54       0.2029
   1324 H5         28.9108  -20.3454   -2.7995 H        42   C54       0.1928
   1325 H6         27.4716  -21.4779   -4.3818 H        42   C54       0.1958
   1326 H41        29.6578  -16.7413   -3.0925 H        42   C54       0.4234
   1327 H42        29.9562  -18.2066   -2.1847 H        42   C54       0.4234
   1328 HO2'       25.1369  -21.0837   -8.7175 H        42   C54       0.4186
   1329 P          29.0570  -22.4040   -9.7590 P.3      43   A55       1.1662
   1330 OP1        29.0220  -23.1310  -11.0610 O.co2    43   A55      -0.7760
   1331 OP2        30.0950  -22.6930   -8.7600 O.co2    43   A55      -0.7760
   1332 O5'        29.1860  -20.8750  -10.2260 O.3      43   A55      -0.4989
   1333 C5'        28.3020  -20.3130  -11.1350 C.3      43   A55       0.0558
   1334 C4'        28.5720  -18.8280  -11.2620 C.3      43   A55       0.1065
   1335 O4'        28.2090  -18.2010   -9.9970 O.3      43   A55      -0.3548
   1336 C3'        30.0320  -18.4660  -11.4440 C.3      43   A55       0.2022
   1337 O3'        30.3690  -18.5570  -12.8320 O.3      43   A55      -0.5246
   1338 C2'        30.0090  -17.0310  -10.9340 C.3      43   A55       0.0670
   1339 O2'        29.3800  -16.1460  -11.8260 O.3      43   A55      -0.6139
   1340 C1'        29.1170  -17.1410   -9.7190 C.3      43   A55       0.0394
   1341 N9         29.8450  -17.3820   -8.4560 N.ar     43   A55      -0.0251
   1342 C8         30.0400  -18.5570   -7.8060 C.ar     43   A55       0.2006
   1343 N7         30.7240  -18.4390   -6.6910 N.ar     43   A55      -0.6073
   1344 C5         30.9980  -17.0780   -6.6150 C.ar     43   A55       0.0515
   1345 C6         31.6860  -16.2890   -5.6680 C.ar     43   A55       0.7009
   1346 N6         32.2710  -16.7790   -4.5620 N.pl3    43   A55      -0.9019
   1347 N1         31.7740  -14.9730   -5.9120 N.ar     43   A55      -0.7615
   1348 C2         31.2040  -14.4530   -7.0060 C.ar     43   A55       0.5875
   1349 N3         30.5350  -15.0910   -7.9650 N.ar     43   A55      -0.6997
   1350 C4         30.4700  -16.4180   -7.7020 C.ar     43   A55       0.3053
   1351 H5'        28.4316  -20.7887  -12.1071 H        43   A55       0.0679
   1352 H5''       27.2798  -20.4673  -10.7894 H        43   A55       0.0679
   1353 H4'        27.9777  -18.4071  -12.0730 H        43   A55       0.1174
   1354 H3'        30.6788  -19.0964  -10.8338 H        43   A55       0.0615
   1355 H2'        31.0078  -16.6860  -10.6665 H        43   A55       0.0972
   1356 H1'        28.5496  -16.2155   -9.6207 H        43   A55       0.2007
   1357 H8         29.6671  -19.5023   -8.1718 H        43   A55       0.1553
   1358 H2         31.2982  -13.3838   -7.1259 H        43   A55       0.0473
   1359 HO2'       30.0379  -15.5725  -12.2257 H        43   A55       0.4186
   1360 H61        32.4799  -16.0315   -3.9157 H        43   A55       0.4115
   1361 H62        32.4730  -17.7553   -4.4001 H        43   A55       0.4115
   1362 P          31.8590  -18.7570  -13.3520 P.3      44   A56       1.1662
   1363 OP1        31.7700  -19.0120  -14.8080 O.co2    44   A56      -0.7760
   1364 OP2        32.5870  -19.7260  -12.5120 O.co2    44   A56      -0.7760
   1365 O5'        32.4560  -17.2810  -13.1340 O.3      44   A56      -0.4989
   1366 C5'        32.1410  -16.1900  -13.9870 C.3      44   A56       0.0558
   1367 C4'        32.6590  -14.8870  -13.4010 C.3      44   A56       0.1065
   1368 O4'        32.1250  -14.7250  -12.0640 O.3      44   A56      -0.3548
   1369 C3'        34.1650  -14.8590  -13.1650 C.3      44   A56       0.2022
   1370 O3'        34.8660  -14.5050  -14.3410 O.3      44   A56      -0.5246
   1371 C2'        34.2790  -13.7760  -12.1030 C.3      44   A56       0.0670
   1372 O2'        33.9940  -12.4950  -12.5980 O.3      44   A56      -0.6139
   1373 C1'        33.1190  -14.1590  -11.2210 C.3      44   A56       0.0394
   1374 N9         33.5250  -15.0530  -10.1420 N.ar     44   A56      -0.0251
   1375 C8         33.4420  -16.4090  -10.0980 C.ar     44   A56       0.2006
   1376 N7         33.8890  -16.9020   -8.9750 N.ar     44   A56      -0.6073
   1377 C5         34.2810  -15.8160   -8.2220 C.ar     44   A56       0.0515
   1378 C6         34.8400  -15.6800   -6.9260 C.ar     44   A56       0.7009
   1379 N6         35.1070  -16.7080   -6.1170 N.pl3    44   A56      -0.9019
   1380 N1         35.1210  -14.4240   -6.4930 N.ar     44   A56      -0.7615
   1381 C2         34.8530  -13.4000   -7.2940 C.ar     44   A56       0.5875
   1382 N3         34.3330  -13.4010   -8.5250 N.ar     44   A56      -0.6997
   1383 C4         34.0640  -14.6580   -8.9350 C.ar     44   A56       0.3053
   1384 H5'        32.6015  -16.3526  -14.9615 H        44   A56       0.0679
   1385 H5''       31.0594  -16.1265  -14.1059 H        44   A56       0.0679
   1386 H4'        32.3611  -14.0475  -14.0292 H        44   A56       0.1174
   1387 H3'        34.5142  -15.8170  -12.7798 H        44   A56       0.0615
   1388 H2'        35.2314  -13.8132  -11.5741 H        44   A56       0.0972
   1389 H1'        32.7130  -13.2501  -10.7769 H        44   A56       0.2007
   1390 H8         33.0495  -17.0121  -10.9034 H        44   A56       0.1553
   1391 H2         35.0893  -12.4255   -6.8930 H        44   A56       0.0473
   1392 H61        35.1816  -16.5179   -5.1279 H        44   A56       0.4115
   1393 H62        35.2300  -17.6421   -6.4810 H        44   A56       0.4115
   1394 HO2'       34.7092  -12.2058  -13.1693 H        44   A56       0.4186
   1395 P          36.3480  -15.0570  -14.5510 P.3      45   G57       1.1662
   1396 OP1        36.7560  -14.6960  -15.9450 O.co2    45   G57      -0.7760
   1397 OP2        36.3550  -16.4680  -14.1280 O.co2    45   G57      -0.7760
   1398 O5'        37.2350  -14.1820  -13.5240 O.3      45   G57      -0.4989
   1399 C5'        37.3890  -12.7260  -13.6570 C.3      45   G57       0.0558
   1400 C4'        37.9910  -12.0940  -12.4000 C.3      45   G57       0.1065
   1401 O4'        37.1700  -12.3780  -11.2170 O.3      45   G57      -0.3548
   1402 C3'        39.3700  -12.5980  -11.9500 C.3      45   G57       0.2022
   1403 O3'        40.4660  -12.0720  -12.7370 O.3      45   G57      -0.5246
   1404 C2'        39.3940  -12.0800  -10.5120 C.3      45   G57       0.0670
   1405 O2'        39.5750  -10.6740  -10.4290 O.3      45   G57      -0.6139
   1406 C1'        37.9850  -12.4460  -10.0490 C.3      45   G57       0.0191
   1407 N9         37.9180  -13.7610   -9.4150 N.ar     45   G57       0.0492
   1408 C8         37.4850  -14.9280  -10.0010 C.ar     45   G57       0.1374
   1409 N7         37.5470  -15.9700   -9.2060 N.ar     45   G57      -0.5709
   1410 C5         38.0580  -15.4740   -8.0140 C.ar     45   G57       0.1744
   1411 C6         38.3430  -16.1490   -6.7950 C.2      45   G57       0.4770
   1412 O6         38.1800  -17.3440   -6.5150 O.2      45   G57      -0.5597
   1413 N1         38.8550  -15.2960   -5.8170 N.am     45   G57      -0.4787
   1414 C2         39.0650  -13.9450   -6.0110 C.2      45   G57       0.7657
   1415 N2         39.5680  -13.3000   -4.9480 N.pl3    45   G57      -0.9672
   1416 N3         38.8090  -13.2960   -7.1530 N.2      45   G57      -0.6323
   1417 C4         38.2980  -14.1110   -8.1200 C.ar     45   G57       0.1222
   1418 H5'        36.4092  -12.2840  -13.8378 H        45   G57       0.0679
   1419 H5''       38.0372  -12.5133  -14.5071 H        45   G57       0.0679
   1420 H4'        38.0414  -11.0143  -12.5405 H        45   G57       0.1174
   1421 H3'        39.3920  -13.6878  -11.9569 H        45   G57       0.0615
   1422 H2'        40.1458  -12.6044   -9.9222 H        45   G57       0.0972
   1423 H1'        37.6426  -11.6948   -9.3373 H        45   G57       0.2006
   1424 H8         37.1279  -14.9814  -11.0189 H        45   G57       0.1640
   1425 H1         39.0852  -15.6890   -4.9155 H        45   G57       0.3424
   1426 H21        39.7584  -13.8052   -4.0944 H        45   G57       0.4364
   1427 H22        39.7564  -12.3091   -5.0012 H        45   G57       0.4364
   1428 HO2'       40.1833  -10.4708   -9.7146 H        45   G57       0.4186
   1429 P          41.8700  -12.8650  -12.8610 P.3      46   A58       1.1662
   1430 OP1        42.6220  -12.1900  -13.9140 O.co2    46   A58      -0.7760
   1431 OP2        41.6180  -14.3350  -12.9180 O.co2    46   A58      -0.7760
   1432 O5'        42.6110  -12.6410  -11.4570 O.3      46   A58      -0.4989
   1433 C5'        43.0990  -11.3880  -10.9700 C.3      46   A58       0.0558
   1434 C4'        43.2810  -11.4920   -9.4560 C.3      46   A58       0.1065
   1435 O4'        42.0870  -12.0060   -8.7940 O.3      46   A58      -0.3548
   1436 C3'        44.3500  -12.4580   -8.9550 C.3      46   A58       0.2022
   1437 O3'        45.6490  -11.9230   -9.1670 O.3      46   A58      -0.5246
   1438 C2'        43.9490  -12.5190   -7.4830 C.3      46   A58       0.0670
   1439 O2'        44.2510  -11.3270   -6.7660 O.3      46   A58      -0.6139
   1440 C1'        42.4430  -12.7440   -7.6300 C.3      46   A58       0.0394
   1441 N9         42.0700  -14.1620   -7.8090 N.ar     46   A58      -0.0251
   1442 C8         41.6900  -14.7310   -8.9970 C.ar     46   A58       0.2006
   1443 N7         41.4150  -16.0100   -8.9430 N.ar     46   A58      -0.6073
   1444 C5         41.6260  -16.3150   -7.6120 C.ar     46   A58       0.0515
   1445 C6         41.5040  -17.5200   -6.9060 C.ar     46   A58       0.7009
   1446 N6         41.1260  -18.6380   -7.5160 N.pl3    46   A58      -0.9019
   1447 N1         41.7690  -17.5420   -5.5760 N.ar     46   A58      -0.7615
   1448 C2         42.1530  -16.3960   -5.0010 C.ar     46   A58       0.5875
   1449 N3         42.3120  -15.1920   -5.5670 N.ar     46   A58      -0.6997
   1450 C4         42.0330  -15.2000   -6.8910 C.ar     46   A58       0.3053
   1451 H5'        44.0553  -11.1586  -11.4400 H        46   A58       0.0679
   1452 H5''       42.3804  -10.6012  -11.1992 H        46   A58       0.0679
   1453 H4'        43.4971  -10.4988   -9.0623 H        46   A58       0.1174
   1454 H3'        44.2474  -13.4343   -9.4287 H        46   A58       0.0615
   1455 H2'        44.4140  -13.3784   -7.0001 H        46   A58       0.0972
   1456 H1'        41.9244  -12.3347   -6.7630 H        46   A58       0.2007
   1457 H8         41.6222  -14.1638   -9.9136 H        46   A58       0.1553
   1458 H2         42.3620  -16.4486   -3.9427 H        46   A58       0.0473
   1459 H61        40.9238  -18.6298   -8.5055 H        46   A58       0.4115
   1460 H62        41.0408  -19.4961   -6.9902 H        46   A58       0.4115
   1461 HO2'       45.2033  -11.2265   -6.6981 H        46   A58       0.4186
   1462 P          46.9430  -12.8450   -9.4190 P.3      47   G59       1.1662
   1463 OP1        48.0550  -11.9030   -9.6610 O.co2    47   G59      -0.7760
   1464 OP2        46.6620  -13.9190  -10.4030 O.co2    47   G59      -0.7760
   1465 O5'        47.1300  -13.5420   -7.9880 O.3      47   G59      -0.4989
   1466 C5'        47.5220  -12.7460   -6.8700 C.3      47   G59       0.0558
   1467 C4'        47.4330  -13.5370   -5.5890 C.3      47   G59       0.1065
   1468 O4'        46.1090  -14.1030   -5.5410 O.3      47   G59      -0.3548
   1469 C3'        48.3680  -14.7270   -5.5190 C.3      47   G59       0.2022
   1470 O3'        49.6330  -14.3490   -4.9820 O.3      47   G59      -0.5246
   1471 C2'        47.5980  -15.6560   -4.5900 C.3      47   G59       0.0670
   1472 O2'        47.7610  -15.3470   -3.2180 O.3      47   G59      -0.6139
   1473 C1'        46.1540  -15.4100   -5.0170 C.3      47   G59       0.0191
   1474 N9         45.6270  -16.3460   -6.0200 N.ar     47   G59       0.0492
   1475 C8         45.3640  -16.1100   -7.3550 C.ar     47   G59       0.1374
   1476 N7         44.8970  -17.1560   -7.9810 N.ar     47   G59      -0.5709
   1477 C5         44.8420  -18.1450   -6.9970 C.ar     47   G59       0.1744
   1478 C6         44.4080  -19.5010   -7.0620 C.2      47   G59       0.4770
   1479 O6         43.9760  -20.0920   -8.0660 O.2      47   G59      -0.5597
   1480 N1         44.5020  -20.1590   -5.8270 N.am     47   G59      -0.4787
   1481 C2         44.9840  -19.5610   -4.6750 C.2      47   G59       0.7657
   1482 N2         45.0530  -20.2920   -3.5550 N.pl3    47   G59      -0.9672
   1483 N3         45.3890  -18.3000   -4.6080 N.2      47   G59      -0.6323
   1484 C4         45.2900  -17.6580   -5.7920 C.ar     47   G59       0.1222
   1485 H5'        46.8643  -11.8796   -6.8008 H        47   G59       0.0679
   1486 H5''       48.5482  -12.4074   -7.0124 H        47   G59       0.0679
   1487 H4'        47.5930  -12.8829   -4.7319 H        47   G59       0.1174
   1488 H3'        48.4879  -15.1802   -6.5030 H        47   G59       0.0615
   1489 H2'        47.8756  -16.6930   -4.7786 H        47   G59       0.0972
   1490 H1'        45.5177  -15.4526   -4.1330 H        47   G59       0.2006
   1491 H8         45.5282  -15.1557   -7.8332 H        47   G59       0.1640
   1492 H1         44.2016  -21.1219   -5.7751 H        47   G59       0.3424
   1493 H21        44.7557  -21.2572   -3.5628 H        47   G59       0.4364
   1494 H22        45.4023  -19.8781   -2.7025 H        47   G59       0.4364
   1495 HO2'       48.3288  -16.0030   -2.8070 H        47   G59       0.4186
   1496 P          51.0160  -14.9960   -5.4920 P.3      48   C60       1.1662
   1497 OP1        52.1060  -14.1770   -4.9140 O.co2    48   C60      -0.7760
   1498 OP2        50.9820  -15.1760   -6.9660 O.co2    48   C60      -0.7760
   1499 O5'        51.0660  -16.4250   -4.7780 O.3      48   C60      -0.4989
   1500 C5'        50.8850  -16.5610   -3.3640 C.3      48   C60       0.0558
   1501 C4'        50.4030  -17.9600   -3.0170 C.3      48   C60       0.1065
   1502 O4'        49.0430  -18.2040   -3.4810 O.3      48   C60      -0.3548
   1503 C3'        51.2360  -19.0730   -3.6280 C.3      48   C60       0.2022
   1504 O3'        52.3560  -19.3240   -2.7720 O.3      48   C60      -0.5246
   1505 C2'        50.2340  -20.2220   -3.6470 C.3      48   C60       0.0670
   1506 O2'        50.1360  -20.8360   -2.3770 O.3      48   C60      -0.6139
   1507 C1'        48.9180  -19.5230   -4.0020 C.3      48   C60       0.0066
   1508 N1         48.5290  -19.4860   -5.4900 N.am     48   C60      -0.0484
   1509 C2         47.9410  -20.6000   -6.1350 C.2      48   C60       0.7538
   1510 O2         47.7320  -21.6520   -5.5140 O.2      48   C60      -0.6252
   1511 N3         47.6130  -20.5000   -7.4560 N.2      48   C60      -0.7584
   1512 C4         47.8450  -19.3660   -8.1430 C.2      48   C60       0.8185
   1513 N4         47.5080  -19.3130   -9.4410 N.pl3    48   C60      -0.9530
   1514 C5         48.4440  -18.2260   -7.5180 C.2      48   C60      -0.5215
   1515 C6         48.7600  -18.3370   -6.2170 C.2      48   C60       0.0053
   1516 H5'        51.8346  -16.3750   -2.8622 H        48   C60       0.0679
   1517 H5''       50.1493  -15.8322   -3.0237 H        48   C60       0.0679
   1518 H4'        50.4219  -18.0715   -1.9329 H        48   C60       0.1174
   1519 H3'        51.5600  -18.8153   -4.6363 H        48   C60       0.0615
   1520 H2'        50.5003  -20.9536   -4.4098 H        48   C60       0.0972
   1521 H1'        48.1162  -20.0230   -3.4587 H        48   C60       0.2029
   1522 H5         48.6336  -17.3163   -8.0684 H        48   C60       0.1928
   1523 H6         49.2134  -17.4920   -5.7202 H        48   C60       0.1958
   1524 H41        47.0864  -20.1154   -9.8864 H        48   C60       0.4234
   1525 H42        47.6760  -18.4707   -9.9724 H        48   C60       0.4234
   1526 HO2'       50.5887  -21.6824   -2.3945 H        48   C60       0.4186
   1527 P          53.7100  -19.9720   -3.3210 P.3      49   C61       1.1662
   1528 OP1        54.7660  -19.7680   -2.3010 O.co2    49   C61      -0.7760
   1529 OP2        53.9380  -19.5250   -4.7140 O.co2    49   C61      -0.7760
   1530 O5'        53.3960  -21.5270   -3.4360 O.3      49   C61      -0.4989
   1531 C5'        52.9900  -22.3640   -2.3620 C.3      49   C61       0.0558
   1532 C4'        52.3960  -23.6150   -2.9890 C.3      49   C61       0.1065
   1533 O4'        51.2040  -23.2760   -3.7440 O.3      49   C61      -0.3548
   1534 C3'        53.2520  -24.2820   -4.0520 C.3      49   C61       0.2022
   1535 O3'        54.2140  -25.0860   -3.4050 O.3      49   C61      -0.5246
   1536 C2'        52.2080  -25.1480   -4.7360 C.3      49   C61       0.0670
   1537 O2'        51.8170  -26.1900   -3.8690 O.3      49   C61      -0.6139
   1538 C1'        51.0400  -24.1700   -4.8390 C.3      49   C61       0.0066
   1539 N1         50.8170  -23.4280   -6.1670 N.am     49   C61      -0.0484
   1540 C2         50.1270  -24.0500   -7.2290 C.2      49   C61       0.7538
   1541 O2         49.7040  -25.2090   -7.0970 O.2      49   C61      -0.6252
   1542 N3         49.9240  -23.3720   -8.3890 N.2      49   C61      -0.7584
   1543 C4         50.3580  -22.1110   -8.5170 C.2      49   C61       0.8185
   1544 N4         50.1370  -21.4710   -9.6700 N.pl3    49   C61      -0.9530
   1545 C5         51.0550  -21.4520   -7.4560 C.2      49   C61      -0.5215
   1546 C6         51.2540  -22.1420   -6.3200 C.2      49   C61       0.0053
   1547 H5'        53.8484  -22.6247   -1.7429 H        49   C61       0.0679
   1548 H5''       52.2369  -21.8566   -1.7591 H        49   C61       0.0679
   1549 H4'        52.1469  -24.3356   -2.2100 H        49   C61       0.1174
   1550 H3'        53.7041  -23.5611   -4.7332 H        49   C61       0.0615
   1551 H2'        52.5372  -25.5127   -5.7090 H        49   C61       0.0972
   1552 H1'        50.1333  -24.7425   -4.6435 H        49   C61       0.2029
   1553 H5         51.4084  -20.4372   -7.5638 H        49   C61       0.1928
   1554 H6         51.7753  -21.6657   -5.5028 H        49   C61       0.1958
   1555 H41        49.6483  -21.9374  -10.4208 H        49   C61       0.4234
   1556 H42        50.4588  -20.5212   -9.7901 H        49   C61       0.4234
   1557 HO2'       51.0886  -26.6769   -4.2613 H        49   C61       0.4186
   1558 P          55.7810  -24.8510   -3.5830 P.3      50   U62       1.1662
   1559 OP1        56.3910  -25.7780   -2.6100 O.co2    50   U62      -0.7760
   1560 OP2        56.0950  -23.3960   -3.5310 O.co2    50   U62      -0.7760
   1561 O5'        56.0630  -25.3950   -5.0640 O.3      50   U62      -0.4989
   1562 C5'        57.3530  -25.8280   -5.4780 C.3      50   U62       0.0558
   1563 C4'        57.3000  -26.1840   -6.9540 C.3      50   U62       0.1065
   1564 O4'        56.7130  -25.0800   -7.6850 O.3      50   U62      -0.3548
   1565 C3'        58.6370  -26.4600   -7.6440 C.3      50   U62       0.2022
   1566 O3'        58.4200  -27.4280   -8.6570 O.3      50   U62      -0.5246
   1567 C2'        59.0040  -25.1280   -8.2840 C.3      50   U62       0.0670
   1568 O2'        59.8280  -25.2860   -9.4230 O.3      50   U62      -0.6139
   1569 C1'        57.6120  -24.6480   -8.6990 C.3      50   U62       0.0674
   1570 N1         57.5010  -23.1720   -8.9090 N.am     50   U62       0.0418
   1571 C2         57.5290  -22.6780  -10.2060 C.2      50   U62       0.4687
   1572 O2         57.6520  -23.3840  -11.2000 O.2      50   U62      -0.5477
   1573 N3         57.4220  -21.3060  -10.3020 N.am     50   U62      -0.3549
   1574 C4         57.2860  -20.4030   -9.2560 C.2      50   U62       0.5952
   1575 O4         57.1960  -19.2030   -9.4910 O.2      50   U62      -0.5761
   1576 C5         57.2650  -20.9940   -7.9400 C.2      50   U62      -0.3635
   1577 C6         57.3710  -22.3280   -7.8180 C.2      50   U62      -0.1126
   1578 H5'        57.6480  -26.7041   -4.9004 H        50   U62       0.0679
   1579 H5''       58.0752  -25.0268   -5.3211 H        50   U62       0.0679
   1580 H4'        56.6608  -27.0584   -7.0761 H        50   U62       0.1174
   1581 H3'        59.3959  -26.7863   -6.9329 H        50   U62       0.0615
   1582 H2'        59.4563  -24.4515   -7.5588 H        50   U62       0.0972
   1583 H1'        57.3421  -25.1467   -9.6299 H        50   U62       0.1824
   1584 H3         57.4451  -20.9163  -11.2335 H        50   U62       0.3154
   1585 H5         57.1652  -20.3715   -7.0631 H        50   U62       0.1811
   1586 H6         57.3542  -22.7602   -6.8284 H        50   U62       0.2188
   1587 HO2'       60.6977  -25.5871   -9.1500 H        50   U62       0.4186
   1588 P          59.1510  -28.8430   -8.6280 P.3      51   U63       1.1662
   1589 OP1        59.4390  -29.1970   -7.2150 O.co2    51   U63      -0.7760
   1590 OP2        60.2300  -28.7880   -9.6280 O.co2    51   U63      -0.7760
   1591 O5'        58.0100  -29.8170   -9.1910 O.3      51   U63      -0.4989
   1592 C5'        56.9690  -30.3190   -8.3520 C.3      51   U63       0.0558
   1593 C4'        55.8420  -30.9460   -9.1650 C.3      51   U63       0.1065
   1594 O4'        54.9360  -29.9260   -9.6610 O.3      51   U63      -0.3548
   1595 C3'        56.2510  -31.7720  -10.3870 C.3      51   U63       0.2022
   1596 O3'        55.3840  -32.8970  -10.5120 O.3      51   U63      -0.5246
   1597 C2'        56.0220  -30.8000  -11.5380 C.3      51   U63       0.0670
   1598 O2'        55.8110  -31.4640  -12.7670 O.3      51   U63      -0.6139
   1599 C1'        54.7500  -30.0980  -11.0530 C.3      51   U63       0.0674
   1600 N1         54.5110  -28.7560  -11.6600 N.am     51   U63       0.0418
   1601 C2         53.7800  -28.6430  -12.8360 C.2      51   U63       0.4687
   1602 O2         53.2940  -29.5860  -13.4400 O.2      51   U63      -0.5477
   1603 N3         53.6330  -27.3590  -13.3010 N.am     51   U63      -0.3549
   1604 C4         54.1330  -26.2100  -12.7190 C.2      51   U63       0.5952
   1605 O4         53.9160  -25.1280  -13.2480 O.2      51   U63      -0.5761
   1606 C5         54.8780  -26.4010  -11.5010 C.2      51   U63      -0.3635
   1607 C6         55.0340  -27.6390  -11.0270 C.2      51   U63      -0.1126
   1608 H5'        57.3859  -31.0741   -7.6856 H        51   U63       0.0679
   1609 H5''       56.5658  -29.5005   -7.7556 H        51   U63       0.0679
   1610 H4'        55.2756  -31.5972   -8.4992 H        51   U63       0.1174
   1611 H3'        57.2951  -32.0793  -10.3278 H        51   U63       0.0615
   1612 H2'        56.8477  -30.0929  -11.6172 H        51   U63       0.0972
   1613 H1'        53.8869  -30.7395  -11.2308 H        51   U63       0.1824
   1614 H3         53.1061  -27.2430  -14.1548 H        51   U63       0.3154
   1615 H5         55.3034  -25.5562  -10.9798 H        51   U63       0.1811
   1616 H6         55.5910  -27.7763  -10.1120 H        51   U63       0.2188
   1617 HO2'       54.8941  -31.3625  -13.0328 H        51   U63       0.4186
   1618 P          55.7110  -34.3100   -9.8200 P.3      52   A64       1.1662
   1619 OP1        57.1460  -34.6230  -10.0050 O.co2    52   A64      -0.7760
   1620 OP2        54.6660  -35.2330  -10.3280 O.co2    52   A64      -0.7760
   1621 O5'        55.4810  -34.0120   -8.2590 O.3      52   A64      -0.4989
   1622 C5'        54.2820  -34.4430   -7.6380 C.3      52   A64       0.0558
   1623 C4'        54.1430  -34.0170   -6.1850 C.3      52   A64       0.1065
   1624 O4'        54.4860  -32.6190   -5.9440 O.3      52   A64      -0.3548
   1625 C3'        52.7030  -34.1940   -5.7460 C.3      52   A64       0.2022
   1626 O3'        52.6440  -35.4150   -5.0220 O.3      52   A64      -0.5246
   1627 C2'        52.3540  -32.9440   -4.9370 C.3      52   A64       0.0670
   1628 O2'        52.4890  -33.1360   -3.5460 O.3      52   A64      -0.6139
   1629 C1'        53.3920  -31.9110   -5.3600 C.3      52   A64       0.0394
   1630 N9         53.0400  -30.8700   -6.3340 N.ar     52   A64      -0.0251
   1631 C8         53.4080  -29.5520   -6.2430 C.ar     52   A64       0.2006
   1632 N7         53.0410  -28.8050   -7.2580 N.ar     52   A64      -0.6073
   1633 C5         52.3880  -29.7100   -8.0760 C.ar     52   A64       0.0515
   1634 C6         51.7620  -29.5520   -9.3250 C.ar     52   A64       0.7009
   1635 N6         51.7040  -28.3660   -9.9530 N.pl3    52   A64      -0.9019
   1636 N1         51.2100  -30.6630   -9.8900 N.ar     52   A64      -0.7615
   1637 C2         51.2780  -31.8340   -9.2620 C.ar     52   A64       0.5875
   1638 N3         51.8430  -32.0860   -8.0870 N.ar     52   A64      -0.6997
   1639 C4         52.3870  -30.9840   -7.5410 C.ar     52   A64       0.3053
   1640 H5'        53.4412  -34.0315   -8.1964 H        52   A64       0.0679
   1641 H5''       54.2349  -35.5308   -7.6883 H        52   A64       0.0679
   1642 H4'        54.7814  -34.6495   -5.5681 H        52   A64       0.1174
   1643 H3'        52.0575  -34.2557   -6.6222 H        52   A64       0.0615
   1644 H2'        51.3491  -32.5988   -5.1801 H        52   A64       0.0972
   1645 H1'        53.7569  -31.4164   -4.4598 H        52   A64       0.2007
   1646 H8         53.9577  -29.1588   -5.4006 H        52   A64       0.1553
   1647 H2         50.8223  -32.6743   -9.7645 H        52   A64       0.0473
   1648 HO2'       51.6282  -33.3196   -3.1628 H        52   A64       0.4186
   1649 H61        52.1173  -27.5485   -9.5275 H        52   A64       0.4115
   1650 H62        51.2471  -28.2917  -10.8507 H        52   A64       0.4115
   1651 P          51.4110  -36.4150   -5.1890 P.3      53   A65       1.1662
   1652 OP1        51.7760  -37.6960   -4.5050 O.co2    53   A65      -0.7760
   1653 OP2        51.0170  -36.4780   -6.6080 O.co2    53   A65      -0.7760
   1654 O5'        50.2780  -35.7030   -4.3330 O.3      53   A65      -0.4989
   1655 C5'        50.4770  -35.4770   -2.9390 C.3      53   A65       0.0558
   1656 C4'        49.5230  -34.4300   -2.3980 C.3      53   A65       0.1065
   1657 O4'        49.6970  -33.1390   -3.0860 O.3      53   A65      -0.3548
   1658 C3'        48.0510  -34.7890   -2.5560 C.3      53   A65       0.2022
   1659 O3'        47.4070  -34.3630   -1.3720 O.3      53   A65      -0.5246
   1660 C2'        47.6590  -33.9600   -3.8000 C.3      53   A65       0.0670
   1661 O2'        46.2770  -33.7020   -3.8820 O.3      53   A65      -0.6139
   1662 C1'        48.4410  -32.6850   -3.5460 C.3      53   A65       0.0394
   1663 N9         48.6030  -31.7710   -4.6900 N.ar     53   A65      -0.0251
   1664 C8         48.2910  -31.9840   -6.0040 C.ar     53   A65       0.2006
   1665 N7         48.5560  -30.9760   -6.7960 N.ar     53   A65      -0.6073
   1666 C5         49.0790  -30.0310   -5.9390 C.ar     53   A65       0.0515
   1667 C6         49.5390  -28.7140   -6.1530 C.ar     53   A65       0.7009
   1668 N6         49.5530  -28.1460   -7.3650 N.pl3    53   A65      -0.9019
   1669 N1         49.9960  -28.0240   -5.0800 N.ar     53   A65      -0.7615
   1670 C2         49.9720  -28.5990   -3.8720 C.ar     53   A65       0.5875
   1671 N3         49.5620  -29.8310   -3.5600 N.ar     53   A65      -0.6997
   1672 C4         49.1260  -30.4980   -4.6450 C.ar     53   A65       0.3053
   1673 H5'        50.3153  -36.4123   -2.4032 H        53   A65       0.0679
   1674 H5''       51.5019  -35.1444   -2.7745 H        53   A65       0.0679
   1675 H4'        49.7319  -34.2873   -1.3378 H        53   A65       0.1174
   1676 H3'        47.9141  -35.8570   -2.7257 H        53   A65       0.0615
   1677 H2'        48.0103  -34.4478   -4.7093 H        53   A65       0.0972
   1678 H1'        47.9554  -32.1397   -2.7367 H        53   A65       0.2007
   1679 H8         47.8609  -32.9087   -6.3596 H        53   A65       0.1553
   1680 H2         50.3268  -27.9941   -3.0507 H        53   A65       0.0473
   1681 HO2'       45.7947  -34.3874   -3.4138 H        53   A65       0.4186
   1682 H61        49.3325  -27.2144   -7.6868 H        53   A65       0.4115
   1683 H62        48.9475  -28.6019   -8.0326 H        53   A65       0.4115
   1684 P          46.0460  -34.9880   -0.8270 P.3      54   A66       1.1662
   1685 OP1        46.4590  -35.8830    0.2730 O.co2    54   A66      -0.7760
   1686 OP2        45.2940  -35.5350   -1.9930 O.co2    54   A66      -0.7760
   1687 O5'        45.2620  -33.7340   -0.2120 O.3      54   A66      -0.4989
   1688 C5'        44.6380  -32.7510   -1.0560 C.3      54   A66       0.0558
   1689 C4'        45.0640  -31.3440   -0.6720 C.3      54   A66       0.1065
   1690 O4'        46.3240  -31.0520   -1.3210 O.3      54   A66      -0.3548
   1691 C3'        44.1830  -30.1980   -1.1540 C.3      54   A66       0.2022
   1692 O3'        43.0670  -29.9570   -0.3230 O.3      54   A66      -0.5246
   1693 C2'        45.1740  -29.0550   -0.9910 C.3      54   A66       0.0670
   1694 O2'        45.4090  -28.7410    0.3720 O.3      54   A66      -0.6139
   1695 C1'        46.3870  -29.6760   -1.6750 C.3      54   A66       0.0394
   1696 N9         46.2390  -29.4680   -3.1160 N.ar     54   A66      -0.0251
   1697 C8         45.8460  -30.3640   -4.0760 C.ar     54   A66       0.2006
   1698 N7         45.7900  -29.8570   -5.2930 N.ar     54   A66      -0.6073
   1699 C5         46.1270  -28.5260   -5.1110 C.ar     54   A66       0.0515
   1700 C6         46.2240  -27.4320   -5.9970 C.ar     54   A66       0.7009
   1701 N6         45.9870  -27.5250   -7.3080 N.pl3    54   A66      -0.9019
   1702 N1         46.5980  -26.2360   -5.4850 N.ar     54   A66      -0.7615
   1703 C2         46.8330  -26.1190   -4.1700 C.ar     54   A66       0.5875
   1704 N3         46.7600  -27.0690   -3.2420 N.ar     54   A66      -0.6997
   1705 C4         46.4040  -28.2630   -3.7770 C.ar     54   A66       0.3053
   1706 H5'        44.9241  -32.9386   -2.0909 H        54   A66       0.0679
   1707 H5''       43.5552  -32.8350   -0.9632 H        54   A66       0.0679
   1708 H4'        45.1864  -31.2813    0.4093 H        54   A66       0.1174
   1709 H3'        43.8879  -30.3285   -2.1952 H        54   A66       0.0615
   1710 H2'        44.8359  -28.1732   -1.5353 H        54   A66       0.0972
   1711 H1'        47.3100  -29.2244   -1.3113 H        54   A66       0.2007
   1712 H8         45.6038  -31.3932   -3.8559 H        54   A66       0.1553
   1713 H2         47.1152  -25.1360   -3.8230 H        54   A66       0.0473
   1714 H61        45.6678  -28.3908   -7.7186 H        54   A66       0.4115
   1715 H62        45.3055  -26.7827   -7.3760 H        54   A66       0.4115
   1716 HO2'       46.0374  -28.0176    0.4305 H        54   A66       0.4186
   1717 P          41.5350  -30.0760   -0.7870 P.3      55   C67       1.1662
   1718 OP1        40.8150  -30.2500    0.4970 O.co2    55   C67      -0.7760
   1719 OP2        41.4450  -31.0400   -1.8970 O.co2    55   C67      -0.7760
   1720 O5'        40.9130  -28.6770   -1.2220 O.3      55   C67      -0.4989
   1721 C5'        41.5070  -27.7350   -2.0360 C.3      55   C67       0.0558
   1722 C4'        42.4680  -26.8620   -1.2590 C.3      55   C67       0.1065
   1723 O4'        43.4200  -26.5170   -2.2920 O.3      55   C67      -0.3548
   1724 C3'        41.9660  -25.5320   -0.6990 C.3      55   C67       0.2022
   1725 O3'        41.5570  -25.5780    0.6970 O.3      55   C67      -0.5246
   1726 C2'        43.2090  -24.6910   -0.8500 C.3      55   C67       0.0670
   1727 O2'        44.0740  -25.0020    0.2260 O.3      55   C67      -0.6139
   1728 C1'        43.7960  -25.1770   -2.1850 C.3      55   C67       0.0066
   1729 N1         43.3870  -24.4950   -3.4960 N.am     55   C67      -0.0484
   1730 C2         44.0970  -23.3720   -3.9050 C.2      55   C67       0.7538
   1731 O2         45.0110  -22.9570   -3.1850 O.2      55   C67      -0.6252
   1732 N3         43.7580  -22.7600   -5.0720 N.2      55   C67      -0.7584
   1733 C4         42.7630  -23.2150   -5.8380 C.2      55   C67       0.8185
   1734 N4         42.5010  -22.5570   -6.9790 N.pl3    55   C67      -0.9530
   1735 C5         42.0320  -24.3740   -5.4570 C.2      55   C67      -0.5215
   1736 C6         42.3770  -24.9680   -4.2990 C.2      55   C67       0.0053
   1737 H5'        42.0536  -28.2455   -2.8289 H        55   C67       0.0679
   1738 H5''       40.7341  -27.1082   -2.4807 H        55   C67       0.0679
   1739 H4'        42.9552  -27.4418   -0.4751 H        55   C67       0.1174
   1740 H3'        41.1612  -25.1371   -1.3190 H        55   C67       0.0615
   1741 H2'        42.9723  -23.6274   -0.8796 H        55   C67       0.0972
   1742 H1'        44.8826  -25.1372   -2.1094 H        55   C67       0.2029
   1743 H5         41.2329  -24.7618   -6.0714 H        55   C67       0.1928
   1744 H6         41.8386  -25.8513   -3.9888 H        55   C67       0.1958
   1745 H41        43.0430  -21.7419   -7.2278 H        55   C67       0.4234
   1746 H42        41.7619  -22.8772   -7.5883 H        55   C67       0.4234
   1747 HO2'       44.8758  -24.4789    0.1541 H        55   C67       0.4186
   1748 P          40.4680  -24.5050    1.2470 P.3      56   U68       1.1662
   1749 OP1        40.0860  -24.8810    2.6160 O.co2    56   U68      -0.7760
   1750 OP2        39.4400  -24.3350    0.1960 O.co2    56   U68      -0.7760
   1751 O5'        41.2520  -23.1220    1.3240 O.3      56   U68      -0.4989
   1752 C5'        42.0690  -22.8100    2.4400 C.3      56   U68       0.0558
   1753 C4'        42.6940  -21.4680    2.1610 C.3      56   U68       0.1065
   1754 O4'        43.2560  -21.5130    0.8320 O.3      56   U68      -0.3548
   1755 C3'        41.6970  -20.3250    2.0440 C.3      56   U68       0.2022
   1756 O3'        41.2590  -19.8540    3.2970 O.3      56   U68      -0.5246
   1757 C2'        42.5210  -19.3100    1.2760 C.3      56   U68       0.0670
   1758 O2'        43.5830  -18.8340    2.0590 O.3      56   U68      -0.6139
   1759 C1'        43.1190  -20.2410    0.2310 C.3      56   U68       0.0674
   1760 N1         42.4410  -20.3250   -1.1320 N.am     56   U68       0.0418
   1761 C2         42.6390  -19.2570   -1.9930 C.2      56   U68       0.4687
   1762 O2         43.2920  -18.2730   -1.7110 O.2      56   U68      -0.5477
   1763 N3         42.0420  -19.3710   -3.2170 N.am     56   U68      -0.3549
   1764 C4         41.2890  -20.4240   -3.6730 C.2      56   U68       0.5952
   1765 O4         40.8460  -20.3390   -4.8120 O.2      56   U68      -0.5761
   1766 C5         41.0980  -21.5150   -2.7300 C.2      56   U68      -0.3635
   1767 C6         41.6730  -21.4200   -1.5200 C.2      56   U68      -0.1126
   1768 H5'        41.4642  -22.7610    3.3455 H        56   U68       0.0679
   1769 H5''       42.8467  -23.5653    2.5534 H        56   U68       0.0679
   1770 H4'        43.4625  -21.2377    2.8989 H        56   U68       0.1174
   1771 H3'        40.8416  -20.6382    1.4454 H        56   U68       0.0615
   1772 H2'        41.9190  -18.5116    0.8422 H        56   U68       0.0972
   1773 H1'        44.1311  -19.8810    0.0460 H        56   U68       0.1824
   1774 H3         42.1684  -18.5976   -3.8542 H        56   U68       0.3154
   1775 H5         40.5085  -22.3799   -2.9963 H        56   U68       0.1811
   1776 H6         41.5337  -22.2281   -0.8172 H        56   U68       0.2188
   1777 HO2'       43.2434  -18.2405    2.7328 H        56   U68       0.4186
   1778 P          39.8260  -19.1510    3.3110 P.3      57   C69       1.1662
   1779 OP1        39.4070  -19.1040    4.7300 O.co2    57   C69      -0.7760
   1780 OP2        38.9350  -19.8010    2.3160 O.co2    57   C69      -0.7760
   1781 O5'        40.0570  -17.6820    2.7190 O.3      57   C69      -0.4989
   1782 C5'        40.8760  -16.6920    3.3170 C.3      57   C69       0.0558
   1783 C4'        41.0830  -15.5300    2.3510 C.3      57   C69       0.1065
   1784 O4'        41.6110  -15.9740    1.0690 O.3      57   C69      -0.3548
   1785 C3'        39.8220  -14.7670    1.9660 C.3      57   C69       0.2022
   1786 O3'        39.5070  -13.7910    2.9500 O.3      57   C69      -0.5246
   1787 C2'        40.2450  -14.0970    0.6660 C.3      57   C69       0.0670
   1788 O2'        41.1010  -12.9960    0.8820 O.3      57   C69      -0.6139
   1789 C1'        41.0360  -15.2130    0.0110 C.3      57   C69       0.0066
   1790 N1         40.2610  -16.0820   -0.9830 N.am     57   C69      -0.0484
   1791 C2         40.0890  -15.6330   -2.3120 C.2      57   C69       0.7538
   1792 O2         40.5300  -14.5320   -2.6820 O.2      57   C69      -0.6252
   1793 N3         39.4220  -16.4260   -3.1860 N.2      57   C69      -0.7584
   1794 C4         38.9430  -17.6120   -2.8060 C.2      57   C69       0.8185
   1795 N4         38.3010  -18.3310   -3.7300 N.pl3    57   C69      -0.9530
   1796 C5         39.0930  -18.0900   -1.4670 C.2      57   C69      -0.5215
   1797 C6         39.7520  -17.3020   -0.6040 C.2      57   C69       0.0053
   1798 H5'        40.3947  -16.3256    4.2238 H        57   C69       0.0679
   1799 H5''       41.8424  -17.1274    3.5712 H        57   C69       0.0679
   1800 H4'        41.7909  -14.8303    2.7952 H        57   C69       0.1174
   1801 H3'        38.9852  -15.4465    1.8041 H        57   C69       0.0615
   1802 H2'        39.3807  -13.8163    0.0641 H        57   C69       0.0972
   1803 H1'        41.8566  -14.7492   -0.5365 H        57   C69       0.2029
   1804 H5         38.6925  -19.0457   -1.1628 H        57   C69       0.1928
   1805 H6         39.8862  -17.6344    0.4148 H        57   C69       0.1958
   1806 H41        38.2011  -17.9728   -4.6691 H        57   C69       0.4234
   1807 H42        37.9153  -19.2330   -3.4899 H        57   C69       0.4234
   1808 HO2'       40.6890  -12.1983    0.5422 H        57   C69       0.4186
   1809 P          38.0120  -13.2670    3.0920 P.3      58   U70       1.1662
   1810 OP1        37.9690  -12.4100    4.3030 O.co2    58   U70      -0.7760
   1811 OP2        37.0960  -14.4250    3.0300 O.co2    58   U70      -0.7760
   1812 O5'        37.8570  -12.3240    1.7880 O.3      58   U70      -0.4989
   1813 C5'        38.5390  -11.0690    1.6650 C.3      58   U70       0.0558
   1814 C4'        38.4090  -10.4580    0.2750 C.3      58   U70       0.1065
   1815 O4'        38.8560  -11.3620   -0.7680 O.3      58   U70      -0.3548
   1816 C3'        36.9940  -10.1010   -0.1490 C.3      58   U70       0.2022
   1817 O3'        36.6440   -8.8580    0.3990 O.3      58   U70      -0.5246
   1818 C2'        37.1070  -10.0620   -1.6720 C.3      58   U70       0.0670
   1819 O2'        37.7150   -8.8800   -2.1760 O.3      58   U70      -0.6139
   1820 C1'        38.0200  -11.2550   -1.9210 C.3      58   U70       0.0674
   1821 N1         37.3760  -12.6210   -2.2950 N.am     58   U70       0.0418
   1822 C2         36.7750  -12.8130   -3.5380 C.2      58   U70       0.4687
   1823 O2         36.6970  -11.9370   -4.3880 O.2      58   U70      -0.5477
   1824 N3         36.2790  -14.0830   -3.7660 N.am     58   U70      -0.3549
   1825 C4         36.2960  -15.1560   -2.8870 C.2      58   U70       0.5952
   1826 O4         35.8180  -16.2360   -3.2110 O.2      58   U70      -0.5761
   1827 C5         36.9230  -14.8930   -1.6190 C.2      58   U70      -0.3635
   1828 C6         37.4270  -13.6660   -1.3940 C.2      58   U70      -0.1126
   1829 H5'        39.5963  -11.2253    1.8787 H        58   U70       0.0679
   1830 H5''       38.1303  -10.3720    2.3966 H        58   U70       0.0679
   1831 H4'        39.0196   -9.5559    0.2355 H        58   U70       0.1174
   1832 H3'        36.2912  -10.8725    0.1656 H        58   U70       0.0615
   1833 H2'        36.1326  -10.2204   -2.1341 H        58   U70       0.0972
   1834 H1'        38.6702  -10.9804   -2.7516 H        58   U70       0.1824
   1835 H3         35.8591  -14.2473   -4.6697 H        58   U70       0.3154
   1836 H5         36.9876  -15.6633   -0.8647 H        58   U70       0.1811
   1837 H6         37.9048  -13.4859   -0.4423 H        58   U70       0.2188
   1838 HO2'       37.0566   -8.3499   -2.6311 H        58   U70       0.4186
   1839 P          35.1330   -8.5060    0.7740 P.3      59   U71       1.1662
   1840 OP1        35.1440   -7.1260    1.3230 O.co2    59   U71      -0.7760
   1841 OP2        34.5440   -9.6140    1.5450 O.co2    59   U71      -0.7760
   1842 O5'        34.4150   -8.4000   -0.6470 O.3      59   U71      -0.4989
   1843 C5'        34.7030   -7.3040   -1.5020 C.3      59   U71       0.0558
   1844 C4'        33.9840   -7.5000   -2.8150 C.3      59   U71       0.1065
   1845 O4'        34.5470   -8.6670   -3.4570 O.3      59   U71      -0.3548
   1846 C3'        32.4980   -7.8430   -2.7090 C.3      59   U71       0.2022
   1847 O3'        31.6970   -6.6860   -2.5220 O.3      59   U71      -0.5246
   1848 C2'        32.2700   -8.4890   -4.0710 C.3      59   U71       0.0670
   1849 O2'        32.1970   -7.5710   -5.1480 O.3      59   U71      -0.6139
   1850 C1'        33.5350   -9.3370   -4.1930 C.3      59   U71       0.0674
   1851 N1         33.4100  -10.7620   -3.7350 N.am     59   U71       0.0418
   1852 C2         32.9370  -11.7230   -4.6290 C.2      59   U71       0.4687
   1853 O2         32.5900  -11.4680   -5.7670 O.2      59   U71      -0.5477
   1854 N3         32.8790  -13.0160   -4.1500 N.am     59   U71      -0.3549
   1855 C4         33.2320  -13.4410   -2.8730 C.2      59   U71       0.5952
   1856 O4         33.1070  -14.6200   -2.5600 O.2      59   U71      -0.5761
   1857 C5         33.7140  -12.3920   -1.9930 C.2      59   U71      -0.3635
   1858 C6         33.7860  -11.1220   -2.4460 C.2      59   U71      -0.1126
   1859 H5'        34.3651   -6.3786   -1.0355 H        59   U71       0.0679
   1860 H5''       35.7773   -7.2520   -1.6788 H        59   U71       0.0679
   1861 H4'        34.1200   -6.6238   -3.4489 H        59   U71       0.1174
   1862 H3'        32.3260   -8.5628   -1.9088 H        59   U71       0.0615
   1863 H2'        31.3845   -9.1242   -4.0494 H        59   U71       0.0972
   1864 H1'        33.8330   -9.3464   -5.2414 H        59   U71       0.1824
   1865 H3         32.5475  -13.7238   -4.7897 H        59   U71       0.3154
   1866 H5         34.0132  -12.6259   -0.9820 H        59   U71       0.1811
   1867 H6         34.1507  -10.3544   -1.7795 H        59   U71       0.2188
   1868 HO2'       31.3086   -7.5737   -5.5117 H        59   U71       0.4186
   1869 P          30.2680   -6.7370   -1.8150 P.3      60   G72       1.1662
   1870 OP1        29.8170   -5.3310   -1.7060 O.co2    60   G72      -0.7760
   1871 OP2        30.3210   -7.5350   -0.5730 O.co2    60   G72      -0.7760
   1872 O5'        29.3460   -7.4520   -2.9240 O.3      60   G72      -0.4989
   1873 C5'        29.0240   -6.7470   -4.1580 C.3      60   G72       0.0558
   1874 C4'        28.3610   -7.6540   -5.1860 C.3      60   G72       0.1065
   1875 O4'        29.2360   -8.7720   -5.4920 O.3      60   G72      -0.3548
   1876 C3'        27.0610   -8.3220   -4.7530 C.3      60   G72       0.2022
   1877 O3'        25.9390   -7.4370   -4.8730 O.3      60   G72      -0.5246
   1878 C2'        27.0080   -9.5230   -5.7010 C.3      60   G72       0.0670
   1879 O2'        26.4810   -9.2370   -6.9830 O.3      60   G72      -0.6139
   1880 C1'        28.4790   -9.9270   -5.8020 C.3      60   G72       0.0191
   1881 N9         28.8640  -11.0060   -4.8740 N.ar     60   G72       0.0492
   1882 C8         29.4560  -10.8570   -3.6380 C.ar     60   G72       0.1374
   1883 N7         29.6880  -11.9860   -2.9980 N.ar     60   G72      -0.5709
   1884 C5         29.2220  -12.9440   -3.8800 C.ar     60   G72       0.1744
   1885 C6         29.2060  -14.3430   -3.7310 C.2      60   G72       0.4770
   1886 O6         29.6200  -14.9990   -2.7790 O.2      60   G72      -0.5597
   1887 N1         28.6520  -14.9830   -4.8320 N.am     60   G72      -0.4787
   1888 C2         28.1610  -14.3350   -5.9460 C.2      60   G72       0.7657
   1889 N2         27.6470  -15.1420   -6.8850 N.pl3    60   G72      -0.9672
   1890 N3         28.1550  -13.0050   -6.1120 N.2      60   G72      -0.6323
   1891 C4         28.7100  -12.3650   -5.0420 C.ar     60   G72       0.1222
   1892 H5'        28.3455   -5.9261   -3.9257 H        60   G72       0.0679
   1893 H5''       29.9411   -6.3396   -4.5835 H        60   G72       0.0679
   1894 H4'        28.1808   -7.0846   -6.0978 H        60   G72       0.1174
   1895 H3'        27.1493   -8.6683   -3.7233 H        60   G72       0.0615
   1896 H2'        26.4367  -10.3291   -5.2407 H        60   G72       0.0972
   1897 H1'        28.6975  -10.2366   -6.8240 H        60   G72       0.2006
   1898 H8         29.7098   -9.8913   -3.2263 H        60   G72       0.1640
   1899 H1         28.6055  -15.9918   -4.8158 H        60   G72       0.3424
   1900 H21        27.6488  -16.1425   -6.7471 H        60   G72       0.4364
   1901 H22        27.2579  -14.7494   -7.7304 H        60   G72       0.4364
   1902 HO2'       25.5581   -8.9855   -6.9013 H        60   G72       0.4186
   1903 P          24.7870   -7.5120   -3.7670 P.3      61   A73       1.1662
   1904 OP1        24.0750   -6.2280   -3.6560 O.co2    61   A73      -0.7760
   1905 OP2        25.3720   -8.0870   -2.5320 O.co2    61   A73      -0.7760
   1906 O5'        23.8170   -8.5940   -4.4340 O.3      61   A73      -0.4989
   1907 C5'        22.7150   -9.1570   -3.7240 C.3      61   A73       0.0558
   1908 C4'        22.2450  -10.3690   -4.5040 C.3      61   A73       0.1065
   1909 O4'        23.2090  -11.4400   -4.3250 O.3      61   A73      -0.3548
   1910 C3'        20.9100  -10.9780   -4.1010 C.3      61   A73       0.2022
   1911 O3'        19.8700  -10.3510   -4.7960 O.3      61   A73      -0.5246
   1912 C2'        21.0990  -12.4020   -4.6080 C.3      61   A73       0.0670
   1913 O2'        20.9750  -12.4830   -6.0230 O.3      61   A73      -0.6139
   1914 C1'        22.5360  -12.6780   -4.1720 C.3      61   A73       0.0394
   1915 N9         22.7250  -13.1860   -2.7930 N.ar     61   A73      -0.0251
   1916 C8         23.2450  -12.5270   -1.7040 C.ar     61   A73       0.2006
   1917 N7         23.3140  -13.2610   -0.6140 N.ar     61   A73      -0.6073
   1918 C5         22.8020  -14.4950   -1.0070 C.ar     61   A73       0.0515
   1919 C6         22.5900  -15.7230   -0.3280 C.ar     61   A73       0.7009
   1920 N6         22.8840  -15.9500    0.9650 N.pl3    61   A73      -0.9019
   1921 N1         22.0630  -16.7450   -1.0450 N.ar     61   A73      -0.7615
   1922 C2         21.7740  -16.5650   -2.3500 C.ar     61   A73       0.5875
   1923 N3         21.9230  -15.4730   -3.0860 N.ar     61   A73      -0.6997
   1924 C4         22.4450  -14.4650   -2.3520 C.ar     61   A73       0.3053
   1925 H5'        23.0299   -9.4565   -2.7244 H        61   A73       0.0679
   1926 H5''       21.9086   -8.4270   -3.6542 H        61   A73       0.0679
   1927 H4'        22.2048  -10.1090   -5.5618 H        61   A73       0.1174
   1928 H3'        20.7566  -10.9464   -3.0223 H        61   A73       0.0615
   1929 H2'        20.4056  -13.0849   -4.1171 H        61   A73       0.0972
   1930 H1'        22.9740  -13.3955   -4.8658 H        61   A73       0.2007
   1931 H8         23.5685  -11.4972   -1.7401 H        61   A73       0.1553
   1932 H2         21.3675  -17.4241   -2.8629 H        61   A73       0.0473
   1933 H61        23.2828  -15.2132    1.5291 H        61   A73       0.4115
   1934 H62        22.7059  -16.8572    1.3717 H        61   A73       0.4115
   1935 HO2'       21.2233  -13.3629   -6.3159 H        61   A73       0.4186
   1936 P          18.4150  -10.1120   -4.1560 P.3      62   U74       1.1662
   1937 OP1        17.6350   -9.3610   -5.1620 O.co2    62   U74      -0.7760
   1938 OP2        18.5550   -9.5580   -2.7900 O.co2    62   U74      -0.7760
   1939 O5'        17.8110  -11.5940   -4.0670 O.3      62   U74      -0.4989
   1940 C5'        17.6570  -12.4080   -5.2290 C.3      62   U74       0.0558
   1941 C4'        17.3700  -13.8430   -4.8500 C.3      62   U74       0.1065
   1942 O4'        18.5610  -14.4340   -4.2770 O.3      62   U74      -0.3548
   1943 C3'        16.3260  -14.0070   -3.7610 C.3      62   U74       0.2022
   1944 O3'        15.0310  -13.9750   -4.3110 O.3      62   U74      -0.5246
   1945 C2'        16.6790  -15.4020   -3.2790 C.3      62   U74       0.0670
   1946 O2'        16.2640  -16.3790   -4.2120 O.3      62   U74      -0.6139
   1947 C1'        18.2000  -15.3050   -3.2170 C.3      62   U74       0.0674
   1948 N1         18.7700  -14.8460   -1.8770 N.am     62   U74       0.0418
   1949 C2         18.8360  -15.7690   -0.8370 C.2      62   U74       0.4687
   1950 O2         18.4680  -16.9290   -0.9290 O.2      62   U74      -0.5477
   1951 N3         19.3830  -15.2950    0.3340 N.am     62   U74      -0.3549
   1952 C4         19.8450  -14.0270    0.6130 C.2      62   U74       0.5952
   1953 O4         20.2870  -13.7940    1.7460 O.2      62   U74      -0.5761
   1954 C5         19.7270  -13.1030   -0.4930 C.2      62   U74      -0.3635
   1955 C6         19.2100  -13.5390   -1.6630 C.2      62   U74      -0.1126
   1956 H5'        16.8294  -12.0245   -5.8257 H        62   U74       0.0679
   1957 H5''       18.5729  -12.3688   -5.8186 H        62   U74       0.0679
   1958 H4'        17.0699  -14.4043   -5.7349 H        62   U74       0.1174
   1959 H3'        16.4471  -13.2652   -2.9716 H        62   U74       0.0615
   1960 H2'        16.2569  -15.5957   -2.2929 H        62   U74       0.0972
   1961 H1'        18.6095  -16.2909   -3.4371 H        62   U74       0.1824
   1962 H3         19.4552  -15.9641    1.0872 H        62   U74       0.3154
   1963 H5         20.0480  -12.0774   -0.3854 H        62   U74       0.1811
   1964 H6         19.1329  -12.8358   -2.4791 H        62   U74       0.2188
   1965 HO2'       15.9570  -17.1588   -3.7436 H        62   U74       0.4186
   1966 P          13.7290  -13.5010   -3.4980 P.3      63   U75       1.1662
   1967 OP1        12.5980  -13.4610   -4.4720 O.co2    63   U75      -0.7760
   1968 OP2        14.1070  -12.2690   -2.7620 O.co2    63   U75      -0.7760
   1969 O5'        13.4860  -14.6610   -2.4000 O.3      63   U75      -0.4989
   1970 C5'        13.3450  -16.0620   -2.7010 C.3      63   U75       0.0558
   1971 C4'        13.3810  -16.8940   -1.4200 C.3      63   U75       0.1065
   1972 O4'        14.7410  -16.9460   -0.8820 O.3      63   U75      -0.3548
   1973 C3'        12.5720  -16.3310   -0.2540 C.3      63   U75       0.2022
   1974 O3'        11.1970  -16.6540   -0.3230 O.3      63   U75      -0.5246
   1975 C2'        13.2400  -16.9830    0.9560 C.3      63   U75       0.0670
   1976 O2'        12.9150  -18.3600    1.1380 O.3      63   U75      -0.6139
   1977 C1'        14.7030  -16.8890    0.5550 C.3      63   U75       0.0674
   1978 N1         15.4600  -15.7150    1.1280 N.am     63   U75       0.0418
   1979 C2         16.0170  -15.8170    2.3990 C.2      63   U75       0.4687
   1980 O2         15.9250  -16.8050    3.0960 O.2      63   U75      -0.5477
   1981 N3         16.7170  -14.7200    2.8310 N.am     63   U75      -0.3549
   1982 C4         16.9000  -13.5480    2.1140 C.2      63   U75       0.5952
   1983 O4         17.5480  -12.6260    2.5950 O.2      63   U75      -0.5761
   1984 C5         16.2810  -13.5050    0.8160 C.2      63   U75      -0.3635
   1985 C6         15.6040  -14.5630    0.3820 C.2      63   U75      -0.1126
   1986 H5'        14.1620  -16.3722   -3.3525 H        63   U75       0.0679
   1987 H5''       12.3957  -16.2269   -3.2107 H        63   U75       0.0679
   1988 H4'        13.0412  -17.9064   -1.6385 H        63   U75       0.1174
   1989 H3'        12.6957  -15.2491   -0.2064 H        63   U75       0.0615
   1990 H2'        13.0462  -16.4123    1.8642 H        63   U75       0.0972
   1991 H1'        15.1916  -17.7917    0.9218 H        63   U75       0.1824
   1992 H3         17.1346  -14.7702    3.7493 H        63   U75       0.3154
   1993 H5         16.3657  -12.6217    0.2004 H        63   U75       0.1811
   1994 H6         15.1473  -14.5194   -0.5957 H        63   U75       0.2188
   1995 HO2'       13.2957  -18.6729    1.9619 H        63   U75       0.4186
   1996 P          10.1440  -15.6640    0.3600 P.3      64   A76       1.1662
   1997 OP1         8.7940  -16.0500   -0.1340 O.co2    64   A76      -0.7760
   1998 OP2        10.5990  -14.2670    0.1530 O.co2    64   A76      -0.7760
   1999 O5'        10.2720  -15.9650    1.9460 O.3      64   A76      -0.4989
   2000 C5'        10.0130  -17.2800    2.4790 C.3      64   A76       0.0558
   2001 C4'        10.2700  -17.3940    3.9700 C.3      64   A76       0.1065
   2002 O4'        11.7040  -17.3810    4.2280 O.3      64   A76      -0.3548
   2003 C3'         9.7540  -16.2580    4.8290 C.3      64   A76       0.2022
   2004 O3'         8.3880  -16.4370    5.1180 O.3      64   A76      -0.5246
   2005 C2'        10.6410  -16.3950    6.0560 C.3      64   A76       0.0670
   2006 O2'        10.3520  -17.5410    6.8350 O.3      64   A76      -0.6139
   2007 C1'        11.9780  -16.6130    5.3870 C.3      64   A76       0.0394
   2008 N9         12.7650  -15.4350    5.0030 N.ar     64   A76      -0.0251
   2009 C8         12.8400  -14.8210    3.7770 C.ar     64   A76       0.2006
   2010 N7         13.6820  -13.8040    3.7540 N.ar     64   A76      -0.6073
   2011 C5         14.1980  -13.7540    5.0500 C.ar     64   A76       0.0515
   2012 C6         15.1470  -12.9210    5.6920 C.ar     64   A76       0.7009
   2013 N6         15.7970  -11.9050    5.0980 N.pl3    64   A76      -0.9019
   2014 N1         15.4170  -13.1670    6.9920 N.ar     64   A76      -0.7615
   2015 C2         14.8140  -14.1910    7.6030 C.ar     64   A76       0.5875
   2016 N3         13.9260  -15.0470    7.0890 N.ar     64   A76      -0.6997
   2017 C4         13.6500  -14.7610    5.8170 C.ar     64   A76       0.3053
   2018 H5'        10.6561  -17.9932    1.9633 H        64   A76       0.0679
   2019 H5''        8.9729  -17.5395    2.2818 H        64   A76       0.0679
   2020 H4'         9.8516  -18.3329    4.3326 H        64   A76       0.1174
   2021 H3'         9.9209  -15.2988    4.3389 H        64   A76       0.0615
   2022 H2'        10.6363  -15.4871    6.6591 H        64   A76       0.0972
   2023 H1'        12.5899  -17.2208    6.0535 H        64   A76       0.2007
   2024 H8         12.2677  -15.1381    2.9177 H        64   A76       0.1553
   2025 H2         15.0765  -14.3457    8.6391 H        64   A76       0.0473
   2026 HO2'       11.1681  -17.9021    7.1889 H        64   A76       0.4186
   2027 H61        16.5624  -11.7707    5.7432 H        64   A76       0.4115
   2028 H62        15.5800  -11.4125    4.2433 H        64   A76       0.4115
   2029 P           7.4070  -15.1740    5.1730 P.3      65   U77       1.1662
   2030 OP1         6.0370  -15.7340    5.2290 O.co2    65   U77      -0.7760
   2031 OP2         7.7230  -14.2170    4.1040 O.co2    65   U77      -0.7760
   2032 O5'         7.7860  -14.5160    6.5770 O.3      65   U77      -0.4989
   2033 C5'         7.4750  -15.2130    7.7940 C.3      65   U77       0.0558
   2034 C4'         8.2730  -14.7050    8.9810 C.3      65   U77       0.1065
   2035 O4'         9.7060  -14.8850    8.7410 O.3      65   U77      -0.3548
   2036 C3'         8.1320  -13.2210    9.2730 C.3      65   U77       0.2022
   2037 O3'         6.9030  -12.9110    9.9790 O.3      65   U77      -0.5246
   2038 C2'         9.3990  -13.0190   10.1150 C.3      65   U77       0.0670
   2039 O2'         9.3330  -13.5390   11.4310 O.3      65   U77      -0.6139
   2040 C1'        10.4310  -13.8040    9.3120 C.3      65   U77       0.0674
   2041 N1         11.1030  -12.9210    8.2690 N.am     65   U77       0.0418
   2042 C2         12.0620  -12.0140    8.6880 C.2      65   U77       0.4687
   2043 O2         12.4130  -11.9090    9.8460 O.2      65   U77      -0.5477
   2044 N3         12.6090  -11.2350    7.7060 N.am     65   U77      -0.3549
   2045 C4         12.3020  -11.2710    6.3630 C.2      65   U77       0.5952
   2046 O4         12.8860  -10.5190    5.5860 O.2      65   U77      -0.5761
   2047 C5         11.2980  -12.2380    5.9860 C.2      65   U77      -0.3635
   2048 C6         10.7460  -13.0090    6.9290 C.2      65   U77      -0.1126
   2049 H5'         6.4137  -15.0853    8.0072 H        65   U77       0.0679
   2050 H5''        7.6827  -16.2742    7.6565 H        65   U77       0.0679
   2051 H4'         7.9879  -15.2701    9.8684 H        65   U77       0.1174
   2052 H3'         8.1945  -12.6452    8.3496 H        65   U77       0.0615
   2053 H2'         9.6679  -11.9630   10.1415 H        65   U77       0.0972
   2054 H1'        11.1883  -14.1983    9.9896 H        65   U77       0.1824
   2055 H3         13.3085  -10.5658    7.9941 H        65   U77       0.3154
   2056 H5         10.9962  -12.3375    4.9538 H        65   U77       0.1811
   2057 H6          9.9940  -13.7275    6.6379 H        65   U77       0.2188
   2058 HO2'        8.6838  -13.0461   11.9381 H        65   U77       0.4186
   2059 P           5.9710  -11.6480    9.6050 P.3      66   G78       1.1662
   2060 OP1         4.6350  -11.9170   10.1860 O.co2    66   G78      -0.7760
   2061 OP2         6.0790  -11.3330    8.1590 O.co2    66   G78      -0.7760
   2062 O5'         6.6010  -10.4290   10.4160 O.3      66   G78      -0.4989
   2063 C5'         6.8250  -10.5090   11.8200 C.3      66   G78       0.0558
   2064 C4'         7.9840   -9.6040   12.1810 C.3      66   G78       0.1065
   2065 O4'         9.1850   -9.9980   11.4620 O.3      66   G78      -0.3548
   2066 C3'         7.8220   -8.1610   11.7350 C.3      66   G78       0.2022
   2067 O3'         6.8700   -7.4730   12.5440 O.3      66   G78      -0.5246
   2068 C2'         9.2600   -7.6790   11.9130 C.3      66   G78       0.0670
   2069 O2'         9.6250   -7.4690   13.2690 O.3      66   G78      -0.6139
   2070 C1'        10.0200   -8.8630   11.2960 C.3      66   G78       0.0191
   2071 N9         10.3360   -8.6690    9.8720 N.ar     66   G78       0.0492
   2072 C8          9.7650   -9.2760    8.7700 C.ar     66   G78       0.1374
   2073 N7         10.2610   -8.8800    7.6210 N.ar     66   G78      -0.5709
   2074 C5         11.2360   -7.9450    7.9870 C.ar     66   G78       0.1744
   2075 C6         12.1320   -7.1630    7.1920 C.2      66   G78       0.4770
   2076 O6         12.2510   -7.1230    5.9580 O.2      66   G78      -0.5597
   2077 N1         12.9560   -6.3470    7.9700 N.am     66   G78      -0.4787
   2078 C2         12.9280   -6.2880    9.3460 C.2      66   G78       0.7657
   2079 N2         13.7910   -5.4480    9.9230 N.pl3    66   G78      -0.9672
   2080 N3         12.1070   -7.0070   10.1030 N.2      66   G78      -0.6323
   2081 C4         11.2900   -7.8090    9.3650 C.ar     66   G78       0.1222
   2082 H5'         5.9298  -10.1879   12.3526 H        66   G78       0.0679
   2083 H5''        7.0645  -11.5365   12.0939 H        66   G78       0.0679
   2084 H4'         8.1648   -9.6426   13.2552 H        66   G78       0.1174
   2085 H3'         7.5325   -8.1169   10.6851 H        66   G78       0.0615
   2086 H2'         9.4311   -6.7739   11.3301 H        66   G78       0.0972
   2087 H1'        10.9466   -9.0185   11.8486 H        66   G78       0.2006
   2088 H8          8.9788  -10.0124    8.8472 H        66   G78       0.1640
   2089 H1         13.6204   -5.7576    7.4891 H        66   G78       0.3424
   2090 H21        14.4183   -4.8983    9.3534 H        66   G78       0.4364
   2091 H22        13.8164   -5.3623   10.9290 H        66   G78       0.4364
   2092 HO2'        9.6821   -6.5267   13.4432 H        66   G78       0.4186
   2093 P           6.0430   -6.2530   11.9240 P.3      67   A79       1.1662
   2094 OP1         4.8710   -6.0300   12.7960 O.co2    67   A79      -0.7760
   2095 OP2         5.8590   -6.4770   10.4720 O.co2    67   A79      -0.7760
   2096 O5'         7.0690   -5.0370   12.1010 O.3      67   A79      -0.4989
   2097 C5'         7.4130   -4.5150   13.3960 C.3      67   A79       0.0558
   2098 C4'         8.5910   -3.5540   13.3070 C.3      67   A79       0.1065
   2099 O4'         9.7500   -4.2280   12.7390 O.3      67   A79      -0.3548
   2100 C3'         8.3940   -2.3490   12.3950 C.3      67   A79       0.2022
   2101 O3'         7.6690   -1.3130   13.0480 O.3      67   A79      -0.5246
   2102 C2'         9.8410   -1.9750   12.0700 C.3      67   A79       0.0670
   2103 O2'        10.5070   -1.2790   13.1080 O.3      67   A79      -0.6139
   2104 C1'        10.4620   -3.3540   11.8750 C.3      67   A79       0.0394
   2105 N9         10.3970   -3.8070   10.4750 N.ar     67   A79      -0.0251
   2106 C8          9.5890   -4.7710    9.9390 C.ar     67   A79       0.2006
   2107 N7          9.7520   -4.9570    8.6460 N.ar     67   A79      -0.6073
   2108 C5         10.7390   -4.0510    8.2930 C.ar     67   A79       0.0515
   2109 C6         11.3710   -3.7340    7.0630 C.ar     67   A79       0.7009
   2110 N6         11.0960   -4.3210    5.8950 N.pl3    67   A79      -0.9019
   2111 N1         12.3200   -2.7720    7.0740 N.ar     67   A79      -0.7615
   2112 C2         12.6160   -2.1640    8.2330 C.ar     67   A79       0.5875
   2113 N3         12.0910   -2.3700    9.4420 N.ar     67   A79      -0.6997
   2114 C4         11.1480   -3.3330    9.4120 C.ar     67   A79       0.3053
   2115 H5'         7.6784   -5.3426   14.0538 H        67   A79       0.0679
   2116 H5''        6.5526   -3.9896   13.8105 H        67   A79       0.0679
   2117 H4'         8.8398   -3.2039   14.3088 H        67   A79       0.1174
   2118 H3'         7.8743   -2.6512   11.4858 H        67   A79       0.0615
   2119 H2'         9.8857   -1.4048   11.1421 H        67   A79       0.0972
   2120 H1'        11.5056   -3.3197   12.1878 H        67   A79       0.2007
   2121 H8          8.8775   -5.3322   10.5265 H        67   A79       0.1553
   2122 H2         13.3829   -1.4054    8.1799 H        67   A79       0.0473
   2123 HO2'       10.6116   -0.3575   12.8602 H        67   A79       0.4186
   2124 H61        10.3935   -5.0451    5.8467 H        67   A79       0.4115
   2125 H62        11.5905   -4.0407    5.0601 H        67   A79       0.4115
   2126 P           6.7970   -0.2720   12.1890 P.3      68   A80       1.1662
   2127 OP1         5.9290    0.4830   13.1310 O.co2    68   A80      -0.7760
   2128 OP2         6.1890   -0.9900   11.0460 O.co2    68   A80      -0.7760
   2129 O5'         7.8890    0.7410   11.6050 O.3      68   A80      -0.4989
   2130 C5'         8.6470    1.5830   12.4650 C.3      68   A80       0.0558
   2131 C4'         9.7680    2.2380   11.6860 C.3      68   A80       0.1065
   2132 O4'        10.5750    1.2040   11.0760 O.3      68   A80      -0.3548
   2133 C3'         9.3130    3.0950   10.5140 C.3      68   A80       0.2022
   2134 O3'         8.9910    4.4220   10.9200 O.3      68   A80      -0.5246
   2135 C2'        10.5130    3.0430    9.5750 C.3      68   A80       0.0670
   2136 O2'        11.5230    3.9760    9.9080 O.3      68   A80      -0.6139
   2137 C1'        10.9920    1.6030    9.7800 C.3      68   A80       0.0394
   2138 N9         10.4450    0.6730    8.7890 N.ar     68   A80      -0.0251
   2139 C8          9.4430   -0.2410    8.9730 C.ar     68   A80       0.2006
   2140 N7          9.1480   -0.9410    7.9040 N.ar     68   A80      -0.6073
   2141 C5         10.0170   -0.4530    6.9450 C.ar     68   A80       0.0515
   2142 C6         10.2180   -0.7820    5.5870 C.ar     68   A80       0.7009
   2143 N6          9.5160   -1.7170    4.9470 N.pl3    68   A80      -0.9019
   2144 N1         11.1690   -0.1070    4.9080 N.ar     68   A80      -0.7615
   2145 C2         11.8750    0.8370    5.5500 C.ar     68   A80       0.5875
   2146 N3         11.7770    1.2400    6.8210 N.ar     68   A80      -0.6997
   2147 C4         10.8230    0.5470    7.4730 C.ar     68   A80       0.3053
   2148 H5'         7.9977    2.3534   12.8810 H        68   A80       0.0679
   2149 H5''        9.0684    0.9880   13.2753 H        68   A80       0.0679
   2150 H4'        10.3834    2.8343   12.3596 H        68   A80       0.1174
   2151 H3'         8.4487    2.6357   10.0343 H        68   A80       0.0615
   2152 H2'        10.1907    3.1892    8.5440 H        68   A80       0.0972
   2153 H1'        12.0806    1.5779    9.7312 H        68   A80       0.2007
   2154 H8          8.9381   -0.3744    9.9184 H        68   A80       0.1553
   2155 H2         12.6255    1.3402    4.9584 H        68   A80       0.0473
   2156 HO2'       11.4933    4.7133    9.2939 H        68   A80       0.4186
   2157 H61        10.0981   -2.0092    4.1751 H        68   A80       0.4115
   2158 H62         8.5963   -2.0606    5.1839 H        68   A80       0.4115
   2159 P           7.6890    5.0950   10.2800 P.3      69   G81       1.1662
   2160 OP1         7.4110    6.3530   11.0180 O.co2    69   G81      -0.7760
   2161 OP2         6.6420    4.0510   10.2180 O.co2    69   G81      -0.7760
   2162 O5'         8.1660    5.5160    8.7930 O.3      69   G81      -0.4989
   2163 C5'         9.0630    6.6320    8.6370 C.3      69   G81       0.0558
   2164 C4'         9.8430    6.6440    7.3290 C.3      69   G81       0.1065
   2165 O4'        10.5160    5.3730    7.0950 O.3      69   G81      -0.3548
   2166 C3'         8.9970    6.9050    6.0860 C.3      69   G81       0.2022
   2167 O3'         8.7720    8.3030    5.8520 O.3      69   G81      -0.5246
   2168 C2'         9.8210    6.2350    4.9800 C.3      69   G81       0.0670
   2169 O2'        10.7450    7.0910    4.3350 O.3      69   G81      -0.6139
   2170 C1'        10.4850    5.0510    5.7120 C.3      69   G81       0.0191
   2171 N9          9.6940    3.8250    5.5050 N.ar     69   G81       0.0492
   2172 C8          8.9800    3.1180    6.4500 C.ar     69   G81       0.1374
   2173 N7          8.3510    2.0880    5.9600 N.ar     69   G81      -0.5709
   2174 C5          8.6540    2.1060    4.6040 C.ar     69   G81       0.1744
   2175 C6          8.2520    1.2300    3.5610 C.2      69   G81       0.4770
   2176 O6          7.5230    0.2280    3.6310 O.2      69   G81      -0.5597
   2177 N1          8.7820    1.6160    2.3280 N.am     69   G81      -0.4787
   2178 C2          9.6030    2.7090    2.1240 C.2      69   G81       0.7657
   2179 N2         10.0220    2.9290    0.8660 N.pl3    69   G81      -0.9672
   2180 N3          9.9810    3.5310    3.0960 N.2      69   G81      -0.6323
   2181 C4          9.4750    3.1720    4.3060 C.ar     69   G81       0.1222
   2182 H5'         9.7788    6.6095    9.4587 H        69   G81       0.0679
   2183 H5''        8.4853    7.5538    8.7051 H        69   G81       0.0679
   2184 H4'        10.6021    7.4236    7.3932 H        69   G81       0.1174
   2185 H3'         8.0390    6.3946    6.1850 H        69   G81       0.0615
   2186 H2'         9.1361    5.8381    4.2307 H        69   G81       0.0972
   2187 H1'        11.4996    4.9061    5.3410 H        69   G81       0.2006
   2188 H8          8.9458    3.3917    7.4942 H        69   G81       0.1640
   2189 H1          8.5472    1.0529    1.5231 H        69   G81       0.3424
   2190 H21         9.7363    2.3078    0.1227 H        69   G81       0.4364
   2191 H22        10.6225    3.7156    0.6640 H        69   G81       0.4364
   2192 HO2'       10.5351    7.1426    3.3997 H        69   G81       0.4186
   2193 P           7.3130    8.8130    5.4120 P.3      70   U82       1.1662
   2194 OP1         7.2680   10.2910    5.5080 O.co2    70   U82      -0.7760
   2195 OP2         6.3270    8.0080    6.1670 O.co2    70   U82      -0.7760
   2196 O5'         7.2120    8.4410    3.8570 O.3      70   U82      -0.4989
   2197 C5'         7.8430    9.2520    2.8760 C.3      70   U82       0.0558
   2198 C4'         8.0990    8.4830    1.5960 C.3      70   U82       0.1065
   2199 O4'         8.6350    7.1590    1.8760 O.3      70   U82      -0.3548
   2200 C3'         6.8440    8.2160    0.7850 C.3      70   U82       0.2022
   2201 O3'         6.4770    9.3440    0.0150 O.3      70   U82      -0.5246
   2202 C2'         7.2850    7.0280   -0.0660 C.3      70   U82       0.0670
   2203 O2'         8.0780    7.3760   -1.1860 O.3      70   U82      -0.6139
   2204 C1'         8.0760    6.2180    0.9660 C.3      70   U82       0.0674
   2205 N1          7.2260    5.1860    1.7030 N.am     70   U82       0.0418
   2206 C2          6.6080    4.1540    1.0020 C.2      70   U82       0.4687
   2207 O2          6.6910    3.9920   -0.2060 O.2      70   U82      -0.5477
   2208 N3          5.8610    3.2900    1.7730 N.am     70   U82      -0.3549
   2209 C4          5.6730    3.3440    3.1430 C.2      70   U82       0.5952
   2210 O4          4.9810    2.4940    3.6870 O.2      70   U82      -0.5761
   2211 C5          6.3380    4.4360    3.8100 C.2      70   U82      -0.3635
   2212 C6          7.0670    5.2890    3.0790 C.2      70   U82      -0.1126
   2213 H5'         8.7946    9.6082    3.2707 H        70   U82       0.0679
   2214 H5''        7.2049   10.1080    2.6565 H        70   U82       0.0679
   2215 H4'         8.8110    9.0353    0.9827 H        70   U82       0.1174
   2216 H3'         6.0247    7.9254    1.4426 H        70   U82       0.0615
   2217 H2'         6.4125    6.4615   -0.3916 H        70   U82       0.0972
   2218 H1'         8.8885    5.7008    0.4556 H        70   U82       0.1824
   2219 H3          5.4005    2.5350    1.2850 H        70   U82       0.3154
   2220 H5          6.2498    4.5635    4.8788 H        70   U82       0.1811
   2221 H6          7.5596    6.1038    3.5887 H        70   U82       0.2188
   2222 HO2'        7.5495    7.8810   -1.8083 H        70   U82       0.4186
   2223 P           4.9360    9.6040   -0.3430 P.3      71   G83       1.1662
   2224 OP1         4.7690   11.0480   -0.6470 O.co2    71   G83      -0.7760
   2225 OP2         4.0850    8.9820    0.7000 O.co2    71   G83      -0.7760
   2226 O5'         4.7880    8.7890   -1.7080 O.3      71   G83      -0.4989
   2227 C5'         4.5150    9.4500   -2.9250 C.3      71   G83       0.0558
   2228 C4'         4.1880    8.4130   -3.9720 C.3      71   G83       0.1065
   2229 O4'         5.0100    7.2340   -3.7460 O.3      71   G83      -0.3548
   2230 C3'         2.7580    7.8870   -3.9270 C.3      71   G83       0.2022
   2231 O3'         1.8270    8.7770   -4.5640 O.3      71   G83      -0.6541
   2232 C2'         2.9600    6.5320   -4.6180 C.3      71   G83       0.0670
   2233 O2'         3.2260    6.6310   -6.0100 O.3      71   G83      -0.6139
   2234 C1'         4.2160    6.0650   -3.8760 C.3      71   G83       0.0191
   2235 N9          3.9910    5.4870   -2.5370 N.ar     71   G83       0.0492
   2236 C8          4.2520    6.0890   -1.3270 C.ar     71   G83       0.1374
   2237 N7          3.9570    5.3760   -0.2820 N.ar     71   G83      -0.5709
   2238 C5          3.4730    4.2080   -0.8270 C.ar     71   G83       0.1744
   2239 C6          3.0050    3.0610   -0.1590 C.2      71   G83       0.4770
   2240 O6          2.9420    2.8900    1.0640 O.2      71   G83      -0.5597
   2241 N1          2.5900    2.0680   -1.0540 N.am     71   G83      -0.4787
   2242 C2          2.6290    2.1860   -2.4320 C.2      71   G83       0.7657
   2243 N2          2.1850    1.1280   -3.1300 N.pl3    71   G83      -0.9672
   2244 N3          3.0690    3.2730   -3.0710 N.2      71   G83      -0.6323
   2245 C4          3.4790    4.2450   -2.2080 C.ar     71   G83       0.1222
   2246 H5'         5.3886   10.0230   -3.2358 H        71   G83       0.0679
   2247 H5''        3.6650   10.1199   -2.7952 H        71   G83       0.0679
   2248 H4'         4.3961    8.8175   -4.9625 H        71   G83       0.1174
   2249 H3'         2.4601    7.7276   -2.8907 H        71   G83       0.0615
   2250 H2'         2.1199    5.8646   -4.4257 H        71   G83       0.0972
   2251 H1'         4.7465    5.3400   -4.4933 H        71   G83       0.2006
   2252 H8          4.6713    7.0814   -1.2519 H        71   G83       0.1640
   2253 H1          2.2372    1.2045   -0.6666 H        71   G83       0.3424
   2254 H21         1.8505    0.3075   -2.6452 H        71   G83       0.4364
   2255 H22         2.1856    1.1528   -4.1397 H        71   G83       0.4364
   2256 HO3'        0.9428    8.4068   -4.5118 H        71   G83       0.4376
   2257 HO2'        2.4345    6.9240   -6.4675 H        71   G83       0.4186
@<TRIPOS>BOND
     1    1    2 1
     2    2    3 1
     3    3    5 1
     4    3    4 1
     5    4    9 1
     6    5    7 1
     7    5    6 1
     8    7    8 1
     9    7    9 1
    10    9   10 1
    11   10   11 am
    12   10   17 1
    13   11   12 2
    14   11   13 1
    15   13   14 2
    16   14   16 2
    17   14   15 2
    18   16   17 2
    19   30   32 1
    20   30   31 1
    21   30   33 1
    22   33   34 1
    23   34   35 1
    24   35   37 1
    25   35   36 1
    26   36   41 1
    27   37   38 1
    28   37   39 1
    29   39   40 1
    30   39   41 1
    31   41   42 1
    32   42   43 ar
    33   42   52 ar
    34   43   44 ar
    35   44   45 ar
    36   45   52 ar
    37   45   46 1
    38   46   47 2
    39   46   48 am
    40   48   49 1
    41   49   50 2
    42   49   51 2
    43   51   52 1
    44   30    6 1
    45   64   66 1
    46   64   67 1
    47   64   65 1
    48   67   68 1
    49   68   69 1
    50   69   71 1
    51   69   70 1
    52   70   75 1
    53   71   72 1
    54   71   73 1
    55   73   74 1
    56   73   75 1
    57   75   76 1
    58   76   83 1
    59   76   77 am
    60   77   78 2
    61   77   79 1
    62   79   80 2
    63   80   81 2
    64   80   82 2
    65   82   83 2
    66   38   64 1
    67   95   96 1
    68   95   97 1
    69   95   98 1
    70   98   99 1
    71   99  100 1
    72  100  102 1
    73  100  101 1
    74  101  106 1
    75  102  104 1
    76  102  103 1
    77  104  105 1
    78  104  106 1
    79  106  107 1
    80  107  108 am
    81  107  114 1
    82  108  109 2
    83  108  110 am
    84  110  111 am
    85  111  113 1
    86  111  112 2
    87  113  114 2
    88   72   95 1
    89  125  126 1
    90  125  127 1
    91  125  128 1
    92  128  129 1
    93  129  130 1
    94  130  132 1
    95  130  131 1
    96  131  136 1
    97  132  134 1
    98  132  133 1
    99  134  135 1
   100  134  136 1
   101  136  137 1
   102  137  138 am
   103  137  144 1
   104  138  139 2
   105  138  140 am
   106  140  141 am
   107  141  143 1
   108  141  142 2
   109  143  144 2
   110  103  125 1
   111  155  157 1
   112  155  158 1
   113  155  156 1
   114  158  159 1
   115  159  160 1
   116  160  162 1
   117  160  161 1
   118  161  166 1
   119  162  163 1
   120  162  164 1
   121  164  165 1
   122  164  166 1
   123  166  167 1
   124  167  174 1
   125  167  168 am
   126  168  169 2
   127  168  170 1
   128  170  171 2
   129  171  172 2
   130  171  173 2
   131  173  174 2
   132  133  155 1
   133  186  187 1
   134  186  188 1
   135  186  189 1
   136  189  190 1
   137  190  191 1
   138  191  193 1
   139  191  192 1
   140  192  197 1
   141  193  195 1
   142  193  194 1
   143  195  197 1
   144  195  196 1
   145  197  198 1
   146  198  207 ar
   147  198  199 ar
   148  199  200 ar
   149  200  201 ar
   150  201  207 ar
   151  201  202 ar
   152  202  204 ar
   153  202  203 1
   154  204  205 ar
   155  205  206 ar
   156  206  207 ar
   157  163  186 1
   158  219  220 1
   159  219  221 1
   160  219  222 1
   161  222  223 1
   162  223  224 1
   163  224  226 1
   164  224  225 1
   165  225  230 1
   166  226  228 1
   167  226  227 1
   168  228  229 1
   169  228  230 1
   170  230  231 1
   171  231  232 am
   172  231  238 1
   173  232  233 2
   174  232  234 am
   175  234  235 am
   176  235  237 1
   177  235  236 2
   178  237  238 2
   179  194  219 1
   180  249  250 1
   181  249  251 1
   182  249  252 1
   183  252  253 1
   184  253  254 1
   185  254  256 1
   186  254  255 1
   187  255  260 1
   188  256  258 1
   189  256  257 1
   190  258  260 1
   191  258  259 1
   192  260  261 1
   193  261  270 ar
   194  261  262 ar
   195  262  263 ar
   196  263  264 ar
   197  264  270 ar
   198  264  265 ar
   199  265  267 ar
   200  265  266 1
   201  267  268 ar
   202  268  269 ar
   203  269  270 ar
   204  227  249 1
   205  282  283 1
   206  282  284 1
   207  282  285 1
   208  285  286 1
   209  286  287 1
   210  287  289 1
   211  287  288 1
   212  288  293 1
   213  289  291 1
   214  289  290 1
   215  291  292 1
   216  291  293 1
   217  293  294 1
   218  294  295 am
   219  294  301 1
   220  295  296 2
   221  295  297 am
   222  297  298 am
   223  298  300 1
   224  298  299 2
   225  300  301 2
   226  257  282 1
   227  312  313 1
   228  312  314 1
   229  312  315 1
   230  315  316 1
   231  316  317 1
   232  317  319 1
   233  317  318 1
   234  318  323 1
   235  319  321 1
   236  319  320 1
   237  321  323 1
   238  321  322 1
   239  323  324 1
   240  324  333 ar
   241  324  325 ar
   242  325  326 ar
   243  326  327 ar
   244  327  333 ar
   245  327  328 ar
   246  328  330 ar
   247  328  329 1
   248  330  331 ar
   249  331  332 ar
   250  332  333 ar
   251  290  312 1
   252  345  346 1
   253  345  347 1
   254  345  348 1
   255  348  349 1
   256  349  350 1
   257  350  352 1
   258  350  351 1
   259  351  356 1
   260  352  354 1
   261  352  353 1
   262  354  356 1
   263  354  355 1
   264  356  357 1
   265  357  366 ar
   266  357  358 ar
   267  358  359 ar
   268  359  360 ar
   269  360  366 ar
   270  360  361 ar
   271  361  363 ar
   272  361  362 1
   273  363  364 ar
   274  364  365 ar
   275  365  366 ar
   276  320  345 1
   277  378  379 1
   278  378  380 1
   279  378  381 1
   280  381  382 1
   281  382  383 1
   282  383  385 1
   283  383  384 1
   284  384  389 1
   285  385  387 1
   286  385  386 1
   287  387  388 1
   288  387  389 1
   289  389  390 1
   290  390  391 am
   291  390  397 1
   292  391  392 2
   293  391  393 am
   294  393  394 am
   295  394  396 1
   296  394  395 2
   297  396  397 2
   298  353  378 1
   299  408  410 1
   300  408  411 1
   301  408  409 1
   302  411  412 1
   303  412  413 1
   304  413  415 1
   305  413  414 1
   306  414  419 1
   307  415  416 1
   308  415  417 1
   309  417  418 1
   310  417  419 1
   311  419  420 1
   312  420  427 1
   313  420  421 am
   314  421  422 2
   315  421  423 1
   316  423  424 2
   317  424  425 2
   318  424  426 2
   319  426  427 2
   320  386  408 1
   321  439  441 1
   322  439  442 1
   323  439  440 1
   324  442  443 1
   325  443  444 1
   326  444  446 1
   327  444  445 1
   328  445  450 1
   329  446  447 1
   330  446  448 1
   331  448  449 1
   332  448  450 1
   333  450  451 1
   334  451  458 1
   335  451  452 am
   336  452  453 2
   337  452  454 1
   338  454  455 2
   339  455  456 2
   340  455  457 2
   341  457  458 2
   342  416  439 1
   343  470  471 1
   344  470  472 1
   345  470  473 1
   346  473  474 1
   347  474  475 1
   348  475  477 1
   349  475  476 1
   350  476  481 1
   351  477  479 1
   352  477  478 1
   353  479  480 1
   354  479  481 1
   355  481  482 1
   356  482  483 am
   357  482  489 1
   358  483  484 2
   359  483  485 am
   360  485  486 am
   361  486  488 1
   362  486  487 2
   363  488  489 2
   364  447  470 1
   365  500  501 1
   366  500  502 1
   367  500  503 1
   368  503  504 1
   369  504  505 1
   370  505  507 1
   371  505  506 1
   372  506  511 1
   373  507  509 1
   374  507  508 1
   375  509  511 1
   376  509  510 1
   377  511  512 1
   378  512  521 ar
   379  512  513 ar
   380  513  514 ar
   381  514  515 ar
   382  515  521 ar
   383  515  516 ar
   384  516  518 ar
   385  516  517 1
   386  518  519 ar
   387  519  520 ar
   388  520  521 ar
   389  478  500 1
   390  533  534 1
   391  533  535 1
   392  533  536 1
   393  536  537 1
   394  537  538 1
   395  538  540 1
   396  538  539 1
   397  539  544 1
   398  540  542 1
   399  540  541 1
   400  542  544 1
   401  542  543 1
   402  544  545 1
   403  545  554 ar
   404  545  546 ar
   405  546  547 ar
   406  547  548 ar
   407  548  554 ar
   408  548  549 ar
   409  549  551 ar
   410  549  550 1
   411  551  552 ar
   412  552  553 ar
   413  553  554 ar
   414  508  533 1
   415  566  567 1
   416  566  568 1
   417  566  569 1
   418  569  570 1
   419  570  571 1
   420  571  573 1
   421  571  572 1
   422  572  577 1
   423  573  575 1
   424  573  574 1
   425  575  576 1
   426  575  577 1
   427  577  578 1
   428  578  579 am
   429  578  585 1
   430  579  580 2
   431  579  581 am
   432  581  582 am
   433  582  584 1
   434  582  583 2
   435  584  585 2
   436  541  566 1
   437  596  598 1
   438  596  597 1
   439  596  599 1
   440  599  600 1
   441  600  601 1
   442  601  603 1
   443  601  602 1
   444  602  607 1
   445  603  604 1
   446  603  605 1
   447  605  606 1
   448  605  607 1
   449  607  608 1
   450  608  609 ar
   451  608  618 ar
   452  609  610 ar
   453  610  611 ar
   454  611  618 ar
   455  611  612 1
   456  612  613 2
   457  612  614 am
   458  614  615 1
   459  615  616 2
   460  615  617 2
   461  617  618 1
   462  574  596 1
   463  630  631 1
   464  630  632 1
   465  630  633 1
   466  633  634 1
   467  634  635 1
   468  635  637 1
   469  635  636 1
   470  636  641 1
   471  637  639 1
   472  637  638 1
   473  639  641 1
   474  639  640 1
   475  641  642 1
   476  642  651 ar
   477  642  643 ar
   478  643  644 ar
   479  644  645 ar
   480  645  651 ar
   481  645  646 ar
   482  646  648 ar
   483  646  647 1
   484  648  649 ar
   485  649  650 ar
   486  650  651 ar
   487  604  630 1
   488  663  664 1
   489  663  665 1
   490  663  666 1
   491  666  667 1
   492  667  668 1
   493  668  670 1
   494  668  669 1
   495  669  674 1
   496  670  672 1
   497  670  671 1
   498  672  673 1
   499  672  674 1
   500  674  675 1
   501  675  676 am
   502  675  682 1
   503  676  677 2
   504  676  678 am
   505  678  679 am
   506  679  681 1
   507  679  680 2
   508  681  682 2
   509  638  663 1
   510  693  694 1
   511  693  695 1
   512  693  696 1
   513  696  697 1
   514  697  698 1
   515  698  700 1
   516  698  699 1
   517  699  704 1
   518  700  702 1
   519  700  701 1
   520  702  704 1
   521  702  703 1
   522  704  705 1
   523  705  714 ar
   524  705  706 ar
   525  706  707 ar
   526  707  708 ar
   527  708  714 ar
   528  708  709 ar
   529  709  711 ar
   530  709  710 1
   531  711  712 ar
   532  712  713 ar
   533  713  714 ar
   534  671  693 1
   535  726  727 1
   536  726  728 1
   537  726  729 1
   538  729  730 1
   539  730  731 1
   540  731  733 1
   541  731  732 1
   542  732  737 1
   543  733  735 1
   544  733  734 1
   545  735  736 1
   546  735  737 1
   547  737  738 1
   548  738  739 am
   549  738  745 1
   550  739  740 2
   551  739  741 am
   552  741  742 am
   553  742  744 1
   554  742  743 2
   555  744  745 2
   556  701  726 1
   557  756  758 1
   558  756  757 1
   559  756  759 1
   560  759  760 1
   561  760  761 1
   562  761  763 1
   563  761  762 1
   564  762  767 1
   565  763  764 1
   566  763  765 1
   567  765  766 1
   568  765  767 1
   569  767  768 1
   570  768  769 ar
   571  768  778 ar
   572  769  770 ar
   573  770  771 ar
   574  771  778 ar
   575  771  772 1
   576  772  773 2
   577  772  774 am
   578  774  775 1
   579  775  776 2
   580  775  777 2
   581  777  778 1
   582  734  756 1
   583  790  792 1
   584  790  791 1
   585  790  793 1
   586  793  794 1
   587  794  795 1
   588  795  797 1
   589  795  796 1
   590  796  801 1
   591  797  798 1
   592  797  799 1
   593  799  800 1
   594  799  801 1
   595  801  802 1
   596  802  803 ar
   597  802  812 ar
   598  803  804 ar
   599  804  805 ar
   600  805  812 ar
   601  805  806 1
   602  806  807 2
   603  806  808 am
   604  808  809 1
   605  809  810 2
   606  809  811 2
   607  811  812 1
   608  764  790 1
   609  824  825 1
   610  824  826 1
   611  824  827 1
   612  827  828 1
   613  828  829 1
   614  829  831 1
   615  829  830 1
   616  830  835 1
   617  831  833 1
   618  831  832 1
   619  833  834 1
   620  833  835 1
   621  835  836 1
   622  836  837 am
   623  836  843 1
   624  837  838 2
   625  837  839 am
   626  839  840 am
   627  840  842 1
   628  840  841 2
   629  842  843 2
   630  798  824 1
   631  854  855 1
   632  854  856 1
   633  854  857 1
   634  857  858 1
   635  858  859 1
   636  859  861 1
   637  859  860 1
   638  860  865 1
   639  861  863 1
   640  861  862 1
   641  863  864 1
   642  863  865 1
   643  865  866 1
   644  866  867 am
   645  866  873 1
   646  867  868 2
   647  867  869 am
   648  869  870 am
   649  870  872 1
   650  870  871 2
   651  872  873 2
   652  832  854 1
   653  884  885 1
   654  884  886 1
   655  884  887 1
   656  887  888 1
   657  888  889 1
   658  889  891 1
   659  889  890 1
   660  890  895 1
   661  891  893 1
   662  891  892 1
   663  893  894 1
   664  893  895 1
   665  895  896 1
   666  896  897 am
   667  896  903 1
   668  897  898 2
   669  897  899 am
   670  899  900 am
   671  900  902 1
   672  900  901 2
   673  902  903 2
   674  862  884 1
   675  914  916 1
   676  914  915 1
   677  914  917 1
   678  917  918 1
   679  918  919 1
   680  919  921 1
   681  919  920 1
   682  920  925 1
   683  921  922 1
   684  921  923 1
   685  923  924 1
   686  923  925 1
   687  925  926 1
   688  926  927 ar
   689  926  936 ar
   690  927  928 ar
   691  928  929 ar
   692  929  936 ar
   693  929  930 1
   694  930  931 2
   695  930  932 am
   696  932  933 1
   697  933  934 2
   698  933  935 2
   699  935  936 1
   700  892  914 1
   701  948  950 1
   702  948  949 1
   703  948  951 1
   704  951  952 1
   705  952  953 1
   706  953  955 1
   707  953  954 1
   708  954  959 1
   709  955  956 1
   710  955  957 1
   711  957  958 1
   712  957  959 1
   713  959  960 1
   714  960  961 ar
   715  960  970 ar
   716  961  962 ar
   717  962  963 ar
   718  963  970 ar
   719  963  964 1
   720  964  965 2
   721  964  966 am
   722  966  967 1
   723  967  968 2
   724  967  969 2
   725  969  970 1
   726  922  948 1
   727  982  984 1
   728  982  983 1
   729  982  985 1
   730  985  986 1
   731  986  987 1
   732  987  989 1
   733  987  988 1
   734  988  993 1
   735  989  990 1
   736  989  991 1
   737  991  992 1
   738  991  993 1
   739  993  994 1
   740  994  995 ar
   741  994 1004 ar
   742  995  996 ar
   743  996  997 ar
   744  997 1004 ar
   745  997  998 1
   746  998  999 2
   747  998 1000 am
   748 1000 1001 1
   749 1001 1002 2
   750 1001 1003 2
   751 1003 1004 1
   752  956  982 1
   753 1016 1017 1
   754 1016 1018 1
   755 1016 1019 1
   756 1019 1020 1
   757 1020 1021 1
   758 1021 1023 1
   759 1021 1022 1
   760 1022 1027 1
   761 1023 1025 1
   762 1023 1024 1
   763 1025 1027 1
   764 1025 1026 1
   765 1027 1028 1
   766 1028 1037 ar
   767 1028 1029 ar
   768 1029 1030 ar
   769 1030 1031 ar
   770 1031 1037 ar
   771 1031 1032 ar
   772 1032 1034 ar
   773 1032 1033 1
   774 1034 1035 ar
   775 1035 1036 ar
   776 1036 1037 ar
   777  990 1016 1
   778 1049 1051 1
   779 1049 1050 1
   780 1049 1052 1
   781 1052 1053 1
   782 1053 1054 1
   783 1054 1056 1
   784 1054 1055 1
   785 1055 1060 1
   786 1056 1057 1
   787 1056 1058 1
   788 1058 1059 1
   789 1058 1060 1
   790 1060 1061 1
   791 1061 1062 ar
   792 1061 1071 ar
   793 1062 1063 ar
   794 1063 1064 ar
   795 1064 1071 ar
   796 1064 1065 1
   797 1065 1066 2
   798 1065 1067 am
   799 1067 1068 1
   800 1068 1069 2
   801 1068 1070 2
   802 1070 1071 1
   803 1024 1049 1
   804 1083 1084 1
   805 1083 1085 1
   806 1083 1086 1
   807 1086 1087 1
   808 1087 1088 1
   809 1088 1090 1
   810 1088 1089 1
   811 1089 1094 1
   812 1090 1092 1
   813 1090 1091 1
   814 1092 1093 1
   815 1092 1094 1
   816 1094 1095 1
   817 1095 1096 am
   818 1095 1102 1
   819 1096 1097 2
   820 1096 1098 am
   821 1098 1099 am
   822 1099 1101 1
   823 1099 1100 2
   824 1101 1102 2
   825 1057 1083 1
   826 1113 1114 1
   827 1113 1115 1
   828 1113 1116 1
   829 1116 1117 1
   830 1117 1118 1
   831 1118 1120 1
   832 1118 1119 1
   833 1119 1124 1
   834 1120 1122 1
   835 1120 1121 1
   836 1122 1123 1
   837 1122 1124 1
   838 1124 1125 1
   839 1125 1126 am
   840 1125 1132 1
   841 1126 1127 2
   842 1126 1128 am
   843 1128 1129 am
   844 1129 1131 1
   845 1129 1130 2
   846 1131 1132 2
   847 1091 1113 1
   848 1143 1144 1
   849 1143 1145 1
   850 1143 1146 1
   851 1146 1147 1
   852 1147 1148 1
   853 1148 1150 1
   854 1148 1149 1
   855 1149 1154 1
   856 1150 1152 1
   857 1150 1151 1
   858 1152 1153 1
   859 1152 1154 1
   860 1154 1155 1
   861 1155 1156 am
   862 1155 1162 1
   863 1156 1157 2
   864 1156 1158 am
   865 1158 1159 am
   866 1159 1161 1
   867 1159 1160 2
   868 1161 1162 2
   869 1121 1143 1
   870 1173 1175 1
   871 1173 1176 1
   872 1173 1174 1
   873 1176 1177 1
   874 1177 1178 1
   875 1178 1180 1
   876 1178 1179 1
   877 1179 1184 1
   878 1180 1181 1
   879 1180 1182 1
   880 1182 1183 1
   881 1182 1184 1
   882 1184 1185 1
   883 1185 1192 1
   884 1185 1186 am
   885 1186 1187 2
   886 1186 1188 1
   887 1188 1189 2
   888 1189 1190 2
   889 1189 1191 2
   890 1191 1192 2
   891 1151 1173 1
   892 1204 1205 1
   893 1204 1206 1
   894 1204 1207 1
   895 1207 1208 1
   896 1208 1209 1
   897 1209 1211 1
   898 1209 1210 1
   899 1210 1215 1
   900 1211 1213 1
   901 1211 1212 1
   902 1213 1214 1
   903 1213 1215 1
   904 1215 1216 1
   905 1216 1217 am
   906 1216 1223 1
   907 1217 1218 2
   908 1217 1219 am
   909 1219 1220 am
   910 1220 1222 1
   911 1220 1221 2
   912 1222 1223 2
   913 1181 1204 1
   914 1234 1235 1
   915 1234 1236 1
   916 1234 1237 1
   917 1237 1238 1
   918 1238 1239 1
   919 1239 1241 1
   920 1239 1240 1
   921 1240 1245 1
   922 1241 1243 1
   923 1241 1242 1
   924 1243 1245 1
   925 1243 1244 1
   926 1245 1246 1
   927 1246 1255 ar
   928 1246 1247 ar
   929 1247 1248 ar
   930 1248 1249 ar
   931 1249 1255 ar
   932 1249 1250 ar
   933 1250 1252 ar
   934 1250 1251 1
   935 1252 1253 ar
   936 1253 1254 ar
   937 1254 1255 ar
   938 1212 1234 1
   939 1267 1269 1
   940 1267 1270 1
   941 1267 1268 1
   942 1270 1271 1
   943 1271 1272 1
   944 1272 1274 1
   945 1272 1273 1
   946 1273 1278 1
   947 1274 1275 1
   948 1274 1276 1
   949 1276 1277 1
   950 1276 1278 1
   951 1278 1279 1
   952 1279 1286 1
   953 1279 1280 am
   954 1280 1281 2
   955 1280 1282 1
   956 1282 1283 2
   957 1283 1284 2
   958 1283 1285 2
   959 1285 1286 2
   960 1242 1267 1
   961 1298 1300 1
   962 1298 1301 1
   963 1298 1299 1
   964 1301 1302 1
   965 1302 1303 1
   966 1303 1305 1
   967 1303 1304 1
   968 1304 1309 1
   969 1305 1306 1
   970 1305 1307 1
   971 1307 1308 1
   972 1307 1309 1
   973 1309 1310 1
   974 1310 1317 1
   975 1310 1311 am
   976 1311 1312 2
   977 1311 1313 1
   978 1313 1314 2
   979 1314 1315 2
   980 1314 1316 2
   981 1316 1317 2
   982 1275 1298 1
   983 1329 1330 1
   984 1329 1331 1
   985 1329 1332 1
   986 1332 1333 1
   987 1333 1334 1
   988 1334 1336 1
   989 1334 1335 1
   990 1335 1340 1
   991 1336 1338 1
   992 1336 1337 1
   993 1338 1340 1
   994 1338 1339 1
   995 1340 1341 1
   996 1341 1350 ar
   997 1341 1342 ar
   998 1342 1343 ar
   999 1343 1344 ar
  1000 1344 1350 ar
  1001 1344 1345 ar
  1002 1345 1347 ar
  1003 1345 1346 1
  1004 1347 1348 ar
  1005 1348 1349 ar
  1006 1349 1350 ar
  1007 1306 1329 1
  1008 1362 1363 1
  1009 1362 1364 1
  1010 1362 1365 1
  1011 1365 1366 1
  1012 1366 1367 1
  1013 1367 1369 1
  1014 1367 1368 1
  1015 1368 1373 1
  1016 1369 1371 1
  1017 1369 1370 1
  1018 1371 1373 1
  1019 1371 1372 1
  1020 1373 1374 1
  1021 1374 1383 ar
  1022 1374 1375 ar
  1023 1375 1376 ar
  1024 1376 1377 ar
  1025 1377 1383 ar
  1026 1377 1378 ar
  1027 1378 1380 ar
  1028 1378 1379 1
  1029 1380 1381 ar
  1030 1381 1382 ar
  1031 1382 1383 ar
  1032 1337 1362 1
  1033 1395 1397 1
  1034 1395 1396 1
  1035 1395 1398 1
  1036 1398 1399 1
  1037 1399 1400 1
  1038 1400 1402 1
  1039 1400 1401 1
  1040 1401 1406 1
  1041 1402 1403 1
  1042 1402 1404 1
  1043 1404 1405 1
  1044 1404 1406 1
  1045 1406 1407 1
  1046 1407 1408 ar
  1047 1407 1417 ar
  1048 1408 1409 ar
  1049 1409 1410 ar
  1050 1410 1417 ar
  1051 1410 1411 1
  1052 1411 1412 2
  1053 1411 1413 am
  1054 1413 1414 1
  1055 1414 1415 2
  1056 1414 1416 2
  1057 1416 1417 1
  1058 1370 1395 1
  1059 1429 1430 1
  1060 1429 1431 1
  1061 1429 1432 1
  1062 1432 1433 1
  1063 1433 1434 1
  1064 1434 1436 1
  1065 1434 1435 1
  1066 1435 1440 1
  1067 1436 1438 1
  1068 1436 1437 1
  1069 1438 1440 1
  1070 1438 1439 1
  1071 1440 1441 1
  1072 1441 1450 ar
  1073 1441 1442 ar
  1074 1442 1443 ar
  1075 1443 1444 ar
  1076 1444 1450 ar
  1077 1444 1445 ar
  1078 1445 1447 ar
  1079 1445 1446 1
  1080 1447 1448 ar
  1081 1448 1449 ar
  1082 1449 1450 ar
  1083 1403 1429 1
  1084 1462 1464 1
  1085 1462 1463 1
  1086 1462 1465 1
  1087 1465 1466 1
  1088 1466 1467 1
  1089 1467 1469 1
  1090 1467 1468 1
  1091 1468 1473 1
  1092 1469 1470 1
  1093 1469 1471 1
  1094 1471 1472 1
  1095 1471 1473 1
  1096 1473 1474 1
  1097 1474 1475 ar
  1098 1474 1484 ar
  1099 1475 1476 ar
  1100 1476 1477 ar
  1101 1477 1484 ar
  1102 1477 1478 1
  1103 1478 1479 2
  1104 1478 1480 am
  1105 1480 1481 1
  1106 1481 1482 2
  1107 1481 1483 2
  1108 1483 1484 1
  1109 1437 1462 1
  1110 1496 1498 1
  1111 1496 1499 1
  1112 1496 1497 1
  1113 1499 1500 1
  1114 1500 1501 1
  1115 1501 1503 1
  1116 1501 1502 1
  1117 1502 1507 1
  1118 1503 1504 1
  1119 1503 1505 1
  1120 1505 1506 1
  1121 1505 1507 1
  1122 1507 1508 1
  1123 1508 1515 1
  1124 1508 1509 am
  1125 1509 1510 2
  1126 1509 1511 1
  1127 1511 1512 2
  1128 1512 1513 2
  1129 1512 1514 2
  1130 1514 1515 2
  1131 1470 1496 1
  1132 1527 1529 1
  1133 1527 1530 1
  1134 1527 1528 1
  1135 1530 1531 1
  1136 1531 1532 1
  1137 1532 1534 1
  1138 1532 1533 1
  1139 1533 1538 1
  1140 1534 1535 1
  1141 1534 1536 1
  1142 1536 1537 1
  1143 1536 1538 1
  1144 1538 1539 1
  1145 1539 1546 1
  1146 1539 1540 am
  1147 1540 1541 2
  1148 1540 1542 1
  1149 1542 1543 2
  1150 1543 1544 2
  1151 1543 1545 2
  1152 1545 1546 2
  1153 1504 1527 1
  1154 1558 1559 1
  1155 1558 1560 1
  1156 1558 1561 1
  1157 1561 1562 1
  1158 1562 1563 1
  1159 1563 1565 1
  1160 1563 1564 1
  1161 1564 1569 1
  1162 1565 1567 1
  1163 1565 1566 1
  1164 1567 1568 1
  1165 1567 1569 1
  1166 1569 1570 1
  1167 1570 1571 am
  1168 1570 1577 1
  1169 1571 1572 2
  1170 1571 1573 am
  1171 1573 1574 am
  1172 1574 1576 1
  1173 1574 1575 2
  1174 1576 1577 2
  1175 1535 1558 1
  1176 1588 1589 1
  1177 1588 1590 1
  1178 1588 1591 1
  1179 1591 1592 1
  1180 1592 1593 1
  1181 1593 1595 1
  1182 1593 1594 1
  1183 1594 1599 1
  1184 1595 1597 1
  1185 1595 1596 1
  1186 1597 1598 1
  1187 1597 1599 1
  1188 1599 1600 1
  1189 1600 1601 am
  1190 1600 1607 1
  1191 1601 1602 2
  1192 1601 1603 am
  1193 1603 1604 am
  1194 1604 1606 1
  1195 1604 1605 2
  1196 1606 1607 2
  1197 1566 1588 1
  1198 1618 1619 1
  1199 1618 1620 1
  1200 1618 1621 1
  1201 1621 1622 1
  1202 1622 1623 1
  1203 1623 1625 1
  1204 1623 1624 1
  1205 1624 1629 1
  1206 1625 1627 1
  1207 1625 1626 1
  1208 1627 1629 1
  1209 1627 1628 1
  1210 1629 1630 1
  1211 1630 1639 ar
  1212 1630 1631 ar
  1213 1631 1632 ar
  1214 1632 1633 ar
  1215 1633 1639 ar
  1216 1633 1634 ar
  1217 1634 1636 ar
  1218 1634 1635 1
  1219 1636 1637 ar
  1220 1637 1638 ar
  1221 1638 1639 ar
  1222 1596 1618 1
  1223 1651 1652 1
  1224 1651 1653 1
  1225 1651 1654 1
  1226 1654 1655 1
  1227 1655 1656 1
  1228 1656 1658 1
  1229 1656 1657 1
  1230 1657 1662 1
  1231 1658 1660 1
  1232 1658 1659 1
  1233 1660 1662 1
  1234 1660 1661 1
  1235 1662 1663 1
  1236 1663 1672 ar
  1237 1663 1664 ar
  1238 1664 1665 ar
  1239 1665 1666 ar
  1240 1666 1672 ar
  1241 1666 1667 ar
  1242 1667 1669 ar
  1243 1667 1668 1
  1244 1669 1670 ar
  1245 1670 1671 ar
  1246 1671 1672 ar
  1247 1626 1651 1
  1248 1684 1685 1
  1249 1684 1686 1
  1250 1684 1687 1
  1251 1687 1688 1
  1252 1688 1689 1
  1253 1689 1691 1
  1254 1689 1690 1
  1255 1690 1695 1
  1256 1691 1693 1
  1257 1691 1692 1
  1258 1693 1695 1
  1259 1693 1694 1
  1260 1695 1696 1
  1261 1696 1705 ar
  1262 1696 1697 ar
  1263 1697 1698 ar
  1264 1698 1699 ar
  1265 1699 1705 ar
  1266 1699 1700 ar
  1267 1700 1702 ar
  1268 1700 1701 1
  1269 1702 1703 ar
  1270 1703 1704 ar
  1271 1704 1705 ar
  1272 1659 1684 1
  1273 1717 1719 1
  1274 1717 1720 1
  1275 1717 1718 1
  1276 1720 1721 1
  1277 1721 1722 1
  1278 1722 1724 1
  1279 1722 1723 1
  1280 1723 1728 1
  1281 1724 1725 1
  1282 1724 1726 1
  1283 1726 1727 1
  1284 1726 1728 1
  1285 1728 1729 1
  1286 1729 1736 1
  1287 1729 1730 am
  1288 1730 1731 2
  1289 1730 1732 1
  1290 1732 1733 2
  1291 1733 1734 2
  1292 1733 1735 2
  1293 1735 1736 2
  1294 1692 1717 1
  1295 1748 1749 1
  1296 1748 1750 1
  1297 1748 1751 1
  1298 1751 1752 1
  1299 1752 1753 1
  1300 1753 1755 1
  1301 1753 1754 1
  1302 1754 1759 1
  1303 1755 1757 1
  1304 1755 1756 1
  1305 1757 1758 1
  1306 1757 1759 1
  1307 1759 1760 1
  1308 1760 1761 am
  1309 1760 1767 1
  1310 1761 1762 2
  1311 1761 1763 am
  1312 1763 1764 am
  1313 1764 1766 1
  1314 1764 1765 2
  1315 1766 1767 2
  1316 1725 1748 1
  1317 1778 1780 1
  1318 1778 1781 1
  1319 1778 1779 1
  1320 1781 1782 1
  1321 1782 1783 1
  1322 1783 1785 1
  1323 1783 1784 1
  1324 1784 1789 1
  1325 1785 1786 1
  1326 1785 1787 1
  1327 1787 1788 1
  1328 1787 1789 1
  1329 1789 1790 1
  1330 1790 1797 1
  1331 1790 1791 am
  1332 1791 1792 2
  1333 1791 1793 1
  1334 1793 1794 2
  1335 1794 1795 2
  1336 1794 1796 2
  1337 1796 1797 2
  1338 1756 1778 1
  1339 1809 1810 1
  1340 1809 1811 1
  1341 1809 1812 1
  1342 1812 1813 1
  1343 1813 1814 1
  1344 1814 1816 1
  1345 1814 1815 1
  1346 1815 1820 1
  1347 1816 1818 1
  1348 1816 1817 1
  1349 1818 1819 1
  1350 1818 1820 1
  1351 1820 1821 1
  1352 1821 1822 am
  1353 1821 1828 1
  1354 1822 1823 2
  1355 1822 1824 am
  1356 1824 1825 am
  1357 1825 1827 1
  1358 1825 1826 2
  1359 1827 1828 2
  1360 1786 1809 1
  1361 1839 1840 1
  1362 1839 1841 1
  1363 1839 1842 1
  1364 1842 1843 1
  1365 1843 1844 1
  1366 1844 1846 1
  1367 1844 1845 1
  1368 1845 1850 1
  1369 1846 1848 1
  1370 1846 1847 1
  1371 1848 1849 1
  1372 1848 1850 1
  1373 1850 1851 1
  1374 1851 1852 am
  1375 1851 1858 1
  1376 1852 1853 2
  1377 1852 1854 am
  1378 1854 1855 am
  1379 1855 1857 1
  1380 1855 1856 2
  1381 1857 1858 2
  1382 1817 1839 1
  1383 1869 1871 1
  1384 1869 1870 1
  1385 1869 1872 1
  1386 1872 1873 1
  1387 1873 1874 1
  1388 1874 1876 1
  1389 1874 1875 1
  1390 1875 1880 1
  1391 1876 1877 1
  1392 1876 1878 1
  1393 1878 1879 1
  1394 1878 1880 1
  1395 1880 1881 1
  1396 1881 1882 ar
  1397 1881 1891 ar
  1398 1882 1883 ar
  1399 1883 1884 ar
  1400 1884 1891 ar
  1401 1884 1885 1
  1402 1885 1886 2
  1403 1885 1887 am
  1404 1887 1888 1
  1405 1888 1889 2
  1406 1888 1890 2
  1407 1890 1891 1
  1408 1847 1869 1
  1409 1903 1904 1
  1410 1903 1905 1
  1411 1903 1906 1
  1412 1906 1907 1
  1413 1907 1908 1
  1414 1908 1910 1
  1415 1908 1909 1
  1416 1909 1914 1
  1417 1910 1912 1
  1418 1910 1911 1
  1419 1912 1914 1
  1420 1912 1913 1
  1421 1914 1915 1
  1422 1915 1924 ar
  1423 1915 1916 ar
  1424 1916 1917 ar
  1425 1917 1918 ar
  1426 1918 1924 ar
  1427 1918 1919 ar
  1428 1919 1921 ar
  1429 1919 1920 1
  1430 1921 1922 ar
  1431 1922 1923 ar
  1432 1923 1924 ar
  1433 1877 1903 1
  1434 1936 1937 1
  1435 1936 1938 1
  1436 1936 1939 1
  1437 1939 1940 1
  1438 1940 1941 1
  1439 1941 1943 1
  1440 1941 1942 1
  1441 1942 1947 1
  1442 1943 1945 1
  1443 1943 1944 1
  1444 1945 1946 1
  1445 1945 1947 1
  1446 1947 1948 1
  1447 1948 1949 am
  1448 1948 1955 1
  1449 1949 1950 2
  1450 1949 1951 am
  1451 1951 1952 am
  1452 1952 1954 1
  1453 1952 1953 2
  1454 1954 1955 2
  1455 1911 1936 1
  1456 1966 1967 1
  1457 1966 1968 1
  1458 1966 1969 1
  1459 1969 1970 1
  1460 1970 1971 1
  1461 1971 1973 1
  1462 1971 1972 1
  1463 1972 1977 1
  1464 1973 1975 1
  1465 1973 1974 1
  1466 1975 1976 1
  1467 1975 1977 1
  1468 1977 1978 1
  1469 1978 1979 am
  1470 1978 1985 1
  1471 1979 1980 2
  1472 1979 1981 am
  1473 1981 1982 am
  1474 1982 1984 1
  1475 1982 1983 2
  1476 1984 1985 2
  1477 1944 1966 1
  1478 1996 1997 1
  1479 1996 1998 1
  1480 1996 1999 1
  1481 1999 2000 1
  1482 2000 2001 1
  1483 2001 2003 1
  1484 2001 2002 1
  1485 2002 2007 1
  1486 2003 2005 1
  1487 2003 2004 1
  1488 2005 2007 1
  1489 2005 2006 1
  1490 2007 2008 1
  1491 2008 2017 ar
  1492 2008 2009 ar
  1493 2009 2010 ar
  1494 2010 2011 ar
  1495 2011 2017 ar
  1496 2011 2012 ar
  1497 2012 2014 ar
  1498 2012 2013 1
  1499 2014 2015 ar
  1500 2015 2016 ar
  1501 2016 2017 ar
  1502 1974 1996 1
  1503 2029 2030 1
  1504 2029 2031 1
  1505 2029 2032 1
  1506 2032 2033 1
  1507 2033 2034 1
  1508 2034 2036 1
  1509 2034 2035 1
  1510 2035 2040 1
  1511 2036 2038 1
  1512 2036 2037 1
  1513 2038 2039 1
  1514 2038 2040 1
  1515 2040 2041 1
  1516 2041 2042 am
  1517 2041 2048 1
  1518 2042 2043 2
  1519 2042 2044 am
  1520 2044 2045 am
  1521 2045 2047 1
  1522 2045 2046 2
  1523 2047 2048 2
  1524 2004 2029 1
  1525 2059 2061 1
  1526 2059 2060 1
  1527 2059 2062 1
  1528 2062 2063 1
  1529 2063 2064 1
  1530 2064 2066 1
  1531 2064 2065 1
  1532 2065 2070 1
  1533 2066 2067 1
  1534 2066 2068 1
  1535 2068 2069 1
  1536 2068 2070 1
  1537 2070 2071 1
  1538 2071 2072 ar
  1539 2071 2081 ar
  1540 2072 2073 ar
  1541 2073 2074 ar
  1542 2074 2081 ar
  1543 2074 2075 1
  1544 2075 2076 2
  1545 2075 2077 am
  1546 2077 2078 1
  1547 2078 2079 2
  1548 2078 2080 2
  1549 2080 2081 1
  1550 2037 2059 1
  1551 2093 2094 1
  1552 2093 2095 1
  1553 2093 2096 1
  1554 2096 2097 1
  1555 2097 2098 1
  1556 2098 2100 1
  1557 2098 2099 1
  1558 2099 2104 1
  1559 2100 2102 1
  1560 2100 2101 1
  1561 2102 2104 1
  1562 2102 2103 1
  1563 2104 2105 1
  1564 2105 2114 ar
  1565 2105 2106 ar
  1566 2106 2107 ar
  1567 2107 2108 ar
  1568 2108 2114 ar
  1569 2108 2109 ar
  1570 2109 2111 ar
  1571 2109 2110 1
  1572 2111 2112 ar
  1573 2112 2113 ar
  1574 2113 2114 ar
  1575 2067 2093 1
  1576 2126 2127 1
  1577 2126 2128 1
  1578 2126 2129 1
  1579 2129 2130 1
  1580 2130 2131 1
  1581 2131 2133 1
  1582 2131 2132 1
  1583 2132 2137 1
  1584 2133 2135 1
  1585 2133 2134 1
  1586 2135 2137 1
  1587 2135 2136 1
  1588 2137 2138 1
  1589 2138 2147 ar
  1590 2138 2139 ar
  1591 2139 2140 ar
  1592 2140 2141 ar
  1593 2141 2147 ar
  1594 2141 2142 ar
  1595 2142 2144 ar
  1596 2142 2143 1
  1597 2144 2145 ar
  1598 2145 2146 ar
  1599 2146 2147 ar
  1600 2101 2126 1
  1601 2159 2161 1
  1602 2159 2160 1
  1603 2159 2162 1
  1604 2162 2163 1
  1605 2163 2164 1
  1606 2164 2166 1
  1607 2164 2165 1
  1608 2165 2170 1
  1609 2166 2167 1
  1610 2166 2168 1
  1611 2168 2169 1
  1612 2168 2170 1
  1613 2170 2171 1
  1614 2171 2172 ar
  1615 2171 2181 ar
  1616 2172 2173 ar
  1617 2173 2174 ar
  1618 2174 2181 ar
  1619 2174 2175 1
  1620 2175 2176 2
  1621 2175 2177 am
  1622 2177 2178 1
  1623 2178 2179 2
  1624 2178 2180 2
  1625 2180 2181 1
  1626 2134 2159 1
  1627 2193 2194 1
  1628 2193 2195 1
  1629 2193 2196 1
  1630 2196 2197 1
  1631 2197 2198 1
  1632 2198 2200 1
  1633 2198 2199 1
  1634 2199 2204 1
  1635 2200 2202 1
  1636 2200 2201 1
  1637 2202 2203 1
  1638 2202 2204 1
  1639 2204 2205 1
  1640 2205 2206 am
  1641 2205 2212 1
  1642 2206 2207 2
  1643 2206 2208 am
  1644 2208 2209 am
  1645 2209 2211 1
  1646 2209 2210 2
  1647 2211 2212 2
  1648 2167 2193 1
  1649 2226 2227 1
  1650 2227 2228 1
  1651 2228 2230 1
  1652 2228 2229 1
  1653 2229 2234 1
  1654 2230 2232 1
  1655 2230 2231 1
  1656 2232 2234 1
  1657 2232 2233 1
  1658 2234 2235 1
  1659 2235 2245 ar
  1660 2235 2236 ar
  1661 2236 2237 ar
  1662 2237 2238 ar
  1663 2238 2245 ar
  1664 2238 2239 1
  1665 2239 2240 2
  1666 2239 2241 am
  1667 2241 2242 1
  1668 2242 2244 2
  1669 2242 2243 2
  1670 2244 2245 1
  1671 2223 2224 1
  1672 2223 2225 1
  1673 2223 2226 1
  1674 2201 2223 1
  1675   18    2 1
  1676   19    2 1
  1677   20    3 1
  1678   21    5 1
  1679   22    7 1
  1680   23    9 1
  1681   24   16 1
  1682   25   17 1
  1683   53   34 1
  1684   54   34 1
  1685   55   35 1
  1686   56   37 1
  1687   57   39 1
  1688   58   41 1
  1689   59   43 1
  1690   60   48 1
  1691   84   68 1
  1692   85   68 1
  1693   86   69 1
  1694   87   71 1
  1695   88   73 1
  1696   89   75 1
  1697   90   82 1
  1698   91   83 1
  1699  115   99 1
  1700  116   99 1
  1701  117  100 1
  1702  118  102 1
  1703  119  104 1
  1704  120  106 1
  1705  121  110 1
  1706  122  113 1
  1707  123  114 1
  1708  145  129 1
  1709  146  129 1
  1710  147  130 1
  1711  148  132 1
  1712  149  134 1
  1713  150  136 1
  1714  151  140 1
  1715  152  143 1
  1716  153  144 1
  1717  175  159 1
  1718  176  159 1
  1719  177  160 1
  1720  178  162 1
  1721  179  164 1
  1722  180  166 1
  1723  181  173 1
  1724  182  174 1
  1725  208  190 1
  1726  209  190 1
  1727  210  191 1
  1728  211  193 1
  1729  212  195 1
  1730  213  197 1
  1731  214  199 1
  1732  215  205 1
  1733  239  223 1
  1734  240  223 1
  1735  241  224 1
  1736  242  226 1
  1737  243  228 1
  1738  244  230 1
  1739  245  234 1
  1740  246  237 1
  1741  247  238 1
  1742  271  253 1
  1743  272  253 1
  1744  273  254 1
  1745  274  256 1
  1746  275  258 1
  1747  276  260 1
  1748  277  262 1
  1749  278  268 1
  1750  302  286 1
  1751  303  286 1
  1752  304  287 1
  1753  305  289 1
  1754  306  291 1
  1755  307  293 1
  1756  308  297 1
  1757  309  300 1
  1758  310  301 1
  1759  334  316 1
  1760  335  316 1
  1761  336  317 1
  1762  337  319 1
  1763  338  321 1
  1764  339  323 1
  1765  340  325 1
  1766  341  331 1
  1767  367  349 1
  1768  368  349 1
  1769  369  350 1
  1770  370  352 1
  1771  371  354 1
  1772  372  356 1
  1773  373  358 1
  1774  374  364 1
  1775  398  382 1
  1776  399  382 1
  1777  400  383 1
  1778  401  385 1
  1779  402  387 1
  1780  403  389 1
  1781  404  393 1
  1782  405  396 1
  1783  406  397 1
  1784  428  412 1
  1785  429  412 1
  1786  430  413 1
  1787  431  415 1
  1788  432  417 1
  1789  433  419 1
  1790  434  426 1
  1791  435  427 1
  1792  459  443 1
  1793  460  443 1
  1794  461  444 1
  1795  462  446 1
  1796  463  448 1
  1797  464  450 1
  1798  465  457 1
  1799  466  458 1
  1800  490  474 1
  1801  491  474 1
  1802  492  475 1
  1803  493  477 1
  1804  494  479 1
  1805  495  481 1
  1806  496  485 1
  1807  497  488 1
  1808  498  489 1
  1809  522  504 1
  1810  523  504 1
  1811  524  505 1
  1812  525  507 1
  1813  526  509 1
  1814  527  511 1
  1815  528  513 1
  1816  529  519 1
  1817  555  537 1
  1818  556  537 1
  1819  557  538 1
  1820  558  540 1
  1821  559  542 1
  1822  560  544 1
  1823  561  546 1
  1824  562  552 1
  1825  586  570 1
  1826  587  570 1
  1827  588  571 1
  1828  589  573 1
  1829  590  575 1
  1830  591  577 1
  1831  592  581 1
  1832  593  584 1
  1833  594  585 1
  1834  619  600 1
  1835  620  600 1
  1836  621  601 1
  1837  622  603 1
  1838  623  605 1
  1839  624  607 1
  1840  625  609 1
  1841  626  614 1
  1842  652  634 1
  1843  653  634 1
  1844  654  635 1
  1845  655  637 1
  1846  656  639 1
  1847  657  641 1
  1848  658  643 1
  1849  659  649 1
  1850  683  667 1
  1851  684  667 1
  1852  685  668 1
  1853  686  670 1
  1854  687  672 1
  1855  688  674 1
  1856  689  678 1
  1857  690  681 1
  1858  691  682 1
  1859  715  697 1
  1860  716  697 1
  1861  717  698 1
  1862  718  700 1
  1863  719  702 1
  1864  720  704 1
  1865  721  706 1
  1866  722  712 1
  1867  746  730 1
  1868  747  730 1
  1869  748  731 1
  1870  749  733 1
  1871  750  735 1
  1872  751  737 1
  1873  752  741 1
  1874  753  744 1
  1875  754  745 1
  1876  779  760 1
  1877  780  760 1
  1878  781  761 1
  1879  782  763 1
  1880  783  765 1
  1881  784  767 1
  1882  785  769 1
  1883  786  774 1
  1884  813  794 1
  1885  814  794 1
  1886  815  795 1
  1887  816  797 1
  1888  817  799 1
  1889  818  801 1
  1890  819  803 1
  1891  820  808 1
  1892  844  828 1
  1893  845  828 1
  1894  846  829 1
  1895  847  831 1
  1896  848  833 1
  1897  849  835 1
  1898  850  839 1
  1899  851  842 1
  1900  852  843 1
  1901  874  858 1
  1902  875  858 1
  1903  876  859 1
  1904  877  861 1
  1905  878  863 1
  1906  879  865 1
  1907  880  869 1
  1908  881  872 1
  1909  882  873 1
  1910  904  888 1
  1911  905  888 1
  1912  906  889 1
  1913  907  891 1
  1914  908  893 1
  1915  909  895 1
  1916  910  899 1
  1917  911  902 1
  1918  912  903 1
  1919  937  918 1
  1920  938  918 1
  1921  939  919 1
  1922  940  921 1
  1923  941  923 1
  1924  942  925 1
  1925  943  927 1
  1926  944  932 1
  1927  971  952 1
  1928  972  952 1
  1929  973  953 1
  1930  974  955 1
  1931  975  957 1
  1932  976  959 1
  1933  977  961 1
  1934  978  966 1
  1935 1005  986 1
  1936 1006  986 1
  1937 1007  987 1
  1938 1008  989 1
  1939 1009  991 1
  1940 1010  993 1
  1941 1011  995 1
  1942 1012 1000 1
  1943 1038 1020 1
  1944 1039 1020 1
  1945 1040 1021 1
  1946 1041 1023 1
  1947 1042 1025 1
  1948 1043 1027 1
  1949 1044 1029 1
  1950 1045 1035 1
  1951 1072 1053 1
  1952 1073 1053 1
  1953 1074 1054 1
  1954 1075 1056 1
  1955 1076 1058 1
  1956 1077 1060 1
  1957 1078 1062 1
  1958 1079 1067 1
  1959 1103 1087 1
  1960 1104 1087 1
  1961 1105 1088 1
  1962 1106 1090 1
  1963 1107 1092 1
  1964 1108 1094 1
  1965 1109 1098 1
  1966 1110 1101 1
  1967 1111 1102 1
  1968 1133 1117 1
  1969 1134 1117 1
  1970 1135 1118 1
  1971 1136 1120 1
  1972 1137 1122 1
  1973 1138 1124 1
  1974 1139 1128 1
  1975 1140 1131 1
  1976 1141 1132 1
  1977 1163 1147 1
  1978 1164 1147 1
  1979 1165 1148 1
  1980 1166 1150 1
  1981 1167 1152 1
  1982 1168 1154 1
  1983 1169 1158 1
  1984 1170 1161 1
  1985 1171 1162 1
  1986 1193 1177 1
  1987 1194 1177 1
  1988 1195 1178 1
  1989 1196 1180 1
  1990 1197 1182 1
  1991 1198 1184 1
  1992 1199 1191 1
  1993 1200 1192 1
  1994 1224 1208 1
  1995 1225 1208 1
  1996 1226 1209 1
  1997 1227 1211 1
  1998 1228 1213 1
  1999 1229 1215 1
  2000 1230 1219 1
  2001 1231 1222 1
  2002 1232 1223 1
  2003 1256 1238 1
  2004 1257 1238 1
  2005 1258 1239 1
  2006 1259 1241 1
  2007 1260 1243 1
  2008 1261 1245 1
  2009 1262 1247 1
  2010 1263 1253 1
  2011 1287 1271 1
  2012 1288 1271 1
  2013 1289 1272 1
  2014 1290 1274 1
  2015 1291 1276 1
  2016 1292 1278 1
  2017 1293 1285 1
  2018 1294 1286 1
  2019 1318 1302 1
  2020 1319 1302 1
  2021 1320 1303 1
  2022 1321 1305 1
  2023 1322 1307 1
  2024 1323 1309 1
  2025 1324 1316 1
  2026 1325 1317 1
  2027 1351 1333 1
  2028 1352 1333 1
  2029 1353 1334 1
  2030 1354 1336 1
  2031 1355 1338 1
  2032 1356 1340 1
  2033 1357 1342 1
  2034 1358 1348 1
  2035 1384 1366 1
  2036 1385 1366 1
  2037 1386 1367 1
  2038 1387 1369 1
  2039 1388 1371 1
  2040 1389 1373 1
  2041 1390 1375 1
  2042 1391 1381 1
  2043 1418 1399 1
  2044 1419 1399 1
  2045 1420 1400 1
  2046 1421 1402 1
  2047 1422 1404 1
  2048 1423 1406 1
  2049 1424 1408 1
  2050 1425 1413 1
  2051 1451 1433 1
  2052 1452 1433 1
  2053 1453 1434 1
  2054 1454 1436 1
  2055 1455 1438 1
  2056 1456 1440 1
  2057 1457 1442 1
  2058 1458 1448 1
  2059 1485 1466 1
  2060 1486 1466 1
  2061 1487 1467 1
  2062 1488 1469 1
  2063 1489 1471 1
  2064 1490 1473 1
  2065 1491 1475 1
  2066 1492 1480 1
  2067 1516 1500 1
  2068 1517 1500 1
  2069 1518 1501 1
  2070 1519 1503 1
  2071 1520 1505 1
  2072 1521 1507 1
  2073 1522 1514 1
  2074 1523 1515 1
  2075 1547 1531 1
  2076 1548 1531 1
  2077 1549 1532 1
  2078 1550 1534 1
  2079 1551 1536 1
  2080 1552 1538 1
  2081 1553 1545 1
  2082 1554 1546 1
  2083 1578 1562 1
  2084 1579 1562 1
  2085 1580 1563 1
  2086 1581 1565 1
  2087 1582 1567 1
  2088 1583 1569 1
  2089 1584 1573 1
  2090 1585 1576 1
  2091 1586 1577 1
  2092 1608 1592 1
  2093 1609 1592 1
  2094 1610 1593 1
  2095 1611 1595 1
  2096 1612 1597 1
  2097 1613 1599 1
  2098 1614 1603 1
  2099 1615 1606 1
  2100 1616 1607 1
  2101 1640 1622 1
  2102 1641 1622 1
  2103 1642 1623 1
  2104 1643 1625 1
  2105 1644 1627 1
  2106 1645 1629 1
  2107 1646 1631 1
  2108 1647 1637 1
  2109 1673 1655 1
  2110 1674 1655 1
  2111 1675 1656 1
  2112 1676 1658 1
  2113 1677 1660 1
  2114 1678 1662 1
  2115 1679 1664 1
  2116 1680 1670 1
  2117 1706 1688 1
  2118 1707 1688 1
  2119 1708 1689 1
  2120 1709 1691 1
  2121 1710 1693 1
  2122 1711 1695 1
  2123 1712 1697 1
  2124 1713 1703 1
  2125 1737 1721 1
  2126 1738 1721 1
  2127 1739 1722 1
  2128 1740 1724 1
  2129 1741 1726 1
  2130 1742 1728 1
  2131 1743 1735 1
  2132 1744 1736 1
  2133 1768 1752 1
  2134 1769 1752 1
  2135 1770 1753 1
  2136 1771 1755 1
  2137 1772 1757 1
  2138 1773 1759 1
  2139 1774 1763 1
  2140 1775 1766 1
  2141 1776 1767 1
  2142 1798 1782 1
  2143 1799 1782 1
  2144 1800 1783 1
  2145 1801 1785 1
  2146 1802 1787 1
  2147 1803 1789 1
  2148 1804 1796 1
  2149 1805 1797 1
  2150 1829 1813 1
  2151 1830 1813 1
  2152 1831 1814 1
  2153 1832 1816 1
  2154 1833 1818 1
  2155 1834 1820 1
  2156 1835 1824 1
  2157 1836 1827 1
  2158 1837 1828 1
  2159 1859 1843 1
  2160 1860 1843 1
  2161 1861 1844 1
  2162 1862 1846 1
  2163 1863 1848 1
  2164 1864 1850 1
  2165 1865 1854 1
  2166 1866 1857 1
  2167 1867 1858 1
  2168 1892 1873 1
  2169 1893 1873 1
  2170 1894 1874 1
  2171 1895 1876 1
  2172 1896 1878 1
  2173 1897 1880 1
  2174 1898 1882 1
  2175 1899 1887 1
  2176 1925 1907 1
  2177 1926 1907 1
  2178 1927 1908 1
  2179 1928 1910 1
  2180 1929 1912 1
  2181 1930 1914 1
  2182 1931 1916 1
  2183 1932 1922 1
  2184 1956 1940 1
  2185 1957 1940 1
  2186 1958 1941 1
  2187 1959 1943 1
  2188 1960 1945 1
  2189 1961 1947 1
  2190 1962 1951 1
  2191 1963 1954 1
  2192 1964 1955 1
  2193 1986 1970 1
  2194 1987 1970 1
  2195 1988 1971 1
  2196 1989 1973 1
  2197 1990 1975 1
  2198 1991 1977 1
  2199 1992 1981 1
  2200 1993 1984 1
  2201 1994 1985 1
  2202 2018 2000 1
  2203 2019 2000 1
  2204 2020 2001 1
  2205 2021 2003 1
  2206 2022 2005 1
  2207 2023 2007 1
  2208 2024 2009 1
  2209 2025 2015 1
  2210 2049 2033 1
  2211 2050 2033 1
  2212 2051 2034 1
  2213 2052 2036 1
  2214 2053 2038 1
  2215 2054 2040 1
  2216 2055 2044 1
  2217 2056 2047 1
  2218 2057 2048 1
  2219 2082 2063 1
  2220 2083 2063 1
  2221 2084 2064 1
  2222 2085 2066 1
  2223 2086 2068 1
  2224 2087 2070 1
  2225 2088 2072 1
  2226 2089 2077 1
  2227 2115 2097 1
  2228 2116 2097 1
  2229 2117 2098 1
  2230 2118 2100 1
  2231 2119 2102 1
  2232 2120 2104 1
  2233 2121 2106 1
  2234 2122 2112 1
  2235 2148 2130 1
  2236 2149 2130 1
  2237 2150 2131 1
  2238 2151 2133 1
  2239 2152 2135 1
  2240 2153 2137 1
  2241 2154 2139 1
  2242 2155 2145 1
  2243 2182 2163 1
  2244 2183 2163 1
  2245 2184 2164 1
  2246 2185 2166 1
  2247 2186 2168 1
  2248 2187 2170 1
  2249 2188 2172 1
  2250 2189 2177 1
  2251 2213 2197 1
  2252 2214 2197 1
  2253 2215 2198 1
  2254 2216 2200 1
  2255 2217 2202 1
  2256 2218 2204 1
  2257 2219 2208 1
  2258 2220 2211 1
  2259 2221 2212 1
  2260 2246 2227 1
  2261 2247 2227 1
  2262 2248 2228 1
  2263 2249 2230 1
  2264 2250 2232 1
  2265 2251 2234 1
  2266 2252 2236 1
  2267 2253 2241 1
  2268   26   15 1
  2269   27   15 1
  2270   61   50 1
  2271   62   50 1
  2272   92   81 1
  2273   93   81 1
  2274  183  172 1
  2275  184  172 1
  2276  436  425 1
  2277  437  425 1
  2278  467  456 1
  2279  468  456 1
  2280  627  616 1
  2281  628  616 1
  2282  787  776 1
  2283  788  776 1
  2284  821  810 1
  2285  822  810 1
  2286  945  934 1
  2287  946  934 1
  2288  979  968 1
  2289  980  968 1
  2290 1013 1002 1
  2291 1014 1002 1
  2292 1080 1069 1
  2293 1081 1069 1
  2294 1201 1190 1
  2295 1202 1190 1
  2296 1295 1284 1
  2297 1296 1284 1
  2298 1326 1315 1
  2299 1327 1315 1
  2300 1426 1415 1
  2301 1427 1415 1
  2302 1493 1482 1
  2303 1494 1482 1
  2304 1524 1513 1
  2305 1525 1513 1
  2306 1555 1544 1
  2307 1556 1544 1
  2308 1745 1734 1
  2309 1746 1734 1
  2310 1806 1795 1
  2311 1807 1795 1
  2312 1900 1889 1
  2313 1901 1889 1
  2314 2090 2079 1
  2315 2091 2079 1
  2316 2190 2179 1
  2317 2191 2179 1
  2318 2254 2243 1
  2319 2255 2243 1
  2320  789  766 1
  2321 1995 1976 1
  2322 1172 1153 1
  2323 2026 2006 1
  2324 1112 1093 1
  2325  124  105 1
  2326 1681 1661 1
  2327 1648 1628 1
  2328 1557 1537 1
  2329  692  673 1
  2330 1526 1506 1
  2331  660  640 1
  2332 1082 1059 1
  2333 1359 1339 1
  2334 1495 1472 1
  2335  883  864 1
  2336 2123 2103 1
  2337 1617 1598 1
  2338 1868 1849 1
  2339 1808 1788 1
  2340 2192 2169 1
  2341  629  606 1
  2342 1428 1405 1
  2343  499  480 1
  2344 2092 2069 1
  2345 2156 2136 1
  2346  913  894 1
  2347   63   40 1
  2348  279  259 1
  2349  981  958 1
  2350  438  418 1
  2351   94   74 1
  2352 1838 1819 1
  2353  530  510 1
  2354 1297 1277 1
  2355 1046 1033 1
  2356 1047 1033 1
  2357 2157 2143 1
  2358 2158 2143 1
  2359 1714 1701 1
  2360 1715 1701 1
  2361 1392 1379 1
  2362 1393 1379 1
  2363  216  203 1
  2364  217  203 1
  2365  661  647 1
  2366  662  647 1
  2367 2027 2013 1
  2368 2028 2013 1
  2369  563  550 1
  2370  564  550 1
  2371 1360 1346 1
  2372 1361 1346 1
  2373 1682 1668 1
  2374 1683 1668 1
  2375  280  266 1
  2376  281  266 1
  2377  375  362 1
  2378  376  362 1
  2379 1933 1920 1
  2380 1934 1920 1
  2381 1649 1635 1
  2382 1650 1635 1
  2383  531  517 1
  2384  532  517 1
  2385 1459 1446 1
  2386 1460 1446 1
  2387 1264 1251 1
  2388 1265 1251 1
  2389  723  710 1
  2390  724  710 1
  2391  342  329 1
  2392  343  329 1
  2393 2124 2110 1
  2394 2125 2110 1
  2395  377  355 1
  2396 1394 1372 1
  2397 1048 1026 1
  2398   28    1 1
  2399   29    8 1
  2400 1902 1879 1
  2401 1461 1439 1
  2402 2222 2203 1
  2403 1233 1214 1
  2404 2256 2231 1
  2405 2257 2233 1
  2406 1142 1123 1
  2407 2058 2039 1
  2408 1203 1183 1
  2409  947  924 1
  2410  185  165 1
  2411  344  322 1
  2412 1716 1694 1
  2413  755  736 1
  2414  823  800 1
  2415  218  196 1
  2416 1587 1568 1
  2417 1747 1727 1
  2418 1266 1244 1
  2419  853  834 1
  2420  248  229 1
  2421 1015  992 1
  2422  407  388 1
  2423  565  543 1
  2424 1777 1758 1
  2425 1935 1913 1
  2426  725  703 1
  2427  595  576 1
  2428 1965 1946 1
  2429  154  135 1
  2430  469  449 1
  2431  311  292 1
  2432 1328 1308 1
@<TRIPOS>SUBSTRUCTURE
     1   C13       3 RESIDUE           4 X       C     1 ROOT
     2   G14      35 RESIDUE           4 X       G     2
     3   C15      69 RESIDUE           4 X       C     2
     4   U16     100 RESIDUE           4 X       U     2
     5   U17     130 RESIDUE           4 X       U     2
     6   C18     160 RESIDUE           4 X       C     2
     7   A19     191 RESIDUE           4 X       A     2
     8   U20     224 RESIDUE           4 X       U     2
     9   A21     254 RESIDUE           4 X       A     2
    10   U22     287 RESIDUE           4 X       U     2
    11   A23     317 RESIDUE           4 X       A     2
    12   A24     350 RESIDUE           4 X       A     2
    13   U25     383 RESIDUE           4 X       U     2
    14   C26     413 RESIDUE           4 X       C     2
    15   C27     444 RESIDUE           4 X       C     2
    16   U28     475 RESIDUE           4 X       U     2
    17   A29     505 RESIDUE           4 X       A     2
    18   A30     538 RESIDUE           4 X       A     2
    19   U31     571 RESIDUE           4 X       U     2
    20   G32     601 RESIDUE           4 X       G     2
    21   A33     635 RESIDUE           4 X       A     2
    22   U34     668 RESIDUE           4 X       U     2
    23   A35     698 RESIDUE           4 X       A     2
    24   U36     731 RESIDUE           4 X       U     2
    25   G37     761 RESIDUE           4 X       G     2
    26   G38     795 RESIDUE           4 X       G     2
    27   U39     829 RESIDUE           4 X       U     2
    28   U40     859 RESIDUE           4 X       U     2
    29   U41     889 RESIDUE           4 X       U     2
    30   G42     919 RESIDUE           4 X       G     2
    31   G43     953 RESIDUE           4 X       G     2
    32   G44     987 RESIDUE           4 X       G     2
    33   A45    1021 RESIDUE           4 X       A     2
    34   G46    1054 RESIDUE           4 X       G     2
    35   U47    1088 RESIDUE           4 X       U     2
    36   U48    1118 RESIDUE           4 X       U     2
    37   U49    1148 RESIDUE           4 X       U     2
    38   C50    1178 RESIDUE           4 X       C     2
    39   U51    1209 RESIDUE           4 X       U     2
    40   A52    1239 RESIDUE           4 X       A     2
    41   C53    1272 RESIDUE           4 X       C     2
    42   C54    1303 RESIDUE           4 X       C     2
    43   A55    1334 RESIDUE           4 X       A     2
    44   A56    1367 RESIDUE           4 X       A     2
    45   G57    1400 RESIDUE           4 X       G     2
    46   A58    1434 RESIDUE           4 X       A     2
    47   G59    1467 RESIDUE           4 X       G     2
    48   C60    1501 RESIDUE           4 X       C     2
    49   C61    1532 RESIDUE           4 X       C     2
    50   U62    1563 RESIDUE           4 X       U     2
    51   U63    1593 RESIDUE           4 X       U     2
    52   A64    1623 RESIDUE           4 X       A     2
    53   A65    1656 RESIDUE           4 X       A     2
    54   A66    1689 RESIDUE           4 X       A     2
    55   C67    1722 RESIDUE           4 X       C     2
    56   U68    1753 RESIDUE           4 X       U     2
    57   C69    1783 RESIDUE           4 X       C     2
    58   U70    1814 RESIDUE           4 X       U     2
    59   U71    1844 RESIDUE           4 X       U     2
    60   G72    1874 RESIDUE           4 X       G     2
    61   A73    1908 RESIDUE           4 X       A     2
    62   U74    1941 RESIDUE           4 X       U     2
    63   U75    1971 RESIDUE           4 X       U     2
    64   A76    2001 RESIDUE           4 X       A     2
    65   U77    2034 RESIDUE           4 X       U     2
    66   G78    2064 RESIDUE           4 X       G     2
    67   A79    2098 RESIDUE           4 X       A     2
    68   A80    2131 RESIDUE           4 X       A     2
    69   G81    2164 RESIDUE           4 X       G     2
    70   U82    2198 RESIDUE           4 X       U     2
    71   G83    2228 RESIDUE           4 X       G     1
