@<TRIPOS>MOLECULE
2GDI.pdb
5014 5408 156 0 0
NUCLEIC_ACID
AMBER ff14SB


@<TRIPOS>ATOM
      1 O5'       -16.7830   -5.6420  -25.0050 O.3       1   G11      -0.6223
      2 C5'       -15.7440   -5.9860  -25.9110 C.3       1   G11       0.0558
      3 C4'       -15.7220   -5.0120  -27.0740 C.3       1   G11       0.1065
      4 O4'       -16.9470   -5.1330  -27.8380 O.3       1   G11      -0.3548
      5 C3'       -15.6850   -3.5420  -26.6930 C.3       1   G11       0.2022
      6 O3'       -14.3610   -3.1390  -26.3750 O.3       1   G11      -0.5246
      7 C2'       -16.1590   -2.9130  -27.9960 C.3       1   G11       0.0670
      8 O2'       -15.1510   -2.9170  -28.9870 O.3       1   G11      -0.6139
      9 C1'       -17.2800   -3.8700  -28.3880 C.3       1   G11       0.0191
     10 N9        -18.5930   -3.4580  -27.8920 N.ar      1   G11       0.0492
     11 C8        -19.2970   -4.0040  -26.8450 C.ar      1   G11       0.1374
     12 N7        -20.4470   -3.4260  -26.6360 N.ar      1   G11      -0.5709
     13 C5        -20.5120   -2.4300  -27.6030 C.ar      1   G11       0.1744
     14 C6        -21.5280   -1.4800  -27.8730 C.2       1   G11       0.4770
     15 O6        -22.6060   -1.3200  -27.2850 O.2       1   G11      -0.5597
     16 N1        -21.1940   -0.6550  -28.9460 N.am      1   G11      -0.4787
     17 C2        -20.0270   -0.7400  -29.6670 C.2       1   G11       0.7657
     18 N2        -19.8800    0.1410  -30.6670 N.pl3     1   G11      -0.9672
     19 N3        -19.0700   -1.6280  -29.4270 N.2       1   G11      -0.6323
     20 C4        -19.3780   -2.4380  -28.3840 C.ar      1   G11       0.1222
     21 H5'       -14.7863   -5.9489  -25.3918 H         1   G11       0.0679
     22 H5''      -15.9122   -6.9949  -26.2876 H         1   G11       0.0679
     23 H4'       -14.8721   -5.2388  -27.7177 H         1   G11       0.1174
     24 H3'       -16.3726   -3.3266  -25.8752 H         1   G11       0.0615
     25 H2'       -16.5422   -1.9063  -27.8296 H         1   G11       0.0972
     26 H1'       -17.3173   -3.9515  -29.4743 H         1   G11       0.2006
     27 H8        -18.9331   -4.8310  -26.2533 H         1   G11       0.1640
     28 H1        -21.8583    0.0574  -29.2131 H         1   G11       0.3424
     29 H21       -19.0437    0.1274  -31.2331 H         1   G11       0.4364
     30 H22       -20.6056    0.8182  -30.8541 H         1   G11       0.4364
     31 HO2'      -15.5258   -2.6377  -29.8255 H         1   G11       0.4186
     32 HO5'      -17.0270   -6.2429  -24.2972 H         1   G11       0.4295
     33 P         -14.1080   -2.0160  -25.2640 P.3       2   A12       1.1662
     34 OP1       -12.6550   -1.9760  -24.9870 O.co2     2   A12      -0.7760
     35 OP2       -15.0670   -2.2460  -24.1610 O.co2     2   A12      -0.7760
     36 O5'       -14.5410   -0.6620  -25.9930 O.3       2   A12      -0.4989
     37 C5'       -13.8760   -0.2200  -27.1690 C.3       2   A12       0.0558
     38 C4'       -14.6860    0.8870  -27.8140 C.3       2   A12       0.1065
     39 O4'       -15.9800    0.3670  -28.2070 O.3       2   A12      -0.3548
     40 C3'       -15.0320    2.0360  -26.8810 C.3       2   A12       0.2022
     41 O3'       -13.9520    2.9530  -26.7870 O.3       2   A12      -0.5246
     42 C2'       -16.2470    2.6330  -27.5820 C.3       2   A12       0.0670
     43 O2'       -15.8970    3.4210  -28.7030 O.3       2   A12      -0.6139
     44 C1'       -16.9700    1.3660  -28.0320 C.3       2   A12       0.0394
     45 N9        -17.9590    0.8810  -27.0720 N.ar      2   A12      -0.0251
     46 C8        -17.8230   -0.1590  -26.1960 C.ar      2   A12       0.2006
     47 N7        -18.8840   -0.3710  -25.4540 N.ar      2   A12      -0.6073
     48 C5        -19.7810    0.5970  -25.8730 C.ar      2   A12       0.0515
     49 C6        -21.0970    0.9060  -25.4760 C.ar      2   A12       0.7009
     50 N6        -21.7560    0.2350  -24.5230 N.pl3     2   A12      -0.9019
     51 N1        -21.7090    1.9370  -26.0970 N.ar      2   A12      -0.7615
     52 C2        -21.0470    2.6040  -27.0510 C.ar      2   A12       0.5875
     53 N3        -19.8110    2.4040  -27.5090 N.ar      2   A12      -0.6997
     54 C4        -19.2270    1.3780  -26.8710 C.ar      2   A12       0.3053
     55 H5'       -12.8869    0.1566  -26.9085 H         2   A12       0.0679
     56 H5''      -13.7769   -1.0522  -27.8659 H         2   A12       0.0679
     57 H4'       -14.1597    1.2677  -28.6893 H         2   A12       0.1174
     58 H3'       -15.3040    1.6608  -25.8944 H         2   A12       0.0615
     59 H2'       -16.8589    3.2022  -26.8823 H         2   A12       0.0972
     60 H1'       -17.4608    1.5543  -28.9869 H         2   A12       0.2007
     61 H8        -16.9238   -0.7525  -26.1213 H         2   A12       0.1553
     62 H2        -21.5891    3.4158  -27.5131 H         2   A12       0.0473
     63 H61       -22.7584    0.2973  -24.6299 H         2   A12       0.4115
     64 H62       -21.3014   -0.2764  -23.7801 H         2   A12       0.4115
     65 HO2'      -15.4435    4.2141  -28.4082 H         2   A12       0.4186
     66 P         -13.6180    3.6210  -25.3710 P.3       3   C13       1.1662
     67 OP1       -12.2870    4.2600  -25.4750 O.co2     3   C13      -0.7760
     68 OP2       -13.8790    2.6150  -24.3170 O.co2     3   C13      -0.7760
     69 O5'       -14.7350    4.7590  -25.2390 O.3       3   C13      -0.4989
     70 C5'       -14.8380    5.7750  -26.2270 C.3       3   C13       0.0558
     71 C4'       -16.0780    6.6190  -25.9990 C.3       3   C13       0.1065
     72 O4'       -17.2610    5.8410  -26.3030 O.3       3   C13      -0.3548
     73 C3'       -16.3050    7.0600  -24.5630 C.3       3   C13       0.2022
     74 O3'       -15.4900    8.1790  -24.2480 O.3       3   C13      -0.5246
     75 C2'       -17.7910    7.4020  -24.6040 C.3       3   C13       0.0670
     76 O2'       -18.0610    8.6570  -25.2040 O.3       3   C13      -0.6139
     77 C1'       -18.3280    6.2640  -25.4710 C.3       3   C13       0.0066
     78 N1        -18.8100    5.0940  -24.6720 N.am      3   C13      -0.0484
     79 C2        -20.1080    5.0960  -24.1490 C.2       3   C13       0.7538
     80 O2        -20.8430    6.0680  -24.3630 O.2       3   C13      -0.6252
     81 N3        -20.5260    4.0280  -23.4220 N.2       3   C13      -0.7584
     82 C4        -19.7070    2.9970  -23.2140 C.2       3   C13       0.8185
     83 N4        -20.1640    1.9680  -22.4910 N.pl3     3   C13      -0.9530
     84 C5        -18.3800    2.9760  -23.7340 C.2       3   C13      -0.5215
     85 C6        -17.9800    4.0320  -24.4500 C.2       3   C13       0.0053
     86 H5'       -13.9561    6.4137  -26.1769 H         3   C13       0.0679
     87 H5''      -14.8929    5.3138  -27.2131 H         3   C13       0.0679
     88 H4'       -16.0442    7.4953  -26.6463 H         3   C13       0.1174
     89 H3'       -16.1166    6.2382  -23.8721 H         3   C13       0.0615
     90 H2'       -18.2214    7.3562  -23.6036 H         3   C13       0.0972
     91 H1'       -19.1428    6.6371  -26.0914 H         3   C13       0.2029
     92 H5        -17.7221    2.1382  -23.5563 H         3   C13       0.1928
     93 H6        -16.9813    4.0456  -24.8608 H         3   C13       0.1958
     94 H41       -21.1043    1.9876  -22.1229 H         3   C13       0.4234
     95 H42       -19.5686    1.1717  -22.3133 H         3   C13       0.4234
     96 HO2'      -18.6151    9.1792  -24.6193 H         3   C13       0.4186
     97 P         -14.8870    8.3320  -22.7720 P.3       4   U14       1.1662
     98 OP1       -14.0240    9.5350  -22.7640 O.co2     4   U14      -0.7760
     99 OP2       -14.3400    7.0210  -22.3620 O.co2     4   U14      -0.7760
    100 O5'       -16.1840    8.6260  -21.8810 O.3       4   U14      -0.4989
    101 C5'       -16.6720    9.9600  -21.7710 C.3       4   U14       0.0558
    102 C4'       -18.1330    9.9920  -21.3610 C.3       4   U14       0.1065
    103 O4'       -18.8710    8.9430  -22.0370 O.3       4   U14      -0.3548
    104 C3'       -18.3940    9.7280  -19.8880 C.3       4   U14       0.2022
    105 O3'       -18.1920   10.9050  -19.1250 O.3       4   U14      -0.5246
    106 C2'       -19.8630    9.3310  -19.9330 C.3       4   U14       0.0670
    107 O2'       -20.7170   10.4420  -20.1030 O.3       4   U14      -0.6139
    108 C1'       -19.8820    8.4490  -21.1780 C.3       4   U14       0.0674
    109 N1        -19.6160    7.0100  -20.8640 N.am      4   U14       0.0418
    110 C2        -20.6280    6.2470  -20.3180 C.2       4   U14       0.4687
    111 O2        -21.7400    6.6840  -20.0840 O.2       4   U14      -0.5477
    112 N3        -20.2910    4.9420  -20.0560 N.am      4   U14      -0.3549
    113 C4        -19.0670    4.3360  -20.2760 C.2       4   U14       0.5952
    114 O4        -18.9160    3.1510  -19.9930 O.2       4   U14      -0.5761
    115 C5        -18.0600    5.1940  -20.8440 C.2       4   U14      -0.3635
    116 C6        -18.3680    6.4700  -21.1070 C.2       4   U14      -0.1126
    117 H5'       -16.0836   10.4905  -21.0224 H         4   U14       0.0679
    118 H5''      -16.5605   10.4609  -22.7327 H         4   U14       0.0679
    119 H4'       -18.5584   10.9585  -21.6311 H         4   U14       0.1174
    120 H3'       -17.7761    8.9092  -19.5194 H         4   U14       0.0615
    121 H2'       -20.1392    8.7596  -19.0468 H         4   U14       0.0972
    122 H1'       -20.8504    8.5388  -21.6701 H         4   U14       0.1824
    123 H3        -21.0158    4.3611  -19.6594 H         4   U14       0.3154
    124 H5        -17.0712    4.8140  -21.0547 H         4   U14       0.1811
    125 H6        -17.6049    7.1071  -21.5290 H         4   U14       0.2188
    126 HO2'      -20.6949   10.9870  -19.3130 H         4   U14       0.4186
    127 P         -17.3430   10.8360  -17.7710 P.3       5   C15       1.1662
    128 OP1       -17.2660   12.2140  -17.2350 O.co2     5   C15      -0.7760
    129 OP2       -16.1030   10.0750  -18.0440 O.co2     5   C15      -0.7760
    130 O5'       -18.2430    9.9350  -16.8070 O.3       5   C15      -0.4989
    131 C5'       -19.2850   10.5130  -16.0370 C.3       5   C15       0.0558
    132 C4'       -20.4270    9.5280  -15.8590 C.3       5   C15       0.1065
    133 O4'       -20.3630    8.4650  -16.8450 O.3       5   C15      -0.3548
    134 C3'       -20.4280    8.7190  -14.5760 C.3       5   C15       0.2022
    135 O3'       -20.7380    9.5050  -13.4340 O.3       5   C15      -0.5246
    136 C2'       -21.5340    7.7310  -14.9290 C.3       5   C15       0.0670
    137 O2'       -22.8200    8.3190  -14.8970 O.3       5   C15      -0.6139
    138 C1'       -21.1570    7.3880  -16.3690 C.3       5   C15       0.0066
    139 N1        -20.4110    6.0970  -16.4720 N.am      5   C15      -0.0484
    140 C2        -21.1140    4.8970  -16.3130 C.2       5   C15       0.7538
    141 O2        -22.3330    4.9340  -16.1020 O.2       5   C15      -0.6252
    142 N3        -20.4420    3.7240  -16.3970 N.2       5   C15      -0.7584
    143 C4        -19.1280    3.7210  -16.6240 C.2       5   C15       0.8185
    144 N4        -18.5120    2.5360  -16.6960 N.pl3     5   C15      -0.9530
    145 C5        -18.3910    4.9340  -16.7880 C.2       5   C15      -0.5215
    146 C6        -19.0650    6.0870  -16.7010 C.2       5   C15       0.0053
    147 H5'       -18.8951   10.7902  -15.0576 H         5   C15       0.0679
    148 H5''      -19.6544   11.4049  -16.5431 H         5   C15       0.0679
    149 H4'       -21.3767   10.0541  -15.9555 H         5   C15       0.1174
    150 H3'       -19.4769    8.2033  -14.4436 H         5   C15       0.0615
    151 H2'       -21.4901    6.8483  -14.2910 H         5   C15       0.0972
    152 H1'       -22.0649    7.3231  -16.9687 H         5   C15       0.2029
    153 H5        -17.3275    4.9209  -16.9756 H         5   C15       0.1928
    154 H6        -18.5369    7.0224  -16.8135 H         5   C15       0.1958
    155 H41       -19.0413    1.6838  -16.5793 H         5   C15       0.4234
    156 H42       -17.5175    2.4934  -16.8671 H         5   C15       0.4234
    157 HO2'      -23.4370    7.7173  -14.4741 H         5   C15       0.4186
    158 P         -20.1860    9.0340  -12.0050 P.3       6   G16       1.1662
    159 OP1       -20.4900   10.1010  -11.0260 O.co2     6   G16      -0.7760
    160 OP2       -18.7970    8.5530  -12.1810 O.co2     6   G16      -0.7760
    161 O5'       -21.0740    7.7460  -11.6710 O.3       6   G16      -0.4989
    162 C5'       -22.4500    7.8960  -11.3720 C.3       6   G16       0.0558
    163 C4'       -23.1430    6.5490  -11.4120 C.3       6   G16       0.1065
    164 O4'       -22.7660    5.8260  -12.6110 O.3       6   G16      -0.3548
    165 C3'       -22.7610    5.5860  -10.3010 C.3       6   G16       0.2022
    166 O3'       -23.4190    5.9380   -9.0970 O.3       6   G16      -0.5246
    167 C2'       -23.3030    4.2980  -10.8990 C.3       6   G16       0.0670
    168 O2'       -24.7160    4.2510  -10.8710 O.3       6   G16      -0.6139
    169 C1'       -22.8210    4.4380  -12.3400 C.3       6   G16       0.0191
    170 N9        -21.5020    3.8560  -12.5660 N.ar      6   G16       0.0492
    171 C8        -20.3530    4.5170  -12.9380 C.ar      6   G16       0.1374
    172 N7        -19.3230    3.7280  -13.0650 N.ar      6   G16      -0.5709
    173 C5        -19.8180    2.4620  -12.7580 C.ar      6   G16       0.1744
    174 C6        -19.1710    1.2020  -12.7210 C.2       6   G16       0.4770
    175 O6        -17.9860    0.9420  -12.9640 O.2       6   G16      -0.5597
    176 N1        -20.0410    0.1730  -12.3550 N.am      6   G16      -0.4787
    177 C2        -21.3740    0.3440  -12.0680 C.2       6   G16       0.7657
    178 N2        -22.0630   -0.7600  -11.7380 N.pl3     6   G16      -0.9672
    179 N3        -21.9910    1.5180  -12.0960 N.2       6   G16      -0.6323
    180 C4        -21.1580    2.5270  -12.4480 C.ar      6   G16       0.1222
    181 H5'       -22.9080    8.5585  -12.1064 H         6   G16       0.0679
    182 H5''      -22.5586    8.3288  -10.3775 H         6   G16       0.0679
    183 H4'       -24.2227    6.6982  -11.4050 H         6   G16       0.1174
    184 H3'       -21.6803    5.5400  -10.1666 H         6   G16       0.0615
    185 H2'       -22.8670    3.4225  -10.4178 H         6   G16       0.0972
    186 H1'       -23.5421    3.9681  -13.0089 H         6   G16       0.2006
    187 H8        -20.3093    5.5827  -13.1077 H         6   G16       0.1640
    188 H1        -19.6643   -0.7623  -12.2972 H         6   G16       0.3424
    189 H21       -21.5985   -1.6565  -11.7128 H         6   G16       0.4364
    190 H22       -23.0459   -0.6941  -11.5150 H         6   G16       0.4364
    191 HO2'      -25.0069    3.3366  -10.9015 H         6   G16       0.4186
    192 P         -22.7570    5.5750   -7.6880 P.3       7   G17       1.1662
    193 OP1       -23.4800    6.3370   -6.6440 O.co2     7   G17      -0.7760
    194 OP2       -21.2910    5.7090   -7.8230 O.co2     7   G17      -0.7760
    195 O5'       -23.0720    4.0170   -7.5230 O.3       7   G17      -0.4989
    196 C5'       -24.4080    3.5380   -7.4620 C.3       7   G17       0.0558
    197 C4'       -24.3970    2.0230   -7.3810 C.3       7   G17       0.1065
    198 O4'       -23.7630    1.4860   -8.5690 O.3       7   G17      -0.3548
    199 C3'       -23.5640    1.4470   -6.2480 C.3       7   G17       0.2022
    200 O3'       -24.2870    1.4470   -5.0210 O.3       7   G17      -0.5246
    201 C2'       -23.2950    0.0380   -6.7660 C.3       7   G17       0.0670
    202 O2'       -24.4310   -0.8040   -6.6670 O.3       7   G17      -0.6139
    203 C1'       -23.0110    0.3330   -8.2350 C.3       7   G17       0.0191
    204 N9        -21.6010    0.5510   -8.5700 N.ar      7   G17       0.0492
    205 C8        -20.9940    1.7420   -8.9060 C.ar      7   G17       0.1374
    206 N7        -19.7220    1.6190   -9.1750 N.ar      7   G17      -0.5709
    207 C5        -19.4660    0.2620   -9.0110 C.ar      7   G17       0.1744
    208 C6        -18.2640   -0.4740   -9.1650 C.2       7   G17       0.4770
    209 O6        -17.1410   -0.0620   -9.4850 O.2       7   G17      -0.5597
    210 N1        -18.4420   -1.8270   -8.9030 N.am      7   G17      -0.4787
    211 C2        -19.6330   -2.4010   -8.5310 C.2       7   G17       0.7657
    212 N2        -19.6140   -3.7240   -8.3170 N.pl3     7   G17      -0.9672
    213 N3        -20.7670   -1.7290   -8.3860 N.2       7   G17      -0.6323
    214 C4        -20.6130   -0.4070   -8.6410 C.ar      7   G17       0.1222
    215 H5'       -24.9004    3.9457   -6.5791 H         7   G17       0.0679
    216 H5''      -24.9475    3.8504   -8.3561 H         7   G17       0.0679
    217 H4'       -25.4194    1.6516   -7.3106 H         7   G17       0.1174
    218 H3'       -22.6304    1.9994   -6.1412 H         7   G17       0.0615
    219 H2'       -22.4285   -0.4059   -6.2760 H         7   G17       0.0972
    220 H1'       -23.3802   -0.5020   -8.8304 H         7   G17       0.2006
    221 H8        -21.5191    2.6850   -8.9432 H         7   G17       0.1640
    222 H1        -17.6379   -2.4316   -8.9925 H         7   G17       0.3424
    223 H21       -18.7538   -4.2413   -8.4288 H         7   G17       0.4364
    224 H22       -20.4599   -4.2036   -8.0440 H         7   G17       0.4364
    225 HO2'      -24.1488   -1.7022   -6.4797 H         7   G17       0.4186
    226 P         -23.4710    1.5570   -3.6510 P.3       8   G18       1.1662
    227 OP1       -24.4440    1.5370   -2.5350 O.co2     8   G18      -0.7760
    228 OP2       -22.5130    2.6790   -3.7740 O.co2     8   G18      -0.7760
    229 O5'       -22.6190    0.2070   -3.6140 O.3       8   G18      -0.4989
    230 C5'       -23.2930   -1.0440   -3.5140 C.3       8   G18       0.0558
    231 C4'       -22.3060   -2.1930   -3.5250 C.3       8   G18       0.1065
    232 O4'       -21.5590   -2.2210   -4.7660 O.3       8   G18      -0.3548
    233 C3'       -21.2270   -2.1290   -2.4620 C.3       8   G18       0.2022
    234 O3'       -21.7630   -2.5920   -1.2390 O.3       8   G18      -0.5246
    235 C2'       -20.2110   -3.1130   -3.0320 C.3       8   G18       0.0670
    236 O2'       -20.5740   -4.4520   -2.7940 O.3       8   G18      -0.6139
    237 C1'       -20.3070   -2.8390   -4.5270 C.3       8   G18       0.0191
    238 N9        -19.2500   -1.9590   -5.0110 N.ar      8   G18       0.0492
    239 C8        -19.3200   -0.5970   -5.1630 C.ar      8   G18       0.1374
    240 N7        -18.2180   -0.0720   -5.6160 N.ar      8   G18      -0.5709
    241 C5        -17.3680   -1.1600   -5.7820 C.ar      8   G18       0.1744
    242 C6        -16.0350   -1.2020   -6.2440 C.2       8   G18       0.4770
    243 O6        -15.3380   -0.2480   -6.6170 O.2       8   G18      -0.5597
    244 N1        -15.5290   -2.5030   -6.2570 N.am      8   G18      -0.4787
    245 C2        -16.2310   -3.6210   -5.8660 C.2       8   G18       0.7657
    246 N2        -15.5800   -4.7930   -5.9400 N.pl3     8   G18      -0.9672
    247 N3        -17.4810   -3.5900   -5.4190 N.2       8   G18      -0.6323
    248 C4        -17.9840   -2.3300   -5.4060 C.ar      8   G18       0.1222
    249 H5'       -23.8603   -1.0701   -2.5836 H         8   G18       0.0679
    250 H5''      -23.9779   -1.1510   -4.3552 H         8   G18       0.0679
    251 H4'       -22.8523   -3.1303   -3.4192 H         8   G18       0.1174
    252 H3'       -20.8105   -1.1261   -2.3677 H         8   G18       0.0615
    253 H2'       -19.2088   -2.9047   -2.6575 H         8   G18       0.0972
    254 H1'       -20.2637   -3.7839   -5.0687 H         8   G18       0.2006
    255 H8        -20.2015   -0.0181   -4.9300 H         8   G18       0.1640
    256 H1        -14.5797   -2.6335   -6.5762 H         8   G18       0.3424
    257 H21       -14.6274   -4.8213   -6.2743 H         8   G18       0.4364
    258 H22       -16.0430   -5.6463   -5.6613 H         8   G18       0.4364
    259 HO2'      -20.0438   -4.8049   -2.0757 H         8   G18       0.4186
    260 P         -21.1520   -2.1090    0.1550 P.3       9   G19       1.1662
    261 OP1       -22.2400   -2.1670    1.1490 O.co2     9   G19      -0.7760
    262 OP2       -20.4020   -0.8520   -0.0610 O.co2     9   G19      -0.7760
    263 O5'       -20.0780   -3.2470    0.4800 O.3       9   G19      -0.4989
    264 C5'       -20.4840   -4.5930    0.6990 C.3       9   G19       0.0558
    265 C4'       -19.2670   -5.4990    0.6980 C.3       9   G19       0.1065
    266 O4'       -18.6480   -5.4610   -0.6100 O.3       9   G19      -0.3548
    267 C3'       -18.1590   -5.0950    1.6580 C.3       9   G19       0.2022
    268 O3'       -18.4090   -5.6480    2.9440 O.3       9   G19      -0.5246
    269 C2'       -16.9360   -5.7160    0.9920 C.3       9   G19       0.0670
    270 O2'       -16.8560   -7.1090    1.2310 O.3       9   G19      -0.6139
    271 C1'       -17.2380   -5.4780   -0.4840 C.3       9   G19       0.0191
    272 N9        -16.7370   -4.2290   -1.0590 N.ar      9   G19       0.0492
    273 C8        -17.2830   -2.9760   -0.9130 C.ar      9   G19       0.1374
    274 N7        -16.6420   -2.0500   -1.5700 N.ar      9   G19      -0.5709
    275 C5        -15.6100   -2.7370   -2.1980 C.ar      9   G19       0.1744
    276 C6        -14.5840   -2.2610   -3.0480 C.2       9   G19       0.4770
    277 O6        -14.3810   -1.1010   -3.4280 O.2       9   G19      -0.5597
    278 N1        -13.7450   -3.2890   -3.4740 N.am      9   G19      -0.4787
    279 C2        -13.8690   -4.6110   -3.1180 C.2       9   G19       0.7657
    280 N2        -12.9600   -5.4600   -3.6380 N.pl3     9   G19      -0.9672
    281 N3        -14.8250   -5.0680   -2.3190 N.2       9   G19      -0.6323
    282 C4        -15.6590   -4.0800   -1.9010 C.ar      9   G19       0.1222
    283 H5'       -21.1651   -4.8999   -0.0948 H         9   G19       0.0679
    284 H5''      -20.9910   -4.6672    1.6611 H         9   G19       0.0679
    285 H4'       -19.5789   -6.5199    0.9184 H         9   G19       0.1174
    286 H3'       -18.0654   -4.0103    1.7113 H         9   G19       0.0615
    287 H2'       -16.0199   -5.2091    1.2953 H         9   G19       0.0972
    288 H1'       -16.8439   -6.3137   -1.0622 H         9   G19       0.2006
    289 H8        -18.1583   -2.7777   -0.3122 H         9   G19       0.1640
    290 H1        -12.9859   -3.0433   -4.0932 H         9   G19       0.3424
    291 H21       -12.2356   -5.1117   -4.2496 H         9   G19       0.4364
    292 H22       -13.0034   -6.4443   -3.4159 H         9   G19       0.4364
    293 HO2'      -15.9742   -7.3312    1.5386 H         9   G19       0.4186
    294 P         -18.0450   -4.8340    4.2750 P.3      10   U20       1.1662
    295 OP1       -18.5610   -5.6130    5.4230 O.co2    10   U20      -0.7760
    296 OP2       -18.4200   -3.4140    4.1010 O.co2    10   U20      -0.7760
    297 O5'       -16.4540   -4.8970    4.2860 O.3      10   U20      -0.4989
    298 C5'       -15.7880   -6.1240    4.5340 C.3      10   U20       0.0558
    299 C4'       -14.3230   -5.9380    4.2070 C.3      10   U20       0.1065
    300 O4'       -14.2080   -5.6590    2.7920 O.3      10   U20      -0.3548
    301 C3'       -13.6840   -4.7200    4.8540 C.3      10   U20       0.2022
    302 O3'       -13.2910   -5.0040    6.1850 O.3      10   U20      -0.5246
    303 C2'       -12.4780   -4.5070    3.9440 C.3      10   U20       0.0670
    304 O2'       -11.3860   -5.3410    4.2810 O.3      10   U20      -0.6139
    305 C1'       -13.0390   -4.8930    2.5750 C.3      10   U20       0.0674
    306 N1        -13.3390   -3.6940    1.7440 N.am     10   U20       0.0418
    307 C2        -12.4400   -3.3600    0.7540 C.2      10   U20       0.4687
    308 O2        -11.4520   -4.0300    0.5120 O.2      10   U20      -0.5477
    309 N3        -12.7520   -2.2280    0.0460 N.am     10   U20      -0.3549
    310 C4        -13.8480   -1.4060    0.2370 C.2      10   U20       0.5952
    311 O4        -13.9970   -0.4210   -0.4780 O.2      10   U20      -0.5761
    312 C5        -14.7350   -1.8120    1.3000 C.2      10   U20      -0.3635
    313 C6        -14.4510   -2.9160    2.0040 C.2      10   U20      -0.1126
    314 H5'       -15.9002   -6.3998    5.5825 H        10   U20       0.0679
    315 H5''      -16.2094   -6.9052    3.9014 H        10   U20       0.0679
    316 H4'       -13.7626   -6.8377    4.4609 H        10   U20       0.1174
    317 H3'       -14.3555   -3.8621    4.8197 H        10   U20       0.0615
    318 H2'       -12.1749   -3.4600    3.9508 H        10   U20       0.0972
    319 H1'       -12.3056   -5.5086    2.0541 H        10   U20       0.1824
    320 H3        -12.1145   -1.9669   -0.6926 H        10   U20       0.3154
    321 H5        -15.6180   -1.2325    1.5257 H        10   U20       0.1811
    322 H6        -15.1153   -3.2085    2.8037 H        10   U20       0.2188
    323 HO2'      -10.6289   -5.1134    3.7364 H        10   U20       0.4186
    324 P         -14.0120   -4.2860    7.4200 P.3      11   G21       1.1662
    325 OP1       -15.0380   -3.3470    6.9100 O.co2    11   G21      -0.7760
    326 OP2       -12.9420   -3.7990    8.3160 O.co2    11   G21      -0.7760
    327 O5'       -14.7580   -5.5140    8.1310 O.3      11   G21      -0.4989
    328 C5'       -13.9900   -6.5250    8.7550 C.3      11   G21       0.0558
    329 C4'       -14.6340   -7.8900    8.6010 C.3      11   G21       0.1065
    330 O4'       -14.4330   -8.3750    7.2480 O.3      11   G21      -0.3548
    331 C3'       -14.0280   -8.9490    9.5100 C.3      11   G21       0.2022
    332 O3'       -14.7530   -9.0190   10.7300 O.3      11   G21      -0.5246
    333 C2'       -14.1680  -10.2250    8.6910 C.3      11   G21       0.0670
    334 O2'       -15.4680  -10.7690    8.7870 O.3      11   G21      -0.6139
    335 C1'       -13.9340   -9.7030    7.2780 C.3      11   G21       0.0191
    336 N9        -12.5410   -9.6840    6.8310 N.ar     11   G21       0.0492
    337 C8        -11.8000   -8.5570    6.5660 C.ar     11   G21       0.1374
    338 N7        -10.5920   -8.8120    6.1600 N.ar     11   G21      -0.5709
    339 C5        -10.5200  -10.1970    6.1460 C.ar     11   G21       0.1744
    340 C6         -9.4420  -11.0410    5.7810 C.2      11   G21       0.4770
    341 O6         -8.3080  -10.7230    5.3910 O.2      11   G21      -0.5597
    342 N1         -9.7800  -12.3850    5.9020 N.am     11   G21      -0.4787
    343 C2        -11.0010  -12.8540    6.3240 C.2      11   G21       0.7657
    344 N2        -11.1200  -14.1870    6.3710 N.pl3    11   G21      -0.9672
    345 N3        -12.0260  -12.0750    6.6620 N.2      11   G21      -0.6323
    346 C4        -11.7140  -10.7550    6.5510 C.ar     11   G21       0.1222
    347 H5'       -12.9995   -6.5479    8.3006 H        11   G21       0.0679
    348 H5''      -13.8909   -6.2946    9.8158 H        11   G21       0.0679
    349 H4'       -15.7025   -7.8102    8.8013 H        11   G21       0.1174
    350 H3'       -12.9773   -8.7317    9.7020 H        11   G21       0.0615
    351 H2'       -13.4118  -10.9584    8.9709 H        11   G21       0.0972
    352 H1'       -14.5146  -10.3089    6.5824 H        11   G21       0.2006
    353 H8        -12.1850   -7.5549    6.6840 H        11   G21       0.1640
    354 H1         -9.0752  -13.0674    5.6617 H        11   G21       0.3424
    355 H21       -10.3401  -14.7732    6.1097 H        11   G21       0.4364
    356 H22       -11.9896  -14.6062    6.6678 H        11   G21       0.4364
    357 HO2'      -15.8872  -10.7505    7.9236 H        11   G21       0.4186
    358 P         -13.9440   -9.1330   12.1060 P.3      12   C22       1.1662
    359 OP1       -14.9090   -9.0930   13.2190 O.co2    12   C22      -0.7760
    360 OP2       -12.8200   -8.1740   12.0450 O.co2    12   C22      -0.7760
    361 O5'       -13.3060  -10.5970   12.0090 O.3      12   C22      -0.4989
    362 C5'       -14.1010  -11.7600   12.2010 C.3      12   C22       0.0558
    363 C4'       -13.2640  -12.9800   11.8610 C.3      12   C22       0.1065
    364 O4'       -12.7780  -12.8680   10.4980 O.3      12   C22      -0.3548
    365 C3'       -11.9900  -13.1120   12.6800 C.3      12   C22       0.2022
    366 O3'       -12.2630  -13.7070   13.9340 O.3      12   C22      -0.5246
    367 C2'       -11.1600  -14.0240   11.7870 C.3      12   C22       0.0670
    368 O2'       -11.5790  -15.3740   11.8530 O.3      12   C22      -0.6139
    369 C1'       -11.4900  -13.4440   10.4140 C.3      12   C22       0.0066
    370 N1        -10.5100  -12.4240    9.9350 N.am     12   C22      -0.0484
    371 C2         -9.2880  -12.8780    9.4400 C.2      12   C22       0.7538
    372 O2         -9.0790  -14.0980    9.4320 O.2      12   C22      -0.6252
    373 N3         -8.3800  -11.9740    8.9940 N.2      12   C22      -0.7584
    374 C4         -8.6610  -10.6710    9.0330 C.2      12   C22       0.8185
    375 N4         -7.7320   -9.8200    8.5740 N.pl3    12   C22      -0.9530
    376 C5         -9.9070  -10.1840    9.5360 C.2      12   C22      -0.5215
    377 C6        -10.7950  -11.0870    9.9680 C.2      12   C22       0.0053
    378 H5'       -14.4256  -11.8154   13.2401 H        12   C22       0.0679
    379 H5''      -14.9721  -11.7199   11.5471 H        12   C22       0.0679
    380 H4'       -13.8662  -13.8825   11.9659 H        12   C22       0.1174
    381 H3'       -11.5055  -12.1437   12.8055 H        12   C22       0.0615
    382 H2'       -10.0969  -13.9305   12.0086 H        12   C22       0.0972
    383 H1'       -11.5218  -14.2598    9.6918 H        12   C22       0.2029
    384 H5        -10.1238   -9.1264    9.5663 H        12   C22       0.1928
    385 H6        -11.7500  -10.7553   10.3480 H        12   C22       0.1958
    386 H41        -7.9088   -8.8257    8.5844 H        12   C22       0.4234
    387 H42        -6.8554  -10.1733    8.2179 H        12   C22       0.4234
    388 HO2'      -10.8819  -15.9427   11.5180 H        12   C22       0.4186
    389 P         -11.6280  -13.0800   15.2630 P.3      13   C23       1.1662
    390 OP1       -12.4970  -13.4650   16.3940 O.co2    13   C23      -0.7760
    391 OP2       -11.3220  -11.6560   15.0040 O.co2    13   C23      -0.7760
    392 O5'       -10.2330  -13.8550   15.3820 O.3      13   C23      -0.4989
    393 C5'       -10.1950  -15.2780   15.3250 C.3      13   C23       0.0558
    394 C4'        -8.7620  -15.7630   15.1810 C.3      13   C23       0.1065
    395 O4'        -8.1860  -15.2080   13.9690 O.3      13   C23      -0.3548
    396 C3'        -7.8400  -15.3340   16.3190 C.3      13   C23       0.2022
    397 O3'        -6.8920  -16.3490   16.5850 O.3      13   C23      -0.5246
    398 C2'        -7.1420  -14.1120   15.7380 C.3      13   C23       0.0670
    399 O2'        -5.8820  -13.8750   16.3340 O.3      13   C23      -0.6139
    400 C1'        -6.9720  -14.5610   14.2930 C.3      13   C23       0.0066
    401 N1         -6.7330  -13.4100   13.3820 N.am     13   C23      -0.0484
    402 C2         -5.5240  -13.3300   12.6810 C.2      13   C23       0.7538
    403 O2         -4.6910  -14.2410   12.8110 O.2      13   C23      -0.6252
    404 N3         -5.3060  -12.2590   11.8770 N.2      13   C23      -0.7584
    405 C4         -6.2310  -11.3010   11.7750 C.2      13   C23       0.8185
    406 N4         -5.9730  -10.2680   10.9680 N.pl3    13   C23      -0.9530
    407 C5         -7.4660  -11.3610   12.4910 C.2      13   C23      -0.5215
    408 C6         -7.6700  -12.4210   13.2810 C.2      13   C23       0.0053
    409 H5'       -10.6219  -15.6858   16.2413 H        13   C23       0.0679
    410 H5''      -10.7794  -15.6206   14.4710 H        13   C23       0.0679
    411 H4'        -8.7593  -16.8508   15.1111 H        13   C23       0.1174
    412 H3'        -8.4077  -15.0779   17.2136 H        13   C23       0.0615
    413 H2'        -7.7784  -13.2294   15.8021 H        13   C23       0.0972
    414 H1'        -6.1455  -15.2679   14.2203 H        13   C23       0.2029
    415 H5         -8.2065  -10.5804   12.3979 H        13   C23       0.1928
    416 H6         -8.5872  -12.4959   13.8462 H        13   C23       0.1958
    417 H41        -5.1003  -10.2288   10.4612 H        13   C23       0.4234
    418 H42        -6.6507   -9.5263   10.8648 H        13   C23       0.4234
    419 HO2'       -6.0056  -13.5931   17.2433 H        13   C23       0.4186
    420 P          -7.0680  -17.3320   17.8310 P.3      14   C24       1.1662
    421 OP1        -8.0780  -18.3550   17.4750 O.co2    14   C24      -0.7760
    422 OP2        -7.2390  -16.5070   19.0480 O.co2    14   C24      -0.7760
    423 O5'        -5.6130  -18.0010   17.8820 O.3      14   C24      -0.4989
    424 C5'        -5.4050  -19.2990   18.4230 C.3      14   C24       0.0558
    425 C4'        -4.1890  -19.9450   17.7800 C.3      14   C24       0.1065
    426 O4'        -4.4880  -20.2470   16.3950 O.3      14   C24      -0.3548
    427 C3'        -2.9450  -19.0700   17.6810 C.3      14   C24       0.2022
    428 O3'        -2.2340  -19.0290   18.9180 O.3      14   C24      -0.5246
    429 C2'        -2.1650  -19.7990   16.5900 C.3      14   C24       0.0670
    430 O2'        -1.4510  -20.9170   17.0800 O.3      14   C24      -0.6139
    431 C1'        -3.2790  -20.2760   15.6590 C.3      14   C24       0.0066
    432 N1         -3.4100  -19.4520   14.4190 N.am     14   C24      -0.0484
    433 C2         -3.0060  -19.9930   13.1920 C.2      14   C24       0.7538
    434 O2         -2.5610  -21.1470   13.1540 O.2      14   C24      -0.6252
    435 N3         -3.1150  -19.2350   12.0740 N.2      14   C24      -0.7584
    436 C4         -3.5960  -17.9930   12.1510 C.2      14   C24       0.8185
    437 N4         -3.6830  -17.2900   11.0190 N.pl3    14   C24      -0.9530
    438 C5         -4.0020  -17.4200   13.3920 C.2      14   C24      -0.5215
    439 C6         -3.8910  -18.1770   14.4900 C.2      14   C24       0.0053
    440 H5'        -5.2445  -19.2197   19.4982 H        14   C24       0.0679
    441 H5''       -6.2842  -19.9148   18.2333 H        14   C24       0.0679
    442 H4'        -3.9445  -20.8664   18.3086 H        14   C24       0.1174
    443 H3'        -3.2088  -18.0634   17.3566 H        14   C24       0.0615
    444 H2'        -1.4964  -19.1126   16.0705 H        14   C24       0.0972
    445 H1'        -3.0728  -21.3067   15.3706 H        14   C24       0.2029
    446 H5         -4.3852  -16.4116   13.4440 H        14   C24       0.1928
    447 H6         -4.1866  -17.7726   15.4468 H        14   C24       0.1958
    448 H41        -3.3915  -17.7028   10.1445 H        14   C24       0.4234
    449 H42        -4.0403  -16.3455   11.0373 H        14   C24       0.4234
    450 HO2'       -0.7508  -20.6187   17.6651 H        14   C24       0.4186
    451 P          -1.5710  -17.6610   19.4290 P.3      15   U25       1.1662
    452 OP1        -0.9750  -17.9190   20.7590 O.co2    15   U25      -0.7760
    453 OP2        -2.5650  -16.5740   19.2820 O.co2    15   U25      -0.7760
    454 O5'        -0.4010  -17.4040   18.3640 O.3      15   U25      -0.4989
    455 C5'         0.7930  -18.1800   18.4050 C.3      15   U25       0.0558
    456 C4'         1.8350  -17.6590   17.4300 C.3      15   U25       0.1065
    457 O4'         1.2280  -17.4410   16.1300 O.3      15   U25      -0.3548
    458 C3'         2.4430  -16.3080   17.7750 C.3      15   U25       0.2022
    459 O3'         3.4770  -16.4370   18.7410 O.3      15   U25      -0.5246
    460 C2'         2.9820  -15.8860   16.4150 C.3      15   U25       0.0670
    461 O2'         4.1730  -16.5660   16.0680 O.3      15   U25      -0.6139
    462 C1'         1.8370  -16.3260   15.5040 C.3      15   U25       0.0674
    463 N1          0.8110  -15.2580   15.2950 N.am     15   U25       0.0418
    464 C2          1.1640  -14.1320   14.5830 C.2      15   U25       0.4687
    465 O2          2.2740  -13.9610   14.1080 O.2      15   U25      -0.5477
    466 N3          0.1650  -13.2010   14.4460 N.am     15   U25      -0.3549
    467 C4         -1.1270  -13.2780   14.9310 C.2      15   U25       0.5952
    468 O4         -1.9060  -12.3530   14.7190 O.2      15   U25      -0.5761
    469 C5         -1.4240  -14.4850   15.6650 C.2      15   U25      -0.3635
    470 C6         -0.4630  -15.4070   15.8140 C.2      15   U25      -0.1126
    471 H5'         0.5528  -19.2115   18.1474 H        15   U25       0.0679
    472 H5''        1.2030  -18.1507   19.4145 H        15   U25       0.0679
    473 H4'         2.6328  -18.3953   17.3327 H        15   U25       0.1174
    474 H3'         1.6757  -15.6147   18.1195 H        15   U25       0.0615
    475 H2'         3.1227  -14.8061   16.3698 H        15   U25       0.0972
    476 H1'         2.2413  -16.6310   14.5388 H        15   U25       0.1824
    477 H3          0.4008  -12.3641   13.9321 H        15   U25       0.3154
    478 H5         -2.4054  -14.6425   16.0875 H        15   U25       0.1811
    479 H6         -0.6934  -16.3073   16.3642 H        15   U25       0.2188
    480 HO2'        4.8845  -16.2817   16.6464 H        15   U25       0.4186
    481 P           3.6640  -15.2950   19.8460 P.3      16   U26       1.1662
    482 OP1         4.5680  -15.8140   20.8950 O.co2    16   U26      -0.7760
    483 OP2         2.3220  -14.7900   20.2130 O.co2    16   U26      -0.7760
    484 O5'         4.4180  -14.1340   19.0460 O.3      16   U26      -0.4989
    485 C5'         5.7500  -14.3260   18.5850 C.3      16   U26       0.0558
    486 C4'         6.1740  -13.1580   17.7140 C.3      16   U26       0.1065
    487 O4'         5.2500  -13.0160   16.6050 O.3      16   U26      -0.3548
    488 C3'         6.1170  -11.7970   18.3890 C.3      16   U26       0.2022
    489 O3'         7.2560  -11.5840   19.2140 O.3      16   U26      -0.5246
    490 C2'         6.1140  -10.8900   17.1640 C.3      16   U26       0.0670
    491 O2'         7.3900  -10.7990   16.5610 O.3      16   U26      -0.6139
    492 C1'         5.1530  -11.6450   16.2490 C.3      16   U26       0.0674
    493 N1          3.7320  -11.2030   16.3910 N.am     16   U26       0.0418
    494 C2          3.3390   -9.9950   15.8510 C.2      16   U26       0.4687
    495 O2          4.0920   -9.2490   15.2510 O.2      16   U26      -0.5477
    496 N3          2.0140   -9.6830   16.0380 N.am     16   U26      -0.3549
    497 C4          1.0650  -10.4380   16.6990 C.2      16   U26       0.5952
    498 O4         -0.0860  -10.0240   16.7870 O.2      16   U26      -0.5761
    499 C5          1.5500  -11.6850   17.2350 C.2      16   U26      -0.3635
    500 C6          2.8350  -12.0100   17.0650 C.2      16   U26      -0.1126
    501 H5'         6.4206  -14.3991   19.4412 H        16   U26       0.0679
    502 H5''        5.8025  -15.2473   18.0049 H        16   U26       0.0679
    503 H4'         7.1793  -13.3340   17.3314 H        16   U26       0.1174
    504 H3'         5.1955  -11.6836   18.9601 H        16   U26       0.0615
    505 H2'         5.7256   -9.9016   17.4096 H        16   U26       0.0972
    506 H1'         5.4678  -11.5187   15.2131 H        16   U26       0.1824
    507 H3          1.6996   -8.8053   15.6495 H        16   U26       0.3154
    508 H5          0.8837  -12.3479   17.7670 H        16   U26       0.1811
    509 H6          3.1885  -12.9455   17.4727 H        16   U26       0.2188
    510 HO2'        7.7519   -9.9220   16.7076 H        16   U26       0.4186
    511 P           7.1430  -10.6550   20.5140 P.3      17   C27       1.1662
    512 OP1         8.3180  -10.9290   21.3700 O.co2    17   C27      -0.7760
    513 OP2         5.7790  -10.8020   21.0690 O.co2    17   C27      -0.7760
    514 O5'         7.2650   -9.1730   19.9240 O.3      17   C27      -0.4989
    515 C5'         8.4210   -8.7790   19.1940 C.3      17   C27       0.0558
    516 C4'         8.1750   -7.4570   18.4910 C.3      17   C27       0.1065
    517 O4'         7.1160   -7.6120   17.5120 O.3      17   C27      -0.3548
    518 C3'         7.6810   -6.3410   19.3970 C.3      17   C27       0.2022
    519 O3'         8.7760   -5.7140   20.0510 O.3      17   C27      -0.5246
    520 C2'         6.9990   -5.4210   18.3920 C.3      17   C27       0.0670
    521 O2'         7.9210   -4.6330   17.6660 O.3      17   C27      -0.6139
    522 C1'         6.3350   -6.4310   17.4590 C.3      17   C27       0.0066
    523 N1          4.9160   -6.7430   17.8290 N.am     17   C27      -0.0484
    524 C2          3.8970   -5.8720   17.4280 C.2      17   C27       0.7538
    525 O2          4.1910   -4.8660   16.7710 O.2      17   C27      -0.6252
    526 N3          2.6130   -6.1580   17.7670 N.2      17   C27      -0.7584
    527 C4          2.3370   -7.2550   18.4760 C.2      17   C27       0.8185
    528 N4          1.0590   -7.4970   18.7860 N.pl3    17   C27      -0.9530
    529 C5          3.3620   -8.1540   18.8920 C.2      17   C27      -0.5215
    530 C6          4.6230   -7.8620   18.5520 C.2      17   C27       0.0053
    531 H5'         9.2601   -8.6700   19.8811 H        17   C27       0.0679
    532 H5''        8.6579   -9.5429   18.4535 H        17   C27       0.0679
    533 H4'         9.0885   -7.1383   17.9890 H        17   C27       0.1174
    534 H3'         6.9626   -6.7213   20.1232 H        17   C27       0.0615
    535 H2'         6.2531   -4.7949   18.8816 H        17   C27       0.0972
    536 H1'         6.3565   -6.0391   16.4421 H        17   C27       0.2029
    537 H5          3.1288   -9.0410   19.4624 H        17   C27       0.1928
    538 H6          5.4216   -8.5230   18.8549 H        17   C27       0.1958
    539 H41         0.3369   -6.8574   18.4866 H        17   C27       0.4234
    540 H42         0.8158   -8.3194   19.3195 H        17   C27       0.4234
    541 HO2'        8.3359   -3.9997   18.2563 H        17   C27       0.4186
    542 P           8.5580   -5.0120   21.4720 P.3      18   U28       1.1662
    543 OP1         7.6510   -3.8580   21.2780 O.co2    18   U28      -0.7760
    544 OP2         9.8880   -4.8110   22.0860 O.co2    18   U28      -0.7760
    545 O5'         7.7940   -6.1270   22.3250 O.3      18   U28      -0.4989
    546 C5'         7.6700   -5.9680   23.7320 C.3      18   U28       0.0558
    547 C4'         6.2800   -6.3500   24.2110 C.3      18   U28       0.1065
    548 O4'         5.2820   -5.4540   23.6570 O.3      18   U28      -0.3548
    549 C3'         5.8120   -7.7490   23.8260 C.3      18   U28       0.2022
    550 O3'         4.9720   -8.2260   24.8610 O.3      18   U28      -0.5246
    551 C2'         4.9900   -7.4800   22.5700 C.3      18   U28       0.0670
    552 O2'         4.0740   -8.5220   22.2970 O.3      18   U28      -0.6139
    553 C1'         4.2650   -6.2380   23.0650 C.3      18   U28       0.0674
    554 N1          3.5580   -5.4090   22.0500 N.am     18   U28       0.0418
    555 C2          2.1930   -5.5500   21.9060 C.2      18   U28       0.4687
    556 O2          1.5310   -6.3520   22.5420 O.2      18   U28      -0.5477
    557 N3          1.6260   -4.7210   20.9700 N.am     18   U28      -0.3549
    558 C4          2.2710   -3.7770   20.1940 C.2      18   U28       0.5952
    559 O4          1.6240   -3.1050   19.4010 O.2      18   U28      -0.5761
    560 C5          3.6910   -3.6770   20.4120 C.2      18   U28      -0.3635
    561 C6          4.2670   -4.4750   21.3180 C.2      18   U28      -0.1126
    562 H5'         7.8601   -4.9260   23.9894 H        18   U28       0.0679
    563 H5''        8.4060   -6.5995   24.2296 H        18   U28       0.0679
    564 H4'         6.2544   -6.2649   25.2974 H        18   U28       0.1174
    565 H3'         6.6473   -8.4221   23.6329 H        18   U28       0.0615
    566 H2'         5.6239   -7.2629   21.7103 H        18   U28       0.0972
    567 H1'         3.5532   -6.5310   23.8368 H        18   U28       0.1824
    568 H3          0.6293   -4.8109   20.8338 H        18   U28       0.3154
    569 H5          4.2825   -2.9678   19.8520 H        18   U28       0.1811
    570 H6          5.3304   -4.3858   21.4845 H        18   U28       0.2188
    571 HO2'        4.5308   -9.2435   21.8585 H        18   U28       0.4186
    572 P           5.5170   -9.2740   25.9380 P.3      19   G29       1.1662
    573 OP1         6.8760   -8.8620   26.3520 O.co2    19   G29      -0.7760
    574 OP2         5.2800  -10.6320   25.3900 O.co2    19   G29      -0.7760
    575 O5'         4.5100   -9.0550   27.1610 O.3      19   G29      -0.4989
    576 C5'         3.8070  -10.1620   27.7100 C.3      19   G29       0.0558
    577 C4'         2.8030   -9.6950   28.7470 C.3      19   G29       0.1065
    578 O4'         3.4410   -8.7890   29.6860 O.3      19   G29      -0.3548
    579 C3'         1.6280   -8.8890   28.2120 C.3      19   G29       0.2022
    580 O3'         0.6330   -9.7420   27.6560 O.3      19   G29      -0.5246
    581 C2'         1.1620   -8.2410   29.5080 C.3      19   G29       0.0670
    582 O2'         0.5240   -9.1710   30.3570 O.3      19   G29      -0.6139
    583 C1'         2.5010   -7.8130   30.1020 C.3      19   G29       0.0191
    584 N9          2.9340   -6.5020   29.6220 N.ar     19   G29       0.0492
    585 C8          4.0140   -6.2300   28.8170 C.ar     19   G29       0.1374
    586 N7          4.1530   -4.9640   28.5380 N.ar     19   G29      -0.5709
    587 C5          3.0950   -4.3530   29.1990 C.ar     19   G29       0.1744
    588 C6          2.7310   -2.9860   29.2610 C.2      19   G29       0.4770
    589 O6          3.2870   -2.0180   28.7230 O.2      19   G29      -0.5597
    590 N1          1.5920   -2.7920   30.0390 N.am     19   G29      -0.4787
    591 C2          0.8940   -3.7930   30.6760 C.2      19   G29       0.7657
    592 N2         -0.1820   -3.4100   31.3800 N.pl3    19   G29      -0.9672
    593 N3          1.2260   -5.0780   30.6260 N.2      19   G29      -0.6323
    594 C4          2.3320   -5.2850   29.8690 C.ar     19   G29       0.1222
    595 H5'         4.5185  -10.8406   28.1805 H        19   G29       0.0679
    596 H5''        3.2824  -10.6871   26.9118 H        19   G29       0.0679
    597 H4'         2.4231  -10.5606   29.2897 H        19   G29       0.1174
    598 H3'         1.9565   -8.1407   27.4907 H        19   G29       0.0615
    599 H2'         0.5226   -7.3802   29.3124 H        19   G29       0.0972
    600 H1'         2.4357   -7.8042   31.1900 H        19   G29       0.2006
    601 H8          4.6845   -6.9930   28.4500 H        19   G29       0.1640
    602 H1          1.2530   -1.8464   30.1436 H        19   G29       0.3424
    603 H21        -0.4379   -2.4338   31.4202 H        19   G29       0.4364
    604 H22        -0.7361   -4.0979   31.8698 H        19   G29       0.4364
    605 HO2'       -0.3161   -9.4320   29.9726 H        19   G29       0.4186
    606 P          -0.3530   -9.2070   26.5130 P.3      20   C30       1.1662
    607 OP1        -1.1980  -10.3380   26.0750 O.co2    20   C30      -0.7760
    608 OP2         0.4530   -8.4590   25.5230 O.co2    20   C30      -0.7760
    609 O5'        -1.2830   -8.1610   27.2900 O.3      20   C30      -0.4989
    610 C5'        -2.3150   -8.6260   28.1580 C.3      20   C30       0.0558
    611 C4'        -3.1870   -7.4750   28.6260 C.3      20   C30       0.1065
    612 O4'        -2.3750   -6.5120   29.3450 O.3      20   C30      -0.3548
    613 C3'        -3.8100   -6.6440   27.5160 C.3      20   C30       0.2022
    614 O3'        -4.9610   -7.2730   26.9680 O.3      20   C30      -0.5246
    615 C2'        -4.1370   -5.3600   28.2690 C.3      20   C30       0.0670
    616 O2'        -5.2690   -5.4760   29.1080 O.3      20   C30      -0.6139
    617 C1'        -2.8710   -5.2030   29.1080 C.3      20   C30       0.0066
    618 N1         -1.8250   -4.3830   28.4210 N.am     20   C30      -0.0484
    619 C2         -1.9690   -2.9900   28.3690 C.2      20   C30       0.7538
    620 O2         -2.9530   -2.4620   28.9010 O.2      20   C30      -0.6252
    621 N3         -1.0200   -2.2530   27.7400 N.2      20   C30      -0.7584
    622 C4          0.0290   -2.8530   27.1730 C.2      20   C30       0.8185
    623 N4          0.9360   -2.0810   26.5630 N.pl3    20   C30      -0.9530
    624 C5          0.1910   -4.2700   27.2090 C.2      20   C30      -0.5215
    625 C6         -0.7490   -4.9880   27.8370 C.2      20   C30       0.0053
    626 H5'        -2.9329   -9.3475   27.6235 H        20   C30       0.0679
    627 H5''       -1.8646   -9.1107   29.0242 H        20   C30       0.0679
    628 H4'        -3.9706   -7.8540   29.2821 H        20   C30       0.1174
    629 H3'        -3.0772   -6.4476   26.7333 H        20   C30       0.0615
    630 H2'        -4.2504   -4.5242   27.5786 H        20   C30       0.0972
    631 H1'        -3.1257   -4.7370   30.0599 H        20   C30       0.2029
    632 H5          1.0421   -4.7471   26.7459 H        20   C30       0.1928
    633 H6         -0.6546   -6.0629   27.8823 H        20   C30       0.1958
    634 H41         0.8139   -1.0786   26.5422 H        20   C30       0.4234
    635 H42         1.7426   -2.5007   26.1234 H        20   C30       0.4234
    636 HO2'       -6.0580   -5.5741   28.5699 H        20   C30       0.4186
    637 P          -5.2580   -7.1150   25.4030 P.3      21   G31       1.1662
    638 OP1        -6.5410   -7.7890   25.1060 O.co2    21   G31      -0.7760
    639 OP2        -4.0320   -7.4990   24.6680 O.co2    21   G31      -0.7760
    640 O5'        -5.4540   -5.5370   25.2340 O.3      21   G31      -0.4989
    641 C5'        -6.6920   -4.9280   25.5750 C.3      21   G31       0.0558
    642 C4'        -6.5650   -3.4160   25.5390 C.3      21   G31       0.1065
    643 O4'        -5.3470   -3.0110   26.2150 O.3      21   G31      -0.3548
    644 C3'        -6.4350   -2.8110   24.1490 C.3      21   G31       0.2022
    645 O3'        -7.7140   -2.6480   23.5510 O.3      21   G31      -0.5246
    646 C2'        -5.7800   -1.4740   24.4730 C.3      21   G31       0.0670
    647 O2'        -6.6870   -0.5270   25.0040 O.3      21   G31      -0.6139
    648 C1'        -4.7830   -1.8950   25.5470 C.3      21   G31       0.0191
    649 N9         -3.4780   -2.2660   25.0040 N.ar     21   G31       0.0492
    650 C8         -2.8690   -3.4960   25.0590 C.ar     21   G31       0.1374
    651 N7         -1.6990   -3.5230   24.4820 N.ar     21   G31      -0.5709
    652 C5         -1.5190   -2.2270   24.0150 C.ar     21   G31       0.1744
    653 C6         -0.4350   -1.6530   23.3060 C.2      21   G31       0.4770
    654 O6          0.6180   -2.1940   22.9390 O.2      21   G31      -0.5597
    655 N1         -0.6610   -0.3090   23.0230 N.am     21   G31      -0.4787
    656 C2         -1.7900    0.3930   23.3760 C.2      21   G31       0.7657
    657 N2         -1.8270    1.6850   23.0180 N.pl3    21   G31      -0.9672
    658 N3         -2.8110   -0.1330   24.0410 N.2      21   G31      -0.6323
    659 C4         -2.6070   -1.4420   24.3270 C.ar     21   G31       0.1222
    660 H5'        -6.9815   -5.2403   26.5784 H        21   G31       0.0679
    661 H5''       -7.4565   -5.2427   24.8647 H        21   G31       0.0679
    662 H4'        -7.4217   -2.9715   26.0455 H        21   G31       0.1174
    663 H3'        -5.7860   -3.4195   23.5192 H        21   G31       0.0615
    664 H2'        -5.2648   -1.0720   23.6006 H        21   G31       0.0972
    665 H1'        -4.6562   -1.0785   26.2579 H        21   G31       0.2006
    666 H8         -3.3153   -4.3573   25.5338 H        21   G31       0.1640
    667 H1          0.0593    0.1890   22.5198 H        21   G31       0.3424
    668 H21        -1.0520    2.0918   22.5140 H        21   G31       0.4364
    669 H22        -2.6298    2.2512   23.2524 H        21   G31       0.4364
    670 HO2'       -7.3121   -0.2656   24.3239 H        21   G31       0.4186
    671 P          -7.9840   -3.2270   22.0830 P.3      22   U32       1.1662
    672 OP1        -9.4370   -3.1300   21.8180 O.co2    22   U32      -0.7760
    673 OP2        -7.2900   -4.5290   21.9640 O.co2    22   U32      -0.7760
    674 O5'        -7.2070   -2.1880   21.1470 O.3      22   U32      -0.4989
    675 C5'        -7.5080   -0.8010   21.2080 C.3      22   U32       0.0558
    676 C4'        -6.3950    0.0040   20.5670 C.3      22   U32       0.1065
    677 O4'        -5.1900   -0.1050   21.3700 O.3      22   U32      -0.3548
    678 C3'        -5.9470   -0.4710   19.1920 C.3      22   U32       0.2022
    679 O3'        -6.8310   -0.0220   18.1710 O.3      22   U32      -0.5246
    680 C2'        -4.5920    0.2200   19.1180 C.3      22   U32       0.0670
    681 O2'        -4.7120    1.6170   18.9260 O.3      22   U32      -0.6139
    682 C1'        -4.0580   -0.0660   20.5190 C.3      22   U32       0.0674
    683 N1         -3.3060   -1.3580   20.6300 N.am     22   U32       0.0418
    684 C2         -1.9890   -1.4110   20.2140 C.2      22   U32       0.4687
    685 O2         -1.3930   -0.4540   19.7560 O.2      22   U32      -0.5477
    686 N3         -1.3840   -2.6340   20.3590 N.am     22   U32      -0.3549
    687 C4         -1.9520   -3.7910   20.8620 C.2      22   U32       0.5952
    688 O4         -1.2840   -4.8180   20.9280 O.2      22   U32      -0.5761
    689 C5         -3.3280   -3.6630   21.2670 C.2      22   U32      -0.3635
    690 C6         -3.9370   -2.4780   21.1390 C.2      22   U32      -0.1126
    691 H5'        -8.4411   -0.6114   20.6775 H        22   U32       0.0679
    692 H5''       -7.6173   -0.5005   22.2500 H        22   U32       0.0679
    693 H4'        -6.6950    1.0502   20.5071 H        22   U32       0.1174
    694 H3'        -5.8369   -1.5552   19.1675 H        22   U32       0.0615
    695 H2'        -3.9592   -0.2313   18.3538 H        22   U32       0.0972
    696 H1'        -3.4079    0.7529   20.8272 H        22   U32       0.1824
    697 H3         -0.4192   -2.6964   20.0668 H        22   U32       0.3154
    698 H5         -3.8614   -4.5118   21.6687 H        22   U32       0.1811
    699 H6         -4.9685   -2.3928   21.4474 H        22   U32       0.2188
    700 HO2'       -4.2477    1.8715   18.1252 H        22   U32       0.4186
    701 P          -7.2290   -0.9840   16.9520 P.3      23   G33       1.1662
    702 OP1        -8.4100   -0.3940   16.2840 O.co2    23   G33      -0.7760
    703 OP2        -7.2870   -2.3760   17.4480 O.co2    23   G33      -0.7760
    704 O5'        -5.9750   -0.8670   15.9600 O.3      23   G33      -0.4989
    705 C5'        -5.7840    0.3090   15.1760 C.3      23   G33       0.0558
    706 C4'        -4.3120    0.5390   14.8780 C.3      23   G33       0.1065
    707 O4'        -3.5380    0.3870   16.0970 O.3      23   G33      -0.3548
    708 C3'        -3.6710   -0.4530   13.9190 C.3      23   G33       0.2022
    709 O3'        -3.9440   -0.1160   12.5630 O.3      23   G33      -0.5246
    710 C2'        -2.2020   -0.2590   14.2740 C.3      23   G33       0.0670
    711 O2'        -1.6800    0.9570   13.7720 O.3      23   G33      -0.6139
    712 C1'        -2.2920   -0.2180   15.7970 C.3      23   G33       0.0191
    713 N9         -2.2450   -1.5520   16.3980 N.ar     23   G33       0.0492
    714 C8         -3.3020   -2.2910   16.8760 C.ar     23   G33       0.1374
    715 N7         -2.9530   -3.4560   17.3450 N.ar     23   G33      -0.5709
    716 C5         -1.5750   -3.4990   17.1630 C.ar     23   G33       0.1744
    717 C6         -0.6420   -4.5190   17.4770 C.2      23   G33       0.4770
    718 O6         -0.8540   -5.6260   17.9970 O.2      23   G33      -0.5597
    719 N1          0.6560   -4.1550   17.1270 N.am     23   G33      -0.4787
    720 C2          1.0070   -2.9620   16.5420 C.2      23   G33       0.7657
    721 N2          2.3100   -2.7940   16.2780 N.pl3    23   G33      -0.9672
    722 N3          0.1450   -1.9980   16.2420 N.2      23   G33      -0.6323
    723 C4         -1.1250   -2.3350   16.5780 C.ar     23   G33       0.1222
    724 H5'        -6.3241    0.2005   14.2355 H        23   G33       0.0679
    725 H5''       -6.1781    1.1686   15.7181 H        23   G33       0.0679
    726 H4'        -4.1779    1.5493   14.4916 H        23   G33       0.1174
    727 H3'        -3.9933   -1.4707   14.1393 H        23   G33       0.0615
    728 H2'        -1.6044   -1.1075   13.9409 H        23   G33       0.0972
    729 H1'        -1.4822    0.3928   16.1960 H        23   G33       0.2006
    730 H8         -4.3232   -1.9397   16.8639 H        23   G33       0.1640
    731 H1          1.3945   -4.8172   17.3173 H        23   G33       0.3424
    732 H21         2.9698   -3.5238   16.5066 H        23   G33       0.4364
    733 H22         2.6323   -1.9376   15.8504 H        23   G33       0.4364
    734 HO2'       -0.8136    0.8001   13.3894 H        23   G33       0.4186
    735 P          -4.0800   -1.2730   11.4620 P.3      24   A34       1.1662
    736 OP1        -4.5510   -0.6600   10.2000 O.co2    24   A34      -0.7760
    737 OP2        -4.8210   -2.4000   12.0670 O.co2    24   A34      -0.7760
    738 O5'        -2.5700   -1.7530   11.2460 O.3      24   A34      -0.4989
    739 C5'        -1.6020   -0.8630   10.7110 C.3      24   A34       0.0558
    740 C4'        -0.2110   -1.4180   10.9470 C.3      24   A34       0.1065
    741 O4'        -0.0140   -1.6480   12.3670 O.3      24   A34      -0.3548
    742 C3'         0.0460   -2.7870   10.3360 C.3      24   A34       0.2022
    743 O3'         0.3260   -2.6810    8.9450 O.3      24   A34      -0.5246
    744 C2'         1.2720   -3.1910   11.1400 C.3      24   A34       0.0670
    745 O2'         2.4240   -2.4680   10.7520 O.3      24   A34      -0.6139
    746 C1'         0.8260   -2.7750   12.5380 C.3      24   A34       0.0394
    747 N9          0.0900   -3.8330   13.2250 N.ar     24   A34      -0.0251
    748 C8         -1.2620   -3.9210   13.4160 C.ar     24   A34       0.2006
    749 N7         -1.6310   -5.0020   14.0640 N.ar     24   A34      -0.6073
    750 C5         -0.4430   -5.6690   14.3130 C.ar     24   A34       0.0515
    751 C6         -0.1530   -6.8840   14.9660 C.ar     24   A34       0.7009
    752 N6         -1.0920   -7.6720   15.5070 N.pl3    24   A34      -0.9019
    753 N1          1.1420   -7.2600   15.0370 N.ar     24   A34      -0.7615
    754 C2          2.0770   -6.4730   14.4920 C.ar     24   A34       0.5875
    755 N3          1.9270   -5.3130   13.8550 N.ar     24   A34      -0.6997
    756 C4          0.6290   -4.9650   13.7980 C.ar     24   A34       0.3053
    757 H5'        -1.7689   -0.7477    9.6401 H        24   A34       0.0679
    758 H5''       -1.6928    0.1075   11.1988 H        24   A34       0.0679
    759 H4'         0.5330   -0.7090   10.5838 H        24   A34       0.1174
    760 H3'        -0.7878   -3.4644   10.5203 H        24   A34       0.0615
    761 H2'         1.4436   -4.2660   11.0843 H        24   A34       0.0972
    762 H1'         1.6971   -2.4937   13.1298 H        24   A34       0.2007
    763 H8         -1.9589   -3.1732   13.0673 H        24   A34       0.1553
    764 H2          3.0934   -6.8273   14.5809 H        24   A34       0.0473
    765 H61        -0.6397   -8.4327   15.9937 H        24   A34       0.4115
    766 H62        -2.0895   -7.5286   15.4392 H        24   A34       0.4115
    767 HO2'        3.1358   -2.6440   11.3717 H        24   A34       0.4186
    768 P           0.0770   -3.9340    7.9810 P.3      25   A35       1.1662
    769 OP1         0.3630   -3.5020    6.5970 O.co2    25   A35      -0.7760
    770 OP2        -1.2340   -4.5320    8.3050 O.co2    25   A35      -0.7760
    771 O5'         1.2120   -4.9620    8.4410 O.3      25   A35      -0.4989
    772 C5'         2.5810   -4.6690    8.1850 C.3      25   A35       0.0558
    773 C4'         3.4690   -5.7300    8.8050 C.3      25   A35       0.1065
    774 O4'         3.2290   -5.8150   10.2340 O.3      25   A35      -0.3548
    775 C3'         3.2170   -7.1450    8.3070 C.3      25   A35       0.2022
    776 O3'         3.8880   -7.3530    7.0740 O.3      25   A35      -0.5246
    777 C2'         3.8330   -7.9570    9.4400 C.3      25   A35       0.0670
    778 O2'         5.2470   -7.9850    9.3840 O.3      25   A35      -0.6139
    779 C1'         3.3680   -7.1610   10.6560 C.3      25   A35       0.0394
    780 N9          2.0870   -7.6230   11.1880 N.ar     25   A35      -0.0251
    781 C8          0.8860   -6.9770   11.1160 C.ar     25   A35       0.2006
    782 N7         -0.1040   -7.6330   11.6730 N.ar     25   A35      -0.6073
    783 C5          0.4880   -8.7910   12.1460 C.ar     25   A35       0.0515
    784 C6         -0.0290   -9.9020   12.8380 C.ar     25   A35       0.7009
    785 N6         -1.3170  -10.0120   13.1830 N.pl3    25   A35      -0.9019
    786 N1          0.8260  -10.8950   13.1600 N.ar     25   A35      -0.7615
    787 C2          2.1140  -10.7760   12.8090 C.ar     25   A35       0.5875
    788 N3          2.7170   -9.7780   12.1610 N.ar     25   A35      -0.6997
    789 C4          1.8390   -8.8070   11.8520 C.ar     25   A35       0.3053
    790 H5'         2.7483   -4.6440    7.1082 H        25   A35       0.0679
    791 H5''        2.8281   -3.6968    8.6115 H        25   A35       0.0679
    792 H4'         4.5132   -5.4696    8.6317 H        25   A35       0.1174
    793 H3'         2.1497   -7.3456    8.2135 H        25   A35       0.0615
    794 H2'         3.4254   -8.9678    9.4590 H        25   A35       0.0972
    795 H1'         4.1259   -7.2186   11.4373 H        25   A35       0.2007
    796 H8          0.7625   -6.0137   10.6435 H        25   A35       0.1553
    797 H2          2.7513  -11.6016   13.0893 H        25   A35       0.0473
    798 H61        -1.4282  -10.8497   13.7361 H        25   A35       0.4115
    799 H62        -2.0529   -9.3670   12.9329 H        25   A35       0.4115
    800 HO2'        5.5274   -8.4879    8.6158 H        25   A35       0.4186
    801 P           3.1790   -8.1690    5.8950 P.3      26   G36       1.1662
    802 OP1         4.1490   -8.2770    4.7820 O.co2    26   G36      -0.7760
    803 OP2         1.8410   -7.5880    5.6530 O.co2    26   G36      -0.7760
    804 O5'         2.9690   -9.6170    6.5420 O.3      26   G36      -0.4989
    805 C5'         4.0670  -10.5090    6.6690 C.3      26   G36       0.0558
    806 C4'         3.7130  -11.6810    7.5670 C.3      26   G36       0.1065
    807 O4'         3.2920  -11.2000    8.8700 O.3      26   G36      -0.3548
    808 C3'         2.5360  -12.5280    7.1090 C.3      26   G36       0.2022
    809 O3'         2.9310  -13.4390    6.0920 O.3      26   G36      -0.5246
    810 C2'         2.2270  -13.2450    8.4140 C.3      26   G36       0.0670
    811 O2'         3.2270  -14.1920    8.7290 O.3      26   G36      -0.6139
    812 C1'         2.2860  -12.0650    9.3780 C.3      26   G36       0.0191
    813 N9          1.0210  -11.3380    9.4250 N.ar     26   G36       0.0492
    814 C8          0.7490  -10.1120    8.8670 C.ar     26   G36       0.1374
    815 N7         -0.4760   -9.7160    9.0580 N.ar     26   G36      -0.5709
    816 C5         -1.0570  -10.7460    9.7850 C.ar     26   G36       0.1744
    817 C6         -2.3750  -10.8830   10.2790 C.2      26   G36       0.4770
    818 O6         -3.3170  -10.0930   10.1670 O.2      26   G36      -0.5597
    819 N1         -2.5580  -12.0840   10.9610 N.am     26   G36      -0.4787
    820 C2         -1.5830  -13.0340   11.1450 C.2      26   G36       0.7657
    821 N2         -1.9470  -14.1300   11.8280 N.pl3    26   G36      -0.9672
    822 N3         -0.3400  -12.9190   10.6860 N.2      26   G36      -0.6323
    823 C4         -0.1510  -11.7560   10.0160 C.ar     26   G36       0.1222
    824 H5'         4.3371  -10.8848    5.6821 H        26   G36       0.0679
    825 H5''        4.9164   -9.9745    7.0945 H        26   G36       0.0679
    826 H4'         4.5889  -12.3188    7.6861 H        26   G36       0.1174
    827 H3'         1.6996  -11.9079    6.7865 H        26   G36       0.0615
    828 H2'         1.2363  -13.6992    8.3968 H        26   G36       0.0972
    829 H1'         2.5573  -12.4097   10.3759 H        26   G36       0.2006
    830 H8          1.4807   -9.5333    8.3228 H        26   G36       0.1640
    831 H1         -3.4725  -12.2693   11.3476 H        26   G36       0.3424
    832 H21        -2.8914  -14.2184   12.1748 H        26   G36       0.4364
    833 H22        -1.2766  -14.8666   11.9953 H        26   G36       0.4364
    834 HO2'        3.0932  -14.5131    9.6237 H        26   G36       0.4186
    835 P           1.8670  -13.9180    4.9980 P.3      27   G37       1.1662
    836 OP1         2.6070  -14.6830    3.9670 O.co2    27   G37      -0.7760
    837 OP2         1.0590  -12.7420    4.6130 O.co2    27   G37      -0.7760
    838 O5'         0.8900  -14.9000    5.8090 O.3      27   G37      -0.4989
    839 C5'         1.3630  -16.0920    6.4280 C.3      27   G37       0.0558
    840 C4'         0.2830  -16.6950    7.3140 C.3      27   G37       0.1065
    841 O4'        -0.0910  -15.7610    8.3600 O.3      27   G37      -0.3548
    842 C3'        -1.0330  -16.9870    6.6090 C.3      27   G37       0.2022
    843 O3'        -0.9560  -18.2190    5.9220 O.3      27   G37      -0.5246
    844 C2'        -1.9990  -17.0410    7.7850 C.3      27   G37       0.0670
    845 O2'        -1.9170  -18.2460    8.5190 O.3      27   G37      -0.6139
    846 C1'        -1.4830  -15.8670    8.6120 C.3      27   G37       0.0191
    847 N9         -2.1430  -14.6210    8.2400 N.ar     27   G37       0.0492
    848 C8         -1.6060  -13.5410    7.5820 C.ar     27   G37       0.1374
    849 N7         -2.4630  -12.5780    7.3900 N.ar     27   G37      -0.5709
    850 C5         -3.6420  -13.0460    7.9550 C.ar     27   G37       0.1744
    851 C6         -4.9210  -12.4420    8.0560 C.2      27   G37       0.4770
    852 O6         -5.2840  -11.3270    7.6570 O.2      27   G37      -0.5597
    853 N1         -5.8320  -13.2650    8.7110 N.am     27   G37      -0.4787
    854 C2         -5.5490  -14.5190    9.1960 C.2      27   G37       0.7657
    855 N2         -6.5580  -15.1730    9.7880 N.pl3    27   G37      -0.9672
    856 N3         -4.3580  -15.0950    9.1100 N.2      27   G37      -0.6323
    857 C4         -3.4590  -14.3050    8.4770 C.ar     27   G37       0.1222
    858 H5'         2.2369  -15.8582    7.0361 H        27   G37       0.0679
    859 H5''        1.6414  -16.8119    5.6584 H        27   G37       0.0679
    860 H4'         0.6597  -17.6118    7.7676 H        27   G37       0.1174
    861 H3'        -1.2961  -16.1782    5.9273 H        27   G37       0.0615
    862 H2'        -3.0214  -16.8598    7.4534 H        27   G37       0.0972
    863 H1'        -1.6483  -16.0657    9.6709 H        27   G37       0.2006
    864 H8         -0.5772  -13.4947    7.2566 H        27   G37       0.1640
    865 H1         -6.7706  -12.9147    8.8394 H        27   G37       0.3424
    866 H21        -7.4680  -14.7405    9.8580 H        27   G37       0.4364
    867 H22        -6.4083  -16.0983   10.1641 H        27   G37       0.4364
    868 HO2'       -2.2914  -18.9622    8.0008 H        27   G37       0.4186
    869 P          -1.7290  -18.3900    4.5370 P.3      28   C38       1.1662
    870 OP1        -1.3170  -19.6820    3.9480 O.co2    28   C38      -0.7760
    871 OP2        -1.5690  -17.1430    3.7550 O.co2    28   C38      -0.7760
    872 O5'        -3.2530  -18.4710    5.0070 O.3      28   C38      -0.4989
    873 C5'        -3.7340  -19.5790    5.7630 C.3      28   C38       0.0558
    874 C4'        -5.2490  -19.5380    5.8440 C.3      28   C38       0.1065
    875 O4'        -5.6660  -18.4010    6.6440 O.3      28   C38      -0.3548
    876 C3'        -5.9450  -19.3080    4.5130 C.3      28   C38       0.2022
    877 O3'        -6.0430  -20.5270    3.7780 O.3      28   C38      -0.5246
    878 C2'        -7.2960  -18.7750    4.9770 C.3      28   C38       0.0670
    879 O2'        -8.1520  -19.7990    5.4550 O.3      28   C38      -0.6139
    880 C1'        -6.8740  -17.8670    6.1310 C.3      28   C38       0.0066
    881 N1         -6.6590  -16.4180    5.7760 N.am     28   C38      -0.0484
    882 C2         -7.7460  -15.5340    5.7650 C.2      28   C38       0.7538
    883 O2         -8.8770  -15.9610    6.0330 O.2      28   C38      -0.6252
    884 N3         -7.5330  -14.2280    5.4570 N.2      28   C38      -0.7584
    885 C4         -6.2990  -13.8000    5.1760 C.2      28   C38       0.8185
    886 N4         -6.1380  -12.5080    4.8730 N.pl3    28   C38      -0.9530
    887 C5         -5.1780  -14.6830    5.1830 C.2      28   C38      -0.5215
    888 C6         -5.4010  -15.9660    5.4910 C.2      28   C38       0.0053
    889 H5'        -3.3182  -19.5360    6.7696 H        28   C38       0.0679
    890 H5''       -3.4227  -20.5066    5.2827 H        28   C38       0.0679
    891 H4'        -5.6171  -20.4591    6.2959 H        28   C38       0.1174
    892 H3'        -5.4162  -18.5530    3.9312 H        28   C38       0.0615
    893 H2'        -7.7798  -18.2007    4.1870 H        28   C38       0.0972
    894 H1'        -7.6344  -17.9225    6.9100 H        28   C38       0.2029
    895 H5         -4.1852  -14.3285    4.9481 H        28   C38       0.1928
    896 H6         -4.5715  -16.6572    5.5148 H        28   C38       0.1958
    897 H41        -6.9352  -11.8879    4.8655 H        28   C38       0.4234
    898 H42        -5.2192  -12.1519    4.6515 H        28   C38       0.4234
    899 HO2'       -9.0369  -19.6638    5.1083 H        28   C38       0.4186
    900 P          -5.9770  -20.4900    2.1780 P.3      29   U39       1.1662
    901 OP1        -5.8210  -21.8840    1.7000 O.co2    29   U39      -0.7760
    902 OP2        -5.0090  -19.4480    1.7670 O.co2    29   U39      -0.7760
    903 O5'        -7.4320  -19.9590    1.7900 O.3      29   U39      -0.4989
    904 C5'        -8.5830  -20.7780    1.9740 C.3      29   U39       0.0558
    905 C4'        -9.8420  -19.9550    1.7710 C.3      29   U39       0.1065
    906 O4'        -9.8920  -18.8690    2.7320 O.3      29   U39      -0.3548
    907 C3'        -9.9180  -19.2310    0.4370 C.3      29   U39       0.2022
    908 O3'       -10.2930  -20.1300   -0.6020 O.3      29   U39      -0.5246
    909 C2'       -10.9870  -18.1850    0.7490 C.3      29   U39       0.0670
    910 O2'       -12.3020  -18.7030    0.7440 O.3      29   U39      -0.6139
    911 C1'       -10.5970  -17.7710    2.1670 C.3      29   U39       0.0674
    912 N1         -9.7260  -16.5530    2.1870 N.am     29   U39       0.0418
    913 C2        -10.2920  -15.2990    2.3370 C.2      29   U39       0.4687
    914 O2        -11.4900  -15.1100    2.4710 O.2      29   U39      -0.5477
    915 N3         -9.3940  -14.2580    2.3360 N.am     29   U39      -0.3549
    916 C4         -8.0180  -14.3410    2.1940 C.2      29   U39       0.5952
    917 O4         -7.3320  -13.3210    2.2020 O.2      29   U39      -0.5761
    918 C5         -7.5080  -15.6780    2.0330 C.2      29   U39      -0.3635
    919 C6         -8.3610  -16.7060    2.0380 C.2      29   U39      -0.1126
    920 H5'        -8.5647  -21.5940    1.2516 H        29   U39       0.0679
    921 H5''       -8.5776  -21.1883    2.9838 H        29   U39       0.0679
    922 H4'       -10.7186  -20.5914    1.8923 H        29   U39       0.1174
    923 H3'        -8.9670  -18.7513    0.2054 H        29   U39       0.0615
    924 H2'       -10.9058  -17.3388    0.0667 H        29   U39       0.0972
    925 H1'       -11.4984  -17.5811    2.7496 H        29   U39       0.1824
    926 H3         -9.7792  -13.3315    2.4514 H        29   U39       0.3154
    927 H5         -6.4486  -15.8476    1.9097 H        29   U39       0.1811
    928 H6         -7.9649  -17.7038    1.9200 H        29   U39       0.2188
    929 HO2'      -12.8807  -18.1129    1.2323 H        29   U39       0.4186
    930 P          -9.6710  -19.9920   -2.0710 P.3      30   G40       1.1662
    931 OP1       -10.2050  -21.1140   -2.8700 O.co2    30   G40      -0.7760
    932 OP2        -8.2100  -19.7850   -1.9580 O.co2    30   G40      -0.7760
    933 O5'       -10.3090  -18.6290   -2.6060 O.3      30   G40      -0.4989
    934 C5'       -11.7070  -18.5560   -2.8470 C.3      30   G40       0.0558
    935 C4'       -12.1150  -17.1100   -3.0290 C.3      30   G40       0.1065
    936 O4'       -11.7920  -16.3720   -1.8200 O.3      30   G40      -0.3548
    937 C3'       -11.3600  -16.3710   -4.1250 C.3      30   G40       0.2022
    938 O3'       -11.9310  -16.6460   -5.4020 O.3      30   G40      -0.5246
    939 C2'       -11.5870  -14.9330   -3.6840 C.3      30   G40       0.0670
    940 O2'       -12.8290  -14.4220   -4.1170 O.3      30   G40      -0.6139
    941 C1'       -11.4850  -15.0320   -2.1560 C.3      30   G40       0.0191
    942 N9        -10.1080  -14.7080   -1.7910 N.ar     30   G40       0.0492
    943 C8         -9.0120  -15.5330   -1.8580 C.ar     30   G40       0.1374
    944 N7         -7.8940  -14.9360   -1.5530 N.ar     30   G40      -0.5709
    945 C5         -8.2640  -13.6240   -1.2970 C.ar     30   G40       0.1744
    946 C6         -7.4850  -12.5040   -0.9190 C.2      30   G40       0.4770
    947 O6         -6.2630  -12.4510   -0.7390 O.2      30   G40      -0.5597
    948 N1         -8.2620  -11.3550   -0.7460 N.am     30   G40      -0.4787
    949 C2         -9.6220  -11.2970   -0.9300 C.2      30   G40       0.7657
    950 N2        -10.2120  -10.1050   -0.7250 N.pl3    30   G40      -0.9672
    951 N3        -10.3600  -12.3410   -1.2900 N.2      30   G40      -0.6323
    952 C4         -9.6230  -13.4670   -1.4450 C.ar     30   G40       0.1222
    953 H5'       -12.2440  -18.9805   -1.9988 H        30   G40       0.0679
    954 H5''      -11.9499  -19.1181   -3.7487 H        30   G40       0.0679
    955 H4'       -13.1868  -17.0523   -3.2188 H        30   G40       0.1174
    956 H3'       -10.2996  -16.6228   -4.1080 H        30   G40       0.0615
    957 H2'       -10.7817  -14.3039   -4.0632 H        30   G40       0.0972
    958 H1'       -12.1828  -14.3448   -1.6775 H        30   G40       0.2006
    959 H8         -9.0707  -16.5749   -2.1363 H        30   G40       0.1640
    960 H1         -7.7899  -10.5072   -0.4658 H        30   G40       0.3424
    961 H21        -9.6568   -9.3073   -0.4503 H        30   G40       0.4364
    962 H22       -11.2100  -10.0081   -0.8459 H        30   G40       0.4364
    963 HO2'      -12.7899  -13.4631   -4.1418 H        30   G40       0.4186
    964 P         -11.0270  -16.8010   -6.7180 P.3      31   A41       1.1662
    965 OP1       -11.8610  -17.4130   -7.7750 O.co2    31   A41      -0.7760
    966 OP2        -9.7380  -17.4160   -6.3470 O.co2    31   A41      -0.7760
    967 O5'       -10.7440  -15.2750   -7.0990 O.3      31   A41      -0.4989
    968 C5'        -9.7750  -14.9500   -8.0900 C.3      31   A41       0.0558
    969 C4'        -9.7930  -13.4530   -8.3480 C.3      31   A41       0.1065
    970 O4'       -11.1060  -13.0740   -8.8300 O.3      31   A41      -0.3548
    971 C3'        -9.5950  -12.5960   -7.1110 C.3      31   A41       0.2022
    972 O3'        -8.2070  -12.4220   -6.8220 O.3      31   A41      -0.5246
    973 C2'       -10.2570  -11.2850   -7.5230 C.3      31   A41       0.0670
    974 O2'        -9.4000  -10.4870   -8.3170 O.3      31   A41      -0.6139
    975 C1'       -11.4260  -11.7700   -8.3730 C.3      31   A41       0.0394
    976 N9        -12.7280  -11.8110   -7.7070 N.ar     31   A41      -0.0251
    977 C8        -13.4850  -12.9250   -7.4720 C.ar     31   A41       0.2006
    978 N7        -14.6270  -12.6740   -6.8780 N.ar     31   A41      -0.6073
    979 C5        -14.6260  -11.2990   -6.7240 C.ar     31   A41       0.0515
    980 C6        -15.5670  -10.4100   -6.1650 C.ar     31   A41       0.7009
    981 N6        -16.7300  -10.8140   -5.6400 N.pl3    31   A41      -0.9019
    982 N1        -15.2660   -9.0960   -6.1650 N.ar     31   A41      -0.7615
    983 C2        -14.0960   -8.7040   -6.6840 C.ar     31   A41       0.5875
    984 N3        -13.1350   -9.4470   -7.2400 N.ar     31   A41      -0.6997
    985 C4        -13.4660  -10.7490   -7.2320 C.ar     31   A41       0.3053
    986 H5'        -8.7858  -15.2460   -7.7409 H        31   A41       0.0679
    987 H5''      -10.0079  -15.4804   -9.0133 H        31   A41       0.0679
    988 H4'        -9.0404  -13.1998   -9.0947 H        31   A41       0.1174
    989 H3'       -10.1115  -13.0331   -6.2565 H        31   A41       0.0615
    990 H2'       -10.6092  -10.7334   -6.6513 H        31   A41       0.0972
    991 H1'       -11.5089  -11.1164   -9.2414 H        31   A41       0.2007
    992 H8        -13.1713  -13.9203   -7.7500 H        31   A41       0.1553
    993 H2        -13.9025   -7.6421   -6.6484 H        31   A41       0.0473
    994 HO2'       -8.9962   -9.8088   -7.7706 H        31   A41       0.4186
    995 H61       -16.9670  -11.7958   -5.6332 H        31   A41       0.4115
    996 H62       -17.3706  -10.1371   -5.2507 H        31   A41       0.4115
    997 P          -7.7040  -12.5440   -5.3070 P.3      32   G42       1.1662
    998 OP1        -6.2330  -12.7220   -5.3320 O.co2    32   G42      -0.7760
    999 OP2        -8.5560  -13.5610   -4.6460 O.co2    32   G42      -0.7760
   1000 O5'        -8.0130  -11.1200   -4.6540 O.3      32   G42      -0.4989
   1001 C5'        -7.5250   -9.9260   -5.2660 C.3      32   G42       0.0558
   1002 C4'        -8.3840   -8.7300   -4.8840 C.3      32   G42       0.1065
   1003 O4'        -9.7160   -8.8960   -5.4320 O.3      32   G42      -0.3548
   1004 C3'        -8.5850   -8.5260   -3.3890 C.3      32   G42       0.2022
   1005 O3'        -7.5580   -7.6950   -2.8640 O.3      32   G42      -0.5246
   1006 C2'        -9.9560   -7.8500   -3.3140 C.3      32   G42       0.0670
   1007 O2'        -9.8870   -6.4470   -3.4880 O.3      32   G42      -0.6139
   1008 C1'       -10.6900   -8.4900   -4.4870 C.3      32   G42       0.0191
   1009 N9        -11.5120   -9.6540   -4.1520 N.ar     32   G42       0.0492
   1010 C8        -11.1590  -10.9770   -4.2560 C.ar     32   G42       0.1374
   1011 N7        -12.1150  -11.7940   -3.9160 N.ar     32   G42      -0.5709
   1012 C5        -13.1720  -10.9670   -3.5640 C.ar     32   G42       0.1744
   1013 C6        -14.4740  -11.2880   -3.1030 C.2      32   G42       0.4770
   1014 O6        -14.9630  -12.4100   -2.9120 O.2      32   G42      -0.5597
   1015 N1        -15.2330  -10.1450   -2.8610 N.am     32   G42      -0.4787
   1016 C2        -14.7850   -8.8550   -3.0420 C.2      32   G42       0.7657
   1017 N2        -15.6500   -7.8700   -2.7630 N.pl3    32   G42      -0.9672
   1018 N3        -13.5670   -8.5430   -3.4660 N.2      32   G42      -0.6323
   1019 C4        -12.8170   -9.6450   -3.7070 C.ar     32   G42       0.1222
   1020 H5'        -6.5010   -9.7493   -4.9370 H        32   G42       0.0679
   1021 H5''       -7.5384  -10.0464   -6.3492 H        32   G42       0.0679
   1022 H4'        -7.9397   -7.8284   -5.3057 H        32   G42       0.1174
   1023 H3'        -8.6028   -9.4850   -2.8713 H        32   G42       0.0615
   1024 H2'       -10.4514   -8.0944   -2.3743 H        32   G42       0.0972
   1025 H1'       -11.3281   -7.7367   -4.9490 H        32   G42       0.2006
   1026 H8        -10.1854  -11.3074   -4.5868 H        32   G42       0.1640
   1027 H1        -16.1786  -10.2712   -2.5294 H        32   G42       0.3424
   1028 H21       -16.5803   -8.0918   -2.4382 H        32   G42       0.4364
   1029 H22       -15.3716   -6.9059   -2.8775 H        32   G42       0.4364
   1030 HO2'       -9.4234   -6.0543   -2.7447 H        32   G42       0.4186
   1031 P          -7.0400   -7.9120   -1.3640 P.3      33   A43       1.1662
   1032 OP1        -6.1460   -6.7840   -1.0310 O.co2    33   A43      -0.7760
   1033 OP2        -6.5600   -9.3050   -1.2310 O.co2    33   A43      -0.7760
   1034 O5'        -8.3810   -7.7830   -0.5070 O.3      33   A43      -0.4989
   1035 C5'        -8.9430   -6.5040   -0.2400 C.3      33   A43       0.0558
   1036 C4'        -9.3430   -6.4570    1.2170 C.3      33   A43       0.1065
   1037 O4'       -10.2760   -7.5360    1.4720 O.3      33   A43      -0.3548
   1038 C3'        -8.1860   -6.6580    2.1940 C.3      33   A43       0.2022
   1039 O3'        -8.2040   -5.6350    3.1710 O.3      33   A43      -0.5246
   1040 C2'        -8.4780   -8.0120    2.8340 C.3      33   A43       0.0670
   1041 O2'        -8.0750   -8.0690    4.1850 O.3      33   A43      -0.6139
   1042 C1'        -9.9960   -8.0590    2.7470 C.3      33   A43       0.0394
   1043 N9        -10.5350   -9.4110    2.8290 N.ar     33   A43      -0.0251
   1044 C8         -9.8750  -10.5780    2.5530 C.ar     33   A43       0.2006
   1045 N7        -10.6120  -11.6510    2.7210 N.ar     33   A43      -0.6073
   1046 C5        -11.8350  -11.1460    3.1390 C.ar     33   A43       0.0515
   1047 C6        -13.0490  -11.7670    3.4880 C.ar     33   A43       0.7009
   1048 N6        -13.2350  -13.0910    3.4740 N.pl3    33   A43      -0.9019
   1049 N1        -14.0710  -10.9680    3.8570 N.ar     33   A43      -0.7615
   1050 C2        -13.8960   -9.6410    3.8720 C.ar     33   A43       0.5875
   1051 N3        -12.8060   -8.9420    3.5770 N.ar     33   A43      -0.6997
   1052 C4        -11.8050   -9.7660    3.2080 C.ar     33   A43       0.3053
   1053 H5'        -9.8201   -6.3484   -0.8682 H        33   A43       0.0679
   1054 H5''       -8.2040   -5.7288   -0.4429 H        33   A43       0.0679
   1055 H4'        -9.8291   -5.5041    1.4261 H        33   A43       0.1174
   1056 H3'        -7.2318   -6.6752    1.6674 H        33   A43       0.0615
   1057 H2'        -8.0287   -8.8211    2.2581 H        33   A43       0.0972
   1058 H1'       -10.4380   -7.4290    3.5189 H        33   A43       0.2007
   1059 H8         -8.8457  -10.6126    2.2279 H        33   A43       0.1553
   1060 H2        -14.7583   -9.0598    4.1636 H        33   A43       0.0473
   1061 HO2'       -8.1303   -8.9749    4.4979 H        33   A43       0.4186
   1062 H61       -12.4771  -13.5150    2.9583 H        33   A43       0.4115
   1063 H62       -13.9333  -13.7427    3.8021 H        33   A43       0.4115
   1064 P          -6.9370   -4.6820    3.3800 P.3      34   A44       1.1662
   1065 OP1        -5.7150   -5.4080    2.9730 O.co2    34   A44      -0.7760
   1066 OP2        -7.0460   -4.1190    4.7450 O.co2    34   A44      -0.7760
   1067 O5'        -7.2500   -3.5290    2.3230 O.3      34   A44      -0.4989
   1068 C5'        -6.4620   -3.3560    1.1570 C.3      34   A44       0.0558
   1069 C4'        -6.6230   -1.9210    0.7010 C.3      34   A44       0.1065
   1070 O4'        -8.0420   -1.6320    0.6430 O.3      34   A44      -0.3548
   1071 C3'        -6.0140   -0.8950    1.6570 C.3      34   A44       0.2022
   1072 O3'        -5.3570    0.1470    0.9420 O.3      34   A44      -0.5246
   1073 C2'        -7.2270   -0.3730    2.4170 C.3      34   A44       0.0670
   1074 O2'        -7.0640    0.9520    2.8840 O.3      34   A44      -0.6139
   1075 C1'        -8.2870   -0.4220    1.3250 C.3      34   A44       0.0394
   1076 N9         -9.6450   -0.3950    1.8610 N.ar     34   A44      -0.0251
   1077 C8        -10.2300   -1.2900    2.7130 C.ar     34   A44       0.2006
   1078 N7        -11.4630   -0.9790    3.0430 N.ar     34   A44      -0.6073
   1079 C5        -11.6980    0.2090    2.3670 C.ar     34   A44       0.0515
   1080 C6        -12.8150    1.0640    2.2940 C.ar     34   A44       0.7009
   1081 N6        -13.9660    0.8410    2.9360 N.pl3    34   A44      -0.9019
   1082 N1        -12.7070    2.1680    1.5270 N.ar     34   A44      -0.7615
   1083 C2        -11.5600    2.4030    0.8800 C.ar     34   A44       0.5875
   1084 N3        -10.4450    1.6770    0.8710 N.ar     34   A44      -0.6997
   1085 C4        -10.5830    0.5850    1.6400 C.ar     34   A44       0.3053
   1086 H5'        -5.4151   -3.5582    1.3833 H        34   A44       0.0679
   1087 H5''       -6.8074   -4.0322    0.3750 H        34   A44       0.0679
   1088 H4'        -6.1852   -1.8015   -0.2900 H        34   A44       0.1174
   1089 H3'        -5.3188   -1.3812    2.3414 H        34   A44       0.0615
   1090 H2'        -7.4863   -1.0424    3.2372 H        34   A44       0.0972
   1091 H1'        -8.1472    0.4164    0.6426 H        34   A44       0.2007
   1092 H8         -9.7252   -2.1711    3.0807 H        34   A44       0.1553
   1093 H2        -11.5357    3.3037    0.2845 H        34   A44       0.0473
   1094 H61       -14.0703    0.0203    3.5154 H        34   A44       0.4115
   1095 H62       -14.7314    1.4932    2.8417 H        34   A44       0.4115
   1096 HO2'       -6.3939    0.9694    3.5712 H        34   A44       0.4186
   1097 P          -3.7950    0.0320    0.5930 P.3      35   A45       1.1662
   1098 OP1        -3.1960   -0.9890    1.4820 O.co2    35   A45      -0.7760
   1099 OP2        -3.2350    1.4020    0.5650 O.co2    35   A45      -0.7760
   1100 O5'        -3.8140   -0.5200   -0.9100 O.3      35   A45      -0.4989
   1101 C5'        -4.2550    0.3340   -1.9550 C.3      35   A45       0.0558
   1102 C4'        -4.4690   -0.4380   -3.2420 C.3      35   A45       0.1065
   1103 O4'        -5.6160   -1.3160   -3.0960 O.3      35   A45      -0.3548
   1104 C3'        -4.7740    0.4400   -4.4490 C.3      35   A45       0.2022
   1105 O3'        -3.5690    0.7860   -5.1220 O.3      35   A45      -0.5246
   1106 C2'        -5.6270   -0.4940   -5.2970 C.3      35   A45       0.0670
   1107 O2'        -4.8280   -1.4150   -6.0110 O.3      35   A45      -0.6139
   1108 C1'        -6.4510   -1.2190   -4.2340 C.3      35   A45       0.0394
   1109 N9         -7.6760   -0.5230   -3.8430 N.ar     35   A45      -0.0251
   1110 C8         -8.0290    0.7670   -4.1380 C.ar     35   A45       0.2006
   1111 N7         -9.1900    1.1280   -3.6460 N.ar     35   A45      -0.6073
   1112 C5         -9.6330   -0.0020   -2.9800 C.ar     35   A45       0.0515
   1113 C6        -10.8040   -0.2700   -2.2410 C.ar     35   A45       0.7009
   1114 N6        -11.7850    0.6240   -2.0540 N.pl3    35   A45      -0.9019
   1115 N1        -10.9320   -1.5010   -1.7050 N.ar     35   A45      -0.7615
   1116 C2         -9.9570   -2.3980   -1.8980 C.ar     35   A45       0.5875
   1117 N3         -8.8130   -2.2610   -2.5690 N.ar     35   A45      -0.6997
   1118 C4         -8.7110   -1.0280   -3.0890 C.ar     35   A45       0.3053
   1119 H5'        -5.1951    0.8002   -1.6599 H        35   A45       0.0679
   1120 H5''       -3.5079    1.1097   -2.1228 H        35   A45       0.0679
   1121 H4'        -3.5833   -1.0381   -3.4507 H        35   A45       0.1174
   1122 H3'        -5.3328    1.3296   -4.1584 H        35   A45       0.0615
   1123 H2'        -6.2704    0.0701   -5.9722 H        35   A45       0.0972
   1124 H1'        -6.6995   -2.2196   -4.5878 H        35   A45       0.2007
   1125 H8         -7.4070    1.4279   -4.7234 H        35   A45       0.1553
   1126 H2        -10.1196   -3.3662   -1.4480 H        35   A45       0.0473
   1127 HO2'       -4.9184   -1.2546   -6.9532 H        35   A45       0.4186
   1128 H61       -12.5952    0.1398   -1.6944 H        35   A45       0.4115
   1129 H62       -11.7243    1.6147   -2.2411 H        35   A45       0.4115
   1130 P          -3.0740    2.3060   -5.2100 P.3      36   U46       1.1662
   1131 OP1        -1.7740    2.3090   -5.9160 O.co2    36   U46      -0.7760
   1132 OP2        -3.1830    2.9110   -3.8640 O.co2    36   U46      -0.7760
   1133 O5'        -4.1710    2.9990   -6.1420 O.3      36   U46      -0.4989
   1134 C5'        -4.0830    2.8860   -7.5570 C.3      36   U46       0.0558
   1135 C4'        -5.4700    2.6900   -8.1390 C.3      36   U46       0.1065
   1136 O4'        -6.4060    2.5010   -7.0490 O.3      36   U46      -0.3548
   1137 C3'        -5.9800    3.8680   -8.9620 C.3      36   U46       0.2022
   1138 O3'        -6.2360    3.4890  -10.3270 O.3      36   U46      -0.5246
   1139 C2'        -7.2100    4.3890   -8.2120 C.3      36   U46       0.0670
   1140 O2'        -8.2960    4.7090   -9.0610 O.3      36   U46      -0.6139
   1141 C1'        -7.5860    3.2370   -7.2860 C.3      36   U46       0.0674
   1142 N1         -8.1240    3.6970   -5.9730 N.am     36   U46       0.0418
   1143 C2         -9.4730    3.5610   -5.7100 C.2      36   U46       0.4687
   1144 O2        -10.2600    3.0690   -6.5000 O.2      36   U46      -0.5477
   1145 N3         -9.8680    4.0200   -4.4760 N.am     36   U46      -0.3549
   1146 C4         -9.0640    4.5930   -3.5040 C.2      36   U46       0.5952
   1147 O4         -9.5580    4.9610   -2.4420 O.2      36   U46      -0.5761
   1148 C5         -7.6710    4.7050   -3.8550 C.2      36   U46      -0.3635
   1149 C6         -7.2640    4.2640   -5.0510 C.2      36   U46      -0.1126
   1150 H5'        -3.4576    2.0311   -7.8143 H        36   U46       0.0679
   1151 H5''       -3.6423    3.7947   -7.9671 H        36   U46       0.0679
   1152 H4'        -5.4687    1.7964   -8.7632 H        36   U46       0.1174
   1153 H3'        -5.2179    4.6473   -8.9577 H        36   U46       0.0615
   1154 H2'        -6.9367    5.2623   -7.6198 H        36   U46       0.0972
   1155 H1'        -8.3207    2.5993   -7.7776 H        36   U46       0.1824
   1156 H3        -10.8492    3.9299   -4.2542 H        36   U46       0.3154
   1157 H5         -6.9651    5.1389   -3.1623 H        36   U46       0.1811
   1158 H6         -6.2187    4.3549   -5.3070 H        36   U46       0.2188
   1159 HO2'       -8.6252    3.9083   -9.4759 H        36   U46       0.4186
   1160 P          -7.0870    2.1980  -10.7580 P.3      37   A47       1.1662
   1161 OP1        -6.9760    2.0950  -12.2310 O.co2    37   A47      -0.7760
   1162 OP2        -8.4250    2.2890  -10.1320 O.co2    37   A47      -0.7760
   1163 O5'        -6.3180    0.9520  -10.1050 O.3      37   A47      -0.4989
   1164 C5'        -6.0950   -0.2290  -10.8760 C.3      37   A47       0.0558
   1165 C4'        -6.1500   -1.4880  -10.0260 C.3      37   A47       0.1065
   1166 O4'        -6.3070   -1.1460   -8.6270 O.3      37   A47      -0.3548
   1167 C3'        -7.3120   -2.4240  -10.3260 C.3      37   A47       0.2022
   1168 O3'        -6.9990   -3.2830  -11.4140 O.3      37   A47      -0.5246
   1169 C2'        -7.4090   -3.2030   -9.0200 C.3      37   A47       0.0670
   1170 O2'        -6.4480   -4.2360   -8.9410 O.3      37   A47      -0.6139
   1171 C1'        -7.1150   -2.1210   -7.9860 C.3      37   A47       0.0394
   1172 N9         -8.3200   -1.4690   -7.4820 N.ar     37   A47      -0.0251
   1173 C8         -8.7570   -0.2080   -7.7790 C.ar     37   A47       0.2006
   1174 N7         -9.8770    0.1190   -7.1810 N.ar     37   A47      -0.6073
   1175 C5        -10.2000   -1.0060   -6.4420 C.ar     37   A47       0.0515
   1176 C6        -11.2780   -1.2990   -5.5840 C.ar     37   A47       0.7009
   1177 N6        -12.2670   -0.4360   -5.3260 N.pl3    37   A47      -0.9019
   1178 N1        -11.3020   -2.5170   -5.0020 N.ar     37   A47      -0.7615
   1179 C2        -10.3050   -3.3720   -5.2610 C.ar     37   A47       0.5875
   1180 N3         -9.2400   -3.2110   -6.0480 N.ar     37   A47      -0.6997
   1181 C4         -9.2470   -1.9940   -6.6130 C.ar     37   A47       0.3053
   1182 H5'        -6.8610   -0.2935  -11.6488 H        37   A47       0.0679
   1183 H5''       -5.1161   -0.1636  -11.3509 H        37   A47       0.0679
   1184 H4'        -5.2164   -2.0366  -10.1505 H        37   A47       0.1174
   1185 H3'        -8.2274   -1.8644  -10.5183 H        37   A47       0.0615
   1186 H2'        -8.4143   -3.6018   -8.8840 H        37   A47       0.0972
   1187 H1'        -6.5638   -2.5568   -7.1527 H        37   A47       0.2007
   1188 H8         -8.2281    0.4576   -8.4451 H        37   A47       0.1553
   1189 H2        -10.3725   -4.3275   -4.7621 H        37   A47       0.0473
   1190 H61       -12.9548   -0.6924   -4.6323 H        37   A47       0.4115
   1191 H62       -12.3243    0.4477   -5.8116 H        37   A47       0.4115
   1192 HO2'       -6.4705   -4.6273   -8.0647 H        37   A47       0.4186
   1193 P          -8.1470   -3.7590  -12.4220 P.3      38   C48       1.1662
   1194 OP1        -7.5060   -4.5090  -13.5250 O.co2    38   C48      -0.7760
   1195 OP2        -9.0010   -2.5870  -12.7160 O.co2    38   C48      -0.7760
   1196 O5'        -9.0170   -4.7760  -11.5400 O.3      38   C48      -0.4989
   1197 C5'        -8.4570   -6.0020  -11.0780 C.3      38   C48       0.0558
   1198 C4'        -9.3970   -6.6920  -10.1030 C.3      38   C48       0.1065
   1199 O4'        -9.5380   -5.8940   -8.8990 O.3      38   C48      -0.3548
   1200 C3'       -10.8270   -6.8720  -10.5860 C.3      38   C48       0.2022
   1201 O3'       -10.9350   -8.0280  -11.4030 O.3      38   C48      -0.5246
   1202 C2'       -11.5490   -7.0520   -9.2590 C.3      38   C48       0.0670
   1203 O2'       -11.3300   -8.3340   -8.6970 O.3      38   C48      -0.6139
   1204 C1'       -10.8650   -5.9860   -8.4100 C.3      38   C48       0.0066
   1205 N1        -11.5060   -4.6250   -8.4630 N.am     38   C48      -0.0484
   1206 C2        -12.5790   -4.3210   -7.6150 C.2      38   C48       0.7538
   1207 O2        -13.0020   -5.1830   -6.8320 O.2      38   C48      -0.6252
   1208 N3        -13.1330   -3.0820   -7.6730 N.2      38   C48      -0.7584
   1209 C4        -12.6590   -2.1680   -8.5230 C.2      38   C48       0.8185
   1210 N4        -13.2450   -0.9640   -8.5360 N.pl3    38   C48      -0.9530
   1211 C5        -11.5670   -2.4540   -9.3960 C.2      38   C48      -0.5215
   1212 C6        -11.0280   -3.6780   -9.3290 C.2      38   C48       0.0053
   1213 H5'        -8.2820   -6.6583  -11.9305 H        38   C48       0.0679
   1214 H5''       -7.5088   -5.7989  -10.5803 H        38   C48       0.0679
   1215 H4'        -8.9847   -7.6658   -9.8389 H        38   C48       0.1174
   1216 H3'       -11.1808   -5.9842  -11.1102 H        38   C48       0.0615
   1217 H2'       -12.6145   -6.8464   -9.3619 H        38   C48       0.0972
   1218 H1'       -10.8372   -6.3235   -7.3739 H        38   C48       0.2029
   1219 H5        -11.1898   -1.7120  -10.0841 H        38   C48       0.1928
   1220 H6        -10.1968   -3.9241   -9.9731 H        38   C48       0.1958
   1221 H41       -14.0180   -0.7719   -7.9150 H        38   C48       0.4234
   1222 H42       -12.9140   -0.2480   -9.1668 H        38   C48       0.4234
   1223 HO2'      -11.8884   -8.4446   -7.9240 H        38   C48       0.4186
   1224 P         -11.8930   -8.0200  -12.6830 P.3      39   C49       1.1662
   1225 OP1       -11.5780   -9.2270  -13.4770 O.co2    39   C49      -0.7760
   1226 OP2       -11.7950   -6.6830  -13.3070 O.co2    39   C49      -0.7760
   1227 O5'       -13.3610   -8.1740  -12.0680 O.3      39   C49      -0.4989
   1228 C5'       -13.6790   -9.2870  -11.2400 C.3      39   C49       0.0558
   1229 C4'       -14.9220   -9.0040  -10.4200 C.3      39   C49       0.1065
   1230 O4'       -14.6580   -7.9080   -9.5080 O.3      39   C49      -0.3548
   1231 C3'       -16.1160   -8.4990  -11.2150 C.3      39   C49       0.2022
   1232 O3'       -16.7750   -9.5550  -11.9080 O.3      39   C49      -0.5246
   1233 C2'       -16.9500   -7.8840  -10.0950 C.3      39   C49       0.0670
   1234 O2'       -17.6060   -8.8410   -9.2840 O.3      39   C49      -0.6139
   1235 C1'       -15.8580   -7.1840   -9.2910 C.3      39   C49       0.0066
   1236 N1        -15.6590   -5.7660   -9.7090 N.am     39   C49      -0.0484
   1237 C2        -16.5400   -4.7930   -9.2260 C.2      39   C49       0.7538
   1238 O2        -17.4490   -5.1360   -8.4670 O.2      39   C49      -0.6252
   1239 N3        -16.3760   -3.5040   -9.6060 N.2      39   C49      -0.7584
   1240 C4        -15.3840   -3.1750  -10.4310 C.2      39   C49       0.8185
   1241 N4        -15.2680   -1.8860  -10.7720 N.pl3    39   C49      -0.9530
   1242 C5        -14.4700   -4.1510  -10.9360 C.2      39   C49      -0.5215
   1243 C6        -14.6470   -5.4230  -10.5570 C.2      39   C49       0.0053
   1244 H5'       -12.8437   -9.4836  -10.5679 H        39   C49       0.0679
   1245 H5''      -13.8519  -10.1630  -11.8652 H        39   C49       0.0679
   1246 H4'       -15.2031   -9.8937   -9.8565 H        39   C49       0.1174
   1247 H3'       -15.8012   -7.7270  -11.9172 H        39   C49       0.0615
   1248 H2'       -17.6615   -7.1609  -10.4938 H        39   C49       0.0972
   1249 H1'       -16.1126   -7.2160   -8.2316 H        39   C49       0.2029
   1250 H5        -13.6650   -3.8723  -11.5999 H        39   C49       0.1928
   1251 H6        -13.9799   -6.1873  -10.9275 H        39   C49       0.1958
   1252 H41       -15.9198   -1.2064  -10.4068 H        39   C49       0.4234
   1253 H42       -14.5286   -1.5929  -11.3945 H        39   C49       0.4234
   1254 HO2'      -18.4195   -8.4654   -8.9394 H        39   C49       0.4186
   1255 P         -17.3650   -9.2810  -13.3720 P.3      40   C50       1.1662
   1256 OP1       -17.7480  -10.5820  -13.9570 O.co2    40   C50      -0.7760
   1257 OP2       -16.4260   -8.3910  -14.0870 O.co2    40   C50      -0.7760
   1258 O5'       -18.6920   -8.4400  -13.0700 O.3      40   C50      -0.4989
   1259 C5'       -19.7330   -9.0130  -12.2850 C.3      40   C50       0.0558
   1260 C4'       -20.6830   -7.9490  -11.7590 C.3      40   C50       0.1065
   1261 O4'       -19.9560   -6.9660  -10.9770 O.3      40   C50      -0.3548
   1262 C3'       -21.3990   -7.1150  -12.8110 C.3      40   C50       0.2022
   1263 O3'       -22.5040   -7.8280  -13.3600 O.3      40   C50      -0.5246
   1264 C2'       -21.8280   -5.9220  -11.9590 C.3      40   C50       0.0670
   1265 O2'       -22.9170   -6.2130  -11.1050 O.3      40   C50      -0.6139
   1266 C1'       -20.5670   -5.6940  -11.1280 C.3      40   C50       0.0066
   1267 N1        -19.6090   -4.7450  -11.7780 N.am     40   C50      -0.0484
   1268 C2        -19.8860   -3.3720  -11.7710 C.2      40   C50       0.7538
   1269 O2        -20.9120   -2.9610  -11.2180 O.2      40   C50      -0.6252
   1270 N3        -19.0170   -2.5210  -12.3650 N.2      40   C50      -0.7584
   1271 C4        -17.9170   -2.9900  -12.9560 C.2      40   C50       0.8185
   1272 N4        -17.0940   -2.1070  -13.5320 N.pl3    40   C50      -0.9530
   1273 C5        -17.6160   -4.3840  -12.9810 C.2      40   C50      -0.5215
   1274 C6        -18.4800   -5.2140  -12.3860 C.2      40   C50       0.0053
   1275 H5'       -19.2901   -9.5412  -11.4406 H        40   C50       0.0679
   1276 H5''      -20.2927   -9.7213  -12.8959 H        40   C50       0.0679
   1277 H4'       -21.4273   -8.4258  -11.1212 H        40   C50       0.1174
   1278 H3'       -20.7092   -6.8039  -13.5955 H        40   C50       0.0615
   1279 H2'       -22.0442   -5.0554  -12.5838 H        40   C50       0.0972
   1280 H1'       -20.8462   -5.3093  -10.1471 H        40   C50       0.2029
   1281 H5        -16.7236   -4.7556  -13.4625 H        40   C50       0.1928
   1282 H6        -18.2807   -6.2755  -12.3866 H        40   C50       0.1958
   1283 H41       -17.3149   -1.1217  -13.5098 H        40   C50       0.4234
   1284 H42       -16.2516   -2.4255  -13.9892 H        40   C50       0.4234
   1285 HO2'      -23.1113   -5.4463  -10.5609 H        40   C50       0.4186
   1286 P         -23.0830   -7.4550  -14.8090 P.3      41   G51       1.1662
   1287 OP1       -24.0820   -8.4800  -15.1780 O.co2    41   G51      -0.7760
   1288 OP2       -21.9360   -7.1970  -15.7070 O.co2    41   G51      -0.7760
   1289 O5'       -23.8390   -6.0670  -14.5630 O.3      41   G51      -0.4989
   1290 C5'       -25.0620   -6.0350  -13.8350 C.3      41   G51       0.0558
   1291 C4'       -25.6310   -4.6280  -13.8130 C.3      41   G51       0.1065
   1292 O4'       -24.6570   -3.7190  -13.2450 O.3      41   G51      -0.3548
   1293 C3'       -25.9350   -4.0420  -15.1810 C.3      41   G51       0.2022
   1294 O3'       -27.2280   -4.4440  -15.6070 O.3      41   G51      -0.5246
   1295 C2'       -25.8550   -2.5400  -14.9230 C.3      41   G51       0.0670
   1296 O2'       -27.0540   -2.0110  -14.3910 O.3      41   G51      -0.6139
   1297 C1'       -24.7400   -2.4570  -13.8830 C.3      41   G51       0.0191
   1298 N9        -23.4280   -2.1470  -14.4460 N.ar     41   G51       0.0492
   1299 C8        -22.4100   -3.0370  -14.6980 C.ar     41   G51       0.1374
   1300 N7        -21.3410   -2.4790  -15.1950 N.ar     41   G51      -0.5709
   1301 C5        -21.6710   -1.1310  -15.2750 C.ar     41   G51       0.1744
   1302 C6        -20.9070   -0.0340  -15.7390 C.2      41   G51       0.4770
   1303 O6        -19.7490   -0.0420  -16.1800 O.2      41   G51      -0.5597
   1304 N1        -21.6140    1.1640  -15.6550 N.am     41   G51      -0.4787
   1305 C2        -22.8990    1.2860  -15.1810 C.2      41   G51       0.7657
   1306 N2        -23.4140    2.5240  -15.1760 N.pl3    41   G51      -0.9672
   1307 N3        -23.6280    0.2650  -14.7420 N.2      41   G51      -0.6323
   1308 C4        -22.9520   -0.9090  -14.8190 C.ar     41   G51       0.1222
   1309 H5'       -24.8790   -6.3638  -12.8120 H        41   G51       0.0679
   1310 H5''      -25.7796   -6.7065  -14.3064 H        41   G51       0.0679
   1311 H4'       -26.5356   -4.6138  -13.2050 H        41   G51       0.1174
   1312 H3'       -25.1802   -4.3475  -15.9056 H        41   G51       0.0615
   1313 H2'       -25.5718   -2.0093  -15.8320 H        41   G51       0.0972
   1314 H1'       -24.9984   -1.6996  -13.1429 H        41   G51       0.2006
   1315 H8        -22.4884   -4.0964  -14.5030 H        41   G51       0.1640
   1316 H1        -21.1481    2.0047  -15.9652 H        41   G51       0.3424
   1317 H21       -22.8623    3.3018  -15.5088 H        41   G51       0.4364
   1318 H22       -24.3536    2.6787  -14.8394 H        41   G51       0.4364
   1319 HO2'      -27.7493   -2.0669  -15.0506 H        41   G51       0.4186
   1320 P         -27.4640   -4.7960  -17.1470 P.3      42   U52       1.1662
   1321 OP1       -26.3520   -5.6660  -17.5940 O.co2    42   U52      -0.7760
   1322 OP2       -27.7460   -3.5270  -17.8500 O.co2    42   U52      -0.7760
   1323 O5'       -28.8100   -5.6560  -17.1240 O.3      42   U52      -0.4989
   1324 C5'       -28.9310   -6.8050  -16.2980 C.3      42   U52       0.0558
   1325 C4'       -30.3930   -7.0550  -15.9770 C.3      42   U52       0.1065
   1326 O4'       -30.7410   -6.3490  -14.7590 O.3      42   U52      -0.3548
   1327 C3'       -31.3760   -6.5700  -17.0390 C.3      42   U52       0.2022
   1328 O3'       -32.4940   -7.4460  -17.1210 O.3      42   U52      -0.5246
   1329 C2'       -31.7810   -5.1930  -16.5190 C.3      42   U52       0.0670
   1330 O2'       -33.0650   -4.7990  -16.9610 O.3      42   U52      -0.6139
   1331 C1'       -31.7880   -5.4360  -15.0150 C.3      42   U52       0.0674
   1332 N1        -31.5460   -4.2120  -14.2050 N.am     42   U52       0.0418
   1333 C2        -32.6150   -3.6020  -13.5820 C.2      42   U52       0.4687
   1334 O2        -33.7570   -4.0190  -13.6640 O.2      42   U52      -0.5477
   1335 N3        -32.2970   -2.4800  -12.8550 N.am     42   U52      -0.3549
   1336 C4        -31.0400   -1.9220  -12.6940 C.2      42   U52       0.5952
   1337 O4        -30.9050   -0.9100  -12.0120 O.2      42   U52      -0.5761
   1338 C5        -29.9770   -2.6150  -13.3760 C.2      42   U52      -0.3635
   1339 C6        -30.2640   -3.7110  -14.0890 C.2      42   U52      -0.1126
   1340 H5'       -28.3795   -6.6444  -15.3716 H        42   U52       0.0679
   1341 H5''      -28.5210   -7.6705  -16.8186 H        42   U52       0.0679
   1342 H4'       -30.5420   -8.1233  -15.8202 H        42   U52       0.1174
   1343 H3'       -30.8834   -6.4848  -18.0076 H        42   U52       0.0615
   1344 H2'       -31.0345   -4.4448  -16.7857 H        42   U52       0.0972
   1345 H1'       -32.7387   -5.8824  -14.7235 H        42   U52       0.1824
   1346 H3        -33.0614   -2.0128  -12.3886 H        42   U52       0.3154
   1347 H5        -28.9609   -2.2547  -13.3128 H        42   U52       0.1811
   1348 H6        -29.4598   -4.2249  -14.5945 H        42   U52       0.2188
   1349 HO2'      -33.0457   -4.6496  -17.9091 H        42   U52       0.4186
   1350 P         -32.3240   -8.9460  -17.6560 P.3      43   A53       1.1662
   1351 OP1       -31.0450   -9.0430  -18.3950 O.co2    43   A53      -0.7760
   1352 OP2       -33.5850   -9.3220  -18.3330 O.co2    43   A53      -0.7760
   1353 O5'       -32.2190   -9.7870  -16.2970 O.3      43   A53      -0.4989
   1354 C5'       -31.2830  -10.8520  -16.1720 C.3      43   A53       0.0558
   1355 C4'       -30.7100  -10.9390  -14.7660 C.3      43   A53       0.1065
   1356 O4'       -30.2850   -9.6370  -14.3010 O.3      43   A53      -0.3548
   1357 C3'       -31.6560  -11.4390  -13.6770 C.3      43   A53       0.2022
   1358 O3'       -31.4290  -12.8240  -13.4360 O.3      43   A53      -0.5246
   1359 C2'       -31.3030  -10.6050  -12.4410 C.3      43   A53       0.0670
   1360 O2'       -30.9240  -11.4080  -11.3380 O.3      43   A53      -0.6139
   1361 C1'       -30.1150   -9.7680  -12.9070 C.3      43   A53       0.0394
   1362 N9        -30.0130   -8.4460  -12.2910 N.ar     43   A53      -0.0251
   1363 C8        -28.8570   -7.8000  -11.9470 C.ar     43   A53       0.2006
   1364 N7        -29.0460   -6.6200  -11.4060 N.ar     43   A53      -0.6073
   1365 C5        -30.4230   -6.4810  -11.3920 C.ar     43   A53       0.0515
   1366 C6        -31.2630   -5.4450  -10.9390 C.ar     43   A53       0.7009
   1367 N6        -30.8050   -4.3130  -10.3950 N.pl3    43   A53      -0.9019
   1368 N1        -32.5950   -5.6190  -11.0680 N.ar     43   A53      -0.7615
   1369 C2        -33.0460   -6.7540  -11.6160 C.ar     43   A53       0.5875
   1370 N3        -32.3550   -7.7950  -12.0760 N.ar     43   A53      -0.6997
   1371 C4        -31.0360   -7.5960  -11.9340 C.ar     43   A53       0.3053
   1372 H5'       -31.7839  -11.7911  -16.4073 H        43   A53       0.0679
   1373 H5''      -30.4687  -10.6955  -16.8795 H        43   A53       0.0679
   1374 H4'       -29.8396  -11.5946  -14.7909 H        43   A53       0.1174
   1375 H3'       -32.6929  -11.2687  -13.9668 H        43   A53       0.0615
   1376 H2'       -32.1378   -9.9589  -12.1695 H        43   A53       0.0972
   1377 H1'       -29.1955  -10.3204  -12.7132 H        43   A53       0.2007
   1378 H8        -27.8765   -8.2237  -12.1066 H        43   A53       0.1553
   1379 H2        -34.1198   -6.8368  -11.6962 H        43   A53       0.0473
   1380 HO2'      -31.1779  -10.9715  -10.5216 H        43   A53       0.4186
   1381 H61       -29.8141   -4.2569  -10.2077 H        43   A53       0.4115
   1382 H62       -31.4247   -3.5450  -10.1800 H        43   A53       0.4115
   1383 P         -32.5250  -13.9040  -13.8730 P.3      44   U54       1.1662
   1384 OP1       -32.0970  -14.4770  -15.1690 O.co2    44   U54      -0.7760
   1385 OP2       -33.8590  -13.2770  -13.7460 O.co2    44   U54      -0.7760
   1386 O5'       -32.4040  -15.0330  -12.7450 O.3      44   U54      -0.4989
   1387 C5'       -32.0320  -14.6880  -11.4140 C.3      44   U54       0.0558
   1388 C4'       -31.1250  -15.7520  -10.8200 C.3      44   U54       0.1065
   1389 O4'       -31.7780  -17.0430  -10.9150 O.3      44   U54      -0.3548
   1390 C3'       -29.7720  -15.8950  -11.5120 C.3      44   U54       0.2022
   1391 O3'       -28.7110  -15.7190  -10.5750 O.3      44   U54      -0.5246
   1392 C2'       -29.7720  -17.3080  -12.0900 C.3      44   U54       0.0670
   1393 O2'       -28.5140  -17.9370  -11.9460 O.3      44   U54      -0.6139
   1394 C1'       -30.8160  -18.0220  -11.2400 C.3      44   U54       0.0674
   1395 N1        -31.4940  -19.1410  -11.9570 N.am     44   U54       0.0418
   1396 C2        -31.0610  -20.4360  -11.7550 C.2      44   U54       0.4687
   1397 O2        -30.1430  -20.7270  -11.0090 O.2      44   U54      -0.5477
   1398 N3        -31.7480  -21.3910  -12.4640 N.am     44   U54      -0.3549
   1399 C4        -32.8020  -21.1860  -13.3360 C.2      44   U54       0.5952
   1400 O4        -33.3210  -22.1440  -13.9010 O.2      44   U54      -0.5761
   1401 C5        -33.1950  -19.8090  -13.4930 C.2      44   U54      -0.3635
   1402 C6        -32.5400  -18.8610  -12.8140 C.2      44   U54      -0.1126
   1403 H5'       -32.9300  -14.6006  -10.8024 H        44   U54       0.0679
   1404 H5''      -31.5080  -13.7322  -11.4229 H        44   U54       0.0679
   1405 H4'       -30.9573  -15.5213   -9.7680 H        44   U54       0.1174
   1406 H3'       -29.6850  -15.1635  -12.3154 H        44   U54       0.0615
   1407 H2'       -30.0753  -17.2935  -13.1369 H        44   U54       0.0972
   1408 H1'       -30.3522  -18.3979  -10.3280 H        44   U54       0.1824
   1409 H3        -31.4511  -22.3476  -12.3344 H        44   U54       0.3154
   1410 H5        -34.0093  -19.5452  -14.1515 H        44   U54       0.1811
   1411 H6        -32.8422  -17.8320  -12.9415 H        44   U54       0.2188
   1412 HO2'      -27.8221  -17.2716  -11.9381 H        44   U54       0.4186
   1413 P         -27.4570  -14.7930  -10.9500 P.3      45   C55       1.1662
   1414 OP1       -27.2060  -13.9060   -9.7920 O.co2    45   C55      -0.7760
   1415 OP2       -27.7090  -14.2090  -12.2880 O.co2    45   C55      -0.7760
   1416 O5'       -26.2400  -15.8300  -11.0910 O.3      45   C55      -0.4989
   1417 C5'       -25.0070  -15.4240  -11.6950 C.3      45   C55       0.0558
   1418 C4'       -24.0800  -14.8030  -10.6620 C.3      45   C55       0.1065
   1419 O4'       -22.6900  -15.1150  -10.9580 O.3      45   C55      -0.3548
   1420 C3'       -24.1470  -13.2820  -10.5530 C.3      45   C55       0.2022
   1421 O3'       -24.0550  -12.9330   -9.1790 O.3      45   C55      -0.5246
   1422 C2'       -22.9020  -12.8510  -11.3220 C.3      45   C55       0.0670
   1423 O2'       -22.4480  -11.5570  -10.9740 O.3      45   C55      -0.6139
   1424 C1'       -21.9400  -13.9220  -10.8270 C.3      45   C55       0.0066
   1425 N1        -20.6640  -14.0210  -11.5990 N.am     45   C55      -0.0484
   1426 C2        -19.6900  -14.9590  -11.2250 C.2      45   C55       0.7538
   1427 O2        -19.9000  -15.7050  -10.2580 O.2      45   C55      -0.6252
   1428 N3        -18.5370  -15.0290  -11.9390 N.2      45   C55      -0.7584
   1429 C4        -18.3400  -14.2100  -12.9750 C.2      45   C55       0.8185
   1430 N4        -17.1880  -14.3150  -13.6470 N.pl3    45   C55      -0.9530
   1431 C5        -19.3170  -13.2470  -13.3680 C.2      45   C55      -0.5215
   1432 C6        -20.4490  -13.1870  -12.6600 C.2      45   C55       0.0053
   1433 H5'       -24.5204  -16.2948  -12.1344 H        45   C55       0.0679
   1434 H5''      -25.2133  -14.6942  -12.4779 H        45   C55       0.0679
   1435 H4'       -24.3240  -15.2256   -9.6873 H        45   C55       0.1174
   1436 H3'       -25.0557  -12.8870  -11.0072 H        45   C55       0.0615
   1437 H2'       -23.0590  -12.9338  -12.3975 H        45   C55       0.0972
   1438 H1'       -21.7148  -13.7489   -9.7747 H        45   C55       0.2029
   1439 H5        -19.1476  -12.5897  -14.2081 H        45   C55       0.1928
   1440 H6        -21.2069  -12.4670  -12.9311 H        45   C55       0.1958
   1441 H41       -16.4995  -14.9982  -13.3654 H        45   C55       0.4234
   1442 H42       -17.0067  -13.7110  -14.4360 H        45   C55       0.4234
   1443 HO2'      -23.2000  -11.0013  -10.7563 H        45   C55       0.4186
   1444 P         -24.5310  -11.5040   -8.6380 P.3      46   A56       1.1662
   1445 OP1       -25.7150  -11.7210   -7.7750 O.co2    46   A56      -0.7760
   1446 OP2       -24.6150  -10.5750   -9.7850 O.co2    46   A56      -0.7760
   1447 O5'       -23.2910  -11.0600   -7.7250 O.3      46   A56      -0.4989
   1448 C5'       -21.9480  -11.3190   -8.1430 C.3      46   A56       0.0558
   1449 C4'       -21.0890  -10.0740   -7.9930 C.3      46   A56       0.1065
   1450 O4'       -21.6270   -9.0010   -8.8060 O.3      46   A56      -0.3548
   1451 C3'       -21.0420   -9.4830   -6.5920 C.3      46   A56       0.2022
   1452 O3'       -20.0540  -10.1290   -5.8070 O.3      46   A56      -0.5246
   1453 C2'       -20.6440   -8.0450   -6.8940 C.3      46   A56       0.0670
   1454 O2'       -19.2800   -7.9300   -7.2430 O.3      46   A56      -0.6139
   1455 C1'       -21.5100   -7.7690   -8.1130 C.3      46   A56       0.0394
   1456 N9        -22.8390   -7.2510   -7.7910 N.ar     46   A56      -0.0251
   1457 C8        -24.0100   -7.9550   -7.7460 C.ar     46   A56       0.2006
   1458 N7        -25.0560   -7.2280   -7.4300 N.ar     46   A56      -0.6073
   1459 C5        -24.5370   -5.9550   -7.2620 C.ar     46   A56       0.0515
   1460 C6        -25.1330   -4.7250   -6.9180 C.ar     46   A56       0.7009
   1461 N6        -26.4440   -4.5820   -6.6870 N.pl3    46   A56      -0.9019
   1462 N1        -24.3290   -3.6440   -6.8290 N.ar     46   A56      -0.7615
   1463 C2        -23.0200   -3.7900   -7.0700 C.ar     46   A56       0.5875
   1464 N3        -22.3480   -4.8950   -7.3940 N.ar     46   A56      -0.6997
   1465 C4        -23.1700   -5.9530   -7.4740 C.ar     46   A56       0.3053
   1466 H5'       -21.9519  -11.6270   -9.1886 H        46   A56       0.0679
   1467 H5''      -21.5298  -12.1201   -7.5336 H        46   A56       0.0679
   1468 H4'       -20.0740  -10.2976   -8.3214 H        46   A56       0.1174
   1469 H3'       -22.0194   -9.5290   -6.1117 H        46   A56       0.0615
   1470 H2'       -20.8992   -7.3812   -6.0679 H        46   A56       0.0972
   1471 H1'       -20.9978   -7.0514   -8.7540 H        46   A56       0.2007
   1472 H8        -24.0690   -9.0136   -7.9518 H        46   A56       0.1553
   1473 H2        -22.4279   -2.8902   -6.9912 H        46   A56       0.0473
   1474 H61       -27.1283   -3.8483   -6.5713 H        46   A56       0.4115
   1475 H62       -26.8845   -5.4869   -6.6023 H        46   A56       0.4115
   1476 HO2'      -19.0607   -7.0048   -7.3755 H        46   A56       0.4186
   1477 P         -20.4830  -10.9240   -4.4890 P.3      47   C57       1.1662
   1478 OP1       -19.2440  -11.4240   -3.8540 O.co2    47   C57      -0.7760
   1479 OP2       -21.5740  -11.8500   -4.8550 O.co2    47   C57      -0.7760
   1480 O5'       -21.1440   -9.8000   -3.5530 O.3      47   C57      -0.4989
   1481 C5'       -20.4510   -8.5960   -3.2570 C.3      47   C57       0.0558
   1482 C4'       -21.4310   -7.4760   -2.9520 C.3      47   C57       0.1065
   1483 O4'       -22.2280   -7.1900   -4.1330 O.3      47   C57      -0.3548
   1484 C3'       -22.4770   -7.7930   -1.8910 C.3      47   C57       0.2022
   1485 O3'       -21.9520   -7.6580   -0.5760 O.3      47   C57      -0.5246
   1486 C2'       -23.5030   -6.7100   -2.2080 C.3      47   C57       0.0670
   1487 O2'       -23.0630   -5.4200   -1.8360 O.3      47   C57      -0.6139
   1488 C1'       -23.5370   -6.8120   -3.7270 C.3      47   C57       0.0066
   1489 N1        -24.5350   -7.8100   -4.2330 N.am     47   C57      -0.0484
   1490 C2        -25.8840   -7.4450   -4.3180 C.2      47   C57       0.7538
   1491 O2        -26.2190   -6.3050   -3.9650 O.2      47   C57      -0.6252
   1492 N3        -26.7820   -8.3510   -4.7830 N.2      47   C57      -0.7584
   1493 C4        -26.3730   -9.5660   -5.1530 C.2      47   C57       0.8185
   1494 N4        -27.2860  -10.4240   -5.6160 N.pl3    47   C57      -0.9530
   1495 C5        -25.0040   -9.9550   -5.0720 C.2      47   C57      -0.5215
   1496 C6        -24.1300   -9.0550   -4.6120 C.2      47   C57       0.0053
   1497 H5'       -19.8406   -8.3140   -4.1149 H        47   C57       0.0679
   1498 H5''      -19.8059   -8.7551   -2.3929 H        47   C57       0.0679
   1499 H4'       -20.8799   -6.5815   -2.6615 H        47   C57       0.1174
   1500 H3'       -22.8985   -8.7866   -2.0430 H        47   C57       0.0615
   1501 H2'       -24.4745   -6.9412   -1.7711 H        47   C57       0.0972
   1502 H1'       -23.7702   -5.8325   -4.1444 H        47   C57       0.2029
   1503 H5        -24.6845  -10.9422   -5.3718 H        47   C57       0.1928
   1504 H6        -23.0852   -9.3185   -4.5393 H        47   C57       0.1958
   1505 H41       -28.2553  -10.1466   -5.6756 H        47   C57       0.4234
   1506 H42       -27.0071  -11.3502   -5.9065 H        47   C57       0.4234
   1507 HO2'      -22.3627   -5.1370   -2.4285 H        47   C57       0.4186
   1508 P         -22.4400   -8.6380    0.5920 P.3      48   C58       1.1662
   1509 OP1       -21.4080   -8.6290    1.6490 O.co2    48   C58      -0.7760
   1510 OP2       -22.8570   -9.9140   -0.0280 O.co2    48   C58      -0.7760
   1511 O5'       -23.7580   -7.9430    1.1750 O.3      48   C58      -0.4989
   1512 C5'       -23.7630   -6.5540    1.5290 C.3      48   C58       0.0558
   1513 C4'       -25.1920   -6.0440    1.6240 C.3      48   C58       0.1065
   1514 O4'       -25.8040   -6.0700    0.3080 O.3      48   C58      -0.3548
   1515 C3'       -26.1300   -6.8730    2.4970 C.3      48   C58       0.2022
   1516 O3'       -26.0500   -6.4290    3.8490 O.3      48   C58      -0.5246
   1517 C2'       -27.4810   -6.5010    1.8970 C.3      48   C58       0.0670
   1518 O2'       -27.8750   -5.1990    2.2770 O.3      48   C58      -0.6139
   1519 C1'       -27.1570   -6.4710    0.4130 C.3      48   C58       0.0066
   1520 N1        -27.3960   -7.7540   -0.3230 N.am     48   C58      -0.0484
   1521 C2        -28.7160   -8.1280   -0.6040 C.2      48   C58       0.7538
   1522 O2        -29.6440   -7.4160   -0.2070 O.2      48   C58      -0.6252
   1523 N3        -28.9450   -9.2700   -1.2870 N.2      48   C58      -0.7584
   1524 C4        -27.9170  -10.0170   -1.6960 C.2      48   C58       0.8185
   1525 N4        -28.2020  -11.1240   -2.3780 N.pl3    48   C58      -0.9530
   1526 C5        -26.5630   -9.6540   -1.4330 C.2      48   C58      -0.5215
   1527 C6        -26.3520   -8.5210   -0.7500 C.2      48   C58       0.0053
   1528 H5'       -23.2699   -6.4259    2.4926 H        48   C58       0.0679
   1529 H5''      -23.2260   -5.9855    0.7697 H        48   C58       0.0679
   1530 H4'       -25.1797   -5.0175    1.9903 H        48   C58       0.1174
   1531 H3'       -25.9278   -7.9404    2.4087 H        48   C58       0.0615
   1532 H2'       -28.2464   -7.2411    2.1305 H        48   C58       0.0972
   1533 H1'       -27.7725   -5.6993   -0.0493 H        48   C58       0.2029
   1534 H5        -25.7410  -10.2677   -1.7708 H        48   C58       0.1928
   1535 H6        -25.3404   -8.2103   -0.5343 H        48   C58       0.1958
   1536 H41       -29.1641  -11.3699   -2.5624 H        48   C58       0.4234
   1537 H42       -27.4562  -11.7180   -2.7111 H        48   C58       0.4234
   1538 HO2'      -28.8050   -5.2028    2.5150 H        48   C58       0.4186
   1539 P         -26.4710   -7.3730    5.0730 P.3      49   U59       1.1662
   1540 OP1       -26.0700   -6.6730    6.3130 O.co2    49   U59      -0.7760
   1541 OP2       -26.0020   -8.7500    4.8060 O.co2    49   U59      -0.7760
   1542 O5'       -28.0650   -7.4090    4.9920 O.3      49   U59      -0.4989
   1543 C5'       -28.8490   -6.2360    5.1740 C.3      49   U59       0.0558
   1544 C4'       -30.3060   -6.6240    5.0160 C.3      49   U59       0.1065
   1545 O4'       -30.5360   -7.0480    3.6480 O.3      49   U59      -0.3548
   1546 C3'       -30.7080   -7.8180    5.8700 C.3      49   U59       0.2022
   1547 O3'       -31.1460   -7.3710    7.1550 O.3      49   U59      -0.5246
   1548 C2'       -31.8390   -8.4460    5.0640 C.3      49   U59       0.0670
   1549 O2'       -33.0810   -7.8210    5.3260 O.3      49   U59      -0.6139
   1550 C1'       -31.4270   -8.1500    3.6250 C.3      49   U59       0.0674
   1551 N1        -30.7890   -9.2700    2.8540 N.am     49   U59       0.0418
   1552 C2        -31.5850  -10.2230    2.2470 C.2      49   U59       0.4687
   1553 O2        -32.7980  -10.2470    2.3290 O.2      49   U59      -0.5477
   1554 N3        -30.9050  -11.1750    1.5360 N.am     49   U59      -0.3549
   1555 C4        -29.5400  -11.2670    1.3650 C.2      49   U59       0.5952
   1556 O4        -29.0840  -12.1850    0.6950 O.2      49   U59      -0.5761
   1557 C5        -28.7720  -10.2390    2.0190 C.2      49   U59      -0.3635
   1558 C6        -29.4150   -9.3000    2.7200 C.2      49   U59      -0.1126
   1559 H5'       -28.5805   -5.4907    4.4253 H        49   U59       0.0679
   1560 H5''      -28.6815   -5.8321    6.1725 H        49   U59       0.0679
   1561 H4'       -30.9429   -5.7711    5.2504 H        49   U59       0.1174
   1562 H3'       -29.8759   -8.5150    5.9700 H        49   U59       0.0615
   1563 H2'       -31.8963   -9.5199    5.2415 H        49   U59       0.0972
   1564 H1'       -32.3204   -7.8416    3.0820 H        49   U59       0.1824
   1565 H3        -31.4639  -11.8872    1.0882 H        49   U59       0.3154
   1566 H5        -27.6947  -10.2271    1.9443 H        49   U59       0.1811
   1567 H6        -28.8332   -8.5294    3.2038 H        49   U59       0.2188
   1568 HO2'      -33.5970   -8.3703    5.9207 H        49   U59       0.4186
   1569 P         -30.7410   -8.1920    8.4680 P.3      50   G60       1.1662
   1570 OP1       -31.0740   -7.3700    9.6490 O.co2    50   G60      -0.7760
   1571 OP2       -29.3590   -8.6910    8.2830 O.co2    50   G60      -0.7760
   1572 O5'       -31.7060   -9.4700    8.4250 O.3      50   G60      -0.4989
   1573 C5'       -33.1120   -9.3430    8.6050 C.3      50   G60       0.0558
   1574 C4'       -33.8120  -10.6230    8.1780 C.3      50   G60       0.1065
   1575 O4'       -33.6180  -10.7960    6.7500 O.3      50   G60      -0.3548
   1576 C3'       -33.2670  -11.9030    8.8010 C.3      50   G60       0.2022
   1577 O3'       -33.9810  -12.2240    9.9800 O.3      50   G60      -0.5246
   1578 C2'       -33.5730  -12.9460    7.7320 C.3      50   G60       0.0670
   1579 O2'       -34.9020  -13.4150    7.8280 O.3      50   G60      -0.6139
   1580 C1'       -33.4000  -12.1600    6.4390 C.3      50   G60       0.0191
   1581 N9        -32.0780  -12.2990    5.8360 N.ar     50   G60       0.0492
   1582 C8        -30.9380  -11.6210    6.1930 C.ar     50   G60       0.1374
   1583 N7        -29.9010  -11.9280    5.4720 N.ar     50   G60      -0.5709
   1584 C5        -30.3860  -12.8790    4.5880 C.ar     50   G60       0.1744
   1585 C6        -29.7100  -13.5820    3.5710 C.2      50   G60       0.4770
   1586 O6        -28.5270  -13.4610    3.2670 O.2      50   G60      -0.5597
   1587 N1        -30.5370  -14.4630    2.8820 N.am     50   G60      -0.4787
   1588 C2        -31.8740  -14.6300    3.1550 C.2      50   G60       0.7657
   1589 N2        -32.5300  -15.5210    2.3970 N.pl3    50   G60      -0.9672
   1590 N3        -32.5220  -13.9750    4.1110 N.2      50   G60      -0.6323
   1591 C4        -31.7190  -13.1220    4.7910 C.ar     50   G60       0.1222
   1592 H5'       -33.3245   -9.1497    9.6565 H        50   G60       0.0679
   1593 H5''      -33.4798   -8.5119    8.0032 H        50   G60       0.0679
   1594 H4'       -34.8778  -10.5415    8.3915 H        50   G60       0.1174
   1595 H3'       -32.1962  -11.8293    8.9910 H        50   G60       0.0615
   1596 H2'       -32.8646  -13.7729    7.7818 H        50   G60       0.0972
   1597 H1'       -34.1535  -12.4856    5.7219 H        50   G60       0.2006
   1598 H8        -30.9063  -10.9007    6.9971 H        50   G60       0.1640
   1599 H1        -30.1315  -15.0121    2.1376 H        50   G60       0.3424
   1600 H21       -32.0403  -16.0237    1.6707 H        50   G60       0.4364
   1601 H22       -33.5137  -15.6892    2.5525 H        50   G60       0.4364
   1602 HO2'      -35.0090  -13.9101    8.6435 H        50   G60       0.4186
   1603 P         -33.4500  -11.8440   11.4390 P.3      51   A61       1.1662
   1604 OP1       -33.9060  -12.9130   12.3540 O.co2    51   A61      -0.7760
   1605 OP2       -33.8210  -10.4380   11.7070 O.co2    51   A61      -0.7760
   1606 O5'       -31.8590  -11.9060   11.3240 O.3      51   A61      -0.4989
   1607 C5'       -31.0690  -11.6860   12.4880 C.3      51   A61       0.0558
   1608 C4'       -29.5880  -11.7700   12.1670 C.3      51   A61       0.1065
   1609 O4'       -29.2870  -13.0410   11.5360 O.3      51   A61      -0.3548
   1610 C3'       -29.0770  -10.7020   11.2090 C.3      51   A61       0.2022
   1611 O3'       -27.7180  -10.4130   11.4970 O.3      51   A61      -0.5246
   1612 C2'       -29.1960  -11.3890    9.8530 C.3      51   A61       0.0670
   1613 O2'       -28.2800  -10.8690    8.9060 O.3      51   A61      -0.6139
   1614 C1'       -28.8490  -12.8330   10.2040 C.3      51   A61       0.0394
   1615 N9        -29.5300  -13.7930    9.3400 N.ar     51   A61      -0.0251
   1616 C8        -30.7650  -14.3400    9.5460 C.ar     51   A61       0.2006
   1617 N7        -31.1460  -15.1630    8.6010 N.ar     51   A61      -0.6073
   1618 C5        -30.0890  -15.1550    7.7090 C.ar     51   A61       0.0515
   1619 C6        -29.8770  -15.8300    6.4910 C.ar     51   A61       0.7009
   1620 N6        -30.7650  -16.6710    5.9520 N.pl3    51   A61      -0.9019
   1621 N1        -28.7150  -15.6030    5.8490 N.ar     51   A61      -0.7615
   1622 C2        -27.8280  -14.7550    6.3900 C.ar     51   A61       0.5875
   1623 N3        -27.9140  -14.0670    7.5280 N.ar     51   A61      -0.6997
   1624 C4        -29.0830  -14.3100    8.1440 C.ar     51   A61       0.3053
   1625 H5'       -31.2911  -10.6963   12.8870 H        51   A61       0.0679
   1626 H5''      -31.3167  -12.4383   13.2369 H        51   A61       0.0679
   1627 H4'       -29.0252  -11.7012   13.0979 H        51   A61       0.1174
   1628 H3'       -29.6916   -9.8029   11.2532 H        51   A61       0.0615
   1629 H2'       -30.2167  -11.3205    9.4768 H        51   A61       0.0972
   1630 H1'       -27.7707  -12.9797   10.1421 H        51   A61       0.2007
   1631 H8        -31.3722  -14.1141   10.4101 H        51   A61       0.1553
   1632 H2        -26.9187  -14.6097    5.8256 H        51   A61       0.0473
   1633 HO2'      -28.6454  -10.0748    8.5093 H        51   A61       0.4186
   1634 H61       -30.2192  -16.7576    5.1066 H        51   A61       0.4115
   1635 H62       -31.6397  -17.0656    6.2670 H        51   A61       0.4115
   1636 P         -27.3270   -9.4390   12.7040 P.3      52   U62       1.1662
   1637 OP1       -28.5320   -8.6750   13.0980 O.co2    52   U62      -0.7760
   1638 OP2       -26.0840   -8.7360   12.3150 O.co2    52   U62      -0.7760
   1639 O5'       -26.9650  -10.4650   13.8760 O.3      52   U62      -0.4989
   1640 C5'       -25.9960  -11.4860   13.6720 C.3      52   U62       0.0558
   1641 C4'       -26.0150  -12.4840   14.8190 C.3      52   U62       0.1065
   1642 O4'       -25.8490  -11.7940   16.0830 O.3      52   U62      -0.3548
   1643 C3'       -27.3000  -13.2860   14.9760 C.3      52   U62       0.2022
   1644 O3'       -26.9930  -14.5390   15.5700 O.3      52   U62      -0.5246
   1645 C2'       -28.1010  -12.4290   15.9470 C.3      52   U62       0.0670
   1646 O2'       -29.0730  -13.1800   16.6500 O.3      52   U62      -0.6139
   1647 C1'       -26.9920  -11.9920   16.8940 C.3      52   U62       0.0674
   1648 N1        -27.2730  -10.7250   17.6200 N.am     52   U62       0.0418
   1649 C2        -27.3350  -10.7320   19.0000 C.2      52   U62       0.4687
   1650 O2        -27.1730  -11.7330   19.6740 O.2      52   U62      -0.5477
   1651 N3        -27.5890   -9.5080   19.5690 N.am     52   U62      -0.3549
   1652 C4        -27.7810   -8.3070   18.9070 C.2      52   U62       0.5952
   1653 O4        -28.0020   -7.2860   19.5480 O.2      52   U62      -0.5761
   1654 C5        -27.7030   -8.3830   17.4730 C.2      52   U62      -0.3635
   1655 C6        -27.4530   -9.5630   16.8970 C.2      52   U62      -0.1126
   1656 H5'       -26.2170  -12.0076   12.7407 H        52   U62       0.0679
   1657 H5''      -25.0063  -11.0342   13.6049 H        52   U62       0.0679
   1658 H4'       -25.1848  -13.1785   14.6899 H        52   U62       0.1174
   1659 H3'       -27.8177  -13.4074   14.0245 H        52   U62       0.0615
   1660 H2'       -28.5504  -11.5738   15.4423 H        52   U62       0.0972
   1661 H1'       -26.7941  -12.7868   17.6132 H        52   U62       0.1824
   1662 H3        -27.6413   -9.4810   20.5773 H        52   U62       0.3154
   1663 H5        -27.8445   -7.4985   16.8696 H        52   U62       0.1811
   1664 H6        -27.3891   -9.6092   15.8199 H        52   U62       0.2188
   1665 HO2'      -29.7676  -13.4509   16.0453 H        52   U62       0.4186
   1666 P         -26.8850  -15.8580   14.6770 P.3      53   C63       1.1662
   1667 OP1       -27.0190  -17.0140   15.5940 O.co2    53   C63      -0.7760
   1668 OP2       -25.7000  -15.7440   13.8020 O.co2    53   C63      -0.7760
   1669 O5'       -28.1920  -15.7670   13.7610 O.3      53   C63      -0.4989
   1670 C5'       -29.4810  -15.9390   14.3570 C.3      53   C63       0.0558
   1671 C4'       -30.3230  -16.8970   13.5380 C.3      53   C63       0.1065
   1672 O4'       -30.3890  -16.4220   12.1700 O.3      53   C63      -0.3548
   1673 C3'       -29.7590  -18.3040   13.3990 C.3      53   C63       0.2022
   1674 O3'       -30.0700  -19.1040   14.5360 O.3      53   C63      -0.5246
   1675 C2'       -30.4980  -18.7880   12.1570 C.3      53   C63       0.0670
   1676 O2'       -31.8250  -19.1900   12.4330 O.3      53   C63      -0.6139
   1677 C1'       -30.5010  -17.5310   11.2960 C.3      53   C63       0.0066
   1678 N1        -29.3840  -17.5110   10.3190 N.am     53   C63      -0.0484
   1679 C2        -29.4700  -18.3220    9.1810 C.2      53   C63       0.7538
   1680 O2        -30.4710  -19.0330    9.0180 O.2      53   C63      -0.6252
   1681 N3        -28.4480  -18.3080    8.2940 N.2      53   C63      -0.7584
   1682 C4        -27.3830  -17.5340    8.5100 C.2      53   C63       0.8185
   1683 N4        -26.4030  -17.5570    7.6010 N.pl3    53   C63      -0.9530
   1684 C5        -27.2750  -16.7040    9.6660 C.2      53   C63      -0.5215
   1685 C6        -28.2880  -16.7250   10.5390 C.2      53   C63       0.0053
   1686 H5'       -29.9840  -14.9733   14.4076 H        53   C63       0.0679
   1687 H5''      -29.3615  -16.3361   15.3651 H        53   C63       0.0679
   1688 H4'       -31.3286  -16.9469   13.9555 H        53   C63       0.1174
   1689 H3'       -28.6833  -18.2764   13.2254 H        53   C63       0.0615
   1690 H2'       -29.9457  -19.5900   11.6672 H        53   C63       0.0972
   1691 H1'       -31.4472  -17.4683   10.7584 H        53   C63       0.2029
   1692 H5        -26.4074  -16.0820    9.8297 H        53   C63       0.1928
   1693 H6        -28.2393  -16.1137   11.4280 H        53   C63       0.1958
   1694 H41       -26.4848  -18.1466    6.7850 H        53   C63       0.4234
   1695 H42       -25.5808  -16.9848    7.7302 H        53   C63       0.4234
   1696 HO2'      -32.2815  -19.3735   11.6087 H        53   C63       0.4186
   1697 P         -29.0680  -20.2750   14.9680 P.3      54   U64       1.1662
   1698 OP1       -29.5370  -20.8170   16.2620 O.co2    54   U64      -0.7760
   1699 OP2       -27.6820  -19.7750   14.8290 O.co2    54   U64      -0.7760
   1700 O5'       -29.2750  -21.3800   13.8280 O.3      54   U64      -0.4989
   1701 C5'       -30.4990  -22.0940   13.7120 C.3      54   U64       0.0558
   1702 C4'       -30.4470  -23.0070   12.5020 C.3      54   U64       0.1065
   1703 O4'       -30.3200  -22.2250   11.2840 O.3      54   U64      -0.3548
   1704 C3'       -29.2380  -23.9240   12.4470 C.3      54   U64       0.2022
   1705 O3'       -29.4210  -25.0430   13.3040 O.3      54   U64      -0.5246
   1706 C2'       -29.2620  -24.3180   10.9770 C.3      54   U64       0.0670
   1707 O2'       -30.2910  -25.2480   10.6950 O.3      54   U64      -0.6139
   1708 C1'       -29.5840  -22.9740   10.3310 C.3      54   U64       0.0674
   1709 N1        -28.3690  -22.2010    9.9220 N.am     54   U64       0.0418
   1710 C2        -27.7170  -22.5450    8.7540 C.2      54   U64       0.4687
   1711 O2        -28.0810  -23.4570    8.0310 O.2      54   U64      -0.5477
   1712 N3        -26.6180  -21.7760    8.4520 N.am     54   U64      -0.3549
   1713 C4        -26.1150  -20.7220    9.1930 C.2      54   U64       0.5952
   1714 O4        -25.1150  -20.1240    8.8010 O.2      54   U64      -0.5761
   1715 C5        -26.8460  -20.4260   10.3980 C.2      54   U64      -0.3635
   1716 C6        -27.9210  -21.1590   10.7090 C.2      54   U64      -0.1126
   1717 H5'       -30.6559  -22.6917   14.6099 H        54   U64       0.0679
   1718 H5''      -31.3214  -21.3877   13.5982 H        54   U64       0.0679
   1719 H4'       -31.3581  -23.6037   12.4575 H        54   U64       0.1174
   1720 H3'       -28.3238  -23.3845   12.6946 H        54   U64       0.0615
   1721 H2'       -28.2910  -24.6912   10.6513 H        54   U64       0.0972
   1722 H1'       -30.2086  -23.1429    9.4538 H        54   U64       0.1824
   1723 H3        -26.1265  -22.0047    7.5998 H        54   U64       0.3154
   1724 H5        -26.5296  -19.6204   11.0440 H        54   U64       0.1811
   1725 H6        -28.4615  -20.9256   11.6144 H        54   U64       0.2188
   1726 HO2'      -30.0821  -26.0909   11.1042 H        54   U64       0.4186
   1727 P         -28.1500  -25.6660   14.0430 P.3      55   G65       1.1662
   1728 OP1       -28.6330  -26.6120   15.0710 O.co2    55   G65      -0.7760
   1729 OP2       -27.2470  -24.5540   14.4180 O.co2    55   G65      -0.7760
   1730 O5'       -27.4360  -26.4940   12.8780 O.3      55   G65      -0.4989
   1731 C5'       -27.7760  -27.8550   12.6660 C.3      55   G65       0.0558
   1732 C4'       -27.1310  -28.3640   11.3910 C.3      55   G65       0.1065
   1733 O4'       -27.3550  -27.4200   10.3110 O.3      55   G65      -0.3548
   1734 C3'       -25.6170  -28.4820   11.4250 C.3      55   G65       0.2022
   1735 O3'       -25.1930  -29.6360   12.1480 O.3      55   G65      -0.5246
   1736 C2'       -25.3420  -28.5860    9.9310 C.3      55   G65       0.0670
   1737 O2'       -25.7210  -29.8330    9.3860 O.3      55   G65      -0.6139
   1738 C1'       -26.2610  -27.4870    9.4130 C.3      55   G65       0.0191
   1739 N9        -25.5640  -26.2040    9.3840 N.ar     55   G65       0.0492
   1740 C8        -25.6990  -25.1470   10.2510 C.ar     55   G65       0.1374
   1741 N7        -24.9090  -24.1450    9.9660 N.ar     55   G65      -0.5709
   1742 C5        -24.1990  -24.5780    8.8510 C.ar     55   G65       0.1744
   1743 C6        -23.1960  -23.9250    8.0990 C.2      55   G65       0.4770
   1744 O6        -22.7310  -22.7920    8.2790 O.2      55   G65      -0.5597
   1745 N1        -22.7390  -24.7130    7.0440 N.am     55   G65      -0.4787
   1746 C2        -23.1920  -25.9820    6.7610 C.2      55   G65       0.7657
   1747 N2        -22.6340  -26.5950    5.7060 N.pl3    55   G65      -0.9672
   1748 N3        -24.1320  -26.6070    7.4600 N.2      55   G65      -0.6323
   1749 C4        -24.5860  -25.8460    8.4860 C.ar     55   G65       0.1222
   1750 H5'       -27.4243  -28.4493   13.5093 H        55   G65       0.0679
   1751 H5''      -28.8590  -27.9483   12.5851 H        55   G65       0.0679
   1752 H4'       -27.5641  -29.3284   11.1254 H        55   G65       0.1174
   1753 H3'       -25.1678  -27.5793   11.8391 H        55   G65       0.0615
   1754 H2'       -24.2988  -28.3618    9.7081 H        55   G65       0.0972
   1755 H1'       -26.6156  -27.7397    8.4138 H        55   G65       0.2006
   1756 H8        -26.3875  -25.1440   11.0831 H        55   G65       0.1640
   1757 H1        -22.0246  -24.3255    6.4444 H        55   G65       0.3424
   1758 H21       -21.9198  -26.1249    5.1684 H        55   G65       0.4364
   1759 H22       -22.9281  -27.5265    5.4494 H        55   G65       0.4364
   1760 HO2'      -25.1367  -30.5186    9.7179 H        55   G65       0.4186
   1761 P         -23.8740  -29.5560   13.0540 P.3      56   G66       1.1662
   1762 OP1       -23.8660  -30.7500   13.9270 O.co2    56   G66      -0.7760
   1763 OP2       -23.8050  -28.2030   13.6500 O.co2    56   G66      -0.7760
   1764 O5'       -22.6760  -29.6660   12.0010 O.3      56   G66      -0.4989
   1765 C5'       -22.5850  -30.7740   11.1170 C.3      56   G66       0.0558
   1766 C4'       -21.6520  -30.4470    9.9660 C.3      56   G66       0.1065
   1767 O4'       -22.1190  -29.2670    9.2600 O.3      56   G66      -0.3548
   1768 C3'       -20.2400  -30.0550   10.3660 C.3      56   G66       0.2022
   1769 O3'       -19.4740  -31.2020   10.7050 O.3      56   G66      -0.5246
   1770 C2'       -19.7730  -29.4170    9.0660 C.3      56   G66       0.0670
   1771 O2'       -19.5190  -30.3790    8.0650 O.3      56   G66      -0.6139
   1772 C1'       -21.0040  -28.5980    8.6910 C.3      56   G66       0.0191
   1773 N9        -20.9490  -27.2160    9.1730 N.ar     56   G66       0.0492
   1774 C8        -21.6960  -26.6560   10.1810 C.ar     56   G66       0.1374
   1775 N7        -21.4200  -25.3990   10.3960 N.ar     56   G66      -0.5709
   1776 C5        -20.4220  -25.1040    9.4720 C.ar     56   G66       0.1744
   1777 C6        -19.7360  -23.8900    9.2240 C.2      56   G66       0.4770
   1778 O6        -19.8720  -22.8040    9.8040 O.2      56   G66      -0.5597
   1779 N1        -18.7970  -24.0190    8.2000 N.am     56   G66      -0.4787
   1780 C2        -18.5680  -25.1750    7.4930 C.2      56   G66       0.7657
   1781 N2        -17.6250  -25.1150    6.5390 N.pl3    56   G66      -0.9672
   1782 N3        -19.2100  -26.3190    7.7150 N.2      56   G66      -0.6323
   1783 C4        -20.1230  -26.2100    8.7110 C.ar     56   G66       0.1222
   1784 H5'       -22.1994  -31.6372   11.6595 H        56   G66       0.0679
   1785 H5''      -23.5752  -31.0061   10.7250 H        56   G66       0.0679
   1786 H4'       -21.6138  -31.2913    9.2777 H        56   G66       0.1174
   1787 H3'       -20.2474  -29.3307   11.1805 H        56   G66       0.0615
   1788 H2'       -18.9061  -28.7766    9.2285 H        56   G66       0.0972
   1789 H1'       -21.1094  -28.5918    7.6061 H        56   G66       0.2006
   1790 H8        -22.4397  -27.2033   10.7412 H        56   G66       0.1640
   1791 H1        -18.2472  -23.2060    7.9617 H        56   G66       0.3424
   1792 H21       -17.1315  -24.2501    6.3704 H        56   G66       0.4364
   1793 H22       -17.4092  -25.9348    5.9900 H        56   G66       0.4364
   1794 HO2'      -18.7440  -30.8928    8.3036 H        56   G66       0.4186
   1795 P         -18.3110  -31.0840   11.7970 P.3      57   A67       1.1662
   1796 OP1       -17.8090  -32.4500   12.0600 O.co2    57   A67      -0.7760
   1797 OP2       -18.8010  -30.2470   12.9160 O.co2    57   A67      -0.7760
   1798 O5'       -17.1830  -30.2470   11.0330 O.3      57   A67      -0.4989
   1799 C5'       -16.2900  -30.9040   10.1400 C.3      57   A67       0.0558
   1800 C4'       -15.5310  -29.8940    9.2970 C.3      57   A67       0.1065
   1801 O4'       -16.4420  -28.8980    8.7710 O.3      57   A67      -0.3548
   1802 C3'       -14.4930  -29.0680   10.0390 C.3      57   A67       0.2022
   1803 O3'       -13.2860  -29.7960   10.1860 O.3      57   A67      -0.5246
   1804 C2'       -14.3350  -27.9050    9.0690 C.3      57   A67       0.0670
   1805 O2'       -13.6310  -28.2770    7.9000 O.3      57   A67      -0.6139
   1806 C1'       -15.7980  -27.6340    8.7400 C.3      57   A67       0.0394
   1807 N9        -16.4400  -26.7420    9.7050 N.ar     57   A67      -0.0251
   1808 C8        -17.3590  -27.0820   10.6620 C.ar     57   A67       0.2006
   1809 N7        -17.7650  -26.0690   11.3920 N.ar     57   A67      -0.6073
   1810 C5        -17.0570  -24.9910   10.8870 C.ar     57   A67       0.0515
   1811 C6        -17.0360  -23.6220   11.2300 C.ar     57   A67       0.7009
   1812 N6        -17.7800  -23.1000   12.2120 N.pl3    57   A67      -0.9019
   1813 N1        -16.2230  -22.8110   10.5240 N.ar     57   A67      -0.7615
   1814 C2        -15.4820  -23.3370    9.5420 C.ar     57   A67       0.5875
   1815 N3        -15.4180  -24.6020    9.1260 N.ar     57   A67      -0.6997
   1816 C4        -16.2360  -25.3870    9.8470 C.ar     57   A67       0.3053
   1817 H5'       -15.5783  -31.4948   10.7167 H        57   A67       0.0679
   1818 H5''      -16.8580  -31.5645    9.4849 H        57   A67       0.0679
   1819 H4'       -15.0493  -30.4113    8.4672 H        57   A67       0.1174
   1820 H3'       -14.8716  -28.7303   11.0037 H        57   A67       0.0615
   1821 H2'       -13.8721  -27.0453    9.5534 H        57   A67       0.0972
   1822 H1'       -15.8755  -27.2080    7.7397 H        57   A67       0.2007
   1823 H8        -17.7170  -28.0911   10.8032 H        57   A67       0.1553
   1824 H2        -14.8481  -22.6406    9.0132 H        57   A67       0.0473
   1825 H61       -18.3948  -23.6939   12.7500 H        57   A67       0.4115
   1826 H62       -17.7268  -22.1121   12.4153 H        57   A67       0.4115
   1827 HO2'      -12.7116  -28.4450    8.1194 H        57   A67       0.4186
   1828 P         -12.4350  -29.6720   11.5350 P.3      58   U68       1.1662
   1829 OP1       -11.2840  -30.5970   11.4300 O.co2    58   U68      -0.7760
   1830 OP2       -13.3640  -29.7690   12.6820 O.co2    58   U68      -0.7760
   1831 O5'       -11.9050  -28.1650   11.4650 O.3      58   U68      -0.4989
   1832 C5'       -10.9260  -27.8000   10.5020 C.3      58   U68       0.0558
   1833 C4'       -10.7880  -26.2910   10.4470 C.3      58   U68       0.1065
   1834 O4'       -12.1030  -25.6880   10.3610 O.3      58   U68      -0.3548
   1835 C3'       -10.2030  -25.6570   11.6970 C.3      58   U68       0.2022
   1836 O3'        -8.7850  -25.7800   11.7130 O.3      58   U68      -0.5246
   1837 C2'       -10.6640  -24.2110   11.5350 C.3      58   U68       0.0670
   1838 O2'        -9.8340  -23.4740   10.6610 O.3      58   U68      -0.6139
   1839 C1'       -12.0570  -24.3900   10.9280 C.3      58   U68       0.0674
   1840 N1        -13.1430  -24.2750   11.9410 N.am     58   U68       0.0418
   1841 C2        -13.5540  -23.0200   12.3440 C.2      58   U68       0.4687
   1842 O2        -13.0850  -21.9870   11.9030 O.2      58   U68      -0.5477
   1843 N3        -14.5470  -23.0150   13.2870 N.am     58   U68      -0.3549
   1844 C4        -15.1550  -24.1160   13.8630 C.2      58   U68       0.5952
   1845 O4        -16.0340  -23.9500   14.6980 O.2      58   U68      -0.5761
   1846 C5        -14.6700  -25.3910   13.3980 C.2      58   U68      -0.3635
   1847 C6        -13.7040  -25.4200   12.4740 C.2      58   U68      -0.1126
   1848 H5'       -11.2281  -28.1704    9.5224 H        58   U68       0.0679
   1849 H5''       -9.9675  -28.2411   10.7756 H        58   U68       0.0679
   1850 H4'       -10.1949  -26.0068    9.5778 H        58   U68       0.1174
   1851 H3'       -10.6375  -26.1010   12.5926 H        58   U68       0.0615
   1852 H2'       -10.7298  -23.7193   12.5056 H        58   U68       0.0972
   1853 H1'       -12.2102  -23.6466   10.1457 H        58   U68       0.1824
   1854 H3        -14.8705  -22.1093   13.5954 H        58   U68       0.3154
   1855 H5        -15.0808  -26.3096   13.7902 H        58   U68       0.1811
   1856 H6        -13.3469  -26.3792   12.1295 H        58   U68       0.2188
   1857 HO2'       -9.7504  -22.5731   10.9820 H        58   U68       0.4186
   1858 P          -8.0670  -26.2050   13.0780 P.3      59   A69       1.1662
   1859 OP1        -6.6630  -26.5690   12.7800 O.co2    59   A69      -0.7760
   1860 OP2        -8.9480  -27.1730   13.7710 O.co2    59   A69      -0.7760
   1861 O5'        -8.0850  -24.8390   13.9070 O.3      59   A69      -0.4989
   1862 C5'        -7.9090  -24.8410   15.3150 C.3      59   A69       0.0558
   1863 C4'        -7.9540  -23.4160   15.8310 C.3      59   A69       0.1065
   1864 O4'        -6.8130  -22.6920   15.3110 O.3      59   A69      -0.3548
   1865 C3'        -9.1650  -22.6240   15.3650 C.3      59   A69       0.2022
   1866 O3'       -10.2240  -22.7960   16.2940 O.3      59   A69      -0.5246
   1867 C2'        -8.6520  -21.1850   15.3600 C.3      59   A69       0.0670
   1868 O2'        -8.7080  -20.5890   16.6410 O.3      59   A69      -0.6139
   1869 C1'        -7.1930  -21.3710   14.9670 C.3      59   A69       0.0394
   1870 N9         -6.8670  -21.1320   13.5630 N.ar     59   A69      -0.0251
   1871 C8         -6.4200  -22.0670   12.6700 C.ar     59   A69       0.2006
   1872 N7         -6.1640  -21.5850   11.4790 N.ar     59   A69      -0.6073
   1873 C5         -6.4480  -20.2340   11.6000 C.ar     59   A69       0.0515
   1874 C6         -6.3680  -19.1700   10.6810 C.ar     59   A69       0.7009
   1875 N6         -5.9650  -19.3280    9.4140 N.pl3    59   A69      -0.9019
   1876 N1         -6.7320  -17.9440   11.1120 N.ar     59   A69      -0.7615
   1877 C2         -7.1280  -17.7990   12.3840 C.ar     59   A69       0.5875
   1878 N3         -7.2370  -18.7230   13.3420 N.ar     59   A69      -0.6997
   1879 C4         -6.8760  -19.9340   12.8820 C.ar     59   A69       0.3053
   1880 H5'        -8.7060  -25.4212   15.7800 H        59   A69       0.0679
   1881 H5''       -6.9447  -25.2861   15.5602 H        59   A69       0.0679
   1882 H4'        -7.9179  -23.4208   16.9204 H        59   A69       0.1174
   1883 H3'        -9.4704  -22.9320   14.3650 H        59   A69       0.0615
   1884 H2'        -9.1828  -20.5820   14.6233 H        59   A69       0.0972
   1885 H1'        -6.5962  -20.6855   15.5687 H        59   A69       0.2007
   1886 H8         -6.2899  -23.1086   12.9239 H        59   A69       0.1553
   1887 H2         -7.3966  -16.7943   12.6751 H        59   A69       0.0473
   1888 HO2'       -7.9517  -20.0094   16.7581 H        59   A69       0.4186
   1889 H61        -5.6957  -20.2423    9.0800 H        59   A69       0.4115
   1890 H62        -5.9303  -18.5328    8.7922 H        59   A69       0.4115
   1891 P         -11.7400  -22.9390   15.7990 P.3      60   A70       1.1662
   1892 OP1       -12.5640  -23.2080   16.9950 O.co2    60   A70      -0.7760
   1893 OP2       -11.7660  -23.8770   14.6570 O.co2    60   A70      -0.7760
   1894 O5'       -12.0960  -21.4840   15.2420 O.3      60   A70      -0.4989
   1895 C5'       -12.1270  -20.3670   16.1200 C.3      60   A70       0.0558
   1896 C4'       -12.1940  -19.0790   15.3210 C.3      60   A70       0.1065
   1897 O4'       -10.9370  -18.8580   14.6300 O.3      60   A70      -0.3548
   1898 C3'       -13.2440  -19.0670   14.2220 C.3      60   A70       0.2022
   1899 O3'       -14.5060  -18.7080   14.7750 O.3      60   A70      -0.5246
   1900 C2'       -12.6950  -17.9750   13.3120 C.3      60   A70       0.0670
   1901 O2'       -12.9760  -16.6850   13.8140 O.3      60   A70      -0.6139
   1902 C1'       -11.1930  -18.2350   13.3840 C.3      60   A70       0.0394
   1903 N9        -10.6690  -19.0700   12.3040 N.ar     60   A70      -0.0251
   1904 C8        -10.4850  -20.4250   12.3180 C.ar     60   A70       0.2006
   1905 N7         -9.9780  -20.9050   11.2050 N.ar     60   A70      -0.6073
   1906 C5         -9.8150  -19.7830   10.4080 C.ar     60   A70       0.0515
   1907 C6         -9.3160  -19.6190    9.1020 C.ar     60   A70       0.7009
   1908 N6         -8.8870  -20.6430    8.3540 N.pl3    60   A70      -0.9019
   1909 N1         -9.2780  -18.3670    8.5960 N.ar     60   A70      -0.7615
   1910 C2         -9.7160  -17.3520    9.3550 C.ar     60   A70       0.5875
   1911 N3        -10.2050  -17.3880   10.5970 N.ar     60   A70      -0.6997
   1912 C4        -10.2310  -18.6450   11.0690 C.ar     60   A70       0.3053
   1913 H5'       -11.2255  -20.3648   16.7327 H        60   A70       0.0679
   1914 H5''      -13.0026  -20.4383   16.7652 H        60   A70       0.0679
   1915 H4'       -12.3789  -18.2469   16.0003 H        60   A70       0.1174
   1916 H3'       -13.2931  -20.0267   13.7076 H        60   A70       0.0615
   1917 H2'       -13.0652  -18.0895   12.2932 H        60   A70       0.0972
   1918 H1'       -10.6744  -17.2765   13.3632 H        60   A70       0.2007
   1919 H8        -10.7339  -21.0444   13.1670 H        60   A70       0.1553
   1920 H2         -9.6666  -16.3735    8.9005 H        60   A70       0.0473
   1921 HO2'      -12.3213  -16.0640   13.4864 H        60   A70       0.4186
   1922 H61        -8.5018  -20.1552    7.5579 H        60   A70       0.4115
   1923 H62        -8.9355  -21.6352    8.5365 H        60   A70       0.4115
   1924 P         -15.8840  -19.1720   14.1040 P.3      61   U71       1.1662
   1925 OP1       -16.9640  -18.8610   15.0700 O.co2    61   U71      -0.7760
   1926 OP2       -15.7450  -20.5560   13.5950 O.co2    61   U71      -0.7760
   1927 O5'       -16.0180  -18.1720   12.8620 O.3      61   U71      -0.4989
   1928 C5'       -16.2600  -16.7910   13.1100 C.3      61   U71       0.0558
   1929 C4'       -15.9650  -15.9550   11.8780 C.3      61   U71       0.1065
   1930 O4'       -14.5910  -16.1370   11.4630 O.3      61   U71      -0.3548
   1931 C3'       -16.7700  -16.3260   10.6440 C.3      61   U71       0.2022
   1932 O3'       -18.0570  -15.7360   10.7530 O.3      61   U71      -0.5246
   1933 C2'       -15.9110  -15.6960    9.5470 C.3      61   U71       0.0670
   1934 O2'       -16.1220  -14.3060    9.3860 O.3      61   U71      -0.6139
   1935 C1'       -14.4970  -15.9610   10.0630 C.3      61   U71       0.0674
   1936 N1        -13.8750  -17.1720    9.4520 N.am     61   U71       0.0418
   1937 C2        -13.0200  -17.0170    8.3780 C.2      61   U71       0.4687
   1938 O2        -12.7220  -15.9340    7.9070 O.2      61   U71      -0.5477
   1939 N3        -12.5140  -18.1860    7.8700 N.am     61   U71      -0.3549
   1940 C4        -12.7660  -19.4680    8.3200 C.2      61   U71       0.5952
   1941 O4        -12.2340  -20.4180    7.7570 O.2      61   U71      -0.5761
   1942 C5        -13.6680  -19.5530    9.4400 C.2      61   U71      -0.3635
   1943 C6        -14.1790  -18.4260    9.9510 C.2      61   U71      -0.1126
   1944 H5'       -17.3052  -16.6573   13.3889 H        61   U71       0.0679
   1945 H5''      -15.6245  -16.4573   13.9303 H        61   U71       0.0679
   1946 H4'       -16.1319  -14.9034   12.1110 H        61   U71       0.1174
   1947 H3'       -16.8375  -17.4073   10.5240 H        61   U71       0.0615
   1948 H2'       -16.0697  -16.2132    8.6007 H        61   U71       0.0972
   1949 H1'       -13.8715  -15.0934    9.8531 H        61   U71       0.1824
   1950 H3        -11.8891  -18.1007    7.0811 H        61   U71       0.3154
   1951 H5        -13.9284  -20.5126    9.8616 H        61   U71       0.1811
   1952 H6        -14.8573  -18.4989   10.7883 H        61   U71       0.2188
   1953 HO2'      -16.2570  -14.1079    8.4564 H        61   U71       0.4186
   1954 P         -19.3270  -16.2860    9.9550 P.3      62   G72       1.1662
   1955 OP1       -20.4800  -15.4700   10.3970 O.co2    62   G72      -0.7760
   1956 OP2       -19.3820  -17.7590   10.0680 O.co2    62   G72      -0.7760
   1957 O5'       -18.9790  -15.9140    8.4410 O.3      62   G72      -0.4989
   1958 C5'       -19.7350  -16.4590    7.3720 C.3      62   G72       0.0558
   1959 C4'       -19.6380  -15.5630    6.1530 C.3      62   G72       0.1065
   1960 O4'       -20.3890  -14.3390    6.3710 O.3      62   G72      -0.3548
   1961 C3'       -18.2410  -15.0470    5.8530 C.3      62   G72       0.2022
   1962 O3'       -17.4570  -16.0240    5.1950 O.3      62   G72      -0.5246
   1963 C2'       -18.5750  -13.8990    4.9170 C.3      62   G72       0.0670
   1964 O2'       -18.9320  -14.3670    3.6290 O.3      62   G72      -0.6139
   1965 C1'       -19.7710  -13.2880    5.6450 C.3      62   G72       0.0191
   1966 N9        -19.3710  -12.2050    6.5450 N.ar     62   G72       0.0492
   1967 C8        -19.1070  -12.2580    7.8970 C.ar     62   G72       0.1374
   1968 N7        -18.7520  -11.1040    8.4030 N.ar     62   G72      -0.5709
   1969 C5        -18.7860  -10.2310    7.3200 C.ar     62   G72       0.1744
   1970 C6        -18.5070   -8.8420    7.2360 C.2      62   G72       0.4770
   1971 O6        -18.1570   -8.0680    8.1370 O.2      62   G72      -0.5597
   1972 N1        -18.6580   -8.3560    5.9370 N.am     62   G72      -0.4787
   1973 C2        -19.0330   -9.1170    4.8540 C.2      62   G72       0.7657
   1974 N2        -19.1300   -8.4900    3.6730 N.pl3    62   G72      -0.9672
   1975 N3        -19.3050  -10.4110    4.9220 N.2      62   G72      -0.6323
   1976 C4        -19.1580  -10.8990    6.1760 C.ar     62   G72       0.1222
   1977 H5'       -20.7786  -16.5428    7.6751 H        62   G72       0.0679
   1978 H5''      -19.3500  -17.4483    7.1248 H        62   G72       0.0679
   1979 H4'       -20.0318  -16.0852    5.2810 H        62   G72       0.1174
   1980 H3'       -17.7492  -14.6891    6.7575 H        62   G72       0.0615
   1981 H2'       -17.7494  -13.1897    4.8594 H        62   G72       0.0972
   1982 H1'       -20.4758  -12.8993    4.9100 H        62   G72       0.2006
   1983 H8        -19.1854  -13.1628    8.4814 H        62   G72       0.1640
   1984 H1        -18.4791   -7.3744    5.7803 H        62   G72       0.3424
   1985 H21       -18.9283   -7.5025    3.6074 H        62   G72       0.4364
   1986 H22       -19.4048   -9.0051    2.8488 H        62   G72       0.4364
   1987 HO2'      -18.1379  -14.5143    3.1101 H        62   G72       0.4186
   1988 P         -15.8860  -15.7790    4.9990 P.3      63   C73       1.1662
   1989 OP1       -15.2940  -15.5120    6.3280 O.co2    63   C73      -0.7760
   1990 OP2       -15.6880  -14.8200    3.8950 O.co2    63   C73      -0.7760
   1991 O5'       -15.4410  -17.2290    4.5070 O.3      63   C73      -0.4989
   1992 C5'       -14.1780  -17.4990    3.9420 C.3      63   C73       0.0558
   1993 C4'       -14.0660  -19.0030    3.7910 C.3      63   C73       0.1065
   1994 O4'       -13.8840  -19.5800    5.1100 O.3      63   C73      -0.3548
   1995 C3'       -15.3230  -19.6860    3.2650 C.3      63   C73       0.2022
   1996 O3'       -15.3690  -19.6710    1.8410 O.3      63   C73      -0.5246
   1997 C2'       -15.1370  -21.0960    3.8140 C.3      63   C73       0.0670
   1998 O2'       -14.1860  -21.8420    3.0800 O.3      63   C73      -0.6139
   1999 C1'       -14.6070  -20.7950    5.2120 C.3      63   C73       0.0066
   2000 N1        -15.6890  -20.6420    6.2360 N.am     63   C73      -0.0484
   2001 C2        -16.4040  -21.7700    6.6570 C.2      63   C73       0.7538
   2002 O2        -16.1340  -22.8800    6.1820 O.2      63   C73      -0.6252
   2003 N3        -17.3840  -21.6190    7.5760 N.2      63   C73      -0.7584
   2004 C4        -17.6610  -20.4170    8.0770 C.2      63   C73       0.8185
   2005 N4        -18.6380  -20.3340    8.9870 N.pl3    63   C73      -0.9530
   2006 C5        -16.9470  -19.2530    7.6640 C.2      63   C73      -0.5215
   2007 C6        -15.9760  -19.4120    6.7540 C.2      63   C73       0.0053
   2008 H5'       -13.3893  -17.1300    4.5976 H        63   C73       0.0679
   2009 H5''      -14.1002  -17.0222    2.9649 H        63   C73       0.0679
   2010 H4'       -13.2151  -19.2506    3.1563 H        63   C73       0.1174
   2011 H3'       -16.2168  -19.2240    3.6843 H        63   C73       0.0615
   2012 H2'       -16.0899  -21.6228    3.8643 H        63   C73       0.0972
   2013 H1'       -13.9301  -21.5920    5.5198 H        63   C73       0.2029
   2014 H5        -17.1803  -18.2797    8.0697 H        63   C73       0.1928
   2015 H6        -15.4110  -18.5524    6.4249 H        63   C73       0.1958
   2016 H41       -19.1359  -21.1657    9.2707 H        63   C73       0.4234
   2017 H42       -18.8778  -19.4396    9.3904 H        63   C73       0.4234
   2018 HO2'      -14.5303  -22.0253    2.2028 H        63   C73       0.4186
   2019 P         -16.7740  -19.6350    1.0670 P.3      64   C74       1.1662
   2020 OP1       -16.4920  -19.3350   -0.3530 O.co2    64   C74      -0.7760
   2021 OP2       -17.7110  -18.7820    1.8330 O.co2    64   C74      -0.7760
   2022 O5'       -17.3090  -21.1370    1.1790 O.3      64   C74      -0.4989
   2023 C5'       -16.6550  -22.2200    0.5390 C.3      64   C74       0.0558
   2024 C4'       -17.3690  -23.5150    0.8930 C.3      64   C74       0.1065
   2025 O4'       -17.2620  -23.7720    2.3170 O.3      64   C74      -0.3548
   2026 C3'       -18.8720  -23.5040    0.6740 C.3      64   C74       0.2022
   2027 O3'       -19.1920  -23.6720   -0.6970 O.3      64   C74      -0.5246
   2028 C2'       -19.2880  -24.6980    1.5240 C.3      64   C74       0.0670
   2029 O2'       -18.9990  -25.9460    0.9200 O.3      64   C74      -0.6139
   2030 C1'       -18.4190  -24.4710    2.7550 C.3      64   C74       0.0066
   2031 N1        -19.1130  -23.6670    3.8180 N.am     64   C74      -0.0484
   2032 C2        -20.0870  -24.2780    4.6130 C.2      64   C74       0.7538
   2033 O2        -20.3650  -25.4700    4.4220 O.2      64   C74      -0.6252
   2034 N3        -20.7060  -23.5440    5.5710 N.2      64   C74      -0.7584
   2035 C4        -20.3820  -22.2660    5.7550 C.2      64   C74       0.8185
   2036 N4        -21.0220  -21.5990    6.7200 N.pl3    64   C74      -0.9530
   2037 C5        -19.3910  -21.6220    4.9570 C.2      64   C74      -0.5215
   2038 C6        -18.7850  -22.3550    4.0150 C.2      64   C74       0.0053
   2039 H5'       -16.6795  -22.0738   -0.5409 H        64   C74       0.0679
   2040 H5''      -15.6197  -22.2709    0.8762 H        64   C74       0.0679
   2041 H4'       -16.9246  -24.3411    0.3379 H        64   C74       0.1174
   2042 H3'       -19.3105  -22.5844    1.0615 H        64   C74       0.0615
   2043 H2'       -20.3446  -24.6337    1.7838 H        64   C74       0.0972
   2044 H1'       -18.1222  -25.4347    3.1688 H        64   C74       0.2029
   2045 H5        -19.1390  -20.5826    5.1069 H        64   C74       0.1928
   2046 H6        -18.0227  -21.9011    3.3992 H        64   C74       0.1958
   2047 H41       -21.7222  -22.0664    7.2780 H        64   C74       0.4234
   2048 H42       -20.8056  -20.6275    6.8913 H        64   C74       0.4234
   2049 HO2'      -19.5577  -26.0657    0.1486 H        64   C74       0.4186
   2050 P         -20.4970  -22.9690   -1.2860 P.3      65   A75       1.1662
   2051 OP1       -20.5550  -23.2590   -2.7320 O.co2    65   A75      -0.7760
   2052 OP2       -20.5680  -21.5740   -0.7850 O.co2    65   A75      -0.7760
   2053 O5'       -21.6820  -23.7560   -0.5440 O.3      65   A75      -0.4989
   2054 C5'       -22.0810  -25.0440   -0.9700 C.3      65   A75       0.0558
   2055 C4'       -23.0600  -25.6280    0.0320 C.3      65   A75       0.1065
   2056 O4'       -22.4910  -25.5600    1.3660 O.3      65   A75      -0.3548
   2057 C3'       -24.3680  -24.8620    0.1770 C.3      65   A75       0.2022
   2058 O3'       -25.2690  -25.1720   -0.8820 O.3      65   A75      -0.5246
   2059 C2'       -24.8420  -25.4130    1.5150 C.3      65   A75       0.0670
   2060 O2'       -25.3170  -26.7400    1.4200 O.3      65   A75      -0.6139
   2061 C1'       -23.5380  -25.3730    2.3030 C.3      65   A75       0.0394
   2062 N9        -23.3830  -24.0950    2.9920 N.ar     65   A75      -0.0251
   2063 C8        -22.5410  -23.0630    2.6840 C.ar     65   A75       0.2006
   2064 N7        -22.6610  -22.0310    3.4860 N.ar     65   A75      -0.6073
   2065 C5        -23.6690  -22.4030    4.3630 C.ar     65   A75       0.0515
   2066 C6        -24.2710  -21.7510    5.4570 C.ar     65   A75       0.7009
   2067 N6        -23.9220  -20.5250    5.8610 N.pl3    65   A75      -0.9019
   2068 N1        -25.2510  -22.4070    6.1190 N.ar     65   A75      -0.7615
   2069 C2        -25.5930  -23.6360    5.7140 C.ar     65   A75       0.5875
   2070 N3        -25.0920  -24.3510    4.7060 N.ar     65   A75      -0.6997
   2071 C4        -24.1300  -23.6690    4.0660 C.ar     65   A75       0.3053
   2072 H5'       -22.5605  -24.9713   -1.9462 H        65   A75       0.0679
   2073 H5''      -21.2061  -25.6901   -1.0422 H        65   A75       0.0679
   2074 H4'       -23.2702  -26.6665   -0.2240 H        65   A75       0.1174
   2075 H3'       -24.1886  -23.7885    0.2369 H        65   A75       0.0615
   2076 H2'       -25.5908  -24.7604    1.9639 H        65   A75       0.0972
   2077 H1'       -23.5260  -26.1842    3.0309 H        65   A75       0.2007
   2078 H8        -21.8439  -23.0939    1.8597 H        65   A75       0.1553
   2079 H2        -26.3802  -24.1125    6.2793 H        65   A75       0.0473
   2080 H61       -24.2331  -20.5196    6.8219 H        65   A75       0.4115
   2081 H62       -23.4642  -19.7917    5.3387 H        65   A75       0.4115
   2082 HO2'      -25.4723  -27.0882    2.3011 H        65   A75       0.4186
   2083 P         -26.4860  -24.1870   -1.2330 P.3      66   G76       1.1662
   2084 OP1       -27.0860  -24.6690   -2.4990 O.co2    66   G76      -0.7760
   2085 OP2       -25.9970  -22.7950   -1.1490 O.co2    66   G76      -0.7760
   2086 O5'       -27.5130  -24.4080   -0.0270 O.3      66   G76      -0.4989
   2087 C5'       -28.2310  -25.6360    0.1090 C.3      66   G76       0.0558
   2088 C4'       -29.1830  -25.5430    1.2840 C.3      66   G76       0.1065
   2089 O4'       -28.4280  -25.2310    2.4830 O.3      66   G76      -0.3548
   2090 C3'       -30.2040  -24.4160    1.1860 C.3      66   G76       0.2022
   2091 O3'       -31.3360  -24.8190    0.4300 O.3      66   G76      -0.5246
   2092 C2'       -30.5630  -24.2130    2.6490 C.3      66   G76       0.0670
   2093 O2'       -31.4820  -25.1850    3.1060 O.3      66   G76      -0.6139
   2094 C1'       -29.2070  -24.3930    3.3220 C.3      66   G76       0.0191
   2095 N9        -28.4770  -23.1450    3.5310 N.ar     66   G76       0.0492
   2096 C8        -27.4120  -22.6760    2.8030 C.ar     66   G76       0.1374
   2097 N7        -26.9570  -21.5290    3.2250 N.ar     66   G76      -0.5709
   2098 C5        -27.7680  -21.2260    4.3080 C.ar     66   G76       0.1744
   2099 C6        -27.7490  -20.1070    5.1660 C.2      66   G76       0.4770
   2100 O6        -26.9760  -19.1440    5.1270 O.2      66   G76      -0.5597
   2101 N1        -28.7500  -20.1740    6.1330 N.am     66   G76      -0.4787
   2102 C2        -29.6570  -21.2050    6.2560 C.2      66   G76       0.7657
   2103 N2        -30.5510  -21.1100    7.2520 N.pl3    66   G76      -0.9672
   2104 N3        -29.6840  -22.2620    5.4560 N.2      66   G76      -0.6323
   2105 C4        -28.7120  -22.2040    4.5090 C.ar     66   G76       0.1222
   2106 H5'       -27.5267  -26.4508    0.2770 H        66   G76       0.0679
   2107 H5''      -28.7972  -25.8280   -0.8024 H        66   G76       0.0679
   2108 H4'       -29.6990  -26.4944    1.4134 H        66   G76       0.1174
   2109 H3'       -29.7538  -23.5166    0.7659 H        66   G76       0.0615
   2110 H2'       -30.9480  -23.2072    2.8171 H        66   G76       0.0972
   2111 H1'       -29.3500  -24.8865    4.2833 H        66   G76       0.2006
   2112 H8        -26.9912  -23.2061    1.9614 H        66   G76       0.1640
   2113 H1        -28.8159  -19.4115    6.7920 H        66   G76       0.3424
   2114 H21       -30.5381  -20.3093    7.8675 H        66   G76       0.4364
   2115 H22       -31.2368  -21.8392    7.3863 H        66   G76       0.4364
   2116 HO2'      -32.3282  -25.0553    2.6715 H        66   G76       0.4186
   2117 P         -31.9160  -23.8620   -0.7130 P.3      67   C77       1.1662
   2118 OP1       -33.0660  -24.5440   -1.3390 O.co2    67   C77      -0.7760
   2119 OP2       -30.7890  -23.3780   -1.5430 O.co2    67   C77      -0.7760
   2120 O5'       -32.4490  -22.5950    0.1110 O.3      67   C77      -0.4989
   2121 C5'       -33.4600  -22.7550    1.1020 C.3      67   C77       0.0558
   2122 C4'       -33.4860  -21.5410    2.0090 C.3      67   C77       0.1065
   2123 O4'       -32.2160  -21.4390    2.7030 O.3      67   C77      -0.3548
   2124 C3'       -33.6110  -20.2130    1.2780 C.3      67   C77       0.2022
   2125 O3'       -34.9750  -19.9310    0.9760 O.3      67   C77      -0.5246
   2126 C2'       -33.0350  -19.2480    2.3080 C.3      67   C77       0.0670
   2127 O2'       -33.9620  -18.9020    3.3180 O.3      67   C77      -0.6139
   2128 C1'       -31.8920  -20.0750    2.8950 C.3      67   C77       0.0066
   2129 N1        -30.5790  -19.7800    2.2460 N.am     67   C77      -0.0484
   2130 C2        -29.8440  -18.6770    2.6900 C.2      67   C77       0.7538
   2131 O2        -30.2920  -17.9830    3.6100 O.2      67   C77      -0.6252
   2132 N3        -28.6520  -18.4080    2.1050 N.2      67   C77      -0.7584
   2133 C4        -28.2050  -19.1760    1.1120 C.2      67   C77       0.8185
   2134 N4        -27.0250  -18.8550    0.5710 N.pl3    67   C77      -0.9530
   2135 C5        -28.9440  -20.3020    0.6390 C.2      67   C77      -0.5215
   2136 C6        -30.1150  -20.5650    1.2290 C.2      67   C77       0.0053
   2137 H5'       -34.4293  -22.8641    0.6156 H        67   C77       0.0679
   2138 H5''      -33.2494  -23.6455    1.6942 H        67   C77       0.0679
   2139 H4'       -34.2944  -21.6400    2.7334 H        67   C77       0.1174
   2140 H3'       -33.0073  -20.2140    0.3705 H        67   C77       0.0615
   2141 H2'       -32.6487  -18.3531    1.8201 H        67   C77       0.0972
   2142 H1'       -31.8162  -19.8725    3.9633 H        67   C77       0.2029
   2143 H5        -28.5713  -20.9186   -0.1655 H        67   C77       0.1928
   2144 H6        -30.7014  -21.4090    0.8971 H        67   C77       0.1958
   2145 H41       -26.5116  -18.0567    0.9163 H        67   C77       0.4234
   2146 H42       -26.6472  -19.4108   -0.1829 H        67   C77       0.4234
   2147 HO2'      -34.6737  -18.3834    2.9357 H        67   C77       0.4186
   2148 P         -35.3670  -19.1630   -0.3730 P.3      68   G78       1.1662
   2149 OP1       -34.8710  -17.7740   -0.2640 O.co2    68   G78      -0.7760
   2150 OP2       -36.8010  -19.4060   -0.6350 O.co2    68   G78      -0.7760
   2151 O5'       -34.5200  -19.9310   -1.4940 O.3      68   G78      -0.4989
   2152 C5'       -34.8400  -19.7630   -2.8790 C.3      68   G78       0.0558
   2153 C4'       -33.5950  -19.6580   -3.7530 C.3      68   G78       0.1065
   2154 O4'       -32.8230  -18.4810   -3.3960 O.3      68   G78      -0.3548
   2155 C3'       -32.6100  -20.8200   -3.6700 C.3      68   G78       0.2022
   2156 O3'       -31.8950  -20.9240   -4.8980 O.3      68   G78      -0.5246
   2157 C2'       -31.6720  -20.3320   -2.5730 C.3      68   G78       0.0670
   2158 O2'       -30.4130  -20.9780   -2.5800 O.3      68   G78      -0.6139
   2159 C1'       -31.5240  -18.8800   -3.0040 C.3      68   G78       0.0191
   2160 N9        -31.0680  -18.0230   -1.9200 N.ar     68   G78       0.0492
   2161 C8        -31.8060  -17.5990   -0.8420 C.ar     68   G78       0.1374
   2162 N7        -31.1400  -16.8320   -0.0260 N.ar     68   G78      -0.5709
   2163 C5        -29.8770  -16.7520   -0.5980 C.ar     68   G78       0.1744
   2164 C6        -28.7300  -16.0590   -0.1570 C.2      68   G78       0.4770
   2165 O6        -28.6080  -15.3670    0.8580 O.2      68   G78      -0.5597
   2166 N1        -27.6550  -16.2260   -1.0250 N.am     68   G78      -0.4787
   2167 C2        -27.6860  -16.9670   -2.1810 C.2      68   G78       0.7657
   2168 N2        -26.5410  -17.0020   -2.8810 N.pl3    68   G78      -0.9672
   2169 N3        -28.7560  -17.6290   -2.6080 N.2      68   G78      -0.6323
   2170 C4        -29.8120  -17.4740   -1.7690 C.ar     68   G78       0.1222
   2171 H5'       -35.4283  -20.6193   -3.2089 H        68   G78       0.0679
   2172 H5''      -35.4345  -18.8572   -2.9983 H        68   G78       0.0679
   2173 H4'       -33.9141  -19.5549   -4.7901 H        68   G78       0.1174
   2174 H3'       -33.1017  -21.7552   -3.4021 H        68   G78       0.0615
   2175 H2'       -32.1440  -20.4038   -1.5931 H        68   G78       0.0972
   2176 H1'       -30.8400  -18.8090   -3.8497 H        68   G78       0.2006
   2177 H8        -32.8385  -17.8747   -0.6858 H        68   G78       0.1640
   2178 H1        -26.7869  -15.7679   -0.7870 H        68   G78       0.3424
   2179 H21       -25.7304  -16.4994   -2.5487 H        68   G78       0.4364
   2180 H22       -26.4902  -17.5309   -3.7399 H        68   G78       0.4364
   2181 HO2'      -30.4822  -21.8197   -2.1236 H        68   G78       0.4186
   2182 P         -32.1810  -22.0930   -5.9520 P.3      69   U79       1.1662
   2183 OP1       -33.0990  -23.0790   -5.3360 O.co2    69   U79      -0.7760
   2184 OP2       -30.8820  -22.5410   -6.5000 O.co2    69   U79      -0.7760
   2185 O5'       -32.9430  -21.3210   -7.1210 O.3      69   U79      -0.4989
   2186 C5'       -32.3220  -20.2220   -7.7790 C.3      69   U79       0.0558
   2187 C4'       -33.4070  -19.3270   -8.3320 C.3      69   U79       0.1065
   2188 O4'       -33.6770  -19.7070   -9.7020 O.3      69   U79      -0.3548
   2189 C3'       -34.7100  -19.4820   -7.5640 C.3      69   U79       0.2022
   2190 O3'       -35.0000  -18.3290   -6.7670 O.3      69   U79      -0.5246
   2191 C2'       -35.7890  -19.8330   -8.5900 C.3      69   U79       0.0670
   2192 O2'       -36.8770  -18.9290   -8.5910 O.3      69   U79      -0.6139
   2193 C1'       -35.0650  -19.8320   -9.9360 C.3      69   U79       0.0674
   2194 N1        -35.2700  -21.0920  -10.7070 N.am     69   U79       0.0418
   2195 C2        -36.1920  -21.1180  -11.7330 C.2      69   U79       0.4687
   2196 O2        -36.8650  -20.1540  -12.0520 O.2      69   U79      -0.5477
   2197 N3        -36.3020  -22.3270  -12.3770 N.am     69   U79      -0.3549
   2198 C4        -35.5960  -23.4850  -12.1030 C.2      69   U79       0.5952
   2199 O4        -35.8010  -24.4960  -12.7670 O.2      69   U79      -0.5761
   2200 C5        -34.6530  -23.3780  -11.0190 C.2      69   U79      -0.3635
   2201 C6        -34.5310  -22.2100  -10.3770 C.2      69   U79      -0.1126
   2202 H5'       -31.6943  -20.5861   -8.5923 H        69   U79       0.0679
   2203 H5''      -31.7135  -19.6642   -7.0672 H        69   U79       0.0679
   2204 H4'       -33.0803  -18.2877   -8.2961 H        69   U79       0.1174
   2205 H3'       -34.6008  -20.3328   -6.8914 H        69   U79       0.0615
   2206 H2'       -36.1607  -20.8372   -8.3864 H        69   U79       0.0972
   2207 H1'       -35.4086  -18.9852  -10.5301 H        69   U79       0.1824
   2208 H3        -36.9708  -22.3755  -13.1323 H        69   U79       0.3154
   2209 H5        -34.0533  -24.2280  -10.7287 H        69   U79       0.1811
   2210 H6        -33.8228  -22.1392   -9.5647 H        69   U79       0.2188
   2211 HO2'      -36.5617  -18.0483   -8.8067 H        69   U79       0.4186
   2212 P         -34.8990  -16.8090   -7.2730 P.3      70   A80       1.1662
   2213 OP1       -35.4610  -16.7090   -8.6390 O.co2    70   A80      -0.7760
   2214 OP2       -33.5440  -16.2830   -6.9860 O.co2    70   A80      -0.7760
   2215 O5'       -35.9200  -16.1450   -6.2400 O.3      70   A80      -0.4989
   2216 C5'       -36.8640  -16.9960   -5.5910 C.3      70   A80       0.0558
   2217 C4'       -37.3410  -16.3990   -4.2810 C.3      70   A80       0.1065
   2218 O4'       -36.4540  -16.7900   -3.2020 O.3      70   A80      -0.3548
   2219 C3'       -37.3440  -14.8790   -4.2420 C.3      70   A80       0.2022
   2220 O3'       -38.5420  -14.3830   -4.8300 O.3      70   A80      -0.5246
   2221 C2'       -37.2900  -14.6330   -2.7400 C.3      70   A80       0.0670
   2222 O2'       -38.5360  -14.8830   -2.1200 O.3      70   A80      -0.6139
   2223 C1'       -36.2930  -15.7030   -2.3080 C.3      70   A80       0.0394
   2224 N9        -34.8850  -15.3010   -2.3030 N.ar     70   A80      -0.0251
   2225 C8        -33.9070  -15.7050   -3.1720 C.ar     70   A80       0.2006
   2226 N7        -32.7230  -15.2020   -2.9150 N.ar     70   A80      -0.6073
   2227 C5        -32.9370  -14.4120   -1.7950 C.ar     70   A80       0.0515
   2228 C6        -32.0790  -13.6050   -1.0200 C.ar     70   A80       0.7009
   2229 N6        -30.7760  -13.4500   -1.2740 N.pl3    70   A80      -0.9019
   2230 N1        -32.6110  -12.9570    0.0330 N.ar     70   A80      -0.7615
   2231 C2        -33.9160  -13.0960    0.2880 C.ar     70   A80       0.5875
   2232 N3        -34.8200  -13.8240   -0.3640 N.ar     70   A80      -0.6997
   2233 C4        -34.2620  -14.4660   -1.4030 C.ar     70   A80       0.3053
   2234 H5'       -37.7218  -17.1394   -6.2480 H        70   A80       0.0679
   2235 H5''      -36.3986  -17.9620   -5.3950 H        70   A80       0.0679
   2236 H4'       -38.3457  -16.7637   -4.0672 H        70   A80       0.1174
   2237 H3'       -36.4639  -14.4712   -4.7391 H        70   A80       0.0615
   2238 H2'       -36.9246  -13.6316   -2.5123 H        70   A80       0.0972
   2239 H1'       -36.5596  -16.0383   -1.3057 H        70   A80       0.2007
   2240 H8        -34.0938  -16.3780   -3.9958 H        70   A80       0.1553
   2241 H2        -34.2871  -12.5428    1.1381 H        70   A80       0.0473
   2242 H61       -30.2704  -13.2557   -0.4215 H        70   A80       0.4115
   2243 H62       -30.3558  -13.5177   -2.1900 H        70   A80       0.4115
   2244 HO2'      -39.1679  -14.2120   -2.3885 H        70   A80       0.4186
   2245 P         -38.4690  -13.2720   -5.9820 P.3      71   G81       1.1662
   2246 OP1       -39.7710  -13.2730   -6.6760 O.co2    71   G81      -0.7760
   2247 OP2       -37.2180  -13.4680   -6.7490 O.co2    71   G81      -0.7760
   2248 O5'       -38.3090  -11.9150   -5.1510 O.3      71   G81      -0.4989
   2249 C5'       -39.2620  -11.6000   -4.1430 C.3      71   G81       0.0558
   2250 C4'       -38.6870  -10.6220   -3.1340 C.3      71   G81       0.1065
   2251 O4'       -37.7790  -11.3180   -2.2410 O.3      71   G81      -0.3548
   2252 C3'       -37.8240   -9.5070   -3.7100 C.3      71   G81       0.2022
   2253 O3'       -38.6210   -8.4640   -4.2640 O.3      71   G81      -0.5246
   2254 C2'       -37.1030   -9.0770   -2.4390 C.3      71   G81       0.0670
   2255 O2'       -37.9500   -8.4070   -1.5290 O.3      71   G81      -0.6139
   2256 C1'       -36.7260  -10.4420   -1.8790 C.3      71   G81       0.0191
   2257 N9        -35.4650  -10.9020   -2.4550 N.ar     71   G81       0.0492
   2258 C8        -35.2660  -11.8190   -3.4620 C.ar     71   G81       0.1374
   2259 N7        -34.0060  -11.9860   -3.7710 N.ar     71   G81      -0.5709
   2260 C5        -33.3310  -11.1200   -2.9140 C.ar     71   G81       0.1744
   2261 C6        -31.9480  -10.8520   -2.7780 C.2      71   G81       0.4770
   2262 O6        -31.0010  -11.3540   -3.4010 O.2      71   G81      -0.5597
   2263 N1        -31.7010   -9.9000   -1.7920 N.am     71   G81      -0.4787
   2264 C2        -32.6650   -9.2710   -1.0400 C.2      71   G81       0.7657
   2265 N2        -32.2300   -8.3800   -0.1380 N.pl3    71   G81      -0.9672
   2266 N3        -33.9640   -9.5080   -1.1560 N.2      71   G81      -0.6323
   2267 C4        -34.2200  -10.4400   -2.1080 C.ar     71   G81       0.1222
   2268 H5'       -40.1401  -11.1542   -4.6102 H        71   G81       0.0679
   2269 H5''      -39.5553  -12.5150   -3.6284 H        71   G81       0.0679
   2270 H4'       -39.4991  -10.1851   -2.5529 H        71   G81       0.1174
   2271 H3'       -37.1211   -9.8963   -4.4465 H        71   G81       0.0615
   2272 H2'       -36.2175   -8.4837   -2.6669 H        71   G81       0.0972
   2273 H1'       -36.6422  -10.3890   -0.7935 H        71   G81       0.2006
   2274 H8        -36.0712  -12.3487   -3.9492 H        71   G81       0.1640
   2275 H1        -30.7379   -9.6521   -1.6154 H        71   G81       0.3424
   2276 H21       -31.2408   -8.1993   -0.0431 H        71   G81       0.4364
   2277 H22       -32.8914   -7.8893    0.4467 H        71   G81       0.4364
   2278 HO2'      -38.1860   -7.5470   -1.8845 H        71   G81       0.4186
   2279 P         -38.0820   -7.6510   -5.5320 P.3      72   G82       1.1662
   2280 OP1       -39.2100   -6.8770   -6.0890 O.co2    72   G82      -0.7760
   2281 OP2       -37.3280   -8.5970   -6.3920 O.co2    72   G82      -0.7760
   2282 O5'       -37.0110   -6.6580   -4.8830 O.3      72   G82      -0.4989
   2283 C5'       -37.4010   -5.7180   -3.8930 C.3      72   G82       0.0558
   2284 C4'       -36.1770   -5.1670   -3.1860 C.3      72   G82       0.1065
   2285 O4'       -35.4160   -6.2550   -2.6020 O.3      72   G82      -0.3548
   2286 C3'       -35.1600   -4.4670   -4.0760 C.3      72   G82       0.2022
   2287 O3'       -35.5460   -3.1280   -4.3390 O.3      72   G82      -0.5246
   2288 C2'       -33.9400   -4.5030   -3.1690 C.3      72   G82       0.0670
   2289 O2'       -34.0530   -3.5680   -2.1130 O.3      72   G82      -0.6139
   2290 C1'       -34.0380   -5.9280   -2.6400 C.3      72   G82       0.0191
   2291 N9        -33.3400   -6.8830   -3.4960 N.ar     72   G82       0.0492
   2292 C8        -33.8970   -7.8440   -4.3070 C.ar     72   G82       0.1374
   2293 N7        -33.0080   -8.5430   -4.9570 N.ar     72   G82      -0.5709
   2294 C5        -31.7890   -8.0100   -4.5530 C.ar     72   G82       0.1744
   2295 C6        -30.4680   -8.3640   -4.9200 C.2      72   G82       0.4770
   2296 O6        -30.1050   -9.2510   -5.7030 O.2      72   G82      -0.5597
   2297 N1        -29.5170   -7.5640   -4.2870 N.am     72   G82      -0.4787
   2298 C2        -29.8060   -6.5540   -3.4000 C.2      72   G82       0.7657
   2299 N2        -28.7590   -5.8900   -2.8890 N.pl3    72   G82      -0.9672
   2300 N3        -31.0380   -6.2150   -3.0440 N.2      72   G82      -0.6323
   2301 C4        -31.9760   -6.9880   -3.6530 C.ar     72   G82       0.1222
   2302 H5'       -38.0473   -6.2085   -3.1651 H        72   G82       0.0679
   2303 H5''      -37.9445   -4.8998   -4.3655 H        72   G82       0.0679
   2304 H4'       -36.4939   -4.4853   -2.3967 H        72   G82       0.1174
   2305 H3'       -34.9882   -5.0215   -4.9985 H        72   G82       0.0615
   2306 H2'       -33.0207   -4.3526   -3.7350 H        72   G82       0.0972
   2307 H1'       -33.6249   -5.9720   -1.6323 H        72   G82       0.2006
   2308 H8        -34.9614   -8.0035   -4.3965 H        72   G82       0.1640
   2309 H1        -28.5445   -7.7395   -4.4955 H        72   G82       0.3424
   2310 H21       -27.8195   -6.1436   -3.1593 H        72   G82       0.4364
   2311 H22       -28.9100   -5.1363   -2.2338 H        72   G82       0.4364
   2312 HO2'      -33.9890   -2.6773   -2.4654 H        72   G82       0.4186
   2313 P         -35.2100   -2.4820   -5.7620 P.3      73   G83       1.1662
   2314 OP1       -35.5510   -1.0430   -5.6900 O.co2    73   G83      -0.7760
   2315 OP2       -35.8190   -3.3420   -6.8030 O.co2    73   G83      -0.7760
   2316 O5'       -33.6260   -2.6570   -5.8860 O.3      73   G83      -0.4989
   2317 C5'       -32.7330   -1.7220   -5.2930 C.3      73   G83       0.0558
   2318 C4'       -31.2950   -2.1460   -5.5370 C.3      73   G83       0.1065
   2319 O4'       -31.1220   -3.5270   -5.1350 O.3      73   G83      -0.3548
   2320 C3'       -30.8350   -2.1130   -6.9880 C.3      73   G83       0.2022
   2321 O3'       -30.3600   -0.8220   -7.3290 O.3      73   G83      -0.5246
   2322 C2'       -29.6860   -3.1140   -6.9660 C.3      73   G83       0.0670
   2323 O2'       -28.5080   -2.5630   -6.4180 O.3      73   G83      -0.6139
   2324 C1'       -30.2280   -4.1780   -6.0220 C.3      73   G83       0.0191
   2325 N9        -30.9480   -5.2360   -6.7200 N.ar     73   G83       0.0492
   2326 C8        -32.3100   -5.3510   -6.8660 C.ar     73   G83       0.1374
   2327 N7        -32.6720   -6.4010   -7.5450 N.ar     73   G83      -0.5709
   2328 C5        -31.4720   -7.0250   -7.8660 C.ar     73   G83       0.1744
   2329 C6        -31.2360   -8.2170   -8.5900 C.2      73   G83       0.4770
   2330 O6        -32.0680   -8.9760   -9.1060 O.2      73   G83      -0.5597
   2331 N1        -29.8740   -8.4970   -8.6920 N.am     73   G83      -0.4787
   2332 C2        -28.8670   -7.7280   -8.1520 C.2      73   G83       0.7657
   2333 N2        -27.6160   -8.1650   -8.3540 N.pl3    73   G83      -0.9672
   2334 N3        -29.0740   -6.6050   -7.4700 N.2      73   G83      -0.6323
   2335 C4        -30.3990   -6.3180   -7.3690 C.ar     73   G83       0.1222
   2336 H5'       -32.8979   -0.7380   -5.7319 H        73   G83       0.0679
   2337 H5''      -32.9189   -1.6750   -4.2200 H        73   G83       0.0679
   2338 H4'       -30.6337   -1.5174   -4.9407 H        73   G83       0.1174
   2339 H3'       -31.6282   -2.4347   -7.6628 H        73   G83       0.0615
   2340 H2'       -29.5032   -3.5251   -7.9588 H        73   G83       0.0972
   2341 H1'       -29.4053   -4.6125   -5.4541 H        73   G83       0.2006
   2342 H8        -33.0118   -4.6392   -6.4570 H        73   G83       0.1640
   2343 H1        -29.6053   -9.3271   -9.2007 H        73   G83       0.3424
   2344 H21       -27.4561   -9.0158   -8.8743 H        73   G83       0.4364
   2345 H22       -26.8333   -7.6435   -7.9859 H        73   G83       0.4364
   2346 HO2'      -28.2728   -1.7671   -6.9005 H        73   G83       0.4186
   2347 P         -31.2840    0.1880   -8.1470 P.3      74   A84       1.1662
   2348 OP1       -31.8260    1.1610   -7.1720 O.co2    74   A84      -0.7760
   2349 OP2       -32.1990   -0.5970   -9.0050 O.co2    74   A84      -0.7760
   2350 O5'       -30.2460    0.9260   -9.1140 O.3      74   A84      -0.4989
   2351 C5'       -29.3610    1.9090   -8.6010 C.3      74   A84       0.0558
   2352 C4'       -28.0840    1.9080   -9.4170 C.3      74   A84       0.1065
   2353 O4'       -27.2500    0.8040   -8.9940 O.3      74   A84      -0.3548
   2354 C3'       -28.3130    1.6640  -10.8970 C.3      74   A84       0.2022
   2355 O3'       -28.5460    2.9050  -11.5390 O.3      74   A84      -0.5246
   2356 C2'       -27.0090    1.0150  -11.3510 C.3      74   A84       0.0670
   2357 O2'       -26.0380    1.9700  -11.7420 O.3      74   A84      -0.6139
   2358 C1'       -26.5540    0.2660  -10.1000 C.3      74   A84       0.0394
   2359 N9        -26.7970   -1.1740  -10.1280 N.ar     74   A84      -0.0251
   2360 C8        -28.0060   -1.8110  -10.0830 C.ar     74   A84       0.2006
   2361 N7        -27.9180   -3.1220  -10.1110 N.ar     74   A84      -0.6073
   2362 C5        -26.5570   -3.3610  -10.1730 C.ar     74   A84       0.0515
   2363 C6        -25.8090   -4.5520  -10.2340 C.ar     74   A84       0.7009
   2364 N6        -26.3650   -5.7680  -10.2330 N.pl3    74   A84      -0.9019
   2365 N1        -24.4650   -4.4430  -10.2860 N.ar     74   A84      -0.7615
   2366 C2        -23.9150   -3.2210  -10.2860 C.ar     74   A84       0.5875
   2367 N3        -24.5150   -2.0310  -10.2360 N.ar     74   A84      -0.6997
   2368 C4        -25.8500   -2.1720  -10.1820 C.ar     74   A84       0.3053
   2369 H5'       -29.8316    2.8902   -8.6627 H        74   A84       0.0679
   2370 H5''      -29.1283    1.6818   -7.5607 H        74   A84       0.0679
   2371 H4'       -27.5528    2.8491   -9.2747 H        74   A84       0.1174
   2372 H3'       -29.1537    0.9873  -11.0502 H        74   A84       0.0615
   2373 H2'       -27.1985    0.3138  -12.1637 H        74   A84       0.0972
   2374 H1'       -25.4869    0.4377   -9.9586 H        74   A84       0.2007
   2375 H8        -28.9476   -1.2847  -10.0293 H        74   A84       0.1553
   2376 H2        -22.8363   -3.1964  -10.3330 H        74   A84       0.0473
   2377 HO2'      -26.1887    2.2248  -12.6552 H        74   A84       0.4186
   2378 H61       -27.2917   -5.6428  -10.6146 H        74   A84       0.4115
   2379 H62       -25.9460   -6.6309   -9.9169 H        74   A84       0.4115
   2380 P         -29.3490    2.9220  -12.9190 P.3      75   A85       1.1662
   2381 OP1       -29.3490    4.3100  -13.4330 O.co2    75   A85      -0.7760
   2382 OP2       -30.6280    2.2040  -12.7130 O.co2    75   A85      -0.7760
   2383 O5'       -28.4010    2.0190  -13.8380 O.3      75   A85      -0.4989
   2384 C5'       -28.9440    1.2060  -14.8550 C.3      75   A85       0.0558
   2385 C4'       -28.7140    1.8600  -16.2010 C.3      75   A85       0.1065
   2386 O4'       -27.2900    2.0050  -16.4540 O.3      75   A85      -0.3548
   2387 C3'       -29.2740    1.0740  -17.3810 C.3      75   A85       0.2022
   2388 O3'       -29.8720    1.9780  -18.2860 O.3      75   A85      -0.5246
   2389 C2'       -28.0270    0.4550  -17.9970 C.3      75   A85       0.0670
   2390 O2'       -28.2020    0.1700  -19.3700 O.3      75   A85      -0.6139
   2391 C1'       -27.0710    1.6230  -17.7940 C.3      75   A85       0.0394
   2392 N9        -25.6620    1.3210  -18.0380 N.ar     75   A85      -0.0251
   2393 C8        -25.0540    0.0960  -18.0130 C.ar     75   A85       0.2006
   2394 N7        -23.7730    0.1370  -18.2990 N.ar     75   A85      -0.6073
   2395 C5        -23.5270    1.4800  -18.5380 C.ar     75   A85       0.0515
   2396 C6        -22.3590    2.1880  -18.8900 C.ar     75   A85       0.7009
   2397 N6        -21.1690    1.6050  -19.0700 N.pl3    75   A85      -0.9019
   2398 N1        -22.4630    3.5240  -19.0520 N.ar     75   A85      -0.7615
   2399 C2        -23.6520    4.1080  -18.8700 C.ar     75   A85       0.5875
   2400 N3        -24.8150    3.5490  -18.5380 N.ar     75   A85      -0.6997
   2401 C4        -24.6820    2.2220  -18.3840 C.ar     75   A85       0.3053
   2402 H5'       -30.0143    1.0831  -14.6891 H        75   A85       0.0679
   2403 H5''      -28.4592    0.2299  -14.8377 H        75   A85       0.0679
   2404 H4'       -29.1703    2.8498  -16.1917 H        75   A85       0.1174
   2405 H3'       -29.9796    0.3103  -17.0539 H        75   A85       0.0615
   2406 H2'       -27.7037   -0.4268  -17.4439 H        75   A85       0.0972
   2407 H1'       -27.3731    2.4420  -18.4468 H        75   A85       0.2007
   2408 H8        -25.5782   -0.8190  -17.7799 H        75   A85       0.1553
   2409 H2        -23.6724    5.1785  -19.0113 H        75   A85       0.0473
   2410 H61       -20.3625    2.1576  -19.3233 H        75   A85       0.4115
   2411 H62       -21.0763    0.6062  -18.9519 H        75   A85       0.4115
   2412 HO2'      -28.4012   -0.7625  -19.4809 H        75   A85       0.4186
   2413 P         -31.4420    1.9120  -18.5800 P.3      76   G86       1.1662
   2414 OP1       -32.1450    2.6240  -17.4870 O.co2    76   G86      -0.7760
   2415 OP2       -31.7970    0.5090  -18.8890 O.co2    76   G86      -0.7760
   2416 O5'       -31.5350    2.7600  -19.9370 O.3      76   G86      -0.4989
   2417 C5'       -31.5150    4.1780  -19.8780 C.3      76   G86       0.0558
   2418 C4'       -30.3720    4.7940  -20.6710 C.3      76   G86       0.1065
   2419 O4'       -29.0680    4.5180  -20.1000 O.3      76   G86      -0.3548
   2420 C3'       -30.1450    4.3560  -22.1080 C.3      76   G86       0.2022
   2421 O3'       -31.2090    4.7470  -22.9640 O.3      76   G86      -0.5246
   2422 C2'       -28.8960    5.1950  -22.3550 C.3      76   G86       0.0670
   2423 O2'       -29.2100    6.5660  -22.4790 O.3      76   G86      -0.6139
   2424 C1'       -28.1210    4.9670  -21.0560 C.3      76   G86       0.0191
   2425 N9        -27.0320    4.0020  -21.2030 N.ar     76   G86       0.0492
   2426 C8        -27.0310    2.6770  -20.8470 C.ar     76   G86       0.1374
   2427 N7        -25.9050    2.0690  -21.1070 N.ar     76   G86      -0.5709
   2428 C5        -25.1070    3.0520  -21.6770 C.ar     76   G86       0.1744
   2429 C6        -23.7780    2.9850  -22.1640 C.2      76   G86       0.4770
   2430 O6        -23.0160    2.0080  -22.1890 O.2      76   G86      -0.5597
   2431 N1        -23.3480    4.2110  -22.6650 N.am     76   G86      -0.4787
   2432 C2        -24.1080    5.3580  -22.6920 C.2      76   G86       0.7657
   2433 N2        -23.5240    6.4470  -23.2130 N.pl3    76   G86      -0.9672
   2434 N3        -25.3530    5.4350  -22.2370 N.2      76   G86      -0.6323
   2435 C4        -25.7890    4.2470  -21.7480 C.ar     76   G86       0.1222
   2436 H5'       -32.4565    4.5547  -20.2777 H        76   G86       0.0679
   2437 H5''      -31.4266    4.4858  -18.8361 H        76   G86       0.0679
   2438 H4'       -30.5125    5.8749  -20.6714 H        76   G86       0.1174
   2439 H3'       -29.9377    3.2883  -22.1793 H        76   G86       0.0615
   2440 H2'       -28.3387    4.8344  -23.2196 H        76   G86       0.0972
   2441 H1'       -27.7064    5.9180  -20.7215 H        76   G86       0.2006
   2442 H8        -27.8795    2.1845  -20.3954 H        76   G86       0.1640
   2443 H1        -22.4099    4.2622  -23.0356 H        76   G86       0.3424
   2444 H21       -22.5767    6.3951  -23.5596 H        76   G86       0.4364
   2445 H22       -24.0314    7.3191  -23.2588 H        76   G86       0.4364
   2446 HO2'      -28.7311    6.9384  -23.2230 H        76   G86       0.4186
   2447 P         -31.3820    4.0300  -24.3860 P.3      77   U87       1.1662
   2448 OP1       -32.6370    4.5260  -24.9920 O.co2    77   U87      -0.7760
   2449 OP2       -31.1730    2.5760  -24.1940 O.co2    77   U87      -0.7760
   2450 O5'       -30.1380    4.5690  -25.2340 O.3      77   U87      -0.4989
   2451 C5'       -30.2200    5.8230  -25.8940 C.3      77   U87       0.0558
   2452 C4'       -28.8790    6.2180  -26.4820 C.3      77   U87       0.1065
   2453 O4'       -27.8190    5.9920  -25.5210 O.3      77   U87      -0.3548
   2454 C3'       -28.4410    5.4000  -27.6830 C.3      77   U87       0.2022
   2455 O3'       -29.0930    5.8590  -28.8540 O.3      77   U87      -0.5246
   2456 C2'       -26.9460    5.7000  -27.6990 C.3      77   U87       0.0670
   2457 O2'       -26.6500    6.9730  -28.2390 O.3      77   U87      -0.6139
   2458 C1'       -26.6210    5.6690  -26.2090 C.3      77   U87       0.0674
   2459 N1        -26.1490    4.3360  -25.7280 N.am     77   U87       0.0418
   2460 C2        -24.8660    3.9140  -26.0200 C.2      77   U87       0.4687
   2461 O2        -24.0730    4.5750  -26.6700 O.2      77   U87      -0.5477
   2462 N3        -24.5430    2.6720  -25.5260 N.am     77   U87      -0.3549
   2463 C4        -25.3560    1.8340  -24.7810 C.2      77   U87       0.5952
   2464 O4        -24.9310    0.7470  -24.3990 O.2      77   U87      -0.5761
   2465 C5        -26.6760    2.3440  -24.5200 C.2      77   U87      -0.3635
   2466 C6        -27.0130    3.5490  -24.9920 C.2      77   U87      -0.1126
   2467 H5'       -30.9547    5.7557  -26.6964 H        77   U87       0.0679
   2468 H5''      -30.5368    6.5837  -25.1805 H        77   U87       0.0679
   2469 H4'       -28.9009    7.2735  -26.7532 H        77   U87       0.1174
   2470 H3'       -28.6259    4.3379  -27.5223 H        77   U87       0.0615
   2471 H2'       -26.4010    4.9192  -28.2295 H        77   U87       0.0972
   2472 H1'       -25.8638    6.4214  -25.9887 H        77   U87       0.1824
   2473 H3        -23.6128    2.3345  -25.7282 H        77   U87       0.3154
   2474 H5        -27.3850    1.7614  -23.9506 H        77   U87       0.1811
   2475 H6        -28.0053    3.9236  -24.7885 H        77   U87       0.2188
   2476 HO2'      -25.9496    6.8899  -28.8903 H        77   U87       0.4186
   2477 P         -29.6380    4.8090  -29.9280 P.3      78   U88       1.1662
   2478 OP1       -30.5670    5.5380  -30.8190 O.co2    78   U88      -0.7760
   2479 OP2       -30.1000    3.6000  -29.2110 O.co2    78   U88      -0.7760
   2480 O5'       -28.3220    4.3950  -30.7440 O.3      78   U88      -0.4989
   2481 C5'       -27.4870    5.3760  -31.3550 C.3      78   U88       0.0558
   2482 C4'       -26.0810    4.8370  -31.5710 C.3      78   U88       0.1065
   2483 O4'       -25.4630    4.5530  -30.2910 O.3      78   U88      -0.3548
   2484 C3'       -25.9940    3.5200  -32.3310 C.3      78   U88       0.2022
   2485 O3'       -25.9880    3.7570  -33.7300 O.3      78   U88      -0.6541
   2486 C2'       -24.6440    2.9900  -31.8680 C.3      78   U88       0.0670
   2487 O2'       -23.5740    3.5850  -32.5730 O.3      78   U88      -0.6139
   2488 C1'       -24.6190    3.4220  -30.4050 C.3      78   U88       0.0674
   2489 N1        -25.0820    2.3650  -29.4530 N.am     78   U88       0.0418
   2490 C2        -24.1750    1.4250  -29.0130 C.2      78   U88       0.4687
   2491 O2        -23.0100    1.4140  -29.3720 O.2      78   U88      -0.5477
   2492 N3        -24.6840    0.4940  -28.1390 N.am     78   U88      -0.3549
   2493 C4        -25.9830    0.4170  -27.6700 C.2      78   U88       0.5952
   2494 O4        -26.2970   -0.4710  -26.8840 O.2      78   U88      -0.5761
   2495 C5        -26.8720    1.4350  -28.1710 C.2      78   U88      -0.3635
   2496 C6        -26.3960    2.3490  -29.0250 C.2      78   U88      -0.1126
   2497 H5'       -27.4371    6.2532  -30.7099 H        78   U88       0.0679
   2498 H5''      -27.9135    5.6615  -32.3166 H        78   U88       0.0679
   2499 H4'       -25.4885    5.5884  -32.0929 H        78   U88       0.1174
   2500 H3'       -26.8020    2.8456  -32.0475 H        78   U88       0.0615
   2501 H2'       -24.6056    1.9039  -31.9513 H        78   U88       0.0972
   2502 H1'       -23.6023    3.7131  -30.1409 H        78   U88       0.1824
   2503 H3        -24.0408   -0.2088  -27.8035 H        78   U88       0.3154
   2504 H5        -27.9065    1.4598  -27.8619 H        78   U88       0.1811
   2505 H6        -27.0688    3.1079  -29.3962 H        78   U88       0.2188
   2506 HO3'      -25.9329    2.9198  -34.1966 H        78   U88       0.4376
   2507 HO2'      -23.6006    3.3058  -33.4911 H        78   U88       0.4186
   2508 O5'        41.0320    6.5600   59.1140 O.3      79   G11      -0.6223
   2509 C5'        42.2100    6.9080   58.3920 C.3      79   G11       0.0558
   2510 C4'        43.3260    5.9150   58.6550 C.3      79   G11       0.1065
   2511 O4'        43.7740    6.0170   60.0310 O.3      79   G11      -0.3548
   2512 C3'        42.9410    4.4530   58.5220 C.3      79   G11       0.2022
   2513 O3'        42.8980    4.0580   57.1540 O.3      79   G11      -0.5246
   2514 C2'        44.1000    3.8090   59.2750 C.3      79   G11       0.0670
   2515 O2'        45.3040    3.8490   58.5330 O.3      79   G11      -0.6139
   2516 C1'        44.2060    4.7430   60.4760 C.3      79   G11       0.0191
   2517 N9         43.3960    4.3350   61.6230 N.ar     79   G11       0.0492
   2518 C8         42.2370    4.9230   62.0700 C.ar     79   G11       0.1374
   2519 N7         41.7350    4.3420   63.1240 N.ar     79   G11      -0.5709
   2520 C5         42.6100    3.2950   63.3940 C.ar     79   G11       0.1744
   2521 C6         42.5860    2.3210   64.4220 C.2      79   G11       0.4770
   2522 O6         41.7550    2.1740   65.3290 O.2      79   G11      -0.5597
   2523 N1         43.6660    1.4450   64.3350 N.am     79   G11      -0.4787
   2524 C2         44.6500    1.5080   63.3760 C.2      79   G11       0.7657
   2525 N2         45.6120    0.5780   63.4530 N.pl3    79   G11      -0.9672
   2526 N3         44.6860    2.4180   62.4100 N.2      79   G11      -0.6323
   2527 C4         43.6390    3.2770   62.4780 C.ar     79   G11       0.1222
   2528 H5'        42.5368    7.9007   58.7017 H        79   G11       0.0679
   2529 H5''       41.9859    6.9210   57.3254 H        79   G11       0.0679
   2530 H4'        44.1615    6.1286   57.9884 H        79   G11       0.1174
   2531 H3'        41.9915    4.2514   59.0179 H        79   G11       0.0615
   2532 H2'        43.8571    2.7921   59.5831 H        79   G11       0.0972
   2533 H1'        45.2496    4.8092   60.7836 H        79   G11       0.2006
   2534 H8         41.7863    5.7819   61.5950 H        79   G11       0.1640
   2535 H1         43.7310    0.7110   65.0257 H        79   G11       0.3424
   2536 H21        45.5863   -0.1156   64.1868 H        79   G11       0.4364
   2537 H22        46.3626    0.5707   62.7773 H        79   G11       0.4364
   2538 HO2'       45.2347    3.2604   57.7778 H        79   G11       0.4186
   2539 HO5'       40.2873    7.1657   59.1236 H        79   G11       0.4295
   2540 P          41.8560    2.9340   56.6920 P.3      80   A12       1.1662
   2541 OP1        41.9210    2.8260   55.2180 O.co2    80   A12      -0.7760
   2542 OP2        40.5610    3.2060   57.3540 O.co2    80   A12      -0.7760
   2543 O5'        42.4550    1.5970   57.3390 O.3      80   A12      -0.4989
   2544 C5'        43.7220    1.1050   56.9190 C.3      80   A12       0.0558
   2545 C4'        44.1520   -0.0760   57.7690 C.3      80   A12       0.1065
   2546 O4'        44.3570    0.3450   59.1430 O.3      80   A12      -0.3548
   2547 C3'        43.1300   -1.1970   57.8700 C.3      80   A12       0.2022
   2548 O3'        43.2270   -2.0520   56.7410 O.3      80   A12      -0.5246
   2549 C2'        43.5920   -1.8880   59.1450 C.3      80   A12       0.0670
   2550 O2'        44.7580   -2.6600   58.9310 O.3      80   A12      -0.6139
   2551 C1'        43.9130   -0.6790   60.0170 C.3      80   A12       0.0394
   2552 N9         42.7690   -0.1790   60.7820 N.ar     80   A12      -0.0251
   2553 C8         41.9380    0.8530   60.4470 C.ar     80   A12       0.2006
   2554 N7         40.9940    1.0870   61.3290 N.ar     80   A12      -0.6073
   2555 C5         41.2250    0.1440   62.3160 C.ar     80   A12       0.0515
   2556 C6         40.5680   -0.1360   63.5330 C.ar     80   A12       0.7009
   2557 N6         39.5020    0.5470   63.9700 N.pl3    80   A12      -0.9019
   2558 N1         41.0510   -1.1440   64.2850 N.ar     80   A12      -0.7615
   2559 C2         42.1180   -1.8280   63.8480 C.ar     80   A12       0.5875
   2560 N3         42.8190   -1.6560   62.7270 N.ar     80   A12      -0.6997
   2561 C4         42.3150   -0.6450   61.9960 C.ar     80   A12       0.3053
   2562 H5'        44.4621    1.8998   57.0118 H        80   A12       0.0679
   2563 H5''       43.6586    0.7931   55.8765 H        80   A12       0.0679
   2564 H4'        45.0856   -0.4782   57.3756 H        80   A12       0.1174
   2565 H3'        42.1202   -0.8014   57.9795 H        80   A12       0.0615
   2566 H2'        42.7939   -2.4892   59.5806 H        80   A12       0.0972
   2567 H1'        44.7184   -0.9371   60.7046 H        80   A12       0.2007
   2568 H8         42.0480    1.4251   59.5376 H        80   A12       0.1553
   2569 H2         42.4556   -2.6270   64.4915 H        80   A12       0.0473
   2570 H61        39.4098    0.4171   64.9674 H        80   A12       0.4115
   2571 H62        38.8876    1.1039   63.3934 H        80   A12       0.4115
   2572 HO2'       45.1003   -2.9633   59.7750 H        80   A12       0.4186
   2573 P          41.9040   -2.7050   56.1230 P.3      81   C13       1.1662
   2574 OP1        42.2450   -3.2500   54.7900 O.co2    81   C13      -0.7760
   2575 OP2        40.8020   -1.7270   56.2700 O.co2    81   C13      -0.7760
   2576 O5'        41.6100   -3.9240   57.1140 O.3      81   C13      -0.4989
   2577 C5'        42.6160   -4.9010   57.3610 C.3      81   C13       0.0558
   2578 C4'        42.2030   -5.7770   58.5260 C.3      81   C13       0.1065
   2579 O4'        42.2780   -5.0140   59.7560 O.3      81   C13      -0.3548
   2580 C3'        40.7560   -6.2390   58.4850 C.3      81   C13       0.2022
   2581 O3'        40.6060   -7.3550   57.6190 O.3      81   C13      -0.5246
   2582 C2'        40.5390   -6.6050   59.9470 C.3      81   C13       0.0670
   2583 O2'        41.1290   -7.8450   60.2820 O.3      81   C13      -0.6139
   2584 C1'        41.2710   -5.4610   60.6470 C.3      81   C13       0.0066
   2585 N1         40.3800   -4.3090   60.9930 N.am     81   C13      -0.0484
   2586 C2         39.6380   -4.3390   62.1810 C.2      81   C13       0.7538
   2587 O2         39.7370   -5.3200   62.9320 O.2      81   C13      -0.6252
   2588 N3         38.8320   -3.2880   62.4790 N.2      81   C13      -0.7584
   2589 C4         38.7520   -2.2480   61.6450 C.2      81   C13       0.8185
   2590 N4         37.9450   -1.2350   61.9780 N.pl3    81   C13      -0.9530
   2591 C5         39.4970   -2.2010   60.4290 C.2      81   C13      -0.5215
   2592 C6         40.2910   -3.2400   60.1490 C.2      81   C13       0.0053
   2593 H5'        43.5552   -4.4015   57.5987 H        81   C13       0.0679
   2594 H5''       42.7482   -5.5181   56.4723 H        81   C13       0.0679
   2595 H4'        42.8637   -6.6417   58.5885 H        81   C13       0.1174
   2596 H3'        40.0964   -5.4242   58.1865 H        81   C13       0.0615
   2597 H2'        39.4780   -6.5987   60.1965 H        81   C13       0.0972
   2598 H1'        41.7388   -5.8381   61.5565 H        81   C13       0.2029
   2599 H5         39.4224   -1.3571   59.7592 H        81   C13       0.1928
   2600 H6         40.8722   -3.2331   59.2388 H        81   C13       0.1958
   2601 H41        37.4184   -1.2709   62.8391 H        81   C13       0.4234
   2602 H42        37.8621   -0.4340   61.3684 H        81   C13       0.4234
   2603 HO2'       40.6599   -8.5540   59.8360 H        81   C13       0.4186
   2604 P          39.3470   -7.4240   56.6350 P.3      82   U14       1.1662
   2605 OP1        39.5730   -8.5230   55.6710 O.co2    82   U14      -0.7760
   2606 OP2        39.0840   -6.0520   56.1460 O.co2    82   U14      -0.7760
   2607 O5'        38.1530   -7.8390   57.6150 O.3      82   U14      -0.4989
   2608 C5'        38.1330   -9.1430   58.1830 C.3      82   U14       0.0558
   2609 C4'        37.3850   -9.1510   59.5020 C.3      82   U14       0.1065
   2610 O4'        37.8300   -8.0530   60.3380 O.3      82   U14      -0.3548
   2611 C3'        35.8880   -8.9100   59.3980 C.3      82   U14       0.2022
   2612 O3'        35.2070  -10.0810   58.9810 O.3      82   U14      -0.5246
   2613 C2'        35.5640   -8.5340   60.8380 C.3      82   U14       0.0670
   2614 O2'        35.5080   -9.6510   61.7050 O.3      82   U14      -0.6139
   2615 C1'        36.7580   -7.6400   61.1710 C.3      82   U14       0.0674
   2616 N1         36.4530   -6.2030   60.9180 N.am     82   U14       0.0418
   2617 C2         35.6930   -5.5150   61.8440 C.2      82   U14       0.4687
   2618 O2         35.2750   -6.0180   62.8720 O.2      82   U14      -0.5477
   2619 N3         35.4440   -4.2040   61.5310 N.am     82   U14      -0.3549
   2620 C4         35.8630   -3.5250   60.4030 C.2      82   U14       0.5952
   2621 O4         35.5560   -2.3450   60.2640 O.2      82   U14      -0.5761
   2622 C5         36.6440   -4.3080   59.4780 C.2      82   U14      -0.3635
   2623 C6         36.8980   -5.5930   59.7620 C.2      82   U14      -0.1126
   2624 H5'        39.1578   -9.4732   58.3528 H        82   U14       0.0679
   2625 H5''       37.6454   -9.8286   57.4900 H        82   U14       0.0679
   2626 H4'        37.5658  -10.0950   60.0161 H        82   U14       0.1174
   2627 H3'        35.6762   -8.0794   58.7247 H        82   U14       0.0615
   2628 H2'        34.6352   -7.9656   60.8855 H        82   U14       0.0972
   2629 H1'        37.0351   -7.7757   62.2164 H        82   U14       0.1824
   2630 H3         34.8955   -3.6780   62.1962 H        82   U14       0.3154
   2631 H5         37.0197   -3.8646   58.5677 H        82   U14       0.1811
   2632 H6         37.4742   -6.1750   59.0580 H        82   U14       0.2188
   2633 HO2'       34.7516  -10.1963   61.4767 H        82   U14       0.4186
   2634 P          33.8730   -9.9270   58.1150 P.3      83   C15       1.1662
   2635 OP1        33.3040  -11.2790   57.9190 O.co2    83   C15      -0.7760
   2636 OP2        34.1910   -9.0800   56.9440 O.co2    83   C15      -0.7760
   2637 O5'        32.9160   -9.0790   59.0770 O.3      83   C15      -0.4989
   2638 C5'        31.9150   -9.7400   59.8370 C.3      83   C15       0.0558
   2639 C4'        31.4120   -8.8930   60.9940 C.3      83   C15       0.1065
   2640 O4'        32.3170   -7.8070   61.3270 O.3      83   C15      -0.3548
   2641 C3'        30.1260   -8.1280   60.7480 C.3      83   C15       0.2022
   2642 O3'        29.0020   -8.9890   60.6440 O.3      83   C15      -0.5246
   2643 C2'        30.1190   -7.2900   62.0190 C.3      83   C15       0.0670
   2644 O2'        29.8260   -8.0550   63.1720 O.3      83   C15      -0.6139
   2645 C1'        31.5760   -6.8290   62.0450 C.3      83   C15       0.0066
   2646 N1         31.7520   -5.4770   61.4250 N.am     83   C15      -0.0484
   2647 C2         31.2400   -4.3470   62.0820 C.2      83   C15       0.7538
   2648 O2         30.6650   -4.4830   63.1670 O.2      83   C15      -0.6252
   2649 N3         31.3920   -3.1250   61.5140 N.2      83   C15      -0.7584
   2650 C4         32.0160   -3.0080   60.3420 C.2      83   C15       0.8185
   2651 N4         32.1380   -1.7810   59.8240 N.pl3    83   C15      -0.9530
   2652 C5         32.5400   -4.1440   59.6540 C.2      83   C15      -0.5215
   2653 C6         32.3850   -5.3460   60.2230 C.2      83   C15       0.0053
   2654 H5'        31.0750   -9.9723   59.1824 H        83   C15       0.0679
   2655 H5''       32.3252  -10.6700   60.2307 H        83   C15       0.0679
   2656 H4'        31.2841   -9.5292   61.8698 H        83   C15       0.1174
   2657 H3'        30.2134   -7.4945   59.8653 H        83   C15       0.0615
   2658 H2'        29.4402   -6.4422   61.9270 H        83   C15       0.0972
   2659 H1'        31.9253   -6.7994   63.0771 H        83   C15       0.2029
   2660 H5         33.0450   -4.0372   58.7053 H        83   C15       0.1928
   2661 H6         32.7663   -6.2245   59.7237 H        83   C15       0.1958
   2662 H41        31.7636   -0.9843   60.3192 H        83   C15       0.4234
   2663 H42        32.6045   -1.6511   58.9377 H        83   C15       0.4234
   2664 HO2'       28.9092   -8.3384   63.1441 H        83   C15       0.4186
   2665 P          27.8000   -8.5550   59.6790 P.3      84   G16       1.1662
   2666 OP1        26.8520   -9.6890   59.6060 O.co2    84   G16      -0.7760
   2667 OP2        28.3830   -7.9910   58.4400 O.co2    84   G16      -0.7760
   2668 O5'        27.1170   -7.3420   60.4640 O.3      84   G16      -0.4989
   2669 C5'        26.3960   -7.5910   61.6600 C.3      84   G16       0.0558
   2670 C4'        26.1650   -6.3030   62.4280 C.3      84   G16       0.1065
   2671 O4'        27.3860   -5.5240   62.4840 O.3      84   G16      -0.3548
   2672 C3'        25.1740   -5.3300   61.8100 C.3      84   G16       0.2022
   2673 O3'        23.8360   -5.7580   62.0280 O.3      84   G16      -0.5246
   2674 C2'        25.5140   -4.0870   62.6210 C.3      84   G16       0.0670
   2675 O2'        25.0400   -4.1630   63.9510 O.3      84   G16      -0.6139
   2676 C1'        27.0390   -4.1550   62.6110 C.3      84   G16       0.0191
   2677 N9         27.6420   -3.4020   61.5140 N.ar     84   G16       0.0492
   2678 C8         28.4330   -3.9010   60.5030 C.ar     84   G16       0.1374
   2679 N7         28.8350   -2.9880   59.6620 N.ar     84   G16      -0.5709
   2680 C5         28.2740   -1.8100   60.1430 C.ar     84   G16       0.1744
   2681 C6         28.3590   -0.4890   59.6430 C.2      84   G16       0.4770
   2682 O6         28.9680   -0.0870   58.6440 O.2      84   G16      -0.5597
   2683 N1         27.6450    0.4130   60.4300 N.am     84   G16      -0.4787
   2684 C2         26.9320    0.0780   61.5580 C.2      84   G16       0.7657
   2685 N2         26.2990    1.0820   62.1870 N.pl3    84   G16      -0.9672
   2686 N3         26.8450   -1.1580   62.0360 N.2      84   G16      -0.6323
   2687 C4         27.5370   -2.0480   61.2810 C.ar     84   G16       0.1222
   2688 H5'        25.4327   -8.0357   61.4104 H        84   G16       0.0679
   2689 H5''       26.9613   -8.2843   62.2827 H        84   G16       0.0679
   2690 H4'        25.8463   -6.5430   63.4424 H        84   G16       0.1174
   2691 H3'        25.3747   -5.1791   60.7493 H        84   G16       0.0615
   2692 H2'        25.1566   -3.1838   62.1263 H        84   G16       0.0972
   2693 H1'        27.4207   -3.7751   63.5587 H        84   G16       0.2006
   2694 H8         28.6947   -4.9451   60.4150 H        84   G16       0.1640
   2695 H1         27.6515    1.3839   60.1518 H        84   G16       0.3424
   2696 H21        26.3623    2.0234   61.8266 H        84   G16       0.4364
   2697 H22        25.7597    0.8955   63.0204 H        84   G16       0.4364
   2698 HO2'       25.0790   -3.2932   64.3553 H        84   G16       0.4186
   2699 P          22.6970   -5.4380   60.9470 P.3      85   G17       1.1662
   2700 OP1        21.5450   -6.3210   61.2260 O.co2    85   G17      -0.7760
   2701 OP2        23.3060   -5.4240   59.6010 O.co2    85   G17      -0.7760
   2702 O5'        22.2890   -3.9380   61.3110 O.3      85   G17      -0.4989
   2703 C5'        21.8900   -3.6140   62.6330 C.3      85   G17       0.0558
   2704 C4'        21.7230   -2.1140   62.7440 C.3      85   G17       0.1065
   2705 O4'        23.0170   -1.4830   62.5810 O.3      85   G17      -0.3548
   2706 C3'        20.9040   -1.4970   61.6240 C.3      85   G17       0.2022
   2707 O3'        19.5130   -1.6590   61.8500 O.3      85   G17      -0.5246
   2708 C2'        21.3470   -0.0470   61.7300 C.3      85   G17       0.0670
   2709 O2'        20.8080    0.5860   62.8730 O.3      85   G17      -0.6139
   2710 C1'        22.8460   -0.2430   61.9190 C.3      85   G17       0.0191
   2711 N9         23.6320   -0.2320   60.6860 N.ar     85   G17       0.0492
   2712 C8         24.2720   -1.2970   60.0990 C.ar     85   G17       0.1374
   2713 N7         24.9230   -0.9790   59.0130 N.ar     85   G17      -0.5709
   2714 C5         24.7080    0.3850   58.8710 C.ar     85   G17       0.1744
   2715 C6         25.1680    1.2850   57.8780 C.2      85   G17       0.4770
   2716 O6         25.8780    1.0450   56.8930 O.2      85   G17      -0.5597
   2717 N1         24.7180    2.5840   58.1070 N.am     85   G17      -0.4787
   2718 C2         23.9230    2.9680   59.1630 C.2      85   G17       0.7657
   2719 N2         23.5920    4.2680   59.2160 N.pl3    85   G17      -0.9672
   2720 N3         23.4900    2.1350   60.1030 N.2      85   G17      -0.6323
   2721 C4         23.9180    0.8630   59.8950 C.ar     85   G17       0.1222
   2722 H5'        20.9434   -4.1046   62.8594 H        85   G17       0.0679
   2723 H5''       22.6521   -3.9492   63.3365 H        85   G17       0.0679
   2724 H4'        21.2953   -1.8528   63.7120 H        85   G17       0.1174
   2725 H3'        21.1898   -1.9181   60.6601 H        85   G17       0.0615
   2726 H2'        21.1253    0.5094   60.8193 H        85   G17       0.0972
   2727 H1'        23.2169    0.5485   62.5703 H        85   G17       0.2006
   2728 H8         24.2396   -2.3002   60.4976 H        85   G17       0.1640
   2729 H1         24.9962    3.2974   57.4484 H        85   G17       0.3424
   2730 H21        23.9225    4.9027   58.5033 H        85   G17       0.4364
   2731 H22        23.0125    4.6113   59.9686 H        85   G17       0.4364
   2732 HO2'       20.5209    1.4727   62.6428 H        85   G17       0.4186
   2733 P          18.5510   -1.9290   60.6010 P.3      86   G18       1.1662
   2734 OP1        17.2130   -2.2670   61.1280 O.co2    86   G18      -0.7760
   2735 OP2        19.2350   -2.8690   59.6830 O.co2    86   G18      -0.7760
   2736 O5'        18.5030   -0.4990   59.8800 O.3      86   G18      -0.4989
   2737 C5'        18.1110    0.6590   60.6130 C.3      86   G18       0.0558
   2738 C4'        18.3300    1.9280   59.8070 C.3      86   G18       0.1065
   2739 O4'        19.7390    2.1150   59.5240 O.3      86   G18      -0.3548
   2740 C3'        17.6850    1.9470   58.4310 C.3      86   G18       0.2022
   2741 O3'        16.3000    2.2470   58.5670 O.3      86   G18      -0.5246
   2742 C2'        18.4670    3.0790   57.7710 C.3      86   G18       0.0670
   2743 O2'        17.9760    4.3530   58.1390 O.3      86   G18      -0.6139
   2744 C1'        19.8700    2.8920   58.3450 C.3      86   G18       0.0191
   2745 N9         20.8070    2.2420   57.4280 N.ar     86   G18       0.0492
   2746 C8         21.0850    0.8990   57.3330 C.ar     86   G18       0.1374
   2747 N7         21.9670    0.6110   56.4140 N.ar     86   G18      -0.5709
   2748 C5         22.3010    1.8420   55.8640 C.ar     86   G18       0.1744
   2749 C6         23.2120    2.1660   54.8280 C.2      86   G18       0.4770
   2750 O6         23.9290    1.4060   54.1630 O.2      86   G18      -0.5597
   2751 N1         23.2480    3.5340   54.5790 N.am     86   G18      -0.4787
   2752 C2         22.4990    4.4740   55.2460 C.2      86   G18       0.7657
   2753 N2         22.6760    5.7500   54.8710 N.pl3    86   G18      -0.9672
   2754 N3         21.6450    4.1850   56.2190 N.2      86   G18      -0.6323
   2755 C4         21.5950    2.8550   56.4760 C.ar     86   G18       0.1222
   2756 H5'        17.0537    0.5775   60.8650 H        86   G18       0.0679
   2757 H5''       18.6942    0.7144   61.5322 H        86   G18       0.0679
   2758 H4'        17.9669    2.7804   60.3812 H        86   G18       0.1174
   2759 H3'        17.8370    1.0025   57.9085 H        86   G18       0.0615
   2760 H2'        18.4735    2.9647   56.6870 H        86   G18       0.0972
   2761 H1'        20.2689    3.8698   58.6150 H        86   G18       0.2006
   2762 H8         20.6183    0.1529   57.9590 H        86   G18       0.1640
   2763 H1         23.8708    3.8610   53.8542 H        86   G18       0.3424
   2764 H21        23.3284    5.9736   54.1331 H        86   G18       0.4364
   2765 H22        22.1569    6.4869   55.3266 H        86   G18       0.4364
   2766 HO2'       17.5282    4.7525   57.3897 H        86   G18       0.4186
   2767 P          15.2440    1.8990   57.4130 P.3      87   G19       1.1662
   2768 OP1        13.8940    1.9180   58.0190 O.co2    87   G19      -0.7760
   2769 OP2        15.7220    0.7050   56.6800 O.co2    87   G19      -0.7760
   2770 O5'        15.3630    3.1570   56.4390 O.3      87   G19      -0.4989
   2771 C5'        14.9160    4.4260   56.8820 C.3      87   G19       0.0558
   2772 C4'        15.2820    5.4860   55.8620 C.3      87   G19       0.1065
   2773 O4'        16.7250    5.5900   55.7660 O.3      87   G19      -0.3548
   2774 C3'        14.8260    5.1790   54.4460 C.3      87   G19       0.2022
   2775 O3'        13.4830    5.6250   54.2630 O.3      87   G19      -0.5246
   2776 C2'        15.8120    6.0060   53.6300 C.3      87   G19       0.0670
   2777 O2'        15.4490    7.3740   53.6210 O.3      87   G19      -0.6139
   2778 C1'        17.1030    5.8130   54.4210 C.3      87   G19       0.0191
   2779 N9         17.9440    4.6910   54.0000 N.ar     87   G19       0.0492
   2780 C8         17.7590    3.3570   54.2820 C.ar     87   G19       0.1374
   2781 N7         18.6910    2.5860   53.7890 N.ar     87   G19      -0.5709
   2782 C5         19.5520    3.4650   53.1450 C.ar     87   G19       0.1744
   2783 C6         20.7430    3.2120   52.4230 C.2      87   G19       0.4770
   2784 O6         21.2910    2.1230   52.2020 O.2      87   G19      -0.5597
   2785 N1         21.3070    4.3850   51.9270 N.am     87   G19      -0.4787
   2786 C2         20.7870    5.6440   52.1070 C.2      87   G19       0.7657
   2787 N2         21.4730    6.6580   51.5580 N.pl3    87   G19      -0.9672
   2788 N3         19.6730    5.8950   52.7800 N.2      87   G19      -0.6323
   2789 C4         19.1080    4.7620   53.2670 C.ar     87   G19       0.1222
   2790 H5'        15.3886    4.6632   57.8352 H        87   G19       0.0679
   2791 H5''       13.8337    4.4045   57.0097 H        87   G19       0.0679
   2792 H4'        14.8703    6.4457   56.1743 H        87   G19       0.1174
   2793 H3'        14.9226    4.1166   54.2223 H        87   G19       0.0615
   2794 H2'        15.9087    5.6170   52.6164 H        87   G19       0.0972
   2795 H1'        17.6886    6.7308   54.3678 H        87   G19       0.2006
   2796 H8         16.9237    2.9834   54.8557 H        87   G19       0.1640
   2797 H1         22.1620    4.3041   51.3954 H        87   G19       0.3424
   2798 H21        22.3230    6.4732   51.0447 H        87   G19       0.4364
   2799 H22        21.1394    7.6061   51.6581 H        87   G19       0.4364
   2800 HO2'       14.6367    7.4867   53.1219 H        87   G19       0.4186
   2801 P          12.4750    4.7900   53.3430 P.3      88   U20       1.1662
   2802 OP1        11.1230    5.3670   53.5150 O.co2    88   U20      -0.7760
   2803 OP2        12.7020    3.3540   53.6080 O.co2    88   U20      -0.7760
   2804 O5'        12.9880    5.0990   51.8600 O.3      88   U20      -0.4989
   2805 C5'        12.7090    6.3480   51.2370 C.3      88   U20       0.0558
   2806 C4'        13.5800    6.5280   50.0070 C.3      88   U20       0.1065
   2807 O4'        14.9720    6.3460   50.3650 O.3      88   U20      -0.3548
   2808 C3'        13.3240    5.5230   48.8930 C.3      88   U20       0.2022
   2809 O3'        12.3260    6.0300   48.0200 O.3      88   U20      -0.5246
   2810 C2'        14.6700    5.4540   48.1780 C.3      88   U20       0.0670
   2811 O2'        14.7410    6.3700   47.1030 O.3      88   U20      -0.6139
   2812 C1'        15.6840    5.8190   49.2630 C.3      88   U20       0.0674
   2813 N1         16.4900    4.6440   49.7090 N.am     88   U20       0.0418
   2814 C2         17.7850    4.5040   49.2540 C.2      88   U20       0.4687
   2815 O2         18.3220    5.3060   48.5100 O.2      88   U20      -0.5477
   2816 N3         18.4370    3.3830   49.7050 N.am     88   U20      -0.3549
   2817 C4         17.9300    2.4090   50.5450 C.2      88   U20       0.5952
   2818 O4         18.6350    1.4600   50.8670 O.2      88   U20      -0.5761
   2819 C5         16.5730    2.6230   50.9740 C.2      88   U20      -0.3635
   2820 C6         15.9180    3.7070   50.5460 C.2      88   U20      -0.1126
   2821 H5'        11.6600    6.3765   50.9422 H        88   U20       0.0679
   2822 H5''       12.9081    7.1554   51.9417 H        88   U20       0.0679
   2823 H4'        13.4413    7.5361   49.6164 H        88   U20       0.1174
   2824 H3'        13.0400    4.5507   49.2955 H        88   U20       0.0615
   2825 H2'        14.8527    4.4409   47.8198 H        88   U20       0.0972
   2826 H1'        16.3568    6.5845   48.8766 H        88   U20       0.1824
   2827 H3         19.3881    3.2565   49.3896 H        88   U20       0.3154
   2828 H5         16.0900    1.9169   51.6332 H        88   U20       0.1811
   2829 H6         14.8982    3.8560   50.8687 H        88   U20       0.2188
   2830 HO2'       15.5633    6.2400   46.6250 H        88   U20       0.4186
   2831 P          11.0660    5.1420   47.6000 P.3      89   G21       1.1662
   2832 OP1        10.9490    4.0180   48.5580 O.co2    89   G21      -0.7760
   2833 OP2        11.1590    4.8750   46.1460 O.co2    89   G21      -0.7760
   2834 O5'         9.8480    6.1570   47.8190 O.3      89   G21      -0.4989
   2835 C5'         9.4110    6.4660   49.1310 C.3      89   G21       0.0558
   2836 C4'         9.2810    7.9660   49.3230 C.3      89   G21       0.1065
   2837 O4'        10.5890    8.5870   49.3500 O.3      89   G21      -0.3548
   2838 C3'         8.5720    8.7350   48.2220 C.3      89   G21       0.2022
   2839 O3'         7.1640    8.5660   48.3140 O.3      89   G21      -0.5246
   2840 C2'         8.9760   10.1480   48.6160 C.3      89   G21       0.0670
   2841 O2'         8.2710   10.5900   49.7590 O.3      89   G21      -0.6139
   2842 C1'        10.4460    9.9430   48.9680 C.3      89   G21       0.0191
   2843 N9         11.3620   10.2390   47.8700 N.ar     89   G21       0.0492
   2844 C8         12.0870    9.3430   47.1190 C.ar     89   G21       0.1374
   2845 N7         12.8290    9.9130   46.2090 N.ar     89   G21      -0.5709
   2846 C5         12.5800   11.2720   46.3650 C.ar     89   G21       0.1744
   2847 C6         13.0960   12.3880   45.6610 C.2      89   G21       0.4770
   2848 O6         13.9070   12.3980   44.7260 O.2      89   G21      -0.5597
   2849 N1         12.5820   13.5910   46.1440 N.am     89   G21      -0.4787
   2850 C2         11.6810   13.7020   47.1730 C.2      89   G21       0.7657
   2851 N2         11.2960   14.9450   47.4970 N.pl3    89   G21      -0.9672
   2852 N3         11.1900   12.6660   47.8410 N.2      89   G21      -0.6323
   2853 C4         11.6810   11.4880   47.3850 C.ar     89   G21       0.1222
   2854 H5'         8.4408    5.9996   49.3023 H        89   G21       0.0679
   2855 H5''       10.1297    6.0733   49.8502 H        89   G21       0.0679
   2856 H4'         8.7777    8.1593   50.2703 H        89   G21       0.1174
   2857 H3'         8.9480    8.4671   47.2346 H        89   G21       0.0615
   2858 H2'         8.8593   10.8419   47.7836 H        89   G21       0.0972
   2859 H1'        10.6972   10.5775   49.8180 H        89   G21       0.2006
   2860 H8         12.0463    8.2741   47.2676 H        89   G21       0.1640
   2861 H1         12.8962   14.4439   45.7037 H        89   G21       0.3424
   2862 H21        11.6673   15.7366   46.9915 H        89   G21       0.4364
   2863 H22        10.6347   15.0896   48.2466 H        89   G21       0.4364
   2864 HO2'        7.4512   10.0970   49.8398 H        89   G21       0.4186
   2865 P           6.2610    8.6400   46.9970 P.3      90   C22       1.1662
   2866 OP1         4.9020    8.1860   47.3630 O.co2    90   C22      -0.7760
   2867 OP2         7.0050    7.9760   45.9030 O.co2    90   C22      -0.7760
   2868 O5'         6.2110   10.2000   46.6500 O.3      90   C22      -0.4989
   2869 C5'         5.5830   11.1190   47.5340 C.3      90   C22       0.0558
   2870 C4'         5.9180   12.5340   47.1050 C.3      90   C22       0.1065
   2871 O4'         7.3560   12.7060   47.1240 O.3      90   C22      -0.3548
   2872 C3'         5.5410   12.8540   45.6670 C.3      90   C22       0.2022
   2873 O3'         4.1670   13.2090   45.5780 O.3      90   C22      -0.5246
   2874 C2'         6.4710   14.0220   45.3590 C.3      90   C22       0.0670
   2875 O2'         5.9980   15.2500   45.8760 O.3      90   C22      -0.6139
   2876 C1'         7.7410   13.6030   46.0960 C.3      90   C22       0.0066
   2877 N1          8.7590   12.9460   45.2190 N.am     90   C22      -0.0484
   2878 C2          9.5210   13.7320   44.3470 C.2      90   C22       0.7538
   2879 O2          9.3290   14.9520   44.3210 O.2      90   C22      -0.6252
   2880 N3         10.4520   13.1330   43.5610 N.2      90   C22      -0.7584
   2881 C4         10.6230   11.8130   43.6190 C.2      90   C22       0.8185
   2882 N4         11.5510   11.2690   42.8240 N.pl3    90   C22      -0.9530
   2883 C5          9.8560   10.9900   44.4980 C.2      90   C22      -0.5215
   2884 C6          8.9440   11.5930   45.2700 C.2      90   C22       0.0053
   2885 H5'         5.9427   10.9515   48.5492 H        90   C22       0.0679
   2886 H5''        4.5030   10.9749   47.5020 H        90   C22       0.0679
   2887 H4'         5.4486   13.2489   47.7808 H        90   C22       0.1174
   2888 H3'         5.7607   12.0077   45.0162 H        90   C22       0.0615
   2889 H2'         6.6535   14.0985   44.2871 H        90   C22       0.0972
   2890 H1'         8.1890   14.4861   46.5515 H        90   C22       0.2029
   2891 H5         10.0060    9.9212   44.5385 H        90   C22       0.1928
   2892 H6          8.3441   11.0002   45.9447 H        90   C22       0.1958
   2893 H41        12.0927   11.8555   42.2053 H        90   C22       0.4234
   2894 H42        11.7100   10.2718   42.8424 H        90   C22       0.4234
   2895 HO2'        6.4210   15.9768   45.4130 H        90   C22       0.4186
   2896 P           3.2810   12.6390   44.3730 P.3      91   C23       1.1662
   2897 OP1         1.8570   12.8370   44.7240 O.co2    91   C23      -0.7760
   2898 OP2         3.7820   11.2870   44.0270 O.co2    91   C23      -0.7760
   2899 O5'         3.6540   13.6300   43.1750 O.3      91   C23      -0.4989
   2900 C5'         3.5090   15.0360   43.3550 C.3      91   C23       0.0558
   2901 C4'         3.9860   15.7950   42.1300 C.3      91   C23       0.1065
   2902 O4'         5.4060   15.5650   41.9370 O.3      91   C23      -0.3548
   2903 C3'         3.3040   15.3900   40.8250 C.3      91   C23       0.2022
   2904 O3'         3.1090   16.5270   39.9980 O.3      91   C23      -0.5246
   2905 C2'         4.3200   14.4470   40.1960 C.3      91   C23       0.0670
   2906 O2'         4.2110   14.4050   38.7880 O.3      91   C23      -0.6139
   2907 C1'         5.6170   15.1290   40.6100 C.3      91   C23       0.0066
   2908 N1          6.7990   14.2230   40.5350 N.am     91   C23      -0.0484
   2909 C2          7.8850   14.5860   39.7290 C.2      91   C23       0.7538
   2910 O2          7.8500   15.6610   39.1160 O.2      91   C23      -0.6252
   2911 N3          8.9480   13.7510   39.6450 N.2      91   C23      -0.7584
   2912 C4          8.9480   12.6000   40.3180 C.2      91   C23       0.8185
   2913 N4         10.0210   11.8120   40.1960 N.pl3    91   C23      -0.9530
   2914 C5          7.8470   12.2080   41.1400 C.2      91   C23      -0.5215
   2915 C6          6.8010   13.0390   41.2150 C.2      91   C23       0.0053
   2916 H5'         2.4579   15.2661   43.5294 H        91   C23       0.0679
   2917 H5''        4.0930   15.3488   44.2206 H        91   C23       0.0679
   2918 H4'         3.8234   16.8603   42.2935 H        91   C23       0.1174
   2919 H3'         2.3609   14.8786   41.0176 H        91   C23       0.0615
   2920 H2'         4.2471   13.4479   40.6256 H        91   C23       0.0972
   2921 H1'         5.7873   15.9950   39.9704 H        91   C23       0.2029
   2922 H5          7.8587   11.2738   41.6817 H        91   C23       0.1928
   2923 H6          5.9482   12.7700   41.8206 H        91   C23       0.1958
   2924 H41        10.7934   12.0976   39.6113 H        91   C23       0.4234
   2925 H42        10.0592   10.9310   40.6885 H        91   C23       0.4234
   2926 HO2'        3.3895   13.9729   38.5429 H        91   C23       0.4186
   2927 P           1.7370   17.3460   40.0470 P.3      92   C24       1.1662
   2928 OP1         1.4760   17.7290   41.4540 O.co2    92   C24      -0.7760
   2929 OP2         0.7240   16.5870   39.2840 O.co2    92   C24      -0.7760
   2930 O5'         2.1230   18.6570   39.2130 O.3      92   C24      -0.4989
   2931 C5'         1.1480   19.3710   38.4670 C.3      92   C24       0.0558
   2932 C4'         1.8250   20.4440   37.6360 C.3      92   C24       0.1065
   2933 O4'         2.8740   21.0630   38.4200 O.3      92   C24      -0.3548
   2934 C3'         2.5510   19.9330   36.4020 C.3      92   C24       0.2022
   2935 O3'         1.6440   19.7760   35.3200 O.3      92   C24      -0.5246
   2936 C2'         3.5470   21.0600   36.1510 C.3      92   C24       0.0670
   2937 O2'         2.9560   22.1690   35.5040 O.3      92   C24      -0.6139
   2938 C1'         3.9460   21.4390   37.5750 C.3      92   C24       0.0066
   2939 N1          5.2120   20.7770   38.0230 N.am     92   C24      -0.0484
   2940 C2          6.3660   21.5500   38.2010 C.2      92   C24       0.7538
   2941 O2          6.3130   22.7720   38.0050 O.2      92   C24      -0.6252
   2942 N3          7.5130   20.9410   38.5920 N.2      92   C24      -0.7584
   2943 C4          7.5340   19.6230   38.7970 C.2      92   C24       0.8185
   2944 N4          8.6880   19.0710   39.1830 N.pl3    92   C24      -0.9530
   2945 C5          6.3720   18.8150   38.6120 C.2      92   C24      -0.5215
   2946 C6          5.2460   19.4270   38.2290 C.2      92   C24       0.0053
   2947 H5'         0.6200   18.6818   37.8080 H        92   C24       0.0679
   2948 H5''        0.4373   19.8359   39.1503 H        92   C24       0.0679
   2949 H4'         1.0931   21.1972   37.3444 H        92   C24       0.1174
   2950 H3'         3.0681   18.9973   36.6147 H        92   C24       0.0615
   2951 H2'         4.4088   20.6980   35.5903 H        92   C24       0.0972
   2952 H1'         4.0751   22.5200   37.6291 H        92   C24       0.2029
   2953 H5          6.4009   17.7478   38.7754 H        92   C24       0.1928
   2954 H6          4.3490   18.8443   38.0802 H        92   C24       0.1958
   2955 H41         9.5064   19.6489   39.3110 H        92   C24       0.4234
   2956 H42         8.7419   18.0758   39.3468 H        92   C24       0.4234
   2957 HO2'        2.7078   21.9234   34.6097 H        92   C24       0.4186
   2958 P           1.4190   18.3350   34.6630 P.3      93   U25       1.1662
   2959 OP1         0.3110   18.4680   33.6910 O.co2    93   U25      -0.7760
   2960 OP2         1.3310   17.3320   35.7470 O.co2    93   U25      -0.7760
   2961 O5'         2.7870   18.0770   33.8740 O.3      93   U25      -0.4989
   2962 C5'         3.0610   18.8230   32.7010 C.3      93   U25       0.0558
   2963 C4'         4.3820   18.4320   32.0610 C.3      93   U25       0.1065
   2964 O4'         5.4550   18.3530   33.0320 O.3      93   U25      -0.3548
   2965 C3'         4.4470   17.0640   31.4060 C.3      93   U25       0.2022
   2966 O3'         3.6760   17.0390   30.2090 O.3      93   U25      -0.5246
   2967 C2'         5.9470   17.0360   31.1380 C.3      93   U25       0.0670
   2968 O2'         6.3220   17.8960   30.0800 O.3      93   U25      -0.6139
   2969 C1'         6.4920   17.5710   32.4630 C.3      93   U25       0.0674
   2970 N1          6.8800   16.4660   33.3900 N.am     93   U25       0.0418
   2971 C2          7.9880   15.7030   33.0810 C.2      93   U25       0.4687
   2972 O2          8.6840   15.8990   32.1000 O.2      93   U25      -0.5477
   2973 N3          8.2650   14.6950   33.9690 N.am     93   U25      -0.3549
   2974 C4          7.5570   14.3670   35.1070 C.2      93   U25       0.5952
   2975 O4          7.9350   13.4300   35.8050 O.2      93   U25      -0.5761
   2976 C5          6.4090   15.2030   35.3630 C.2      93   U25      -0.3635
   2977 C6          6.1180   16.1950   34.5100 C.2      93   U25      -0.1126
   2978 H5'         2.2597   18.6516   31.9822 H        93   U25       0.0679
   2979 H5''        3.0896   19.8829   32.9537 H        93   U25       0.0679
   2980 H4'         4.6427   19.1849   31.3172 H        93   U25       0.1174
   2981 H3'         4.1467   16.2740   32.0943 H        93   U25       0.0615
   2982 H2'         6.2925   16.0184   30.9557 H        93   U25       0.0972
   2983 H1'         7.3586   18.2033   32.2698 H        93   U25       0.1824
   2984 H3          9.0776   14.1300   33.7675 H        93   U25       0.3154
   2985 H5          5.7913   15.0313   36.2321 H        93   U25       0.1811
   2986 H6          5.2511   16.8084   34.7065 H        93   U25       0.2188
   2987 HO2'        7.2795   17.9452   30.0317 H        93   U25       0.4186
   2988 P           3.2000   15.6550   29.5580 P.3      94   U26       1.1662
   2989 OP1         2.2970   15.9770   28.4300 O.co2    94   U26      -0.7760
   2990 OP2         2.7330   14.7660   30.6450 O.co2    94   U26      -0.7760
   2991 O5'         4.5600   15.0470   28.9710 O.3      94   U26      -0.4989
   2992 C5'         5.1450   15.6060   27.8010 C.3      94   U26       0.0558
   2993 C4'         6.4170   14.8700   27.4230 C.3      94   U26       0.1065
   2994 O4'         7.3490   14.8970   28.5350 O.3      94   U26      -0.3548
   2995 C3'         6.2570   13.3820   27.1420 C.3      94   U26       0.2022
   2996 O3'         5.7380   13.1400   25.8380 O.3      94   U26      -0.5246
   2997 C2'         7.7020   12.9220   27.2860 C.3      94   U26       0.0670
   2998 O2'         8.5040   13.2820   26.1780 O.3      94   U26      -0.6139
   2999 C1'         8.1250   13.7110   28.5230 C.3      94   U26       0.0674
   3000 N1          7.9010   12.9490   29.7900 N.am     94   U26       0.0418
   3001 C2          8.7830   11.9440   30.1320 C.2      94   U26       0.4687
   3002 O2          9.7540   11.6480   29.4580 O.2      94   U26      -0.5477
   3003 N3          8.4940   11.2950   31.3060 N.am     94   U26      -0.3549
   3004 C4          7.4280   11.5390   32.1520 C.2      94   U26       0.5952
   3005 O4          7.2960   10.8720   33.1710 O.2      94   U26      -0.5761
   3006 C5          6.5480   12.5960   31.7260 C.2      94   U26      -0.3635
   3007 C6          6.8120   13.2460   30.5860 C.2      94   U26      -0.1126
   3008 H5'         4.4339   15.5340   26.9780 H        94   U26       0.0679
   3009 H5''        5.3782   16.6551   27.9828 H        94   U26       0.0679
   3010 H4'         6.8715   15.3542   26.5587 H        94   U26       0.1174
   3011 H3'         5.6277   12.9137   27.8988 H        94   U26       0.0615
   3012 H2'         7.7528   11.8492   27.4718 H        94   U26       0.0972
   3013 H1'         9.1802   13.9715   28.4409 H        94   U26       0.1824
   3014 H3          9.1287   10.5594   31.5820 H        94   U26       0.3154
   3015 H5          5.6853   12.8612   32.3191 H        94   U26       0.1811
   3016 H6          6.1449   14.0365   30.2753 H        94   U26       0.2188
   3017 HO2'        8.9491   12.5024   25.8378 H        94   U26       0.4186
   3018 P           4.7730   11.8830   25.6010 P.3      95   C27       1.1662
   3019 OP1         3.9960   12.1290   24.3660 O.co2    95   C27      -0.7760
   3020 OP2         4.0690   11.5960   26.8710 O.co2    95   C27      -0.7760
   3021 O5'         5.8030   10.6890   25.3290 O.3      95   C27      -0.4989
   3022 C5'         6.6860   10.7560   24.2140 C.3      95   C27       0.0558
   3023 C4'         7.8720    9.8260   24.4000 C.3      95   C27       0.1065
   3024 O4'         8.5390   10.1250   25.6510 O.3      95   C27      -0.3548
   3025 C3'         7.5310    8.3490   24.5210 C.3      95   C27       0.2022
   3026 O3'         7.3220    7.7740   23.2380 O.3      95   C27      -0.5246
   3027 C2'         8.7990    7.8200   25.1820 C.3      95   C27       0.0670
   3028 O2'         9.8670    7.6660   24.2680 O.3      95   C27      -0.6139
   3029 C1'         9.1030    8.9370   26.1800 C.3      95   C27       0.0066
   3030 N1          8.5170    8.6670   27.5270 N.am     95   C27      -0.0484
   3031 C2          9.1570    7.7700   28.3910 C.2      95   C27       0.7538
   3032 O2         10.2080    7.2280   28.0280 O.2      95   C27      -0.6252
   3033 N3          8.6060    7.5210   29.6070 N.2      95   C27      -0.7584
   3034 C4          7.4710    8.1260   29.9640 C.2      95   C27       0.8185
   3035 N4          6.9640    7.8540   31.1720 N.pl3    95   C27      -0.9530
   3036 C5          6.8030    9.0390   29.0960 C.2      95   C27      -0.5215
   3037 C6          7.3530    9.2750   27.9000 C.2      95   C27       0.0053
   3038 H5'         7.0486   11.7784   24.1080 H        95   C27       0.0679
   3039 H5''        6.1456   10.4718   23.3111 H        95   C27       0.0679
   3040 H4'         8.5721    9.9671   23.5766 H        95   C27       0.1174
   3041 H3'         6.6631    8.1990   25.1632 H        95   C27       0.0615
   3042 H2'         8.5996    6.8831   25.7021 H        95   C27       0.0972
   3043 H1'        10.1824    9.0576   26.2717 H        95   C27       0.2029
   3044 H5          5.8848    9.5231   29.3940 H        95   C27       0.1928
   3045 H6          6.8683    9.9579   27.2180 H        95   C27       0.1958
   3046 H41         7.4389    7.2068   31.7850 H        95   C27       0.4234
   3047 H42         6.1064    8.2959   31.4709 H        95   C27       0.4234
   3048 HO2'        9.6602    6.9617   23.6493 H        95   C27       0.4186
   3049 P           6.2190    6.6310   23.0380 P.3      96   U28       1.1662
   3050 OP1         6.6820    5.4190   23.7530 O.co2    96   U28      -0.7760
   3051 OP2         5.9100    6.5630   21.5930 O.co2    96   U28      -0.7760
   3052 O5'         4.9340    7.2160   23.7910 O.3      96   U28      -0.4989
   3053 C5'         3.7110    6.4880   23.7790 C.3      96   U28       0.0558
   3054 C4'         2.9940    6.5600   25.1190 C.3      96   U28       0.1065
   3055 O4'         3.6100    5.6580   26.0720 O.3      96   U28      -0.3548
   3056 C3'         2.9750    7.9190   25.8100 C.3      96   U28       0.2022
   3057 O3'         1.7660    8.0360   26.5490 O.3      96   U28      -0.5246
   3058 C2'         4.1590    7.8160   26.7650 C.3      96   U28       0.0670
   3059 O2'         4.0340    8.7170   27.8480 O.3      96   U28      -0.6139
   3060 C1'         3.9700    6.3780   27.2340 C.3      96   U28       0.0674
   3061 N1          5.1600    5.6960   27.8220 N.am     96   U28       0.0418
   3062 C2          5.1500    5.3550   29.1590 C.2      96   U28       0.4687
   3063 O2          4.2260    5.6190   29.9070 O.2      96   U28      -0.5477
   3064 N3          6.2750    4.7010   29.5980 N.am     96   U28      -0.3549
   3065 C4          7.3790    4.3470   28.8440 C.2      96   U28       0.5952
   3066 O4          8.3170    3.7620   29.3740 O.2      96   U28      -0.5761
   3067 C5          7.3100    4.7230   27.4560 C.2      96   U28      -0.3635
   3068 C6          6.2240    5.3610   27.0070 C.2      96   U28      -0.1126
   3069 H5'         3.0611    6.9039   23.0091 H        96   U28       0.0679
   3070 H5''        3.9201    5.4447   23.5428 H        96   U28       0.0679
   3071 H4'         1.9624    6.2416   24.9689 H        96   U28       0.1174
   3072 H3'         3.0969    8.7368   25.0997 H        96   U28       0.0615
   3073 H2'         5.1071    7.9459   26.2432 H        96   U28       0.0972
   3074 H1'         3.1470    6.3398   27.9477 H        96   U28       0.1824
   3075 H3          6.2986    4.4518   30.5765 H        96   U28       0.3154
   3076 H5          8.1251    4.4927   26.7859 H        96   U28       0.1811
   3077 H6          6.1766    5.6261   25.9611 H        96   U28       0.2188
   3078 HO2'        4.0981    9.6184   27.5240 H        96   U28       0.4186
   3079 P           0.4030    8.4660   25.8310 P.3      97   G29       1.1662
   3080 OP1         0.3900    7.9000   24.4620 O.co2    97   G29      -0.7760
   3081 OP2         0.2330    9.9240   26.0320 O.co2    97   G29      -0.7760
   3082 O5'        -0.6970    7.7020   26.7020 O.3      97   G29      -0.4989
   3083 C5'        -1.5490    8.4220   27.5770 C.3      97   G29       0.0558
   3084 C4'        -2.5430    7.4730   28.2150 C.3      97   G29       0.1065
   3085 O4'        -3.1310    6.6280   27.1920 O.3      97   G29      -0.3548
   3086 C3'        -1.9400    6.4820   29.1960 C.3      97   G29       0.2022
   3087 O3'        -1.7490    7.0790   30.4700 O.3      97   G29      -0.5246
   3088 C2'        -3.0350    5.4230   29.2050 C.3      97   G29       0.0670
   3089 O2'        -4.1970    5.8530   29.8860 O.3      97   G29      -0.6139
   3090 C1'        -3.3040    5.3180   27.7060 C.3      97   G29       0.0191
   3091 N9         -2.3630    4.4160   27.0450 N.ar     97   G29       0.0492
   3092 C8         -1.3870    4.7450   26.1350 C.ar     97   G29       0.1374
   3093 N7         -0.6860    3.7230   25.7310 N.ar     97   G29      -0.5709
   3094 C5         -1.2280    2.6440   26.4200 C.ar     97   G29       0.1744
   3095 C6         -0.8790    1.2730   26.3940 C.2      97   G29       0.4770
   3096 O6          0.0090    0.7200   25.7320 O.2      97   G29      -0.5597
   3097 N1         -1.6810    0.5160   27.2460 N.am     97   G29      -0.4787
   3098 C2         -2.6940    1.0240   28.0260 C.2      97   G29       0.7657
   3099 N2         -3.3620    0.1440   28.7840 N.pl3    97   G29      -0.9672
   3100 N3         -3.0310    2.3070   28.0590 N.2      97   G29      -0.6323
   3101 C4         -2.2600    3.0560   27.2340 C.ar     97   G29       0.1222
   3102 H5'        -0.9515    8.8977   28.3547 H        97   G29       0.0679
   3103 H5''       -2.0860    9.1854   27.0140 H        97   G29       0.0679
   3104 H4'        -3.3273    8.0453   28.7104 H        97   G29       0.1174
   3105 H3'        -1.0051    6.0733   28.8126 H        97   G29       0.0615
   3106 H2'        -2.6680    4.4788   29.6075 H        97   G29       0.0972
   3107 H1'        -4.3264    4.9819   27.5334 H        97   G29       0.2006
   3108 H8         -1.2172    5.7535   25.7879 H        97   G29       0.1640
   3109 H1         -1.5059   -0.4775   27.2943 H        97   G29       0.3424
   3110 H21        -3.1108   -0.8340   28.7626 H        97   G29       0.4364
   3111 H22        -4.1168    0.4587   29.3768 H        97   G29       0.4364
   3112 HO2'       -4.0132    5.9144   30.8262 H        97   G29       0.4186
   3113 P          -0.4520    6.7130   31.3340 P.3      98   C30       1.1662
   3114 OP1        -0.3260    7.7200   32.4120 O.co2    98   C30      -0.7760
   3115 OP2         0.6780    6.4770   30.4090 O.co2    98   C30      -0.7760
   3116 O5'        -0.8550    5.3110   31.9810 O.3      98   C30      -0.4989
   3117 C5'        -2.0020    5.2200   32.8140 C.3      98   C30       0.0558
   3118 C4'        -2.2370    3.7790   33.2140 C.3      98   C30       0.1065
   3119 O4'        -2.5240    2.9930   32.0300 O.3      98   C30      -0.3548
   3120 C3'        -1.0260    3.0780   33.8080 C.3      98   C30       0.2022
   3121 O3'        -0.8460    3.4100   35.1790 O.3      98   C30      -0.5246
   3122 C2'        -1.4430    1.6260   33.6130 C.3      98   C30       0.0670
   3123 O2'        -2.4670    1.2350   34.5040 O.3      98   C30      -0.6139
   3124 C1'        -1.9870    1.6920   32.1900 C.3      98   C30       0.0066
   3125 N1         -0.9350    1.4370   31.1570 N.am     98   C30      -0.0484
   3126 C2         -0.4970    0.1240   30.9420 C.2      98   C30       0.7538
   3127 O2         -0.9960   -0.7950   31.6020 O.2      98   C30      -0.6252
   3128 N3          0.4600   -0.1070   30.0090 N.2      98   C30      -0.7584
   3129 C4          0.9740    0.9070   29.3120 C.2      98   C30       0.8185
   3130 N4          1.9160    0.6230   28.4060 N.pl3    98   C30      -0.9530
   3131 C5          0.5460    2.2540   29.5170 C.2      98   C30      -0.5215
   3132 C6         -0.3990    2.4710   30.4400 C.2      98   C30       0.0053
   3133 H5'        -1.8469    5.8224   33.7090 H        98   C30       0.0679
   3134 H5''       -2.8723    5.5922   32.2735 H        98   C30       0.0679
   3135 H4'        -3.0752    3.7204   33.9084 H        98   C30       0.1174
   3136 H3'        -0.1275    3.3035   33.2336 H        98   C30       0.0615
   3137 H2'        -0.5855    0.9563   33.6778 H        98   C30       0.0972
   3138 H1'        -2.7853    0.9585   32.0772 H        98   C30       0.2029
   3139 H5          0.9695    3.0683   28.9478 H        98   C30       0.1928
   3140 H6         -0.7435    3.4784   30.6213 H        98   C30       0.1958
   3141 H41         2.2130   -0.3325   28.2689 H        98   C30       0.4234
   3142 H42         2.3303    1.3641   27.8590 H        98   C30       0.4234
   3143 HO2'       -2.1170    1.1958   35.3971 H        98   C30       0.4186
   3144 P           0.6360    3.5840   35.7580 P.3      99   G31       1.1662
   3145 OP1         0.5340    3.9370   37.1910 O.co2    99   G31      -0.7760
   3146 OP2         1.3840    4.4700   34.8350 O.co2    99   G31      -0.7760
   3147 O5'         1.2510    2.1130   35.6320 O.3      99   G31      -0.4989
   3148 C5'         0.6790    1.0270   36.3530 C.3      99   G31       0.0558
   3149 C4'         1.3550   -0.2760   35.9700 C.3      99   G31       0.1065
   3150 O4'         1.0780   -0.5840   34.5770 O.3      99   G31      -0.3548
   3151 C3'         2.8730   -0.2490   36.0670 C.3      99   G31       0.2022
   3152 O3'         3.2950   -0.5640   37.3900 O.3      99   G31      -0.5246
   3153 C2'         3.2640   -1.3330   35.0680 C.3      99   G31       0.0670
   3154 O2'         3.1410   -2.6360   35.6030 O.3      99   G31      -0.6139
   3155 C1'         2.2420   -1.1030   33.9590 C.3      99   G31       0.0191
   3156 N9          2.7100   -0.1480   32.9570 N.ar     99   G31       0.0492
   3157 C8          2.2790    1.1440   32.7750 C.ar     99   G31       0.1374
   3158 N7          2.8860    1.7650   31.8020 N.ar     99   G31      -0.5709
   3159 C5          3.7800    0.8250   31.3070 C.ar     99   G31       0.1744
   3160 C6          4.7100    0.9250   30.2440 C.2      99   G31       0.4770
   3161 O6          4.9320    1.9000   29.5090 O.2      99   G31      -0.5597
   3162 N1          5.4230   -0.2610   30.0700 N.am     99   G31      -0.4787
   3163 C2          5.2570   -1.3970   30.8290 C.2      99   G31       0.7657
   3164 N2          6.0330   -2.4440   30.5150 N.pl3    99   G31      -0.9672
   3165 N3          4.3870   -1.5030   31.8260 N.2      99   G31      -0.6323
   3166 C4          3.6850   -0.3580   32.0080 C.ar     99   G31       0.1222
   3167 H5'         0.8080    1.1979   37.4218 H        99   G31       0.0679
   3168 H5''       -0.3847    0.9624   36.1239 H        99   G31       0.0679
   3169 H4'         0.9694   -1.0787   36.5986 H        99   G31       0.1174
   3170 H3'         3.2629    0.7207   35.7575 H        99   G31       0.0615
   3171 H2'         4.2753   -1.1653   34.6974 H        99   G31       0.0972
   3172 H1'         2.0069   -2.0519   33.4769 H        99   G31       0.2006
   3173 H8          1.5105    1.6017   33.3803 H        99   G31       0.1640
   3174 H1          6.1123   -0.2882   29.3323 H        99   G31       0.3424
   3175 H21         6.6963   -2.3716   29.7568 H        99   G31       0.4364
   3176 H22         5.9544   -3.3053   31.0366 H        99   G31       0.4364
   3177 HO2'        3.2875   -3.2823   34.9084 H        99   G31       0.4186
   3178 P           4.5590    0.1870   38.0210 P.3     100   U32       1.1662
   3179 OP1         4.7520   -0.3170   39.4000 O.co2   100   U32      -0.7760
   3180 OP2         4.3980    1.6410   37.7910 O.co2   100   U32      -0.7760
   3181 O5'         5.7730   -0.3160   37.1070 O.3     100   U32      -0.4989
   3182 C5'         6.1270   -1.6940   37.0640 C.3     100   U32       0.0558
   3183 C4'         7.1270   -1.9410   35.9490 C.3     100   U32       0.1065
   3184 O4'         6.5280   -1.6220   34.6680 O.3     100   U32      -0.3548
   3185 C3'         8.3650   -1.0600   36.0010 C.3     100   U32       0.2022
   3186 O3'         9.3160   -1.5950   36.9140 O.3     100   U32      -0.5246
   3187 C2'         8.8390   -1.1300   34.5530 C.3     100   U32       0.0670
   3188 O2'         9.5280   -2.3300   34.2600 O.3     100   U32      -0.6139
   3189 C1'         7.5120   -1.0870   33.7980 C.3     100   U32       0.0674
   3190 N1          7.0960    0.2900   33.3820 N.am    100   U32       0.0418
   3191 C2          7.6870    0.8740   32.2780 C.2     100   U32       0.4687
   3192 O2          8.5460    0.3280   31.6080 O.2     100   U32      -0.5477
   3193 N3          7.2360    2.1370   31.9830 N.am    100   U32      -0.3549
   3194 C4          6.2720    2.8600   32.6620 C.2     100   U32       0.5952
   3195 O4          5.9700    3.9850   32.2770 O.2     100   U32      -0.5761
   3196 C5          5.7030    2.1860   33.8010 C.2     100   U32      -0.3635
   3197 C6          6.1270    0.9550   34.1080 C.2     100   U32      -0.1126
   3198 H5'         6.5712   -1.9819   38.0168 H       100   U32       0.0679
   3199 H5''        5.2329   -2.2916   36.8867 H       100   U32       0.0679
   3200 H4'         7.4275   -2.9887   35.9575 H       100   U32       0.1174
   3201 H3'         8.1010   -0.0379   36.2724 H       100   U32       0.0615
   3202 H2'         9.4518   -0.2632   34.3055 H       100   U32       0.0972
   3203 H1'         7.5857   -1.7189   32.9129 H       100   U32       0.1824
   3204 H3          7.6544    2.5877   31.1818 H       100   U32       0.3154
   3205 H5          4.9441    2.6683   34.3992 H       100   U32       0.1811
   3206 H6          5.6918    0.4583   34.9626 H       100   U32       0.2188
   3207 HO2'       10.3598   -2.3471   34.7390 H       100   U32       0.4186
   3208 P          10.2880   -0.6130   37.7180 P.3     101   G33       1.1662
   3209 OP1        10.5460   -1.2150   39.0460 O.co2   101   G33      -0.7760
   3210 OP2         9.7360    0.7580   37.6290 O.co2   101   G33      -0.7760
   3211 O5'        11.6320   -0.6670   36.8500 O.3     101   G33      -0.4989
   3212 C5'        12.3260    0.5310   36.5310 C.3     101   G33       0.0558
   3213 C4'        12.9670    0.4410   35.1590 C.3     101   G33       0.1065
   3214 O4'        11.9540    0.1390   34.1650 O.3     101   G33      -0.3548
   3215 C3'        13.5980    1.7370   34.6690 C.3     101   G33       0.2022
   3216 O3'        14.9340    1.8650   35.1290 O.3     101   G33      -0.5246
   3217 C2'        13.5070    1.5660   33.1590 C.3     101   G33       0.0670
   3218 O2'        14.4270    0.6150   32.6580 O.3     101   G33      -0.6139
   3219 C1'        12.0850    1.0260   33.0680 C.3     101   G33       0.0191
   3220 N9         11.0620    2.0650   33.1830 N.ar    101   G33       0.0492
   3221 C8         10.1140    2.1860   34.1710 C.ar    101   G33       0.1374
   3222 N7          9.3290    3.2160   34.0200 N.ar    101   G33      -0.5709
   3223 C5          9.7840    3.8220   32.8560 C.ar    101   G33       0.1744
   3224 C6          9.3180    4.9800   32.1890 C.2     101   G33       0.4770
   3225 O6          8.3830    5.7270   32.5090 O.2     101   G33      -0.5597
   3226 N1         10.0580    5.2500   31.0400 N.am    101   G33      -0.4787
   3227 C2         11.1140    4.4940   30.5920 C.2     101   G33       0.7657
   3228 N2         11.7060    4.9100   29.4620 N.pl3   101   G33      -0.9672
   3229 N3         11.5580    3.4040   31.2060 N.2     101   G33      -0.6323
   3230 C4         10.8490    3.1260   32.3280 C.ar    101   G33       0.1222
   3231 H5'        13.1028    0.7017   37.2764 H       101   G33       0.0679
   3232 H5''       11.6255    1.3659   36.5454 H       101   G33       0.0679
   3233 H4'        13.7182   -0.3488   35.1617 H       101   G33       0.1174
   3234 H3'        13.0035    2.5925   34.9897 H       101   G33       0.0615
   3235 H2'        13.6031    2.5219   32.6440 H       101   G33       0.0972
   3236 H1'        11.9552    0.4805   32.1333 H       101   G33       0.2006
   3237 H8         10.0275    1.4930   34.9949 H       101   G33       0.1640
   3238 H1          9.7992    6.0610   30.4965 H       101   G33       0.3424
   3239 H21        11.3703    5.7382   28.9914 H       101   G33       0.4364
   3240 H22        12.4873    4.3949   29.0821 H       101   G33       0.4364
   3241 HO2'       15.3179    0.9670   32.7209 H       101   G33       0.4186
   3242 P          15.3620    3.2270   35.8530 P.3     102   A34       1.1662
   3243 OP1        16.7110    3.0310   36.4320 O.co2   102   A34      -0.7760
   3244 OP2        14.2410    3.6560   36.7200 O.co2   102   A34      -0.7760
   3245 O5'        15.4570    4.2580   34.6340 O.3     102   A34      -0.4989
   3246 C5'        16.4860    4.1120   33.6630 C.3     102   A34       0.0558
   3247 C4'        16.2680    5.0630   32.5010 C.3     102   A34       0.1065
   3248 O4'        14.9500    4.8500   31.9350 O.3     102   A34      -0.3548
   3249 C3'        16.2630    6.5410   32.8620 C.3     102   A34       0.2022
   3250 O3'        17.5850    7.0460   33.0010 O.3     102   A34      -0.5246
   3251 C2'        15.5440    7.1100   31.6450 C.3     102   A34       0.0670
   3252 O2'        16.3490    7.1140   30.4820 O.3     102   A34      -0.6139
   3253 C1'        14.4190    6.0900   31.5020 C.3     102   A34       0.0394
   3254 N9         13.2540    6.4250   32.3170 N.ar    102   A34      -0.0251
   3255 C8         12.8650    5.8400   33.4900 C.ar    102   A34       0.2006
   3256 N7         11.7720    6.3540   34.0000 N.ar    102   A34      -0.6073
   3257 C5         11.4210    7.3500   33.1020 C.ar    102   A34       0.0515
   3258 C6         10.3520    8.2690   33.0700 C.ar    102   A34       0.7009
   3259 N6          9.4020    8.3310   34.0100 N.pl3   102   A34      -0.9019
   3260 N1         10.2950    9.1260   32.0300 N.ar    102   A34      -0.7615
   3261 C2         11.2450    9.0630   31.0890 C.ar    102   A34       0.5875
   3262 N3         12.2940    8.2450   31.0110 N.ar    102   A34      -0.6997
   3263 C4         12.3240    7.4060   32.0580 C.ar    102   A34       0.3053
   3264 H5'        17.4483    4.3290   34.1267 H       102   A34       0.0679
   3265 H5''       16.4882    3.0867   33.2929 H       102   A34       0.0679
   3266 H4'        17.0236    4.8798   31.7371 H       102   A34       0.1174
   3267 H3'        15.6849    6.7156   33.7694 H       102   A34       0.0615
   3268 H2'        15.1484    8.1044   31.8521 H       102   A34       0.0972
   3269 H1'        14.1238    6.0157   30.4554 H       102   A34       0.2007
   3270 H8         13.4078    5.0295   33.9535 H       102   A34       0.1553
   3271 H2         11.1478    9.7734   30.2813 H       102   A34       0.0473
   3272 HO2'       16.2505    7.9535   30.0270 H       102   A34       0.4186
   3273 H61         8.8101    9.1039   33.7408 H       102   A34       0.4115
   3274 H62         9.2987    7.7325   34.8169 H       102   A34       0.4115
   3275 P          17.8770    8.2040   34.0670 P.3     103   A35       1.1662
   3276 OP1        19.3430    8.2980   34.2510 O.co2   103   A35      -0.7760
   3277 OP2        17.0000    7.9790   35.2370 O.co2   103   A35      -0.7760
   3278 O5'        17.3710    9.5160   33.3050 O.3     103   A35      -0.4989
   3279 C5'        17.7690    9.7390   31.9590 C.3     103   A35       0.0558
   3280 C4'        16.9570   10.8530   31.3260 C.3     103   A35       0.1065
   3281 O4'        15.6040   10.4120   31.0380 O.3     103   A35      -0.3548
   3282 C3'        16.7340   12.0710   32.2050 C.3     103   A35       0.2022
   3283 O3'        17.9160   12.8620   32.2940 O.3     103   A35      -0.5246
   3284 C2'        15.6190   12.7370   31.4070 C.3     103   A35       0.0670
   3285 O2'        16.0780   13.2900   30.1900 O.3     103   A35      -0.6139
   3286 C1'        14.7320   11.5270   31.1250 C.3     103   A35       0.0394
   3287 N9         13.7460   11.3030   32.1820 N.ar    103   A35      -0.0251
   3288 C8         13.7900   10.3610   33.1730 C.ar    103   A35       0.2006
   3289 N7         12.7670   10.4040   33.9910 N.ar    103   A35      -0.6073
   3290 C5         11.9990   11.4540   33.5130 C.ar    103   A35       0.0515
   3291 C6         10.7770   12.0150   33.9420 C.ar    103   A35       0.7009
   3292 N6         10.0900   11.5740   35.0020 N.pl3   103   A35      -0.9019
   3293 N1         10.2850   13.0550   33.2370 N.ar    103   A35      -0.7615
   3294 C2         10.9720   13.5000   32.1770 C.ar    103   A35       0.5875
   3295 N3         12.1230   13.0530   31.6770 N.ar    103   A35      -0.6997
   3296 C4         12.5890   12.0190   32.3970 C.ar    103   A35       0.3053
   3297 H5'        18.8238   10.0131   31.9407 H       103   A35       0.0679
   3298 H5''       17.6270    8.8223   31.3867 H       103   A35       0.0679
   3299 H4'        17.4375   11.1639   30.3983 H       103   A35       0.1174
   3300 H3'        16.3844   11.7789   33.1952 H       103   A35       0.0615
   3301 H2'        15.0940   13.4810   32.0062 H       103   A35       0.0972
   3302 H1'        14.2202   11.6645   30.1725 H       103   A35       0.2007
   3303 H8         14.5943    9.6471   33.2722 H       103   A35       0.1553
   3304 H2         10.5320   14.3371   31.6554 H       103   A35       0.0473
   3305 H61         9.4427   12.2966   35.2830 H       103   A35       0.4115
   3306 H62        10.1998   10.6731   35.4452 H       103   A35       0.4115
   3307 HO2'       15.3264   13.5645   29.6596 H       103   A35       0.4186
   3308 P          18.2160   13.6800   33.6390 P.3     104   G36       1.1662
   3309 OP1        19.5100   14.3860   33.4890 O.co2   104   G36      -0.7760
   3310 OP2        18.0000   12.7750   34.7900 O.co2   104   G36      -0.7760
   3311 O5'        17.0400   14.7590   33.6450 O.3     104   G36      -0.4989
   3312 C5'        16.9160   15.6770   32.5690 C.3     104   G36       0.0558
   3313 C4'        15.6390   16.4700   32.7390 C.3     104   G36       0.1065
   3314 O4'        14.4950   15.5940   32.5640 O.3     104   G36      -0.3548
   3315 C3'        15.4320   17.0140   34.1400 C.3     104   G36       0.2022
   3316 O3'        16.2010   18.1840   34.3600 O.3     104   G36      -0.5246
   3317 C2'        13.9370   17.2850   34.0910 C.3     104   G36       0.0670
   3318 O2'        13.6180   18.3740   33.2490 O.3     104   G36      -0.6139
   3319 C1'        13.4760   15.9710   33.4700 C.3     104   G36       0.0191
   3320 N9         13.3200   14.9200   34.4720 N.ar    104   G36       0.0492
   3321 C8         14.1320   13.8320   34.6870 C.ar    104   G36       0.1374
   3322 N7         13.7330   13.0760   35.6740 N.ar    104   G36      -0.5709
   3323 C5         12.5880   13.7050   36.1460 C.ar    104   G36       0.1744
   3324 C6         11.7140   13.3510   37.2050 C.2     104   G36       0.4770
   3325 O6         11.7830   12.3740   37.9650 O.2     104   G36      -0.5597
   3326 N1         10.6720   14.2670   37.3450 N.am    104   G36      -0.4787
   3327 C2         10.4950   15.3810   36.5590 C.2     104   G36       0.7657
   3328 N2          9.4360   16.1530   36.8410 N.pl3   104   G36      -0.9672
   3329 N3         11.3060   15.7230   35.5660 N.2     104   G36      -0.6323
   3330 C4         12.3230   14.8410   35.4150 C.ar    104   G36       0.1222
   3331 H5'        17.7692   16.3553   32.5680 H       104   G36       0.0679
   3332 H5''       16.8833   15.1311   31.6261 H       104   G36       0.0679
   3333 H4'        15.6032   17.2822   32.0129 H       104   G36       0.1174
   3334 H3'        15.6624   16.2544   34.8870 H       104   G36       0.0615
   3335 H2'        13.5236   17.4199   35.0905 H       104   G36       0.0972
   3336 H1'        12.5376   16.1196   32.9357 H       104   G36       0.2006
   3337 H8         15.0128   13.6231   34.0979 H       104   G36       0.1640
   3338 H1          9.9975   14.0997   38.0779 H       104   G36       0.3424
   3339 H21         8.8150   15.9019   37.5970 H       104   G36       0.4364
   3340 H22         9.2591   16.9857   36.2975 H       104   G36       0.4364
   3341 HO2'       12.6677   18.4092   33.1175 H       104   G36       0.4186
   3342 P          16.8310   18.4260   35.8100 P.3     105   G37       1.1662
   3343 OP1        17.8450   19.4960   35.6860 O.co2   105   G37      -0.7760
   3344 OP2        17.2000   17.1090   36.3760 O.co2   105   G37      -0.7760
   3345 O5'        15.5910   18.9690   36.6600 O.3     105   G37      -0.4989
   3346 C5'        14.7730   20.0160   36.1590 C.3     105   G37       0.0558
   3347 C4'        13.5200   20.1340   37.0020 C.3     105   G37       0.1065
   3348 O4'        12.6980   18.9510   36.8260 O.3     105   G37      -0.3548
   3349 C3'        13.7690   20.1570   38.5000 C.3     105   G37       0.2022
   3350 O3'        14.1960   21.4400   38.9420 O.3     105   G37      -0.5246
   3351 C2'        12.3820   19.7880   39.0090 C.3     105   G37       0.0670
   3352 O2'        11.4520   20.8400   38.8560 O.3     105   G37      -0.6139
   3353 C1'        12.0470   18.6530   38.0510 C.3     105   G37       0.0191
   3354 N9         12.4870   17.3520   38.5530 N.ar    105   G37       0.0492
   3355 C8         13.5120   16.5660   38.0830 C.ar    105   G37       0.1374
   3356 N7         13.6590   15.4540   38.7510 N.ar    105   G37      -0.5709
   3357 C5         12.6700   15.5070   39.7280 C.ar    105   G37       0.1744
   3358 C6         12.3300   14.5830   40.7490 C.2     105   G37       0.4770
   3359 O6         12.8630   13.4980   41.0080 O.2     105   G37      -0.5597
   3360 N1         11.2610   15.0270   41.5260 N.am    105   G37      -0.4787
   3361 C2         10.5970   16.2150   41.3360 C.2     105   G37       0.7657
   3362 N2          9.5890   16.4820   42.1810 N.pl3   105   G37      -0.9672
   3363 N3         10.9010   17.0870   40.3830 N.2     105   G37      -0.6323
   3364 C4         11.9430   16.6700   39.6190 C.ar    105   G37       0.1222
   3365 H5'        15.3243   20.9556   36.1963 H       105   G37       0.0679
   3366 H5''       14.4968   19.7983   35.1273 H       105   G37       0.0679
   3367 H4'        12.9588   21.0208   36.7073 H       105   G37       0.1174
   3368 H3'        14.4954   19.3939   38.7796 H       105   G37       0.0615
   3369 H2'        12.4185   19.4381   40.0407 H       105   G37       0.0972
   3370 H1'        10.9696   18.6283   37.8875 H       105   G37       0.2006
   3371 H8         14.1342   16.8411   37.2442 H       105   G37       0.1640
   3372 H1         10.9526   14.4331   42.2825 H       105   G37       0.3424
   3373 H21         9.3527   15.8234   42.9094 H       105   G37       0.4364
   3374 H22         9.0667   17.3415   42.0885 H       105   G37       0.4364
   3375 HO2'       11.5944   21.4951   39.5431 H       105   G37       0.4186
   3376 P          15.2450   21.5220   40.1450 P.3     106   C38       1.1662
   3377 OP1        15.6520   22.9340   40.3170 O.co2   106   C38      -0.7760
   3378 OP2        16.2690   20.4750   39.9240 O.co2   106   C38      -0.7760
   3379 O5'        14.3710   21.0820   41.4090 O.3     106   C38      -0.4989
   3380 C5'        13.3180   21.9170   41.8680 C.3     106   C38       0.0558
   3381 C4'        12.7950   21.4160   43.2000 C.3     106   C38       0.1065
   3382 O4'        12.1640   20.1220   43.0300 O.3     106   C38      -0.3548
   3383 C3'        13.8650   21.1370   44.2380 C.3     106   C38       0.2022
   3384 O3'        14.3060   22.3420   44.8400 O.3     106   C38      -0.5246
   3385 C2'        13.0880   20.2540   45.2040 C.3     106   C38       0.0670
   3386 O2'        12.1870   20.9960   45.9990 O.3     106   C38      -0.6139
   3387 C1'        12.3050   19.3820   44.2300 C.3     106   C38       0.0066
   3388 N1         12.9640   18.0760   43.9340 N.am    106   C38      -0.0484
   3389 C2         12.7850   17.0030   44.8190 C.2     106   C38       0.7538
   3390 O2         12.0870   17.1560   45.8330 O.2     106   C38      -0.6252
   3391 N3         13.3840   15.8200   44.5370 N.2     106   C38      -0.7584
   3392 C4         14.1300   15.6920   43.4380 C.2     106   C38       0.8185
   3393 N4         14.6990   14.5050   43.2080 N.pl3   106   C38      -0.9530
   3394 C5         14.3300   16.7750   42.5290 C.2     106   C38      -0.5215
   3395 C6         13.7330   17.9370   42.8140 C.2     106   C38       0.0053
   3396 H5'        12.5087   21.9098   41.1379 H       106   C38       0.0679
   3397 H5''       13.6894   22.9350   41.9856 H       106   C38       0.0679
   3398 H4'        12.0720   22.1266   43.6006 H       106   C38       0.1174
   3399 H3'        14.7009   20.5924   43.7989 H       106   C38       0.0615
   3400 H2'        13.7589   19.6552   45.8200 H       106   C38       0.0972
   3401 H1'        11.3152   19.1913   44.6449 H       106   C38       0.2029
   3402 H5         14.9400   16.6599   41.6453 H       106   C38       0.1928
   3403 H6         13.8608   18.7781   42.1487 H       106   C38       0.1958
   3404 H41        14.5559   13.7426   43.8548 H       106   C38       0.4234
   3405 H42        15.2721   14.3702   42.3874 H       106   C38       0.4234
   3406 HO2'       12.2032   20.6607   46.8984 H       106   C38       0.4186
   3407 P          15.8530   22.5130   45.2120 P.3     107   U39       1.1662
   3408 OP1        16.0850   23.9460   45.4990 O.co2   107   U39      -0.7760
   3409 OP2        16.6570   21.8280   44.1770 O.co2   107   U39      -0.7760
   3410 O5'        15.9960   21.6810   46.5730 O.3     107   U39      -0.4989
   3411 C5'        15.3000   22.0910   47.7440 C.3     107   U39       0.0558
   3412 C4'        15.2840   20.9830   48.7810 C.3     107   U39       0.1065
   3413 O4'        14.5700   19.8280   48.2720 O.3     107   U39      -0.3548
   3414 C3'        16.6370   20.3920   49.1420 C.3     107   U39       0.2022
   3415 O3'        17.3780   21.2540   49.9960 O.3     107   U39      -0.5246
   3416 C2'        16.1870   19.1160   49.8470 C.3     107   U39       0.0670
   3417 O2'        15.6670   19.3530   51.1400 O.3     107   U39      -0.6139
   3418 C1'        15.0590   18.6680   48.9220 C.3     107   U39       0.0674
   3419 N1         15.5080   17.6620   47.9160 N.am    107   U39       0.0418
   3420 C2         15.4970   16.3270   48.2680 C.2     107   U39       0.4687
   3421 O2         15.1260   15.9290   49.3580 O.2     107   U39      -0.5477
   3422 N3         15.9300   15.4680   47.2910 N.am    107   U39      -0.3549
   3423 C4         16.3720   15.8080   46.0250 C.2     107   U39       0.5952
   3424 O4         16.7310   14.9260   45.2550 O.2     107   U39      -0.5761
   3425 C5         16.3600   17.2170   45.7330 C.2     107   U39      -0.3635
   3426 C6         15.9390   18.0740   46.6710 C.2     107   U39      -0.1126
   3427 H5'        15.7948   22.9663   48.1649 H       107   U39       0.0679
   3428 H5''       14.2748   22.3504   47.4800 H       107   U39       0.0679
   3429 H4'        14.7931   21.3416   49.6857 H       107   U39       0.1174
   3430 H3'        17.2070   20.1558   48.2434 H       107   U39       0.0615
   3431 H2'        16.9890   18.3784   49.8749 H       107   U39       0.0972
   3432 H1'        14.2592   18.2352   49.5229 H       107   U39       0.1824
   3433 H3         15.9258   14.4842   47.5195 H       107   U39       0.3154
   3434 H5         16.6866   17.5784   44.7691 H       107   U39       0.1811
   3435 H6         15.9364   19.1300   46.4448 H       107   U39       0.2188
   3436 HO2'       16.3752   19.6350   51.7235 H       107   U39       0.4186
   3437 P          18.9420   21.4700   49.7260 P.3     108   G40       1.1662
   3438 OP1        19.3920   22.6160   50.5440 O.co2   108   G40      -0.7760
   3439 OP2        19.1530   21.4760   48.2620 O.co2   108   G40      -0.7760
   3440 O5'        19.6030   20.1280   50.2960 O.3     108   G40      -0.4989
   3441 C5'        19.3670   19.7230   51.6390 C.3     108   G40       0.0558
   3442 C4'        19.6730   18.2470   51.8240 C.3     108   G40       0.1065
   3443 O4'        18.7800   17.4400   51.0110 O.3     108   G40      -0.3548
   3444 C3'        21.0590   17.8040   51.3840 C.3     108   G40       0.2022
   3445 O3'        22.0360   18.1280   52.3720 O.3     108   G40      -0.5246
   3446 C2'        20.8370   16.3000   51.2650 C.3     108   G40       0.0670
   3447 O2'        20.8830   15.6270   52.5100 O.3     108   G40      -0.6139
   3448 C1'        19.4370   16.2390   50.6540 C.3     108   G40       0.0191
   3449 N9         19.5370   16.1270   49.2030 N.ar    108   G40       0.0492
   3450 C8         19.7450   17.1360   48.2910 C.ar    108   G40       0.1374
   3451 N7         19.8410   16.7080   47.0630 N.ar    108   G40      -0.5709
   3452 C5         19.7060   15.3290   47.1670 C.ar    108   G40       0.1744
   3453 C6         19.7270   14.3260   46.1700 C.2     108   G40       0.4770
   3454 O6         19.8700   14.4640   44.9470 O.2     108   G40      -0.5597
   3455 N1         19.5500   13.0540   46.7100 N.am    108   G40      -0.4787
   3456 C2         19.3740   12.7850   48.0480 C.2     108   G40       0.7657
   3457 N2         19.2130   11.4980   48.3900 N.pl3   108   G40      -0.9672
   3458 N3         19.3580   13.7150   48.9920 N.2     108   G40      -0.6323
   3459 C4         19.5260   14.9570   48.4790 C.ar    108   G40       0.1222
   3460 H5'        18.3212   19.9039   51.8872 H       108   G40       0.0679
   3461 H5''       20.0005   20.3072   52.3065 H       108   G40       0.0679
   3462 H4'        19.5328   17.9843   52.8725 H       108   G40       0.1174
   3463 H3'        21.3201   18.2382   50.4189 H       108   G40       0.0615
   3464 H2'        21.5645   15.8673   50.5783 H       108   G40       0.0972
   3465 H1'        18.8931   15.3842   51.0560 H       108   G40       0.2006
   3466 H8         19.8211   18.1780   48.5647 H       108   G40       0.1640
   3467 H1         19.5509   12.2710   46.0720 H       108   G40       0.3424
   3468 H21        19.2241   10.7812   47.6785 H       108   G40       0.4364
   3469 H22        19.0806   11.2457   49.3590 H       108   G40       0.4364
   3470 HO2'       20.9634   14.6821   52.3607 H       108   G40       0.4186
   3471 P          23.5520   18.4510   51.9580 P.3     109   A41       1.1662
   3472 OP1        24.2500   18.9330   53.1690 O.co2   109   A41      -0.7760
   3473 OP2        23.5410   19.2880   50.7380 O.co2   109   A41      -0.7760
   3474 O5'        24.1380   17.0140   51.5610 O.3     109   A41      -0.4989
   3475 C5'        25.4890   16.8830   51.1220 C.3     109   A41       0.0558
   3476 C4'        25.9160   15.4240   51.0800 C.3     109   A41       0.1065
   3477 O4'        26.0250   14.9080   52.4300 O.3     109   A41      -0.3548
   3478 C3'        24.9500   14.4700   50.3900 C.3     109   A41       0.2022
   3479 O3'        25.1950   14.4470   48.9880 O.3     109   A41      -0.5246
   3480 C2'        25.3140   13.1340   51.0290 C.3     109   A41       0.0670
   3481 O2'        26.4420   12.5370   50.4160 O.3     109   A41      -0.6139
   3482 C1'        25.6650   13.5380   52.4570 C.3     109   A41       0.0394
   3483 N9         24.6000   13.3540   53.4450 N.ar    109   A41      -0.0251
   3484 C8         23.9850   14.3370   54.1680 C.ar    109   A41       0.2006
   3485 N7         23.0800   13.8970   55.0090 N.ar    109   A41      -0.6073
   3486 C5         23.1080   12.5240   54.8350 C.ar    109   A41       0.0515
   3487 C6         22.3780   11.4790   55.4370 C.ar    109   A41       0.7009
   3488 N6         21.4430   11.6810   56.3730 N.pl3   109   A41      -0.9019
   3489 N1         22.6430   10.2190   55.0370 N.ar    109   A41      -0.7615
   3490 C2         23.5750   10.0250   54.0960 C.ar    109   A41       0.5875
   3491 N3         24.3240   10.9260   53.4610 N.ar    109   A41      -0.6997
   3492 C4         24.0390   12.1700   53.8770 C.ar    109   A41       0.3053
   3493 H5'        25.5806   17.3088   50.1228 H       109   A41       0.0679
   3494 H5''       26.1416   17.4275   51.8044 H       109   A41       0.0679
   3495 H4'        26.8895   15.3541   50.5948 H       109   A41       0.1174
   3496 H3'        23.9151   14.7377   50.6030 H       109   A41       0.0615
   3497 H2'        24.4620   12.4543   51.0173 H       109   A41       0.0972
   3498 H1'        26.5329   12.9602   52.7748 H       109   A41       0.2007
   3499 H8         24.2233   15.3845   54.0566 H       109   A41       0.1553
   3500 H2         23.7432    8.9966   53.8123 H       109   A41       0.0473
   3501 HO2'       26.1504   11.8902   49.7693 H       109   A41       0.4186
   3502 H61        21.4817   11.5441   57.3729 H       109   A41       0.4115
   3503 H62        20.5594   12.0244   56.0245 H       109   A41       0.4115
   3504 P          23.9720   14.5070   47.9580 P.3     110   G42       1.1662
   3505 OP1        24.5260   14.8050   46.6190 O.co2   110   G42      -0.7760
   3506 OP2        22.9290   15.3810   48.5420 O.co2   110   G42      -0.7760
   3507 O5'        23.4240   13.0060   47.9580 O.3     110   G42      -0.4989
   3508 C5'        24.2760   11.9390   47.5560 C.3     110   G42       0.0558
   3509 C4'        23.7820   10.6260   48.1300 C.3     110   G42       0.1065
   3510 O4'        23.8160   10.6920   49.5780 O.3     110   G42      -0.3548
   3511 C3'        22.3400   10.2920   47.7840 C.3     110   G42       0.2022
   3512 O3'        22.3020    9.5890   46.5490 O.3     110   G42      -0.5246
   3513 C2'        21.9220    9.4120   48.9600 C.3     110   G42       0.0670
   3514 O2'        22.3560    8.0750   48.8160 O.3     110   G42      -0.6139
   3515 C1'        22.6740   10.0560   50.1210 C.3     110   G42       0.0191
   3516 N9         21.9270   11.0430   50.8970 N.ar    110   G42       0.0492
   3517 C8         21.9550   12.4080   50.7440 C.ar    110   G42       0.1374
   3518 N7         21.2050   13.0430   51.6000 N.ar    110   G42      -0.5709
   3519 C5         20.6500   12.0370   52.3790 C.ar    110   G42       0.1744
   3520 C6         19.7550   12.1180   53.4720 C.2     110   G42       0.4770
   3521 O6         19.2570   13.1300   53.9840 O.2     110   G42      -0.5597
   3522 N1         19.4430   10.8580   53.9770 N.am    110   G42      -0.4787
   3523 C2         19.9350    9.6700   53.4910 C.2     110   G42       0.7657
   3524 N2         19.5230    8.5540   54.1100 N.pl3   110   G42      -0.9672
   3525 N3         20.7720    9.5820   52.4670 N.2     110   G42      -0.6323
   3526 C4         21.0870   10.8000   51.9620 C.ar    110   G42       0.1222
   3527 H5'        25.2867   12.1310   47.9161 H       110   G42       0.0679
   3528 H5''       24.2865   11.8759   46.4679 H       110   G42       0.0679
   3529 H4'        24.4303    9.8180   47.7909 H       110   G42       0.1174
   3530 H3'        21.7313   11.1950   47.7373 H       110   G42       0.0615
   3531 H2'        20.8446    9.4581   49.1188 H       110   G42       0.0972
   3532 H1'        23.0069    9.2673   50.7958 H       110   G42       0.2006
   3533 H8         22.5421   12.9069   49.9871 H       110   G42       0.1640
   3534 H1         18.8067   10.8138   54.7601 H       110   G42       0.3424
   3535 H21        18.8847    8.6156   54.8903 H       110   G42       0.4364
   3536 H22        19.8510    7.6519   53.7959 H       110   G42       0.4364
   3537 HO2'       21.8871    7.6626   48.0869 H       110   G42       0.4186
   3538 P          21.1720    9.9070   45.4620 P.3     111   A43       1.1662
   3539 OP1        21.3620    8.9580   44.3420 O.co2   111   A43      -0.7760
   3540 OP2        21.1690   11.3640   45.2030 O.co2   111   A43      -0.7760
   3541 O5'        19.8170    9.5550   46.2390 O.3     111   A43      -0.4989
   3542 C5'        19.4650    8.2050   46.5110 C.3     111   A43       0.0558
   3543 C4'        17.9570    8.0450   46.5200 C.3     111   A43       0.1065
   3544 O4'        17.3900    8.9880   47.4580 O.3     111   A43      -0.3548
   3545 C3'        17.2660    8.3180   45.1840 C.3     111   A43       0.2022
   3546 O3'        16.5960    7.1530   44.7430 O.3     111   A43      -0.5246
   3547 C2'        16.2570    9.4260   45.4720 C.3     111   A43       0.0670
   3548 O2'        15.0080    9.1730   44.8570 O.3     111   A43      -0.6139
   3549 C1'        16.1130    9.3440   46.9850 C.3     111   A43       0.0394
   3550 N9         15.7010   10.5970   47.6100 N.ar    111   A43      -0.0251
   3551 C8         16.0350   11.8670   47.2300 C.ar    111   A43       0.2006
   3552 N7         15.5030   12.7990   47.9850 N.ar    111   A43      -0.6073
   3553 C5         14.7710   12.0900   48.9230 C.ar    111   A43       0.0515
   3554 C6         13.9710   12.4930   50.0100 C.ar    111   A43       0.7009
   3555 N6         13.7720   13.7700   50.3480 N.pl3   111   A43      -0.9019
   3556 N1         13.3880   11.5260   50.7460 N.ar    111   A43      -0.7615
   3557 C2         13.5860   10.2470   50.4130 C.ar    111   A43       0.5875
   3558 N3         14.3120    9.7460   49.4180 N.ar    111   A43      -0.6997
   3559 C4         14.8840   10.7310   48.7060 C.ar    111   A43       0.3053
   3560 H5'        19.8624    7.9193   47.4849 H       111   A43       0.0679
   3561 H5''       19.8918    7.5592   45.7436 H       111   A43       0.0679
   3562 H4'        17.7114    7.0337   46.8442 H       111   A43       0.1174
   3563 H3'        17.9911    8.6462   44.4393 H       111   A43       0.0615
   3564 H2'        16.6493   10.3973   45.1707 H       111   A43       0.0972
   3565 H1'        15.4001    8.5598   47.2397 H       111   A43       0.2007
   3566 H8         16.6761   12.0828   46.3881 H       111   A43       0.1553
   3567 H2         13.0879    9.5205   51.0379 H       111   A43       0.0473
   3568 HO2'       14.3024    9.3254   45.4899 H       111   A43       0.4186
   3569 H61        14.5757   14.2224   49.9363 H       111   A43       0.4115
   3570 H62        13.0146   14.1773   50.8777 H       111   A43       0.4115
   3571 P          17.1960    6.3010   43.5330 P.3     112   A44       1.1662
   3572 OP1        17.5610    7.2380   42.4470 O.co2   112   A44      -0.7760
   3573 OP2        16.2680    5.1800   43.2650 O.co2   112   A44      -0.7760
   3574 O5'        18.5230    5.7060   44.1980 O.3     112   A44      -0.4989
   3575 C5'        19.6560    5.3800   43.4070 C.3     112   A44       0.0558
   3576 C4'        20.0150    3.9220   43.6100 C.3     112   A44       0.1065
   3577 O4'        19.5450    3.4900   44.9110 O.3     112   A44      -0.3548
   3578 C3'        19.3840    2.9800   42.5880 C.3     112   A44       0.2022
   3579 O3'        20.3970    2.3270   41.8340 O.3     112   A44      -0.5246
   3580 C2'        18.5670    1.9900   43.4170 C.3     112   A44       0.0670
   3581 O2'        18.7090    0.6580   42.9640 O.3     112   A44      -0.6139
   3582 C1'        19.1560    2.1380   44.8160 C.3     112   A44       0.0394
   3583 N9         18.1910    1.8370   45.8690 N.ar    112   A44      -0.0251
   3584 C8         17.1000    2.5800   46.2250 C.ar    112   A44       0.2006
   3585 N7         16.3970    2.0530   47.2000 N.ar    112   A44      -0.6073
   3586 C5         17.0700    0.8800   47.5010 C.ar    112   A44       0.0515
   3587 C6         16.8320   -0.1360   48.4490 C.ar    112   A44       0.7009
   3588 N6         15.8030   -0.1240   49.3030 N.pl3   112   A44      -0.9019
   3589 N1         17.6990   -1.1710   48.4870 N.ar    112   A44      -0.7615
   3590 C2         18.7290   -1.1800   47.6330 C.ar    112   A44       0.5875
   3591 N3         19.0530   -0.2850   46.7010 N.ar    112   A44      -0.6997
   3592 C4         18.1760    0.7300   46.6870 C.ar    112   A44       0.3053
   3593 H5'        19.4265    5.5540   42.3557 H       112   A44       0.0679
   3594 H5''       20.4978    6.0058   43.7033 H       112   A44       0.0679
   3595 H4'        21.0989    3.8144   43.5703 H       112   A44       0.1174
   3596 H3'        18.7267    3.5394   41.9223 H       112   A44       0.0615
   3597 H2'        17.5156    2.2774   43.4185 H       112   A44       0.0972
   3598 H1'        20.0292    1.4939   44.9196 H       112   A44       0.2007
   3599 H8         16.8407    3.5138   45.7483 H       112   A44       0.1553
   3600 H2         19.3894   -2.0311   47.7100 H       112   A44       0.0473
   3601 H61        15.1447    0.6419   49.2898 H       112   A44       0.4115
   3602 H62        15.6841   -0.8808   49.9612 H       112   A44       0.4115
   3603 HO2'       18.3351    0.5774   42.0835 H       112   A44       0.4186
   3604 P          21.0970    3.0830   40.6080 P.3     113   A45       1.1662
   3605 OP1        20.2940    4.2850   40.2840 O.co2   113   A45      -0.7760
   3606 OP2        21.3830    2.0830   39.5550 O.co2   113   A45      -0.7760
   3607 O5'        22.4900    3.5440   41.2450 O.3     113   A45      -0.4989
   3608 C5'        23.3540    2.5780   41.8320 C.3     113   A45       0.0558
   3609 C4'        24.3330    3.2550   42.7700 C.3     113   A45       0.1065
   3610 O4'        23.6340    3.6870   43.9640 O.3     113   A45      -0.3548
   3611 C3'        25.4600    2.3750   43.2880 C.3     113   A45       0.2022
   3612 O3'        26.5260    2.3240   42.3460 O.3     113   A45      -0.5246
   3613 C2'        25.8560    3.1380   44.5460 C.3     113   A45       0.0670
   3614 O2'        26.6480    4.2710   44.2510 O.3     113   A45      -0.6139
   3615 C1'        24.4980    3.5870   45.0790 C.3     113   A45       0.0394
   3616 N9         23.9010    2.6710   46.0480 N.ar    113   A45      -0.0251
   3617 C8         24.3160    1.4060   46.3620 C.ar    113   A45       0.2006
   3618 N7         23.5830    0.8170   47.2760 N.ar    113   A45      -0.6073
   3619 C5         22.6180    1.7620   47.5840 C.ar    113   A45       0.0515
   3620 C6         21.5360    1.7530   48.4850 C.ar    113   A45       0.7009
   3621 N6         21.2430    0.7120   49.2700 N.pl3   113   A45      -0.9019
   3622 N1         20.7670    2.8600   48.5490 N.ar    113   A45      -0.7615
   3623 C2         21.0660    3.9010   47.7630 C.ar    113   A45       0.5875
   3624 N3         22.0530    4.0260   46.8780 N.ar    113   A45      -0.6997
   3625 C4         22.8010    2.9110   46.8380 C.ar    113   A45       0.3053
   3626 H5'        22.7595    1.8559   42.3917 H       113   A45       0.0679
   3627 H5''       23.9049    2.0610   41.0463 H       113   A45       0.0679
   3628 H4'        24.7602    4.1255   42.2721 H       113   A45       0.1174
   3629 H3'        25.0999    1.3752   43.5303 H       113   A45       0.0615
   3630 H2'        26.3589    2.4839   45.2582 H       113   A45       0.0972
   3631 H1'        24.6031    4.5705   45.5370 H       113   A45       0.2007
   3632 H8         25.1703    0.9348   45.8989 H       113   A45       0.1553
   3633 H2         20.4168    4.7586   47.8599 H       113   A45       0.0473
   3634 H61        20.5302    1.0753   49.8864 H       113   A45       0.4115
   3635 H62        21.6398   -0.2166   49.2514 H       113   A45       0.4115
   3636 HO2'       27.5284    4.1492   44.6138 H       113   A45       0.4186
   3637 P          27.5390    1.0830   42.3410 P.3     114   U46       1.1662
   3638 OP1        28.3530    1.1630   41.1080 O.co2   114   U46      -0.7760
   3639 OP2        26.7600   -0.1420   42.6260 O.co2   114   U46      -0.7760
   3640 O5'        28.4760    1.3830   43.6040 O.3     114   U46      -0.4989
   3641 C5'        29.3700    0.3860   44.0910 C.3     114   U46       0.0558
   3642 C4'        29.1820    0.1720   45.5830 C.3     114   U46       0.1065
   3643 O4'        27.7780   -0.0650   45.8540 O.3     114   U46      -0.3548
   3644 C3'        29.9560   -1.0090   46.1620 C.3     114   U46       0.2022
   3645 O3'        30.9250   -0.5950   47.1450 O.3     114   U46      -0.5246
   3646 C2'        28.8950   -1.9590   46.7250 C.3     114   U46       0.0670
   3647 O2'        29.2240   -2.4410   48.0140 O.3     114   U46      -0.6139
   3648 C1'        27.6290   -1.1100   46.7920 C.3     114   U46       0.0674
   3649 N1         26.3910   -1.8680   46.4440 N.am    114   U46       0.0418
   3650 C2         25.5310   -2.2630   47.4480 C.2     114   U46       0.4687
   3651 O2         25.7260   -2.0240   48.6270 O.2     114   U46      -0.5477
   3652 N3         24.4230   -2.9550   47.0200 N.am    114   U46      -0.3549
   3653 C4         24.0980   -3.2850   45.7160 C.2     114   U46       0.5952
   3654 O4         23.0690   -3.9120   45.4830 O.2     114   U46      -0.5761
   3655 C5         25.0440   -2.8400   44.7250 C.2     114   U46      -0.3635
   3656 C6         26.1300   -2.1640   45.1190 C.2     114   U46      -0.1126
   3657 H5'        30.3955    0.7036   43.9025 H       114   U46       0.0679
   3658 H5''       29.1823   -0.5513   43.5673 H       114   U46       0.0679
   3659 H4'        29.4886    1.0782   46.1054 H       114   U46       0.1174
   3660 H3'        30.4788   -1.5139   45.3497 H       114   U46       0.0615
   3661 H2'        28.7456   -2.7956   46.0424 H       114   U46       0.0972
   3662 H1'        27.5273   -0.6883   47.7920 H       114   U46       0.1824
   3663 H3         23.7758   -3.2552   47.7350 H       114   U46       0.3154
   3664 H5         24.8792   -3.0490   43.6783 H       114   U46       0.1811
   3665 H6         26.8336   -1.8352   44.3685 H       114   U46       0.2188
   3666 HO2'       29.2039   -1.7154   48.6422 H       114   U46       0.4186
   3667 P          30.6580    0.5630   48.2250 P.3     115   A47       1.1662
   3668 OP1        31.9500    0.8620   48.8820 O.co2   115   A47      -0.7760
   3669 OP2        29.4950    0.1700   49.0500 O.co2   115   A47      -0.7760
   3670 O5'        30.2400    1.8230   47.3320 O.3     115   A47      -0.4989
   3671 C5'        30.9950    3.0300   47.3800 C.3     115   A47       0.0558
   3672 C4'        30.1080    4.2190   47.0550 C.3     115   A47       0.1065
   3673 O4'        28.8130    3.7450   46.6050 O.3     115   A47      -0.3548
   3674 C3'        29.8040    5.1350   48.2320 C.3     115   A47       0.2022
   3675 O3'        30.8040    6.1370   48.3280 O.3     115   A47      -0.5246
   3676 C2'        28.4660    5.7330   47.8190 C.3     115   A47       0.0670
   3677 O2'        28.6150    6.7690   46.8660 O.3     115   A47      -0.6139
   3678 C1'        27.7830    4.5340   47.1740 C.3     115   A47       0.0394
   3679 N9         27.0110    3.7120   48.1040 N.ar    115   A47      -0.0251
   3680 C8         27.3160    2.4520   48.5380 C.ar    115   A47       0.2006
   3681 N7         26.4360    1.9490   49.3690 N.ar    115   A47      -0.6073
   3682 C5         25.4850    2.9480   49.4910 C.ar    115   A47       0.0515
   3683 C6         24.2900    3.0350   50.2340 C.ar    115   A47       0.7009
   3684 N6         23.8460    2.0530   51.0250 N.pl3   115   A47      -0.9019
   3685 N1         23.5710    4.1720   50.1340 N.ar    115   A47      -0.7615
   3686 C2         24.0230    5.1510   49.3410 C.ar    115   A47       0.5875
   3687 N3         25.1290    5.1860   48.5970 N.ar    115   A47      -0.6997
   3688 C4         25.8220    4.0420   48.7170 C.ar    115   A47       0.3053
   3689 H5'        31.4110    3.1544   48.3798 H       115   A47       0.0679
   3690 H5''       31.8073    2.9768   46.6551 H       115   A47       0.0679
   3691 H4'        30.5708    4.8024   46.2590 H       115   A47       0.1174
   3692 H3'        29.7167    4.5715   49.1609 H       115   A47       0.0615
   3693 H2'        27.9078    6.0795   48.6887 H       115   A47       0.0972
   3694 H1'        27.1245    4.8852   46.3795 H       115   A47       0.2007
   3695 H8         28.2017    1.9194   48.2246 H       115   A47       0.1553
   3696 H2         23.4057    6.0362   49.2977 H       115   A47       0.0473
   3697 H61        22.8819    2.0673   51.3256 H       115   A47       0.4115
   3698 H62        24.4641    1.3095   51.3170 H       115   A47       0.4115
   3699 HO2'       27.7506    7.0321   46.5416 H       115   A47       0.4186
   3700 P          31.3710    6.5940   49.7510 P.3     116   C48       1.1662
   3701 OP1        32.5010    7.5160   49.5030 O.co2   116   C48      -0.7760
   3702 OP2        31.5670    5.3810   50.5760 O.co2   116   C48      -0.7760
   3703 O5'        30.1560    7.4210   50.3840 O.3     116   C48      -0.4989
   3704 C5'        29.6290    8.5530   49.7040 C.3     116   C48       0.0558
   3705 C4'        28.3160    8.9650   50.3340 C.3     116   C48       0.1065
   3706 O4'        27.2870    7.9980   50.0000 O.3     116   C48      -0.3548
   3707 C3'        28.3260    8.9690   51.8540 C.3     116   C48       0.2022
   3708 O3'        28.9070   10.1660   52.3500 O.3     116   C48      -0.5246
   3709 C2'        26.8330    8.8760   52.1410 C.3     116   C48       0.0670
   3710 O2'        26.1610   10.0960   51.9020 O.3     116   C48      -0.6139
   3711 C1'        26.4130    7.8380   51.1040 C.3     116   C48       0.0066
   3712 N1         26.4840    6.4280   51.6030 N.am    116   C48      -0.0484
   3713 C2         25.4030    5.8960   52.3180 C.2     116   C48       0.7538
   3714 O2         24.4070    6.5990   52.5190 O.2     116   C48      -0.6252
   3715 N3         25.4740    4.6190   52.7690 N.2     116   C48      -0.7584
   3716 C4         26.5630    3.8860   52.5340 C.2     116   C48       0.8185
   3717 N4         26.5830    2.6300   52.9940 N.pl3   116   C48      -0.9530
   3718 C5         27.6760    4.4080   51.8090 C.2     116   C48      -0.5215
   3719 C6         27.5950    5.6690   51.3710 C.2     116   C48       0.0053
   3720 H5'        29.4641    8.3011   48.6564 H       116   C48       0.0679
   3721 H5''       30.3378    9.3784   49.7710 H       116   C48       0.0679
   3722 H4'        28.0265    9.9496   49.9669 H       116   C48       0.1174
   3723 H3'        28.8501    8.0948   52.2404 H       116   C48       0.0615
   3724 H2'        26.6487    8.5172   53.1536 H       116   C48       0.0972
   3725 H1'        25.3932    8.0498   50.7828 H       116   C48       0.2029
   3726 H5         28.5527    3.8060   51.6207 H       116   C48       0.1928
   3727 H6         28.4233    6.0946   50.8240 H       116   C48       0.1958
   3728 H41        25.7906    2.2662   53.5037 H       116   C48       0.4234
   3729 H42        27.3905    2.0455   52.8316 H       116   C48       0.4234
   3730 HO2'       25.4772   10.2203   52.5643 H       116   C48       0.4186
   3731 P          29.7590   10.1350   53.7050 P.3     117   C49       1.1662
   3732 OP1        30.3100   11.4930   53.9120 O.co2   117   C49      -0.7760
   3733 OP2        30.6620    8.9630   53.6470 O.co2   117   C49      -0.7760
   3734 O5'        28.6600    9.8570   54.8320 O.3     117   C49      -0.4989
   3735 C5'        27.7240   10.8730   55.1650 C.3     117   C49       0.0558
   3736 C4'        26.6480   10.3290   56.0850 C.3     117   C49       0.1065
   3737 O4'        25.9640    9.2230   55.4440 O.3     117   C49      -0.3548
   3738 C3'        27.1550    9.7050   57.3720 C.3     117   C49       0.2022
   3739 O3'        27.5110   10.7000   58.3200 O.3     117   C49      -0.5246
   3740 C2'        25.9230    8.9080   57.7830 C.3     117   C49       0.0670
   3741 O2'        24.8900    9.7180   58.3060 O.3     117   C49      -0.6139
   3742 C1'        25.5020    8.3230   56.4370 C.3     117   C49       0.0066
   3743 N1         26.0780    6.9650   56.2020 N.am    117   C49      -0.0484
   3744 C2         25.4610    5.8540   56.7870 C.2     117   C49       0.7538
   3745 O2         24.4470    6.0230   57.4730 O.2     117   C49      -0.6252
   3746 N3         25.9910    4.6220   56.5860 N.2     117   C49      -0.7584
   3747 C4         27.0910    4.4840   55.8450 C.2     117   C49       0.8185
   3748 N4         27.5780    3.2500   55.6760 N.pl3   117   C49      -0.9530
   3749 C5         27.7410    5.6050   55.2450 C.2     117   C49      -0.5215
   3750 C6         27.2050    6.8140   55.4480 C.2     117   C49       0.0053
   3751 H5'        27.2595   11.2448   54.2517 H       117   C49       0.0679
   3752 H5''       28.2435   11.6914   55.6634 H       117   C49       0.0679
   3753 H4'        25.9319   11.1173   56.3174 H       117   C49       0.1174
   3754 H3'        27.9965    9.0410   57.1742 H       117   C49       0.0615
   3755 H2'        26.1886    8.1168   58.4841 H       117   C49       0.0972
   3756 H1'        24.4144    8.2656   56.3934 H       117   C49       0.2029
   3757 H5         28.6331    5.4814   54.6489 H       117   C49       0.1928
   3758 H6         27.6714    7.6833   55.0085 H       117   C49       0.1958
   3759 H41        27.1140    2.4611   56.1031 H       117   C49       0.4234
   3760 H42        28.4098    3.1070   55.1213 H       117   C49       0.4234
   3761 HO2'       25.1899   10.1352   59.1169 H       117   C49       0.4186
   3762 P          28.7130   10.4210   59.3370 P.3     118   C50       1.1662
   3763 OP1        28.9540   11.6610   60.1070 O.co2   118   C50      -0.7760
   3764 OP2        29.8210    9.7990   58.5780 O.co2   118   C50      -0.7760
   3765 O5'        28.0950    9.3170   60.3190 O.3     118   C50      -0.4989
   3766 C5'        27.0570    9.6800   61.2210 C.3     118   C50       0.0558
   3767 C4'        26.3350    8.4570   61.7590 C.3     118   C50       0.1065
   3768 O4'        25.9770    7.5550   60.6800 O.3     118   C50      -0.3548
   3769 C3'        27.1400    7.5710   62.6940 C.3     118   C50       0.2022
   3770 O3'        27.2300    8.1530   63.9930 O.3     118   C50      -0.5246
   3771 C2'        26.2580    6.3280   62.6700 C.3     118   C50       0.0670
   3772 O2'        25.0510    6.5150   63.3870 O.3     118   C50      -0.6139
   3773 C1'        25.9570    6.2270   61.1760 C.3     118   C50       0.0066
   3774 N1         26.9410    5.3950   60.4080 N.am    118   C50      -0.0484
   3775 C2         26.9240    4.0000   60.5380 C.2     118   C50       0.7538
   3776 O2         26.0950    3.4730   61.2890 O.2     118   C50      -0.6252
   3777 N3         27.8160    3.2570   59.8340 N.2     118   C50      -0.7584
   3778 C4         28.6960    3.8550   59.0310 C.2     118   C50       0.8185
   3779 N4         29.5590    3.0800   58.3630 N.pl3   118   C50      -0.9530
   3780 C5         28.7350    5.2750   58.8860 C.2     118   C50      -0.5215
   3781 C6         27.8480    5.9970   59.5830 C.2     118   C50       0.0053
   3782 H5'        27.4899   10.2314   62.0557 H       118   C50       0.0679
   3783 H5''       26.3412   10.3187   60.7036 H       118   C50       0.0679
   3784 H4'        25.4266    8.7776   62.2691 H       118   C50       0.1174
   3785 H3'        28.1287    7.3616   62.2858 H       118   C50       0.0615
   3786 H2'        26.7988    5.4510   63.0258 H       118   C50       0.0972
   3787 H1'        24.9582    5.8118   61.0414 H       118   C50       0.2029
   3788 H5         29.4551    5.7505   58.2366 H       118   C50       0.1928
   3789 H6         27.8499    7.0731   59.4912 H       118   C50       0.1958
   3790 H41        29.5270    2.0766   58.4738 H       118   C50       0.4234
   3791 H42        30.2422    3.4986   57.7481 H       118   C50       0.4234
   3792 HO2'       24.5006    5.7336   63.2973 H       118   C50       0.4186
   3793 P          28.4210    7.7300   64.9770 P.3     119   G51       1.1662
   3794 OP1        28.3730    8.6220   66.1550 O.co2   119   G51      -0.7760
   3795 OP2        29.6610    7.6380   64.1770 O.co2   119   G51      -0.7760
   3796 O5'        28.0250    6.2460   65.4190 O.3     119   G51      -0.4989
   3797 C5'        27.0140    6.0110   66.3960 C.3     119   G51       0.0558
   3798 C4'        26.9530    4.5320   66.7450 C.3     119   G51       0.1065
   3799 O4'        26.7680    3.7510   65.5390 O.3     119   G51      -0.3548
   3800 C3'        28.2220    3.9620   67.3580 C.3     119   G51       0.2022
   3801 O3'        28.2420    4.2240   68.7540 O.3     119   G51      -0.5246
   3802 C2'        28.0790    2.4730   67.0480 C.3     119   G51       0.0670
   3803 O2'        27.2210    1.8030   67.9530 O.3     119   G51      -0.6139
   3804 C1'        27.4360    2.5050   65.6640 C.3     119   G51       0.0191
   3805 N9         28.3870    2.3570   64.5630 N.ar    119   G51       0.0492
   3806 C8         28.9030    3.3600   63.7750 C.ar    119   G51       0.1374
   3807 N7         29.7300    2.9290   62.8630 N.ar    119   G51      -0.5709
   3808 C5         29.7640    1.5530   63.0510 C.ar    119   G51       0.1744
   3809 C6         30.4890    0.5520   62.3550 C.2     119   G51       0.4770
   3810 O6         31.2660    0.6910   61.3990 O.2     119   G51      -0.5597
   3811 N1         30.2380   -0.7190   62.8680 N.am    119   G51      -0.4787
   3812 C2         29.3950   -0.9880   63.9210 C.2     119   G51       0.7657
   3813 N2         29.2780   -2.2770   64.2790 N.pl3   119   G51      -0.9672
   3814 N3         28.7120   -0.0600   64.5810 N.2     119   G51      -0.6323
   3815 C4         28.9450    1.1850   64.0960 C.ar    119   G51       0.1222
   3816 H5'        26.0494    6.3269   65.9987 H       119   G51       0.0679
   3817 H5''       27.2399    6.5850   67.2946 H       119   G51       0.0679
   3818 H4'        26.1159    4.3555   67.4204 H       119   G51       0.1174
   3819 H3'        29.1063    4.3757   66.8733 H       119   G51       0.0615
   3820 H2'        29.0553    1.9898   67.0103 H       119   G51       0.0972
   3821 H1'        26.6992    1.7042   65.6010 H       119   G51       0.2006
   3822 H8         28.6482    4.4021   63.8994 H       119   G51       0.1640
   3823 H1         30.7097   -1.5000   62.4348 H       119   G51       0.3424
   3824 H21        29.7947   -2.9882   63.7816 H       119   G51       0.4364
   3825 H22        28.6733   -2.5353   65.0457 H       119   G51       0.4364
   3826 HO2'       27.6296    1.7769   68.8213 H       119   G51       0.4186
   3827 P          29.5960    4.6990   69.4610 P.3     120   U52       1.1662
   3828 OP1        30.2530    5.7000   68.5900 O.co2   120   U52      -0.7760
   3829 OP2        30.3320    3.4870   69.8830 O.co2   120   U52      -0.7760
   3830 O5'        29.0600    5.4260   70.7810 O.3     120   U52      -0.4989
   3831 C5'        28.4460    6.7090   70.6990 C.3     120   U52       0.0558
   3832 C4'        27.6700    7.0220   71.9670 C.3     120   U52       0.1065
   3833 O4'        26.4430    6.2490   71.9940 O.3     120   U52      -0.3548
   3834 C3'        28.3900    6.7070   73.2730 C.3     120   U52       0.2022
   3835 O3'        28.0330    7.6650   74.2680 O.3     120   U52      -0.5246
   3836 C2'        27.8780    5.3100   73.6160 C.3     120   U52       0.0670
   3837 O2'        27.8840    5.0530   75.0070 O.3     120   U52      -0.6139
   3838 C1'        26.4480    5.3530   73.0890 C.3     120   U52       0.0674
   3839 N1         25.9480    4.0380   72.5970 N.am    120   U52       0.0418
   3840 C2         25.1520    3.2550   73.4110 C.2     120   U52       0.4687
   3841 O2         24.8270    3.5770   74.5410 O.2     120   U52      -0.5477
   3842 N3         24.7450    2.0690   72.8480 N.am    120   U52      -0.3549
   3843 C4         25.0470    1.5990   71.5820 C.2     120   U52       0.5952
   3844 O4         24.6130    0.5120   71.2090 O.2     120   U52      -0.5761
   3845 C5         25.8800    2.4720   70.7950 C.2     120   U52      -0.3635
   3846 C6         26.2870    3.6320   71.3220 C.2     120   U52      -0.1126
   3847 H5'        27.7626    6.7236   69.8500 H       120   U52       0.0679
   3848 H5''       29.2159    7.4667   70.5531 H       120   U52       0.0679
   3849 H4'        27.4114    8.0809   71.9615 H       120   U52       0.1174
   3850 H3'        29.4695    6.6939   73.1226 H       120   U52       0.0615
   3851 H2'        28.4559    4.5524   73.0867 H       120   U52       0.0972
   3852 H1'        25.7838    5.7267   73.8683 H       120   U52       0.1824
   3853 H3         24.1619    1.4758   73.4209 H       120   U52       0.3154
   3854 H5         26.1719    2.1936   69.7931 H       120   U52       0.1811
   3855 H6         26.9091    4.2804   70.7228 H       120   U52       0.2188
   3856 HO2'       26.9837    4.9185   75.3119 H       120   U52       0.4186
   3857 P          28.6810    9.1310   74.2480 P.3     121   A53       1.1662
   3858 OP1        29.8690    9.0960   73.3650 O.co2   121   A53      -0.7760
   3859 OP2        28.8140    9.5800   75.6530 O.co2   121   A53      -0.7760
   3860 O5'        27.5620   10.0350   73.5500 O.3     121   A53      -0.4989
   3861 C5'        26.2040    9.9590   73.9650 C.3     121   A53       0.0558
   3862 C4'        25.2930   10.2090   72.7790 C.3     121   A53       0.1065
   3863 O4'        25.2750    9.0370   71.9340 O.3     121   A53      -0.3548
   3864 C3'        23.8320   10.4910   73.1200 C.3     121   A53       0.2022
   3865 O3'        23.5570   11.8730   72.9280 O.3     121   A53      -0.5246
   3866 C2'        23.0230    9.6250   72.1500 C.3     121   A53       0.0670
   3867 O2'        22.0590   10.3730   71.4330 O.3     121   A53      -0.6139
   3868 C1'        24.0760    9.0680   71.1960 C.3     121   A53       0.0394
   3869 N9         23.7900    7.7210   70.7100 N.ar    121   A53      -0.0251
   3870 C8         23.9660    7.2580   69.4360 C.ar    121   A53       0.2006
   3871 N7         23.6220    6.0040   69.2740 N.ar    121   A53      -0.6073
   3872 C5         23.1880    5.6160   70.5300 C.ar    121   A53       0.0515
   3873 C6         22.6910    4.3940   71.0240 C.ar    121   A53       0.7009
   3874 N6         22.5460    3.3010   70.2670 N.pl3   121   A53      -0.9019
   3875 N1         22.3490    4.3390   72.3290 N.ar    121   A53      -0.7615
   3876 C2         22.4980    5.4360   73.0820 C.ar    121   A53       0.5875
   3877 N3         22.9560    6.6360   72.7310 N.ar    121   A53      -0.6997
   3878 C4         23.2870    6.6610   71.4300 C.ar    121   A53       0.3053
   3879 H5'        26.0165   10.7116   74.7308 H       121   A53       0.0679
   3880 H5''       26.0043    8.9683   74.3734 H       121   A53       0.0679
   3881 H4'        25.6870   11.0481   72.2056 H       121   A53       0.1174
   3882 H3'        23.6215   10.2029   74.1500 H       121   A53       0.0615
   3883 H2'        22.5391    8.8109   72.6897 H       121   A53       0.0972
   3884 H1'        24.1898    9.7429   70.3477 H       121   A53       0.2007
   3885 H8         24.3536    7.8704   68.6353 H       121   A53       0.1553
   3886 H2         22.2065    5.3334   74.1168 H       121   A53       0.0473
   3887 HO2'       21.2274    9.8936   71.4184 H       121   A53       0.4186
   3888 H61        22.8627    3.4486   69.3194 H       121   A53       0.4115
   3889 H62        22.1640    2.4288   70.6040 H       121   A53       0.4115
   3890 P          22.9800   12.7520   74.1350 P.3     122   U54       1.1662
   3891 OP1        24.0980   13.0420   75.0600 O.co2   122   U54      -0.7760
   3892 OP2        21.7560   12.0890   74.6370 O.co2   122   U54      -0.7760
   3893 O5'        22.5450   14.1050   73.4030 O.3     122   U54      -0.4989
   3894 C5'        21.6310   14.0610   72.3110 C.3     122   U54       0.0558
   3895 C4'        21.7490   15.3050   71.4460 C.3     122   U54       0.1065
   3896 O4'        21.6400   16.4930   72.2750 O.3     122   U54      -0.3548
   3897 C3'        23.0610   15.4380   70.6790 C.3     122   U54       0.2022
   3898 O3'        22.8000   15.9630   69.3790 O.3     122   U54      -0.5246
   3899 C2'        23.8640   16.4070   71.5450 C.3     122   U54       0.0670
   3900 O2'        24.8160   17.1490   70.8070 O.3     122   U54      -0.6139
   3901 C1'        22.7650   17.3230   72.0720 C.3     122   U54       0.0674
   3902 N1         23.0940   17.9950   73.3660 N.am    122   U54       0.0418
   3903 C2         23.2990   19.3600   73.3880 C.2     122   U54       0.4687
   3904 O2         23.2330   20.0650   72.3970 O.2     122   U54      -0.5477
   3905 N3         23.5910   19.8800   74.6250 N.am    122   U54      -0.3549
   3906 C4         23.6940   19.1880   75.8180 C.2     122   U54       0.5952
   3907 O4         23.9630   19.7920   76.8500 O.2     122   U54      -0.5761
   3908 C5         23.4660   17.7690   75.7150 C.2     122   U54      -0.3635
   3909 C6         23.1800   17.2390   74.5190 C.2     122   U54      -0.1126
   3910 H5'        21.8464   13.1829   71.7022 H       122   U54       0.0679
   3911 H5''       20.6144   13.9884   72.6974 H       122   U54       0.0679
   3912 H4'        20.9278   15.3070   70.7293 H       122   U54       0.1174
   3913 H3'        23.5659   14.4744   70.6105 H       122   U54       0.0615
   3914 H2'        24.3460   15.8764   72.3662 H       122   U54       0.0972
   3915 H1'        22.5293   18.0769   71.3209 H       122   U54       0.1824
   3916 H3         23.7477   20.8768   74.6683 H       122   U54       0.3154
   3917 H5         23.5250   17.1407   76.5915 H       122   U54       0.1811
   3918 H6         23.0092   16.1746   74.4530 H       122   U54       0.2188
   3919 HO2'       25.2979   17.7308   71.3993 H       122   U54       0.4186
   3920 P          23.6520   15.4740   68.1130 P.3     123   C55       1.1662
   3921 OP1        24.3410   14.2150   68.4770 O.co2   123   C55      -0.7760
   3922 OP2        24.4420   16.6330   67.6330 O.co2   123   C55      -0.7760
   3923 O5'        22.5270   15.1500   67.0190 O.3     123   C55      -0.4989
   3924 C5'        22.5620   15.7900   65.7450 C.3     123   C55       0.0558
   3925 C4'        22.6090   14.7800   64.6090 C.3     123   C55       0.1065
   3926 O4'        23.1820   15.4080   63.4300 O.3     123   C55      -0.3548
   3927 C3'        23.4590   13.5380   64.8650 C.3     123   C55       0.2022
   3928 O3'        22.9700   12.4410   64.1040 O.3     123   C55      -0.5246
   3929 C2'        24.8020   13.9740   64.2910 C.3     123   C55       0.0670
   3930 O2'        25.6330   12.8780   63.9600 O.3     123   C55      -0.6139
   3931 C1'        24.3050   14.6530   63.0200 C.3     123   C55       0.0066
   3932 N1         25.3140   15.5290   62.3410 N.am    123   C55      -0.0484
   3933 C2         25.7770   16.7070   62.9490 C.2     123   C55       0.7538
   3934 O2         25.3440   17.0390   64.0610 O.2     123   C55      -0.6252
   3935 N3         26.6940   17.4630   62.2930 N.2     123   C55      -0.7584
   3936 C4         27.1460   17.0840   61.0950 C.2     123   C55       0.8185
   3937 N4         28.0510   17.8630   60.4930 N.pl3   123   C55      -0.9530
   3938 C5         26.6910   15.8900   60.4620 C.2     123   C55      -0.5215
   3939 C6         25.7860   15.1520   61.1150 C.2     123   C55       0.0053
   3940 H5'        21.6688   16.4048   65.6341 H       123   C55       0.0679
   3941 H5''       23.4436   16.4288   65.6909 H       123   C55       0.0679
   3942 H4'        21.5912   14.4657   64.3781 H       123   C55       0.1174
   3943 H3'        23.5263   13.3008   65.9268 H       123   C55       0.0615
   3944 H2'        25.3102   14.6783   64.9497 H       123   C55       0.0972
   3945 H1'        23.9759   13.8868   62.3180 H       123   C55       0.2029
   3946 H5         27.0627   15.5928   59.4925 H       123   C55       0.1928
   3947 H6         25.4214   14.2407   60.6646 H       123   C55       0.1958
   3948 H41        28.3708   18.7077   60.9450 H       123   C55       0.4234
   3949 H42        28.4148   17.6066   59.5863 H       123   C55       0.4234
   3950 HO2'       25.9420   12.4556   64.7648 H       123   C55       0.4186
   3951 P          21.6970   11.5660   64.5280 P.3     124   A56       1.1662
   3952 OP1        20.6160   12.4610   64.9990 O.co2   124   A56      -0.7760
   3953 OP2        22.1710   10.4530   65.3820 O.co2   124   A56      -0.7760
   3954 O5'        21.2840   10.9620   63.1060 O.3     124   A56      -0.4989
   3955 C5'        21.9860   11.4030   61.9470 C.3     124   A56       0.0558
   3956 C4'        22.3190   10.2420   61.0260 C.3     124   A56       0.1065
   3957 O4'        23.0310    9.2110   61.7540 O.3     124   A56      -0.3548
   3958 C3'        21.1120    9.5220   60.4500 C.3     124   A56       0.2022
   3959 O3'        20.6140   10.2220   59.3170 O.3     124   A56      -0.5246
   3960 C2'        21.7260    8.1770   60.0820 C.3     124   A56       0.0670
   3961 O2'        22.5160    8.2380   58.9110 O.3     124   A56      -0.6139
   3962 C1'        22.6180    7.9370   61.2940 C.3     124   A56       0.0394
   3963 N9         21.9570    7.2330   62.3900 N.ar    124   A56      -0.0251
   3964 C8         21.5820    7.7550   63.5960 C.ar    124   A56       0.2006
   3965 N7         21.0090    6.8850   64.3920 N.ar    124   A56      -0.6073
   3966 C5         21.0110    5.7090   63.6610 C.ar    124   A56       0.0515
   3967 C6         20.5450    4.4100   63.9470 C.ar    124   A56       0.7009
   3968 N6         19.9660    4.0730   65.1040 N.pl3   124   A56      -0.9019
   3969 N1         20.7030    3.4640   62.9960 N.ar    124   A56      -0.7615
   3970 C2         21.2880    3.8030   61.8410 C.ar    124   A56       0.5875
   3971 N3         21.7640    4.9870   61.4590 N.ar    124   A56      -0.6997
   3972 C4         21.5910    5.9060   62.4230 C.ar    124   A56       0.3053
   3973 H5'        21.3649   12.1174   61.4067 H       124   A56       0.0679
   3974 H5''       22.9103   11.8928   62.2535 H       124   A56       0.0679
   3975 H4'        22.9452   10.6010   60.2093 H       124   A56       0.1174
   3976 H3'        20.3349    9.4011   61.2047 H       124   A56       0.0615
   3977 H2'        20.9604    7.4056   59.9992 H       124   A56       0.0972
   3978 H1'        23.4950    7.3690   60.9837 H       124   A56       0.2007
   3979 H8         21.7427    8.7878   63.8680 H       124   A56       0.1553
   3980 H2         21.3880    3.0063   61.1187 H       124   A56       0.0473
   3981 HO2'       23.2815    8.7951   59.0696 H       124   A56       0.4186
   3982 H61        19.8974    3.2496   65.6849 H       124   A56       0.4115
   3983 H62        19.4617    4.8508   65.5049 H       124   A56       0.4115
   3984 P          19.1500   10.8650   59.3480 P.3     125   C57       1.1662
   3985 OP1        18.8690   11.4150   58.0030 O.co2   125   C57      -0.7760
   3986 OP2        19.0530   11.7390   60.5370 O.co2   125   C57      -0.7760
   3987 O5'        18.1980    9.6070   59.6060 O.3     125   C57      -0.4989
   3988 C5'        18.2620    8.4740   58.7490 C.3     125   C57       0.0558
   3989 C4'        17.8140    7.2270   59.4870 C.3     125   C57       0.1065
   3990 O4'        18.6960    6.9660   60.6100 O.3     125   C57      -0.3548
   3991 C3'        16.4430    7.3170   60.1380 C.3     125   C57       0.2022
   3992 O3'        15.4040    7.1340   59.1860 O.3     125   C57      -0.5246
   3993 C2'        16.5420    6.1510   61.1120 C.3     125   C57       0.0670
   3994 O2'        16.4410    4.9010   60.4590 O.3     125   C57      -0.6139
   3995 C1'        17.9540    6.3590   61.6540 C.3     125   C57       0.0066
   3996 N1         17.9940    7.2340   62.8700 N.am    125   C57      -0.0484
   3997 C2         17.6870    6.6860   64.1190 C.2     125   C57       0.7538
   3998 O2         17.3930    5.4890   64.1910 O.2     125   C57      -0.6252
   3999 N3         17.7180    7.4810   65.2180 N.2     125   C57      -0.7584
   4000 C4         18.0390    8.7690   65.1000 C.2     125   C57       0.8185
   4001 N4         18.0580    9.5100   66.2130 N.pl3   125   C57      -0.9530
   4002 C5         18.3500    9.3530   63.8360 C.2     125   C57      -0.5215
   4003 C6         18.3120    8.5580   62.7600 C.2     125   C57       0.0053
   4004 H5'        17.6109    8.6363   57.8901 H       125   C57       0.0679
   4005 H5''       19.2873    8.3402   58.4041 H       125   C57       0.0679
   4006 H4'        17.8353    6.3766   58.8055 H       125   C57       0.1174
   4007 H3'        16.3241    8.2611   60.6696 H       125   C57       0.0615
   4008 H2'        15.8004    6.2395   61.9060 H       125   C57       0.0972
   4009 H1'        18.3942    5.3908   61.8926 H       125   C57       0.2029
   4010 H5         18.6067   10.3986   63.7506 H       125   C57       0.1928
   4011 H6         18.5367    8.9705   61.7875 H       125   C57       0.1958
   4012 H41        17.8351    9.0892   67.1037 H       125   C57       0.4234
   4013 H42        18.2952   10.4905   66.1629 H       125   C57       0.4234
   4014 HO2'       17.0218    4.8909   59.6947 H       125   C57       0.4186
   4015 P          14.0350    7.9490   59.3420 P.3     126   C58       1.1662
   4016 OP1        13.4030    8.0280   58.0050 O.co2   126   C58      -0.7760
   4017 OP2        14.3210    9.1900   60.0920 O.co2   126   C58      -0.7760
   4018 O5'        13.1590    7.0110   60.2960 O.3     126   C58      -0.4989
   4019 C5'        12.9590    5.6360   59.9850 C.3     126   C58       0.0558
   4020 C4'        12.6480    4.8480   61.2450 C.3     126   C58       0.1065
   4021 O4'        13.7300    5.0240   62.1940 O.3     126   C58      -0.3548
   4022 C3'        11.3980    5.2770   62.0040 C.3     126   C58       0.2022
   4023 O3'        10.2590    4.6160   61.4640 O.3     126   C58      -0.5246
   4024 C2'        11.7150    4.7720   63.4080 C.3     126   C58       0.0670
   4025 O2'        11.4510    3.3900   63.5510 O.3     126   C58      -0.6139
   4026 C1'        13.2190    5.0070   63.5130 C.3     126   C58       0.0066
   4027 N1         13.6040    6.2760   64.1990 N.am    126   C58      -0.0484
   4028 C2         13.5320    6.3590   65.5950 C.2     126   C58       0.7538
   4029 O2         13.1420    5.3780   66.2410 O.2     126   C58      -0.6252
   4030 N3         13.8940    7.5160   66.2030 N.2     126   C58      -0.7584
   4031 C4         14.3100    8.5540   65.4760 C.2     126   C58       0.8185
   4032 N4         14.6550    9.6710   66.1240 N.pl3   126   C58      -0.9530
   4033 C5         14.3910    8.4910   64.0530 C.2     126   C58      -0.5215
   4034 C6         14.0330    7.3450   63.4630 C.2     126   C58       0.0053
   4035 H5'        12.1257    5.5430   59.2886 H       126   C58       0.0679
   4036 H5''       13.8615    5.2358   59.5230 H       126   C58       0.0679
   4037 H4'        12.5652    3.7910   60.9921 H       126   C58       0.1174
   4038 H3'        11.2746    6.3599   61.9886 H       126   C58       0.0615
   4039 H2'        11.1777    5.3503   64.1597 H       126   C58       0.0972
   4040 H1'        13.6663    4.1705   64.0498 H       126   C58       0.2029
   4041 H5         14.7289    9.3374   63.4734 H       126   C58       0.1928
   4042 H6         14.0838    7.2631   62.3873 H       126   C58       0.1958
   4043 H41        14.5957    9.7091   67.1315 H       126   C58       0.4234
   4044 H42        14.9750   10.4769   65.6061 H       126   C58       0.4234
   4045 HO2'       11.7653    3.0913   64.4075 H       126   C58       0.4186
   4046 P           8.7820    5.2250   61.5950 P.3     127   U59       1.1662
   4047 OP1         7.8820    4.3460   60.8160 O.co2   127   U59      -0.7760
   4048 OP2         8.8400    6.6720   61.2900 O.co2   127   U59      -0.7760
   4049 O5'         8.4530    5.0770   63.1540 O.3     127   U59      -0.4989
   4050 C5'         8.1360    3.8070   63.7160 C.3     127   U59       0.0558
   4051 C4'         7.9020    3.9480   65.2100 C.3     127   U59       0.1065
   4052 O4'         9.0930    4.4990   65.8220 O.3     127   U59      -0.3548
   4053 C3'         6.7830    4.9100   65.5840 C.3     127   U59       0.2022
   4054 O3'         5.5510    4.2070   65.6800 O.3     127   U59      -0.5246
   4055 C2'         7.2180    5.4520   66.9440 C.3     127   U59       0.0670
   4056 O2'         6.7410    4.6690   68.0200 O.3     127   U59      -0.6139
   4057 C1'         8.7400    5.3650   66.8840 C.3     127   U59       0.0674
   4058 N1          9.4350    6.6730   66.6930 N.am    127   U59       0.0418
   4059 C2          9.4720    7.5780   67.7340 C.2     127   U59       0.4687
   4060 O2          8.9480    7.3770   68.8160 O.2     127   U59      -0.5477
   4061 N3         10.1510    8.7410   67.4620 N.am    127   U59      -0.3549
   4062 C4         10.7880    9.0770   66.2820 C.2     127   U59       0.5952
   4063 O4         11.3610   10.1570   66.1870 O.2     127   U59      -0.5761
   4064 C5         10.7070    8.0810   65.2450 C.2     127   U59      -0.3635
   4065 C6         10.0510    6.9420   65.4880 C.2     127   U59      -0.1126
   4066 H5'         7.2339    3.4178   63.2440 H       127   U59       0.0679
   4067 H5''        8.9621    3.1175   63.5422 H       127   U59       0.0679
   4068 H4'         7.6950    2.9673   65.6385 H       127   U59       0.1174
   4069 H3'         6.7095    5.7165   64.8544 H       127   U59       0.0615
   4070 H2'         6.9011    6.4886   67.0588 H       127   U59       0.0972
   4071 H1'         9.0935    4.9237   67.8159 H       127   U59       0.1824
   4072 H3         10.1889    9.4245   68.2046 H       127   U59       0.3154
   4073 H5         11.1699    8.2520   64.2843 H       127   U59       0.1811
   4074 H6         10.0009    6.1988   64.7060 H       127   U59       0.2188
   4075 HO2'        5.9101    5.0312   68.3362 H       127   U59       0.4186
   4076 P           4.2670    4.7420   64.8920 P.3     128   G60       1.1662
   4077 OP1         3.2490    3.6680   64.9010 O.co2   128   G60      -0.7760
   4078 OP2         4.7310    5.3160   63.6100 O.co2   128   G60      -0.7760
   4079 O5'         3.7480    5.9390   65.8190 O.3     128   G60      -0.4989
   4080 C5'         3.2170    5.6450   67.1030 C.3     128   G60       0.0558
   4081 C4'         3.2830    6.8610   68.0080 C.3     128   G60       0.1065
   4082 O4'         4.6660    7.2270   68.2320 O.3     128   G60      -0.3548
   4083 C3'         2.6290    8.1160   67.4500 C.3     128   G60       0.2022
   4084 O3'         1.2440    8.1130   67.7740 O.3     128   G60      -0.5246
   4085 C2'         3.3740    9.2130   68.2070 C.3     128   G60       0.0670
   4086 O2'         2.8380    9.4460   69.4960 O.3     128   G60      -0.6139
   4087 C1'         4.7810    8.6320   68.3310 C.3     128   G60       0.0191
   4088 N9          5.6970    9.1010   67.2940 N.ar    128   G60       0.0492
   4089 C8          5.8510    8.5810   66.0320 C.ar    128   G60       0.1374
   4090 N7          6.7460    9.2070   65.3190 N.ar    128   G60      -0.5709
   4091 C5          7.2130   10.2070   66.1620 C.ar    128   G60       0.1744
   4092 C6          8.1950   11.2000   65.9380 C.2     128   G60       0.4770
   4093 O6          8.8600   11.3940   64.9130 O.2     128   G60      -0.5597
   4094 N1          8.3750   12.0170   67.0520 N.am    128   G60      -0.4787
   4095 C2          7.6900   11.8850   68.2350 C.2     128   G60       0.7657
   4096 N2          7.9970   12.7650   69.1980 N.pl3   128   G60      -0.9672
   4097 N3          6.7670   10.9560   68.4590 N.2     128   G60      -0.6323
   4098 C4          6.5800   10.1550   67.3820 C.ar    128   G60       0.1222
   4099 H5'         2.1773    5.3355   66.9967 H       128   G60       0.0679
   4100 H5''        3.7894    4.8327   67.5508 H       128   G60       0.0679
   4101 H4'         2.8216    6.6163   68.9647 H       128   G60       0.1174
   4102 H3'         2.7848    8.2000   66.3745 H       128   G60       0.0615
   4103 H2'         3.3904   10.1355   67.6266 H       128   G60       0.0972
   4104 H1'         5.1880    8.8886   69.3091 H       128   G60       0.2006
   4105 H8          5.2862    7.7364   65.6659 H       128   G60       0.1640
   4106 H1          9.0573   12.7586   66.9849 H       128   G60       0.3424
   4107 H21         8.6979   13.4727   69.0306 H       128   G60       0.4364
   4108 H22         7.5275   12.7205   70.0911 H       128   G60       0.4364
   4109 HO2'        1.9539    9.8110   69.4142 H       128   G60       0.4186
   4110 P           0.1030    8.0250   66.6520 P.3     129   A61       1.1662
   4111 OP1        -0.5650    9.3460   66.5890 O.co2   129   A61      -0.7760
   4112 OP2        -0.6890    6.8080   66.9410 O.co2   129   A61      -0.7760
   4113 O5'         0.8840    7.7820   65.2780 O.3     129   A61      -0.4989
   4114 C5'         0.1550    7.4060   64.1070 C.3     129   A61       0.0558
   4115 C4'         0.8520    7.8510   62.8300 C.3     129   A61       0.1065
   4116 O4'         1.2340    9.2480   62.9350 O.3     129   A61      -0.3548
   4117 C3'         2.1360    7.1040   62.4910 C.3     129   A61       0.2022
   4118 O3'         2.3390    7.0740   61.0790 O.3     129   A61      -0.5246
   4119 C2'         3.1910    7.9660   63.1760 C.3     129   A61       0.0670
   4120 O2'         4.4750    7.8100   62.6040 O.3     129   A61      -0.6139
   4121 C1'         2.6450    9.3610   62.8930 C.3     129   A61       0.0394
   4122 N9          3.0600   10.3590   63.8750 N.ar    129   A61      -0.0251
   4123 C8          2.4130   10.6990   65.0310 C.ar    129   A61       0.2006
   4124 N7          3.0200   11.6340   65.7220 N.ar    129   A61      -0.6073
   4125 C5          4.1430   11.9290   64.9660 C.ar    129   A61       0.0515
   4126 C6          5.2010   12.8410   65.1520 C.ar    129   A61       0.7009
   4127 N6          5.2940   13.6560   66.2080 N.pl3   129   A61      -0.9019
   4128 N1          6.1630   12.8840   64.2060 N.ar    129   A61      -0.7615
   4129 C2          6.0710   12.0650   63.1510 C.ar    129   A61       0.5875
   4130 N3          5.1270   11.1700   62.8680 N.ar    129   A61      -0.6997
   4131 C4          4.1840   11.1500   63.8250 C.ar    129   A61       0.3053
   4132 H5'         0.0518    6.3210   64.0909 H       129   A61       0.0679
   4133 H5''       -0.8367    7.8566   64.1460 H       129   A61       0.0679
   4134 H4'         0.1563    7.7422   61.9980 H       129   A61       0.1174
   4135 H3'         2.1239    6.0963   62.9063 H       129   A61       0.0615
   4136 H2'         3.2169    7.7693   64.2478 H       129   A61       0.0972
   4137 H1'         2.9554    9.6785   61.8976 H       129   A61       0.2007
   4138 H8          1.4875   10.2399   65.3458 H       129   A61       0.1553
   4139 H2          6.8723   12.1407   62.4309 H       129   A61       0.0473
   4140 HO2'        4.8985    7.0321   62.9744 H       129   A61       0.4186
   4141 H61         6.2075   14.0714   66.0942 H       129   A61       0.4115
   4142 H62         4.6168   13.8167   66.9399 H       129   A61       0.4115
   4143 P           1.5240    6.0480   60.1590 P.3     130   U62       1.1662
   4144 OP1         0.9420    5.0080   61.0370 O.co2   130   U62      -0.7760
   4145 OP2         2.3920    5.6530   59.0240 O.co2   130   U62      -0.7760
   4146 O5'         0.3490    6.9640   59.5820 O.3     130   U62      -0.4989
   4147 C5'         0.6560    8.1440   58.8480 C.3     130   U62       0.0558
   4148 C4'        -0.6160    8.8870   58.4800 C.3     130   U62       0.1065
   4149 O4'        -1.4640    8.0280   57.6750 O.3     130   U62      -0.3548
   4150 C3'        -1.4680    9.3240   59.6660 C.3     130   U62       0.2022
   4151 O3'        -2.1180   10.5550   59.3800 O.3     130   U62      -0.5246
   4152 C2'        -2.4860    8.1950   59.7820 C.3     130   U62       0.0670
   4153 O2'        -3.6950    8.6150   60.3870 O.3     130   U62      -0.6139
   4154 C1'        -2.7150    7.8560   58.3140 C.3     130   U62       0.0674
   4155 N1         -3.1810    6.4550   58.1000 N.am    130   U62       0.0418
   4156 C2         -4.5350    6.2030   58.0090 C.2     130   U62       0.4687
   4157 O2         -5.3860    7.0710   58.0880 O.2     130   U62      -0.5477
   4158 N3         -4.8620    4.8840   57.8160 N.am    130   U62      -0.3549
   4159 C4         -3.9930    3.8130   57.7120 C.2     130   U62       0.5952
   4160 O4         -4.4420    2.6830   57.5400 O.2     130   U62      -0.5761
   4161 C5         -2.5970    4.1550   57.8190 C.2     130   U62      -0.3635
   4162 C6         -2.2520    5.4360   58.0060 C.2     130   U62      -0.1126
   4163 H5'         1.1884    7.8712   57.9368 H       130   U62       0.0679
   4164 H5''        1.2888    8.7915   59.4550 H       130   U62       0.0679
   4165 H4'        -0.3514    9.7675   57.8945 H       130   U62       0.1174
   4166 H3'        -0.8662    9.4015   60.5715 H       130   U62       0.0615
   4167 H2'        -2.0616    7.3439   60.3145 H       130   U62       0.0972
   4168 H1'        -3.4399    8.5500   57.8886 H       130   U62       0.1824
   4169 H3         -5.8467    4.6719   57.7417 H       130   U62       0.3154
   4170 H5         -1.8391    3.3888   57.7494 H       130   U62       0.1811
   4171 H6         -1.2037    5.6828   58.0867 H       130   U62       0.2188
   4172 HO2'       -4.3958    8.6227   59.7310 H       130   U62       0.4186
   4173 P          -1.4340   11.9600   59.7270 P.3     131   C63       1.1662
   4174 OP1        -2.5180   12.9670   59.7650 O.co2   131   C63      -0.7760
   4175 OP2        -0.2900   12.1500   58.8080 O.co2   131   C63      -0.7760
   4176 O5'        -0.8550   11.7650   61.2080 O.3     131   C63      -0.4989
   4177 C5'        -1.7360   11.7010   62.3280 C.3     131   C63       0.0558
   4178 C4'        -1.3740   12.7210   63.3940 C.3     131   C63       0.1065
   4179 O4'        -0.0190   12.5090   63.8660 O.3     131   C63      -0.3548
   4180 C3'        -1.3590   14.1720   62.9410 C.3     131   C63       0.2022
   4181 O3'        -2.6770   14.6960   62.8620 O.3     131   C63      -0.5246
   4182 C2'        -0.5510   14.8050   64.0680 C.3     131   C63       0.0670
   4183 O2'        -1.3000   14.9720   65.2540 O.3     131   C63      -0.6139
   4184 C1'         0.5320   13.7490   64.2790 C.3     131   C63       0.0066
   4185 N1          1.7850   14.0360   63.5060 N.am    131   C63      -0.0484
   4186 C2          2.6640   15.0260   63.9650 C.2     131   C63       0.7538
   4187 O2          2.3950   15.6460   65.0040 O.2     131   C63      -0.6252
   4188 N3          3.7910   15.2860   63.2570 N.2     131   C63      -0.7584
   4189 C4          4.0530   14.6010   62.1420 C.2     131   C63       0.8185
   4190 N4          5.1800   14.8950   61.4860 N.pl3   131   C63      -0.9530
   4191 C5          3.1720   13.5890   61.6560 C.2     131   C63      -0.5215
   4192 C6          2.0610   13.3420   62.3620 C.2     131   C63       0.0053
   4193 H5'        -1.6810   10.7029   62.7626 H       131   C63       0.0679
   4194 H5''       -2.7555   11.8862   61.9899 H       131   C63       0.0679
   4195 H4'        -2.0625   12.6178   64.2327 H       131   C63       0.1174
   4196 H3'        -0.8421   14.2756   61.9870 H       131   C63       0.0615
   4197 H2'        -0.1139   15.7510   63.7484 H       131   C63       0.0972
   4198 H1'         0.7737   13.6947   65.3405 H       131   C63       0.2029
   4199 H5          3.3932   13.0420   60.7514 H       131   C63       0.1928
   4200 H6          1.3727   12.5825   62.0217 H       131   C63       0.1958
   4201 H41         5.7968   15.6129   61.8384 H       131   C63       0.4234
   4202 H42         5.4147   14.3992   60.6379 H       131   C63       0.4234
   4203 HO2'       -1.4076   15.9085   65.4359 H       131   C63       0.4186
   4204 P          -2.9880   15.8850   61.8360 P.3     132   U64       1.1662
   4205 OP1        -4.4580   16.0330   61.7490 O.co2   132   U64      -0.7760
   4206 OP2        -2.2020   15.6470   60.6040 O.co2   132   U64      -0.7760
   4207 O5'        -2.3650   17.1710   62.5620 O.3     132   U64      -0.4989
   4208 C5'        -2.8770   17.6220   63.8130 C.3     132   U64       0.0558
   4209 C4'        -2.0360   18.7640   64.3570 C.3     132   U64       0.1065
   4210 O4'        -0.7010   18.2890   64.6710 O.3     132   U64      -0.3548
   4211 C3'        -1.7920   19.9100   63.3870 C.3     132   U64       0.2022
   4212 O3'        -2.8960   20.8030   63.3710 O.3     132   U64      -0.5246
   4213 C2'        -0.5590   20.5540   64.0060 C.3     132   U64       0.0670
   4214 O2'        -0.8710   21.3290   65.1480 O.3     132   U64      -0.6139
   4215 C1'         0.2390   19.3190   64.4110 C.3     132   U64       0.0674
   4216 N1          1.2010   18.8620   63.3590 N.am    132   U64       0.0418
   4217 C2          2.3740   19.5650   63.1690 C.2     132   U64       0.4687
   4218 O2          2.6700   20.5540   63.8180 O.2     132   U64      -0.5477
   4219 N3          3.1950   19.0670   62.1850 N.am    132   U64      -0.3549
   4220 C4          2.9660   17.9580   61.3890 C.2     132   U64       0.5952
   4221 O4          3.7950   17.6260   60.5440 O.2     132   U64      -0.5761
   4222 C5          1.7200   17.2810   61.6450 C.2     132   U64      -0.3635
   4223 C6          0.9070   17.7460   62.6000 C.2     132   U64      -0.1126
   4224 H5'        -2.8619   16.7962   64.5243 H       132   U64       0.0679
   4225 H5''       -3.9036   17.9631   63.6796 H       132   U64       0.0679
   4226 H4'        -2.5012   19.1529   65.2628 H       132   U64       0.1174
   4227 H3'        -1.5770   19.5360   62.3860 H       132   U64       0.0615
   4228 H2'        -0.0158   21.1456   63.2691 H       132   U64       0.0972
   4229 H1'         0.7900   19.5364   65.3260 H       132   U64       0.1824
   4230 H3          4.0594   19.5646   62.0256 H       132   U64       0.3154
   4231 H5          1.4455   16.4076   61.0720 H       132   U64       0.1811
   4232 H6         -0.0209   17.2255   62.7860 H       132   U64       0.2188
   4233 HO2'       -1.3728   22.1032   64.8826 H       132   U64       0.4186
   4234 P          -3.2910   21.5560   62.0130 P.3     133   G65       1.1662
   4235 OP1        -4.5840   22.2370   62.2450 O.co2   133   G65      -0.7760
   4236 OP2        -3.1440   20.5950   60.8970 O.co2   133   G65      -0.7760
   4237 O5'        -2.1430   22.6590   61.8470 O.3     133   G65      -0.4989
   4238 C5'        -2.1620   23.8420   62.6350 C.3     133   G65       0.0558
   4239 C4'        -0.8940   24.6480   62.4240 C.3     133   G65       0.1065
   4240 O4'         0.2650   23.8710   62.8260 O.3     133   G65      -0.3548
   4241 C3'        -0.5750   25.0080   60.9820 C.3     133   G65       0.2022
   4242 O3'        -1.3680   26.0990   60.5330 O.3     133   G65      -0.5246
   4243 C2'         0.8900   25.3940   61.1370 C.3     133   G65       0.0670
   4244 O2'         1.0550   26.6470   61.7740 O.3     133   G65      -0.6139
   4245 C1'         1.3790   24.2620   62.0380 C.3     133   G65       0.0191
   4246 N9          1.8510   23.1220   61.2570 N.ar    133   G65       0.0492
   4247 C8          1.1920   21.9370   61.0310 C.ar    133   G65       0.1374
   4248 N7          1.8570   21.1110   60.2710 N.ar    133   G65      -0.5709
   4249 C5          3.0300   21.7910   59.9670 C.ar    133   G65       0.1744
   4250 C6          4.1390   21.3940   59.1790 C.2     133   G65       0.4770
   4251 O6          4.3090   20.3300   58.5690 O.2     133   G65      -0.5597
   4252 N1          5.1170   22.3840   59.1290 N.am    133   G65      -0.4787
   4253 C2          5.0330   23.6040   59.7580 C.2     133   G65       0.7657
   4254 N2          6.0790   24.4270   59.5900 N.pl3   133   G65      -0.9672
   4255 N3          4.0020   23.9860   60.5010 N.2     133   G65      -0.6323
   4256 C4          3.0400   23.0330   60.5630 C.ar    133   G65       0.1222
   4257 H5'        -3.0223   24.4477   62.3500 H       133   G65       0.0679
   4258 H5''       -2.2453   23.5717   63.6876 H       133   G65       0.0679
   4259 H4'        -0.9422   25.5588   63.0208 H       133   G65       0.1174
   4260 H3'        -0.6871   24.1442   60.3268 H       133   G65       0.0615
   4261 H2'         1.4020   25.3753   60.1749 H       133   G65       0.0972
   4262 H1'         2.1792   24.6237   62.6838 H       133   G65       0.2006
   4263 H8          0.2191   21.7118   61.4423 H       133   G65       0.1640
   4264 H1          5.9498   22.1918   58.5909 H       133   G65       0.3424
   4265 H21         6.8649   24.1362   59.0262 H       133   G65       0.4364
   4266 H22         6.0806   25.3374   60.0273 H       133   G65       0.4364
   4267 HO2'        0.7428   27.3451   61.1937 H       133   G65       0.4186
   4268 P          -1.7130   26.2590   58.9760 P.3     134   G66       1.1662
   4269 OP1        -2.6500   27.3970   58.8430 O.co2   134   G66      -0.7760
   4270 OP2        -2.0890   24.9260   58.4510 O.co2   134   G66      -0.7760
   4271 O5'        -0.3110   26.6560   58.3130 O.3     134   G66      -0.4989
   4272 C5'         0.3010   27.9080   58.6000 C.3     134   G66       0.0558
   4273 C4'         1.7200   27.9580   58.0580 C.3     134   G66       0.1065
   4274 O4'         2.5070   26.8670   58.6050 O.3     134   G66      -0.3548
   4275 C3'         1.8670   27.7580   56.5580 C.3     134   G66       0.2022
   4276 O3'         1.5220   28.9340   55.8380 O.3     134   G66      -0.5246
   4277 C2'         3.3590   27.4540   56.4880 C.3     134   G66       0.0670
   4278 O2'         4.1540   28.6010   56.7150 O.3     134   G66      -0.6139
   4279 C1'         3.4930   26.4880   57.6610 C.3     134   G66       0.0191
   4280 N9          3.2660   25.0990   57.2710 N.ar    134   G66       0.0492
   4281 C8          2.1660   24.3240   57.5510 C.ar    134   G66       0.1374
   4282 N7          2.2430   23.1190   57.0600 N.ar    134   G66      -0.5709
   4283 C5          3.4700   23.0930   56.4100 C.ar    134   G66       0.1744
   4284 C6          4.1030   22.0460   55.6970 C.2     134   G66       0.4770
   4285 O6          3.6830   20.8990   55.4880 O.2     134   G66      -0.5597
   4286 N1          5.3440   22.4370   55.1990 N.am    134   G66      -0.4787
   4287 C2          5.9030   23.6820   55.3700 C.2     134   G66       0.7657
   4288 N2          7.1080   23.8750   54.8120 N.pl3   134   G66      -0.9672
   4289 N3          5.3210   24.6710   56.0370 N.2     134   G66      -0.6323
   4290 C4          4.1120   24.3050   56.5290 C.ar    134   G66       0.1222
   4291 H5'        -0.2842   28.7043   58.1402 H       134   G66       0.0679
   4292 H5''        0.3238   28.0571   59.6795 H       134   G66       0.0679
   4293 H4'         2.1778   28.9063   58.3396 H       134   G66       0.1174
   4294 H3'         1.2786   26.9056   56.2183 H       134   G66       0.0615
   4295 H2'         3.6206   26.9714   55.5463 H       134   G66       0.0972
   4296 H1'         4.4833   26.5866   58.1057 H       134   G66       0.2006
   4297 H8          1.3206   24.6787   58.1219 H       134   G66       0.1640
   4298 H1          5.8725   21.7555   54.6733 H       134   G66       0.3424
   4299 H21         7.5542   23.1260   54.3021 H       134   G66       0.4364
   4300 H22         7.5688   24.7693   54.9019 H       134   G66       0.4364
   4301 HO2'        4.0651   29.2043   55.9736 H       134   G66       0.4186
   4302 P           0.9000   28.8160   54.3670 P.3     135   A67       1.1662
   4303 OP1         0.4270   30.1600   53.9680 O.co2   135   A67      -0.7760
   4304 OP2        -0.0330   27.6650   54.3540 O.co2   135   A67      -0.7760
   4305 O5'         2.1590   28.4240   53.4600 O.3     135   A67      -0.4989
   4306 C5'         3.2330   29.3410   53.2850 C.3     135   A67       0.0558
   4307 C4'         4.4160   28.6620   52.6170 C.3     135   A67       0.1065
   4308 O4'         4.8390   27.5070   53.3860 O.3     135   A67      -0.3548
   4309 C3'         4.1430   28.0750   51.2430 C.3     135   A67       0.2022
   4310 O3'         4.1270   29.0910   50.2490 O.3     135   A67      -0.5246
   4311 C2'         5.3470   27.1500   51.1070 C.3     135   A67       0.0670
   4312 O2'         6.5440   27.8540   50.8410 O.3     135   A67      -0.6139
   4313 C1'         5.3930   26.5430   52.5050 C.3     135   A67       0.0394
   4314 N9          4.6230   25.3060   52.6080 N.ar    135   A67      -0.0251
   4315 C8          3.4030   25.1420   53.2050 C.ar    135   A67       0.2006
   4316 N7          2.9430   23.9150   53.1400 N.ar    135   A67      -0.6073
   4317 C5          3.9270   23.2280   52.4500 C.ar    135   A67       0.0515
   4318 C6          4.0420   21.8810   52.0560 C.ar    135   A67       0.7009
   4319 N6          3.1110   20.9580   52.3160 N.pl3   135   A67      -0.9019
   4320 N1          5.1520   21.5200   51.3790 N.ar    135   A67      -0.7615
   4321 C2          6.0800   22.4500   51.1190 C.ar    135   A67       0.5875
   4322 N3          6.0860   23.7420   51.4400 N.ar    135   A67      -0.6997
   4323 C4          4.9690   24.0710   52.1100 C.ar    135   A67       0.3053
   4324 H5'         2.8976   30.1698   52.6615 H       135   A67       0.0679
   4325 H5''        3.5407   29.7244   54.2579 H       135   A67       0.0679
   4326 H4'         5.2428   29.3688   52.5472 H       135   A67       0.1174
   4327 H3'         3.2119   27.5083   51.2379 H       135   A67       0.0615
   4328 H2'         5.1682   26.3833   50.3532 H       135   A67       0.0972
   4329 H1'         6.4291   26.3500   52.7831 H       135   A67       0.2007
   4330 H8          2.8681   25.9480   53.6853 H       135   A67       0.1553
   4331 H2          6.9445   22.1033   50.5724 H       135   A67       0.0473
   4332 H61         2.2740   21.2131   52.8204 H       135   A67       0.4115
   4333 H62         3.2445   20.0054   52.0081 H       135   A67       0.4115
   4334 HO2'        6.5045   28.2317   49.9593 H       135   A67       0.4186
   4335 P           3.1960   28.9250   48.9570 P.3     136   U68       1.1662
   4336 OP1         3.4520   30.0770   48.0640 O.co2   136   U68      -0.7760
   4337 OP2         1.8180   28.6320   49.4120 O.co2   136   U68      -0.7760
   4338 O5'         3.7620   27.5980   48.2660 O.3     136   U68      -0.4989
   4339 C5'         5.0110   27.6150   47.5910 C.3     136   U68       0.0558
   4340 C4'         5.3890   26.2100   47.1650 C.3     136   U68       0.1065
   4341 O4'         5.3140   25.3080   48.2990 O.3     136   U68      -0.3548
   4342 C3'         4.4510   25.5890   46.1460 C.3     136   U68       0.2022
   4343 O3'         4.7850   26.0320   44.8410 O.3     136   U68      -0.5246
   4344 C2'         4.7560   24.1090   46.3340 C.3     136   U68       0.0670
   4345 O2'         5.9380   23.7190   45.6640 O.3     136   U68      -0.6139
   4346 C1'         4.9370   24.0180   47.8490 C.3     136   U68       0.0674
   4347 N1          3.6970   23.5770   48.5640 N.am    136   U68       0.0418
   4348 C2          3.4580   22.2250   48.7140 C.2     136   U68       0.4687
   4349 O2          4.2150   21.3640   48.3060 O.2     136   U68      -0.5477
   4350 N3          2.2960   21.9090   49.3740 N.am    136   U68      -0.3549
   4351 C4          1.3600   22.7910   49.8820 C.2     136   U68       0.5952
   4352 O4          0.3630   22.3530   50.4470 O.2     136   U68      -0.5761
   4353 C5          1.6720   24.1850   49.6830 C.2     136   U68      -0.3635
   4354 C6          2.8030   24.5160   49.0450 C.2     136   U68      -0.1126
   4355 H5'         4.9361   28.2516   46.7094 H       136   U68       0.0679
   4356 H5''        5.7775   28.0094   48.2581 H       136   U68       0.0679
   4357 H4'         6.4047   26.2117   46.7694 H       136   U68       0.1174
   4358 H3'         3.4102   25.8099   46.3827 H       136   U68       0.0615
   4359 H2'         3.9124   23.4991   46.0108 H       136   U68       0.0972
   4360 H1'         5.7417   23.3164   48.0687 H       136   U68       0.1824
   4361 H3          2.1042   20.9257   49.5023 H       136   U68       0.3154
   4362 H5          1.0028   24.9522   50.0435 H       136   U68       0.1811
   4363 H6          3.0262   25.5627   48.9000 H       136   U68       0.2188
   4364 HO2'        5.9924   22.7608   45.6417 H       136   U68       0.4186
   4365 P           3.6290   26.2670   43.7630 P.3     137   A69       1.1662
   4366 OP1         4.2460   26.9030   42.5790 O.co2   137   A69      -0.7760
   4367 OP2         2.4920   26.9250   44.4470 O.co2   137   A69      -0.7760
   4368 O5'         3.1800   24.7790   43.3780 O.3     137   A69      -0.4989
   4369 C5'         2.1020   24.5760   42.4690 C.3     137   A69       0.0558
   4370 C4'         1.8370   23.0960   42.2600 C.3     137   A69       0.1065
   4371 O4'         2.7490   22.5810   41.2560 O.3     137   A69      -0.3548
   4372 C3'         2.0450   22.2300   43.4950 C.3     137   A69       0.2022
   4373 O3'         0.8160   22.1040   44.2150 O.3     137   A69      -0.5246
   4374 C2'         2.4990   20.8990   42.9010 C.3     137   A69       0.0670
   4375 O2'         1.4100   20.0890   42.5020 O.3     137   A69      -0.6139
   4376 C1'         3.2790   21.3350   41.6660 C.3     137   A69       0.0394
   4377 N9          4.7260   21.4750   41.8330 N.ar    137   A69      -0.0251
   4378 C8          5.4360   22.6430   41.8620 C.ar    137   A69       0.2006
   4379 N7          6.7300   22.4770   41.9960 N.ar    137   A69      -0.6073
   4380 C5          6.8860   21.1020   42.0430 C.ar    137   A69       0.0515
   4381 C6          8.0250   20.2800   42.1760 C.ar    137   A69       0.7009
   4382 N6          9.2700   20.7570   42.2840 N.pl3   137   A69      -0.9019
   4383 N1          7.8350   18.9440   42.1920 N.ar    137   A69      -0.7615
   4384 C2          6.5870   18.4720   42.0830 C.ar    137   A69       0.5875
   4385 N3          5.4430   19.1430   41.9530 N.ar    137   A69      -0.6997
   4386 C4          5.6620   20.4670   41.9400 C.ar    137   A69       0.3053
   4387 H5'         1.2040   25.0454   42.8709 H       137   A69       0.0679
   4388 H5''        2.3488   25.0349   41.5116 H       137   A69       0.0679
   4389 H4'         0.8139   22.9671   41.9068 H       137   A69       0.1174
   4390 H3'         2.8223   22.6510   44.1328 H       137   A69       0.0615
   4391 H2'         3.1445   20.3642   43.5977 H       137   A69       0.0972
   4392 H1'         3.0960   20.6094   40.8735 H       137   A69       0.2007
   4393 H8          4.9727   23.6153   41.7817 H       137   A69       0.1553
   4394 H2          6.4943   17.3962   42.1033 H       137   A69       0.0473
   4395 HO2'        1.7015   19.4684   41.8301 H       137   A69       0.4186
   4396 H61        10.1976   20.4722   42.5641 H       137   A69       0.4115
   4397 H62         9.2886   21.7221   41.9869 H       137   A69       0.4115
   4398 P           0.8220   22.0960   45.8180 P.3     138   A70       1.1662
   4399 OP1        -0.5770   22.0670   46.2960 O.co2   138   A70      -0.7760
   4400 OP2         1.7220   23.1780   46.2700 O.co2   138   A70      -0.7760
   4401 O5'         1.5170   20.6940   46.1510 O.3     138   A70      -0.4989
   4402 C5'         0.8150   19.4790   45.9200 C.3     138   A70       0.0558
   4403 C4'         1.7520   18.2870   45.9950 C.3     138   A70       0.1065
   4404 O4'         2.7920   18.4200   44.9950 O.3     138   A70      -0.3548
   4405 C3'         2.5110   18.1340   47.3040 C.3     138   A70       0.2022
   4406 O3'         1.7170   17.4470   48.2530 O.3     138   A70      -0.5246
   4407 C2'         3.7010   17.2910   46.8650 C.3     138   A70       0.0670
   4408 O2'         3.3740   15.9210   46.7270 O.3     138   A70      -0.6139
   4409 C1'         4.0040   17.8890   45.4950 C.3     138   A70       0.0394
   4410 N9          5.0140   18.9430   45.5230 N.ar    138   A70      -0.0251
   4411 C8          4.8040   20.2940   45.5460 C.ar    138   A70       0.2006
   4412 N7          5.9110   20.9990   45.5640 N.ar    138   A70      -0.6073
   4413 C5          6.9150   20.0460   45.5460 C.ar    138   A70       0.0515
   4414 C6          8.3220   20.1440   45.5520 C.ar    138   A70       0.7009
   4415 N6          8.9770   21.3090   45.5740 N.pl3   138   A70      -0.9019
   4416 N1          9.0300   18.9950   45.5330 N.ar    138   A70      -0.7615
   4417 C2          8.3710   17.8310   45.5100 C.ar    138   A70       0.5875
   4418 N3          7.0570   17.6140   45.5050 N.ar    138   A70      -0.6997
   4419 C4          6.3800   18.7730   45.5230 C.ar    138   A70       0.3053
   4420 H5'         0.0364   19.3683   46.6747 H       138   A70       0.0679
   4421 H5''        0.3552   19.5124   44.9323 H       138   A70       0.0679
   4422 H4'         1.1860   17.3756   45.8021 H       138   A70       0.1174
   4423 H3'         2.8340   19.1018   47.6875 H       138   A70       0.0615
   4424 H2'         4.5439   17.4239   47.5432 H       138   A70       0.0972
   4425 H1'         4.3419   17.0942   44.8300 H       138   A70       0.2007
   4426 H8          3.8200   20.7390   45.5491 H       138   A70       0.1553
   4427 H2          8.9894   16.9458   45.4932 H       138   A70       0.0473
   4428 HO2'        4.0064   15.4980   46.1415 H       138   A70       0.4186
   4429 H61         9.9578   21.0760   45.5119 H       138   A70       0.4115
   4430 H62         8.5738   22.2327   45.6393 H       138   A70       0.4115
   4431 P           1.8420   17.8080   49.8050 P.3     139   U71       1.1662
   4432 OP1         0.6070   17.3310   50.4660 O.co2   139   U71      -0.7760
   4433 OP2         2.2380   19.2290   49.9230 O.co2   139   U71      -0.7760
   4434 O5'         3.0790   16.9120   50.2850 O.3     139   U71      -0.4989
   4435 C5'         3.0470   15.5010   50.1060 C.3     139   U71       0.0558
   4436 C4'         4.4400   14.8950   50.1650 C.3     139   U71       0.1065
   4437 O4'         5.2490   15.3600   49.0540 O.3     139   U71      -0.3548
   4438 C3'         5.2650   15.2430   51.3950 C.3     139   U71       0.2022
   4439 O3'         4.8750   14.4280   52.4980 O.3     139   U71      -0.5246
   4440 C2'         6.6630   14.8940   50.8930 C.3     139   U71       0.0670
   4441 O2'         6.9130   13.5020   50.9330 O.3     139   U71      -0.6139
   4442 C1'         6.6100   15.3760   49.4420 C.3     139   U71       0.0674
   4443 N1          7.1500   16.7590   49.2700 N.am    139   U71       0.0418
   4444 C2          8.4740   16.9320   48.9090 C.2     139   U71       0.4687
   4445 O2          9.2410   16.0070   48.7020 O.2     139   U71      -0.5477
   4446 N3          8.8730   18.2430   48.7930 N.am    139   U71      -0.3549
   4447 C4          8.0980   19.3690   48.9990 C.2     139   U71       0.5952
   4448 O4          8.5940   20.4810   48.8560 O.2     139   U71      -0.5761
   4449 C5          6.7330   19.1080   49.3750 C.2     139   U71      -0.3635
   4450 C6          6.3210   17.8420   49.4960 C.2     139   U71      -0.1126
   4451 H5'         2.6059   15.2782   49.1345 H       139   U71       0.0679
   4452 H5''        2.4312   15.0562   50.8877 H       139   U71       0.0679
   4453 H4'         4.3509   13.8105   50.1009 H       139   U71       0.1174
   4454 H3'         5.1850   16.3025   51.6382 H       139   U71       0.0615
   4455 H2'         7.4222   15.4392   51.4538 H       139   U71       0.0972
   4456 H1'         7.1732   14.6875   48.8120 H       139   U71       0.1824
   4457 H3          9.8352   18.3999   48.5291 H       139   U71       0.3154
   4458 H5          6.0503   19.9248   49.5570 H       139   U71       0.1811
   4459 H6          5.2963   17.6573   49.7827 H       139   U71       0.2188
   4460 HO2'        7.4183   13.2448   50.1584 H       139   U71       0.4186
   4461 P           5.0400   14.9600   53.9990 P.3     140   G72       1.1662
   4462 OP1         4.5690   13.8860   54.9010 O.co2   140   G72      -0.7760
   4463 OP2         4.4340   16.3040   54.0800 O.co2   140   G72      -0.7760
   4464 O5'         6.6240   15.1240   54.1680 O.3     140   G72      -0.4989
   4465 C5'         7.1680   15.5210   55.4250 C.3     140   G72       0.0558
   4466 C4'         8.4610   14.7860   55.7370 C.3     140   G72       0.1065
   4467 O4'         8.1690   13.4600   56.2520 O.3     140   G72      -0.3548
   4468 C3'         9.3700   14.5040   54.5510 C.3     140   G72       0.2022
   4469 O3'        10.1680   15.6210   54.1920 O.3     140   G72      -0.5246
   4470 C2'        10.2400   13.4000   55.1310 C.3     140   G72       0.0670
   4471 O2'        11.1980   13.8990   56.0450 O.3     140   G72      -0.6139
   4472 C1'         9.1930   12.5620   55.8550 C.3     140   G72       0.0191
   4473 N9          8.6290   11.5210   54.9990 N.ar    140   G72       0.0492
   4474 C8          7.3420   11.4390   54.5230 C.ar    140   G72       0.1374
   4475 N7          7.1310   10.3940   53.7710 N.ar    140   G72      -0.5709
   4476 C5          8.3580    9.7430   53.7410 C.ar    140   G72       0.1744
   4477 C6          8.7420    8.5490   53.0840 C.2     140   G72       0.4770
   4478 O6          8.0460    7.8090   52.3760 O.2     140   G72      -0.5597
   4479 N1         10.0810    8.2370   53.3130 N.am    140   G72      -0.4787
   4480 C2         10.9410    8.9880   54.0810 C.2     140   G72       0.7657
   4481 N2         12.1990    8.5350   54.1910 N.pl3   140   G72      -0.9672
   4482 N3         10.5910   10.1070   54.7030 N.2     140   G72      -0.6323
   4483 C4          9.2910   10.4250   54.4890 C.ar    140   G72       0.1222
   4484 H5'         7.3682   16.5922   55.4003 H       140   G72       0.0679
   4485 H5''        6.4410   15.3123   56.2099 H       140   G72       0.0679
   4486 H4'         9.0177   15.3462   56.4883 H       140   G72       0.1174
   4487 H3'         8.7973   14.1423   53.6970 H       140   G72       0.0615
   4488 H2'        10.7196   12.8251   54.3389 H       140   G72       0.0972
   4489 H1'         9.6393   12.1051   56.7382 H       140   G72       0.2006
   4490 H8          6.5792   12.1692   54.7497 H       140   G72       0.1640
   4491 H1         10.4466    7.3988   52.8841 H       140   G72       0.3424
   4492 H21        12.4720    7.6835   53.7214 H       140   G72       0.4364
   4493 H22        12.8731    9.0455   54.7434 H       140   G72       0.4364
   4494 HO2'       11.8487   14.4236   55.5727 H       140   G72       0.4186
   4495 P          11.1390   15.4390   52.9320 P.3     141   C73       1.1662
   4496 OP1        10.5200   14.4190   52.0560 O.co2   141   C73      -0.7760
   4497 OP2        12.5180   15.2510   53.4340 O.co2   141   C73      -0.7760
   4498 O5'        11.0710   16.8490   52.1880 O.3     141   C73      -0.4989
   4499 C5'        12.2560   17.4750   51.7210 C.3     141   C73       0.0558
   4500 C4'        12.1000   18.9790   51.8250 C.3     141   C73       0.1065
   4501 O4'        10.8130   19.3670   51.2770 O.3     141   C73      -0.3548
   4502 C3'        12.0730   19.5100   53.2490 C.3     141   C73       0.2022
   4503 O3'        13.4020   19.6980   53.7180 O.3     141   C73      -0.5246
   4504 C2'        11.3280   20.8280   53.0580 C.3     141   C73       0.0670
   4505 O2'        12.1580   21.8480   52.5380 O.3     141   C73      -0.6139
   4506 C1'        10.2720   20.4430   52.0240 C.3     141   C73       0.0066
   4507 N1          8.9680   20.0140   52.6200 N.am    141   C73      -0.0484
   4508 C2          8.1590   20.9480   53.2820 C.2     141   C73       0.7538
   4509 O2          8.5290   22.1240   53.3630 O.2     141   C73      -0.6252
   4510 N3          6.9830   20.5360   53.8180 N.2     141   C73      -0.7584
   4511 C4          6.6100   19.2580   53.7130 C.2     141   C73       0.8185
   4512 N4          5.4440   18.8980   54.2600 N.pl3   141   C73      -0.9530
   4513 C5          7.4190   18.2940   53.0430 C.2     141   C73      -0.5215
   4514 C6          8.5750   18.7110   52.5180 C.2     141   C73       0.0053
   4515 H5'        12.4290   17.1977   50.6812 H       141   C73       0.0679
   4516 H5''       13.1016   17.1537   52.3292 H       141   C73       0.0679
   4517 H4'        12.8979   19.4690   51.2670 H       141   C73       0.1174
   4518 H3'        11.5184   18.8395   53.9054 H       141   C73       0.0615
   4519 H2'        10.8599   21.1468   53.9893 H       141   C73       0.0972
   4520 H1'        10.0993   21.2886   51.3582 H       141   C73       0.2029
   4521 H5          7.1084   17.2628   52.9626 H       141   C73       0.1928
   4522 H6          9.2095   18.0043   52.0038 H       141   C73       0.1958
   4523 H41         4.8751   19.5849   54.7339 H       141   C73       0.4234
   4524 H42         5.1323   17.9392   54.1992 H       141   C73       0.4234
   4525 HO2'       11.6246   22.6179   52.3272 H       141   C73       0.4186
   4526 P          13.7520   19.5560   55.2750 P.3     142   C74       1.1662
   4527 OP1        15.2250   19.6330   55.4010 O.co2   142   C74      -0.7760
   4528 OP2        13.0140   18.3950   55.8210 O.co2   142   C74      -0.7760
   4529 O5'        13.1060   20.8680   55.9140 O.3     142   C74      -0.4989
   4530 C5'        13.6500   22.1460   55.6330 C.3     142   C74       0.0558
   4531 C4'        12.7690   23.2150   56.2510 C.3     142   C74       0.1065
   4532 O4'        11.4370   23.1220   55.6870 O.3     142   C74      -0.3548
   4533 C3'        12.5370   23.0680   57.7470 C.3     142   C74       0.2022
   4534 O3'        13.6250   23.6170   58.4860 O.3     142   C74      -0.5246
   4535 C2'        11.2670   23.8940   57.9140 C.3     142   C74       0.0670
   4536 O2'        11.5390   25.2800   57.9120 O.3     142   C74      -0.6139
   4537 C1'        10.4850   23.5200   56.6570 C.3     142   C74       0.0066
   4538 N1          9.4830   22.4210   56.8610 N.am    142   C74      -0.0484
   4539 C2          8.2880   22.6920   57.5390 C.2     142   C74       0.7538
   4540 O2          8.0770   23.8350   57.9650 O.2     142   C74      -0.6252
   4541 N3          7.3840   21.6960   57.7100 N.2     142   C74      -0.7584
   4542 C4          7.6380   20.4750   57.2430 C.2     142   C74       0.8185
   4543 N4          6.7140   19.5290   57.4440 N.pl3   142   C74      -0.9530
   4544 C5          8.8490   20.1740   56.5500 C.2     142   C74      -0.5215
   4545 C6          9.7320   21.1670   56.3840 C.2     142   C74       0.0053
   4546 H5'        13.6964   22.2922   54.5538 H       142   C74       0.0679
   4547 H5''       14.6536   22.2144   56.0528 H       142   C74       0.0679
   4548 H4'        13.1870   24.1995   56.0409 H       142   C74       0.1174
   4549 H3'        12.3656   22.0259   58.0169 H       142   C74       0.0615
   4550 H2'        10.7253   23.6023   58.8138 H       142   C74       0.0972
   4551 H1'         9.9638   24.4054   56.2929 H       142   C74       0.2029
   4552 H5          9.0460   19.1813   56.1731 H       142   C74       0.1928
   4553 H6         10.6578   20.9719   55.8633 H       142   C74       0.1958
   4554 H41         5.8605   19.7530   57.9353 H       142   C74       0.4234
   4555 H42         6.8698   18.5906   57.1045 H       142   C74       0.4234
   4556 HO2'       11.0941   25.6949   58.6546 H       142   C74       0.4186
   4557 P          14.1500   22.8970   59.8170 P.3     143   A75       1.1662
   4558 OP1        15.4440   23.5170   60.1770 O.co2   143   A75      -0.7760
   4559 OP2        14.0670   21.4330   59.6250 O.co2   143   A75      -0.7760
   4560 O5'        13.0480   23.2870   60.9100 O.3     143   A75      -0.4989
   4561 C5'        12.7840   24.6510   61.2260 C.3     143   A75       0.0558
   4562 C4'        11.4310   24.7890   61.9010 C.3     143   A75       0.1065
   4563 O4'        10.3760   24.4170   60.9800 O.3     143   A75      -0.3548
   4564 C3'        11.1810   23.8590   63.0780 C.3     143   A75       0.2022
   4565 O3'        11.8470   24.3160   64.2490 O.3     143   A75      -0.5246
   4566 C2'         9.6640   23.9770   63.1910 C.3     143   A75       0.0670
   4567 O2'         9.2520   25.1950   63.7840 O.3     143   A75      -0.6139
   4568 C1'         9.2600   23.9510   61.7200 C.3     143   A75       0.0394
   4569 N9          8.8920   22.6130   61.2650 N.ar    143   A75      -0.0251
   4570 C8          9.6330   21.7600   60.4940 C.ar    143   A75       0.2006
   4571 N7          9.0360   20.6170   60.2490 N.ar    143   A75      -0.6073
   4572 C5          7.8210   20.7260   60.9070 C.ar    143   A75       0.0515
   4573 C6          6.7240   19.8480   61.0420 C.ar    143   A75       0.7009
   4574 N6          6.6750   18.6310   60.4880 N.pl3   143   A75      -0.9019
   4575 N1          5.6690   20.2740   61.7700 N.ar    143   A75      -0.7615
   4576 C2          5.7130   21.4890   62.3260 C.ar    143   A75       0.5875
   4577 N3          6.6850   22.3970   62.2710 N.ar    143   A75      -0.6997
   4578 C4          7.7190   21.9500   61.5390 C.ar    143   A75       0.3053
   4579 H5'        13.5590   25.0198   61.8979 H       143   A75       0.0679
   4580 H5''       12.7912   25.2410   60.3095 H       143   A75       0.0679
   4581 H4'        11.2878   25.8219   62.2183 H       143   A75       0.1174
   4582 H3'        11.4751   22.8376   62.8364 H       143   A75       0.0615
   4583 H2'         9.2459   23.1234   63.7245 H       143   A75       0.0972
   4584 H1'         8.4189   24.6270   61.5662 H       143   A75       0.2007
   4585 H8         10.6170   22.0041   60.1218 H       143   A75       0.1553
   4586 H2          4.8415   21.7724   62.8975 H       143   A75       0.0473
   4587 HO2'        8.5300   25.0264   64.3939 H       143   A75       0.4186
   4588 H61         5.6779   18.4820   60.4277 H       143   A75       0.4115
   4589 H62         7.4317   18.0244   60.2060 H       143   A75       0.4115
   4590 P          12.2150   23.2810   65.4150 P.3     144   G76       1.1662
   4591 OP1        13.0140   24.0100   66.4230 O.co2   144   G76      -0.7760
   4592 OP2        12.7630   22.0600   64.7860 O.co2   144   G76      -0.7760
   4593 O5'        10.7920   22.9120   66.0470 O.3     144   G76      -0.4989
   4594 C5'        10.0680   23.8830   66.7980 C.3     144   G76       0.0558
   4595 C4'         8.6720   23.3800   67.1210 C.3     144   G76       0.1065
   4596 O4'         8.0110   22.9460   65.9070 O.3     144   G76      -0.3548
   4597 C3'         8.6210   22.1540   68.0180 C.3     144   G76       0.2022
   4598 O3'         8.7600   22.5370   69.3830 O.3     144   G76      -0.5246
   4599 C2'         7.2240   21.6250   67.7070 C.3     144   G76       0.0670
   4600 O2'         6.2130   22.3090   68.4220 O.3     144   G76      -0.6139
   4601 C1'         7.0990   21.9050   66.2100 C.3     144   G76       0.0191
   4602 N9          7.4150   20.7510   65.3700 N.ar    144   G76       0.0492
   4603 C8          8.5590   20.5550   64.6330 C.ar    144   G76       0.1374
   4604 N7          8.5700   19.4270   63.9790 N.ar    144   G76      -0.5709
   4605 C5          7.3560   18.8330   64.3010 C.ar    144   G76       0.1744
   4606 C6          6.8090   17.5920   63.8910 C.2     144   G76       0.4770
   4607 O6          7.3000   16.7390   63.1350 O.2     144   G76      -0.5597
   4608 N1          5.5500   17.3750   64.4460 N.am    144   G76      -0.4787
   4609 C2          4.9070   18.2360   65.3000 C.2     144   G76       0.7657
   4610 N2          3.7010   17.8370   65.7310 N.pl3   144   G76      -0.9672
   4611 N3          5.4080   19.4030   65.6960 N.2     144   G76      -0.6323
   4612 C4          6.6310   19.6360   65.1570 C.ar    144   G76       0.1222
   4613 H5'        10.5995   24.0850   67.7280 H       144   G76       0.0679
   4614 H5''        9.9937   24.8034   66.2189 H       144   G76       0.0679
   4615 H4'         8.0955   24.1847   67.5773 H       144   G76       0.1174
   4616 H3'         9.3853   21.4302   67.7350 H       144   G76       0.0615
   4617 H2'         7.1699   20.5537   67.9006 H       144   G76       0.0972
   4618 H1'         6.0854   22.2411   65.9913 H       144   G76       0.2006
   4619 H8          9.3705   21.2669   64.5990 H       144   G76       0.1640
   4620 H1          5.0738   16.5186   64.2013 H       144   G76       0.3424
   4621 H21         3.3235   16.9512   65.4262 H       144   G76       0.4364
   4622 H22         3.1705   18.4224   66.3603 H       144   G76       0.4364
   4623 HO2'        6.3031   22.1246   69.3598 H       144   G76       0.4186
   4624 P           9.7210   21.7030   70.3580 P.3     145   C77       1.1662
   4625 OP1         9.6880   22.3480   71.6910 O.co2   145   C77      -0.7760
   4626 OP2        11.0190   21.5040   69.6740 O.co2   145   C77      -0.7760
   4627 O5'         8.9690   20.2940   70.4660 O.3     145   C77      -0.4989
   4628 C5'         7.6820   20.2290   71.0740 C.3     145   C77       0.0558
   4629 C4'         6.9940   18.9270   70.7120 C.3     145   C77       0.1065
   4630 O4'         6.7790   18.8620   69.2780 O.3     145   C77      -0.3548
   4631 C3'         7.8100   17.6840   71.0260 C.3     145   C77       0.2022
   4632 O3'         7.6610   17.3340   72.4010 O.3     145   C77      -0.5246
   4633 C2'         7.1870   16.6680   70.0730 C.3     145   C77       0.0670
   4634 O2'         5.9730   16.1280   70.5580 O.3     145   C77      -0.6139
   4635 C1'         6.9210   17.5250   68.8350 C.3     145   C77       0.0066
   4636 N1          8.0260   17.4590   67.8300 N.am    145   C77      -0.0484
   4637 C2          8.0500   16.4140   66.8990 C.2     145   C77       0.7538
   4638 O2          7.1470   15.5690   66.9140 O.2     145   C77      -0.6252
   4639 N3          9.0660   16.3570   66.0020 N.2     145   C77      -0.7584
   4640 C4         10.0220   17.2880   66.0110 C.2     145   C77       0.8185
   4641 N4         11.0000   17.1910   65.1030 N.pl3   145   C77      -0.9530
   4642 C5         10.0170   18.3570   66.9550 C.2     145   C77      -0.5215
   4643 C6          9.0130   18.4030   67.8360 C.2     145   C77       0.0053
   4644 H5'         7.0764   21.0650   70.7239 H       145   C77       0.0679
   4645 H5''        7.7909   20.2908   72.1568 H       145   C77       0.0679
   4646 H4'         6.0341   18.8695   71.2253 H       145   C77       0.1174
   4647 H3'         8.8605   17.8436   70.7828 H       145   C77       0.0615
   4648 H2'         7.8960   15.8725   69.8436 H       145   C77       0.0972
   4649 H1'         5.9911   17.2012   68.3676 H       145   C77       0.2029
   4650 H5         10.7975   19.1035   66.9579 H       145   C77       0.1928
   4651 H6          8.9817   19.1996   68.5645 H       145   C77       0.1958
   4652 H41        10.9982   16.4307   64.4381 H       145   C77       0.4234
   4653 H42        11.7400   17.8780   65.0825 H       145   C77       0.4234
   4654 HO2'        6.1485   15.5917   71.3347 H       145   C77       0.4186
   4655 P           8.8860   16.6820   73.1960 P.3     146   G78       1.1662
   4656 OP1         9.1350   15.3430   72.6080 O.co2   146   G78      -0.7760
   4657 OP2         8.6070   16.8090   74.6420 O.co2   146   G78      -0.7760
   4658 O5'        10.1160   17.6440   72.8350 O.3     146   G78      -0.4989
   4659 C5'        11.3260   17.5740   73.5910 C.3     146   G78       0.0558
   4660 C4'        12.5680   17.6940   72.7190 C.3     146   G78       0.1065
   4661 O4'        12.6440   16.5750   71.7950 O.3     146   G78      -0.3548
   4662 C3'        12.6630   18.9520   71.8570 C.3     146   G78       0.2022
   4663 O3'        14.0280   19.3400   71.7090 O.3     146   G78      -0.5246
   4664 C2'        12.1000   18.4610   70.5280 C.3     146   G78       0.0670
   4665 O2'        12.5430   19.2350   69.4320 O.3     146   G78      -0.6139
   4666 C1'        12.7110   17.0660   70.4710 C.3     146   G78       0.0191
   4667 N9         11.9980   16.1470   69.5910 N.ar    146   G78       0.0492
   4668 C8         10.7990   15.5240   69.8430 C.ar    146   G78       0.1374
   4669 N7         10.3990   14.7540   68.8700 N.ar    146   G78      -0.5709
   4670 C5         11.3990   14.8710   67.9120 C.ar    146   G78       0.1744
   4671 C6         11.5170   14.2660   66.6370 C.2     146   G78       0.4770
   4672 O6         10.7330   13.4790   66.0890 O.2     146   G78      -0.5597
   4673 N1         12.6850   14.6560   65.9840 N.am    146   G78      -0.4787
   4674 C2         13.6220   15.5200   66.4970 C.2     146   G78       0.7657
   4675 N2         14.6850   15.7740   65.7180 N.pl3   146   G78      -0.9672
   4676 N3         13.5250   16.0930   67.6910 N.2     146   G78      -0.6323
   4677 C4         12.3920   15.7250   68.3400 C.ar    146   G78       0.1222
   4678 H5'        11.3568   16.6175   74.1127 H       146   G78       0.0679
   4679 H5''       11.3308   18.3785   74.3264 H       146   G78       0.0679
   4680 H4'        13.4434   17.6594   73.3676 H       146   G78       0.1174
   4681 H3'        12.0615   19.7625   72.2686 H       146   G78       0.0615
   4682 H2'        11.0116   18.4111   70.5580 H       146   G78       0.0972
   4683 H1'        13.7532   17.1359   70.1594 H       146   G78       0.2006
   4684 H8         10.2422   15.6593   70.7584 H       146   G78       0.1640
   4685 H1         12.8554   14.2747   65.0644 H       146   G78       0.3424
   4686 H21        14.7612   15.3386   64.8099 H       146   G78       0.4364
   4687 H22        15.4088   16.4006   66.0399 H       146   G78       0.4364
   4688 HO2'       11.9918   20.0165   69.3479 H       146   G78       0.4186
   4689 P          14.6390   20.5630   72.5430 P.3     147   U79       1.1662
   4690 OP1        13.5410   21.4970   72.8800 O.co2   147   U79      -0.7760
   4691 OP2        15.8400   21.0540   71.8310 O.co2   147   U79      -0.7760
   4692 O5'        15.1420   19.8470   73.8770 O.3     147   U79      -0.4989
   4693 C5'        16.0540   18.7660   73.7750 C.3     147   U79       0.0558
   4694 C4'        16.4130   18.2590   75.1550 C.3     147   U79       0.1065
   4695 O4'        17.0230   19.3330   75.9100 O.3     147   U79      -0.3548
   4696 C3'        15.2360   17.7650   75.9850 C.3     147   U79       0.2022
   4697 O3'        15.6080   16.5690   76.6720 O.3     147   U79      -0.5246
   4698 C2'        14.9530   18.9260   76.9380 C.3     147   U79       0.0670
   4699 O2'        14.4360   18.4690   78.1710 O.3     147   U79      -0.6139
   4700 C1'        16.3440   19.5210   77.1330 C.3     147   U79       0.0674
   4701 N1         16.4020   20.9850   77.4320 N.am    147   U79       0.0418
   4702 C2         16.4660   21.4240   78.7400 C.2     147   U79       0.4687
   4703 O2         16.4530   20.6790   79.7040 O.2     147   U79      -0.5477
   4704 N3         16.5350   22.7880   78.8860 N.am    147   U79      -0.3549
   4705 C4         16.5560   23.7370   77.8780 C.2     147   U79       0.5952
   4706 O4         16.6190   24.9290   78.1630 O.2     147   U79      -0.5761
   4707 C5         16.4990   23.2020   76.5440 C.2     147   U79      -0.3635
   4708 C6         16.4320   21.8760   76.3780 C.2     147   U79      -0.1126
   4709 H5'        15.5953   17.9598   73.2025 H       147   U79       0.0679
   4710 H5''       16.9578   19.1019   73.2666 H       147   U79       0.0679
   4711 H4'        17.1347   17.4484   75.0535 H       147   U79       0.1174
   4712 H3'        14.3726   17.5812   75.3455 H       147   U79       0.0615
   4713 H2'        14.2807   19.6509   76.4791 H       147   U79       0.0972
   4714 H1'        16.8623   18.9728   77.9197 H       147   U79       0.1824
   4715 H3         16.5748   23.1372   79.8329 H       147   U79       0.3154
   4716 H5         16.5101   23.8612   75.6886 H       147   U79       0.1811
   4717 H6         16.3999   21.4843   75.3720 H       147   U79       0.2188
   4718 HO2'       15.0520   18.6825   78.8757 H       147   U79       0.4186
   4719 P          15.7820   15.1940   75.8630 P.3     148   A80       1.1662
   4720 OP1        16.3360   14.1860   76.7950 O.co2   148   A80      -0.7760
   4721 OP2        16.4880   15.4780   74.5930 O.co2   148   A80      -0.7760
   4722 O5'        14.2730   14.8000   75.4960 O.3     148   A80      -0.4989
   4723 C5'        13.2850   14.7110   76.5130 C.3     148   A80       0.0558
   4724 C4'        12.1400   13.8090   76.0880 C.3     148   A80       0.1065
   4725 O4'        11.5850   14.2410   74.8200 O.3     148   A80      -0.3548
   4726 C3'        12.5050   12.3600   75.8190 C.3     148   A80       0.2022
   4727 O3'        12.6900   11.6580   77.0390 O.3     148   A80      -0.5246
   4728 C2'        11.2480   11.9160   75.0830 C.3     148   A80       0.0670
   4729 O2'        10.1480   11.7370   75.9540 O.3     148   A80      -0.6139
   4730 C1'        10.9980   13.1220   74.1800 C.3     148   A80       0.0394
   4731 N9         11.5780   12.9820   72.8450 N.ar    148   A80      -0.0251
   4732 C8         12.6270   13.6850   72.3220 C.ar    148   A80       0.2006
   4733 N7         12.9350   13.3460   71.0930 N.ar    148   A80      -0.6073
   4734 C5         12.0260   12.3480   70.7880 C.ar    148   A80       0.0515
   4735 C6         11.8220   11.5750   69.6310 C.ar    148   A80       0.7009
   4736 N6         12.5630   11.6960   68.5240 N.pl3   148   A80      -0.9019
   4737 N1         10.8280   10.6640   69.6560 N.ar    148   A80      -0.7615
   4738 C2         10.0900   10.5420   70.7650 C.ar    148   A80       0.5875
   4739 N3         10.1840   11.2130   71.9110 N.ar    148   A80      -0.6997
   4740 C4         11.1820   12.1090   71.8570 C.ar    148   A80       0.3053
   4741 H5'        12.8950   15.7080   76.7179 H       148   A80       0.0679
   4742 H5''       13.7390   14.3106   77.4195 H       148   A80       0.0679
   4743 H4'        11.3593   13.8437   76.8479 H       148   A80       0.1174
   4744 H3'        13.3855   12.2848   75.1809 H       148   A80       0.0615
   4745 H2'        11.4339   11.0171   74.4952 H       148   A80       0.0972
   4746 H1'         9.9240   13.2844   74.0886 H       148   A80       0.2007
   4747 H8         13.1547   14.4507   72.8713 H       148   A80       0.1553
   4748 H2          9.3101    9.7960   70.7252 H       148   A80       0.0473
   4749 H61        11.9057   11.3437   67.8429 H       148   A80       0.4115
   4750 H62        13.5052   12.0395   68.4042 H       148   A80       0.4115
   4751 HO2'        9.3523   11.5887   75.4379 H       148   A80       0.4186
   4752 P          13.7880   10.4970   77.1380 P.3     149   G81       1.1662
   4753 OP1        14.0020   10.2000   78.5710 O.co2   149   G81      -0.7760
   4754 OP2        14.9380   10.8740   76.2830 O.co2   149   G81      -0.7760
   4755 O5'        13.0570    9.2490   76.4580 O.3     149   G81      -0.4989
   4756 C5'        11.8160    8.7770   76.9670 C.3     149   G81       0.0558
   4757 C4'        11.2440    7.7010   76.0630 C.3     149   G81       0.1065
   4758 O4'        10.8020    8.3050   74.8230 O.3     149   G81      -0.3548
   4759 C3'        12.2350    6.6240   75.6470 C.3     149   G81       0.2022
   4760 O3'        12.2190    5.5660   76.5890 O.3     149   G81      -0.5246
   4761 C2'        11.6910    6.1710   74.2980 C.3     149   G81       0.0670
   4762 O2'        10.6630    5.2060   74.4170 O.3     149   G81      -0.6139
   4763 C1'        11.1300    7.4680   73.7290 C.3     149   G81       0.0191
   4764 N9         12.0540    8.1760   72.8430 N.ar    149   G81       0.0492
   4765 C8         12.8010    9.2930   73.1360 C.ar    149   G81       0.1374
   4766 N7         13.5280    9.7100   72.1370 N.ar    149   G81      -0.5709
   4767 C5         13.2440    8.8140   71.1140 C.ar    149   G81       0.1744
   4768 C6         13.7350    8.7590   69.7880 C.2     149   G81       0.4770
   4769 O6         14.5470    9.5210   69.2450 O.2     149   G81      -0.5597
   4770 N1         13.1910    7.6880   69.0760 N.am    149   G81      -0.4787
   4771 C2         12.2840    6.7860   69.5880 C.2     149   G81       0.7657
   4772 N2         11.8680    5.8150   68.7620 N.pl3   149   G81      -0.9672
   4773 N3         11.8200    6.8280   70.8300 N.2     149   G81      -0.6323
   4774 C4         12.3390    7.8640   71.5320 C.ar    149   G81       0.1222
   4775 H5'        11.1129    9.6079   77.0243 H       149   G81       0.0679
   4776 H5''       11.9691    8.3653   77.9646 H       149   G81       0.0679
   4777 H4'        10.3926    7.2330   76.5572 H       149   G81       0.1174
   4778 H3'        13.2382    7.0374   75.5431 H       149   G81       0.0615
   4779 H2'        12.4970    5.7947   73.6680 H       149   G81       0.0972
   4780 H1'        10.2185    7.2420   73.1756 H       149   G81       0.2006
   4781 H8         12.7868    9.7782   74.1008 H       149   G81       0.1640
   4782 H1         13.4833    7.5658   68.1170 H       149   G81       0.3424
   4783 H21        12.2175    5.7732   67.8153 H       149   G81       0.4364
   4784 H22        11.2052    5.1255   69.0866 H       149   G81       0.4364
   4785 HO2'       11.0519    4.3330   74.5073 H       149   G81       0.4186
   4786 P          13.4820    4.5960   76.7250 P.3     150   G82       1.1662
   4787 OP1        13.2700    3.7410   77.9140 O.co2   150   G82      -0.7760
   4788 OP2        14.7090    5.4190   76.6150 O.co2   150   G82      -0.7760
   4789 O5'        13.3690    3.6840   75.4140 O.3     150   G82      -0.4989
   4790 C5'        14.5330    3.3120   74.6860 C.3     150   G82       0.0558
   4791 C4'        14.1540    2.8840   73.2790 C.3     150   G82       0.1065
   4792 O4'        13.6520    4.0260   72.5410 O.3     150   G82      -0.3548
   4793 C3'        15.3050    2.3630   72.4350 C.3     150   G82       0.2022
   4794 O3'        15.5160    0.9810   72.6830 O.3     150   G82      -0.5246
   4795 C2'        14.7910    2.6110   71.0220 C.3     150   G82       0.0670
   4796 O2'        13.8930    1.6110   70.5820 O.3     150   G82      -0.6139
   4797 C1'        14.0650    3.9420   71.1880 C.3     150   G82       0.0191
   4798 N9         14.9080    5.0940   70.8760 N.ar    150   G82       0.0492
   4799 C8         15.2810    6.1080   71.7240 C.ar    150   G82       0.1374
   4800 N7         16.0410    7.0040   71.1570 N.ar    150   G82      -0.5709
   4801 C5         16.1790    6.5570   69.8490 C.ar    150   G82       0.1744
   4802 C6         16.8910    7.1190   68.7600 C.2     150   G82       0.4770
   4803 O6         17.5640    8.1590   68.7380 O.2     150   G82      -0.5597
   4804 N1         16.7700    6.3450   67.6080 N.am    150   G82      -0.4787
   4805 C2         16.0530    5.1750   67.5200 C.2     150   G82       0.7657
   4806 N2         16.0520    4.5620   66.3280 N.pl3   150   G82      -0.9672
   4807 N3         15.3780    4.6420   68.5310 N.2     150   G82      -0.6323
   4808 C4         15.4880    5.3820   69.6610 C.ar    150   G82       0.1222
   4809 H5'        15.2123    4.1628   74.6332 H       150   G82       0.0679
   4810 H5''       15.0284    2.4848   75.1944 H       150   G82       0.0679
   4811 H4'        13.3761    2.1224   73.3334 H       150   G82       0.1174
   4812 H3'        16.2140    2.9343   72.6232 H       150   G82       0.0615
   4813 H2'        15.6224    2.7128   70.3245 H       150   G82       0.0972
   4814 H1'        13.1865    3.9547   70.5429 H       150   G82       0.2006
   4815 H8         14.9752    6.1586   72.7586 H       150   G82       0.1640
   4816 H1         17.2438    6.6670   66.7762 H       150   G82       0.3424
   4817 H21        16.5622    4.9625   65.5538 H       150   G82       0.4364
   4818 H22        15.5411    3.6996   66.2040 H       150   G82       0.4364
   4819 HO2'       14.3629    0.7799   70.4820 H       150   G82       0.4186
   4820 P          17.0070    0.4060   72.7010 P.3     151   G83       1.1662
   4821 OP1        16.9300   -1.0730   72.7140 O.co2   151   G83      -0.7760
   4822 OP2        17.7630    1.1180   73.7560 O.co2   151   G83      -0.7760
   4823 O5'        17.5860    0.8830   71.2890 O.3     151   G83      -0.4989
   4824 C5'        17.2270    0.2050   70.0920 C.3     151   G83       0.0558
   4825 C4'        17.9300    0.8520   68.9160 C.3     151   G83       0.1065
   4826 O4'        17.5170    2.2380   68.8180 O.3     151   G83      -0.3548
   4827 C3'        19.4420    0.9270   69.0580 C.3     151   G83       0.2022
   4828 O3'        20.0390   -0.2900   68.6340 O.3     151   G83      -0.5246
   4829 C2'        19.7770    2.0900   68.1330 C.3     151   G83       0.0670
   4830 O2'        19.7690    1.7090   66.7720 O.3     151   G83      -0.6139
   4831 C1'        18.6150    3.0360   68.4120 C.3     151   G83       0.0191
   4832 N9         18.8820    4.0260   69.4540 N.ar    151   G83       0.0492
   4833 C8         18.5670    3.9280   70.7880 C.ar    151   G83       0.1374
   4834 N7         18.9210    4.9730   71.4830 N.ar    151   G83      -0.5709
   4835 C5         19.5090    5.8200   70.5520 C.ar    151   G83       0.1744
   4836 C6         20.0800    7.1050   70.7210 C.2     151   G83       0.4770
   4837 O6         20.1830    7.7700   71.7620 O.2     151   G83      -0.5597
   4838 N1         20.5630    7.6170   69.5170 N.am    151   G83      -0.4787
   4839 C2         20.5000    6.9690   68.3050 C.2     151   G83       0.7657
   4840 N2         21.0180    7.6220   67.2540 N.pl3   151   G83      -0.9672
   4841 N3         19.9660    5.7660   68.1340 N.2     151   G83      -0.6323
   4842 C4         19.4920    5.2520   69.2970 C.ar    151   G83       0.1222
   4843 H5'        16.1482    0.2665   69.9491 H       151   G83       0.0679
   4844 H5''       17.5252   -0.8410   70.1632 H       151   G83       0.0679
   4845 H4'        17.6721    0.3250   67.9974 H       151   G83       0.1174
   4846 H3'        19.7226    1.1575   70.0857 H       151   G83       0.0615
   4847 H2'        20.7282    2.5466   68.4064 H       151   G83       0.0972
   4848 H1'        18.3528    3.5552   67.4901 H       151   G83       0.2006
   4849 H8         18.0742    3.0690   71.2189 H       151   G83       0.1640
   4850 H1         20.9909    8.5317   69.5363 H       151   G83       0.3424
   4851 H21        21.4251    8.5378   67.3791 H       151   G83       0.4364
   4852 H22        21.0009    7.1979   66.3375 H       151   G83       0.4364
   4853 HO2'       20.5155    1.1312   66.5973 H       151   G83       0.4186
   4854 P          20.7490   -1.2330   69.7150 P.3     152   A84       1.1662
   4855 OP1        19.8260   -2.3510   70.0180 O.co2   152   A84      -0.7760
   4856 OP2        21.2530   -0.3700   70.8090 O.co2   152   A84      -0.7760
   4857 O5'        22.0120   -1.8060   68.9200 O.3     152   A84      -0.4989
   4858 C5'        21.8140   -2.6580   67.7990 C.3     152   A84       0.0558
   4859 C4'        22.8740   -2.3890   66.7490 C.3     152   A84       0.1065
   4860 O4'        22.5520   -1.1630   66.0520 O.3     152   A84      -0.3548
   4861 C3'        24.2650   -2.1650   67.3150 C.3     152   A84       0.2022
   4862 O3'        24.9320   -3.4190   67.4160 O.3     152   A84      -0.5246
   4863 C2'        24.9200   -1.2430   66.2880 C.3     152   A84       0.0670
   4864 O2'        25.6090   -1.9550   65.2760 O.3     152   A84      -0.6139
   4865 C1'        23.7380   -0.4800   65.6940 C.3     152   A84       0.0394
   4866 N9         23.6200    0.9010   66.1560 N.ar    152   A84      -0.0251
   4867 C8         23.3530    1.3280   67.4290 C.ar    152   A84       0.2006
   4868 N7         23.2930    2.6340   67.5490 N.ar    152   A84      -0.6073
   4869 C5         23.5330    3.0950   66.2650 C.ar    152   A84       0.0515
   4870 C6         23.6080    4.3920   65.7220 C.ar    152   A84       0.7009
   4871 N6         23.4360    5.5040   66.4440 N.pl3   152   A84      -0.9019
   4872 N1         23.8660    4.5030   64.4030 N.ar    152   A84      -0.7615
   4873 C2         24.0410    3.3890   63.6820 C.ar    152   A84       0.5875
   4874 N3         23.9960    2.1180   64.0800 N.ar    152   A84      -0.6997
   4875 C4         23.7350    2.0400   65.3940 C.ar    152   A84       0.3053
   4876 H5'        21.8798   -3.6976   68.1199 H       152   A84       0.0679
   4877 H5''       20.8278   -2.4725   67.3733 H       152   A84       0.0679
   4878 H4'        22.8995   -3.2151   66.0384 H       152   A84       0.1174
   4879 H3'        24.2103   -1.6787   68.2890 H       152   A84       0.0615
   4880 H2'        25.5990   -0.5511   66.7864 H       152   A84       0.0972
   4881 H1'        23.8295   -0.4805   64.6079 H       152   A84       0.2007
   4882 H8         23.2053    0.6524   68.2586 H       152   A84       0.1553
   4883 H2         24.2471    3.5412   62.6328 H       152   A84       0.0473
   4884 HO2'       26.4939   -2.1689   65.5805 H       152   A84       0.4186
   4885 H61        23.6030    5.2413   67.4048 H       152   A84       0.4115
   4886 H62        23.1892    6.4205   66.0987 H       152   A84       0.4115
   4887 P          26.2880   -3.5400   68.2530 P.3     153   A85       1.1662
   4888 OP1        26.8720   -4.8730   67.9820 O.co2   153   A85      -0.7760
   4889 OP2        26.0120   -3.1170   69.6440 O.co2   153   A85      -0.7760
   4890 O5'        27.1990   -2.4240   67.5570 O.3     153   A85      -0.4989
   4891 C5'        28.0150   -1.5740   68.3420 C.3     153   A85       0.0558
   4892 C4'        29.3330   -2.2660   68.6250 C.3     153   A85       0.1065
   4893 O4'        30.1350   -2.3180   67.4160 O.3     153   A85      -0.3548
   4894 C3'        30.1980   -1.5890   69.6790 C.3     153   A85       0.2022
   4895 O3'        30.8340   -2.6060   70.4370 O.3     153   A85      -0.5246
   4896 C2'        31.1920   -0.8090   68.8250 C.3     153   A85       0.0670
   4897 O2'        32.3990   -0.5320   69.5050 O.3     153   A85      -0.6139
   4898 C1'        31.4240   -1.8200   67.7100 C.3     153   A85       0.0394
   4899 N9         32.0160   -1.2670   66.4940 N.ar    153   A85      -0.0251
   4900 C8         32.0280    0.0390   66.0910 C.ar    153   A85       0.2006
   4901 N7         32.6460    0.2340   64.9480 N.ar    153   A85      -0.6073
   4902 C5         33.0660   -1.0330   64.5750 C.ar    153   A85       0.0515
   4903 C6         33.7760   -1.5130   63.4540 C.ar    153   A85       0.7009
   4904 N6         34.2070   -0.7340   62.4570 N.pl3   153   A85      -0.9019
   4905 N1         34.0250   -2.8380   63.3940 N.ar    153   A85      -0.7615
   4906 C2         33.5950   -3.6260   64.3870 C.ar    153   A85       0.5875
   4907 N3         32.9170   -3.2910   65.4830 N.ar    153   A85      -0.6997
   4908 C4         32.6840   -1.9690   65.5180 C.ar    153   A85       0.3053
   4909 H5'        28.2000   -0.6459   67.8011 H       153   A85       0.0679
   4910 H5''       27.5109   -1.3527   69.2827 H       153   A85       0.0679
   4911 H4'        29.1267   -3.2862   68.9486 H       153   A85       0.1174
   4912 H3'        29.6097   -0.9262   70.3135 H       153   A85       0.0615
   4913 H2'        30.7423    0.1051   68.4373 H       153   A85       0.0972
   4914 H1'        32.0500   -2.6315   68.0811 H       153   A85       0.2007
   4915 H8         31.5720    0.8363   66.6591 H       153   A85       0.1553
   4916 H2         33.8297   -4.6753   64.2855 H       153   A85       0.0473
   4917 H61        34.5593   -1.3245   61.7172 H       153   A85       0.4115
   4918 H62        34.1842    0.2757   62.4454 H       153   A85       0.4115
   4919 HO2'       32.2742    0.2229   70.0848 H       153   A85       0.4186
   4920 P          31.1280   -2.4250   71.9990 P.3     154   G86       1.1662
   4921 OP1        30.5420   -3.5820   72.7120 O.co2   154   G86      -0.7760
   4922 OP2        30.7440   -1.0520   72.3960 O.co2   154   G86      -0.7760
   4923 O5'        32.7260   -2.5280   72.0180 O.3     154   G86      -0.4989
   4924 C5'        33.3620   -3.6810   72.5390 C.3     154   G86       0.0558
   4925 C4'        34.2300   -4.3970   71.5140 C.3     154   G86       0.1065
   4926 O4'        33.8300   -4.1510   70.1410 O.3     154   G86      -0.3548
   4927 C3'        35.6960   -4.0120   71.4550 C.3     154   G86       0.2022
   4928 O3'        36.3870   -4.3790   72.6410 O.3     154   G86      -0.5246
   4929 C2'        36.0750   -4.8790   70.2620 C.3     154   G86       0.0670
   4930 O2'        36.1080   -6.2540   70.5900 O.3     154   G86      -0.6139
   4931 C1'        34.9040   -4.5960   69.3210 C.3     154   G86       0.0191
   4932 N9         35.2340   -3.5770   68.3250 N.ar    154   G86       0.0492
   4933 C8         34.8600   -2.2560   68.3430 C.ar    154   G86       0.1374
   4934 N7         35.3070   -1.5730   67.3250 N.ar    154   G86      -0.5709
   4935 C5         36.0260   -2.5010   66.5840 C.ar    154   G86       0.1744
   4936 C6         36.7390   -2.3410   65.3700 C.2     154   G86       0.4770
   4937 O6         36.8780   -1.3160   64.6930 O.2     154   G86      -0.5597
   4938 N1         37.3310   -3.5320   64.9530 N.am    154   G86      -0.4787
   4939 C2         37.2470   -4.7250   65.6290 C.2     154   G86       0.7657
   4940 N2         37.8890   -5.7620   65.0700 N.pl3   154   G86      -0.9672
   4941 N3         36.5780   -4.8910   66.7670 N.2     154   G86      -0.6323
   4942 C4         35.9950   -3.7400   67.1880 C.ar    154   G86       0.1222
   4943 H5'        33.9907   -3.3815   73.3775 H       154   G86       0.0679
   4944 H5''       32.5996   -4.3717   72.8992 H       154   G86       0.0679
   4945 H4'        34.1658   -5.4688   71.7014 H       154   G86       0.1174
   4946 H3'        35.8209   -2.9522   71.2329 H       154   G86       0.0615
   4947 H2'        37.0194   -4.5556   69.8241 H       154   G86       0.0972
   4948 H1'        34.6155   -5.5172   68.8147 H       154   G86       0.2006
   4949 H8         34.2537   -1.8235   69.1251 H       154   G86       0.1640
   4950 H1         37.8594   -3.5168   64.0924 H       154   G86       0.3424
   4951 H21        38.3951   -5.6358   64.2051 H       154   G86       0.4364
   4952 H22        37.8662   -6.6688   65.5141 H       154   G86       0.4364
   4953 HO2'       37.0189   -6.5564   70.6122 H       154   G86       0.4186
   4954 P          37.6300   -3.5080   73.1570 P.3     155   U87       1.1662
   4955 OP1        37.8790   -3.8880   74.5660 O.co2   155   U87      -0.7760
   4956 OP2        37.3950   -2.0880   72.8110 O.co2   155   U87      -0.7760
   4957 O5'        38.8370   -4.0240   72.2460 O.3     155   U87      -0.4989
   4958 C5'        39.1940   -5.3980   72.2520 C.3     155   U87       0.0558
   4959 C4'        40.0630   -5.7220   71.0500 C.3     155   U87       0.1065
   4960 O4'        39.3190   -5.5060   69.8240 O.3     155   U87      -0.3548
   4961 C3'        41.2870   -4.8390   70.8780 C.3     155   U87       0.2022
   4962 O3'        42.3370   -5.2570   71.7320 O.3     155   U87      -0.5246
   4963 C2'        41.6100   -5.1150   69.4190 C.3     155   U87       0.0670
   4964 O2'        42.1950   -6.3920   69.2420 O.3     155   U87      -0.6139
   4965 C1'        40.2110   -5.0730   68.8110 C.3     155   U87       0.0674
   4966 N1         39.8090   -3.7110   68.3260 N.am    155   U87       0.0418
   4967 C2         40.3270   -3.2580   67.1300 C.2     155   U87       0.4687
   4968 O2         41.0950   -3.9130   66.4540 O.2     155   U87      -0.5477
   4969 N3         39.9140   -2.0090   66.7450 N.am    155   U87      -0.3549
   4970 C4         39.0470   -1.1790   67.4270 C.2     155   U87       0.5952
   4971 O4         38.7710   -0.0820   66.9520 O.2     155   U87      -0.5761
   4972 C5         38.5450   -1.7130   68.6690 C.2     155   U87      -0.3635
   4973 C6         38.9330   -2.9350   69.0610 C.2     155   U87      -0.1126
   4974 H5'        38.2891   -6.0046   72.2153 H       155   U87       0.0679
   4975 H5''       39.7433   -5.6242   73.1659 H       155   U87       0.0679
   4976 H4'        40.3758   -6.7648   71.1024 H       155   U87       0.1174
   4977 H3'        41.0424   -3.7888   71.0370 H       155   U87       0.0615
   4978 H2'        42.2431   -4.3318   69.0020 H       155   U87       0.0972
   4979 H1'        40.1663   -5.7733   67.9769 H       155   U87       0.1824
   4980 H3         40.2822   -1.6597   65.8718 H       155   U87       0.3154
   4981 H5         37.8642   -1.1351   69.2765 H       155   U87       0.1811
   4982 H6         38.5452   -3.3289   69.9888 H       155   U87       0.2188
   4983 HO2'       43.0730   -6.3989   69.6302 H       155   U87       0.4186
   4984 P          43.1970   -4.1680   72.5250 P.3     156   U88       1.1662
   4985 OP1        43.8960   -4.8640   73.6280 O.co2   156   U88      -0.7760
   4986 OP2        42.3090   -3.0190   72.8150 O.co2   156   U88      -0.7760
   4987 O5'        44.2700   -3.6840   71.4430 O.3     156   U88      -0.4989
   4988 C5'        45.1290   -4.6220   70.8050 C.3     156   U88       0.0558
   4989 C4'        45.5600   -4.0970   69.4500 C.3     156   U88       0.1065
   4990 O4'        44.3930   -3.8380   68.6330 O.3     156   U88      -0.3548
   4991 C3'        46.2890   -2.7640   69.4830 C.3     156   U88       0.2022
   4992 O3'        47.6620   -2.9680   69.7890 O.3     156   U88      -0.6541
   4993 C2'        46.0730   -2.2760   68.0520 C.3     156   U88       0.0670
   4994 O2'        46.9510   -2.8770   67.1200 O.3     156   U88      -0.6139
   4995 C1'        44.6400   -2.7310   67.7830 C.3     156   U88       0.0674
   4996 N1         43.6250   -1.6580   68.0370 N.am    156   U88       0.0418
   4997 C2         43.4470   -0.6750   67.0860 C.2     156   U88       0.4687
   4998 O2         44.0700   -0.6440   66.0380 O.2     156   U88      -0.5477
   4999 N3         42.5050    0.2730   67.3990 N.am    156   U88      -0.3549
   5000 C4         41.7390    0.3400   68.5500 C.2     156   U88       0.5952
   5001 O4         40.9320    1.2550   68.6910 O.2     156   U88      -0.5761
   5002 C5         41.9790   -0.7180   69.4980 C.2     156   U88      -0.3635
   5003 C6         42.8960   -1.6540   69.2120 C.2     156   U88      -0.1126
   5004 H5'        44.5985   -5.5651   70.6738 H       156   U88       0.0679
   5005 H5''       46.0097   -4.7861   71.4259 H       156   U88       0.0679
   5006 H4'        46.1878   -4.8399   68.9579 H       156   U88       0.1174
   5007 H3'        45.8270   -2.0852   70.1998 H       156   U88       0.0615
   5008 H2'        46.1461   -1.1896   68.0022 H       156   U88       0.0972
   5009 H1'        44.5602   -3.0560   66.7456 H       156   U88       0.1824
   5010 H3         42.3544    1.0008   66.7151 H       156   U88       0.3154
   5011 H5         41.4281   -0.7568   70.4261 H       156   U88       0.1811
   5012 H6         43.0730   -2.4397   69.9316 H       156   U88       0.2188
   5013 HO3'       48.1152   -2.1219   69.8080 H       156   U88       0.4376
   5014 HO2'       47.8497   -2.5876   67.2937 H       156   U88       0.4186
@<TRIPOS>BOND
     1    1    2 1
     2    2    3 1
     3    3    5 1
     4    3    4 1
     5    4    9 1
     6    5    7 1
     7    5    6 1
     8    7    9 1
     9    7    8 1
    10    9   10 1
    11   10   20 ar
    12   10   11 ar
    13   11   12 ar
    14   12   13 ar
    15   13   20 ar
    16   13   14 1
    17   14   15 2
    18   14   16 am
    19   16   17 1
    20   17   18 2
    21   17   19 2
    22   19   20 1
    23   33   35 1
    24   33   34 1
    25   33   36 1
    26   36   37 1
    27   37   38 1
    28   38   40 1
    29   38   39 1
    30   39   44 1
    31   40   42 1
    32   40   41 1
    33   42   43 1
    34   42   44 1
    35   44   45 1
    36   45   46 ar
    37   45   54 ar
    38   46   47 ar
    39   47   48 ar
    40   48   54 ar
    41   48   49 ar
    42   49   50 1
    43   49   51 ar
    44   51   52 ar
    45   52   53 ar
    46   53   54 ar
    47   33    6 1
    48   66   69 1
    49   66   68 1
    50   66   67 1
    51   69   70 1
    52   70   71 1
    53   71   73 1
    54   71   72 1
    55   72   77 1
    56   73   74 1
    57   73   75 1
    58   75   76 1
    59   75   77 1
    60   77   78 1
    61   78   85 1
    62   78   79 am
    63   79   80 2
    64   79   81 1
    65   81   82 2
    66   82   84 2
    67   82   83 2
    68   84   85 2
    69   41   66 1
    70   97  100 1
    71   97   98 1
    72   97   99 1
    73  100  101 1
    74  101  102 1
    75  102  104 1
    76  102  103 1
    77  103  108 1
    78  104  106 1
    79  104  105 1
    80  106  107 1
    81  106  108 1
    82  108  109 1
    83  109  110 am
    84  109  116 1
    85  110  111 2
    86  110  112 am
    87  112  113 am
    88  113  115 1
    89  113  114 2
    90  115  116 2
    91   74   97 1
    92  127  130 1
    93  127  129 1
    94  127  128 1
    95  130  131 1
    96  131  132 1
    97  132  134 1
    98  132  133 1
    99  133  138 1
   100  134  135 1
   101  134  136 1
   102  136  137 1
   103  136  138 1
   104  138  139 1
   105  139  146 1
   106  139  140 am
   107  140  141 2
   108  140  142 1
   109  142  143 2
   110  143  145 2
   111  143  144 2
   112  145  146 2
   113  105  127 1
   114  158  159 1
   115  158  160 1
   116  158  161 1
   117  161  162 1
   118  162  163 1
   119  163  165 1
   120  163  164 1
   121  164  169 1
   122  165  167 1
   123  165  166 1
   124  167  169 1
   125  167  168 1
   126  169  170 1
   127  170  180 ar
   128  170  171 ar
   129  171  172 ar
   130  172  173 ar
   131  173  180 ar
   132  173  174 1
   133  174  175 2
   134  174  176 am
   135  176  177 1
   136  177  178 2
   137  177  179 2
   138  179  180 1
   139  135  158 1
   140  192  193 1
   141  192  194 1
   142  192  195 1
   143  195  196 1
   144  196  197 1
   145  197  199 1
   146  197  198 1
   147  198  203 1
   148  199  201 1
   149  199  200 1
   150  201  203 1
   151  201  202 1
   152  203  204 1
   153  204  214 ar
   154  204  205 ar
   155  205  206 ar
   156  206  207 ar
   157  207  214 ar
   158  207  208 1
   159  208  209 2
   160  208  210 am
   161  210  211 1
   162  211  212 2
   163  211  213 2
   164  213  214 1
   165  166  192 1
   166  226  227 1
   167  226  228 1
   168  226  229 1
   169  229  230 1
   170  230  231 1
   171  231  233 1
   172  231  232 1
   173  232  237 1
   174  233  235 1
   175  233  234 1
   176  235  237 1
   177  235  236 1
   178  237  238 1
   179  238  248 ar
   180  238  239 ar
   181  239  240 ar
   182  240  241 ar
   183  241  248 ar
   184  241  242 1
   185  242  243 2
   186  242  244 am
   187  244  245 1
   188  245  246 2
   189  245  247 2
   190  247  248 1
   191  200  226 1
   192  260  261 1
   193  260  262 1
   194  260  263 1
   195  263  264 1
   196  264  265 1
   197  265  267 1
   198  265  266 1
   199  266  271 1
   200  267  269 1
   201  267  268 1
   202  269  271 1
   203  269  270 1
   204  271  272 1
   205  272  282 ar
   206  272  273 ar
   207  273  274 ar
   208  274  275 ar
   209  275  282 ar
   210  275  276 1
   211  276  277 2
   212  276  278 am
   213  278  279 1
   214  279  280 2
   215  279  281 2
   216  281  282 1
   217  234  260 1
   218  294  297 1
   219  294  295 1
   220  294  296 1
   221  297  298 1
   222  298  299 1
   223  299  301 1
   224  299  300 1
   225  300  305 1
   226  301  303 1
   227  301  302 1
   228  303  304 1
   229  303  305 1
   230  305  306 1
   231  306  307 am
   232  306  313 1
   233  307  308 2
   234  307  309 am
   235  309  310 am
   236  310  312 1
   237  310  311 2
   238  312  313 2
   239  268  294 1
   240  324  325 1
   241  324  326 1
   242  324  327 1
   243  327  328 1
   244  328  329 1
   245  329  331 1
   246  329  330 1
   247  330  335 1
   248  331  333 1
   249  331  332 1
   250  333  335 1
   251  333  334 1
   252  335  336 1
   253  336  346 ar
   254  336  337 ar
   255  337  338 ar
   256  338  339 ar
   257  339  346 ar
   258  339  340 1
   259  340  341 2
   260  340  342 am
   261  342  343 1
   262  343  344 2
   263  343  345 2
   264  345  346 1
   265  302  324 1
   266  358  361 1
   267  358  360 1
   268  358  359 1
   269  361  362 1
   270  362  363 1
   271  363  365 1
   272  363  364 1
   273  364  369 1
   274  365  366 1
   275  365  367 1
   276  367  368 1
   277  367  369 1
   278  369  370 1
   279  370  377 1
   280  370  371 am
   281  371  372 2
   282  371  373 1
   283  373  374 2
   284  374  376 2
   285  374  375 2
   286  376  377 2
   287  332  358 1
   288  389  392 1
   289  389  391 1
   290  389  390 1
   291  392  393 1
   292  393  394 1
   293  394  396 1
   294  394  395 1
   295  395  400 1
   296  396  397 1
   297  396  398 1
   298  398  399 1
   299  398  400 1
   300  400  401 1
   301  401  408 1
   302  401  402 am
   303  402  403 2
   304  402  404 1
   305  404  405 2
   306  405  407 2
   307  405  406 2
   308  407  408 2
   309  366  389 1
   310  420  423 1
   311  420  422 1
   312  420  421 1
   313  423  424 1
   314  424  425 1
   315  425  427 1
   316  425  426 1
   317  426  431 1
   318  427  428 1
   319  427  429 1
   320  429  430 1
   321  429  431 1
   322  431  432 1
   323  432  439 1
   324  432  433 am
   325  433  434 2
   326  433  435 1
   327  435  436 2
   328  436  438 2
   329  436  437 2
   330  438  439 2
   331  397  420 1
   332  451  454 1
   333  451  452 1
   334  451  453 1
   335  454  455 1
   336  455  456 1
   337  456  458 1
   338  456  457 1
   339  457  462 1
   340  458  460 1
   341  458  459 1
   342  460  461 1
   343  460  462 1
   344  462  463 1
   345  463  464 am
   346  463  470 1
   347  464  465 2
   348  464  466 am
   349  466  467 am
   350  467  469 1
   351  467  468 2
   352  469  470 2
   353  428  451 1
   354  481  484 1
   355  481  482 1
   356  481  483 1
   357  484  485 1
   358  485  486 1
   359  486  488 1
   360  486  487 1
   361  487  492 1
   362  488  490 1
   363  488  489 1
   364  490  491 1
   365  490  492 1
   366  492  493 1
   367  493  494 am
   368  493  500 1
   369  494  495 2
   370  494  496 am
   371  496  497 am
   372  497  499 1
   373  497  498 2
   374  499  500 2
   375  459  481 1
   376  511  514 1
   377  511  513 1
   378  511  512 1
   379  514  515 1
   380  515  516 1
   381  516  518 1
   382  516  517 1
   383  517  522 1
   384  518  519 1
   385  518  520 1
   386  520  521 1
   387  520  522 1
   388  522  523 1
   389  523  530 1
   390  523  524 am
   391  524  525 2
   392  524  526 1
   393  526  527 2
   394  527  529 2
   395  527  528 2
   396  529  530 2
   397  489  511 1
   398  542  545 1
   399  542  543 1
   400  542  544 1
   401  545  546 1
   402  546  547 1
   403  547  549 1
   404  547  548 1
   405  548  553 1
   406  549  551 1
   407  549  550 1
   408  551  552 1
   409  551  553 1
   410  553  554 1
   411  554  555 am
   412  554  561 1
   413  555  556 2
   414  555  557 am
   415  557  558 am
   416  558  560 1
   417  558  559 2
   418  560  561 2
   419  519  542 1
   420  572  573 1
   421  572  574 1
   422  572  575 1
   423  575  576 1
   424  576  577 1
   425  577  579 1
   426  577  578 1
   427  578  583 1
   428  579  581 1
   429  579  580 1
   430  581  583 1
   431  581  582 1
   432  583  584 1
   433  584  594 ar
   434  584  585 ar
   435  585  586 ar
   436  586  587 ar
   437  587  594 ar
   438  587  588 1
   439  588  589 2
   440  588  590 am
   441  590  591 1
   442  591  592 2
   443  591  593 2
   444  593  594 1
   445  550  572 1
   446  606  609 1
   447  606  608 1
   448  606  607 1
   449  609  610 1
   450  610  611 1
   451  611  613 1
   452  611  612 1
   453  612  617 1
   454  613  614 1
   455  613  615 1
   456  615  616 1
   457  615  617 1
   458  617  618 1
   459  618  625 1
   460  618  619 am
   461  619  620 2
   462  619  621 1
   463  621  622 2
   464  622  624 2
   465  622  623 2
   466  624  625 2
   467  580  606 1
   468  637  638 1
   469  637  639 1
   470  637  640 1
   471  640  641 1
   472  641  642 1
   473  642  644 1
   474  642  643 1
   475  643  648 1
   476  644  646 1
   477  644  645 1
   478  646  648 1
   479  646  647 1
   480  648  649 1
   481  649  659 ar
   482  649  650 ar
   483  650  651 ar
   484  651  652 ar
   485  652  659 ar
   486  652  653 1
   487  653  654 2
   488  653  655 am
   489  655  656 1
   490  656  657 2
   491  656  658 2
   492  658  659 1
   493  614  637 1
   494  671  674 1
   495  671  672 1
   496  671  673 1
   497  674  675 1
   498  675  676 1
   499  676  678 1
   500  676  677 1
   501  677  682 1
   502  678  680 1
   503  678  679 1
   504  680  681 1
   505  680  682 1
   506  682  683 1
   507  683  684 am
   508  683  690 1
   509  684  685 2
   510  684  686 am
   511  686  687 am
   512  687  689 1
   513  687  688 2
   514  689  690 2
   515  645  671 1
   516  701  702 1
   517  701  703 1
   518  701  704 1
   519  704  705 1
   520  705  706 1
   521  706  708 1
   522  706  707 1
   523  707  712 1
   524  708  710 1
   525  708  709 1
   526  710  712 1
   527  710  711 1
   528  712  713 1
   529  713  723 ar
   530  713  714 ar
   531  714  715 ar
   532  715  716 ar
   533  716  723 ar
   534  716  717 1
   535  717  718 2
   536  717  719 am
   537  719  720 1
   538  720  721 2
   539  720  722 2
   540  722  723 1
   541  679  701 1
   542  735  737 1
   543  735  736 1
   544  735  738 1
   545  738  739 1
   546  739  740 1
   547  740  742 1
   548  740  741 1
   549  741  746 1
   550  742  744 1
   551  742  743 1
   552  744  745 1
   553  744  746 1
   554  746  747 1
   555  747  748 ar
   556  747  756 ar
   557  748  749 ar
   558  749  750 ar
   559  750  756 ar
   560  750  751 ar
   561  751  752 1
   562  751  753 ar
   563  753  754 ar
   564  754  755 ar
   565  755  756 ar
   566  709  735 1
   567  768  770 1
   568  768  769 1
   569  768  771 1
   570  771  772 1
   571  772  773 1
   572  773  775 1
   573  773  774 1
   574  774  779 1
   575  775  777 1
   576  775  776 1
   577  777  778 1
   578  777  779 1
   579  779  780 1
   580  780  781 ar
   581  780  789 ar
   582  781  782 ar
   583  782  783 ar
   584  783  789 ar
   585  783  784 ar
   586  784  785 1
   587  784  786 ar
   588  786  787 ar
   589  787  788 ar
   590  788  789 ar
   591  743  768 1
   592  801  802 1
   593  801  803 1
   594  801  804 1
   595  804  805 1
   596  805  806 1
   597  806  808 1
   598  806  807 1
   599  807  812 1
   600  808  810 1
   601  808  809 1
   602  810  812 1
   603  810  811 1
   604  812  813 1
   605  813  823 ar
   606  813  814 ar
   607  814  815 ar
   608  815  816 ar
   609  816  823 ar
   610  816  817 1
   611  817  818 2
   612  817  819 am
   613  819  820 1
   614  820  821 2
   615  820  822 2
   616  822  823 1
   617  776  801 1
   618  835  836 1
   619  835  837 1
   620  835  838 1
   621  838  839 1
   622  839  840 1
   623  840  842 1
   624  840  841 1
   625  841  846 1
   626  842  844 1
   627  842  843 1
   628  844  846 1
   629  844  845 1
   630  846  847 1
   631  847  857 ar
   632  847  848 ar
   633  848  849 ar
   634  849  850 ar
   635  850  857 ar
   636  850  851 1
   637  851  852 2
   638  851  853 am
   639  853  854 1
   640  854  855 2
   641  854  856 2
   642  856  857 1
   643  809  835 1
   644  869  872 1
   645  869  871 1
   646  869  870 1
   647  872  873 1
   648  873  874 1
   649  874  876 1
   650  874  875 1
   651  875  880 1
   652  876  877 1
   653  876  878 1
   654  878  879 1
   655  878  880 1
   656  880  881 1
   657  881  888 1
   658  881  882 am
   659  882  883 2
   660  882  884 1
   661  884  885 2
   662  885  887 2
   663  885  886 2
   664  887  888 2
   665  843  869 1
   666  900  903 1
   667  900  901 1
   668  900  902 1
   669  903  904 1
   670  904  905 1
   671  905  907 1
   672  905  906 1
   673  906  911 1
   674  907  909 1
   675  907  908 1
   676  909  910 1
   677  909  911 1
   678  911  912 1
   679  912  913 am
   680  912  919 1
   681  913  914 2
   682  913  915 am
   683  915  916 am
   684  916  918 1
   685  916  917 2
   686  918  919 2
   687  877  900 1
   688  930  931 1
   689  930  932 1
   690  930  933 1
   691  933  934 1
   692  934  935 1
   693  935  937 1
   694  935  936 1
   695  936  941 1
   696  937  939 1
   697  937  938 1
   698  939  941 1
   699  939  940 1
   700  941  942 1
   701  942  952 ar
   702  942  943 ar
   703  943  944 ar
   704  944  945 ar
   705  945  952 ar
   706  945  946 1
   707  946  947 2
   708  946  948 am
   709  948  949 1
   710  949  950 2
   711  949  951 2
   712  951  952 1
   713  908  930 1
   714  964  966 1
   715  964  965 1
   716  964  967 1
   717  967  968 1
   718  968  969 1
   719  969  971 1
   720  969  970 1
   721  970  975 1
   722  971  973 1
   723  971  972 1
   724  973  974 1
   725  973  975 1
   726  975  976 1
   727  976  977 ar
   728  976  985 ar
   729  977  978 ar
   730  978  979 ar
   731  979  985 ar
   732  979  980 ar
   733  980  981 1
   734  980  982 ar
   735  982  983 ar
   736  983  984 ar
   737  984  985 ar
   738  938  964 1
   739  997  998 1
   740  997  999 1
   741  997 1000 1
   742 1000 1001 1
   743 1001 1002 1
   744 1002 1004 1
   745 1002 1003 1
   746 1003 1008 1
   747 1004 1006 1
   748 1004 1005 1
   749 1006 1008 1
   750 1006 1007 1
   751 1008 1009 1
   752 1009 1019 ar
   753 1009 1010 ar
   754 1010 1011 ar
   755 1011 1012 ar
   756 1012 1019 ar
   757 1012 1013 1
   758 1013 1014 2
   759 1013 1015 am
   760 1015 1016 1
   761 1016 1017 2
   762 1016 1018 2
   763 1018 1019 1
   764  972  997 1
   765 1031 1033 1
   766 1031 1032 1
   767 1031 1034 1
   768 1034 1035 1
   769 1035 1036 1
   770 1036 1038 1
   771 1036 1037 1
   772 1037 1042 1
   773 1038 1040 1
   774 1038 1039 1
   775 1040 1041 1
   776 1040 1042 1
   777 1042 1043 1
   778 1043 1044 ar
   779 1043 1052 ar
   780 1044 1045 ar
   781 1045 1046 ar
   782 1046 1052 ar
   783 1046 1047 ar
   784 1047 1048 1
   785 1047 1049 ar
   786 1049 1050 ar
   787 1050 1051 ar
   788 1051 1052 ar
   789 1005 1031 1
   790 1064 1066 1
   791 1064 1065 1
   792 1064 1067 1
   793 1067 1068 1
   794 1068 1069 1
   795 1069 1071 1
   796 1069 1070 1
   797 1070 1075 1
   798 1071 1073 1
   799 1071 1072 1
   800 1073 1074 1
   801 1073 1075 1
   802 1075 1076 1
   803 1076 1077 ar
   804 1076 1085 ar
   805 1077 1078 ar
   806 1078 1079 ar
   807 1079 1085 ar
   808 1079 1080 ar
   809 1080 1081 1
   810 1080 1082 ar
   811 1082 1083 ar
   812 1083 1084 ar
   813 1084 1085 ar
   814 1039 1064 1
   815 1097 1099 1
   816 1097 1098 1
   817 1097 1100 1
   818 1100 1101 1
   819 1101 1102 1
   820 1102 1104 1
   821 1102 1103 1
   822 1103 1108 1
   823 1104 1106 1
   824 1104 1105 1
   825 1106 1107 1
   826 1106 1108 1
   827 1108 1109 1
   828 1109 1110 ar
   829 1109 1118 ar
   830 1110 1111 ar
   831 1111 1112 ar
   832 1112 1118 ar
   833 1112 1113 ar
   834 1113 1114 1
   835 1113 1115 ar
   836 1115 1116 ar
   837 1116 1117 ar
   838 1117 1118 ar
   839 1072 1097 1
   840 1130 1133 1
   841 1130 1131 1
   842 1130 1132 1
   843 1133 1134 1
   844 1134 1135 1
   845 1135 1137 1
   846 1135 1136 1
   847 1136 1141 1
   848 1137 1139 1
   849 1137 1138 1
   850 1139 1140 1
   851 1139 1141 1
   852 1141 1142 1
   853 1142 1143 am
   854 1142 1149 1
   855 1143 1144 2
   856 1143 1145 am
   857 1145 1146 am
   858 1146 1148 1
   859 1146 1147 2
   860 1148 1149 2
   861 1105 1130 1
   862 1160 1162 1
   863 1160 1161 1
   864 1160 1163 1
   865 1163 1164 1
   866 1164 1165 1
   867 1165 1167 1
   868 1165 1166 1
   869 1166 1171 1
   870 1167 1169 1
   871 1167 1168 1
   872 1169 1170 1
   873 1169 1171 1
   874 1171 1172 1
   875 1172 1173 ar
   876 1172 1181 ar
   877 1173 1174 ar
   878 1174 1175 ar
   879 1175 1181 ar
   880 1175 1176 ar
   881 1176 1177 1
   882 1176 1178 ar
   883 1178 1179 ar
   884 1179 1180 ar
   885 1180 1181 ar
   886 1138 1160 1
   887 1193 1196 1
   888 1193 1195 1
   889 1193 1194 1
   890 1196 1197 1
   891 1197 1198 1
   892 1198 1200 1
   893 1198 1199 1
   894 1199 1204 1
   895 1200 1201 1
   896 1200 1202 1
   897 1202 1203 1
   898 1202 1204 1
   899 1204 1205 1
   900 1205 1212 1
   901 1205 1206 am
   902 1206 1207 2
   903 1206 1208 1
   904 1208 1209 2
   905 1209 1211 2
   906 1209 1210 2
   907 1211 1212 2
   908 1168 1193 1
   909 1224 1227 1
   910 1224 1226 1
   911 1224 1225 1
   912 1227 1228 1
   913 1228 1229 1
   914 1229 1231 1
   915 1229 1230 1
   916 1230 1235 1
   917 1231 1232 1
   918 1231 1233 1
   919 1233 1234 1
   920 1233 1235 1
   921 1235 1236 1
   922 1236 1243 1
   923 1236 1237 am
   924 1237 1238 2
   925 1237 1239 1
   926 1239 1240 2
   927 1240 1242 2
   928 1240 1241 2
   929 1242 1243 2
   930 1201 1224 1
   931 1255 1258 1
   932 1255 1257 1
   933 1255 1256 1
   934 1258 1259 1
   935 1259 1260 1
   936 1260 1262 1
   937 1260 1261 1
   938 1261 1266 1
   939 1262 1263 1
   940 1262 1264 1
   941 1264 1265 1
   942 1264 1266 1
   943 1266 1267 1
   944 1267 1274 1
   945 1267 1268 am
   946 1268 1269 2
   947 1268 1270 1
   948 1270 1271 2
   949 1271 1273 2
   950 1271 1272 2
   951 1273 1274 2
   952 1232 1255 1
   953 1286 1287 1
   954 1286 1288 1
   955 1286 1289 1
   956 1289 1290 1
   957 1290 1291 1
   958 1291 1293 1
   959 1291 1292 1
   960 1292 1297 1
   961 1293 1295 1
   962 1293 1294 1
   963 1295 1297 1
   964 1295 1296 1
   965 1297 1298 1
   966 1298 1308 ar
   967 1298 1299 ar
   968 1299 1300 ar
   969 1300 1301 ar
   970 1301 1308 ar
   971 1301 1302 1
   972 1302 1303 2
   973 1302 1304 am
   974 1304 1305 1
   975 1305 1306 2
   976 1305 1307 2
   977 1307 1308 1
   978 1263 1286 1
   979 1320 1323 1
   980 1320 1321 1
   981 1320 1322 1
   982 1323 1324 1
   983 1324 1325 1
   984 1325 1327 1
   985 1325 1326 1
   986 1326 1331 1
   987 1327 1329 1
   988 1327 1328 1
   989 1329 1330 1
   990 1329 1331 1
   991 1331 1332 1
   992 1332 1333 am
   993 1332 1339 1
   994 1333 1334 2
   995 1333 1335 am
   996 1335 1336 am
   997 1336 1338 1
   998 1336 1337 2
   999 1338 1339 2
  1000 1294 1320 1
  1001 1350 1352 1
  1002 1350 1351 1
  1003 1350 1353 1
  1004 1353 1354 1
  1005 1354 1355 1
  1006 1355 1357 1
  1007 1355 1356 1
  1008 1356 1361 1
  1009 1357 1359 1
  1010 1357 1358 1
  1011 1359 1360 1
  1012 1359 1361 1
  1013 1361 1362 1
  1014 1362 1363 ar
  1015 1362 1371 ar
  1016 1363 1364 ar
  1017 1364 1365 ar
  1018 1365 1371 ar
  1019 1365 1366 ar
  1020 1366 1367 1
  1021 1366 1368 ar
  1022 1368 1369 ar
  1023 1369 1370 ar
  1024 1370 1371 ar
  1025 1328 1350 1
  1026 1383 1386 1
  1027 1383 1384 1
  1028 1383 1385 1
  1029 1386 1387 1
  1030 1387 1388 1
  1031 1388 1390 1
  1032 1388 1389 1
  1033 1389 1394 1
  1034 1390 1392 1
  1035 1390 1391 1
  1036 1392 1393 1
  1037 1392 1394 1
  1038 1394 1395 1
  1039 1395 1396 am
  1040 1395 1402 1
  1041 1396 1397 2
  1042 1396 1398 am
  1043 1398 1399 am
  1044 1399 1401 1
  1045 1399 1400 2
  1046 1401 1402 2
  1047 1358 1383 1
  1048 1413 1416 1
  1049 1413 1415 1
  1050 1413 1414 1
  1051 1416 1417 1
  1052 1417 1418 1
  1053 1418 1420 1
  1054 1418 1419 1
  1055 1419 1424 1
  1056 1420 1421 1
  1057 1420 1422 1
  1058 1422 1423 1
  1059 1422 1424 1
  1060 1424 1425 1
  1061 1425 1432 1
  1062 1425 1426 am
  1063 1426 1427 2
  1064 1426 1428 1
  1065 1428 1429 2
  1066 1429 1431 2
  1067 1429 1430 2
  1068 1431 1432 2
  1069 1391 1413 1
  1070 1444 1446 1
  1071 1444 1445 1
  1072 1444 1447 1
  1073 1447 1448 1
  1074 1448 1449 1
  1075 1449 1451 1
  1076 1449 1450 1
  1077 1450 1455 1
  1078 1451 1453 1
  1079 1451 1452 1
  1080 1453 1454 1
  1081 1453 1455 1
  1082 1455 1456 1
  1083 1456 1457 ar
  1084 1456 1465 ar
  1085 1457 1458 ar
  1086 1458 1459 ar
  1087 1459 1465 ar
  1088 1459 1460 ar
  1089 1460 1461 1
  1090 1460 1462 ar
  1091 1462 1463 ar
  1092 1463 1464 ar
  1093 1464 1465 ar
  1094 1421 1444 1
  1095 1477 1480 1
  1096 1477 1479 1
  1097 1477 1478 1
  1098 1480 1481 1
  1099 1481 1482 1
  1100 1482 1484 1
  1101 1482 1483 1
  1102 1483 1488 1
  1103 1484 1485 1
  1104 1484 1486 1
  1105 1486 1487 1
  1106 1486 1488 1
  1107 1488 1489 1
  1108 1489 1496 1
  1109 1489 1490 am
  1110 1490 1491 2
  1111 1490 1492 1
  1112 1492 1493 2
  1113 1493 1495 2
  1114 1493 1494 2
  1115 1495 1496 2
  1116 1452 1477 1
  1117 1508 1511 1
  1118 1508 1510 1
  1119 1508 1509 1
  1120 1511 1512 1
  1121 1512 1513 1
  1122 1513 1515 1
  1123 1513 1514 1
  1124 1514 1519 1
  1125 1515 1516 1
  1126 1515 1517 1
  1127 1517 1518 1
  1128 1517 1519 1
  1129 1519 1520 1
  1130 1520 1527 1
  1131 1520 1521 am
  1132 1521 1522 2
  1133 1521 1523 1
  1134 1523 1524 2
  1135 1524 1526 2
  1136 1524 1525 2
  1137 1526 1527 2
  1138 1485 1508 1
  1139 1539 1542 1
  1140 1539 1540 1
  1141 1539 1541 1
  1142 1542 1543 1
  1143 1543 1544 1
  1144 1544 1546 1
  1145 1544 1545 1
  1146 1545 1550 1
  1147 1546 1548 1
  1148 1546 1547 1
  1149 1548 1549 1
  1150 1548 1550 1
  1151 1550 1551 1
  1152 1551 1552 am
  1153 1551 1558 1
  1154 1552 1553 2
  1155 1552 1554 am
  1156 1554 1555 am
  1157 1555 1557 1
  1158 1555 1556 2
  1159 1557 1558 2
  1160 1516 1539 1
  1161 1569 1570 1
  1162 1569 1571 1
  1163 1569 1572 1
  1164 1572 1573 1
  1165 1573 1574 1
  1166 1574 1576 1
  1167 1574 1575 1
  1168 1575 1580 1
  1169 1576 1578 1
  1170 1576 1577 1
  1171 1578 1580 1
  1172 1578 1579 1
  1173 1580 1581 1
  1174 1581 1591 ar
  1175 1581 1582 ar
  1176 1582 1583 ar
  1177 1583 1584 ar
  1178 1584 1591 ar
  1179 1584 1585 1
  1180 1585 1586 2
  1181 1585 1587 am
  1182 1587 1588 1
  1183 1588 1589 2
  1184 1588 1590 2
  1185 1590 1591 1
  1186 1547 1569 1
  1187 1603 1605 1
  1188 1603 1604 1
  1189 1603 1606 1
  1190 1606 1607 1
  1191 1607 1608 1
  1192 1608 1610 1
  1193 1608 1609 1
  1194 1609 1614 1
  1195 1610 1612 1
  1196 1610 1611 1
  1197 1612 1613 1
  1198 1612 1614 1
  1199 1614 1615 1
  1200 1615 1616 ar
  1201 1615 1624 ar
  1202 1616 1617 ar
  1203 1617 1618 ar
  1204 1618 1624 ar
  1205 1618 1619 ar
  1206 1619 1620 1
  1207 1619 1621 ar
  1208 1621 1622 ar
  1209 1622 1623 ar
  1210 1623 1624 ar
  1211 1577 1603 1
  1212 1636 1639 1
  1213 1636 1637 1
  1214 1636 1638 1
  1215 1639 1640 1
  1216 1640 1641 1
  1217 1641 1643 1
  1218 1641 1642 1
  1219 1642 1647 1
  1220 1643 1645 1
  1221 1643 1644 1
  1222 1645 1646 1
  1223 1645 1647 1
  1224 1647 1648 1
  1225 1648 1649 am
  1226 1648 1655 1
  1227 1649 1650 2
  1228 1649 1651 am
  1229 1651 1652 am
  1230 1652 1654 1
  1231 1652 1653 2
  1232 1654 1655 2
  1233 1611 1636 1
  1234 1666 1669 1
  1235 1666 1668 1
  1236 1666 1667 1
  1237 1669 1670 1
  1238 1670 1671 1
  1239 1671 1673 1
  1240 1671 1672 1
  1241 1672 1677 1
  1242 1673 1674 1
  1243 1673 1675 1
  1244 1675 1676 1
  1245 1675 1677 1
  1246 1677 1678 1
  1247 1678 1685 1
  1248 1678 1679 am
  1249 1679 1680 2
  1250 1679 1681 1
  1251 1681 1682 2
  1252 1682 1684 2
  1253 1682 1683 2
  1254 1684 1685 2
  1255 1644 1666 1
  1256 1697 1700 1
  1257 1697 1698 1
  1258 1697 1699 1
  1259 1700 1701 1
  1260 1701 1702 1
  1261 1702 1704 1
  1262 1702 1703 1
  1263 1703 1708 1
  1264 1704 1706 1
  1265 1704 1705 1
  1266 1706 1707 1
  1267 1706 1708 1
  1268 1708 1709 1
  1269 1709 1710 am
  1270 1709 1716 1
  1271 1710 1711 2
  1272 1710 1712 am
  1273 1712 1713 am
  1274 1713 1715 1
  1275 1713 1714 2
  1276 1715 1716 2
  1277 1674 1697 1
  1278 1727 1728 1
  1279 1727 1729 1
  1280 1727 1730 1
  1281 1730 1731 1
  1282 1731 1732 1
  1283 1732 1734 1
  1284 1732 1733 1
  1285 1733 1738 1
  1286 1734 1736 1
  1287 1734 1735 1
  1288 1736 1738 1
  1289 1736 1737 1
  1290 1738 1739 1
  1291 1739 1749 ar
  1292 1739 1740 ar
  1293 1740 1741 ar
  1294 1741 1742 ar
  1295 1742 1749 ar
  1296 1742 1743 1
  1297 1743 1744 2
  1298 1743 1745 am
  1299 1745 1746 1
  1300 1746 1747 2
  1301 1746 1748 2
  1302 1748 1749 1
  1303 1705 1727 1
  1304 1761 1762 1
  1305 1761 1763 1
  1306 1761 1764 1
  1307 1764 1765 1
  1308 1765 1766 1
  1309 1766 1768 1
  1310 1766 1767 1
  1311 1767 1772 1
  1312 1768 1770 1
  1313 1768 1769 1
  1314 1770 1772 1
  1315 1770 1771 1
  1316 1772 1773 1
  1317 1773 1783 ar
  1318 1773 1774 ar
  1319 1774 1775 ar
  1320 1775 1776 ar
  1321 1776 1783 ar
  1322 1776 1777 1
  1323 1777 1778 2
  1324 1777 1779 am
  1325 1779 1780 1
  1326 1780 1781 2
  1327 1780 1782 2
  1328 1782 1783 1
  1329 1735 1761 1
  1330 1795 1797 1
  1331 1795 1796 1
  1332 1795 1798 1
  1333 1798 1799 1
  1334 1799 1800 1
  1335 1800 1802 1
  1336 1800 1801 1
  1337 1801 1806 1
  1338 1802 1804 1
  1339 1802 1803 1
  1340 1804 1805 1
  1341 1804 1806 1
  1342 1806 1807 1
  1343 1807 1808 ar
  1344 1807 1816 ar
  1345 1808 1809 ar
  1346 1809 1810 ar
  1347 1810 1816 ar
  1348 1810 1811 ar
  1349 1811 1812 1
  1350 1811 1813 ar
  1351 1813 1814 ar
  1352 1814 1815 ar
  1353 1815 1816 ar
  1354 1769 1795 1
  1355 1828 1831 1
  1356 1828 1829 1
  1357 1828 1830 1
  1358 1831 1832 1
  1359 1832 1833 1
  1360 1833 1835 1
  1361 1833 1834 1
  1362 1834 1839 1
  1363 1835 1837 1
  1364 1835 1836 1
  1365 1837 1838 1
  1366 1837 1839 1
  1367 1839 1840 1
  1368 1840 1841 am
  1369 1840 1847 1
  1370 1841 1842 2
  1371 1841 1843 am
  1372 1843 1844 am
  1373 1844 1846 1
  1374 1844 1845 2
  1375 1846 1847 2
  1376 1803 1828 1
  1377 1858 1860 1
  1378 1858 1859 1
  1379 1858 1861 1
  1380 1861 1862 1
  1381 1862 1863 1
  1382 1863 1865 1
  1383 1863 1864 1
  1384 1864 1869 1
  1385 1865 1867 1
  1386 1865 1866 1
  1387 1867 1868 1
  1388 1867 1869 1
  1389 1869 1870 1
  1390 1870 1871 ar
  1391 1870 1879 ar
  1392 1871 1872 ar
  1393 1872 1873 ar
  1394 1873 1879 ar
  1395 1873 1874 ar
  1396 1874 1875 1
  1397 1874 1876 ar
  1398 1876 1877 ar
  1399 1877 1878 ar
  1400 1878 1879 ar
  1401 1836 1858 1
  1402 1891 1893 1
  1403 1891 1892 1
  1404 1891 1894 1
  1405 1894 1895 1
  1406 1895 1896 1
  1407 1896 1898 1
  1408 1896 1897 1
  1409 1897 1902 1
  1410 1898 1900 1
  1411 1898 1899 1
  1412 1900 1901 1
  1413 1900 1902 1
  1414 1902 1903 1
  1415 1903 1904 ar
  1416 1903 1912 ar
  1417 1904 1905 ar
  1418 1905 1906 ar
  1419 1906 1912 ar
  1420 1906 1907 ar
  1421 1907 1908 1
  1422 1907 1909 ar
  1423 1909 1910 ar
  1424 1910 1911 ar
  1425 1911 1912 ar
  1426 1866 1891 1
  1427 1924 1927 1
  1428 1924 1925 1
  1429 1924 1926 1
  1430 1927 1928 1
  1431 1928 1929 1
  1432 1929 1931 1
  1433 1929 1930 1
  1434 1930 1935 1
  1435 1931 1933 1
  1436 1931 1932 1
  1437 1933 1934 1
  1438 1933 1935 1
  1439 1935 1936 1
  1440 1936 1937 am
  1441 1936 1943 1
  1442 1937 1938 2
  1443 1937 1939 am
  1444 1939 1940 am
  1445 1940 1942 1
  1446 1940 1941 2
  1447 1942 1943 2
  1448 1899 1924 1
  1449 1954 1955 1
  1450 1954 1956 1
  1451 1954 1957 1
  1452 1957 1958 1
  1453 1958 1959 1
  1454 1959 1961 1
  1455 1959 1960 1
  1456 1960 1965 1
  1457 1961 1963 1
  1458 1961 1962 1
  1459 1963 1965 1
  1460 1963 1964 1
  1461 1965 1966 1
  1462 1966 1976 ar
  1463 1966 1967 ar
  1464 1967 1968 ar
  1465 1968 1969 ar
  1466 1969 1976 ar
  1467 1969 1970 1
  1468 1970 1971 2
  1469 1970 1972 am
  1470 1972 1973 1
  1471 1973 1974 2
  1472 1973 1975 2
  1473 1975 1976 1
  1474 1932 1954 1
  1475 1988 1991 1
  1476 1988 1990 1
  1477 1988 1989 1
  1478 1991 1992 1
  1479 1992 1993 1
  1480 1993 1995 1
  1481 1993 1994 1
  1482 1994 1999 1
  1483 1995 1996 1
  1484 1995 1997 1
  1485 1997 1998 1
  1486 1997 1999 1
  1487 1999 2000 1
  1488 2000 2007 1
  1489 2000 2001 am
  1490 2001 2002 2
  1491 2001 2003 1
  1492 2003 2004 2
  1493 2004 2006 2
  1494 2004 2005 2
  1495 2006 2007 2
  1496 1962 1988 1
  1497 2019 2022 1
  1498 2019 2021 1
  1499 2019 2020 1
  1500 2022 2023 1
  1501 2023 2024 1
  1502 2024 2026 1
  1503 2024 2025 1
  1504 2025 2030 1
  1505 2026 2027 1
  1506 2026 2028 1
  1507 2028 2029 1
  1508 2028 2030 1
  1509 2030 2031 1
  1510 2031 2038 1
  1511 2031 2032 am
  1512 2032 2033 2
  1513 2032 2034 1
  1514 2034 2035 2
  1515 2035 2037 2
  1516 2035 2036 2
  1517 2037 2038 2
  1518 1996 2019 1
  1519 2050 2052 1
  1520 2050 2051 1
  1521 2050 2053 1
  1522 2053 2054 1
  1523 2054 2055 1
  1524 2055 2057 1
  1525 2055 2056 1
  1526 2056 2061 1
  1527 2057 2059 1
  1528 2057 2058 1
  1529 2059 2060 1
  1530 2059 2061 1
  1531 2061 2062 1
  1532 2062 2063 ar
  1533 2062 2071 ar
  1534 2063 2064 ar
  1535 2064 2065 ar
  1536 2065 2071 ar
  1537 2065 2066 ar
  1538 2066 2067 1
  1539 2066 2068 ar
  1540 2068 2069 ar
  1541 2069 2070 ar
  1542 2070 2071 ar
  1543 2027 2050 1
  1544 2083 2084 1
  1545 2083 2085 1
  1546 2083 2086 1
  1547 2086 2087 1
  1548 2087 2088 1
  1549 2088 2090 1
  1550 2088 2089 1
  1551 2089 2094 1
  1552 2090 2092 1
  1553 2090 2091 1
  1554 2092 2094 1
  1555 2092 2093 1
  1556 2094 2095 1
  1557 2095 2105 ar
  1558 2095 2096 ar
  1559 2096 2097 ar
  1560 2097 2098 ar
  1561 2098 2105 ar
  1562 2098 2099 1
  1563 2099 2100 2
  1564 2099 2101 am
  1565 2101 2102 1
  1566 2102 2103 2
  1567 2102 2104 2
  1568 2104 2105 1
  1569 2058 2083 1
  1570 2117 2120 1
  1571 2117 2119 1
  1572 2117 2118 1
  1573 2120 2121 1
  1574 2121 2122 1
  1575 2122 2124 1
  1576 2122 2123 1
  1577 2123 2128 1
  1578 2124 2125 1
  1579 2124 2126 1
  1580 2126 2127 1
  1581 2126 2128 1
  1582 2128 2129 1
  1583 2129 2136 1
  1584 2129 2130 am
  1585 2130 2131 2
  1586 2130 2132 1
  1587 2132 2133 2
  1588 2133 2135 2
  1589 2133 2134 2
  1590 2135 2136 2
  1591 2091 2117 1
  1592 2148 2149 1
  1593 2148 2150 1
  1594 2148 2151 1
  1595 2151 2152 1
  1596 2152 2153 1
  1597 2153 2155 1
  1598 2153 2154 1
  1599 2154 2159 1
  1600 2155 2157 1
  1601 2155 2156 1
  1602 2157 2159 1
  1603 2157 2158 1
  1604 2159 2160 1
  1605 2160 2170 ar
  1606 2160 2161 ar
  1607 2161 2162 ar
  1608 2162 2163 ar
  1609 2163 2170 ar
  1610 2163 2164 1
  1611 2164 2165 2
  1612 2164 2166 am
  1613 2166 2167 1
  1614 2167 2168 2
  1615 2167 2169 2
  1616 2169 2170 1
  1617 2125 2148 1
  1618 2182 2185 1
  1619 2182 2183 1
  1620 2182 2184 1
  1621 2185 2186 1
  1622 2186 2187 1
  1623 2187 2189 1
  1624 2187 2188 1
  1625 2188 2193 1
  1626 2189 2191 1
  1627 2189 2190 1
  1628 2191 2192 1
  1629 2191 2193 1
  1630 2193 2194 1
  1631 2194 2195 am
  1632 2194 2201 1
  1633 2195 2196 2
  1634 2195 2197 am
  1635 2197 2198 am
  1636 2198 2200 1
  1637 2198 2199 2
  1638 2200 2201 2
  1639 2156 2182 1
  1640 2212 2214 1
  1641 2212 2213 1
  1642 2212 2215 1
  1643 2215 2216 1
  1644 2216 2217 1
  1645 2217 2219 1
  1646 2217 2218 1
  1647 2218 2223 1
  1648 2219 2221 1
  1649 2219 2220 1
  1650 2221 2222 1
  1651 2221 2223 1
  1652 2223 2224 1
  1653 2224 2225 ar
  1654 2224 2233 ar
  1655 2225 2226 ar
  1656 2226 2227 ar
  1657 2227 2233 ar
  1658 2227 2228 ar
  1659 2228 2229 1
  1660 2228 2230 ar
  1661 2230 2231 ar
  1662 2231 2232 ar
  1663 2232 2233 ar
  1664 2190 2212 1
  1665 2245 2246 1
  1666 2245 2247 1
  1667 2245 2248 1
  1668 2248 2249 1
  1669 2249 2250 1
  1670 2250 2252 1
  1671 2250 2251 1
  1672 2251 2256 1
  1673 2252 2254 1
  1674 2252 2253 1
  1675 2254 2256 1
  1676 2254 2255 1
  1677 2256 2257 1
  1678 2257 2267 ar
  1679 2257 2258 ar
  1680 2258 2259 ar
  1681 2259 2260 ar
  1682 2260 2267 ar
  1683 2260 2261 1
  1684 2261 2262 2
  1685 2261 2263 am
  1686 2263 2264 1
  1687 2264 2265 2
  1688 2264 2266 2
  1689 2266 2267 1
  1690 2220 2245 1
  1691 2279 2280 1
  1692 2279 2281 1
  1693 2279 2282 1
  1694 2282 2283 1
  1695 2283 2284 1
  1696 2284 2286 1
  1697 2284 2285 1
  1698 2285 2290 1
  1699 2286 2288 1
  1700 2286 2287 1
  1701 2288 2290 1
  1702 2288 2289 1
  1703 2290 2291 1
  1704 2291 2301 ar
  1705 2291 2292 ar
  1706 2292 2293 ar
  1707 2293 2294 ar
  1708 2294 2301 ar
  1709 2294 2295 1
  1710 2295 2296 2
  1711 2295 2297 am
  1712 2297 2298 1
  1713 2298 2299 2
  1714 2298 2300 2
  1715 2300 2301 1
  1716 2253 2279 1
  1717 2313 2314 1
  1718 2313 2315 1
  1719 2313 2316 1
  1720 2316 2317 1
  1721 2317 2318 1
  1722 2318 2320 1
  1723 2318 2319 1
  1724 2319 2324 1
  1725 2320 2322 1
  1726 2320 2321 1
  1727 2322 2324 1
  1728 2322 2323 1
  1729 2324 2325 1
  1730 2325 2335 ar
  1731 2325 2326 ar
  1732 2326 2327 ar
  1733 2327 2328 ar
  1734 2328 2335 ar
  1735 2328 2329 1
  1736 2329 2330 2
  1737 2329 2331 am
  1738 2331 2332 1
  1739 2332 2333 2
  1740 2332 2334 2
  1741 2334 2335 1
  1742 2287 2313 1
  1743 2347 2349 1
  1744 2347 2348 1
  1745 2347 2350 1
  1746 2350 2351 1
  1747 2351 2352 1
  1748 2352 2354 1
  1749 2352 2353 1
  1750 2353 2358 1
  1751 2354 2356 1
  1752 2354 2355 1
  1753 2356 2357 1
  1754 2356 2358 1
  1755 2358 2359 1
  1756 2359 2360 ar
  1757 2359 2368 ar
  1758 2360 2361 ar
  1759 2361 2362 ar
  1760 2362 2368 ar
  1761 2362 2363 ar
  1762 2363 2364 1
  1763 2363 2365 ar
  1764 2365 2366 ar
  1765 2366 2367 ar
  1766 2367 2368 ar
  1767 2321 2347 1
  1768 2380 2382 1
  1769 2380 2381 1
  1770 2380 2383 1
  1771 2383 2384 1
  1772 2384 2385 1
  1773 2385 2387 1
  1774 2385 2386 1
  1775 2386 2391 1
  1776 2387 2389 1
  1777 2387 2388 1
  1778 2389 2390 1
  1779 2389 2391 1
  1780 2391 2392 1
  1781 2392 2393 ar
  1782 2392 2401 ar
  1783 2393 2394 ar
  1784 2394 2395 ar
  1785 2395 2401 ar
  1786 2395 2396 ar
  1787 2396 2397 1
  1788 2396 2398 ar
  1789 2398 2399 ar
  1790 2399 2400 ar
  1791 2400 2401 ar
  1792 2355 2380 1
  1793 2413 2414 1
  1794 2413 2415 1
  1795 2413 2416 1
  1796 2416 2417 1
  1797 2417 2418 1
  1798 2418 2420 1
  1799 2418 2419 1
  1800 2419 2424 1
  1801 2420 2422 1
  1802 2420 2421 1
  1803 2422 2424 1
  1804 2422 2423 1
  1805 2424 2425 1
  1806 2425 2435 ar
  1807 2425 2426 ar
  1808 2426 2427 ar
  1809 2427 2428 ar
  1810 2428 2435 ar
  1811 2428 2429 1
  1812 2429 2430 2
  1813 2429 2431 am
  1814 2431 2432 1
  1815 2432 2433 2
  1816 2432 2434 2
  1817 2434 2435 1
  1818 2388 2413 1
  1819 2447 2450 1
  1820 2447 2448 1
  1821 2447 2449 1
  1822 2450 2451 1
  1823 2451 2452 1
  1824 2452 2454 1
  1825 2452 2453 1
  1826 2453 2458 1
  1827 2454 2456 1
  1828 2454 2455 1
  1829 2456 2457 1
  1830 2456 2458 1
  1831 2458 2459 1
  1832 2459 2460 am
  1833 2459 2466 1
  1834 2460 2461 2
  1835 2460 2462 am
  1836 2462 2463 am
  1837 2463 2465 1
  1838 2463 2464 2
  1839 2465 2466 2
  1840 2421 2447 1
  1841 2480 2481 1
  1842 2481 2482 1
  1843 2482 2484 1
  1844 2482 2483 1
  1845 2483 2488 1
  1846 2484 2486 1
  1847 2484 2485 1
  1848 2486 2487 1
  1849 2486 2488 1
  1850 2488 2489 1
  1851 2489 2496 1
  1852 2489 2490 am
  1853 2490 2492 am
  1854 2490 2491 2
  1855 2492 2493 am
  1856 2493 2495 1
  1857 2493 2494 2
  1858 2495 2496 2
  1859 2477 2478 1
  1860 2477 2479 1
  1861 2477 2480 1
  1862 2455 2477 1
  1863 2508 2509 1
  1864 2509 2510 1
  1865 2510 2512 1
  1866 2510 2511 1
  1867 2511 2516 1
  1868 2512 2514 1
  1869 2512 2513 1
  1870 2514 2516 1
  1871 2514 2515 1
  1872 2516 2517 1
  1873 2517 2527 ar
  1874 2517 2518 ar
  1875 2518 2519 ar
  1876 2519 2520 ar
  1877 2520 2527 ar
  1878 2520 2521 1
  1879 2521 2522 2
  1880 2521 2523 am
  1881 2523 2524 1
  1882 2524 2525 2
  1883 2524 2526 2
  1884 2526 2527 1
  1885 2540 2542 1
  1886 2540 2541 1
  1887 2540 2543 1
  1888 2543 2544 1
  1889 2544 2545 1
  1890 2545 2547 1
  1891 2545 2546 1
  1892 2546 2551 1
  1893 2547 2549 1
  1894 2547 2548 1
  1895 2549 2550 1
  1896 2549 2551 1
  1897 2551 2552 1
  1898 2552 2553 ar
  1899 2552 2561 ar
  1900 2553 2554 ar
  1901 2554 2555 ar
  1902 2555 2561 ar
  1903 2555 2556 ar
  1904 2556 2557 1
  1905 2556 2558 ar
  1906 2558 2559 ar
  1907 2559 2560 ar
  1908 2560 2561 ar
  1909 2540 2513 1
  1910 2573 2576 1
  1911 2573 2575 1
  1912 2573 2574 1
  1913 2576 2577 1
  1914 2577 2578 1
  1915 2578 2580 1
  1916 2578 2579 1
  1917 2579 2584 1
  1918 2580 2581 1
  1919 2580 2582 1
  1920 2582 2583 1
  1921 2582 2584 1
  1922 2584 2585 1
  1923 2585 2592 1
  1924 2585 2586 am
  1925 2586 2587 2
  1926 2586 2588 1
  1927 2588 2589 2
  1928 2589 2591 2
  1929 2589 2590 2
  1930 2591 2592 2
  1931 2548 2573 1
  1932 2604 2607 1
  1933 2604 2605 1
  1934 2604 2606 1
  1935 2607 2608 1
  1936 2608 2609 1
  1937 2609 2611 1
  1938 2609 2610 1
  1939 2610 2615 1
  1940 2611 2613 1
  1941 2611 2612 1
  1942 2613 2614 1
  1943 2613 2615 1
  1944 2615 2616 1
  1945 2616 2617 am
  1946 2616 2623 1
  1947 2617 2618 2
  1948 2617 2619 am
  1949 2619 2620 am
  1950 2620 2622 1
  1951 2620 2621 2
  1952 2622 2623 2
  1953 2581 2604 1
  1954 2634 2637 1
  1955 2634 2636 1
  1956 2634 2635 1
  1957 2637 2638 1
  1958 2638 2639 1
  1959 2639 2641 1
  1960 2639 2640 1
  1961 2640 2645 1
  1962 2641 2642 1
  1963 2641 2643 1
  1964 2643 2644 1
  1965 2643 2645 1
  1966 2645 2646 1
  1967 2646 2653 1
  1968 2646 2647 am
  1969 2647 2648 2
  1970 2647 2649 1
  1971 2649 2650 2
  1972 2650 2652 2
  1973 2650 2651 2
  1974 2652 2653 2
  1975 2612 2634 1
  1976 2665 2666 1
  1977 2665 2667 1
  1978 2665 2668 1
  1979 2668 2669 1
  1980 2669 2670 1
  1981 2670 2672 1
  1982 2670 2671 1
  1983 2671 2676 1
  1984 2672 2674 1
  1985 2672 2673 1
  1986 2674 2676 1
  1987 2674 2675 1
  1988 2676 2677 1
  1989 2677 2687 ar
  1990 2677 2678 ar
  1991 2678 2679 ar
  1992 2679 2680 ar
  1993 2680 2687 ar
  1994 2680 2681 1
  1995 2681 2682 2
  1996 2681 2683 am
  1997 2683 2684 1
  1998 2684 2685 2
  1999 2684 2686 2
  2000 2686 2687 1
  2001 2642 2665 1
  2002 2699 2700 1
  2003 2699 2701 1
  2004 2699 2702 1
  2005 2702 2703 1
  2006 2703 2704 1
  2007 2704 2706 1
  2008 2704 2705 1
  2009 2705 2710 1
  2010 2706 2708 1
  2011 2706 2707 1
  2012 2708 2710 1
  2013 2708 2709 1
  2014 2710 2711 1
  2015 2711 2721 ar
  2016 2711 2712 ar
  2017 2712 2713 ar
  2018 2713 2714 ar
  2019 2714 2721 ar
  2020 2714 2715 1
  2021 2715 2716 2
  2022 2715 2717 am
  2023 2717 2718 1
  2024 2718 2719 2
  2025 2718 2720 2
  2026 2720 2721 1
  2027 2673 2699 1
  2028 2733 2734 1
  2029 2733 2735 1
  2030 2733 2736 1
  2031 2736 2737 1
  2032 2737 2738 1
  2033 2738 2740 1
  2034 2738 2739 1
  2035 2739 2744 1
  2036 2740 2742 1
  2037 2740 2741 1
  2038 2742 2744 1
  2039 2742 2743 1
  2040 2744 2745 1
  2041 2745 2755 ar
  2042 2745 2746 ar
  2043 2746 2747 ar
  2044 2747 2748 ar
  2045 2748 2755 ar
  2046 2748 2749 1
  2047 2749 2750 2
  2048 2749 2751 am
  2049 2751 2752 1
  2050 2752 2753 2
  2051 2752 2754 2
  2052 2754 2755 1
  2053 2707 2733 1
  2054 2767 2768 1
  2055 2767 2769 1
  2056 2767 2770 1
  2057 2770 2771 1
  2058 2771 2772 1
  2059 2772 2774 1
  2060 2772 2773 1
  2061 2773 2778 1
  2062 2774 2776 1
  2063 2774 2775 1
  2064 2776 2778 1
  2065 2776 2777 1
  2066 2778 2779 1
  2067 2779 2789 ar
  2068 2779 2780 ar
  2069 2780 2781 ar
  2070 2781 2782 ar
  2071 2782 2789 ar
  2072 2782 2783 1
  2073 2783 2784 2
  2074 2783 2785 am
  2075 2785 2786 1
  2076 2786 2787 2
  2077 2786 2788 2
  2078 2788 2789 1
  2079 2741 2767 1
  2080 2801 2804 1
  2081 2801 2802 1
  2082 2801 2803 1
  2083 2804 2805 1
  2084 2805 2806 1
  2085 2806 2808 1
  2086 2806 2807 1
  2087 2807 2812 1
  2088 2808 2810 1
  2089 2808 2809 1
  2090 2810 2811 1
  2091 2810 2812 1
  2092 2812 2813 1
  2093 2813 2814 am
  2094 2813 2820 1
  2095 2814 2815 2
  2096 2814 2816 am
  2097 2816 2817 am
  2098 2817 2819 1
  2099 2817 2818 2
  2100 2819 2820 2
  2101 2775 2801 1
  2102 2831 2832 1
  2103 2831 2833 1
  2104 2831 2834 1
  2105 2834 2835 1
  2106 2835 2836 1
  2107 2836 2838 1
  2108 2836 2837 1
  2109 2837 2842 1
  2110 2838 2840 1
  2111 2838 2839 1
  2112 2840 2842 1
  2113 2840 2841 1
  2114 2842 2843 1
  2115 2843 2853 ar
  2116 2843 2844 ar
  2117 2844 2845 ar
  2118 2845 2846 ar
  2119 2846 2853 ar
  2120 2846 2847 1
  2121 2847 2848 2
  2122 2847 2849 am
  2123 2849 2850 1
  2124 2850 2851 2
  2125 2850 2852 2
  2126 2852 2853 1
  2127 2809 2831 1
  2128 2865 2868 1
  2129 2865 2867 1
  2130 2865 2866 1
  2131 2868 2869 1
  2132 2869 2870 1
  2133 2870 2872 1
  2134 2870 2871 1
  2135 2871 2876 1
  2136 2872 2873 1
  2137 2872 2874 1
  2138 2874 2875 1
  2139 2874 2876 1
  2140 2876 2877 1
  2141 2877 2884 1
  2142 2877 2878 am
  2143 2878 2879 2
  2144 2878 2880 1
  2145 2880 2881 2
  2146 2881 2883 2
  2147 2881 2882 2
  2148 2883 2884 2
  2149 2839 2865 1
  2150 2896 2899 1
  2151 2896 2898 1
  2152 2896 2897 1
  2153 2899 2900 1
  2154 2900 2901 1
  2155 2901 2903 1
  2156 2901 2902 1
  2157 2902 2907 1
  2158 2903 2904 1
  2159 2903 2905 1
  2160 2905 2906 1
  2161 2905 2907 1
  2162 2907 2908 1
  2163 2908 2915 1
  2164 2908 2909 am
  2165 2909 2910 2
  2166 2909 2911 1
  2167 2911 2912 2
  2168 2912 2914 2
  2169 2912 2913 2
  2170 2914 2915 2
  2171 2873 2896 1
  2172 2927 2930 1
  2173 2927 2929 1
  2174 2927 2928 1
  2175 2930 2931 1
  2176 2931 2932 1
  2177 2932 2934 1
  2178 2932 2933 1
  2179 2933 2938 1
  2180 2934 2935 1
  2181 2934 2936 1
  2182 2936 2937 1
  2183 2936 2938 1
  2184 2938 2939 1
  2185 2939 2946 1
  2186 2939 2940 am
  2187 2940 2941 2
  2188 2940 2942 1
  2189 2942 2943 2
  2190 2943 2945 2
  2191 2943 2944 2
  2192 2945 2946 2
  2193 2904 2927 1
  2194 2958 2961 1
  2195 2958 2959 1
  2196 2958 2960 1
  2197 2961 2962 1
  2198 2962 2963 1
  2199 2963 2965 1
  2200 2963 2964 1
  2201 2964 2969 1
  2202 2965 2967 1
  2203 2965 2966 1
  2204 2967 2968 1
  2205 2967 2969 1
  2206 2969 2970 1
  2207 2970 2971 am
  2208 2970 2977 1
  2209 2971 2972 2
  2210 2971 2973 am
  2211 2973 2974 am
  2212 2974 2976 1
  2213 2974 2975 2
  2214 2976 2977 2
  2215 2935 2958 1
  2216 2988 2991 1
  2217 2988 2989 1
  2218 2988 2990 1
  2219 2991 2992 1
  2220 2992 2993 1
  2221 2993 2995 1
  2222 2993 2994 1
  2223 2994 2999 1
  2224 2995 2997 1
  2225 2995 2996 1
  2226 2997 2998 1
  2227 2997 2999 1
  2228 2999 3000 1
  2229 3000 3001 am
  2230 3000 3007 1
  2231 3001 3002 2
  2232 3001 3003 am
  2233 3003 3004 am
  2234 3004 3006 1
  2235 3004 3005 2
  2236 3006 3007 2
  2237 2966 2988 1
  2238 3018 3021 1
  2239 3018 3020 1
  2240 3018 3019 1
  2241 3021 3022 1
  2242 3022 3023 1
  2243 3023 3025 1
  2244 3023 3024 1
  2245 3024 3029 1
  2246 3025 3026 1
  2247 3025 3027 1
  2248 3027 3028 1
  2249 3027 3029 1
  2250 3029 3030 1
  2251 3030 3037 1
  2252 3030 3031 am
  2253 3031 3032 2
  2254 3031 3033 1
  2255 3033 3034 2
  2256 3034 3036 2
  2257 3034 3035 2
  2258 3036 3037 2
  2259 2996 3018 1
  2260 3049 3052 1
  2261 3049 3050 1
  2262 3049 3051 1
  2263 3052 3053 1
  2264 3053 3054 1
  2265 3054 3056 1
  2266 3054 3055 1
  2267 3055 3060 1
  2268 3056 3058 1
  2269 3056 3057 1
  2270 3058 3059 1
  2271 3058 3060 1
  2272 3060 3061 1
  2273 3061 3062 am
  2274 3061 3068 1
  2275 3062 3063 2
  2276 3062 3064 am
  2277 3064 3065 am
  2278 3065 3067 1
  2279 3065 3066 2
  2280 3067 3068 2
  2281 3026 3049 1
  2282 3079 3080 1
  2283 3079 3081 1
  2284 3079 3082 1
  2285 3082 3083 1
  2286 3083 3084 1
  2287 3084 3086 1
  2288 3084 3085 1
  2289 3085 3090 1
  2290 3086 3088 1
  2291 3086 3087 1
  2292 3088 3090 1
  2293 3088 3089 1
  2294 3090 3091 1
  2295 3091 3101 ar
  2296 3091 3092 ar
  2297 3092 3093 ar
  2298 3093 3094 ar
  2299 3094 3101 ar
  2300 3094 3095 1
  2301 3095 3096 2
  2302 3095 3097 am
  2303 3097 3098 1
  2304 3098 3099 2
  2305 3098 3100 2
  2306 3100 3101 1
  2307 3057 3079 1
  2308 3113 3116 1
  2309 3113 3115 1
  2310 3113 3114 1
  2311 3116 3117 1
  2312 3117 3118 1
  2313 3118 3120 1
  2314 3118 3119 1
  2315 3119 3124 1
  2316 3120 3121 1
  2317 3120 3122 1
  2318 3122 3123 1
  2319 3122 3124 1
  2320 3124 3125 1
  2321 3125 3132 1
  2322 3125 3126 am
  2323 3126 3127 2
  2324 3126 3128 1
  2325 3128 3129 2
  2326 3129 3131 2
  2327 3129 3130 2
  2328 3131 3132 2
  2329 3087 3113 1
  2330 3144 3145 1
  2331 3144 3146 1
  2332 3144 3147 1
  2333 3147 3148 1
  2334 3148 3149 1
  2335 3149 3151 1
  2336 3149 3150 1
  2337 3150 3155 1
  2338 3151 3153 1
  2339 3151 3152 1
  2340 3153 3155 1
  2341 3153 3154 1
  2342 3155 3156 1
  2343 3156 3166 ar
  2344 3156 3157 ar
  2345 3157 3158 ar
  2346 3158 3159 ar
  2347 3159 3166 ar
  2348 3159 3160 1
  2349 3160 3161 2
  2350 3160 3162 am
  2351 3162 3163 1
  2352 3163 3164 2
  2353 3163 3165 2
  2354 3165 3166 1
  2355 3121 3144 1
  2356 3178 3181 1
  2357 3178 3179 1
  2358 3178 3180 1
  2359 3181 3182 1
  2360 3182 3183 1
  2361 3183 3185 1
  2362 3183 3184 1
  2363 3184 3189 1
  2364 3185 3187 1
  2365 3185 3186 1
  2366 3187 3188 1
  2367 3187 3189 1
  2368 3189 3190 1
  2369 3190 3191 am
  2370 3190 3197 1
  2371 3191 3192 2
  2372 3191 3193 am
  2373 3193 3194 am
  2374 3194 3196 1
  2375 3194 3195 2
  2376 3196 3197 2
  2377 3152 3178 1
  2378 3208 3209 1
  2379 3208 3210 1
  2380 3208 3211 1
  2381 3211 3212 1
  2382 3212 3213 1
  2383 3213 3215 1
  2384 3213 3214 1
  2385 3214 3219 1
  2386 3215 3217 1
  2387 3215 3216 1
  2388 3217 3219 1
  2389 3217 3218 1
  2390 3219 3220 1
  2391 3220 3230 ar
  2392 3220 3221 ar
  2393 3221 3222 ar
  2394 3222 3223 ar
  2395 3223 3230 ar
  2396 3223 3224 1
  2397 3224 3225 2
  2398 3224 3226 am
  2399 3226 3227 1
  2400 3227 3228 2
  2401 3227 3229 2
  2402 3229 3230 1
  2403 3186 3208 1
  2404 3242 3244 1
  2405 3242 3243 1
  2406 3242 3245 1
  2407 3245 3246 1
  2408 3246 3247 1
  2409 3247 3249 1
  2410 3247 3248 1
  2411 3248 3253 1
  2412 3249 3251 1
  2413 3249 3250 1
  2414 3251 3252 1
  2415 3251 3253 1
  2416 3253 3254 1
  2417 3254 3255 ar
  2418 3254 3263 ar
  2419 3255 3256 ar
  2420 3256 3257 ar
  2421 3257 3263 ar
  2422 3257 3258 ar
  2423 3258 3259 1
  2424 3258 3260 ar
  2425 3260 3261 ar
  2426 3261 3262 ar
  2427 3262 3263 ar
  2428 3216 3242 1
  2429 3275 3277 1
  2430 3275 3276 1
  2431 3275 3278 1
  2432 3278 3279 1
  2433 3279 3280 1
  2434 3280 3282 1
  2435 3280 3281 1
  2436 3281 3286 1
  2437 3282 3284 1
  2438 3282 3283 1
  2439 3284 3285 1
  2440 3284 3286 1
  2441 3286 3287 1
  2442 3287 3288 ar
  2443 3287 3296 ar
  2444 3288 3289 ar
  2445 3289 3290 ar
  2446 3290 3296 ar
  2447 3290 3291 ar
  2448 3291 3292 1
  2449 3291 3293 ar
  2450 3293 3294 ar
  2451 3294 3295 ar
  2452 3295 3296 ar
  2453 3250 3275 1
  2454 3308 3309 1
  2455 3308 3310 1
  2456 3308 3311 1
  2457 3311 3312 1
  2458 3312 3313 1
  2459 3313 3315 1
  2460 3313 3314 1
  2461 3314 3319 1
  2462 3315 3317 1
  2463 3315 3316 1
  2464 3317 3319 1
  2465 3317 3318 1
  2466 3319 3320 1
  2467 3320 3330 ar
  2468 3320 3321 ar
  2469 3321 3322 ar
  2470 3322 3323 ar
  2471 3323 3330 ar
  2472 3323 3324 1
  2473 3324 3325 2
  2474 3324 3326 am
  2475 3326 3327 1
  2476 3327 3328 2
  2477 3327 3329 2
  2478 3329 3330 1
  2479 3283 3308 1
  2480 3342 3343 1
  2481 3342 3344 1
  2482 3342 3345 1
  2483 3345 3346 1
  2484 3346 3347 1
  2485 3347 3349 1
  2486 3347 3348 1
  2487 3348 3353 1
  2488 3349 3351 1
  2489 3349 3350 1
  2490 3351 3353 1
  2491 3351 3352 1
  2492 3353 3354 1
  2493 3354 3364 ar
  2494 3354 3355 ar
  2495 3355 3356 ar
  2496 3356 3357 ar
  2497 3357 3364 ar
  2498 3357 3358 1
  2499 3358 3359 2
  2500 3358 3360 am
  2501 3360 3361 1
  2502 3361 3362 2
  2503 3361 3363 2
  2504 3363 3364 1
  2505 3316 3342 1
  2506 3376 3379 1
  2507 3376 3378 1
  2508 3376 3377 1
  2509 3379 3380 1
  2510 3380 3381 1
  2511 3381 3383 1
  2512 3381 3382 1
  2513 3382 3387 1
  2514 3383 3384 1
  2515 3383 3385 1
  2516 3385 3386 1
  2517 3385 3387 1
  2518 3387 3388 1
  2519 3388 3395 1
  2520 3388 3389 am
  2521 3389 3390 2
  2522 3389 3391 1
  2523 3391 3392 2
  2524 3392 3394 2
  2525 3392 3393 2
  2526 3394 3395 2
  2527 3350 3376 1
  2528 3407 3410 1
  2529 3407 3408 1
  2530 3407 3409 1
  2531 3410 3411 1
  2532 3411 3412 1
  2533 3412 3414 1
  2534 3412 3413 1
  2535 3413 3418 1
  2536 3414 3416 1
  2537 3414 3415 1
  2538 3416 3417 1
  2539 3416 3418 1
  2540 3418 3419 1
  2541 3419 3420 am
  2542 3419 3426 1
  2543 3420 3421 2
  2544 3420 3422 am
  2545 3422 3423 am
  2546 3423 3425 1
  2547 3423 3424 2
  2548 3425 3426 2
  2549 3384 3407 1
  2550 3437 3438 1
  2551 3437 3439 1
  2552 3437 3440 1
  2553 3440 3441 1
  2554 3441 3442 1
  2555 3442 3444 1
  2556 3442 3443 1
  2557 3443 3448 1
  2558 3444 3446 1
  2559 3444 3445 1
  2560 3446 3448 1
  2561 3446 3447 1
  2562 3448 3449 1
  2563 3449 3459 ar
  2564 3449 3450 ar
  2565 3450 3451 ar
  2566 3451 3452 ar
  2567 3452 3459 ar
  2568 3452 3453 1
  2569 3453 3454 2
  2570 3453 3455 am
  2571 3455 3456 1
  2572 3456 3457 2
  2573 3456 3458 2
  2574 3458 3459 1
  2575 3415 3437 1
  2576 3471 3473 1
  2577 3471 3472 1
  2578 3471 3474 1
  2579 3474 3475 1
  2580 3475 3476 1
  2581 3476 3478 1
  2582 3476 3477 1
  2583 3477 3482 1
  2584 3478 3480 1
  2585 3478 3479 1
  2586 3480 3481 1
  2587 3480 3482 1
  2588 3482 3483 1
  2589 3483 3484 ar
  2590 3483 3492 ar
  2591 3484 3485 ar
  2592 3485 3486 ar
  2593 3486 3492 ar
  2594 3486 3487 ar
  2595 3487 3488 1
  2596 3487 3489 ar
  2597 3489 3490 ar
  2598 3490 3491 ar
  2599 3491 3492 ar
  2600 3445 3471 1
  2601 3504 3505 1
  2602 3504 3506 1
  2603 3504 3507 1
  2604 3507 3508 1
  2605 3508 3509 1
  2606 3509 3511 1
  2607 3509 3510 1
  2608 3510 3515 1
  2609 3511 3513 1
  2610 3511 3512 1
  2611 3513 3515 1
  2612 3513 3514 1
  2613 3515 3516 1
  2614 3516 3526 ar
  2615 3516 3517 ar
  2616 3517 3518 ar
  2617 3518 3519 ar
  2618 3519 3526 ar
  2619 3519 3520 1
  2620 3520 3521 2
  2621 3520 3522 am
  2622 3522 3523 1
  2623 3523 3524 2
  2624 3523 3525 2
  2625 3525 3526 1
  2626 3479 3504 1
  2627 3538 3540 1
  2628 3538 3539 1
  2629 3538 3541 1
  2630 3541 3542 1
  2631 3542 3543 1
  2632 3543 3545 1
  2633 3543 3544 1
  2634 3544 3549 1
  2635 3545 3547 1
  2636 3545 3546 1
  2637 3547 3548 1
  2638 3547 3549 1
  2639 3549 3550 1
  2640 3550 3551 ar
  2641 3550 3559 ar
  2642 3551 3552 ar
  2643 3552 3553 ar
  2644 3553 3559 ar
  2645 3553 3554 ar
  2646 3554 3555 1
  2647 3554 3556 ar
  2648 3556 3557 ar
  2649 3557 3558 ar
  2650 3558 3559 ar
  2651 3512 3538 1
  2652 3571 3573 1
  2653 3571 3572 1
  2654 3571 3574 1
  2655 3574 3575 1
  2656 3575 3576 1
  2657 3576 3578 1
  2658 3576 3577 1
  2659 3577 3582 1
  2660 3578 3580 1
  2661 3578 3579 1
  2662 3580 3581 1
  2663 3580 3582 1
  2664 3582 3583 1
  2665 3583 3584 ar
  2666 3583 3592 ar
  2667 3584 3585 ar
  2668 3585 3586 ar
  2669 3586 3592 ar
  2670 3586 3587 ar
  2671 3587 3588 1
  2672 3587 3589 ar
  2673 3589 3590 ar
  2674 3590 3591 ar
  2675 3591 3592 ar
  2676 3546 3571 1
  2677 3604 3606 1
  2678 3604 3605 1
  2679 3604 3607 1
  2680 3607 3608 1
  2681 3608 3609 1
  2682 3609 3611 1
  2683 3609 3610 1
  2684 3610 3615 1
  2685 3611 3613 1
  2686 3611 3612 1
  2687 3613 3614 1
  2688 3613 3615 1
  2689 3615 3616 1
  2690 3616 3617 ar
  2691 3616 3625 ar
  2692 3617 3618 ar
  2693 3618 3619 ar
  2694 3619 3625 ar
  2695 3619 3620 ar
  2696 3620 3621 1
  2697 3620 3622 ar
  2698 3622 3623 ar
  2699 3623 3624 ar
  2700 3624 3625 ar
  2701 3579 3604 1
  2702 3637 3640 1
  2703 3637 3638 1
  2704 3637 3639 1
  2705 3640 3641 1
  2706 3641 3642 1
  2707 3642 3644 1
  2708 3642 3643 1
  2709 3643 3648 1
  2710 3644 3646 1
  2711 3644 3645 1
  2712 3646 3647 1
  2713 3646 3648 1
  2714 3648 3649 1
  2715 3649 3650 am
  2716 3649 3656 1
  2717 3650 3651 2
  2718 3650 3652 am
  2719 3652 3653 am
  2720 3653 3655 1
  2721 3653 3654 2
  2722 3655 3656 2
  2723 3612 3637 1
  2724 3667 3669 1
  2725 3667 3668 1
  2726 3667 3670 1
  2727 3670 3671 1
  2728 3671 3672 1
  2729 3672 3674 1
  2730 3672 3673 1
  2731 3673 3678 1
  2732 3674 3676 1
  2733 3674 3675 1
  2734 3676 3677 1
  2735 3676 3678 1
  2736 3678 3679 1
  2737 3679 3680 ar
  2738 3679 3688 ar
  2739 3680 3681 ar
  2740 3681 3682 ar
  2741 3682 3688 ar
  2742 3682 3683 ar
  2743 3683 3684 1
  2744 3683 3685 ar
  2745 3685 3686 ar
  2746 3686 3687 ar
  2747 3687 3688 ar
  2748 3645 3667 1
  2749 3700 3703 1
  2750 3700 3702 1
  2751 3700 3701 1
  2752 3703 3704 1
  2753 3704 3705 1
  2754 3705 3707 1
  2755 3705 3706 1
  2756 3706 3711 1
  2757 3707 3708 1
  2758 3707 3709 1
  2759 3709 3710 1
  2760 3709 3711 1
  2761 3711 3712 1
  2762 3712 3719 1
  2763 3712 3713 am
  2764 3713 3714 2
  2765 3713 3715 1
  2766 3715 3716 2
  2767 3716 3718 2
  2768 3716 3717 2
  2769 3718 3719 2
  2770 3675 3700 1
  2771 3731 3734 1
  2772 3731 3733 1
  2773 3731 3732 1
  2774 3734 3735 1
  2775 3735 3736 1
  2776 3736 3738 1
  2777 3736 3737 1
  2778 3737 3742 1
  2779 3738 3739 1
  2780 3738 3740 1
  2781 3740 3741 1
  2782 3740 3742 1
  2783 3742 3743 1
  2784 3743 3750 1
  2785 3743 3744 am
  2786 3744 3745 2
  2787 3744 3746 1
  2788 3746 3747 2
  2789 3747 3749 2
  2790 3747 3748 2
  2791 3749 3750 2
  2792 3708 3731 1
  2793 3762 3765 1
  2794 3762 3764 1
  2795 3762 3763 1
  2796 3765 3766 1
  2797 3766 3767 1
  2798 3767 3769 1
  2799 3767 3768 1
  2800 3768 3773 1
  2801 3769 3770 1
  2802 3769 3771 1
  2803 3771 3772 1
  2804 3771 3773 1
  2805 3773 3774 1
  2806 3774 3781 1
  2807 3774 3775 am
  2808 3775 3776 2
  2809 3775 3777 1
  2810 3777 3778 2
  2811 3778 3780 2
  2812 3778 3779 2
  2813 3780 3781 2
  2814 3739 3762 1
  2815 3793 3794 1
  2816 3793 3795 1
  2817 3793 3796 1
  2818 3796 3797 1
  2819 3797 3798 1
  2820 3798 3800 1
  2821 3798 3799 1
  2822 3799 3804 1
  2823 3800 3802 1
  2824 3800 3801 1
  2825 3802 3804 1
  2826 3802 3803 1
  2827 3804 3805 1
  2828 3805 3815 ar
  2829 3805 3806 ar
  2830 3806 3807 ar
  2831 3807 3808 ar
  2832 3808 3815 ar
  2833 3808 3809 1
  2834 3809 3810 2
  2835 3809 3811 am
  2836 3811 3812 1
  2837 3812 3813 2
  2838 3812 3814 2
  2839 3814 3815 1
  2840 3770 3793 1
  2841 3827 3830 1
  2842 3827 3828 1
  2843 3827 3829 1
  2844 3830 3831 1
  2845 3831 3832 1
  2846 3832 3834 1
  2847 3832 3833 1
  2848 3833 3838 1
  2849 3834 3836 1
  2850 3834 3835 1
  2851 3836 3837 1
  2852 3836 3838 1
  2853 3838 3839 1
  2854 3839 3840 am
  2855 3839 3846 1
  2856 3840 3841 2
  2857 3840 3842 am
  2858 3842 3843 am
  2859 3843 3845 1
  2860 3843 3844 2
  2861 3845 3846 2
  2862 3801 3827 1
  2863 3857 3859 1
  2864 3857 3858 1
  2865 3857 3860 1
  2866 3860 3861 1
  2867 3861 3862 1
  2868 3862 3864 1
  2869 3862 3863 1
  2870 3863 3868 1
  2871 3864 3866 1
  2872 3864 3865 1
  2873 3866 3867 1
  2874 3866 3868 1
  2875 3868 3869 1
  2876 3869 3870 ar
  2877 3869 3878 ar
  2878 3870 3871 ar
  2879 3871 3872 ar
  2880 3872 3878 ar
  2881 3872 3873 ar
  2882 3873 3874 1
  2883 3873 3875 ar
  2884 3875 3876 ar
  2885 3876 3877 ar
  2886 3877 3878 ar
  2887 3835 3857 1
  2888 3890 3893 1
  2889 3890 3891 1
  2890 3890 3892 1
  2891 3893 3894 1
  2892 3894 3895 1
  2893 3895 3897 1
  2894 3895 3896 1
  2895 3896 3901 1
  2896 3897 3899 1
  2897 3897 3898 1
  2898 3899 3900 1
  2899 3899 3901 1
  2900 3901 3902 1
  2901 3902 3903 am
  2902 3902 3909 1
  2903 3903 3904 2
  2904 3903 3905 am
  2905 3905 3906 am
  2906 3906 3908 1
  2907 3906 3907 2
  2908 3908 3909 2
  2909 3865 3890 1
  2910 3920 3923 1
  2911 3920 3922 1
  2912 3920 3921 1
  2913 3923 3924 1
  2914 3924 3925 1
  2915 3925 3927 1
  2916 3925 3926 1
  2917 3926 3931 1
  2918 3927 3928 1
  2919 3927 3929 1
  2920 3929 3930 1
  2921 3929 3931 1
  2922 3931 3932 1
  2923 3932 3939 1
  2924 3932 3933 am
  2925 3933 3934 2
  2926 3933 3935 1
  2927 3935 3936 2
  2928 3936 3938 2
  2929 3936 3937 2
  2930 3938 3939 2
  2931 3898 3920 1
  2932 3951 3953 1
  2933 3951 3952 1
  2934 3951 3954 1
  2935 3954 3955 1
  2936 3955 3956 1
  2937 3956 3958 1
  2938 3956 3957 1
  2939 3957 3962 1
  2940 3958 3960 1
  2941 3958 3959 1
  2942 3960 3961 1
  2943 3960 3962 1
  2944 3962 3963 1
  2945 3963 3964 ar
  2946 3963 3972 ar
  2947 3964 3965 ar
  2948 3965 3966 ar
  2949 3966 3972 ar
  2950 3966 3967 ar
  2951 3967 3968 1
  2952 3967 3969 ar
  2953 3969 3970 ar
  2954 3970 3971 ar
  2955 3971 3972 ar
  2956 3928 3951 1
  2957 3984 3987 1
  2958 3984 3986 1
  2959 3984 3985 1
  2960 3987 3988 1
  2961 3988 3989 1
  2962 3989 3991 1
  2963 3989 3990 1
  2964 3990 3995 1
  2965 3991 3992 1
  2966 3991 3993 1
  2967 3993 3994 1
  2968 3993 3995 1
  2969 3995 3996 1
  2970 3996 4003 1
  2971 3996 3997 am
  2972 3997 3998 2
  2973 3997 3999 1
  2974 3999 4000 2
  2975 4000 4002 2
  2976 4000 4001 2
  2977 4002 4003 2
  2978 3959 3984 1
  2979 4015 4018 1
  2980 4015 4017 1
  2981 4015 4016 1
  2982 4018 4019 1
  2983 4019 4020 1
  2984 4020 4022 1
  2985 4020 4021 1
  2986 4021 4026 1
  2987 4022 4023 1
  2988 4022 4024 1
  2989 4024 4025 1
  2990 4024 4026 1
  2991 4026 4027 1
  2992 4027 4034 1
  2993 4027 4028 am
  2994 4028 4029 2
  2995 4028 4030 1
  2996 4030 4031 2
  2997 4031 4033 2
  2998 4031 4032 2
  2999 4033 4034 2
  3000 3992 4015 1
  3001 4046 4049 1
  3002 4046 4047 1
  3003 4046 4048 1
  3004 4049 4050 1
  3005 4050 4051 1
  3006 4051 4053 1
  3007 4051 4052 1
  3008 4052 4057 1
  3009 4053 4055 1
  3010 4053 4054 1
  3011 4055 4056 1
  3012 4055 4057 1
  3013 4057 4058 1
  3014 4058 4059 am
  3015 4058 4065 1
  3016 4059 4060 2
  3017 4059 4061 am
  3018 4061 4062 am
  3019 4062 4064 1
  3020 4062 4063 2
  3021 4064 4065 2
  3022 4023 4046 1
  3023 4076 4077 1
  3024 4076 4078 1
  3025 4076 4079 1
  3026 4079 4080 1
  3027 4080 4081 1
  3028 4081 4083 1
  3029 4081 4082 1
  3030 4082 4087 1
  3031 4083 4085 1
  3032 4083 4084 1
  3033 4085 4087 1
  3034 4085 4086 1
  3035 4087 4088 1
  3036 4088 4098 ar
  3037 4088 4089 ar
  3038 4089 4090 ar
  3039 4090 4091 ar
  3040 4091 4098 ar
  3041 4091 4092 1
  3042 4092 4093 2
  3043 4092 4094 am
  3044 4094 4095 1
  3045 4095 4096 2
  3046 4095 4097 2
  3047 4097 4098 1
  3048 4054 4076 1
  3049 4110 4112 1
  3050 4110 4111 1
  3051 4110 4113 1
  3052 4113 4114 1
  3053 4114 4115 1
  3054 4115 4117 1
  3055 4115 4116 1
  3056 4116 4121 1
  3057 4117 4119 1
  3058 4117 4118 1
  3059 4119 4120 1
  3060 4119 4121 1
  3061 4121 4122 1
  3062 4122 4123 ar
  3063 4122 4131 ar
  3064 4123 4124 ar
  3065 4124 4125 ar
  3066 4125 4131 ar
  3067 4125 4126 ar
  3068 4126 4127 1
  3069 4126 4128 ar
  3070 4128 4129 ar
  3071 4129 4130 ar
  3072 4130 4131 ar
  3073 4084 4110 1
  3074 4143 4146 1
  3075 4143 4144 1
  3076 4143 4145 1
  3077 4146 4147 1
  3078 4147 4148 1
  3079 4148 4150 1
  3080 4148 4149 1
  3081 4149 4154 1
  3082 4150 4152 1
  3083 4150 4151 1
  3084 4152 4153 1
  3085 4152 4154 1
  3086 4154 4155 1
  3087 4155 4156 am
  3088 4155 4162 1
  3089 4156 4157 2
  3090 4156 4158 am
  3091 4158 4159 am
  3092 4159 4161 1
  3093 4159 4160 2
  3094 4161 4162 2
  3095 4118 4143 1
  3096 4173 4176 1
  3097 4173 4175 1
  3098 4173 4174 1
  3099 4176 4177 1
  3100 4177 4178 1
  3101 4178 4180 1
  3102 4178 4179 1
  3103 4179 4184 1
  3104 4180 4181 1
  3105 4180 4182 1
  3106 4182 4183 1
  3107 4182 4184 1
  3108 4184 4185 1
  3109 4185 4192 1
  3110 4185 4186 am
  3111 4186 4187 2
  3112 4186 4188 1
  3113 4188 4189 2
  3114 4189 4191 2
  3115 4189 4190 2
  3116 4191 4192 2
  3117 4151 4173 1
  3118 4204 4207 1
  3119 4204 4205 1
  3120 4204 4206 1
  3121 4207 4208 1
  3122 4208 4209 1
  3123 4209 4211 1
  3124 4209 4210 1
  3125 4210 4215 1
  3126 4211 4213 1
  3127 4211 4212 1
  3128 4213 4214 1
  3129 4213 4215 1
  3130 4215 4216 1
  3131 4216 4217 am
  3132 4216 4223 1
  3133 4217 4218 2
  3134 4217 4219 am
  3135 4219 4220 am
  3136 4220 4222 1
  3137 4220 4221 2
  3138 4222 4223 2
  3139 4181 4204 1
  3140 4234 4235 1
  3141 4234 4236 1
  3142 4234 4237 1
  3143 4237 4238 1
  3144 4238 4239 1
  3145 4239 4241 1
  3146 4239 4240 1
  3147 4240 4245 1
  3148 4241 4243 1
  3149 4241 4242 1
  3150 4243 4245 1
  3151 4243 4244 1
  3152 4245 4246 1
  3153 4246 4256 ar
  3154 4246 4247 ar
  3155 4247 4248 ar
  3156 4248 4249 ar
  3157 4249 4256 ar
  3158 4249 4250 1
  3159 4250 4251 2
  3160 4250 4252 am
  3161 4252 4253 1
  3162 4253 4254 2
  3163 4253 4255 2
  3164 4255 4256 1
  3165 4212 4234 1
  3166 4268 4269 1
  3167 4268 4270 1
  3168 4268 4271 1
  3169 4271 4272 1
  3170 4272 4273 1
  3171 4273 4275 1
  3172 4273 4274 1
  3173 4274 4279 1
  3174 4275 4277 1
  3175 4275 4276 1
  3176 4277 4279 1
  3177 4277 4278 1
  3178 4279 4280 1
  3179 4280 4290 ar
  3180 4280 4281 ar
  3181 4281 4282 ar
  3182 4282 4283 ar
  3183 4283 4290 ar
  3184 4283 4284 1
  3185 4284 4285 2
  3186 4284 4286 am
  3187 4286 4287 1
  3188 4287 4288 2
  3189 4287 4289 2
  3190 4289 4290 1
  3191 4242 4268 1
  3192 4302 4304 1
  3193 4302 4303 1
  3194 4302 4305 1
  3195 4305 4306 1
  3196 4306 4307 1
  3197 4307 4309 1
  3198 4307 4308 1
  3199 4308 4313 1
  3200 4309 4311 1
  3201 4309 4310 1
  3202 4311 4312 1
  3203 4311 4313 1
  3204 4313 4314 1
  3205 4314 4315 ar
  3206 4314 4323 ar
  3207 4315 4316 ar
  3208 4316 4317 ar
  3209 4317 4323 ar
  3210 4317 4318 ar
  3211 4318 4319 1
  3212 4318 4320 ar
  3213 4320 4321 ar
  3214 4321 4322 ar
  3215 4322 4323 ar
  3216 4276 4302 1
  3217 4335 4338 1
  3218 4335 4336 1
  3219 4335 4337 1
  3220 4338 4339 1
  3221 4339 4340 1
  3222 4340 4342 1
  3223 4340 4341 1
  3224 4341 4346 1
  3225 4342 4344 1
  3226 4342 4343 1
  3227 4344 4345 1
  3228 4344 4346 1
  3229 4346 4347 1
  3230 4347 4348 am
  3231 4347 4354 1
  3232 4348 4349 2
  3233 4348 4350 am
  3234 4350 4351 am
  3235 4351 4353 1
  3236 4351 4352 2
  3237 4353 4354 2
  3238 4310 4335 1
  3239 4365 4367 1
  3240 4365 4366 1
  3241 4365 4368 1
  3242 4368 4369 1
  3243 4369 4370 1
  3244 4370 4372 1
  3245 4370 4371 1
  3246 4371 4376 1
  3247 4372 4374 1
  3248 4372 4373 1
  3249 4374 4375 1
  3250 4374 4376 1
  3251 4376 4377 1
  3252 4377 4378 ar
  3253 4377 4386 ar
  3254 4378 4379 ar
  3255 4379 4380 ar
  3256 4380 4386 ar
  3257 4380 4381 ar
  3258 4381 4382 1
  3259 4381 4383 ar
  3260 4383 4384 ar
  3261 4384 4385 ar
  3262 4385 4386 ar
  3263 4343 4365 1
  3264 4398 4400 1
  3265 4398 4399 1
  3266 4398 4401 1
  3267 4401 4402 1
  3268 4402 4403 1
  3269 4403 4405 1
  3270 4403 4404 1
  3271 4404 4409 1
  3272 4405 4407 1
  3273 4405 4406 1
  3274 4407 4408 1
  3275 4407 4409 1
  3276 4409 4410 1
  3277 4410 4411 ar
  3278 4410 4419 ar
  3279 4411 4412 ar
  3280 4412 4413 ar
  3281 4413 4419 ar
  3282 4413 4414 ar
  3283 4414 4415 1
  3284 4414 4416 ar
  3285 4416 4417 ar
  3286 4417 4418 ar
  3287 4418 4419 ar
  3288 4373 4398 1
  3289 4431 4434 1
  3290 4431 4432 1
  3291 4431 4433 1
  3292 4434 4435 1
  3293 4435 4436 1
  3294 4436 4438 1
  3295 4436 4437 1
  3296 4437 4442 1
  3297 4438 4440 1
  3298 4438 4439 1
  3299 4440 4441 1
  3300 4440 4442 1
  3301 4442 4443 1
  3302 4443 4444 am
  3303 4443 4450 1
  3304 4444 4445 2
  3305 4444 4446 am
  3306 4446 4447 am
  3307 4447 4449 1
  3308 4447 4448 2
  3309 4449 4450 2
  3310 4406 4431 1
  3311 4461 4462 1
  3312 4461 4463 1
  3313 4461 4464 1
  3314 4464 4465 1
  3315 4465 4466 1
  3316 4466 4468 1
  3317 4466 4467 1
  3318 4467 4472 1
  3319 4468 4470 1
  3320 4468 4469 1
  3321 4470 4472 1
  3322 4470 4471 1
  3323 4472 4473 1
  3324 4473 4483 ar
  3325 4473 4474 ar
  3326 4474 4475 ar
  3327 4475 4476 ar
  3328 4476 4483 ar
  3329 4476 4477 1
  3330 4477 4478 2
  3331 4477 4479 am
  3332 4479 4480 1
  3333 4480 4481 2
  3334 4480 4482 2
  3335 4482 4483 1
  3336 4439 4461 1
  3337 4495 4498 1
  3338 4495 4497 1
  3339 4495 4496 1
  3340 4498 4499 1
  3341 4499 4500 1
  3342 4500 4502 1
  3343 4500 4501 1
  3344 4501 4506 1
  3345 4502 4503 1
  3346 4502 4504 1
  3347 4504 4505 1
  3348 4504 4506 1
  3349 4506 4507 1
  3350 4507 4514 1
  3351 4507 4508 am
  3352 4508 4509 2
  3353 4508 4510 1
  3354 4510 4511 2
  3355 4511 4513 2
  3356 4511 4512 2
  3357 4513 4514 2
  3358 4469 4495 1
  3359 4526 4529 1
  3360 4526 4528 1
  3361 4526 4527 1
  3362 4529 4530 1
  3363 4530 4531 1
  3364 4531 4533 1
  3365 4531 4532 1
  3366 4532 4537 1
  3367 4533 4534 1
  3368 4533 4535 1
  3369 4535 4536 1
  3370 4535 4537 1
  3371 4537 4538 1
  3372 4538 4545 1
  3373 4538 4539 am
  3374 4539 4540 2
  3375 4539 4541 1
  3376 4541 4542 2
  3377 4542 4544 2
  3378 4542 4543 2
  3379 4544 4545 2
  3380 4503 4526 1
  3381 4557 4559 1
  3382 4557 4558 1
  3383 4557 4560 1
  3384 4560 4561 1
  3385 4561 4562 1
  3386 4562 4564 1
  3387 4562 4563 1
  3388 4563 4568 1
  3389 4564 4566 1
  3390 4564 4565 1
  3391 4566 4567 1
  3392 4566 4568 1
  3393 4568 4569 1
  3394 4569 4570 ar
  3395 4569 4578 ar
  3396 4570 4571 ar
  3397 4571 4572 ar
  3398 4572 4578 ar
  3399 4572 4573 ar
  3400 4573 4574 1
  3401 4573 4575 ar
  3402 4575 4576 ar
  3403 4576 4577 ar
  3404 4577 4578 ar
  3405 4534 4557 1
  3406 4590 4591 1
  3407 4590 4592 1
  3408 4590 4593 1
  3409 4593 4594 1
  3410 4594 4595 1
  3411 4595 4597 1
  3412 4595 4596 1
  3413 4596 4601 1
  3414 4597 4599 1
  3415 4597 4598 1
  3416 4599 4601 1
  3417 4599 4600 1
  3418 4601 4602 1
  3419 4602 4612 ar
  3420 4602 4603 ar
  3421 4603 4604 ar
  3422 4604 4605 ar
  3423 4605 4612 ar
  3424 4605 4606 1
  3425 4606 4607 2
  3426 4606 4608 am
  3427 4608 4609 1
  3428 4609 4610 2
  3429 4609 4611 2
  3430 4611 4612 1
  3431 4565 4590 1
  3432 4624 4627 1
  3433 4624 4626 1
  3434 4624 4625 1
  3435 4627 4628 1
  3436 4628 4629 1
  3437 4629 4631 1
  3438 4629 4630 1
  3439 4630 4635 1
  3440 4631 4632 1
  3441 4631 4633 1
  3442 4633 4634 1
  3443 4633 4635 1
  3444 4635 4636 1
  3445 4636 4643 1
  3446 4636 4637 am
  3447 4637 4638 2
  3448 4637 4639 1
  3449 4639 4640 2
  3450 4640 4642 2
  3451 4640 4641 2
  3452 4642 4643 2
  3453 4598 4624 1
  3454 4655 4656 1
  3455 4655 4657 1
  3456 4655 4658 1
  3457 4658 4659 1
  3458 4659 4660 1
  3459 4660 4662 1
  3460 4660 4661 1
  3461 4661 4666 1
  3462 4662 4664 1
  3463 4662 4663 1
  3464 4664 4666 1
  3465 4664 4665 1
  3466 4666 4667 1
  3467 4667 4677 ar
  3468 4667 4668 ar
  3469 4668 4669 ar
  3470 4669 4670 ar
  3471 4670 4677 ar
  3472 4670 4671 1
  3473 4671 4672 2
  3474 4671 4673 am
  3475 4673 4674 1
  3476 4674 4675 2
  3477 4674 4676 2
  3478 4676 4677 1
  3479 4632 4655 1
  3480 4689 4692 1
  3481 4689 4690 1
  3482 4689 4691 1
  3483 4692 4693 1
  3484 4693 4694 1
  3485 4694 4696 1
  3486 4694 4695 1
  3487 4695 4700 1
  3488 4696 4698 1
  3489 4696 4697 1
  3490 4698 4699 1
  3491 4698 4700 1
  3492 4700 4701 1
  3493 4701 4702 am
  3494 4701 4708 1
  3495 4702 4703 2
  3496 4702 4704 am
  3497 4704 4705 am
  3498 4705 4707 1
  3499 4705 4706 2
  3500 4707 4708 2
  3501 4663 4689 1
  3502 4719 4721 1
  3503 4719 4720 1
  3504 4719 4722 1
  3505 4722 4723 1
  3506 4723 4724 1
  3507 4724 4726 1
  3508 4724 4725 1
  3509 4725 4730 1
  3510 4726 4728 1
  3511 4726 4727 1
  3512 4728 4729 1
  3513 4728 4730 1
  3514 4730 4731 1
  3515 4731 4732 ar
  3516 4731 4740 ar
  3517 4732 4733 ar
  3518 4733 4734 ar
  3519 4734 4740 ar
  3520 4734 4735 ar
  3521 4735 4736 1
  3522 4735 4737 ar
  3523 4737 4738 ar
  3524 4738 4739 ar
  3525 4739 4740 ar
  3526 4697 4719 1
  3527 4752 4753 1
  3528 4752 4754 1
  3529 4752 4755 1
  3530 4755 4756 1
  3531 4756 4757 1
  3532 4757 4759 1
  3533 4757 4758 1
  3534 4758 4763 1
  3535 4759 4761 1
  3536 4759 4760 1
  3537 4761 4763 1
  3538 4761 4762 1
  3539 4763 4764 1
  3540 4764 4774 ar
  3541 4764 4765 ar
  3542 4765 4766 ar
  3543 4766 4767 ar
  3544 4767 4774 ar
  3545 4767 4768 1
  3546 4768 4769 2
  3547 4768 4770 am
  3548 4770 4771 1
  3549 4771 4772 2
  3550 4771 4773 2
  3551 4773 4774 1
  3552 4727 4752 1
  3553 4786 4787 1
  3554 4786 4788 1
  3555 4786 4789 1
  3556 4789 4790 1
  3557 4790 4791 1
  3558 4791 4793 1
  3559 4791 4792 1
  3560 4792 4797 1
  3561 4793 4795 1
  3562 4793 4794 1
  3563 4795 4797 1
  3564 4795 4796 1
  3565 4797 4798 1
  3566 4798 4808 ar
  3567 4798 4799 ar
  3568 4799 4800 ar
  3569 4800 4801 ar
  3570 4801 4808 ar
  3571 4801 4802 1
  3572 4802 4803 2
  3573 4802 4804 am
  3574 4804 4805 1
  3575 4805 4806 2
  3576 4805 4807 2
  3577 4807 4808 1
  3578 4760 4786 1
  3579 4820 4821 1
  3580 4820 4822 1
  3581 4820 4823 1
  3582 4823 4824 1
  3583 4824 4825 1
  3584 4825 4827 1
  3585 4825 4826 1
  3586 4826 4831 1
  3587 4827 4829 1
  3588 4827 4828 1
  3589 4829 4831 1
  3590 4829 4830 1
  3591 4831 4832 1
  3592 4832 4842 ar
  3593 4832 4833 ar
  3594 4833 4834 ar
  3595 4834 4835 ar
  3596 4835 4842 ar
  3597 4835 4836 1
  3598 4836 4837 2
  3599 4836 4838 am
  3600 4838 4839 1
  3601 4839 4840 2
  3602 4839 4841 2
  3603 4841 4842 1
  3604 4794 4820 1
  3605 4854 4856 1
  3606 4854 4855 1
  3607 4854 4857 1
  3608 4857 4858 1
  3609 4858 4859 1
  3610 4859 4861 1
  3611 4859 4860 1
  3612 4860 4865 1
  3613 4861 4863 1
  3614 4861 4862 1
  3615 4863 4864 1
  3616 4863 4865 1
  3617 4865 4866 1
  3618 4866 4867 ar
  3619 4866 4875 ar
  3620 4867 4868 ar
  3621 4868 4869 ar
  3622 4869 4875 ar
  3623 4869 4870 ar
  3624 4870 4871 1
  3625 4870 4872 ar
  3626 4872 4873 ar
  3627 4873 4874 ar
  3628 4874 4875 ar
  3629 4828 4854 1
  3630 4887 4889 1
  3631 4887 4888 1
  3632 4887 4890 1
  3633 4890 4891 1
  3634 4891 4892 1
  3635 4892 4894 1
  3636 4892 4893 1
  3637 4893 4898 1
  3638 4894 4896 1
  3639 4894 4895 1
  3640 4896 4897 1
  3641 4896 4898 1
  3642 4898 4899 1
  3643 4899 4900 ar
  3644 4899 4908 ar
  3645 4900 4901 ar
  3646 4901 4902 ar
  3647 4902 4908 ar
  3648 4902 4903 ar
  3649 4903 4904 1
  3650 4903 4905 ar
  3651 4905 4906 ar
  3652 4906 4907 ar
  3653 4907 4908 ar
  3654 4862 4887 1
  3655 4920 4921 1
  3656 4920 4922 1
  3657 4920 4923 1
  3658 4923 4924 1
  3659 4924 4925 1
  3660 4925 4927 1
  3661 4925 4926 1
  3662 4926 4931 1
  3663 4927 4929 1
  3664 4927 4928 1
  3665 4929 4931 1
  3666 4929 4930 1
  3667 4931 4932 1
  3668 4932 4942 ar
  3669 4932 4933 ar
  3670 4933 4934 ar
  3671 4934 4935 ar
  3672 4935 4942 ar
  3673 4935 4936 1
  3674 4936 4937 2
  3675 4936 4938 am
  3676 4938 4939 1
  3677 4939 4940 2
  3678 4939 4941 2
  3679 4941 4942 1
  3680 4895 4920 1
  3681 4954 4957 1
  3682 4954 4955 1
  3683 4954 4956 1
  3684 4957 4958 1
  3685 4958 4959 1
  3686 4959 4961 1
  3687 4959 4960 1
  3688 4960 4965 1
  3689 4961 4963 1
  3690 4961 4962 1
  3691 4963 4964 1
  3692 4963 4965 1
  3693 4965 4966 1
  3694 4966 4967 am
  3695 4966 4973 1
  3696 4967 4968 2
  3697 4967 4969 am
  3698 4969 4970 am
  3699 4970 4972 1
  3700 4970 4971 2
  3701 4972 4973 2
  3702 4928 4954 1
  3703 4987 4988 1
  3704 4988 4989 1
  3705 4989 4991 1
  3706 4989 4990 1
  3707 4990 4995 1
  3708 4991 4993 1
  3709 4991 4992 1
  3710 4993 4994 1
  3711 4993 4995 1
  3712 4995 4996 1
  3713 4996 5003 1
  3714 4996 4997 am
  3715 4997 4999 am
  3716 4997 4998 2
  3717 4999 5000 am
  3718 5000 5002 1
  3719 5000 5001 2
  3720 5002 5003 2
  3721 4984 4985 1
  3722 4984 4986 1
  3723 4984 4987 1
  3724 4962 4984 1
  3725   21    2 1
  3726   22    2 1
  3727   23    3 1
  3728   24    5 1
  3729   25    7 1
  3730   26    9 1
  3731   27   11 1
  3732   28   16 1
  3733   55   37 1
  3734   56   37 1
  3735   57   38 1
  3736   58   40 1
  3737   59   42 1
  3738   60   44 1
  3739   61   46 1
  3740   62   52 1
  3741   86   70 1
  3742   87   70 1
  3743   88   71 1
  3744   89   73 1
  3745   90   75 1
  3746   91   77 1
  3747   92   84 1
  3748   93   85 1
  3749  117  101 1
  3750  118  101 1
  3751  119  102 1
  3752  120  104 1
  3753  121  106 1
  3754  122  108 1
  3755  123  112 1
  3756  124  115 1
  3757  125  116 1
  3758  147  131 1
  3759  148  131 1
  3760  149  132 1
  3761  150  134 1
  3762  151  136 1
  3763  152  138 1
  3764  153  145 1
  3765  154  146 1
  3766  181  162 1
  3767  182  162 1
  3768  183  163 1
  3769  184  165 1
  3770  185  167 1
  3771  186  169 1
  3772  187  171 1
  3773  188  176 1
  3774  215  196 1
  3775  216  196 1
  3776  217  197 1
  3777  218  199 1
  3778  219  201 1
  3779  220  203 1
  3780  221  205 1
  3781  222  210 1
  3782  249  230 1
  3783  250  230 1
  3784  251  231 1
  3785  252  233 1
  3786  253  235 1
  3787  254  237 1
  3788  255  239 1
  3789  256  244 1
  3790  283  264 1
  3791  284  264 1
  3792  285  265 1
  3793  286  267 1
  3794  287  269 1
  3795  288  271 1
  3796  289  273 1
  3797  290  278 1
  3798  314  298 1
  3799  315  298 1
  3800  316  299 1
  3801  317  301 1
  3802  318  303 1
  3803  319  305 1
  3804  320  309 1
  3805  321  312 1
  3806  322  313 1
  3807  347  328 1
  3808  348  328 1
  3809  349  329 1
  3810  350  331 1
  3811  351  333 1
  3812  352  335 1
  3813  353  337 1
  3814  354  342 1
  3815  378  362 1
  3816  379  362 1
  3817  380  363 1
  3818  381  365 1
  3819  382  367 1
  3820  383  369 1
  3821  384  376 1
  3822  385  377 1
  3823  409  393 1
  3824  410  393 1
  3825  411  394 1
  3826  412  396 1
  3827  413  398 1
  3828  414  400 1
  3829  415  407 1
  3830  416  408 1
  3831  440  424 1
  3832  441  424 1
  3833  442  425 1
  3834  443  427 1
  3835  444  429 1
  3836  445  431 1
  3837  446  438 1
  3838  447  439 1
  3839  471  455 1
  3840  472  455 1
  3841  473  456 1
  3842  474  458 1
  3843  475  460 1
  3844  476  462 1
  3845  477  466 1
  3846  478  469 1
  3847  479  470 1
  3848  501  485 1
  3849  502  485 1
  3850  503  486 1
  3851  504  488 1
  3852  505  490 1
  3853  506  492 1
  3854  507  496 1
  3855  508  499 1
  3856  509  500 1
  3857  531  515 1
  3858  532  515 1
  3859  533  516 1
  3860  534  518 1
  3861  535  520 1
  3862  536  522 1
  3863  537  529 1
  3864  538  530 1
  3865  562  546 1
  3866  563  546 1
  3867  564  547 1
  3868  565  549 1
  3869  566  551 1
  3870  567  553 1
  3871  568  557 1
  3872  569  560 1
  3873  570  561 1
  3874  595  576 1
  3875  596  576 1
  3876  597  577 1
  3877  598  579 1
  3878  599  581 1
  3879  600  583 1
  3880  601  585 1
  3881  602  590 1
  3882  626  610 1
  3883  627  610 1
  3884  628  611 1
  3885  629  613 1
  3886  630  615 1
  3887  631  617 1
  3888  632  624 1
  3889  633  625 1
  3890  660  641 1
  3891  661  641 1
  3892  662  642 1
  3893  663  644 1
  3894  664  646 1
  3895  665  648 1
  3896  666  650 1
  3897  667  655 1
  3898  691  675 1
  3899  692  675 1
  3900  693  676 1
  3901  694  678 1
  3902  695  680 1
  3903  696  682 1
  3904  697  686 1
  3905  698  689 1
  3906  699  690 1
  3907  724  705 1
  3908  725  705 1
  3909  726  706 1
  3910  727  708 1
  3911  728  710 1
  3912  729  712 1
  3913  730  714 1
  3914  731  719 1
  3915  757  739 1
  3916  758  739 1
  3917  759  740 1
  3918  760  742 1
  3919  761  744 1
  3920  762  746 1
  3921  763  748 1
  3922  764  754 1
  3923  790  772 1
  3924  791  772 1
  3925  792  773 1
  3926  793  775 1
  3927  794  777 1
  3928  795  779 1
  3929  796  781 1
  3930  797  787 1
  3931  824  805 1
  3932  825  805 1
  3933  826  806 1
  3934  827  808 1
  3935  828  810 1
  3936  829  812 1
  3937  830  814 1
  3938  831  819 1
  3939  858  839 1
  3940  859  839 1
  3941  860  840 1
  3942  861  842 1
  3943  862  844 1
  3944  863  846 1
  3945  864  848 1
  3946  865  853 1
  3947  889  873 1
  3948  890  873 1
  3949  891  874 1
  3950  892  876 1
  3951  893  878 1
  3952  894  880 1
  3953  895  887 1
  3954  896  888 1
  3955  920  904 1
  3956  921  904 1
  3957  922  905 1
  3958  923  907 1
  3959  924  909 1
  3960  925  911 1
  3961  926  915 1
  3962  927  918 1
  3963  928  919 1
  3964  953  934 1
  3965  954  934 1
  3966  955  935 1
  3967  956  937 1
  3968  957  939 1
  3969  958  941 1
  3970  959  943 1
  3971  960  948 1
  3972  986  968 1
  3973  987  968 1
  3974  988  969 1
  3975  989  971 1
  3976  990  973 1
  3977  991  975 1
  3978  992  977 1
  3979  993  983 1
  3980 1020 1001 1
  3981 1021 1001 1
  3982 1022 1002 1
  3983 1023 1004 1
  3984 1024 1006 1
  3985 1025 1008 1
  3986 1026 1010 1
  3987 1027 1015 1
  3988 1053 1035 1
  3989 1054 1035 1
  3990 1055 1036 1
  3991 1056 1038 1
  3992 1057 1040 1
  3993 1058 1042 1
  3994 1059 1044 1
  3995 1060 1050 1
  3996 1086 1068 1
  3997 1087 1068 1
  3998 1088 1069 1
  3999 1089 1071 1
  4000 1090 1073 1
  4001 1091 1075 1
  4002 1092 1077 1
  4003 1093 1083 1
  4004 1119 1101 1
  4005 1120 1101 1
  4006 1121 1102 1
  4007 1122 1104 1
  4008 1123 1106 1
  4009 1124 1108 1
  4010 1125 1110 1
  4011 1126 1116 1
  4012 1150 1134 1
  4013 1151 1134 1
  4014 1152 1135 1
  4015 1153 1137 1
  4016 1154 1139 1
  4017 1155 1141 1
  4018 1156 1145 1
  4019 1157 1148 1
  4020 1158 1149 1
  4021 1182 1164 1
  4022 1183 1164 1
  4023 1184 1165 1
  4024 1185 1167 1
  4025 1186 1169 1
  4026 1187 1171 1
  4027 1188 1173 1
  4028 1189 1179 1
  4029 1213 1197 1
  4030 1214 1197 1
  4031 1215 1198 1
  4032 1216 1200 1
  4033 1217 1202 1
  4034 1218 1204 1
  4035 1219 1211 1
  4036 1220 1212 1
  4037 1244 1228 1
  4038 1245 1228 1
  4039 1246 1229 1
  4040 1247 1231 1
  4041 1248 1233 1
  4042 1249 1235 1
  4043 1250 1242 1
  4044 1251 1243 1
  4045 1275 1259 1
  4046 1276 1259 1
  4047 1277 1260 1
  4048 1278 1262 1
  4049 1279 1264 1
  4050 1280 1266 1
  4051 1281 1273 1
  4052 1282 1274 1
  4053 1309 1290 1
  4054 1310 1290 1
  4055 1311 1291 1
  4056 1312 1293 1
  4057 1313 1295 1
  4058 1314 1297 1
  4059 1315 1299 1
  4060 1316 1304 1
  4061 1340 1324 1
  4062 1341 1324 1
  4063 1342 1325 1
  4064 1343 1327 1
  4065 1344 1329 1
  4066 1345 1331 1
  4067 1346 1335 1
  4068 1347 1338 1
  4069 1348 1339 1
  4070 1372 1354 1
  4071 1373 1354 1
  4072 1374 1355 1
  4073 1375 1357 1
  4074 1376 1359 1
  4075 1377 1361 1
  4076 1378 1363 1
  4077 1379 1369 1
  4078 1403 1387 1
  4079 1404 1387 1
  4080 1405 1388 1
  4081 1406 1390 1
  4082 1407 1392 1
  4083 1408 1394 1
  4084 1409 1398 1
  4085 1410 1401 1
  4086 1411 1402 1
  4087 1433 1417 1
  4088 1434 1417 1
  4089 1435 1418 1
  4090 1436 1420 1
  4091 1437 1422 1
  4092 1438 1424 1
  4093 1439 1431 1
  4094 1440 1432 1
  4095 1466 1448 1
  4096 1467 1448 1
  4097 1468 1449 1
  4098 1469 1451 1
  4099 1470 1453 1
  4100 1471 1455 1
  4101 1472 1457 1
  4102 1473 1463 1
  4103 1497 1481 1
  4104 1498 1481 1
  4105 1499 1482 1
  4106 1500 1484 1
  4107 1501 1486 1
  4108 1502 1488 1
  4109 1503 1495 1
  4110 1504 1496 1
  4111 1528 1512 1
  4112 1529 1512 1
  4113 1530 1513 1
  4114 1531 1515 1
  4115 1532 1517 1
  4116 1533 1519 1
  4117 1534 1526 1
  4118 1535 1527 1
  4119 1559 1543 1
  4120 1560 1543 1
  4121 1561 1544 1
  4122 1562 1546 1
  4123 1563 1548 1
  4124 1564 1550 1
  4125 1565 1554 1
  4126 1566 1557 1
  4127 1567 1558 1
  4128 1592 1573 1
  4129 1593 1573 1
  4130 1594 1574 1
  4131 1595 1576 1
  4132 1596 1578 1
  4133 1597 1580 1
  4134 1598 1582 1
  4135 1599 1587 1
  4136 1625 1607 1
  4137 1626 1607 1
  4138 1627 1608 1
  4139 1628 1610 1
  4140 1629 1612 1
  4141 1630 1614 1
  4142 1631 1616 1
  4143 1632 1622 1
  4144 1656 1640 1
  4145 1657 1640 1
  4146 1658 1641 1
  4147 1659 1643 1
  4148 1660 1645 1
  4149 1661 1647 1
  4150 1662 1651 1
  4151 1663 1654 1
  4152 1664 1655 1
  4153 1686 1670 1
  4154 1687 1670 1
  4155 1688 1671 1
  4156 1689 1673 1
  4157 1690 1675 1
  4158 1691 1677 1
  4159 1692 1684 1
  4160 1693 1685 1
  4161 1717 1701 1
  4162 1718 1701 1
  4163 1719 1702 1
  4164 1720 1704 1
  4165 1721 1706 1
  4166 1722 1708 1
  4167 1723 1712 1
  4168 1724 1715 1
  4169 1725 1716 1
  4170 1750 1731 1
  4171 1751 1731 1
  4172 1752 1732 1
  4173 1753 1734 1
  4174 1754 1736 1
  4175 1755 1738 1
  4176 1756 1740 1
  4177 1757 1745 1
  4178 1784 1765 1
  4179 1785 1765 1
  4180 1786 1766 1
  4181 1787 1768 1
  4182 1788 1770 1
  4183 1789 1772 1
  4184 1790 1774 1
  4185 1791 1779 1
  4186 1817 1799 1
  4187 1818 1799 1
  4188 1819 1800 1
  4189 1820 1802 1
  4190 1821 1804 1
  4191 1822 1806 1
  4192 1823 1808 1
  4193 1824 1814 1
  4194 1848 1832 1
  4195 1849 1832 1
  4196 1850 1833 1
  4197 1851 1835 1
  4198 1852 1837 1
  4199 1853 1839 1
  4200 1854 1843 1
  4201 1855 1846 1
  4202 1856 1847 1
  4203 1880 1862 1
  4204 1881 1862 1
  4205 1882 1863 1
  4206 1883 1865 1
  4207 1884 1867 1
  4208 1885 1869 1
  4209 1886 1871 1
  4210 1887 1877 1
  4211 1913 1895 1
  4212 1914 1895 1
  4213 1915 1896 1
  4214 1916 1898 1
  4215 1917 1900 1
  4216 1918 1902 1
  4217 1919 1904 1
  4218 1920 1910 1
  4219 1944 1928 1
  4220 1945 1928 1
  4221 1946 1929 1
  4222 1947 1931 1
  4223 1948 1933 1
  4224 1949 1935 1
  4225 1950 1939 1
  4226 1951 1942 1
  4227 1952 1943 1
  4228 1977 1958 1
  4229 1978 1958 1
  4230 1979 1959 1
  4231 1980 1961 1
  4232 1981 1963 1
  4233 1982 1965 1
  4234 1983 1967 1
  4235 1984 1972 1
  4236 2008 1992 1
  4237 2009 1992 1
  4238 2010 1993 1
  4239 2011 1995 1
  4240 2012 1997 1
  4241 2013 1999 1
  4242 2014 2006 1
  4243 2015 2007 1
  4244 2039 2023 1
  4245 2040 2023 1
  4246 2041 2024 1
  4247 2042 2026 1
  4248 2043 2028 1
  4249 2044 2030 1
  4250 2045 2037 1
  4251 2046 2038 1
  4252 2072 2054 1
  4253 2073 2054 1
  4254 2074 2055 1
  4255 2075 2057 1
  4256 2076 2059 1
  4257 2077 2061 1
  4258 2078 2063 1
  4259 2079 2069 1
  4260 2106 2087 1
  4261 2107 2087 1
  4262 2108 2088 1
  4263 2109 2090 1
  4264 2110 2092 1
  4265 2111 2094 1
  4266 2112 2096 1
  4267 2113 2101 1
  4268 2137 2121 1
  4269 2138 2121 1
  4270 2139 2122 1
  4271 2140 2124 1
  4272 2141 2126 1
  4273 2142 2128 1
  4274 2143 2135 1
  4275 2144 2136 1
  4276 2171 2152 1
  4277 2172 2152 1
  4278 2173 2153 1
  4279 2174 2155 1
  4280 2175 2157 1
  4281 2176 2159 1
  4282 2177 2161 1
  4283 2178 2166 1
  4284 2202 2186 1
  4285 2203 2186 1
  4286 2204 2187 1
  4287 2205 2189 1
  4288 2206 2191 1
  4289 2207 2193 1
  4290 2208 2197 1
  4291 2209 2200 1
  4292 2210 2201 1
  4293 2234 2216 1
  4294 2235 2216 1
  4295 2236 2217 1
  4296 2237 2219 1
  4297 2238 2221 1
  4298 2239 2223 1
  4299 2240 2225 1
  4300 2241 2231 1
  4301 2268 2249 1
  4302 2269 2249 1
  4303 2270 2250 1
  4304 2271 2252 1
  4305 2272 2254 1
  4306 2273 2256 1
  4307 2274 2258 1
  4308 2275 2263 1
  4309 2302 2283 1
  4310 2303 2283 1
  4311 2304 2284 1
  4312 2305 2286 1
  4313 2306 2288 1
  4314 2307 2290 1
  4315 2308 2292 1
  4316 2309 2297 1
  4317 2336 2317 1
  4318 2337 2317 1
  4319 2338 2318 1
  4320 2339 2320 1
  4321 2340 2322 1
  4322 2341 2324 1
  4323 2342 2326 1
  4324 2343 2331 1
  4325 2369 2351 1
  4326 2370 2351 1
  4327 2371 2352 1
  4328 2372 2354 1
  4329 2373 2356 1
  4330 2374 2358 1
  4331 2375 2360 1
  4332 2376 2366 1
  4333 2402 2384 1
  4334 2403 2384 1
  4335 2404 2385 1
  4336 2405 2387 1
  4337 2406 2389 1
  4338 2407 2391 1
  4339 2408 2393 1
  4340 2409 2399 1
  4341 2436 2417 1
  4342 2437 2417 1
  4343 2438 2418 1
  4344 2439 2420 1
  4345 2440 2422 1
  4346 2441 2424 1
  4347 2442 2426 1
  4348 2443 2431 1
  4349 2467 2451 1
  4350 2468 2451 1
  4351 2469 2452 1
  4352 2470 2454 1
  4353 2471 2456 1
  4354 2472 2458 1
  4355 2473 2462 1
  4356 2474 2465 1
  4357 2475 2466 1
  4358 2497 2481 1
  4359 2498 2481 1
  4360 2499 2482 1
  4361 2500 2484 1
  4362 2501 2486 1
  4363 2502 2488 1
  4364 2503 2492 1
  4365 2504 2495 1
  4366 2505 2496 1
  4367 2528 2509 1
  4368 2529 2509 1
  4369 2530 2510 1
  4370 2531 2512 1
  4371 2532 2514 1
  4372 2533 2516 1
  4373 2534 2518 1
  4374 2535 2523 1
  4375 2562 2544 1
  4376 2563 2544 1
  4377 2564 2545 1
  4378 2565 2547 1
  4379 2566 2549 1
  4380 2567 2551 1
  4381 2568 2553 1
  4382 2569 2559 1
  4383 2593 2577 1
  4384 2594 2577 1
  4385 2595 2578 1
  4386 2596 2580 1
  4387 2597 2582 1
  4388 2598 2584 1
  4389 2599 2591 1
  4390 2600 2592 1
  4391 2624 2608 1
  4392 2625 2608 1
  4393 2626 2609 1
  4394 2627 2611 1
  4395 2628 2613 1
  4396 2629 2615 1
  4397 2630 2619 1
  4398 2631 2622 1
  4399 2632 2623 1
  4400 2654 2638 1
  4401 2655 2638 1
  4402 2656 2639 1
  4403 2657 2641 1
  4404 2658 2643 1
  4405 2659 2645 1
  4406 2660 2652 1
  4407 2661 2653 1
  4408 2688 2669 1
  4409 2689 2669 1
  4410 2690 2670 1
  4411 2691 2672 1
  4412 2692 2674 1
  4413 2693 2676 1
  4414 2694 2678 1
  4415 2695 2683 1
  4416 2722 2703 1
  4417 2723 2703 1
  4418 2724 2704 1
  4419 2725 2706 1
  4420 2726 2708 1
  4421 2727 2710 1
  4422 2728 2712 1
  4423 2729 2717 1
  4424 2756 2737 1
  4425 2757 2737 1
  4426 2758 2738 1
  4427 2759 2740 1
  4428 2760 2742 1
  4429 2761 2744 1
  4430 2762 2746 1
  4431 2763 2751 1
  4432 2790 2771 1
  4433 2791 2771 1
  4434 2792 2772 1
  4435 2793 2774 1
  4436 2794 2776 1
  4437 2795 2778 1
  4438 2796 2780 1
  4439 2797 2785 1
  4440 2821 2805 1
  4441 2822 2805 1
  4442 2823 2806 1
  4443 2824 2808 1
  4444 2825 2810 1
  4445 2826 2812 1
  4446 2827 2816 1
  4447 2828 2819 1
  4448 2829 2820 1
  4449 2854 2835 1
  4450 2855 2835 1
  4451 2856 2836 1
  4452 2857 2838 1
  4453 2858 2840 1
  4454 2859 2842 1
  4455 2860 2844 1
  4456 2861 2849 1
  4457 2885 2869 1
  4458 2886 2869 1
  4459 2887 2870 1
  4460 2888 2872 1
  4461 2889 2874 1
  4462 2890 2876 1
  4463 2891 2883 1
  4464 2892 2884 1
  4465 2916 2900 1
  4466 2917 2900 1
  4467 2918 2901 1
  4468 2919 2903 1
  4469 2920 2905 1
  4470 2921 2907 1
  4471 2922 2914 1
  4472 2923 2915 1
  4473 2947 2931 1
  4474 2948 2931 1
  4475 2949 2932 1
  4476 2950 2934 1
  4477 2951 2936 1
  4478 2952 2938 1
  4479 2953 2945 1
  4480 2954 2946 1
  4481 2978 2962 1
  4482 2979 2962 1
  4483 2980 2963 1
  4484 2981 2965 1
  4485 2982 2967 1
  4486 2983 2969 1
  4487 2984 2973 1
  4488 2985 2976 1
  4489 2986 2977 1
  4490 3008 2992 1
  4491 3009 2992 1
  4492 3010 2993 1
  4493 3011 2995 1
  4494 3012 2997 1
  4495 3013 2999 1
  4496 3014 3003 1
  4497 3015 3006 1
  4498 3016 3007 1
  4499 3038 3022 1
  4500 3039 3022 1
  4501 3040 3023 1
  4502 3041 3025 1
  4503 3042 3027 1
  4504 3043 3029 1
  4505 3044 3036 1
  4506 3045 3037 1
  4507 3069 3053 1
  4508 3070 3053 1
  4509 3071 3054 1
  4510 3072 3056 1
  4511 3073 3058 1
  4512 3074 3060 1
  4513 3075 3064 1
  4514 3076 3067 1
  4515 3077 3068 1
  4516 3102 3083 1
  4517 3103 3083 1
  4518 3104 3084 1
  4519 3105 3086 1
  4520 3106 3088 1
  4521 3107 3090 1
  4522 3108 3092 1
  4523 3109 3097 1
  4524 3133 3117 1
  4525 3134 3117 1
  4526 3135 3118 1
  4527 3136 3120 1
  4528 3137 3122 1
  4529 3138 3124 1
  4530 3139 3131 1
  4531 3140 3132 1
  4532 3167 3148 1
  4533 3168 3148 1
  4534 3169 3149 1
  4535 3170 3151 1
  4536 3171 3153 1
  4537 3172 3155 1
  4538 3173 3157 1
  4539 3174 3162 1
  4540 3198 3182 1
  4541 3199 3182 1
  4542 3200 3183 1
  4543 3201 3185 1
  4544 3202 3187 1
  4545 3203 3189 1
  4546 3204 3193 1
  4547 3205 3196 1
  4548 3206 3197 1
  4549 3231 3212 1
  4550 3232 3212 1
  4551 3233 3213 1
  4552 3234 3215 1
  4553 3235 3217 1
  4554 3236 3219 1
  4555 3237 3221 1
  4556 3238 3226 1
  4557 3264 3246 1
  4558 3265 3246 1
  4559 3266 3247 1
  4560 3267 3249 1
  4561 3268 3251 1
  4562 3269 3253 1
  4563 3270 3255 1
  4564 3271 3261 1
  4565 3297 3279 1
  4566 3298 3279 1
  4567 3299 3280 1
  4568 3300 3282 1
  4569 3301 3284 1
  4570 3302 3286 1
  4571 3303 3288 1
  4572 3304 3294 1
  4573 3331 3312 1
  4574 3332 3312 1
  4575 3333 3313 1
  4576 3334 3315 1
  4577 3335 3317 1
  4578 3336 3319 1
  4579 3337 3321 1
  4580 3338 3326 1
  4581 3365 3346 1
  4582 3366 3346 1
  4583 3367 3347 1
  4584 3368 3349 1
  4585 3369 3351 1
  4586 3370 3353 1
  4587 3371 3355 1
  4588 3372 3360 1
  4589 3396 3380 1
  4590 3397 3380 1
  4591 3398 3381 1
  4592 3399 3383 1
  4593 3400 3385 1
  4594 3401 3387 1
  4595 3402 3394 1
  4596 3403 3395 1
  4597 3427 3411 1
  4598 3428 3411 1
  4599 3429 3412 1
  4600 3430 3414 1
  4601 3431 3416 1
  4602 3432 3418 1
  4603 3433 3422 1
  4604 3434 3425 1
  4605 3435 3426 1
  4606 3460 3441 1
  4607 3461 3441 1
  4608 3462 3442 1
  4609 3463 3444 1
  4610 3464 3446 1
  4611 3465 3448 1
  4612 3466 3450 1
  4613 3467 3455 1
  4614 3493 3475 1
  4615 3494 3475 1
  4616 3495 3476 1
  4617 3496 3478 1
  4618 3497 3480 1
  4619 3498 3482 1
  4620 3499 3484 1
  4621 3500 3490 1
  4622 3527 3508 1
  4623 3528 3508 1
  4624 3529 3509 1
  4625 3530 3511 1
  4626 3531 3513 1
  4627 3532 3515 1
  4628 3533 3517 1
  4629 3534 3522 1
  4630 3560 3542 1
  4631 3561 3542 1
  4632 3562 3543 1
  4633 3563 3545 1
  4634 3564 3547 1
  4635 3565 3549 1
  4636 3566 3551 1
  4637 3567 3557 1
  4638 3593 3575 1
  4639 3594 3575 1
  4640 3595 3576 1
  4641 3596 3578 1
  4642 3597 3580 1
  4643 3598 3582 1
  4644 3599 3584 1
  4645 3600 3590 1
  4646 3626 3608 1
  4647 3627 3608 1
  4648 3628 3609 1
  4649 3629 3611 1
  4650 3630 3613 1
  4651 3631 3615 1
  4652 3632 3617 1
  4653 3633 3623 1
  4654 3657 3641 1
  4655 3658 3641 1
  4656 3659 3642 1
  4657 3660 3644 1
  4658 3661 3646 1
  4659 3662 3648 1
  4660 3663 3652 1
  4661 3664 3655 1
  4662 3665 3656 1
  4663 3689 3671 1
  4664 3690 3671 1
  4665 3691 3672 1
  4666 3692 3674 1
  4667 3693 3676 1
  4668 3694 3678 1
  4669 3695 3680 1
  4670 3696 3686 1
  4671 3720 3704 1
  4672 3721 3704 1
  4673 3722 3705 1
  4674 3723 3707 1
  4675 3724 3709 1
  4676 3725 3711 1
  4677 3726 3718 1
  4678 3727 3719 1
  4679 3751 3735 1
  4680 3752 3735 1
  4681 3753 3736 1
  4682 3754 3738 1
  4683 3755 3740 1
  4684 3756 3742 1
  4685 3757 3749 1
  4686 3758 3750 1
  4687 3782 3766 1
  4688 3783 3766 1
  4689 3784 3767 1
  4690 3785 3769 1
  4691 3786 3771 1
  4692 3787 3773 1
  4693 3788 3780 1
  4694 3789 3781 1
  4695 3816 3797 1
  4696 3817 3797 1
  4697 3818 3798 1
  4698 3819 3800 1
  4699 3820 3802 1
  4700 3821 3804 1
  4701 3822 3806 1
  4702 3823 3811 1
  4703 3847 3831 1
  4704 3848 3831 1
  4705 3849 3832 1
  4706 3850 3834 1
  4707 3851 3836 1
  4708 3852 3838 1
  4709 3853 3842 1
  4710 3854 3845 1
  4711 3855 3846 1
  4712 3879 3861 1
  4713 3880 3861 1
  4714 3881 3862 1
  4715 3882 3864 1
  4716 3883 3866 1
  4717 3884 3868 1
  4718 3885 3870 1
  4719 3886 3876 1
  4720 3910 3894 1
  4721 3911 3894 1
  4722 3912 3895 1
  4723 3913 3897 1
  4724 3914 3899 1
  4725 3915 3901 1
  4726 3916 3905 1
  4727 3917 3908 1
  4728 3918 3909 1
  4729 3940 3924 1
  4730 3941 3924 1
  4731 3942 3925 1
  4732 3943 3927 1
  4733 3944 3929 1
  4734 3945 3931 1
  4735 3946 3938 1
  4736 3947 3939 1
  4737 3973 3955 1
  4738 3974 3955 1
  4739 3975 3956 1
  4740 3976 3958 1
  4741 3977 3960 1
  4742 3978 3962 1
  4743 3979 3964 1
  4744 3980 3970 1
  4745 4004 3988 1
  4746 4005 3988 1
  4747 4006 3989 1
  4748 4007 3991 1
  4749 4008 3993 1
  4750 4009 3995 1
  4751 4010 4002 1
  4752 4011 4003 1
  4753 4035 4019 1
  4754 4036 4019 1
  4755 4037 4020 1
  4756 4038 4022 1
  4757 4039 4024 1
  4758 4040 4026 1
  4759 4041 4033 1
  4760 4042 4034 1
  4761 4066 4050 1
  4762 4067 4050 1
  4763 4068 4051 1
  4764 4069 4053 1
  4765 4070 4055 1
  4766 4071 4057 1
  4767 4072 4061 1
  4768 4073 4064 1
  4769 4074 4065 1
  4770 4099 4080 1
  4771 4100 4080 1
  4772 4101 4081 1
  4773 4102 4083 1
  4774 4103 4085 1
  4775 4104 4087 1
  4776 4105 4089 1
  4777 4106 4094 1
  4778 4132 4114 1
  4779 4133 4114 1
  4780 4134 4115 1
  4781 4135 4117 1
  4782 4136 4119 1
  4783 4137 4121 1
  4784 4138 4123 1
  4785 4139 4129 1
  4786 4163 4147 1
  4787 4164 4147 1
  4788 4165 4148 1
  4789 4166 4150 1
  4790 4167 4152 1
  4791 4168 4154 1
  4792 4169 4158 1
  4793 4170 4161 1
  4794 4171 4162 1
  4795 4193 4177 1
  4796 4194 4177 1
  4797 4195 4178 1
  4798 4196 4180 1
  4799 4197 4182 1
  4800 4198 4184 1
  4801 4199 4191 1
  4802 4200 4192 1
  4803 4224 4208 1
  4804 4225 4208 1
  4805 4226 4209 1
  4806 4227 4211 1
  4807 4228 4213 1
  4808 4229 4215 1
  4809 4230 4219 1
  4810 4231 4222 1
  4811 4232 4223 1
  4812 4257 4238 1
  4813 4258 4238 1
  4814 4259 4239 1
  4815 4260 4241 1
  4816 4261 4243 1
  4817 4262 4245 1
  4818 4263 4247 1
  4819 4264 4252 1
  4820 4291 4272 1
  4821 4292 4272 1
  4822 4293 4273 1
  4823 4294 4275 1
  4824 4295 4277 1
  4825 4296 4279 1
  4826 4297 4281 1
  4827 4298 4286 1
  4828 4324 4306 1
  4829 4325 4306 1
  4830 4326 4307 1
  4831 4327 4309 1
  4832 4328 4311 1
  4833 4329 4313 1
  4834 4330 4315 1
  4835 4331 4321 1
  4836 4355 4339 1
  4837 4356 4339 1
  4838 4357 4340 1
  4839 4358 4342 1
  4840 4359 4344 1
  4841 4360 4346 1
  4842 4361 4350 1
  4843 4362 4353 1
  4844 4363 4354 1
  4845 4387 4369 1
  4846 4388 4369 1
  4847 4389 4370 1
  4848 4390 4372 1
  4849 4391 4374 1
  4850 4392 4376 1
  4851 4393 4378 1
  4852 4394 4384 1
  4853 4420 4402 1
  4854 4421 4402 1
  4855 4422 4403 1
  4856 4423 4405 1
  4857 4424 4407 1
  4858 4425 4409 1
  4859 4426 4411 1
  4860 4427 4417 1
  4861 4451 4435 1
  4862 4452 4435 1
  4863 4453 4436 1
  4864 4454 4438 1
  4865 4455 4440 1
  4866 4456 4442 1
  4867 4457 4446 1
  4868 4458 4449 1
  4869 4459 4450 1
  4870 4484 4465 1
  4871 4485 4465 1
  4872 4486 4466 1
  4873 4487 4468 1
  4874 4488 4470 1
  4875 4489 4472 1
  4876 4490 4474 1
  4877 4491 4479 1
  4878 4515 4499 1
  4879 4516 4499 1
  4880 4517 4500 1
  4881 4518 4502 1
  4882 4519 4504 1
  4883 4520 4506 1
  4884 4521 4513 1
  4885 4522 4514 1
  4886 4546 4530 1
  4887 4547 4530 1
  4888 4548 4531 1
  4889 4549 4533 1
  4890 4550 4535 1
  4891 4551 4537 1
  4892 4552 4544 1
  4893 4553 4545 1
  4894 4579 4561 1
  4895 4580 4561 1
  4896 4581 4562 1
  4897 4582 4564 1
  4898 4583 4566 1
  4899 4584 4568 1
  4900 4585 4570 1
  4901 4586 4576 1
  4902 4613 4594 1
  4903 4614 4594 1
  4904 4615 4595 1
  4905 4616 4597 1
  4906 4617 4599 1
  4907 4618 4601 1
  4908 4619 4603 1
  4909 4620 4608 1
  4910 4644 4628 1
  4911 4645 4628 1
  4912 4646 4629 1
  4913 4647 4631 1
  4914 4648 4633 1
  4915 4649 4635 1
  4916 4650 4642 1
  4917 4651 4643 1
  4918 4678 4659 1
  4919 4679 4659 1
  4920 4680 4660 1
  4921 4681 4662 1
  4922 4682 4664 1
  4923 4683 4666 1
  4924 4684 4668 1
  4925 4685 4673 1
  4926 4709 4693 1
  4927 4710 4693 1
  4928 4711 4694 1
  4929 4712 4696 1
  4930 4713 4698 1
  4931 4714 4700 1
  4932 4715 4704 1
  4933 4716 4707 1
  4934 4717 4708 1
  4935 4741 4723 1
  4936 4742 4723 1
  4937 4743 4724 1
  4938 4744 4726 1
  4939 4745 4728 1
  4940 4746 4730 1
  4941 4747 4732 1
  4942 4748 4738 1
  4943 4775 4756 1
  4944 4776 4756 1
  4945 4777 4757 1
  4946 4778 4759 1
  4947 4779 4761 1
  4948 4780 4763 1
  4949 4781 4765 1
  4950 4782 4770 1
  4951 4809 4790 1
  4952 4810 4790 1
  4953 4811 4791 1
  4954 4812 4793 1
  4955 4813 4795 1
  4956 4814 4797 1
  4957 4815 4799 1
  4958 4816 4804 1
  4959 4843 4824 1
  4960 4844 4824 1
  4961 4845 4825 1
  4962 4846 4827 1
  4963 4847 4829 1
  4964 4848 4831 1
  4965 4849 4833 1
  4966 4850 4838 1
  4967 4876 4858 1
  4968 4877 4858 1
  4969 4878 4859 1
  4970 4879 4861 1
  4971 4880 4863 1
  4972 4881 4865 1
  4973 4882 4867 1
  4974 4883 4873 1
  4975 4909 4891 1
  4976 4910 4891 1
  4977 4911 4892 1
  4978 4912 4894 1
  4979 4913 4896 1
  4980 4914 4898 1
  4981 4915 4900 1
  4982 4916 4906 1
  4983 4943 4924 1
  4984 4944 4924 1
  4985 4945 4925 1
  4986 4946 4927 1
  4987 4947 4929 1
  4988 4948 4931 1
  4989 4949 4933 1
  4990 4950 4938 1
  4991 4974 4958 1
  4992 4975 4958 1
  4993 4976 4959 1
  4994 4977 4961 1
  4995 4978 4963 1
  4996 4979 4965 1
  4997 4980 4969 1
  4998 4981 4972 1
  4999 4982 4973 1
  5000 5004 4988 1
  5001 5005 4988 1
  5002 5006 4989 1
  5003 5007 4991 1
  5004 5008 4993 1
  5005 5009 4995 1
  5006 5010 4999 1
  5007 5011 5002 1
  5008 5012 5003 1
  5009   29   18 1
  5010   30   18 1
  5011   94   83 1
  5012   95   83 1
  5013  155  144 1
  5014  156  144 1
  5015  189  178 1
  5016  190  178 1
  5017  223  212 1
  5018  224  212 1
  5019  257  246 1
  5020  258  246 1
  5021  291  280 1
  5022  292  280 1
  5023  355  344 1
  5024  356  344 1
  5025  386  375 1
  5026  387  375 1
  5027  417  406 1
  5028  418  406 1
  5029  448  437 1
  5030  449  437 1
  5031  539  528 1
  5032  540  528 1
  5033  603  592 1
  5034  604  592 1
  5035  634  623 1
  5036  635  623 1
  5037  668  657 1
  5038  669  657 1
  5039  732  721 1
  5040  733  721 1
  5041  832  821 1
  5042  833  821 1
  5043  866  855 1
  5044  867  855 1
  5045  897  886 1
  5046  898  886 1
  5047  961  950 1
  5048  962  950 1
  5049 1028 1017 1
  5050 1029 1017 1
  5051 1221 1210 1
  5052 1222 1210 1
  5053 1252 1241 1
  5054 1253 1241 1
  5055 1283 1272 1
  5056 1284 1272 1
  5057 1317 1306 1
  5058 1318 1306 1
  5059 1441 1430 1
  5060 1442 1430 1
  5061 1505 1494 1
  5062 1506 1494 1
  5063 1536 1525 1
  5064 1537 1525 1
  5065 1600 1589 1
  5066 1601 1589 1
  5067 1694 1683 1
  5068 1695 1683 1
  5069 1758 1747 1
  5070 1759 1747 1
  5071 1792 1781 1
  5072 1793 1781 1
  5073 1985 1974 1
  5074 1986 1974 1
  5075 2016 2005 1
  5076 2017 2005 1
  5077 2047 2036 1
  5078 2048 2036 1
  5079 2114 2103 1
  5080 2115 2103 1
  5081 2145 2134 1
  5082 2146 2134 1
  5083 2179 2168 1
  5084 2180 2168 1
  5085 2276 2265 1
  5086 2277 2265 1
  5087 2310 2299 1
  5088 2311 2299 1
  5089 2344 2333 1
  5090 2345 2333 1
  5091 2444 2433 1
  5092 2445 2433 1
  5093 2536 2525 1
  5094 2537 2525 1
  5095 2601 2590 1
  5096 2602 2590 1
  5097 2662 2651 1
  5098 2663 2651 1
  5099 2696 2685 1
  5100 2697 2685 1
  5101 2730 2719 1
  5102 2731 2719 1
  5103 2764 2753 1
  5104 2765 2753 1
  5105 2798 2787 1
  5106 2799 2787 1
  5107 2862 2851 1
  5108 2863 2851 1
  5109 2893 2882 1
  5110 2894 2882 1
  5111 2924 2913 1
  5112 2925 2913 1
  5113 2955 2944 1
  5114 2956 2944 1
  5115 3046 3035 1
  5116 3047 3035 1
  5117 3110 3099 1
  5118 3111 3099 1
  5119 3141 3130 1
  5120 3142 3130 1
  5121 3175 3164 1
  5122 3176 3164 1
  5123 3239 3228 1
  5124 3240 3228 1
  5125 3339 3328 1
  5126 3340 3328 1
  5127 3373 3362 1
  5128 3374 3362 1
  5129 3404 3393 1
  5130 3405 3393 1
  5131 3468 3457 1
  5132 3469 3457 1
  5133 3535 3524 1
  5134 3536 3524 1
  5135 3728 3717 1
  5136 3729 3717 1
  5137 3759 3748 1
  5138 3760 3748 1
  5139 3790 3779 1
  5140 3791 3779 1
  5141 3824 3813 1
  5142 3825 3813 1
  5143 3948 3937 1
  5144 3949 3937 1
  5145 4012 4001 1
  5146 4013 4001 1
  5147 4043 4032 1
  5148 4044 4032 1
  5149 4107 4096 1
  5150 4108 4096 1
  5151 4201 4190 1
  5152 4202 4190 1
  5153 4265 4254 1
  5154 4266 4254 1
  5155 4299 4288 1
  5156 4300 4288 1
  5157 4492 4481 1
  5158 4493 4481 1
  5159 4523 4512 1
  5160 4524 4512 1
  5161 4554 4543 1
  5162 4555 4543 1
  5163 4621 4610 1
  5164 4622 4610 1
  5165 4652 4641 1
  5166 4653 4641 1
  5167 4686 4675 1
  5168 4687 4675 1
  5169 4783 4772 1
  5170 4784 4772 1
  5171 4817 4806 1
  5172 4818 4806 1
  5173 4851 4840 1
  5174 4852 4840 1
  5175 4951 4940 1
  5176 4952 4940 1
  5177 1888 1868 1
  5178 1285 1265 1
  5179 1633 1613 1
  5180 3792 3772 1
  5181 3730 3710 1
  5182 1223 1203 1
  5183 4395 4375 1
  5184 2895 2875 1
  5185 1857 1838 1
  5186 2211 2192 1
  5187 2181 2158 1
  5188 1159 1140 1
  5189 1443 1423 1
  5190 3568 3548 1
  5191 4140 4120 1
  5192 4364 4345 1
  5193  963  940 1
  5194  388  368 1
  5195 1921 1901 1
  5196 4688 4665 1
  5197 3470 3447 1
  5198 4884 4864 1
  5199 2698 2675 1
  5200 3666 3647 1
  5201 4428 4408 1
  5202  225  202 1
  5203 2732 2709 1
  5204 1061 1041 1
  5205 2766 2743 1
  5206 4014 3994 1
  5207 1127 1107 1
  5208 3078 3059 1
  5209  259  236 1
  5210 1507 1487 1
  5211  571  552 1
  5212 2830 2811 1
  5213 2377 2357 1
  5214  191  168 1
  5215 3017 2998 1
  5216 1412 1393 1
  5217 3887 3867 1
  5218 4172 4153 1
  5219 4785 4762 1
  5220   96   76 1
  5221 1987 1964 1
  5222 4075 4056 1
  5223  700  681 1
  5224  994  974 1
  5225 3501 3481 1
  5226  357  334 1
  5227 4587 4567 1
  5228  510  491 1
  5229 1568 1549 1
  5230 4718 4699 1
  5231  899  879 1
  5232  323  304 1
  5233  157  137 1
  5234 4953 4930 1
  5235 2476 2457 1
  5236 1953 1934 1
  5237 4556 4536 1
  5238 2446 2423 1
  5239  734  711 1
  5240  929  910 1
  5241  293  270 1
  5242 4203 4183 1
  5243 3272 3252 1
  5244 3856 3837 1
  5245 1380 1360 1
  5246 1254 1234 1
  5247 3981 3961 1
  5248 4460 4441 1
  5249 1062 1048 1
  5250 1063 1048 1
  5251 3569 3555 1
  5252 3570 3555 1
  5253 1825 1812 1
  5254 1826 1812 1
  5255 4332 4319 1
  5256 4333 4319 1
  5257  765  752 1
  5258  766  752 1
  5259 3273 3259 1
  5260 3274 3259 1
  5261 3502 3488 1
  5262 3503 3488 1
  5263 1381 1367 1
  5264 1382 1367 1
  5265 3888 3874 1
  5266 3889 3874 1
  5267 4141 4127 1
  5268 4142 4127 1
  5269 1922 1908 1
  5270 1923 1908 1
  5271 2378 2364 1
  5272 2379 2364 1
  5273 4429 4415 1
  5274 4430 4415 1
  5275 4885 4871 1
  5276 4886 4871 1
  5277 2080 2067 1
  5278 2081 2067 1
  5279 2570 2557 1
  5280 2571 2557 1
  5281 1474 1461 1
  5282 1475 1461 1
  5283 1094 1081 1
  5284 1095 1081 1
  5285 3601 3588 1
  5286 3602 3588 1
  5287 1634 1620 1
  5288 1635 1620 1
  5289 2242 2229 1
  5290 2243 2229 1
  5291  798  785 1
  5292  799  785 1
  5293 3305 3292 1
  5294 3306 3292 1
  5295 4749 4736 1
  5296 4750 4736 1
  5297 4588 4574 1
  5298 4589 4574 1
  5299   63   50 1
  5300   64   50 1
  5301 1190 1177 1
  5302 1191 1177 1
  5303 2410 2397 1
  5304 2411 2397 1
  5305 3697 3684 1
  5306 3698 3684 1
  5307  995  981 1
  5308  996  981 1
  5309 3982 3968 1
  5310 3983 3968 1
  5311 4917 4904 1
  5312 4918 4904 1
  5313 4396 4382 1
  5314 4397 4382 1
  5315 1889 1875 1
  5316 1890 1875 1
  5317 1128 1114 1
  5318 1129 1114 1
  5319 3634 3621 1
  5320 3635 3621 1
  5321 3406 3386 1
  5322 2864 2841 1
  5323 3375 3352 1
  5324 3761 3741 1
  5325 1476 1454 1
  5326 2346 2323 1
  5327  868  845 1
  5328 4853 4830 1
  5329 2603 2583 1
  5330  480  461 1
  5331  636  616 1
  5332 1096 1074 1
  5333 2018 1998 1
  5334 2633 2614 1
  5335  670  647 1
  5336 2049 2029 1
  5337 2664 2644 1
  5338  541  521 1
  5339 3436 3417 1
  5340 1319 1296 1
  5341 2082 2060 1
  5342  419  399 1
  5343 4983 4964 1
  5344 1192 1170 1
  5345 4233 4214 1
  5346 4334 4312 1
  5347 1349 1330 1
  5348 2116 2093 1
  5349  605  582 1
  5350  450  430 1
  5351 5013 4992 1
  5352 5014 4994 1
  5353  767  745 1
  5354 4267 4244 1
  5355 2147 2127 1
  5356 2926 2906 1
  5357 4301 4278 1
  5358 3699 3677 1
  5359 2957 2937 1
  5360   65   43 1
  5361 4494 4471 1
  5362 2987 2968 1
  5363 3603 3581 1
  5364 2244 2222 1
  5365 4525 4505 1
  5366 3636 3614 1
  5367 2278 2255 1
  5368 2538 2515 1
  5369 4919 4897 1
  5370 3048 3028 1
  5371 1538 1518 1
  5372 1696 1676 1
  5373 3826 3803 1
  5374 2312 2289 1
  5375  800  778 1
  5376 2800 2777 1
  5377 1726 1707 1
  5378 3112 3089 1
  5379 1602 1579 1
  5380  834  811 1
  5381   31    8 1
  5382 1030 1007 1
  5383 1794 1771 1
  5384 3919 3900 1
  5385 2412 2390 1
  5386 3177 3154 1
  5387 1665 1646 1
  5388 1827 1805 1
  5389 3950 3930 1
  5390 1760 1737 1
  5391 3207 3188 1
  5392 3241 3218 1
  5393 4751 4729 1
  5394  126  107 1
  5395 4623 4600 1
  5396 3537 3514 1
  5397 2506 2485 1
  5398 2507 2487 1
  5399 4045 4025 1
  5400 4654 4634 1
  5401 4819 4796 1
  5402 3307 3285 1
  5403 3143 3123 1
  5404 2572 2550 1
  5405 3341 3318 1
  5406 4109 4086 1
  5407   32    1 1
  5408 2539 2508 1
@<TRIPOS>SUBSTRUCTURE
     1   G11       3 RESIDUE           4 X       G     1 ROOT
     2   A12      38 RESIDUE           4 X       A     2
     3   C13      71 RESIDUE           4 X       C     2
     4   U14     102 RESIDUE           4 X       U     2
     5   C15     132 RESIDUE           4 X       C     2
     6   G16     163 RESIDUE           4 X       G     2
     7   G17     197 RESIDUE           4 X       G     2
     8   G18     231 RESIDUE           4 X       G     2
     9   G19     265 RESIDUE           4 X       G     2
    10   U20     299 RESIDUE           4 X       U     2
    11   G21     329 RESIDUE           4 X       G     2
    12   C22     363 RESIDUE           4 X       C     2
    13   C23     394 RESIDUE           4 X       C     2
    14   C24     425 RESIDUE           4 X       C     2
    15   U25     456 RESIDUE           4 X       U     2
    16   U26     486 RESIDUE           4 X       U     2
    17   C27     516 RESIDUE           4 X       C     2
    18   U28     547 RESIDUE           4 X       U     2
    19   G29     577 RESIDUE           4 X       G     2
    20   C30     611 RESIDUE           4 X       C     2
    21   G31     642 RESIDUE           4 X       G     2
    22   U32     676 RESIDUE           4 X       U     2
    23   G33     706 RESIDUE           4 X       G     2
    24   A34     740 RESIDUE           4 X       A     2
    25   A35     773 RESIDUE           4 X       A     2
    26   G36     806 RESIDUE           4 X       G     2
    27   G37     840 RESIDUE           4 X       G     2
    28   C38     874 RESIDUE           4 X       C     2
    29   U39     905 RESIDUE           4 X       U     2
    30   G40     935 RESIDUE           4 X       G     2
    31   A41     969 RESIDUE           4 X       A     2
    32   G42    1002 RESIDUE           4 X       G     2
    33   A43    1036 RESIDUE           4 X       A     2
    34   A44    1069 RESIDUE           4 X       A     2
    35   A45    1102 RESIDUE           4 X       A     2
    36   U46    1135 RESIDUE           4 X       U     2
    37   A47    1165 RESIDUE           4 X       A     2
    38   C48    1198 RESIDUE           4 X       C     2
    39   C49    1229 RESIDUE           4 X       C     2
    40   C50    1260 RESIDUE           4 X       C     2
    41   G51    1291 RESIDUE           4 X       G     2
    42   U52    1325 RESIDUE           4 X       U     2
    43   A53    1355 RESIDUE           4 X       A     2
    44   U54    1388 RESIDUE           4 X       U     2
    45   C55    1418 RESIDUE           4 X       C     2
    46   A56    1449 RESIDUE           4 X       A     2
    47   C57    1482 RESIDUE           4 X       C     2
    48   C58    1513 RESIDUE           4 X       C     2
    49   U59    1544 RESIDUE           4 X       U     2
    50   G60    1574 RESIDUE           4 X       G     2
    51   A61    1608 RESIDUE           4 X       A     2
    52   U62    1641 RESIDUE           4 X       U     2
    53   C63    1671 RESIDUE           4 X       C     2
    54   U64    1702 RESIDUE           4 X       U     2
    55   G65    1732 RESIDUE           4 X       G     2
    56   G66    1766 RESIDUE           4 X       G     2
    57   A67    1800 RESIDUE           4 X       A     2
    58   U68    1833 RESIDUE           4 X       U     2
    59   A69    1863 RESIDUE           4 X       A     2
    60   A70    1896 RESIDUE           4 X       A     2
    61   U71    1929 RESIDUE           4 X       U     2
    62   G72    1959 RESIDUE           4 X       G     2
    63   C73    1993 RESIDUE           4 X       C     2
    64   C74    2024 RESIDUE           4 X       C     2
    65   A75    2055 RESIDUE           4 X       A     2
    66   G76    2088 RESIDUE           4 X       G     2
    67   C77    2122 RESIDUE           4 X       C     2
    68   G78    2153 RESIDUE           4 X       G     2
    69   U79    2187 RESIDUE           4 X       U     2
    70   A80    2217 RESIDUE           4 X       A     2
    71   G81    2250 RESIDUE           4 X       G     2
    72   G82    2284 RESIDUE           4 X       G     2
    73   G83    2318 RESIDUE           4 X       G     2
    74   A84    2352 RESIDUE           4 X       A     2
    75   A85    2385 RESIDUE           4 X       A     2
    76   G86    2418 RESIDUE           4 X       G     2
    77   U87    2452 RESIDUE           4 X       U     2
    78   U88    2482 RESIDUE           4 X       U     1
    79   G11    2510 RESIDUE           4 Y       G     1 ROOT
    80   A12    2545 RESIDUE           4 Y       A     2
    81   C13    2578 RESIDUE           4 Y       C     2
    82   U14    2609 RESIDUE           4 Y       U     2
    83   C15    2639 RESIDUE           4 Y       C     2
    84   G16    2670 RESIDUE           4 Y       G     2
    85   G17    2704 RESIDUE           4 Y       G     2
    86   G18    2738 RESIDUE           4 Y       G     2
    87   G19    2772 RESIDUE           4 Y       G     2
    88   U20    2806 RESIDUE           4 Y       U     2
    89   G21    2836 RESIDUE           4 Y       G     2
    90   C22    2870 RESIDUE           4 Y       C     2
    91   C23    2901 RESIDUE           4 Y       C     2
    92   C24    2932 RESIDUE           4 Y       C     2
    93   U25    2963 RESIDUE           4 Y       U     2
    94   U26    2993 RESIDUE           4 Y       U     2
    95   C27    3023 RESIDUE           4 Y       C     2
    96   U28    3054 RESIDUE           4 Y       U     2
    97   G29    3084 RESIDUE           4 Y       G     2
    98   C30    3118 RESIDUE           4 Y       C     2
    99   G31    3149 RESIDUE           4 Y       G     2
   100   U32    3183 RESIDUE           4 Y       U     2
   101   G33    3213 RESIDUE           4 Y       G     2
   102   A34    3247 RESIDUE           4 Y       A     2
   103   A35    3280 RESIDUE           4 Y       A     2
   104   G36    3313 RESIDUE           4 Y       G     2
   105   G37    3347 RESIDUE           4 Y       G     2
   106   C38    3381 RESIDUE           4 Y       C     2
   107   U39    3412 RESIDUE           4 Y       U     2
   108   G40    3442 RESIDUE           4 Y       G     2
   109   A41    3476 RESIDUE           4 Y       A     2
   110   G42    3509 RESIDUE           4 Y       G     2
   111   A43    3543 RESIDUE           4 Y       A     2
   112   A44    3576 RESIDUE           4 Y       A     2
   113   A45    3609 RESIDUE           4 Y       A     2
   114   U46    3642 RESIDUE           4 Y       U     2
   115   A47    3672 RESIDUE           4 Y       A     2
   116   C48    3705 RESIDUE           4 Y       C     2
   117   C49    3736 RESIDUE           4 Y       C     2
   118   C50    3767 RESIDUE           4 Y       C     2
   119   G51    3798 RESIDUE           4 Y       G     2
   120   U52    3832 RESIDUE           4 Y       U     2
   121   A53    3862 RESIDUE           4 Y       A     2
   122   U54    3895 RESIDUE           4 Y       U     2
   123   C55    3925 RESIDUE           4 Y       C     2
   124   A56    3956 RESIDUE           4 Y       A     2
   125   C57    3989 RESIDUE           4 Y       C     2
   126   C58    4020 RESIDUE           4 Y       C     2
   127   U59    4051 RESIDUE           4 Y       U     2
   128   G60    4081 RESIDUE           4 Y       G     2
   129   A61    4115 RESIDUE           4 Y       A     2
   130   U62    4148 RESIDUE           4 Y       U     2
   131   C63    4178 RESIDUE           4 Y       C     2
   132   U64    4209 RESIDUE           4 Y       U     2
   133   G65    4239 RESIDUE           4 Y       G     2
   134   G66    4273 RESIDUE           4 Y       G     2
   135   A67    4307 RESIDUE           4 Y       A     2
   136   U68    4340 RESIDUE           4 Y       U     2
   137   A69    4370 RESIDUE           4 Y       A     2
   138   A70    4403 RESIDUE           4 Y       A     2
   139   U71    4436 RESIDUE           4 Y       U     2
   140   G72    4466 RESIDUE           4 Y       G     2
   141   C73    4500 RESIDUE           4 Y       C     2
   142   C74    4531 RESIDUE           4 Y       C     2
   143   A75    4562 RESIDUE           4 Y       A     2
   144   G76    4595 RESIDUE           4 Y       G     2
   145   C77    4629 RESIDUE           4 Y       C     2
   146   G78    4660 RESIDUE           4 Y       G     2
   147   U79    4694 RESIDUE           4 Y       U     2
   148   A80    4724 RESIDUE           4 Y       A     2
   149   G81    4757 RESIDUE           4 Y       G     2
   150   G82    4791 RESIDUE           4 Y       G     2
   151   G83    4825 RESIDUE           4 Y       G     2
   152   A84    4859 RESIDUE           4 Y       A     2
   153   A85    4892 RESIDUE           4 Y       A     2
   154   G86    4925 RESIDUE           4 Y       G     2
   155   U87    4959 RESIDUE           4 Y       U     2
   156   U88    4989 RESIDUE           4 Y       U     1
