@<TRIPOS>MOLECULE
3GER.pdb
2145 2312 67 0 0
NUCLEIC_ACID
AMBER ff14SB


@<TRIPOS>ATOM
      1 O5'         4.1780    4.5830   19.6660 O.3       1   G15      -0.6223
      2 C5'         5.2190    4.3860   20.6280 C.3       1   G15       0.0558
      3 C4'         5.2160    2.9830   21.1870 C.3       1   G15       0.1065
      4 O4'         3.9290    2.7240   21.8140 O.3       1   G15      -0.3548
      5 C3'         5.3700    1.8580   20.1770 C.3       1   G15       0.2022
      6 O3'         6.7150    1.7160   19.6990 O.3       1   G15      -0.5246
      7 C2'         4.7290    0.6820   20.9090 C.3       1   G15       0.0670
      8 O2'         5.5250    0.0900   21.9150 O.3       1   G15      -0.6139
      9 C1'         3.5430    1.3770   21.5810 C.3       1   G15       0.0191
     10 N9          2.3720    1.3910   20.7100 N.ar      1   G15       0.0492
     11 C8          1.7110    2.4930   20.2240 C.ar      1   G15       0.1374
     12 N7          0.7080    2.1870   19.4460 N.ar      1   G15      -0.5709
     13 C5          0.7030    0.7990   19.4210 C.ar      1   G15       0.1744
     14 C6         -0.1570   -0.1070   18.7450 C.2       1   G15       0.4770
     15 O6         -1.1190    0.1450   18.0070 O.2       1   G15      -0.5597
     16 N1          0.1940   -1.4300   19.0000 N.am      1   G15      -0.4787
     17 C2          1.2360   -1.8320   19.8000 C.2       1   G15       0.7657
     18 N2          1.4140   -3.1550   19.9200 N.pl3     1   G15      -0.9672
     19 N3          2.0440   -0.9980   20.4340 N.2       1   G15      -0.6323
     20 C4          1.7220    0.2920   20.2010 C.ar      1   G15       0.1222
     21 H5'         6.1803    4.5715   20.1488 H         1   G15       0.0679
     22 H5''        5.0865    5.0948   21.4454 H         1   G15       0.0679
     23 H4'         6.0015    2.8973   21.9379 H         1   G15       0.1174
     24 H3'         4.7394    2.0959   19.3203 H         1   G15       0.0615
     25 H2'         4.3829   -0.0700   20.2000 H         1   G15       0.0972
     26 H1'         3.3043    0.8856   22.5242 H         1   G15       0.2006
     27 H8          1.9922    3.5084   20.4612 H         1   G15       0.1640
     28 H1         -0.3613   -2.1512   18.5622 H         1   G15       0.3424
     29 H21         0.7985   -3.7933   19.4364 H         1   G15       0.4364
     30 H22         2.1636   -3.5137   20.4940 H         1   G15       0.4364
     31 HO5'        4.2133    5.4836   19.3355 H         1   G15       0.4295
     32 HO2'        4.9616   -0.2246   22.6257 H         1   G15       0.4186
     33 P           7.7300    0.6740   20.3890 P.3       2   G16       1.1662
     34 OP1         7.7440    0.9110   21.8560 O.co2     2   G16      -0.7760
     35 OP2         9.0020    0.7540   19.6250 O.co2     2   G16      -0.7760
     36 O5'         7.0950   -0.7590   20.1030 O.3       2   G16      -0.4989
     37 C5'         7.6660   -1.9280   20.6810 C.3       2   G16       0.0558
     38 C4'         7.1590   -3.1700   19.9860 C.3       2   G16       0.1065
     39 O4'         5.7070   -3.1900   20.0480 O.3       2   G16      -0.3548
     40 C3'         7.4610   -3.2590   18.4980 C.3       2   G16       0.2022
     41 O3'         8.7550   -3.7910   18.2470 O.3       2   G16      -0.5246
     42 C2'         6.3770   -4.2090   18.0100 C.3       2   G16       0.0670
     43 O2'         6.6800   -5.5640   18.2730 O.3       2   G16      -0.6139
     44 C1'         5.1880   -3.7720   18.8630 C.3       2   G16       0.0191
     45 N9          4.3520   -2.7910   18.1810 N.ar      2   G16       0.0492
     46 C8          4.3160   -1.4330   18.3810 C.ar      2   G16       0.1374
     47 N7          3.4590   -0.8240   17.6070 N.ar      2   G16      -0.5709
     48 C5          2.8960   -1.8440   16.8510 C.ar      2   G16       0.1744
     49 C6          1.9010   -1.8000   15.8390 C.2       2   G16       0.4770
     50 O6          1.2950   -0.8170   15.3940 O.2       2   G16      -0.5597
     51 N1          1.6290   -3.0690   15.3360 N.am      2   G16      -0.4787
     52 C2          2.2340   -4.2300   15.7510 C.2       2   G16       0.7657
     53 N2          1.8380   -5.3580   15.1440 N.pl3     2   G16      -0.9672
     54 N3          3.1590   -4.2830   16.6920 N.2       2   G16      -0.6323
     55 C4          3.4380   -3.0630   17.1940 C.ar      2   G16       0.1222
     56 H5'         8.7507   -1.8816   20.5842 H         2   G16       0.0679
     57 H5''        7.4008   -1.9733   21.7373 H         2   G16       0.0679
     58 H4'         7.5546   -4.0526   20.4887 H         2   G16       0.1174
     59 H3'         7.3522   -2.2819   18.0274 H         2   G16       0.0615
     60 H2'         6.1730   -4.0548   16.9504 H         2   G16       0.0972
     61 H1'         4.5868   -4.6440   19.1207 H         2   G16       0.2006
     62 H8          4.9333   -0.9212   19.1044 H         2   G16       0.1640
     63 H1          0.9320   -3.1417   14.6087 H         2   G16       0.3424
     64 H21         1.1307   -5.3224   14.4239 H         2   G16       0.4364
     65 H22         2.2470   -6.2433   15.4069 H         2   G16       0.4364
     66 HO2'        6.6405   -6.0657   17.4555 H         2   G16       0.4186
     67 P           9.4320   -3.5760   16.8060 P.3       3   A17       1.1662
     68 OP1        10.7840   -4.1900   16.8170 O.co2     3   A17      -0.7760
     69 OP2         9.2810   -2.1390   16.4620 O.co2     3   A17      -0.7760
     70 O5'         8.5100   -4.4170   15.8150 O.3       3   A17      -0.4989
     71 C5'         8.4390   -5.8360   15.9130 C.3       3   A17       0.0558
     72 C4'         7.6490   -6.3990   14.7570 C.3       3   A17       0.1065
     73 O4'         6.2460   -6.0600   14.9220 O.3       3   A17      -0.3548
     74 C3'         8.0160   -5.8380   13.3940 C.3       3   A17       0.2022
     75 O3'         9.1060   -6.5700   12.8500 O.3       3   A17      -0.5246
     76 C2'         6.7390   -6.0680   12.5960 C.3       3   A17       0.0670
     77 O2'         6.6280   -7.3860   12.0940 O.3       3   A17      -0.6139
     78 C1'         5.6650   -5.8070   13.6540 C.3       3   A17       0.0394
     79 N9          5.1670   -4.4330   13.6470 N.ar      3   A17      -0.0251
     80 C8          5.6290   -3.3600   14.3690 C.ar      3   A17       0.2006
     81 N7          4.9720   -2.2480   14.1420 N.ar      3   A17      -0.6073
     82 C5          4.0130   -2.6130   13.2070 C.ar      3   A17       0.0515
     83 C6          2.9990   -1.8870   12.5570 C.ar      3   A17       0.7009
     84 N6          2.7730   -0.5860   12.7550 N.pl3     3   A17      -0.9019
     85 N1          2.2140   -2.5520   11.6820 N.ar      3   A17      -0.7615
     86 C2          2.4400   -3.8560   11.4810 C.ar      3   A17       0.5875
     87 N3          3.3580   -4.6470   12.0310 N.ar      3   A17      -0.6997
     88 C4          4.1210   -3.9560   12.8950 C.ar      3   A17       0.3053
     89 H5'         9.4476   -6.2490   15.8948 H         3   A17       0.0679
     90 H5''        7.9534   -6.1096   16.8497 H         3   A17       0.0679
     91 H4'         7.7578   -7.4834   14.7410 H         3   A17       0.1174
     92 H3'         8.2513   -4.7756   13.4584 H         3   A17       0.0615
     93 H2'         6.6600   -5.3434   11.7856 H         3   A17       0.0972
     94 H1'         4.8319   -6.4921   13.4972 H         3   A17       0.2007
     95 H8          6.4567   -3.4259   15.0597 H         3   A17       0.1553
     96 H2          1.7828   -4.3350   10.7703 H         3   A17       0.0473
     97 H61         1.8250   -0.3742   12.4783 H         3   A17       0.4115
     98 H62         3.4406    0.0775   13.1214 H         3   A17       0.4115
     99 HO2'        7.3072   -7.5351   11.4322 H         3   A17       0.4186
    100 P          10.0760   -5.8730   11.7770 P.3       4   C18       1.1662
    101 OP1        11.3410   -6.6480   11.7070 O.co2     4   C18      -0.7760
    102 OP2        10.1180   -4.4200   12.0880 O.co2     4   C18      -0.7760
    103 O5'         9.3030   -6.0490   10.3980 O.3       4   C18      -0.4989
    104 C5'         9.0590   -4.9300    9.5620 C.3       4   C18       0.0558
    105 C4'         7.7520   -5.1010    8.8330 C.3       4   C18       0.1065
    106 O4'         6.6520   -4.8180    9.7360 O.3       4   C18      -0.3548
    107 C3'         7.5420   -4.1560    7.6660 C.3       4   C18       0.2022
    108 O3'         8.1510   -4.6930    6.5010 O.3       4   C18      -0.5246
    109 C2'         6.0240   -4.1200    7.5580 C.3       4   C18       0.0670
    110 O2'         5.4950   -5.2380    6.8760 O.3       4   C18      -0.6139
    111 C1'         5.6160   -4.1540    9.0320 C.3       4   C18       0.0066
    112 N1          5.4770   -2.8060    9.6020 N.am      4   C18      -0.0484
    113 C2          4.4250   -1.9970    9.1710 C.2       4   C18       0.7538
    114 O2          3.6340   -2.4430    8.3270 O.2       4   C18      -0.6252
    115 N3          4.2950   -0.7520    9.6840 N.2       4   C18      -0.7584
    116 C4          5.1670   -0.3090   10.5890 C.2       4   C18       0.8185
    117 N4          5.0000    0.9280   11.0630 N.pl3     4   C18      -0.9530
    118 C5          6.2490   -1.1140   11.0490 C.2       4   C18      -0.5215
    119 C6          6.3650   -2.3440   10.5340 C.2       4   C18       0.0053
    120 H5'         9.0157   -4.0276   10.1719 H         4   C18       0.0679
    121 H5''        9.8676   -4.8375    8.8370 H         4   C18       0.0679
    122 H4'         7.6704   -6.1292    8.4804 H         4   C18       0.1174
    123 H3'         7.9392   -3.1662    7.8911 H         4   C18       0.0615
    124 H2'         5.6941   -3.1928    7.0894 H         4   C18       0.0972
    125 H1'         4.6808   -4.7023    9.1450 H         4   C18       0.2029
    126 H5          6.9486   -0.7459   11.7849 H         4   C18       0.1928
    127 H6          7.1731   -2.9821   10.8598 H         4   C18       0.1958
    128 H41         4.2317    1.4953   10.7344 H         4   C18       0.4234
    129 H42         5.6420    1.2964   11.7502 H         4   C18       0.4234
    130 HO2'        4.5370   -5.2257    6.9362 H         4   C18       0.4186
    131 P           9.0360   -3.7400    5.5610 P.3       5   A19       1.1662
    132 OP1         9.7820   -4.5930    4.6010 O.co2     5   A19      -0.7760
    133 OP2         9.7770   -2.8020    6.4410 O.co2     5   A19      -0.7760
    134 O5'         7.9450   -2.9120    4.7510 O.3       5   A19      -0.4989
    135 C5'         6.8340   -3.5730    4.1540 C.3       5   A19       0.0558
    136 C4'         5.8880   -2.5650    3.5520 C.3       5   A19       0.1065
    137 O4'         4.9470   -2.1300    4.5710 O.3       5   A19      -0.3548
    138 C3'         6.5370   -1.2750    3.0770 C.3       5   A19       0.2022
    139 O3'         7.0640   -1.4090    1.7630 O.3       5   A19      -0.5246
    140 C2'         5.3690   -0.3000    3.1180 C.3       5   A19       0.0670
    141 O2'         4.5140   -0.4420    2.0030 O.3       5   A19      -0.6139
    142 C1'         4.6370   -0.7600    4.3780 C.3       5   A19       0.0394
    143 N9          5.0360   -0.0170    5.5740 N.ar      5   A19      -0.0251
    144 C8          5.9460   -0.3700    6.5390 C.ar      5   A19       0.2006
    145 N7          6.0730    0.5190    7.4960 N.ar      5   A19      -0.6073
    146 C5          5.1870    1.5260    7.1350 C.ar      5   A19       0.0515
    147 C6          4.8440    2.7530    7.7370 C.ar      5   A19       0.7009
    148 N6          5.3730    3.1980    8.8800 N.pl3     5   A19      -0.9019
    149 N1          3.9240    3.5200    7.1140 N.ar      5   A19      -0.7615
    150 C2          3.3890    3.0790    5.9700 C.ar      5   A19       0.5875
    151 N3          3.6270    1.9500    5.3090 N.ar      5   A19      -0.6997
    152 C4          4.5450    1.2100    5.9520 C.ar      5   A19       0.3053
    153 H5'         7.1918   -4.2423    3.3716 H         5   A19       0.0679
    154 H5''        6.3086   -4.1529    4.9128 H         5   A19       0.0679
    155 H4'         5.3440   -3.0241    2.7265 H         5   A19       0.1174
    156 H3'         7.3179   -0.9635    3.7707 H         5   A19       0.0615
    157 H2'         5.7176    0.7279    3.2184 H         5   A19       0.0972
    158 H1'         3.5626   -0.6519    4.2293 H         5   A19       0.2007
    159 H8          6.5055   -1.2934    6.5132 H         5   A19       0.1553
    160 H2          2.6588    3.7341    5.5183 H         5   A19       0.0473
    161 HO2'        4.4763    0.3871    1.5205 H         5   A19       0.4186
    162 H61         4.8300    3.9563    9.2676 H         5   A19       0.4115
    163 H62         6.2101    2.8235    9.3032 H         5   A19       0.4115
    164 P           8.2480   -0.4370    1.2810 P.3       6   U20       1.1662
    165 OP1         8.6610   -0.8390   -0.0900 O.co2     6   U20      -0.7760
    166 OP2         9.2540   -0.3990    2.3720 O.co2     6   U20      -0.7760
    167 O5'         7.5520    0.9930    1.1820 O.3       6   U20      -0.4989
    168 C5'         6.4660    1.1980    0.2850 C.3       6   U20       0.0558
    169 C4'         5.9270    2.6060    0.3970 C.3       6   U20       0.1065
    170 O4'         5.2470    2.7560    1.6740 O.3       6   U20      -0.3548
    171 C3'         6.9740    3.7100    0.4220 C.3       6   U20       0.2022
    172 O3'         7.4000    4.0730   -0.8820 O.3       6   U20      -0.5246
    173 C2'         6.2210    4.8460    1.1000 C.3       6   U20       0.0670
    174 O2'         5.3430    5.5290    0.2260 O.3       6   U20      -0.6139
    175 C1'         5.4080    4.0850    2.1430 C.3       6   U20       0.0674
    176 N1          6.0640    4.0700    3.4570 N.am      6   U20       0.0418
    177 C2          5.8210    5.1510    4.2780 C.2       6   U20       0.4687
    178 O2          5.1010    6.0740    3.9490 O.2       6   U20      -0.5477
    179 N3          6.4570    5.1150    5.4940 N.am      6   U20      -0.3549
    180 C4          7.2980    4.1280    5.9610 C.2       6   U20       0.5952
    181 O4          7.7970    4.2430    7.0830 O.2       6   U20      -0.5761
    182 C5          7.5000    3.0370    5.0510 C.2       6   U20      -0.3635
    183 C6          6.8880    3.0460    3.8580 C.2       6   U20      -0.1126
    184 H5'         5.6701    0.4922    0.5224 H         6   U20       0.0679
    185 H5''        6.8064    1.0245   -0.7358 H         6   U20       0.0679
    186 H4'         5.2226    2.7912   -0.4140 H         6   U20       0.1174
    187 H3'         7.8279    3.4076    1.0282 H         6   U20       0.0615
    188 H2'         6.9125    5.5404    1.5771 H         6   U20       0.0972
    189 H1'         4.4271    4.5503    2.2395 H         6   U20       0.1824
    190 H3          6.2908    5.8957    6.1129 H         6   U20       0.3154
    191 H5          8.1417    2.2129    5.3256 H         6   U20       0.1811
    192 H6          7.0490    2.2160    3.1860 H         6   U20       0.2188
    193 HO2'        5.3369    6.4637    0.4450 H         6   U20       0.4186
    194 P           8.8840    4.6500   -1.0980 P.3       7   A21       1.1662
    195 OP1         9.0130    5.0270   -2.5290 O.co2     7   A21      -0.7760
    196 OP2         9.8390    3.6790   -0.5060 O.co2     7   A21      -0.7760
    197 O5'         8.9160    5.9820   -0.2190 O.3       7   A21      -0.4989
    198 C5'         8.0960    7.0870   -0.5690 C.3       7   A21       0.0558
    199 C4'         8.3440    8.2760    0.3390 C.3       7   A21       0.1065
    200 O4'         7.7870    8.0100    1.6590 O.3       7   A21      -0.3548
    201 C3'         9.8120    8.5430    0.6470 C.3       7   A21       0.2022
    202 O3'        10.4260    9.2910   -0.3940 O.3       7   A21      -0.5246
    203 C2'         9.7360    9.3520    1.9370 C.3       7   A21       0.0670
    204 O2'         9.4600   10.7200    1.7170 O.3       7   A21      -0.6139
    205 C1'         8.5410    8.7090    2.6350 C.3       7   A21       0.0394
    206 N9          8.8850    7.8360    3.7560 N.ar      7   A21      -0.0251
    207 C8          9.3300    6.5400    3.7700 C.ar      7   A21       0.2006
    208 N7          9.5920    6.0860    4.9750 N.ar      7   A21      -0.6073
    209 C5          9.2860    7.1540    5.8080 C.ar      7   A21       0.0515
    210 C6          9.3510    7.3240    7.2080 C.ar      7   A21       0.7009
    211 N6          9.7630    6.3790    8.0580 N.pl3     7   A21      -0.9019
    212 N1          8.9730    8.5190    7.7120 N.ar      7   A21      -0.7615
    213 C2          8.5620    9.4710    6.8670 C.ar      7   A21       0.5875
    214 N3          8.4590    9.4320    5.5420 N.ar      7   A21      -0.6997
    215 C4          8.8410    8.2320    5.0700 C.ar      7   A21       0.3053
    216 H5'         8.3125    7.3762   -1.5974 H         7   A21       0.0679
    217 H5''        7.0492    6.7927   -0.4938 H         7   A21       0.0679
    218 H4'         7.8849    9.1692   -0.0848 H         7   A21       0.1174
    219 H3'        10.3454    7.6069    0.8124 H         7   A21       0.0615
    220 H2'        10.6439    9.2285    2.5275 H         7   A21       0.0972
    221 H1'         7.9144    9.5121    3.0228 H         7   A21       0.2007
    222 H8          9.4537    5.9478    2.8754 H         7   A21       0.1553
    223 H2          8.2725   10.4045    7.3266 H         7   A21       0.0473
    224 HO2'       10.1657   11.1095    1.1956 H         7   A21       0.4186
    225 H61         9.4554    6.6354    8.9852 H         7   A21       0.4115
    226 H62        10.2902    5.5523    7.8155 H         7   A21       0.4115
    227 P          11.7540    8.7280   -1.1000 P.3       8   U22       1.1662
    228 OP1        12.1480    9.7190   -2.1250 O.co2     8   U22      -0.7760
    229 OP2        11.5100    7.3200   -1.4980 O.co2     8   U22      -0.7760
    230 O5'        12.8350    8.7530    0.0720 O.3       8   U22      -0.4989
    231 C5'        14.0400    8.0000   -0.0190 C.3       8   U22       0.0558
    232 C4'        14.5980    7.7240    1.3620 C.3       8   U22       0.1065
    233 O4'        15.0200    8.9860    1.9560 O.3       8   U22      -0.3548
    234 C3'        13.5660    7.1540    2.3340 C.3       8   U22       0.2022
    235 O3'        14.1830    6.3950    3.3680 O.3       8   U22      -0.5246
    236 C2'        12.9380    8.4060    2.9320 C.3       8   U22       0.0670
    237 O2'        12.4030    8.1870    4.2220 O.3       8   U22      -0.6139
    238 C1'        14.1510    9.3300    3.0200 C.3       8   U22       0.0674
    239 N1         13.8310   10.7610    2.9540 N.am      8   U22       0.0418
    240 C2         14.0590   11.5150    4.0920 C.2       8   U22       0.4687
    241 O2         14.5450   11.0470    5.1100 O.2       8   U22      -0.5477
    242 N3         13.7000   12.8340    3.9960 N.am      8   U22      -0.3549
    243 C4         13.1570   13.4670    2.9030 C.2       8   U22       0.5952
    244 O4         12.8270   14.6490    2.9930 O.2       8   U22      -0.5761
    245 C5         12.9730   12.6260    1.7560 C.2       8   U22      -0.3635
    246 C6         13.3090   11.3350    1.8200 C.2       8   U22      -0.1126
    247 H5'        13.8345    7.0533   -0.5186 H         8   U22       0.0679
    248 H5''       14.7730    8.5615   -0.5983 H         8   U22       0.0679
    249 H4'        15.4493    7.0473    1.2881 H         8   U22       0.1174
    250 H3'        12.8209    6.5589    1.8059 H         8   U22       0.0615
    251 H2'        12.1828    8.8191    2.2633 H         8   U22       0.0972
    252 H1'        14.6649    9.1350    3.9612 H         8   U22       0.1824
    253 H3         13.8506   13.4026    4.8170 H         8   U22       0.3154
    254 H5         12.5643   13.0351    0.8439 H         8   U22       0.1811
    255 H6         13.1647   10.7177    0.9457 H         8   U22       0.2188
    256 HO2'       11.6415    7.6058    4.1587 H         8   U22       0.4186
    257 P          14.4900    4.8360    3.1400 P.3       9   A23       1.1662
    258 OP1        13.7810    4.4060    1.9000 O.co2     9   A23      -0.7760
    259 OP2        14.2410    4.1190    4.4150 O.co2     9   A23      -0.7760
    260 O5'        16.0510    4.7940    2.8330 O.3       9   A23      -0.4989
    261 C5'        16.9820    5.4690    3.6750 C.3       9   A23       0.0558
    262 C4'        18.2020    5.8750    2.8820 C.3       9   A23       0.1065
    263 O4'        17.7820    6.5370    1.6680 O.3       9   A23      -0.3548
    264 C3'        19.1030    6.9050    3.5440 C.3       9   A23       0.2022
    265 O3'        20.0110    6.2640    4.4290 O.3       9   A23      -0.5246
    266 C2'        19.8540    7.5010    2.3550 C.3       9   A23       0.0670
    267 O2'        21.0090    6.7560    2.0230 O.3       9   A23      -0.6139
    268 C1'        18.8200    7.3920    1.2280 C.3       9   A23       0.0394
    269 N9         18.2310    8.6710    0.8340 N.ar      9   A23      -0.0251
    270 C8         17.9430    9.0880   -0.4430 C.ar      9   A23       0.2006
    271 N7         17.4380   10.2940   -0.5030 N.ar      9   A23      -0.6073
    272 C5         17.3870   10.7010    0.8240 C.ar      9   A23       0.0515
    273 C6         16.9510   11.8890    1.4290 C.ar      9   A23       0.7009
    274 N6         16.4750   12.9330    0.7480 N.pl3     9   A23      -0.9019
    275 N1         17.0250   11.9740    2.7740 N.ar      9   A23      -0.7615
    276 C2         17.5090   10.9270    3.4560 C.ar      9   A23       0.5875
    277 N3         17.9540    9.7580    3.0000 N.ar      9   A23      -0.6997
    278 C4         17.8660    9.7080    1.6590 C.ar      9   A23       0.3053
    279 H5'        16.5109    6.3591    4.0919 H         9   A23       0.0679
    280 H5''       17.2825    4.8057    4.4861 H         9   A23       0.0679
    281 H4'        18.7848    4.9888    2.6309 H         9   A23       0.1174
    282 H3'        18.5183    7.6652    4.0619 H         9   A23       0.0615
    283 H2'        20.1093    8.5437    2.5440 H         9   A23       0.0972
    284 H1'        19.2975    6.9433    0.3569 H         9   A23       0.2007
    285 H8         18.1172    8.4772   -1.3165 H         9   A23       0.1553
    286 H2         17.5429   11.0488    4.5286 H         9   A23       0.0473
    287 H61        16.3683   13.8886    1.0571 H         9   A23       0.4115
    288 H62        15.9804   13.0580   -0.1237 H         9   A23       0.4115
    289 HO2'       21.6519    6.8284    2.7323 H         9   A23       0.4186
    290 P          19.8310    6.4280    6.0180 P.3      10   A24       1.1662
    291 OP1        20.7200    5.4360    6.6780 O.co2    10   A24      -0.7760
    292 OP2        18.3780    6.4190    6.3140 O.co2    10   A24      -0.7760
    293 O5'        20.4050    7.8820    6.3310 O.3      10   A24      -0.4989
    294 C5'        19.6980    9.0520    5.9400 C.3      10   A24       0.0558
    295 C4'        19.5070    9.9660    7.1250 C.3      10   A24       0.1065
    296 O4'        18.5540    9.3590    8.0310 O.3      10   A24      -0.3548
    297 C3'        20.7340   10.2050    7.9930 C.3      10   A24       0.2022
    298 O3'        21.5220   11.2660    7.4460 O.3      10   A24      -0.5246
    299 C2'        20.0970   10.6350    9.3140 C.3      10   A24       0.0670
    300 O2'        19.6980   11.9890    9.2930 O.3      10   A24      -0.6139
    301 C1'        18.8300    9.7750    9.3520 C.3      10   A24       0.0394
    302 N9         18.9100    8.5840   10.1930 N.ar     10   A24      -0.0251
    303 C8         18.9090    7.2720    9.7840 C.ar     10   A24       0.2006
    304 N7         18.9400    6.4120   10.7690 N.ar     10   A24      -0.6073
    305 C5         18.9700    7.2080   11.9050 C.ar     10   A24       0.0515
    306 C6         18.9940    6.8970   13.2740 C.ar     10   A24       0.7009
    307 N6         18.9620    5.6480   13.7460 N.pl3    10   A24      -0.9019
    308 N1         19.0400    7.9250   14.1500 N.ar     10   A24      -0.7615
    309 C2         19.0410    9.1770   13.6720 C.ar     10   A24       0.5875
    310 N3         19.0030    9.5970   12.4060 N.ar     10   A24      -0.6997
    311 C4         18.9700    8.5480   11.5640 C.ar     10   A24       0.3053
    312 H5'        20.2653    9.5748    5.1700 H        10   A24       0.0679
    313 H5''       18.7238    8.7690    5.5414 H        10   A24       0.0679
    314 H4'        19.1170   10.9241    6.7814 H        10   A24       0.1174
    315 H3'        21.3208    9.2942    8.1121 H        10   A24       0.0615
    316 H2'        20.7499   10.4233   10.1607 H        10   A24       0.0972
    317 H1'        18.0022   10.3919    9.7017 H        10   A24       0.2007
    318 H8         18.8848    6.9781    8.7450 H        10   A24       0.1553
    319 H2         19.0778    9.9573   14.4178 H        10   A24       0.0473
    320 H61        18.9228    4.8673   13.1064 H        10   A24       0.4115
    321 H62        18.9770    5.4842   14.7425 H        10   A24       0.4115
    322 HO2'       19.3931   12.2461   10.1662 H        10   A24       0.4186
    323 P          23.0670   11.0100    7.0500 P.3      11   U25       1.1662
    324 OP1        23.4360    9.6270    7.4480 O.co2    11   U25      -0.7760
    325 OP2        23.8500   12.1520    7.5820 O.co2    11   U25      -0.7760
    326 O5'        23.0920   11.1680    5.4630 O.3      11   U25      -0.4989
    327 C5'        23.0190   10.0420    4.5940 C.3      11   U25       0.0558
    328 C4'        22.4350   10.4530    3.2570 C.3      11   U25       0.1065
    329 O4'        21.0440   10.8360    3.4510 O.3      11   U25      -0.3548
    330 C3'        23.0450   11.6760    2.5810 C.3      11   U25       0.2022
    331 O3'        24.2190   11.3640    1.8330 O.3      11   U25      -0.5246
    332 C2'        21.9190   12.0910    1.6480 C.3      11   U25       0.0670
    333 O2'        21.8180   11.2620    0.5080 O.3      11   U25      -0.6139
    334 C1'        20.7030   11.8760    2.5480 C.3      11   U25       0.0674
    335 N1         20.3600   13.0820    3.3170 N.am     11   U25       0.0418
    336 C2         19.8180   14.1430    2.6170 C.2      11   U25       0.4687
    337 O2         19.6140   14.1080    1.4140 O.2      11   U25      -0.5477
    338 N3         19.5230   15.2490    3.3720 N.am     11   U25      -0.3549
    339 C4         19.7130   15.4030    4.7270 C.2      11   U25       0.5952
    340 O4         19.4110   16.4720    5.2590 O.2      11   U25      -0.5761
    341 C5         20.2740   14.2610    5.3860 C.2      11   U25      -0.3635
    342 C6         20.5700   13.1640    4.6750 C.2      11   U25      -0.1126
    343 H5'        24.0202    9.6390    4.4414 H        11   U25       0.0679
    344 H5''       22.3865    9.2775    5.0452 H        11   U25       0.0679
    345 H4'        22.4802    9.6064    2.5720 H        11   U25       0.1174
    346 H3'        23.2494   12.4589    3.3113 H        11   U25       0.0615
    347 H2'        22.0138   13.1387    1.3625 H        11   U25       0.0972
    348 H1'        19.8487   11.5713    1.9435 H        11   U25       0.1824
    349 H3         19.1231   16.0358    2.8810 H        11   U25       0.3154
    350 H5         20.4574   14.2840    6.4501 H        11   U25       0.1811
    351 H6         20.9897   12.3110    5.1876 H        11   U25       0.2188
    352 HO2'       21.0193   11.4816    0.0227 H        11   U25       0.4186
    353 P          25.2960   12.5200    1.5100 P.3      12   C26       1.1662
    354 OP1        26.4920   11.8640    0.9280 O.co2    12   C26      -0.7760
    355 OP2        25.4430   13.3630    2.7260 O.co2    12   C26      -0.7760
    356 O5'        24.6140   13.4180    0.3780 O.3      12   C26      -0.4989
    357 C5'        24.4890   12.9410   -0.9620 C.3      12   C26       0.0558
    358 C4'        23.9660   14.0320   -1.8810 C.3      12   C26       0.1065
    359 O4'        22.5960   14.3880   -1.5390 O.3      12   C26      -0.3548
    360 C3'        24.6840   15.3700   -1.8470 C.3      12   C26       0.2022
    361 O3'        25.8950   15.3280   -2.5830 O.3      12   C26      -0.5246
    362 C2'        23.6490   16.2660   -2.5120 C.3      12   C26       0.0670
    363 O2'        23.5570   16.0660   -3.9100 O.3      12   C26      -0.6139
    364 C1'        22.3750   15.7660   -1.8340 C.3      12   C26       0.0066
    365 N1         22.1470   16.4830   -0.5710 N.am     12   C26      -0.0484
    366 C2         21.5990   17.7710   -0.6180 C.2      12   C26       0.7538
    367 O2         21.3150   18.2660   -1.7220 O.2      12   C26      -0.6252
    368 N3         21.3990   18.4440    0.5360 N.2      12   C26      -0.7584
    369 C4         21.7310   17.8860    1.7020 C.2      12   C26       0.8185
    370 N4         21.5290   18.5990    2.8130 N.pl3    12   C26      -0.9530
    371 C5         22.2870   16.5760    1.7800 C.2      12   C26      -0.5215
    372 C6         22.4740   15.9150    0.6290 C.2      12   C26       0.0053
    373 H5'        25.4665   12.6144   -1.3167 H        12   C26       0.0679
    374 H5''       23.8003   12.0963   -0.9795 H        12   C26       0.0679
    375 H4'        23.9806   13.6579   -2.9047 H        12   C26       0.1174
    376 H3'        24.8662   15.6855   -0.8197 H        12   C26       0.0615
    377 H2'        23.8311   17.3149   -2.2779 H        12   C26       0.0972
    378 H1'        21.5186   15.8815   -2.4984 H        12   C26       0.2029
    379 H5         22.5476   16.1330    2.7299 H        12   C26       0.1928
    380 H6         22.8894   14.9183    0.6498 H        12   C26       0.1958
    381 H41        21.1359   19.5274    2.7527 H        12   C26       0.4234
    382 H42        21.7694   18.2098    3.7135 H        12   C26       0.4234
    383 HO2'       22.8028   16.5505   -4.2536 H        12   C26       0.4186
    384 P          27.1240   16.2620   -2.1400 P.3      13   G27       1.1662
    385 OP1        28.2500   15.9600   -3.0550 O.co2    13   G27      -0.7760
    386 OP2        27.3070   16.1250   -0.6730 O.co2    13   G27      -0.7760
    387 O5'        26.6030   17.7390   -2.4300 O.3      13   G27      -0.4989
    388 C5'        26.1640   18.1090   -3.7330 C.3      13   G27       0.0558
    389 C4'        25.7830   19.5690   -3.7580 C.3      13   G27       0.1065
    390 O4'        24.5380   19.7580   -3.0380 O.3      13   G27      -0.3548
    391 C3'        26.7380   20.4970   -3.0320 C.3      13   G27       0.2022
    392 O3'        27.8880   20.7770   -3.8240 O.3      13   G27      -0.5246
    393 C2'        25.8550   21.7200   -2.8190 C.3      13   G27       0.0670
    394 O2'        25.7100   22.5060   -3.9880 O.3      13   G27      -0.6139
    395 C1'        24.5230   21.0560   -2.4570 C.3      13   G27       0.0191
    396 N9         24.3200   20.9220   -1.0150 N.ar     13   G27       0.0492
    397 C8         24.5030   19.8030   -0.2390 C.ar     13   G27       0.1374
    398 N7         24.2400   20.0060    1.0260 N.ar     13   G27      -0.5709
    399 C5         23.8620   21.3420    1.0890 C.ar     13   G27       0.1744
    400 C6         23.4630   22.1430    2.1990 C.2      13   G27       0.4770
    401 O6         23.3500   21.8150    3.3930 O.2      13   G27      -0.5597
    402 N1         23.1750   23.4480    1.8080 N.am     13   G27      -0.4787
    403 C2         23.2490   23.9220    0.5210 C.2      13   G27       0.7657
    404 N2         22.9200   25.2100    0.3390 N.pl3    13   G27      -0.9672
    405 N3         23.6160   23.1890   -0.5170 N.2      13   G27      -0.6323
    406 C4         23.9060   21.9210   -0.1640 C.ar     13   G27       0.1222
    407 H5'        25.2980   17.5060   -4.0060 H        13   G27       0.0679
    408 H5''       26.9671   17.9328   -4.4485 H        13   G27       0.0679
    409 H4'        25.6638   19.8994   -4.7899 H        13   G27       0.1174
    410 H3'        27.0311   20.0678   -2.0739 H        13   G27       0.0615
    411 H2'        26.2241   22.3240   -1.9901 H        13   G27       0.0972
    412 H1'        23.7036   21.6336   -2.8848 H        13   G27       0.2006
    413 H8         24.8307   18.8525   -0.6335 H        13   G27       0.1640
    414 H1         22.8893   24.0970    2.5272 H        13   G27       0.3424
    415 H21        22.6379   25.7754    1.1270 H        13   G27       0.4364
    416 H22        22.9545   25.6142   -0.5860 H        13   G27       0.4364
    417 HO2'       26.5504   22.9165   -4.2045 H        13   G27       0.4186
    418 P          29.2420   21.2720   -3.1140 P.3      14   C28       1.1662
    419 OP1        30.2660   21.4750   -4.1770 O.co2    14   C28      -0.7760
    420 OP2        29.5430   20.3710   -1.9700 O.co2    14   C28      -0.7760
    421 O5'        28.8150   22.6970   -2.5560 O.3      14   C28      -0.4989
    422 C5'        29.2410   23.1640   -1.2920 C.3      14   C28       0.0558
    423 C4'        28.5810   24.4880   -1.0190 C.3      14   C28       0.1065
    424 O4'        27.1770   24.2800   -0.6990 O.3      14   C28      -0.3548
    425 C3'        29.1210   25.3010    0.1430 C.3      14   C28       0.2022
    426 O3'        30.2650   26.0290   -0.2780 O.3      14   C28      -0.5246
    427 C2'        27.9280   26.2000    0.4320 C.3      14   C28       0.0670
    428 O2'        27.7560   27.2080   -0.5500 O.3      14   C28      -0.6139
    429 C1'        26.7860   25.1900    0.3210 C.3      14   C28       0.0066
    430 N1         26.5780   24.4300    1.5670 N.am     14   C28      -0.0484
    431 C2         25.9660   25.0710    2.6410 C.2      14   C28       0.7538
    432 O2         25.5840   26.2460    2.4960 O.2      14   C28      -0.6252
    433 N3         25.7990   24.4010    3.8060 N.2      14   C28      -0.7584
    434 C4         26.2060   23.1360    3.9150 C.2      14   C28       0.8185
    435 N4         26.0310   22.5200    5.0900 N.pl3    14   C28      -0.9530
    436 C5         26.8140   22.4450    2.8260 C.2      14   C28      -0.5215
    437 C6         26.9820   23.1280    1.6810 C.2      14   C28       0.0053
    438 H5'        28.9571   22.4471   -0.5216 H        14   C28       0.0679
    439 H5''       30.3238   23.2888   -1.2942 H        14   C28       0.0679
    440 H4'        28.6419   25.0956   -1.9219 H        14   C28       0.1174
    441 H3'        29.3510   24.6640    0.9970 H        14   C28       0.0615
    442 H2'        27.9853   26.6265    1.4334 H        14   C28       0.0972
    443 H1'        25.8649   25.6979    0.0352 H        14   C28       0.2029
    444 H5         27.1266   21.4153    2.9176 H        14   C28       0.1928
    445 H6         27.4443   22.6403    0.8355 H        14   C28       0.1958
    446 H41        25.6010   23.0130    5.8595 H        14   C28       0.4234
    447 H42        26.3289   21.5621    5.2073 H        14   C28       0.4234
    448 HO2'       26.9172   27.6529   -0.4084 H        14   C28       0.4186
    449 P          31.3850   26.4460    0.7910 P.3      15   G29       1.1662
    450 OP1        32.5920   26.9550    0.0950 O.co2    15   G29      -0.7760
    451 OP2        31.5270   25.3640    1.8060 O.co2    15   G29      -0.7760
    452 O5'        30.7160   27.6690    1.5530 O.3      15   G29      -0.4989
    453 C5'        30.3770   28.8620    0.8620 C.3      15   G29       0.0558
    454 C4'        29.7220   29.8250    1.8140 C.3      15   G29       0.1065
    455 O4'        28.4700   29.2490    2.2740 O.3      15   G29      -0.3548
    456 C3'        30.5010   30.0840    3.0920 C.3      15   G29       0.2022
    457 O3'        31.4750   31.0990    2.8820 O.3      15   G29      -0.5246
    458 C2'        29.3910   30.5330    4.0290 C.3      15   G29       0.0670
    459 O2'        28.9460   31.8410    3.7380 O.3      15   G29      -0.6139
    460 C1'        28.2820   29.5520    3.6480 C.3      15   G29       0.0191
    461 N9         28.3090   28.3010    4.4040 N.ar     15   G29       0.0492
    462 C8         28.7410   27.0710    3.9750 C.ar     15   G29       0.1374
    463 N7         28.6170   26.1370    4.8840 N.ar     15   G29      -0.5709
    464 C5         28.0730   26.7930    5.9790 C.ar     15   G29       0.1744
    465 C6         27.7130   26.3000    7.2660 C.2      15   G29       0.4770
    466 O6         27.7910   25.1330    7.7010 O.2      15   G29      -0.5597
    467 N1         27.2150   27.3160    8.0800 N.am     15   G29      -0.4787
    468 C2         27.0750   28.6340    7.7030 C.2      15   G29       0.7657
    469 N2         26.5820   29.4740    8.6370 N.pl3    15   G29      -0.9672
    470 N3         27.3970   29.0980    6.5050 N.2      15   G29      -0.6323
    471 C4         27.8870   28.1320    5.7030 C.ar     15   G29       0.1222
    472 H5'        29.6877   28.6282    0.0506 H        15   G29       0.0679
    473 H5''       31.2804   29.3139    0.4524 H        15   G29       0.0679
    474 H4'        29.5269   30.7690    1.3051 H        15   G29       0.1174
    475 H3'        30.9675   29.1679    3.4543 H        15   G29       0.0615
    476 H2'        29.6796   30.4287    5.0749 H        15   G29       0.0972
    477 H1'        27.3132   30.0333    3.7818 H        15   G29       0.2006
    478 H8         29.1422   26.8919    2.9884 H        15   G29       0.1640
    479 H1         26.9353   27.0671    9.0180 H        15   G29       0.3424
    480 H21        26.3370   29.1239    9.5522 H        15   G29       0.4364
    481 H22        26.4580   30.4528    8.4209 H        15   G29       0.4364
    482 HO2'       29.6310   32.4719    3.9713 H        15   G29       0.4186
    483 P          32.9570   30.9080    3.4590 P.3      16   U30       1.1662
    484 OP1        33.8410   31.9420    2.8640 O.co2    16   U30      -0.7760
    485 OP2        33.3370   29.4780    3.3640 O.co2    16   U30      -0.7760
    486 O5'        32.7880   31.2480    5.0060 O.3      16   U30      -0.4989
    487 C5'        32.5120   32.5790    5.4150 C.3      16   U30       0.0558
    488 C4'        32.1550   32.6090    6.8760 C.3      16   U30       0.1065
    489 O4'        30.9090   31.8880    7.0880 O.3      16   U30      -0.3548
    490 C3'        33.1180   31.8880    7.8020 C.3      16   U30       0.2022
    491 O3'        34.2990   32.6410    8.0450 O.3      16   U30      -0.5246
    492 C2'        32.2390   31.7250    9.0340 C.3      16   U30       0.0670
    493 O2'        32.0420   32.9490    9.7250 O.3      16   U30      -0.6139
    494 C1'        30.9310   31.2840    8.3770 C.3      16   U30       0.0674
    495 N1         30.8830   29.8250    8.2020 N.am     16   U30       0.0418
    496 C2         30.5340   29.0730    9.3020 C.2      16   U30       0.4687
    497 O2         30.2430   29.5790   10.3760 O.2      16   U30      -0.5477
    498 N3         30.5430   27.7140    9.1020 N.am     16   U30      -0.3549
    499 C4         30.8650   27.0490    7.9300 C.2      16   U30       0.5952
    500 O4         30.8990   25.8170    7.9190 O.2      16   U30      -0.5761
    501 C5         31.1960   27.9040    6.8310 C.2      16   U30      -0.3635
    502 C6         31.1890   29.2320    7.0010 C.2      16   U30      -0.1126
    503 H5'        33.3937   33.1975    5.2470 H        16   U30       0.0679
    504 H5''       31.6790   32.9710    4.8314 H        16   U30       0.0679
    505 H4'        32.0390   33.6425    7.2025 H        16   U30       0.1174
    506 H3'        33.3735   30.9112    7.3912 H        16   U30       0.0615
    507 H2'        32.6280   30.9535    9.6985 H        16   U30       0.0972
    508 H1'        30.0791   31.6219    8.9671 H        16   U30       0.1824
    509 H3         30.2881   27.1392    9.8924 H        16   U30       0.3154
    510 H5         31.4499   27.4805    5.8705 H        16   U30       0.1811
    511 H6         31.4340   29.8630    6.1595 H        16   U30       0.2188
    512 HO2'       32.1321   32.8019   10.6694 H        16   U30       0.4186
    513 P          35.6820   31.8850    8.3280 P.3      17   G31       1.1662
    514 OP1        36.7850   32.8770    8.3230 O.co2    17   G31      -0.7760
    515 OP2        35.7690   30.6850    7.4500 O.co2    17   G31      -0.7760
    516 O5'        35.5140   31.3540    9.8180 O.3      17   G31      -0.4989
    517 C5'        35.3310   32.2680   10.8910 C.3      17   G31       0.0558
    518 C4'        34.7840   31.5500   12.0950 C.3      17   G31       0.1065
    519 O4'        33.5320   30.8970   11.7480 O.3      17   G31      -0.3548
    520 C3'        35.6230   30.4090   12.6420 C.3      17   G31       0.2022
    521 O3'        36.7130   30.8810   13.4280 O.3      17   G31      -0.5246
    522 C2'        34.5830   29.6860   13.4820 C.3      17   G31       0.0670
    523 O2'        34.2580   30.3900   14.6690 O.3      17   G31      -0.6139
    524 C1'        33.3910   29.7150   12.5230 C.3      17   G31       0.0191
    525 N9         33.4270   28.5620   11.6300 N.ar     17   G31       0.0492
    526 C8         33.7220   28.5230   10.2870 C.ar     17   G31       0.1374
    527 N7         33.7180   27.3050    9.8000 N.ar     17   G31      -0.5709
    528 C5         33.3890   26.5040   10.8870 C.ar     17   G31       0.1744
    529 C6         33.2520   25.0920   10.9950 C.2      17   G31       0.4770
    530 O6         33.3950   24.2260   10.1150 O.2      17   G31      -0.5597
    531 N1         32.9180   24.7110   12.2940 N.am     17   G31      -0.4787
    532 C2         32.7450   25.5680   13.3510 C.2      17   G31       0.7657
    533 N2         32.4170   25.0170   14.5400 N.pl3    17   G31      -0.9672
    534 N3         32.8780   26.8730   13.2630 N.2      17   G31      -0.6323
    535 C4         33.1960   27.2690   12.0160 C.ar     17   G31       0.1222
    536 H5'        36.2892   32.7207   11.1460 H        17   G31       0.0679
    537 H5''       34.6325   33.0475   10.5867 H        17   G31       0.0679
    538 H4'        34.6018   32.2729   12.8902 H        17   G31       0.1174
    539 H3'        35.9785   29.7697   11.8339 H        17   G31       0.0615
    540 H2'        34.8912   28.6634   13.6999 H        17   G31       0.0972
    541 H1'        32.4546   29.7352   13.0806 H        17   G31       0.2006
    542 H8         33.9344   29.4018    9.6963 H        17   G31       0.1640
    543 H1         32.7934   23.7245   12.4710 H        17   G31       0.3424
    544 H21        32.3109   24.0158   14.6205 H        17   G31       0.4364
    545 H22        32.2779   25.6062   15.3484 H        17   G31       0.4364
    546 HO2'       33.5010   29.9756   15.0894 H        17   G31       0.4186
    547 P          37.9930   29.9410   13.6610 P.3      18   G32       1.1662
    548 OP1        38.9470   30.6680   14.5450 O.co2    18   G32      -0.7760
    549 OP2        38.4630   29.4130   12.3560 O.co2    18   G32      -0.7760
    550 O5'        37.4220   28.6850   14.4590 O.3      18   G32      -0.4989
    551 C5'        36.9470   28.8090   15.7970 C.3      18   G32       0.0558
    552 C4'        36.6280   27.4410   16.3570 C.3      18   G32       0.1065
    553 O4'        35.5340   26.8560   15.5960 O.3      18   G32      -0.3548
    554 C3'        37.7310   26.4050   16.2260 C.3      18   G32       0.2022
    555 O3'        38.7050   26.5440   17.2550 O.3      18   G32      -0.5246
    556 C2'        36.9340   25.1150   16.3520 C.3      18   G32       0.0670
    557 O2'        36.4610   24.8730   17.6670 O.3      18   G32      -0.6139
    558 C1'        35.7360   25.4520   15.4690 C.3      18   G32       0.0191
    559 N9         35.9820   25.1460   14.0620 N.ar     18   G32       0.0492
    560 C8         36.2470   26.0330   13.0490 C.ar     18   G32       0.1374
    561 N7         36.4280   25.4510   11.8920 N.ar     18   G32      -0.5709
    562 C5         36.2700   24.0980   12.1600 C.ar     18   G32       0.1744
    563 C6         36.3440   22.9740   11.2940 C.2      18   G32       0.4770
    564 O6         36.5670   22.9540   10.0740 O.2      18   G32      -0.5597
    565 N1         36.1280   21.7840   11.9820 N.am     18   G32      -0.4787
    566 C2         35.8770   21.6850   13.3320 C.2      18   G32       0.7657
    567 N2         35.7340   20.4410   13.8240 N.pl3    18   G32      -0.9672
    568 N3         35.7860   22.7280   14.1420 N.2      18   G32      -0.6323
    569 C4         35.9970   23.8920   13.4950 C.ar     18   G32       0.1222
    570 H5'        37.7142   29.2811   16.4108 H        18   G32       0.0679
    571 H5''       36.0467   29.4233   15.8064 H        18   G32       0.0679
    572 H4'        36.3365   27.5336   17.4032 H        18   G32       0.1174
    573 H3'        38.2007   26.4693   15.2445 H        18   G32       0.0615
    574 H2'        37.4899   24.2617   15.9635 H        18   G32       0.0972
    575 H1'        34.8536   24.9157   15.8180 H        18   G32       0.2006
    576 H8         36.3006   27.1021   13.1926 H        18   G32       0.1640
    577 H1         36.1577   20.9262   11.4496 H        18   G32       0.3424
    578 H21        35.8076   19.6432   13.2091 H        18   G32       0.4364
    579 H22        35.5531   20.3049   14.8083 H        18   G32       0.4364
    580 HO2'       36.6528   23.9654   17.9141 H        18   G32       0.4186
    581 P          40.1930   26.0060   17.0200 P.3      19   A33       1.1662
    582 OP1        41.0360   26.5170   18.1320 O.co2    19   A33      -0.7760
    583 OP2        40.6200   26.2400   15.6170 O.co2    19   A33      -0.7760
    584 O5'        40.0570   24.4290   17.2070 O.3      19   A33      -0.4989
    585 C5'        39.5040   23.8900   18.4040 C.3      19   A33       0.0558
    586 C4'        39.3850   22.3890   18.2940 C.3      19   A33       0.1065
    587 O4'        38.4360   22.0440   17.2540 O.3      19   A33      -0.3548
    588 C3'        40.6370   21.6650   17.8460 C.3      19   A33       0.2022
    589 O3'        41.5400   21.5210   18.9310 O.3      19   A33      -0.5246
    590 C2'        40.0560   20.3260   17.4130 C.3      19   A33       0.0670
    591 O2'        39.7020   19.5300   18.5300 O.3      19   A33      -0.6139
    592 C1'        38.7820   20.7840   16.7020 C.3      19   A33       0.0394
    593 N9         38.9530   20.9400   15.2560 N.ar     19   A33      -0.0251
    594 C8         39.0280   22.0900   14.5040 C.ar     19   A33       0.2006
    595 N7         39.1520   21.8690   13.2130 N.ar     19   A33      -0.6073
    596 C5         39.1610   20.4840   13.1140 C.ar     19   A33       0.0515
    597 C6         39.2510   19.6140   12.0150 C.ar     19   A33       0.7009
    598 N6         39.3120   20.0250   10.7370 N.pl3    19   A33      -0.9019
    599 N1         39.2630   18.2850   12.2680 N.ar     19   A33      -0.7615
    600 C2         39.1600   17.8700   13.5360 C.ar     19   A33       0.5875
    601 N3         39.0450   18.5890   14.6520 N.ar     19   A33      -0.6997
    602 C4         39.0560   19.9030   14.3660 C.ar     19   A33       0.3053
    603 H5'        40.1525   24.1390   19.2440 H        19   A33       0.0679
    604 H5''       38.5161   24.3194   18.5708 H        19   A33       0.0679
    605 H4'        39.0477   21.9792   19.2460 H        19   A33       0.1174
    606 H3'        41.1087   22.1780   17.0079 H        19   A33       0.0615
    607 H2'        40.7264   19.7957   16.7366 H        19   A33       0.0972
    608 H1'        37.9814   20.0705   16.8974 H        19   A33       0.2007
    609 H8         38.9888   23.0804   14.9330 H        19   A33       0.1553
    610 H2         39.1718   16.7990   13.6747 H        19   A33       0.0473
    611 HO2'       39.5279   18.6313   18.2408 H        19   A33       0.4186
    612 H61        39.2334   19.2432   10.1024 H        19   A33       0.4115
    613 H62        39.4218   20.9870   10.4495 H        19   A33       0.4115
    614 P          43.1150   21.5900   18.6620 P.3      20   U34       1.1662
    615 OP1        43.7790   21.5280   19.9930 O.co2    20   U34      -0.7760
    616 OP2        43.3900   22.7300   17.7470 O.co2    20   U34      -0.7760
    617 O5'        43.4250   20.2410   17.8710 O.3      20   U34      -0.4989
    618 C5'        42.8890   19.0240   18.3560 C.3      20   U34       0.0558
    619 C4'        43.1540   17.8600   17.4200 C.3      20   U34       0.1065
    620 O4'        42.3910   18.0440   16.1860 O.3      20   U34      -0.3548
    621 C3'        44.6110   17.7420   16.9650 C.3      20   U34       0.2022
    622 O3'        45.0020   16.3990   16.7700 O.3      20   U34      -0.5246
    623 C2'        44.6510   18.5110   15.6510 C.3      20   U34       0.0670
    624 O2'        45.5750   17.9680   14.7260 O.3      20   U34      -0.6139
    625 C1'        43.2790   18.1790   15.0930 C.3      20   U34       0.0674
    626 N1         42.8110   19.1770   14.1250 N.am     20   U34       0.0418
    627 C2         42.6740   18.7700   12.8050 C.2      20   U34       0.4687
    628 O2         42.7910   17.6030   12.4430 O.2      20   U34      -0.5477
    629 N3         42.3960   19.7790   11.9210 N.am     20   U34      -0.3549
    630 C4         42.2230   21.1150   12.2210 C.2      20   U34       0.5952
    631 O4         42.0770   21.9220   11.3050 O.2      20   U34      -0.5761
    632 C5         42.3090   21.4340   13.6130 C.2      20   U34      -0.3635
    633 C6         42.5860   20.4730   14.4950 C.2      20   U34      -0.1126
    634 H5'        43.3401   18.8043   19.3236 H        20   U34       0.0679
    635 H5''       41.8125   19.1373   18.4845 H        20   U34       0.0679
    636 H4'        42.8477   16.9309   17.9008 H        20   U34       0.1174
    637 H3'        45.2673   18.2177   17.6938 H        20   U34       0.0615
    638 H2'        44.7917   19.5816   15.7997 H        20   U34       0.0972
    639 H1'        43.3422   17.2165   14.5854 H        20   U34       0.1824
    640 H3         42.3086   19.5182   10.9492 H        20   U34       0.3154
    641 H5         42.1503   22.4484   13.9479 H        20   U34       0.1811
    642 H6         42.6344   20.7291   15.5431 H        20   U34       0.2188
    643 HO2'       46.4609   18.0154   15.0927 H        20   U34       0.4186
    644 P          46.0780   15.7390   17.7560 P.3      21   A35       1.1662
    645 OP1        45.6820   16.1050   19.1430 O.co2    21   A35      -0.7760
    646 OP2        47.4450   16.0520   17.2850 O.co2    21   A35      -0.7760
    647 O5'        45.8450   14.1820   17.5430 O.3      21   A35      -0.4989
    648 C5'        44.5740   13.6060   17.7840 C.3      21   A35       0.0558
    649 C4'        44.6660   12.1050   17.7040 C.3      21   A35       0.1065
    650 O4'        44.5770   11.7140   16.3050 O.3      21   A35      -0.3548
    651 C3'        46.0000   11.5530   18.1840 C.3      21   A35       0.2022
    652 O3'        45.8390   10.2790   18.7760 O.3      21   A35      -0.5246
    653 C2'        46.8620   11.5520   16.9230 C.3      21   A35       0.0670
    654 O2'        47.8660   10.5510   16.9320 O.3      21   A35      -0.6139
    655 C1'        45.8300   11.2420   15.8410 C.3      21   A35       0.0394
    656 N9         46.1290   11.8910   14.5630 N.ar     21   A35      -0.0251
    657 C8         45.8930   13.1950   14.2080 C.ar     21   A35       0.2006
    658 N7         46.3150   13.5000   13.0020 N.ar     21   A35      -0.6073
    659 C5         46.8610   12.3160   12.5300 C.ar     21   A35       0.0515
    660 C6         47.4840   11.9790   11.3110 C.ar     21   A35       0.7009
    661 N6         47.6890   12.8500   10.3160 N.pl3    21   A35      -0.9019
    662 N1         47.9000   10.7020   11.1510 N.ar     21   A35      -0.7615
    663 C2         47.7080    9.8360   12.1530 C.ar     21   A35       0.5875
    664 N3         47.1440   10.0360   13.3480 N.ar     21   A35      -0.6997
    665 C4         46.7390   11.3110   13.4740 C.ar     21   A35       0.3053
    666 H5'        44.2296   13.8941   18.7772 H        21   A35       0.0679
    667 H5''       43.8662   13.9655   17.0371 H        21   A35       0.0679
    668 H4'        43.8514   11.6520   18.2691 H        21   A35       0.1174
    669 H3'        46.4312   12.2376   18.9144 H        21   A35       0.0615
    670 H2'        47.3034   12.5353   16.7604 H        21   A35       0.0972
    671 H1'        45.7762   10.1634   15.6932 H        21   A35       0.2007
    672 H8         45.4055   13.9050   14.8597 H        21   A35       0.1553
    673 H2         48.0592    8.8313   11.9697 H        21   A35       0.0473
    674 H61        47.0845   13.6562   10.3850 H        21   A35       0.4115
    675 H62        48.3692   12.7167    9.5814 H        21   A35       0.4115
    676 HO2'       48.2493   10.4904   17.8101 H        21   A35       0.4186
    677 P          45.8570   10.1490   20.3780 P.3      22   U36       1.1662
    678 OP1        47.1000   10.7930   20.8480 O.co2    22   U36      -0.7760
    679 OP2        45.6020    8.7130   20.6980 O.co2    22   U36      -0.7760
    680 O5'        44.6260   11.0430   20.8540 O.3      22   U36      -0.4989
    681 C5'        43.3280   10.4850   21.0500 C.3      22   U36       0.0558
    682 C4'        42.5820   11.2510   22.1250 C.3      22   U36       0.1065
    683 O4'        43.3800   11.2950   23.3430 O.3      22   U36      -0.3548
    684 C3'        42.2530   12.7050   21.7990 C.3      22   U36       0.2022
    685 O3'        41.0600   13.0700   22.4760 O.3      22   U36      -0.5246
    686 C2'        43.4040   13.4460   22.4660 C.3      22   U36       0.0670
    687 O2'        43.1020   14.8030   22.7460 O.3      22   U36      -0.6139
    688 C1'        43.5230   12.6430   23.7600 C.3      22   U36       0.0674
    689 N1         44.8160   12.7870   24.4410 N.am     22   U36       0.0418
    690 C2         44.8250   13.3680   25.6990 C.2      22   U36       0.4687
    691 O2         43.8150   13.7270   26.2650 O.2      22   U36      -0.5477
    692 N3         46.0660   13.4960   26.2700 N.am     22   U36      -0.3549
    693 C4         47.2690   13.0930   25.7320 C.2      22   U36       0.5952
    694 O4         48.3020   13.2580   26.3740 O.2      22   U36      -0.5761
    695 C5         47.1740   12.4890   24.4340 C.2      22   U36      -0.3635
    696 C6         45.9810   12.3630   23.8490 C.2      22   U36      -0.1126
    697 H5'        43.4270    9.4431   21.3544 H        22   U36       0.0679
    698 H5''       42.7683   10.5364   20.1161 H        22   U36       0.0679
    699 H4'        41.6513   10.7261   22.3405 H        22   U36       0.1174
    700 H3'        42.2000   12.8921   20.7265 H        22   U36       0.0615
    701 H2'        44.3147   13.3647   21.8727 H        22   U36       0.0972
    702 H1'        42.7133   12.9100   24.4391 H        22   U36       0.1824
    703 H3         46.1016   13.9315   27.1806 H        22   U36       0.3154
    704 H5         48.0638   12.1379   23.9326 H        22   U36       0.1811
    705 H6         45.9294   11.9092   22.8703 H        22   U36       0.2188
    706 HO2'       43.0310   15.2919   21.9229 H        22   U36       0.4186
    707 P          39.6420   12.8620   21.7760 P.3      23   G37       1.1662
    708 OP1        38.5910   13.1890   22.7680 O.co2    23   G37      -0.7760
    709 OP2        39.6380   11.5280   21.1080 O.co2    23   G37      -0.7760
    710 O5'        39.6160   13.9560   20.6150 O.3      23   G37      -0.4989
    711 C5'        39.5920   15.3470   20.8990 C.3      23   G37       0.0558
    712 C4'        39.4690   16.1260   19.6080 C.3      23   G37       0.1065
    713 O4'        40.6910   15.9540   18.8420 O.3      23   G37      -0.3548
    714 C3'        38.3700   15.6280   18.6870 C.3      23   G37       0.2022
    715 O3'        37.1330   16.2480   19.0150 O.3      23   G37      -0.5246
    716 C2'        38.8860   16.0500   17.3190 C.3      23   G37       0.0670
    717 O2'        38.6790   17.4280   17.0870 O.3      23   G37      -0.6139
    718 C1'        40.3800   15.7590   17.4680 C.3      23   G37       0.0191
    719 N9         40.7570   14.3910   17.1100 N.ar     23   G37       0.0492
    720 C8         40.6980   13.2820   17.9210 C.ar     23   G37       0.1374
    721 N7         41.1030   12.1900   17.3260 N.ar     23   G37      -0.5709
    722 C5         41.4500   12.6040   16.0470 C.ar     23   G37       0.1744
    723 C6         41.9480   11.8620   14.9470 C.2      23   G37       0.4770
    724 O6         42.1830   10.6550   14.8830 O.2      23   G37      -0.5597
    725 N1         42.1680   12.6730   13.8350 N.am     23   G37      -0.4787
    726 C2         41.9350   14.0230   13.7880 C.2      23   G37       0.7657
    727 N2         42.2160   14.6350   12.6210 N.pl3    23   G37      -0.9672
    728 N3         41.4630   14.7280   14.8070 N.2      23   G37      -0.6323
    729 C4         41.2440   13.9580   15.8970 C.ar     23   G37       0.1222
    730 H5'        38.7400   15.5715   21.5407 H        23   G37       0.0679
    731 H5''       40.5138   15.6298   21.4073 H        23   G37       0.0679
    732 H4'        39.3163   17.1827   19.8274 H        23   G37       0.1174
    733 H3'        38.2826   14.5431   18.7459 H        23   G37       0.0615
    734 H2'        38.4435   15.4458   16.5270 H        23   G37       0.0972
    735 H1'        40.9500   16.4637   16.8625 H        23   G37       0.2006
    736 H8         40.3528   13.3099   18.9440 H        23   G37       0.1640
    737 H1         42.5265   12.2323   12.9999 H        23   G37       0.3424
    738 H21        42.5762   14.0997   11.8440 H        23   G37       0.4364
    739 H22        42.0664   15.6291   12.5232 H        23   G37       0.4364
    740 HO2'       38.9621   17.6492   16.1967 H        23   G37       0.4186
    741 P          35.7530   15.4710   18.7520 P.3      24   G38       1.1662
    742 OP1        34.6550   16.3030   19.2900 O.co2    24   G38      -0.7760
    743 OP2        35.8910   14.0460   19.1840 O.co2    24   G38      -0.7760
    744 O5'        35.6300   15.4460   17.1640 O.3      24   G38      -0.4989
    745 C5'        35.4260   16.6540   16.4310 C.3      24   G38       0.0558
    746 C4'        35.5510   16.3830   14.9500 C.3      24   G38       0.1065
    747 O4'        36.9130   15.9920   14.6650 O.3      24   G38      -0.3548
    748 C3'        34.6930   15.2430   14.4240 C.3      24   G38       0.2022
    749 O3'        33.4000   15.7390   14.0850 O.3      24   G38      -0.5246
    750 C2'        35.4770   14.8030   13.1880 C.3      24   G38       0.0670
    751 O2'        35.2290   15.5940   12.0390 O.3      24   G38      -0.6139
    752 C1'        36.9260   15.0130   13.6420 C.3      24   G38       0.0191
    753 N9         37.4960   13.7810   14.1780 N.ar     24   G38       0.0492
    754 C8         37.2550   13.2140   15.4100 C.ar     24   G38       0.1374
    755 N7         37.7910   12.0290   15.5380 N.ar     24   G38      -0.5709
    756 C5         38.4490   11.8180   14.3350 C.ar     24   G38       0.1744
    757 C6         39.1650   10.6870   13.8650 C.2      24   G38       0.4770
    758 O6         39.3550    9.6070   14.4320 O.2      24   G38      -0.5597
    759 N1         39.6670   10.8940   12.5880 N.am     24   G38      -0.4787
    760 C2         39.4990   12.0390   11.8490 C.2      24   G38       0.7657
    761 N2         40.0710   12.0460   10.6370 N.pl3    24   G38      -0.9672
    762 N3         38.8200   13.0940   12.2670 N.2      24   G38      -0.6323
    763 C4         38.3180   12.9120   13.5060 C.ar     24   G38       0.1222
    764 H5'        34.4303   17.0426   16.6446 H        24   G38       0.0679
    765 H5''       36.1735   17.3892   16.7291 H        24   G38       0.0679
    766 H4'        35.3161   17.2930   14.3978 H        24   G38       0.1174
    767 H3'        34.6244   14.4354   15.1528 H        24   G38       0.0615
    768 H2'        35.2928   13.7502   12.9738 H        24   G38       0.0972
    769 H1'        37.5280   15.3636   12.8037 H        24   G38       0.2006
    770 H8         36.6833   13.6978   16.1882 H        24   G38       0.1640
    771 H1         40.1976   10.1435   12.1693 H        24   G38       0.3424
    772 H21        39.9844   12.8578   10.0424 H        24   G38       0.4364
    773 H22        40.5887   11.2395   10.3182 H        24   G38       0.4364
    774 HO2'       34.3222   15.4655   11.7511 H        24   G38       0.4186
    775 P          32.0770   14.8790   14.4180 P.3      25   C39       1.1662
    776 OP1        32.4420   13.7670   15.3380 O.co2    25   C39      -0.7760
    777 OP2        31.4240   14.5720   13.1290 O.co2    25   C39      -0.7760
    778 O5'        31.0650   15.9560   15.0500 O.3      25   C39      -0.4989
    779 C5'        31.0510   16.3110   16.4190 C.3      25   C39       0.0558
    780 C4'        31.1720   17.8290   16.5950 C.3      25   C39       0.1065
    781 O4'        32.3330   18.3250   15.8870 O.3      25   C39      -0.3548
    782 C3'        30.0960   18.8260   16.1590 C.3      25   C39       0.2022
    783 O3'        28.9650   18.8600   17.0360 O.3      25   C39      -0.5246
    784 C2'        30.8730   20.1240   16.3500 C.3      25   C39       0.0670
    785 O2'        31.0400   20.4010   17.7320 O.3      25   C39      -0.6139
    786 C1'        32.2430   19.7370   15.7910 C.3      25   C39       0.0066
    787 N1         32.4290   20.1290   14.3850 N.am     25   C39      -0.0484
    788 C2         32.5270   21.4830   14.0830 C.2      25   C39       0.7538
    789 O2         32.4560   22.3080   15.0150 O.2      25   C39      -0.6252
    790 N3         32.6960   21.8650   12.7930 N.2      25   C39      -0.7584
    791 C4         32.7620   20.9420   11.8270 C.2      25   C39       0.8185
    792 N4         32.9220   21.3580   10.5620 N.pl3    25   C39      -0.9530
    793 C5         32.6660   19.5500   12.1120 C.2      25   C39      -0.5215
    794 C6         32.5030   19.1910   13.3920 C.2      25   C39       0.0053
    795 H5'        30.1150   15.9742   16.8647 H        25   C39       0.0679
    796 H5''       31.8848   15.8237   16.9245 H        25   C39       0.0679
    797 H4'        31.3524   18.0074   17.6551 H        25   C39       0.1174
    798 H3'        29.8009   18.6776   15.1202 H        25   C39       0.0615
    799 H2'        30.4254   20.9588   15.8106 H        25   C39       0.0972
    800 H1'        33.0242   20.1918   16.4001 H        25   C39       0.2029
    801 H5         32.7225   18.8118   11.3257 H        25   C39       0.1928
    802 H6         32.4287   18.1435   13.6444 H        25   C39       0.1958
    803 H41        32.9897   22.3452   10.3598 H        25   C39       0.4234
    804 H42        32.9748   20.6840    9.8116 H        25   C39       0.4234
    805 HO2'       31.6634   21.1230   17.8406 H        25   C39       0.4186
    806 P          27.6250   19.6820   16.6300 P.3      26   A40       1.1662
    807 OP1        26.6190   19.3790   17.6870 O.co2    26   A40      -0.7760
    808 OP2        27.2710   19.4640   15.2020 O.co2    26   A40      -0.7760
    809 O5'        28.0160   21.2250   16.7560 O.3      26   A40      -0.4989
    810 C5'        28.0800   21.8710   18.0240 C.3      26   A40       0.0558
    811 C4'        28.0920   23.3740   17.8410 C.3      26   A40       0.1065
    812 O4'        29.2790   23.7620   17.1010 O.3      26   A40      -0.3548
    813 C3'        26.9560   23.9330   17.0070 C.3      26   A40       0.2022
    814 O3'        25.7810   24.1020   17.7850 O.3      26   A40      -0.5246
    815 C2'        27.5370   25.2650   16.5580 C.3      26   A40       0.0670
    816 O2'        27.5430   26.2290   17.6020 O.3      26   A40      -0.6139
    817 C1'        28.9660   24.8430   16.2270 C.3      26   A40       0.0394
    818 N9         29.1270   24.3710   14.8510 N.ar     26   A40      -0.0251
    819 C8         29.1190   23.0740   14.3910 C.ar     26   A40       0.2006
    820 N7         29.3450   22.9710   13.0980 N.ar     26   A40      -0.6073
    821 C5         29.5000   24.2860   12.6820 C.ar     26   A40       0.0515
    822 C6         29.7890   24.8600   11.4260 C.ar     26   A40       0.7009
    823 N6         30.0080   24.1510   10.3040 N.pl3    26   A40      -0.9019
    824 N1         29.8640   26.2080   11.3590 N.ar     26   A40      -0.7615
    825 C2         29.6790   26.9210   12.4770 C.ar     26   A40       0.5875
    826 N3         29.4260   26.4990   13.7130 N.ar     26   A40      -0.6997
    827 C4         29.3470   25.1580   13.7480 C.ar     26   A40       0.3053
    828 H5'        27.2111   21.5870   18.6177 H        26   A40       0.0679
    829 H5''       28.9882   21.5624   18.5417 H        26   A40       0.0679
    830 H4'        28.0982   23.8586   18.8173 H        26   A40       0.1174
    831 H3'        26.7586   23.2914   16.1482 H        26   A40       0.0615
    832 H2'        27.0221   25.6427   15.6746 H        26   A40       0.0972
    833 H1'        29.6466   25.6740   16.4123 H        26   A40       0.2007
    834 H8         28.9439   22.2212   15.0302 H        26   A40       0.1553
    835 H2         29.7446   27.9925   12.3584 H        26   A40       0.0473
    836 HO2'       26.9588   26.9550   17.3712 H        26   A40       0.4186
    837 H61        30.3597   24.7302    9.5551 H        26   A40       0.4115
    838 H62        29.8408   23.1584   10.2205 H        26   A40       0.4115
    839 P          24.3490   24.0460   17.0790 P.3      27   C41       1.1662
    840 OP1        23.3060   24.1110   18.1360 O.co2    27   C41      -0.7760
    841 OP2        24.3340   22.9230   16.1080 O.co2    27   C41      -0.7760
    842 O5'        24.2900   25.3780   16.2100 O.3      27   C41      -0.4989
    843 C5'        24.1600   26.6440   16.8330 C.3      27   C41       0.0558
    844 C4'        24.3190   27.7400   15.8110 C.3      27   C41       0.1065
    845 O4'        25.6460   27.6840   15.2260 O.3      27   C41      -0.3548
    846 C3'        23.4280   27.6760   14.5890 C.3      27   C41       0.2022
    847 O3'        22.1030   28.0950   14.8750 O.3      27   C41      -0.5246
    848 C2'        24.1560   28.6540   13.6870 C.3      27   C41       0.0670
    849 O2'        24.0540   29.9820   14.1630 O.3      27   C41      -0.6139
    850 C1'        25.5920   28.1770   13.8900 C.3      27   C41       0.0066
    851 N1         25.9040   27.0800   12.9600 N.am     27   C41      -0.0484
    852 C2         26.2850   27.4160   11.6660 C.2      27   C41       0.7538
    853 O2         26.3580   28.6180   11.3690 O.2      27   C41      -0.6252
    854 N3         26.5580   26.4330   10.7740 N.2      27   C41      -0.7584
    855 C4         26.4540   25.1530   11.1440 C.2      27   C41       0.8185
    856 N4         26.7220   24.2150   10.2330 N.pl3    27   C41      -0.9530
    857 C5         26.0690   24.7800   12.4640 C.2      27   C41      -0.5215
    858 C6         25.8090   25.7680   13.3350 C.2      27   C41       0.0053
    859 H5'        23.1750   26.7201   17.2935 H        27   C41       0.0679
    860 H5''       24.9272   26.7503   17.6000 H        27   C41       0.0679
    861 H4'        24.1852   28.7051   16.2996 H        27   C41       0.1174
    862 H3'        23.4329   26.6747   14.1583 H        27   C41       0.0615
    863 H2'        23.8387   28.5663   12.6479 H        27   C41       0.0972
    864 H1'        26.2919   29.0020   13.7576 H        27   C41       0.2029
    865 H5         25.9894   23.7424   12.7528 H        27   C41       0.1928
    866 H6         25.5206   25.5233   14.3466 H        27   C41       0.1958
    867 H41        26.9941   24.4824    9.2978 H        27   C41       0.4234
    868 H42        26.6527   23.2378   10.4788 H        27   C41       0.4234
    869 HO2'       23.1554   30.2975   14.0424 H        27   C41       0.4186
    870 P          20.8800   27.4640   14.0640 P.3      28   G42       1.1662
    871 OP1        19.6230   27.9740   14.6670 O.co2    28   G42      -0.7760
    872 OP2        21.1090   25.9890   13.9760 O.co2    28   G42      -0.7760
    873 O5'        21.0320   28.0770   12.5990 O.3      28   G42      -0.4989
    874 C5'        20.9140   29.4820   12.3940 C.3      28   G42       0.0558
    875 C4'        21.3730   29.8600   11.0010 C.3      28   G42       0.1065
    876 O4'        22.7550   29.4650   10.7980 O.3      28   G42      -0.3548
    877 C3'        20.6620   29.1900    9.8410 C.3      28   G42       0.2022
    878 O3'        19.4010   29.7900    9.5890 O.3      28   G42      -0.5246
    879 C2'        21.6390   29.4740    8.7120 C.3      28   G42       0.0670
    880 O2'        21.5810   30.8190    8.2940 O.3      28   G42      -0.6139
    881 C1'        22.9700   29.2090    9.4140 C.3      28   G42       0.0191
    882 N9         23.3610   27.8130    9.2450 N.ar     28   G42       0.0492
    883 C8         23.3010   26.7910   10.1650 C.ar     28   G42       0.1374
    884 N7         23.6760   25.6360    9.6710 N.ar     28   G42      -0.5709
    885 C5         24.0180   25.9220    8.3530 C.ar     28   G42       0.1744
    886 C6         24.4980   25.0750    7.3110 C.2      28   G42       0.4770
    887 O6         24.7340   23.8650    7.3440 O.2      28   G42      -0.5597
    888 N1         24.7070   25.7860    6.1320 N.am     28   G42      -0.4787
    889 C2         24.4870   27.1330    5.9720 C.2      28   G42       0.7657
    890 N2         24.7350   27.6420    4.7540 N.pl3    28   G42      -0.9672
    891 N3         24.0510   27.9280    6.9310 N.2      28   G42      -0.6323
    892 C4         23.8370   27.2620    8.0820 C.ar     28   G42       0.1222
    893 H5'        19.8717   29.7755   12.5191 H        28   G42       0.0679
    894 H5''       21.5258   30.0054   13.1288 H        28   G42       0.0679
    895 H4'        21.2948   30.9410   10.8854 H        28   G42       0.1174
    896 H3'        20.5594   28.1181   10.0104 H        28   G42       0.0615
    897 H2'        21.4885   28.7915    7.8756 H        28   G42       0.0972
    898 H1'        23.7435   29.8695    9.0220 H        28   G42       0.2006
    899 H8         22.9787   26.9264   11.1869 H        28   G42       0.1640
    900 H1         25.0468   25.2715    5.3320 H        28   G42       0.3424
    901 H21        25.0673   27.0408    4.0135 H        28   G42       0.4364
    902 H22        24.5892   28.6259    4.5786 H        28   G42       0.4364
    903 HO2'       21.5651   30.8554    7.3348 H        28   G42       0.4186
    904 P          18.2970   28.9980    8.7360 P.3      29   C43       1.1662
    905 OP1        17.0330   29.7680    8.8280 O.co2    29   C43      -0.7760
    906 OP2        18.3260   27.5740    9.1580 O.co2    29   C43      -0.7760
    907 O5'        18.8290   29.0710    7.2360 O.3      29   C43      -0.4989
    908 C5'        18.9610   30.3240    6.5720 C.3      29   C43       0.0558
    909 C4'        19.4590   30.1230    5.1600 C.3      29   C43       0.1065
    910 O4'        20.7840   29.5280    5.1820 O.3      29   C43      -0.3548
    911 C3'        18.6640   29.1560    4.3000 C.3      29   C43       0.2022
    912 O3'        17.5060   29.7770    3.7630 O.3      29   C43      -0.5246
    913 C2'        19.6710   28.8470    3.2030 C.3      29   C43       0.0670
    914 O2'        19.7960   29.9090    2.2800 O.3      29   C43      -0.6139
    915 C1'        20.9600   28.7320    4.0190 C.3      29   C43       0.0066
    916 N1         21.2480   27.3480    4.4320 N.am     29   C43      -0.0484
    917 C2         21.8560   26.4940    3.5120 C.2      29   C43       0.7538
    918 O2         22.1130   26.9260    2.3800 O.2      29   C43      -0.6252
    919 N3         22.1450   25.2200    3.8770 N.2      29   C43      -0.7584
    920 C4         21.8400   24.7940    5.1050 C.2      29   C43       0.8185
    921 N4         22.1490   23.5320    5.4280 N.pl3    29   C43      -0.9530
    922 C5         21.2070   25.6430    6.0600 C.2      29   C43      -0.5215
    923 C6         20.9320   26.9020    5.6840 C.2      29   C43       0.0053
    924 H5'        17.9902   30.8188    6.5431 H        29   C43       0.0679
    925 H5''       19.6679   30.9487    7.1181 H        29   C43       0.0679
    926 H4'        19.5095   31.0892    4.6580 H        29   C43       0.1174
    927 H3'        18.4038   28.2568    4.8585 H        29   C43       0.0615
    928 H2'        19.4347   27.9094    2.6998 H        29   C43       0.0972
    929 H1'        21.7956   29.1192    3.4360 H        29   C43       0.2029
    930 H5         20.9582   25.2865    7.0486 H        29   C43       0.1928
    931 H6         20.4535   27.5728    6.3822 H        29   C43       0.1958
    932 H41        22.5984   22.9328    4.7504 H        29   C43       0.4234
    933 H42        21.9327   23.1791    6.3493 H        29   C43       0.4234
    934 HO2'       19.4939   29.6198    1.4159 H        29   C43       0.4186
    935 P          16.2030   28.8910    3.4470 P.3      30   A44       1.1662
    936 OP1        15.1190   29.8240    3.0350 O.co2    30   A44      -0.7760
    937 OP2        15.9810   27.9660    4.5830 O.co2    30   A44      -0.7760
    938 O5'        16.6230   28.0140    2.1830 O.3      30   A44      -0.4989
    939 C5'        16.9280   28.6310    0.9350 C.3      30   A44       0.0558
    940 C4'        17.5280   27.6230   -0.0230 C.3      30   A44       0.1065
    941 O4'        18.8250   27.1820    0.4700 O.3      30   A44      -0.3548
    942 C3'        16.7640   26.3230   -0.2220 C.3      30   A44       0.2022
    943 O3'        15.7100   26.4760   -1.1670 O.3      30   A44      -0.5246
    944 C2'        17.8580   25.4290   -0.7840 C.3      30   A44       0.0670
    945 O2'        18.1710   25.7460   -2.1240 O.3      30   A44      -0.6139
    946 C1'        19.0330   25.8230    0.1110 C.3      30   A44       0.0394
    947 N9         19.0750   25.0280    1.3340 N.ar     30   A44      -0.0251
    948 C8         18.6480   25.3910    2.5880 C.ar     30   A44       0.2006
    949 N7         18.8010   24.4530    3.4890 N.ar     30   A44      -0.6073
    950 C5         19.3720   23.4030    2.7840 C.ar     30   A44       0.0515
    951 C6         19.7770   22.1160    3.1720 C.ar     30   A44       0.7009
    952 N6         19.6680   21.6520    4.4190 N.pl3    30   A44      -0.9019
    953 N1         20.3060   21.3120    2.2220 N.ar     30   A44      -0.7615
    954 C2         20.4160   21.7810    0.9750 C.ar     30   A44       0.5875
    955 N3         20.0730   22.9720    0.4880 N.ar     30   A44      -0.6997
    956 C4         19.5490   23.7450    1.4560 C.ar     30   A44       0.3053
    957 H5'        16.0133   29.0363    0.5024 H        30   A44       0.0679
    958 H5''       17.6391   29.4409    1.0978 H        30   A44       0.0679
    959 H4'        17.6658   28.1005   -0.9931 H        30   A44       0.1174
    960 H3'        16.3894   25.9377    0.7263 H        30   A44       0.0615
    961 H2'        17.6076   24.3741   -0.6719 H        30   A44       0.0972
    962 H1'        19.9706   25.7194   -0.4351 H        30   A44       0.2007
    963 H8         18.2254   26.3597    2.8103 H        30   A44       0.1553
    964 H2         20.8448   21.0951    0.2594 H        30   A44       0.0473
    965 H61        19.2760   22.2370    5.1430 H        30   A44       0.4115
    966 H62        19.9775   20.7160    4.6384 H        30   A44       0.4115
    967 HO2'       17.4364   25.5007   -2.6913 H        30   A44       0.4186
    968 P          14.4370   25.4960   -1.1030 P.3      31   A45       1.1662
    969 OP1        13.5030   25.9190   -2.1810 O.co2    31   A45      -0.7760
    970 OP2        13.9620   25.4510    0.3010 O.co2    31   A45      -0.7760
    971 O5'        15.0190   24.0570   -1.4740 O.3      31   A45      -0.4989
    972 C5'        15.1470   23.6600   -2.8360 C.3      31   A45       0.0558
    973 C4'        15.9370   22.3740   -2.9520 C.3      31   A45       0.1065
    974 O4'        16.9620   22.2980   -1.9310 O.3      31   A45      -0.3548
    975 C3'        15.1730   21.0780   -2.7450 C.3      31   A45       0.2022
    976 O3'        14.4320   20.7370   -3.9100 O.3      31   A45      -0.5246
    977 C2'        16.3110   20.0880   -2.5260 C.3      31   A45       0.0670
    978 O2'        16.9040   19.6640   -3.7390 O.3      31   A45      -0.6139
    979 C1'        17.3070   20.9370   -1.7290 C.3      31   A45       0.0394
    980 N9         17.2800   20.6560   -0.2940 N.ar     31   A45      -0.0251
    981 C8         16.8660   21.4720    0.7280 C.ar     31   A45       0.2006
    982 N7         16.9980   20.9360    1.9190 N.ar     31   A45      -0.6073
    983 C5         17.5290   19.6780    1.6620 C.ar     31   A45       0.0515
    984 C6         17.9170   18.6140    2.5070 C.ar     31   A45       0.7009
    985 N6         17.8390   18.6510    3.8410 N.pl3    31   A45      -0.9019
    986 N1         18.4010   17.4980    1.9250 N.ar     31   A45      -0.7615
    987 C2         18.4960   17.4600    0.5890 C.ar     31   A45       0.5875
    988 N3         18.1770   18.3930   -0.3050 N.ar     31   A45      -0.6997
    989 C4         17.6950   19.4890    0.3030 C.ar     31   A45       0.3053
    990 H5'        14.1536   23.5077   -3.2580 H        31   A45       0.0679
    991 H5''       15.6570   24.4462   -3.3927 H        31   A45       0.0679
    992 H4'        16.4158   22.3450   -3.9308 H        31   A45       0.1174
    993 H3'        14.5267   21.1364   -1.8692 H        31   A45       0.0615
    994 H2'        15.9739   19.2332   -1.9396 H        31   A45       0.0972
    995 H1'        18.3131   20.7617   -2.1099 H        31   A45       0.2007
    996 H8         16.4684   22.4633    0.5677 H        31   A45       0.1553
    997 H2         18.8874   16.5408    0.1789 H        31   A45       0.0473
    998 H61        18.4677   17.9629    4.2300 H        31   A45       0.4115
    999 H62        17.2453   19.2692    4.3753 H        31   A45       0.4115
   1000 HO2'       17.6853   19.1401   -3.5473 H        31   A45       0.4186
   1001 P          13.0870   19.8710   -3.7700 P.3      32   G46       1.1662
   1002 OP1        12.5580   19.6240   -5.1360 O.co2    32   G46      -0.7760
   1003 OP2        12.2280   20.5290   -2.7540 O.co2    32   G46      -0.7760
   1004 O5'        13.5770   18.4790   -3.1740 O.3      32   G46      -0.4989
   1005 C5'        14.2860   17.5480   -3.9810 C.3      32   G46       0.0558
   1006 C4'        14.6140   16.3090   -3.1840 C.3      32   G46       0.1065
   1007 O4'        15.5280   16.6590   -2.1110 O.3      32   G46      -0.3548
   1008 C3'        13.4400   15.6540   -2.4750 C.3      32   G46       0.2022
   1009 O3'        12.7640   14.7640   -3.3570 O.3      32   G46      -0.5246
   1010 C2'        14.1450   14.8860   -1.3620 C.3      32   G46       0.0670
   1011 O2'        14.7500   13.6920   -1.8190 O.3      32   G46      -0.6139
   1012 C1'        15.2390   15.8760   -0.9620 C.3      32   G46       0.0191
   1013 N9         14.8580   16.7810    0.1180 N.ar     32   G46       0.0492
   1014 C8         14.1920   17.9750   -0.0040 C.ar     32   G46       0.1374
   1015 N7         14.0130   18.5810    1.1380 N.ar     32   G46      -0.5709
   1016 C5         14.5880   17.7310    2.0740 C.ar     32   G46       0.1744
   1017 C6         14.7040   17.8590    3.4890 C.2      32   G46       0.4770
   1018 O6         14.3060   18.7810    4.2200 O.2      32   G46      -0.5597
   1019 N1         15.3650   16.7690    4.0470 N.am     32   G46      -0.4787
   1020 C2         15.8540   15.6960    3.3420 C.2      32   G46       0.7657
   1021 N2         16.4720   14.7480    4.0620 N.pl3    32   G46      -0.9672
   1022 N3         15.7480   15.5640    2.0260 N.2      32   G46      -0.6323
   1023 C4         15.1090   16.6120    1.4620 C.ar     32   G46       0.1222
   1024 H5'        13.6705   17.2724   -4.8373 H        32   G46       0.0679
   1025 H5''       15.2103   18.0059   -4.3332 H        32   G46       0.0679
   1026 H4'        15.0911   15.5784   -3.8373 H        32   G46       0.1174
   1027 H3'        12.7579   16.4007   -2.0685 H        32   G46       0.0615
   1028 H2'        13.4686   14.6904   -0.5300 H        32   G46       0.0972
   1029 H1'        16.1326   15.3245   -0.6696 H        32   G46       0.2006
   1030 H8         13.8509   18.3724   -0.9485 H        32   G46       0.1640
   1031 H1         15.4955   16.7665    5.0485 H        32   G46       0.3424
   1032 H21        16.5545   14.8480    5.0636 H        32   G46       0.4364
   1033 H22        16.8549   13.9341    3.6025 H        32   G46       0.4364
   1034 HO2'       14.0690   13.0509   -2.0354 H        32   G46       0.4186
   1035 P          11.1900   14.9590   -3.6470 P.3      33   U47       1.1662
   1036 OP1        10.9170   14.1740   -4.8770 O.co2    33   U47      -0.7760
   1037 OP2        10.8540   16.4000   -3.6100 O.co2    33   U47      -0.7760
   1038 O5'        10.4680   14.2450   -2.4170 O.3      33   U47      -0.4989
   1039 C5'        10.8100   12.9140   -2.0470 C.3      33   U47       0.0558
   1040 C4'         9.7680   12.3190   -1.1190 C.3      33   U47       0.1065
   1041 O4'        10.0520   12.7400    0.2490 O.3      33   U47      -0.3548
   1042 C3'         8.3330   12.7740   -1.3830 C.3      33   U47       0.2022
   1043 O3'         7.4190   11.7870   -0.9060 O.3      33   U47      -0.5246
   1044 C2'         8.2280   14.0390   -0.5330 C.3      33   U47       0.0670
   1045 O2'         6.9130   14.3420   -0.1130 O.3      33   U47      -0.6139
   1046 C1'         9.0520   13.6390    0.6880 C.3      33   U47       0.0674
   1047 N1          9.6630   14.7450    1.4390 N.am     33   U47       0.0418
   1048 C2          9.6020   14.6870    2.8210 C.2      33   U47       0.4687
   1049 O2          9.1220   13.7450    3.4270 O.2      33   U47      -0.5477
   1050 N3         10.1330   15.7730    3.4700 N.am     33   U47      -0.3549
   1051 C4         10.7200   16.8770    2.8920 C.2      33   U47       0.5952
   1052 O4         11.1180   17.7920    3.6100 O.2      33   U47      -0.5761
   1053 C5         10.7700   16.8500    1.4630 C.2      33   U47      -0.3635
   1054 C6         10.2530   15.8100    0.8010 C.2      33   U47      -0.1126
   1055 H5'        11.7747   12.9227   -1.5396 H        33   U47       0.0679
   1056 H5''       10.8828   12.3000   -2.9447 H        33   U47       0.0679
   1057 H4'         9.8157   11.2316   -1.1767 H        33   U47       0.1174
   1058 H3'         8.1713   12.9893   -2.4392 H        33   U47       0.0615
   1059 H2'         8.6785   14.8896   -1.0444 H        33   U47       0.0972
   1060 H1'         8.3951   13.0981    1.3692 H        33   U47       0.1824
   1061 H3         10.0888   15.7618    4.4790 H        33   U47       0.3154
   1062 H5         11.2236   17.6665    0.9208 H        33   U47       0.1811
   1063 H6         10.3008   15.8065   -0.2779 H        33   U47       0.2188
   1064 HO2'        6.5042   14.9382   -0.7447 H        33   U47       0.4186
   1065 P           6.5630   10.9070   -1.9500 P.3      34   U48       1.1662
   1066 OP1         5.8490    9.8860   -1.1460 O.co2    34   U48      -0.7760
   1067 OP2         7.4390   10.4770   -3.0670 O.co2    34   U48      -0.7760
   1068 O5'         5.4900   11.9300   -2.5250 O.3      34   U48      -0.4989
   1069 C5'         4.5740   12.5850   -1.6600 C.3      34   U48       0.0558
   1070 C4'         3.7990   13.6330   -2.4200 C.3      34   U48       0.1065
   1071 O4'         2.9580   12.9820   -3.4080 O.3      34   U48      -0.3548
   1072 C3'         2.8800   14.4920   -1.5560 C.3      34   U48       0.2022
   1073 O3'         3.0910   15.8750   -1.8130 O.3      34   U48      -0.5246
   1074 C2'         1.4720   14.0550   -1.9600 C.3      34   U48       0.0670
   1075 O2'         0.5300   15.1060   -1.9350 O.3      34   U48      -0.6139
   1076 C1'         1.6830   13.5790   -3.3950 C.3      34   U48       0.0674
   1077 N1          0.6940   12.5730   -3.8090 N.am     34   U48       0.0418
   1078 C2         -0.1850   12.9130   -4.8220 C.2      34   U48       0.4687
   1079 O2         -0.1540   13.9910   -5.3930 O.2      34   U48      -0.5477
   1080 N3         -1.1010   11.9430   -5.1450 N.am     34   U48      -0.3549
   1081 C4         -1.2220   10.6940   -4.5730 C.2      34   U48       0.5952
   1082 O4         -2.1130    9.9350   -4.9620 O.2      34   U48      -0.5761
   1083 C5         -0.2680   10.4120   -3.5430 C.2      34   U48      -0.3635
   1084 C6          0.6360   11.3390   -3.2060 C.2      34   U48      -0.1126
   1085 H5'         3.8802   11.8519   -1.2486 H        34   U48       0.0679
   1086 H5''        5.1220   13.0601   -0.8464 H        34   U48       0.0679
   1087 H4'         4.5044   14.2846   -2.9356 H        34   U48       0.1174
   1088 H3'         3.0500   14.2774   -0.5010 H        34   U48       0.0615
   1089 H2'         1.1362   13.2297   -1.3321 H        34   U48       0.0972
   1090 H1'         1.6608   14.4283   -4.0778 H        34   U48       0.1824
   1091 H3         -1.7562   12.1680   -5.8799 H        34   U48       0.3154
   1092 H5         -0.2781    9.4559   -3.0408 H        34   U48       0.1811
   1093 H6          1.3492   11.1084   -2.4285 H        34   U48       0.2188
   1094 HO2'        0.4022   15.4003   -1.0302 H        34   U48       0.4186
   1095 P           4.3790   16.6200   -1.1980 P.3      35   U49       1.1662
   1096 OP1         4.0990   18.0760   -1.2560 O.co2    35   U49      -0.7760
   1097 OP2         5.5920   16.0790   -1.8630 O.co2    35   U49      -0.7760
   1098 O5'         4.4190   16.1800    0.3360 O.3      35   U49      -0.4989
   1099 C5'         3.2310   16.1470    1.1250 C.3      35   U49       0.0558
   1100 C4'         3.5380   16.4470    2.5780 C.3      35   U49       0.1065
   1101 O4'         3.4230   15.2160    3.3440 O.3      35   U49      -0.3548
   1102 C3'         4.9520   16.9530    2.8560 C.3      35   U49       0.2022
   1103 O3'         4.9630   17.7270    4.0530 O.3      35   U49      -0.5246
   1104 C2'         5.7380   15.6590    3.0480 C.3      35   U49       0.0670
   1105 O2'         6.8770   15.7980    3.8750 O.3      35   U49      -0.6139
   1106 C1'         4.7070   14.7940    3.7650 C.3      35   U49       0.0674
   1107 N1          4.8440   13.3440    3.5620 N.am     35   U49       0.0418
   1108 C2          4.5330   12.5300    4.6320 C.2      35   U49       0.4687
   1109 O2          4.1330   12.9660    5.6970 O.2      35   U49      -0.5477
   1110 N3          4.7060   11.1890    4.4100 N.am     35   U49      -0.3549
   1111 C4          5.1430   10.5890    3.2490 C.2      35   U49       0.5952
   1112 O4          5.2460    9.3620    3.2060 O.2      35   U49      -0.5761
   1113 C5          5.4350   11.4980    2.1810 C.2      35   U49      -0.3635
   1114 C6          5.2760   12.8130    2.3690 C.2      35   U49      -0.1126
   1115 H5'         2.5310   16.8922    0.7471 H        35   U49       0.0679
   1116 H5''        2.7779   15.1585    1.0505 H        35   U49       0.0679
   1117 H4'         2.8169   17.1725    2.9546 H        35   U49       0.1174
   1118 H3'         5.3377   17.5264    2.0130 H        35   U49       0.0615
   1119 H2'         6.0081   15.2232    2.0861 H        35   U49       0.0972
   1120 H1'         4.7901   14.9914    4.8338 H        35   U49       0.1824
   1121 H3          4.4897   10.5735    5.1810 H        35   U49       0.3154
   1122 H5          5.7817   11.1237    1.2291 H        35   U49       0.1811
   1123 H6          5.4955   13.4841    1.5518 H        35   U49       0.2188
   1124 HO2'        7.1149   16.7258    3.9394 H        35   U49       0.4186
   1125 P           6.1130   18.8250    4.2860 P.3      36   C50       1.1662
   1126 OP1         5.8480   19.9900    3.4040 O.co2    36   C50      -0.7760
   1127 OP2         7.4250   18.1300    4.2080 O.co2    36   C50      -0.7760
   1128 O5'         5.8960   19.2890    5.7920 O.3      36   C50      -0.4989
   1129 C5'         4.7170   19.9930    6.1750 C.3      36   C50       0.0558
   1130 C4'         4.4500   19.7900    7.6450 C.3      36   C50       0.1065
   1131 O4'         3.9020   18.4600    7.8490 O.3      36   C50      -0.3548
   1132 C3'         5.6830   19.8330    8.5330 C.3      36   C50       0.2022
   1133 O3'         5.9830   21.1740    8.9090 O.3      36   C50      -0.5246
   1134 C2'         5.2390   19.0070    9.7330 C.3      36   C50       0.0670
   1135 O2'         4.4320   19.7380   10.6310 O.3      36   C50      -0.6139
   1136 C1'         4.3990   17.9200    9.0600 C.3      36   C50       0.0066
   1137 N1          5.1560   16.6970    8.7490 N.am     36   C50      -0.0484
   1138 C2          5.6330   15.9180    9.8050 C.2      36   C50       0.7538
   1139 O2          5.4110   16.2850   10.9650 O.2      36   C50      -0.6252
   1140 N3          6.3230   14.7850    9.5360 N.2      36   C50      -0.7584
   1141 C4          6.5400   14.4220    8.2700 C.2      36   C50       0.8185
   1142 N4          7.2210   13.2960    8.0520 N.pl3    36   C50      -0.9530
   1143 C5          6.0660   15.1990    7.1710 C.2      36   C50      -0.5215
   1144 C6          5.3860   16.3200    7.4550 C.2      36   C50       0.0053
   1145 H5'         3.8703   19.6189    5.5994 H        36   C50       0.0679
   1146 H5''        4.8493   21.0562    5.9747 H        36   C50       0.0679
   1147 H4'         3.7310   20.5340    7.9881 H        36   C50       0.1174
   1148 H3'         6.5353   19.3692    8.0365 H        36   C50       0.0615
   1149 H2'         6.0975   18.5735   10.2460 H        36   C50       0.0972
   1150 H1'         3.5602   17.6652    9.7077 H        36   C50       0.2029
   1151 H5          6.2476   14.8964    6.1503 H        36   C50       0.1928
   1152 H6          5.0142   16.9346    6.6485 H        36   C50       0.1958
   1153 H41         7.5546   12.7484    8.8324 H        36   C50       0.4234
   1154 H42         7.4031   12.9910    7.1065 H        36   C50       0.4234
   1155 HO2'        4.9593   20.4201   11.0533 H        36   C50       0.4186
   1156 P           7.4990   21.7040    8.8290 P.3      37   U51       1.1662
   1157 OP1         7.5390   23.0830    9.3760 O.co2    37   U51      -0.7760
   1158 OP2         8.0050   21.4450    7.4570 O.co2    37   U51      -0.7760
   1159 O5'         8.2880   20.7510    9.8300 O.3      37   U51      -0.4989
   1160 C5'         8.0620   20.8220   11.2330 C.3      37   U51       0.0558
   1161 C4'         8.6210   19.5980   11.9180 C.3      37   U51       0.1065
   1162 O4'         7.9790   18.4070   11.3910 O.3      37   U51      -0.3548
   1163 C3'        10.1000   19.3200   11.7030 C.3      37   U51       0.2022
   1164 O3'        10.9040   20.1140   12.5690 O.3      37   U51      -0.5246
   1165 C2'        10.1760   17.8460   12.0740 C.3      37   U51       0.0670
   1166 O2'        10.1170   17.6380   13.4720 O.3      37   U51      -0.6139
   1167 C1'         8.8910   17.3190   11.4340 C.3      37   U51       0.0674
   1168 N1          9.0920   16.8250   10.0640 N.am     37   U51       0.0418
   1169 C2          9.6190   15.5580    9.9140 C.2      37   U51       0.4687
   1170 O2          9.9310   14.8580   10.8600 O.2      37   U51      -0.5477
   1171 N3          9.7730   15.1430    8.6140 N.am     37   U51      -0.3549
   1172 C4          9.4660   15.8530    7.4740 C.2      37   U51       0.5952
   1173 O4          9.6480   15.3370    6.3710 O.2      37   U51      -0.5761
   1174 C5          8.9320   17.1590    7.7130 C.2      37   U51      -0.3635
   1175 C6          8.7670   17.5890    8.9690 C.2      37   U51      -0.1126
   1176 H5'         8.5510   21.7111   11.6310 H        37   U51       0.0679
   1177 H5''        6.9905   20.8840   11.4231 H        37   U51       0.0679
   1178 H4'         8.4228   19.6662   12.9877 H        37   U51       0.1174
   1179 H3'        10.3787   19.4749   10.6607 H        37   U51       0.0615
   1180 H2'        11.0572   17.3734   11.6402 H        37   U51       0.0972
   1181 H1'         8.4774   16.5216   12.0514 H        37   U51       0.1824
   1182 H3         10.1525   14.2168    8.4790 H        37   U51       0.3154
   1183 H5          8.6632   17.7950    6.8826 H        37   U51       0.1811
   1184 H6          8.3617   18.5772    9.1290 H        37   U51       0.2188
   1185 HO2'       10.7178   16.9300   13.7156 H        37   U51       0.4186
   1186 P          12.4630   20.3270   12.2390 P.3      38   A52       1.1662
   1187 OP1        13.0500   21.1170   13.3510 O.co2    38   A52      -0.7760
   1188 OP2        12.5910   20.8170   10.8440 O.co2    38   A52      -0.7760
   1189 O5'        13.0810   18.8600   12.2930 O.3      38   A52      -0.4989
   1190 C5'        13.2970   18.2000   13.5360 C.3      38   A52       0.0558
   1191 C4'        13.9300   16.8520   13.3000 C.3      38   A52       0.1065
   1192 O4'        13.0790   16.1010   12.3940 O.3      38   A52      -0.3548
   1193 C3'        15.2970   16.8960   12.6310 C.3      38   A52       0.2022
   1194 O3'        16.3140   16.9380   13.6310 O.3      38   A52      -0.5246
   1195 C2'        15.3390   15.5760   11.8630 C.3      38   A52       0.0670
   1196 O2'        15.7490   14.4890   12.6660 O.3      38   A52      -0.6139
   1197 C1'        13.8730   15.3890   11.4660 C.3      38   A52       0.0394
   1198 N9         13.5320   15.8500   10.1190 N.ar     38   A52      -0.0251
   1199 C8         12.9700   17.0470    9.7490 C.ar     38   A52       0.2006
   1200 N7         12.7540   17.1540    8.4590 N.ar     38   A52      -0.6073
   1201 C5         13.2090   15.9500    7.9440 C.ar     38   A52       0.0515
   1202 C6         13.2540   15.4360    6.6360 C.ar     38   A52       0.7009
   1203 N6         12.8190   16.0980    5.5620 N.pl3    38   A52      -0.9019
   1204 N1         13.7710   14.2010    6.4670 N.ar     38   A52      -0.7615
   1205 C2         14.2130   13.5380    7.5400 C.ar     38   A52       0.5875
   1206 N3         14.2260   13.9120    8.8160 N.ar     38   A52      -0.6997
   1207 C4         13.7010   15.1410    8.9530 C.ar     38   A52       0.3053
   1208 H5'        13.9579   18.8055   14.1562 H        38   A52       0.0679
   1209 H5''       12.3429   18.0675   14.0460 H        38   A52       0.0679
   1210 H4'        14.0084   16.3188   14.2475 H        38   A52       0.1174
   1211 H3'        15.3760   17.7469   11.9543 H        38   A52       0.0615
   1212 H2'        15.9706   15.6632   10.9790 H        38   A52       0.0972
   1213 H1'        13.6269   14.3298   11.5415 H        38   A52       0.2007
   1214 H8         12.7281   17.8282   10.4544 H        38   A52       0.1553
   1215 H2         14.6182   12.5566    7.3421 H        38   A52       0.0473
   1216 HO2'       16.6911   14.3440   12.5523 H        38   A52       0.4186
   1217 H61        12.9618   15.6176    4.6851 H        38   A52       0.4115
   1218 H62        12.3820   17.0066    5.6213 H        38   A52       0.4115
   1219 P          17.5610   17.9380   13.4670 P.3      39   C53       1.1662
   1220 OP1        18.3180   17.9160   14.7420 O.co2    39   C53      -0.7760
   1221 OP2        17.0580   19.2280   12.9320 O.co2    39   C53      -0.7760
   1222 O5'        18.4630   17.2700   12.3390 O.3      39   C53      -0.4989
   1223 C5'        19.1810   16.0680   12.5930 C.3      39   C53       0.0558
   1224 C4'        19.5300   15.3900   11.2900 C.3      39   C53       0.1065
   1225 O4'        18.2970   15.0940   10.5850 O.3      39   C53      -0.3548
   1226 C3'        20.3330   16.2270   10.3020 C.3      39   C53       0.2022
   1227 O3'        21.7320   16.0950   10.5460 O.3      39   C53      -0.5246
   1228 C2'        19.9840   15.5530    8.9800 C.3      39   C53       0.0670
   1229 O2'        20.7200   14.3610    8.7920 O.3      39   C53      -0.6139
   1230 C1'        18.5060   15.2150    9.1870 C.3      39   C53       0.0066
   1231 N1         17.5870   16.2420    8.6670 N.am     39   C53      -0.0484
   1232 C2         16.9680   16.0290    7.4280 C.2      39   C53       0.7538
   1233 O2         17.1870   14.9680    6.8210 O.2      39   C53      -0.6252
   1234 N3         16.1430   16.9790    6.9290 N.2      39   C53      -0.7584
   1235 C4         15.9190   18.0990    7.6210 C.2      39   C53       0.8185
   1236 N4         15.1050   19.0140    7.0840 N.pl3    39   C53      -0.9530
   1237 C5         16.5210   18.3340    8.8930 C.2      39   C53      -0.5215
   1238 C6         17.3420   17.3880    9.3730 C.2      39   C53       0.0053
   1239 H5'        20.0974   16.3026   13.1345 H        39   C53       0.0679
   1240 H5''       18.5659   15.3995   13.1954 H        39   C53       0.0679
   1241 H4'        20.0624   14.4613   11.4955 H        39   C53       0.1174
   1242 H3'        20.0206   17.2712   10.3144 H        39   C53       0.0615
   1243 H2'        20.1187   16.2361    8.1414 H        39   C53       0.0972
   1244 H1'        18.2858   14.2611    8.7077 H        39   C53       0.2029
   1245 H5         16.3232   19.2390    9.4482 H        39   C53       0.1928
   1246 H6         17.8171   17.5333   10.3319 H        39   C53       0.1958
   1247 H41        14.6809   18.8459    6.1829 H        39   C53       0.4234
   1248 H42        14.9143   19.8732    7.5795 H        39   C53       0.4234
   1249 HO2'       20.2003   13.6125    9.0940 H        39   C53       0.4186
   1250 P          22.5340   17.2610   11.3140 P.3      40   C54       1.1662
   1251 OP1        21.5640   18.2020   11.9280 O.co2    40   C54      -0.7760
   1252 OP2        23.5530   17.7780   10.3690 O.co2    40   C54      -0.7760
   1253 O5'        23.3160   16.4650   12.4540 O.3      40   C54      -0.4989
   1254 C5'        23.0200   16.6610   13.8240 C.3      40   C54       0.0558
   1255 C4'        22.7440   15.3390   14.5120 C.3      40   C54       0.1065
   1256 O4'        21.9490   14.4570   13.6810 O.3      40   C54      -0.3548
   1257 C3'        23.8980   14.4140   14.8710 C.3      40   C54       0.2022
   1258 O3'        24.7020   14.9100   15.9390 O.3      40   C54      -0.5246
   1259 C2'        23.1090   13.1890   15.3110 C.3      40   C54       0.0670
   1260 O2'        22.4750   13.3900   16.5580 O.3      40   C54      -0.6139
   1261 C1'        22.0210   13.1470   14.2320 C.3      40   C54       0.0066
   1262 N1         22.3380   12.1740   13.1730 N.am     40   C54      -0.0484
   1263 C2         22.2040   10.8220   13.4750 C.2      40   C54       0.7538
   1264 O2         21.8060   10.5050   14.6030 O.2      40   C54      -0.6252
   1265 N3         22.5080    9.8970   12.5360 N.2      40   C54      -0.7584
   1266 C4         22.9280   10.2830   11.3330 C.2      40   C54       0.8185
   1267 N4         23.2210    9.3340   10.4410 N.pl3    40   C54      -0.9530
   1268 C5         23.0660   11.6610   10.9910 C.2      40   C54      -0.5215
   1269 C6         22.7620   12.5660   11.9350 C.2      40   C54       0.0053
   1270 H5'        23.8694   17.1441   14.3070 H        40   C54       0.0679
   1271 H5''       22.1433   17.3025   13.9138 H        40   C54       0.0679
   1272 H4'        22.1802   15.5437   15.4221 H        40   C54       0.1174
   1273 H3'        24.5071   14.1918   13.9948 H        40   C54       0.0615
   1274 H2'        23.7215   12.2874   15.3066 H        40   C54       0.0972
   1275 H1'        21.0649   12.8905   14.6883 H        40   C54       0.2029
   1276 H5         23.4021   11.9646   10.0105 H        40   C54       0.1928
   1277 H6         22.8540   13.6188   11.7124 H        40   C54       0.1958
   1278 H41        23.1213    8.3600   10.6888 H        40   C54       0.4234
   1279 H42        23.5424    9.5901    9.5184 H        40   C54       0.4234
   1280 HO2'       21.8659   12.6676   16.7274 H        40   C54       0.4186
   1281 P          26.1820   14.3090   16.1750 P.3      41   G55       1.1662
   1282 OP1        26.9020   15.2530   17.0680 O.co2    41   G55      -0.7760
   1283 OP2        26.7660   13.9680   14.8570 O.co2    41   G55      -0.7760
   1284 O5'        25.9310   12.9500   16.9650 O.3      41   G55      -0.4989
   1285 C5'        25.3650   12.9540   18.2710 C.3      41   G55       0.0558
   1286 C4'        25.3230   11.5500   18.8340 C.3      41   G55       0.1065
   1287 O4'        24.3770   10.7440   18.0800 O.3      41   G55      -0.3548
   1288 C3'        26.6190   10.7580   18.7640 C.3      41   G55       0.2022
   1289 O3'        27.4520   11.0620   19.8770 O.3      41   G55      -0.5246
   1290 C2'        26.1030    9.3300   18.8600 C.3      41   G55       0.0670
   1291 O2'        25.6980    8.9910   20.1680 O.3      41   G55      -0.6139
   1292 C1'        24.8560    9.4110   17.9820 C.3      41   G55       0.0191
   1293 N9         25.1210    9.1300   16.5770 N.ar     41   G55       0.0492
   1294 C8         25.3070   10.0490   15.5740 C.ar     41   G55       0.1374
   1295 N7         25.4860    9.5020   14.4040 N.ar     41   G55      -0.5709
   1296 C5         25.4210    8.1360   14.6500 C.ar     41   G55       0.1744
   1297 C6         25.5260    7.0430   13.7590 C.2      41   G55       0.4770
   1298 O6         25.6940    7.0640   12.5360 O.2      41   G55      -0.5597
   1299 N1         25.4090    5.8270   14.4250 N.am     41   G55      -0.4787
   1300 C2         25.2130    5.6810   15.7750 C.2      41   G55       0.7657
   1301 N2         25.1350    4.4200   16.2320 N.pl3    41   G55      -0.9672
   1302 N3         25.1020    6.7000   16.6180 N.2      41   G55      -0.6323
   1303 C4         25.2130    7.8880   15.9880 C.ar     41   G55       0.1222
   1304 H5'        25.9708   13.5838   18.9225 H        41   G55       0.0679
   1305 H5''       24.3520   13.3537   18.2236 H        41   G55       0.0679
   1306 H4'        24.9954   11.5972   19.8725 H        41   G55       0.1174
   1307 H3'        27.1384   10.9296   17.8212 H        41   G55       0.0615
   1308 H2'        26.8253    8.6152   18.4658 H        41   G55       0.0972
   1309 H1'        24.0993    8.7217   18.3566 H        41   G55       0.2006
   1310 H8         25.3052   11.1165   15.7375 H        41   G55       0.1640
   1311 H1         25.4735    4.9851   13.8707 H        41   G55       0.3424
   1312 H21        25.2197    3.6443   15.5907 H        41   G55       0.4364
   1313 H22        24.9917    4.2477   17.2168 H        41   G55       0.4364
   1314 HO2'       26.2854    8.3189   20.5213 H        41   G55       0.4186
   1315 P          29.0380   10.8720   19.7550 P.3      42   G56       1.1662
   1316 OP1        29.6500   11.4780   20.9670 O.co2    42   G56      -0.7760
   1317 OP2        29.4720   11.3160   18.4100 O.co2    42   G56      -0.7760
   1318 O5'        29.2450    9.2950   19.8290 O.3      42   G56      -0.4989
   1319 C5'        29.1710    8.6110   21.0710 C.3      42   G56       0.0558
   1320 C4'        29.2330    7.1200   20.8460 C.3      42   G56       0.1065
   1321 O4'        28.1200    6.7080   20.0020 O.3      42   G56      -0.3548
   1322 C3'        30.4460    6.6110   20.0860 C.3      42   G56       0.2022
   1323 O3'        31.5680    6.4510   20.9380 O.3      42   G56      -0.5246
   1324 C2'        29.9290    5.2670   19.6150 C.3      42   G56       0.0670
   1325 O2'        29.7980    4.3650   20.6970 O.3      42   G56      -0.6139
   1326 C1'        28.5450    5.6790   19.1180 C.3      42   G56       0.0191
   1327 N9         28.6120    6.2310   17.7690 N.ar     42   G56       0.0492
   1328 C8         28.6750    7.5600   17.4150 C.ar     42   G56       0.1374
   1329 N7         28.7410    7.7420   16.1240 N.ar     42   G56      -0.5709
   1330 C5         28.7120    6.4590   15.5950 C.ar     42   G56       0.1744
   1331 C6         28.7440    6.0230   14.2510 C.2      42   G56       0.4770
   1332 O6         28.7840    6.7080   13.2190 O.2      42   G56      -0.5597
   1333 N1         28.7150    4.6320   14.1630 N.am     42   G56      -0.4787
   1334 C2         28.6590    3.7730   15.2350 C.2      42   G56       0.7657
   1335 N2         28.6680    2.4560   14.9490 N.pl3    42   G56      -0.9672
   1336 N3         28.6090    4.1700   16.4910 N.2      42   G56      -0.6323
   1337 C4         28.6400    5.5170   16.5990 C.ar     42   G56       0.1222
   1338 H5'        30.0070    8.9156   21.7006 H        42   G56       0.0679
   1339 H5''       28.2339    8.8631   21.5674 H        42   G56       0.0679
   1340 H4'        29.1672    6.6073   21.8056 H        42   G56       0.1174
   1341 H3'        30.6821    7.2594   19.2422 H        42   G56       0.0615
   1342 H2'        30.5420    4.8541   18.8139 H        42   G56       0.0972
   1343 H1'        27.8572    4.8342   19.1534 H        42   G56       0.2006
   1344 H8         28.6703    8.3683   18.1313 H        42   G56       0.1640
   1345 H1         28.7368    4.2234   13.2396 H        42   G56       0.3424
   1346 H21        28.7102    2.1482   13.9880 H        42   G56       0.4364
   1347 H22        28.6326    1.7768   15.6957 H        42   G56       0.4364
   1348 HO2'       29.3185    3.5854   20.4074 H        42   G56       0.4186
   1349 P          33.0340    6.3650   20.3040 P.3      43   G57       1.1662
   1350 OP1        34.0030    6.3850   21.4280 O.co2    43   G57      -0.7760
   1351 OP2        33.1360    7.3920   19.2270 O.co2    43   G57      -0.7760
   1352 O5'        33.0840    4.9510   19.5680 O.3      43   G57      -0.4989
   1353 C5'        33.0630    3.7350   20.3060 C.3      43   G57       0.0558
   1354 C4'        33.0320    2.5530   19.3630 C.3      43   G57       0.1065
   1355 O4'        31.8680    2.6370   18.4950 O.3      43   G57      -0.3548
   1356 C3'        34.1890    2.4400   18.3860 C.3      43   G57       0.2022
   1357 O3'        35.3100    1.8350   19.0090 O.3      43   G57      -0.5246
   1358 C2'        33.5960    1.5160   17.3360 C.3      43   G57       0.0670
   1359 O2'        33.5240    0.1700   17.7750 O.3      43   G57      -0.6139
   1360 C1'        32.1870    2.0940   17.2190 C.3      43   G57       0.0191
   1361 N9         32.1110    3.1630   16.2240 N.ar     43   G57       0.0492
   1362 C8         32.0240    4.5150   16.4540 C.ar     43   G57       0.1374
   1363 N7         31.9590    5.2200   15.3500 N.ar     43   G57      -0.5709
   1364 C5         32.0070    4.2750   14.3350 C.ar     43   G57       0.1744
   1365 C6         31.9640    4.4380   12.9220 C.2      43   G57       0.4770
   1366 O6         31.8570    5.4860   12.2650 O.2      43   G57      -0.5597
   1367 N1         32.0530    3.2180   12.2650 N.am     43   G57      -0.4787
   1368 C2         32.1660    1.9950   12.8780 C.2      43   G57       0.7657
   1369 N2         32.2630    0.9390   12.0580 N.pl3    43   G57      -0.9672
   1370 N3         32.1900    1.8260   14.1980 N.2      43   G57      -0.6323
   1371 C4         32.1090    3.0000   14.8570 C.ar     43   G57       0.1222
   1372 H5'        33.9561    3.6759   20.9281 H        43   G57       0.0679
   1373 H5''       32.1778    3.7134   20.9417 H        43   G57       0.0679
   1374 H4'        32.9718    1.6352   19.9479 H        43   G57       0.1174
   1375 H3'        34.4464    3.4103   17.9613 H        43   G57       0.0615
   1376 H2'        34.1345    1.5948   16.3916 H        43   G57       0.0972
   1377 H1'        31.4817    1.3022   16.9666 H        43   G57       0.2006
   1378 H8         32.0105    4.9518   17.4416 H        43   G57       0.1640
   1379 H1         32.0330    3.2315   11.2553 H        43   G57       0.3424
   1380 H21        32.2472    1.0737   11.0571 H        43   G57       0.4364
   1381 H22        32.3519    0.0087   12.4410 H        43   G57       0.4364
   1382 HO2'       34.4105   -0.1912   17.8478 H        43   G57       0.4186
   1383 P          36.7840    2.3180   18.6280 P.3      44   C58       1.1662
   1384 OP1        37.7400    1.5090   19.4340 O.co2    44   C58      -0.7760
   1385 OP2        36.8260    3.8040   18.7170 O.co2    44   C58      -0.7760
   1386 O5'        36.9470    1.9050   17.1000 O.3      44   C58      -0.4989
   1387 C5'        37.1380    0.5460   16.7300 C.3      44   C58       0.0558
   1388 C4'        36.9860    0.3850   15.2380 C.3      44   C58       0.1065
   1389 O4'        35.6880    0.8870   14.8140 O.3      44   C58      -0.3548
   1390 C3'        37.9560    1.1660   14.3690 C.3      44   C58       0.2022
   1391 O3'        39.2200    0.5170   14.2860 O.3      44   C58      -0.5246
   1392 C2'        37.2240    1.1160   13.0380 C.3      44   C58       0.0670
   1393 O2'        37.2770   -0.1700   12.4500 O.3      44   C58      -0.6139
   1394 C1'        35.7970    1.4100   13.4950 C.3      44   C58       0.0066
   1395 N1         35.5410    2.8560   13.5430 N.am     44   C58      -0.0484
   1396 C2         35.3010    3.5170   12.3480 C.2      44   C58       0.7538
   1397 O2         35.3270    2.8560   11.2950 O.2      44   C58      -0.6252
   1398 N3         35.0580    4.8490   12.3650 N.2      44   C58      -0.7584
   1399 C4         35.0570    5.5150   13.5230 C.2      44   C58       0.8185
   1400 N4         34.7990    6.8310   13.4920 N.pl3    44   C58      -0.9530
   1401 C5         35.3140    4.8650   14.7620 C.2      44   C58      -0.5215
   1402 C6         35.5460    3.5440   14.7270 C.2      44   C58       0.0053
   1403 H5'        36.3964   -0.0722   17.2359 H        44   C58       0.0679
   1404 H5''       38.1371    0.2277   17.0276 H        44   C58       0.0679
   1405 H4'        37.0568   -0.6731   14.9862 H        44   C58       0.1174
   1406 H3'        38.0624    2.1919   14.7216 H        44   C58       0.0615
   1407 H2'        37.5889    1.8821   12.3538 H        44   C58       0.0972
   1408 H1'        35.0807    0.9213   12.8346 H        44   C58       0.2029
   1409 H5         35.3220    5.4126   15.6929 H        44   C58       0.1928
   1410 H6         35.7399    3.0144   15.6480 H        44   C58       0.1958
   1411 H41        34.6151    7.2889   12.6108 H        44   C58       0.4234
   1412 H42        34.7886    7.3639   14.3499 H        44   C58       0.4234
   1413 HO2'       38.1743   -0.3543   12.1629 H        44   C58       0.4186
   1414 P          40.5510    1.3800   14.0470 P.3      45   A59       1.1662
   1415 OP1        41.7000    0.4510   14.1910 O.co2    45   A59      -0.7760
   1416 OP2        40.5030    2.6210   14.8670 O.co2    45   A59      -0.7760
   1417 O5'        40.4590    1.8310   12.5250 O.3      45   A59      -0.4989
   1418 C5'        40.5970    0.8850   11.4720 C.3      45   A59       0.0558
   1419 C4'        40.1580    1.5030   10.1670 C.3      45   A59       0.1065
   1420 O4'        38.8690    2.1380   10.3590 O.3      45   A59      -0.3548
   1421 C3'        41.0530    2.6160    9.6430 C.3      45   A59       0.2022
   1422 O3'        42.0770    2.0600    8.8320 O.3      45   A59      -0.5246
   1423 C2'        40.1000    3.4230    8.7770 C.3      45   A59       0.0670
   1424 O2'        39.9280    2.8720    7.4830 O.3      45   A59      -0.6139
   1425 C1'        38.8030    3.3180    9.5780 C.3      45   A59       0.0394
   1426 N9         38.5950    4.4510   10.4760 N.ar     45   A59      -0.0251
   1427 C8         38.6220    4.4780   11.8480 C.ar     45   A59       0.2006
   1428 N7         38.3270    5.6500   12.3600 N.ar     45   A59      -0.6073
   1429 C5         38.1030    6.4490   11.2440 C.ar     45   A59       0.0515
   1430 C6         37.7310    7.7930   11.1040 C.ar     45   A59       0.7009
   1431 N6         37.4980    8.6100   12.1360 N.pl3    45   A59      -0.9019
   1432 N1         37.5980    8.2780    9.8520 N.ar     45   A59      -0.7615
   1433 C2         37.8160    7.4610    8.8200 C.ar     45   A59       0.5875
   1434 N3         38.1600    6.1780    8.8230 N.ar     45   A59      -0.6997
   1435 C4         38.2860    5.7270   10.0810 C.ar     45   A59       0.3053
   1436 H5'        41.6406    0.5800   11.3945 H        45   A59       0.0679
   1437 H5''       39.9795    0.0126   11.6855 H        45   A59       0.0679
   1438 H4'        40.0684    0.7240    9.4098 H        45   A59       0.1174
   1439 H3'        41.4646    3.2162   10.4544 H        45   A59       0.0615
   1440 H2'        40.4271    4.4607    8.7114 H        45   A59       0.0972
   1441 H1'        37.9609    3.2462    8.8897 H        45   A59       0.2007
   1442 H8         38.8636    3.6148   12.4505 H        45   A59       0.1553
   1443 H2         37.6957    7.9061    7.8434 H        45   A59       0.0473
   1444 H61        37.0972    9.4628   11.7725 H        45   A59       0.4115
   1445 H62        37.6890    8.4099   13.1074 H        45   A59       0.4115
   1446 HO2'       39.9013    3.5796    6.8348 H        45   A59       0.4186
   1447 P          43.5030    2.7750    8.7520 P.3      46   C60       1.1662
   1448 OP1        44.3160    2.0000    7.7760 O.co2    46   C60      -0.7760
   1449 OP2        44.0190    3.0040   10.1170 O.co2    46   C60      -0.7760
   1450 O5'        43.1990    4.2100    8.1290 O.3      46   C60      -0.4989
   1451 C5'        42.8010    4.3590    6.7720 C.3      46   C60       0.0558
   1452 C4'        42.4520    5.8020    6.5020 C.3      46   C60       0.1065
   1453 O4'        41.2610    6.1470    7.2680 O.3      46   C60      -0.3548
   1454 C3'        43.4850    6.8140    6.9770 C.3      46   C60       0.2022
   1455 O3'        44.5110    6.9880    6.0050 O.3      46   C60      -0.5246
   1456 C2'        42.6330    8.0680    7.1160 C.3      46   C60       0.0670
   1457 O2'        42.2860    8.6240    5.8640 O.3      46   C60      -0.6139
   1458 C1'        41.3630    7.4860    7.7340 C.3      46   C60       0.0066
   1459 N1         41.3600    7.4730    9.2080 N.am     46   C60      -0.0484
   1460 C2         40.9810    8.6370    9.8950 C.2      46   C60       0.7538
   1461 O2         40.7300    9.6680    9.2470 O.2      46   C60      -0.6252
   1462 N3         40.9080    8.6150   11.2410 N.2      46   C60      -0.7584
   1463 C4         41.2130    7.4990   11.9090 C.2      46   C60       0.8185
   1464 N4         41.0910    7.5170   13.2430 N.pl3    46   C60      -0.9530
   1465 C5         41.6450    6.3180   11.2420 C.2      46   C60      -0.5215
   1466 C6         41.7020    6.3460    9.9020 C.2      46   C60       0.0053
   1467 H5'        43.6191    4.0555    6.1188 H        46   C60       0.0679
   1468 H5''       41.9303    3.7326    6.5782 H        46   C60       0.0679
   1469 H4'        42.2600    5.9423    5.4383 H        46   C60       0.1174
   1470 H3'        43.9052    6.5198    7.9388 H        46   C60       0.0615
   1471 H2'        43.1004    8.8042    7.7700 H        46   C60       0.0972
   1472 H1'        40.5020    8.0533    7.3805 H        46   C60       0.2029
   1473 H5         41.9171    5.4311   11.7950 H        46   C60       0.1928
   1474 H6         42.0225    5.4660    9.3641 H        46   C60       0.1958
   1475 H41        40.7807    8.3568   13.7104 H        46   C60       0.4234
   1476 H42        41.3093    6.6907   13.7813 H        46   C60       0.4234
   1477 HO2'       42.7433    9.4599    5.7467 H        46   C60       0.4186
   1478 P          45.9800    7.4570    6.4610 P.3      47   C61       1.1662
   1479 OP1        46.8980    7.1290    5.3380 O.co2    47   C61      -0.7760
   1480 OP2        46.2780    6.9460    7.8270 O.co2    47   C61      -0.7760
   1481 O5'        45.8840    9.0440    6.5910 O.3      47   C61      -0.4989
   1482 C5'        45.4160    9.8530    5.5110 C.3      47   C61       0.0558
   1483 C4'        45.0110   11.2200    6.0230 C.3      47   C61       0.1065
   1484 O4'        43.8970   11.0820    6.9500 O.3      47   C61      -0.3548
   1485 C3'        46.0670   11.9590    6.8290 C.3      47   C61       0.2022
   1486 O3'        46.9340   12.6720    5.9560 O.3      47   C61      -0.5246
   1487 C2'        45.2140   12.9330    7.6350 C.3      47   C61       0.0670
   1488 O2'        44.8010   14.0320    6.8380 O.3      47   C61      -0.6139
   1489 C1'        43.9980   12.0660    7.9630 C.3      47   C61       0.0066
   1490 N1         44.0480   11.3750    9.2620 N.am     47   C61      -0.0484
   1491 C2         43.5960   12.0460   10.3970 C.2      47   C61       0.7538
   1492 O2         43.2400   13.2310   10.2920 O.2      47   C61      -0.6252
   1493 N3         43.5570   11.3900   11.5840 N.2      47   C61      -0.7584
   1494 C4         43.9630   10.1190   11.6560 C.2      47   C61       0.8185
   1495 N4         43.8700    9.4960   12.8390 N.pl3    47   C61      -0.9530
   1496 C5         44.4720    9.4270   10.5220 C.2      47   C61      -0.5215
   1497 C6         44.4970   10.0860    9.3550 C.2      47   C61       0.0053
   1498 H5'        44.5548    9.3721    5.0472 H        47   C61       0.0679
   1499 H5''       46.2096    9.9641    4.7721 H        47   C61       0.0679
   1500 H4'        44.7026   11.8409    5.1819 H        47   C61       0.1174
   1501 H3'        46.6217   11.2814    7.4780 H        47   C61       0.0615
   1502 H2'        45.7270   13.2629    8.5384 H        47   C61       0.0972
   1503 H1'        43.1053   12.6907    7.9336 H        47   C61       0.2029
   1504 H5         44.8249    8.4092   10.5985 H        47   C61       0.1928
   1505 H6         44.8778    9.5913    8.4737 H        47   C61       0.1958
   1506 H41        43.5051    9.9884   13.6418 H        47   C61       0.4234
   1507 H42        44.1648    8.5341   12.9277 H        47   C61       0.4234
   1508 HO2'       43.9646   14.3698    7.1666 H        47   C61       0.4186
   1509 P          48.5010   12.3300    5.9340 P.3      48   G62       1.1662
   1510 OP1        49.0500   12.8480    4.6510 O.co2    48   G62      -0.7760
   1511 OP2        48.7000   10.9060    6.2980 O.co2    48   G62      -0.7760
   1512 O5'        49.1060   13.2030    7.1130 O.3      48   G62      -0.4989
   1513 C5'        50.5110   13.2260    7.3440 C.3      48   G62       0.0558
   1514 C4'        50.8120   13.9620    8.6240 C.3      48   G62       0.1065
   1515 O4'        50.5690   13.0640    9.7390 O.3      48   G62      -0.3548
   1516 C3'        52.2730   14.3740    8.7580 C.3      48   G62       0.2022
   1517 O3'        52.3750   15.4820    9.6420 O.3      48   G62      -0.5246
   1518 C2'        52.9120   13.1410    9.3860 C.3      48   G62       0.0670
   1519 O2'        54.0760   13.4520   10.1240 O.3      48   G62      -0.6139
   1520 C1'        51.7990   12.6870   10.3270 C.3      48   G62       0.0191
   1521 N9         51.7530   11.2640   10.6450 N.ar     48   G62       0.0492
   1522 C8         52.1350   10.2060    9.8560 C.ar     48   G62       0.1374
   1523 N7         51.9740    9.0480   10.4400 N.ar     48   G62      -0.5709
   1524 C5         51.4530    9.3640   11.6880 C.ar     48   G62       0.1744
   1525 C6         51.0740    8.5260   12.7670 C.2      48   G62       0.4770
   1526 O6         51.1210    7.2900   12.8390 O.2      48   G62      -0.5597
   1527 N1         50.5960    9.2670   13.8460 N.am     48   G62      -0.4787
   1528 C2         50.4940   10.6340   13.8830 C.2      48   G62       0.7657
   1529 N2         50.0120   11.1670   15.0170 N.pl3    48   G62      -0.9672
   1530 N3         50.8410   11.4240   12.8840 N.2      48   G62      -0.6323
   1531 C4         51.3090   10.7270   11.8270 C.ar     48   G62       0.1222
   1532 H5'        51.0048   13.7303    6.5134 H        48   G62       0.0679
   1533 H5''       50.8821   12.2038    7.4187 H        48   G62       0.0679
   1534 H4'        50.1701   14.8390    8.7073 H        48   G62       0.1174
   1535 H3'        52.7133   14.5987    7.7865 H        48   G62       0.0615
   1536 H2'        53.1193   12.3819    8.6318 H        48   G62       0.0972
   1537 H1'        51.9058   13.2363   11.2624 H        48   G62       0.2006
   1538 H8         52.5278   10.3196    8.8564 H        48   G62       0.1640
   1539 H1         50.3012    8.7566   14.6662 H        48   G62       0.3424
   1540 H21        49.7462   10.5663   15.7842 H        48   G62       0.4364
   1541 H22        49.9151   12.1687   15.1029 H        48   G62       0.4364
   1542 HO2'       54.7695   13.7362    9.5240 H        48   G62       0.4186
   1543 P          53.1490   16.8060    9.1710 P.3      49   U63       1.1662
   1544 OP1        53.2830   16.7450    7.6930 O.co2    49   U63      -0.7760
   1545 OP2        54.3580   16.9680   10.0150 O.co2    49   U63      -0.7760
   1546 O5'        52.1490   17.9870    9.5300 O.3      49   U63      -0.4989
   1547 C5'        50.7650   17.9030    9.2130 C.3      49   U63       0.0558
   1548 C4'        50.0280   19.0300    9.8840 C.3      49   U63       0.1065
   1549 O4'        48.9920   18.4330   10.7240 O.3      49   U63      -0.3548
   1550 C3'        50.9370   19.7870   10.8450 C.3      49   U63       0.2022
   1551 O3'        50.8960   21.2140   10.8660 O.3      49   U63      -0.5246
   1552 C2'        50.7790   19.0570   12.1730 C.3      49   U63       0.0670
   1553 O2'        50.9090   19.9140   13.2870 O.3      49   U63      -0.6139
   1554 C1'        49.3350   18.5680   12.0970 C.3      49   U63       0.0674
   1555 N1         49.1740   17.2680   12.7690 N.am     49   U63       0.0418
   1556 C2         48.5250   17.2600   13.9910 C.2      49   U63       0.4687
   1557 O2         48.0390   18.2620   14.4860 O.2      49   U63      -0.5477
   1558 N3         48.4640   16.0360   14.6100 N.am     49   U63      -0.3549
   1559 C4         48.9680   14.8430   14.1390 C.2      49   U63       0.5952
   1560 O4         48.9010   13.8350   14.8460 O.2      49   U63      -0.5761
   1561 C5         49.5950   14.9260   12.8520 C.2      49   U63      -0.3635
   1562 C6         49.6710   16.1080   12.2260 C.2      49   U63      -0.1126
   1563 H5'        50.6346   17.9756    8.1333 H        49   U63       0.0679
   1564 H5''       50.3690   16.9500    9.5637 H        49   U63       0.0679
   1565 H4'        49.5919   19.7043    9.1469 H        49   U63       0.1174
   1566 H3'        51.9477   19.5452   10.5163 H        49   U63       0.0615
   1567 H2'        51.4720   18.2185   12.2425 H        49   U63       0.0972
   1568 H1'        48.6784   19.3018   12.5645 H        49   U63       0.1824
   1569 H3         48.0000   16.0068   15.5066 H        49   U63       0.3154
   1570 H5         50.0040   14.0398   12.3896 H        49   U63       0.1811
   1571 H6         50.1421   16.1507   11.2551 H        49   U63       0.2188
   1572 HO2'       51.8141   20.2285   13.3455 H        49   U63       0.4186
   1573 P          49.5210   21.9960   10.6210 P.3      50   A64       1.1662
   1574 OP1        49.7170   23.3870   11.1030 O.co2    50   A64      -0.7760
   1575 OP2        48.4050   21.1800   11.1640 O.co2    50   A64      -0.7760
   1576 O5'        49.3850   22.0560    9.0360 O.3      50   A64      -0.4989
   1577 C5'        48.4260   22.9090    8.4300 C.3      50   A64       0.0558
   1578 C4'        47.6330   22.1550    7.3920 C.3      50   A64       0.1065
   1579 O4'        47.7960   20.7240    7.5820 O.3      50   A64      -0.3548
   1580 C3'        46.1340   22.3990    7.4360 C.3      50   A64       0.2022
   1581 O3'        45.8400   23.5500    6.6480 O.3      50   A64      -0.5246
   1582 C2'        45.5820   21.1170    6.8160 C.3      50   A64       0.0670
   1583 O2'        45.6460   21.1350    5.4020 O.3      50   A64      -0.6139
   1584 C1'        46.5630   20.0670    7.3460 C.3      50   A64       0.0394
   1585 N9         46.1810   19.3870    8.5850 N.ar     50   A64      -0.0251
   1586 C8         45.6280   19.9190    9.7240 C.ar     50   A64       0.2006
   1587 N7         45.4830   19.0480   10.6970 N.ar     50   A64      -0.6073
   1588 C5         45.9600   17.8610   10.1570 C.ar     50   A64       0.0515
   1589 C6         46.0990   16.5660   10.6900 C.ar     50   A64       0.7009
   1590 N6         45.7750   16.2400   11.9480 N.pl3    50   A64      -0.9019
   1591 N1         46.5960   15.6060    9.8810 N.ar     50   A64      -0.7615
   1592 C2         46.9390   15.9360    8.6290 C.ar     50   A64       0.5875
   1593 N3         46.8670   17.1180    8.0200 N.ar     50   A64      -0.6997
   1594 C4         46.3660   18.0490    8.8480 C.ar     50   A64       0.3053
   1595 H5'        47.7479   23.2874    9.1949 H        50   A64       0.0679
   1596 H5''       48.9372   23.7464    7.9551 H        50   A64       0.0679
   1597 H4'        48.0041   22.4230    6.4028 H        50   A64       0.1174
   1598 H3'        45.7848   22.5233    8.4610 H        50   A64       0.0615
   1599 H2'        44.5676   20.9178    7.1616 H        50   A64       0.0972
   1600 H1'        46.7151   19.3148    6.5720 H        50   A64       0.2007
   1601 H8         45.3394   20.9560    9.8117 H        50   A64       0.1553
   1602 H2         47.3296   15.1283    8.0277 H        50   A64       0.0473
   1603 HO2'       44.7581   21.0848    5.0404 H        50   A64       0.4186
   1604 H61        46.0954   15.3046   12.1540 H        50   A64       0.4115
   1605 H62        45.2833   16.8403   12.5945 H        50   A64       0.4115
   1606 P          44.4740   24.3600    6.8860 P.3      51   A65       1.1662
   1607 OP1        44.5680   25.6170    6.0940 O.co2    51   A65      -0.7760
   1608 OP2        44.2070   24.4310    8.3470 O.co2    51   A65      -0.7760
   1609 O5'        43.3640   23.4380    6.2070 O.3      51   A65      -0.4989
   1610 C5'        43.3520   23.2630    4.7980 C.3      51   A65       0.0558
   1611 C4'        42.3290   22.2280    4.3700 C.3      51   A65       0.1065
   1612 O4'        42.6110   20.9410    5.0130 O.3      51   A65      -0.3548
   1613 C3'        40.8990   22.5760    4.7980 C.3      51   A65       0.2022
   1614 O3'        40.0280   21.8650    3.9220 O.3      51   A65      -0.5246
   1615 C2'        40.8210   21.9380    6.1860 C.3      51   A65       0.0670
   1616 O2'        39.5110   21.6530    6.6400 O.3      51   A65      -0.6139
   1617 C1'        41.5630   20.6400    5.9080 C.3      51   A65       0.0394
   1618 N9         42.0310   19.8270    7.0300 N.ar     51   A65      -0.0251
   1619 C8         42.1300   20.1740    8.3540 C.ar     51   A65       0.2006
   1620 N7         42.4720   19.1750    9.1370 N.ar     51   A65      -0.6073
   1621 C5         42.6350   18.1090    8.2650 C.ar     51   A65       0.0515
   1622 C6         42.9760   16.7660    8.4750 C.ar     51   A65       0.7009
   1623 N6         43.2090   16.2420    9.6820 N.pl3    51   A65      -0.9019
   1624 N1         43.0630   15.9630    7.3940 N.ar     51   A65      -0.7615
   1625 C2         42.8090   16.4880    6.1830 C.ar     51   A65       0.5875
   1626 N3         42.4680   17.7330    5.8620 N.ar     51   A65      -0.6997
   1627 C4         42.3960   18.5020    6.9610 C.ar     51   A65       0.3053
   1628 H5'        43.1098   24.2152    4.3259 H        51   A65       0.0679
   1629 H5''       44.3412   22.9437    4.4699 H        51   A65       0.0679
   1630 H4'        42.3648   22.1084    3.2872 H        51   A65       0.1174
   1631 H3'        40.7073   23.6489    4.8109 H        51   A65       0.0615
   1632 H2'        41.3596   22.5404    6.9175 H        51   A65       0.0972
   1633 H1'        40.8672   20.0109    5.3528 H        51   A65       0.2007
   1634 H8         41.9444   21.1736    8.7184 H        51   A65       0.1553
   1635 H2         42.8938   15.8019    5.3532 H        51   A65       0.0473
   1636 H61        43.2453   15.2690    9.4136 H        51   A65       0.4115
   1637 H62        42.8914   16.8106   10.4539 H        51   A65       0.4115
   1638 HO2'       39.4553   21.8208    7.5836 H        51   A65       0.4186
   1639 P          38.7520   22.5860    3.2690 P.3      52   A66       1.1662
   1640 OP1        39.1260   23.0090    1.8840 O.co2    52   A66      -0.7760
   1641 OP2        38.2130   23.5850    4.2210 O.co2    52   A66      -0.7760
   1642 O5'        37.6940   21.4010    3.1490 O.3      52   A66      -0.4989
   1643 C5'        37.3630   20.5960    4.2850 C.3      52   A66       0.0558
   1644 C4'        37.6540   19.1400    3.9940 C.3      52   A66       0.1065
   1645 O4'        38.9990   18.7950    4.4310 O.3      52   A66      -0.3548
   1646 C3'        36.8060   18.1320    4.7410 C.3      52   A66       0.2022
   1647 O3'        35.4990   18.0240    4.2090 O.3      52   A66      -0.5246
   1648 C2'        37.6370   16.8750    4.5500 C.3      52   A66       0.0670
   1649 O2'        37.5820   16.3600    3.2310 O.3      52   A66      -0.6139
   1650 C1'        39.0220   17.4350    4.8640 C.3      52   A66       0.0394
   1651 N9         39.2120   17.4040    6.3140 N.ar     52   A66      -0.0251
   1652 C8         39.1270   18.4200    7.2330 C.ar     52   A66       0.2006
   1653 N7         39.2620   18.0200    8.4780 N.ar     52   A66      -0.6073
   1654 C5         39.4680   16.6510    8.3650 C.ar     52   A66       0.0515
   1655 C6         39.6570   15.6390    9.3220 C.ar     52   A66       0.7009
   1656 N6         39.6600   15.8550   10.6440 N.pl3    52   A66      -0.9019
   1657 N1         39.8360   14.3770    8.8710 N.ar     52   A66      -0.7615
   1658 C2         39.8130   14.1560    7.5520 C.ar     52   A66       0.5875
   1659 N3         39.6310   15.0220    6.5560 N.ar     52   A66      -0.6997
   1660 C4         39.4610   16.2640    7.0370 C.ar     52   A66       0.3053
   1661 H5'        37.9571   20.9182    5.1402 H        52   A66       0.0679
   1662 H5''       36.3042   20.7139    4.5154 H        52   A66       0.0679
   1663 H4'        37.5660   18.9617    2.9223 H        52   A66       0.1174
   1664 H3'        36.7593   18.3927    5.7983 H        52   A66       0.0615
   1665 H2'        37.3553   16.1115    5.2751 H        52   A66       0.0972
   1666 H1'        39.8013   16.8708    4.3517 H        52   A66       0.2007
   1667 H8         38.9644   19.4519    6.9588 H        52   A66       0.1553
   1668 H2         39.9633   13.1296    7.2516 H        52   A66       0.0473
   1669 H61        39.4771   16.8073   10.9263 H        52   A66       0.4115
   1670 H62        39.8330   15.1172   11.3117 H        52   A66       0.4115
   1671 HO2'       36.7031   16.0146    3.0582 H        52   A66       0.4186
   1672 P          34.2420   18.0610    5.2030 P.3      53   U67       1.1662
   1673 OP1        32.9980   17.7460    4.4650 O.co2    53   U67      -0.7760
   1674 OP2        34.3320   19.3340    5.9720 O.co2    53   U67      -0.7760
   1675 O5'        34.5470   16.8760    6.2250 O.3      53   U67      -0.4989
   1676 C5'        33.9020   15.6170    6.1060 C.3      53   U67       0.0558
   1677 C4'        34.8180   14.6130    5.4410 C.3      53   U67       0.1065
   1678 O4'        36.0610   14.4590    6.1860 O.3      53   U67      -0.3548
   1679 C3'        34.2450   13.2090    5.3760 C.3      53   U67       0.2022
   1680 O3'        33.4040   13.0880    4.2340 O.3      53   U67      -0.5246
   1681 C2'        35.4990   12.3650    5.2410 C.3      53   U67       0.0670
   1682 O2'        36.0140   12.4130    3.9250 O.3      53   U67      -0.6139
   1683 C1'        36.4490   13.0920    6.1930 C.3      53   U67       0.0674
   1684 N1         36.4060   12.6130    7.5850 N.am     53   U67       0.0418
   1685 C2         36.8540   11.3310    7.8480 C.2      53   U67       0.4687
   1686 O2         37.2560   10.5680    6.9800 O.2      53   U67      -0.5477
   1687 N3         36.8160   10.9670    9.1710 N.am     53   U67      -0.3549
   1688 C4         36.3860   11.7310   10.2330 C.2      53   U67       0.5952
   1689 O4         36.4050   11.2520   11.3690 O.2      53   U67      -0.5761
   1690 C5         35.9280   13.0380    9.8810 C.2      53   U67      -0.3635
   1691 C6         35.9510   13.4250    8.5980 C.2      53   U67      -0.1126
   1692 H5'        33.6347   15.2558    7.0991 H        53   U67       0.0679
   1693 H5''       32.9975   15.7306    5.5084 H        53   U67       0.0679
   1694 H4'        35.0468   14.9525    4.4308 H        53   U67       0.1174
   1695 H3'        33.7035   12.9636    6.2896 H        53   U67       0.0615
   1696 H2'        35.3235   11.3382    5.5619 H        53   U67       0.0972
   1697 H1'        37.4683   13.0070    5.8162 H        53   U67       0.1824
   1698 H3         37.1393   10.0355    9.3898 H        53   U67       0.3154
   1699 H5         35.5653   13.7102   10.6445 H        53   U67       0.1811
   1700 H6         35.5979   14.4149    8.3492 H        53   U67       0.2188
   1701 HO2'       35.4154   11.9558    3.3298 H        53   U67       0.4186
   1702 P          32.0950   12.1720    4.3110 P.3      54   G68       1.1662
   1703 OP1        31.2950   12.4250    3.0870 O.co2    54   G68      -0.7760
   1704 OP2        31.4700   12.3550    5.6400 O.co2    54   G68      -0.7760
   1705 O5'        32.6780   10.6940    4.2330 O.3      54   G68      -0.4989
   1706 C5'        33.2130   10.1860    3.0130 C.3      54   G68       0.0558
   1707 C4'        33.7690    8.8000    3.2240 C.3      54   G68       0.1065
   1708 O4'        34.8330    8.8570    4.2120 O.3      54   G68      -0.3548
   1709 C3'        32.7870    7.7830    3.7840 C.3      54   G68       0.2022
   1710 O3'        32.0650    7.1650    2.7270 O.3      54   G68      -0.5246
   1711 C2'        33.7300    6.7710    4.4120 C.3      54   G68       0.0670
   1712 O2'        34.3030    5.9310    3.4320 O.3      54   G68      -0.6139
   1713 C1'        34.7940    7.6870    5.0120 C.3      54   G68       0.0191
   1714 N9         34.4860    8.0810    6.3830 N.ar     54   G68       0.0492
   1715 C8         34.0160    9.2890    6.8330 C.ar     54   G68       0.1374
   1716 N7         33.8550    9.3260    8.1300 N.ar     54   G68      -0.5709
   1717 C5         34.2430    8.0610    8.5580 C.ar     54   G68       0.1744
   1718 C6         34.2820    7.5010    9.8600 C.2      54   G68       0.4770
   1719 O6         33.9980    8.0400   10.9440 O.2      54   G68      -0.5597
   1720 N1         34.7120    6.1770    9.8310 N.am     54   G68      -0.4787
   1721 C2         35.0680    5.4850    8.6960 C.2      54   G68       0.7657
   1722 N2         35.4560    4.2090    8.8570 N.pl3    54   G68      -0.9672
   1723 N3         35.0460    6.0060    7.4840 N.2      54   G68      -0.6323
   1724 C4         34.6250    7.2820    7.4900 C.ar     54   G68       0.1222
   1725 H5'        32.4233   10.1464    2.2628 H        54   G68       0.0679
   1726 H5''       34.0085   10.8451    2.6654 H        54   G68       0.0679
   1727 H4'        34.1730    8.4281    2.2824 H        54   G68       0.1174
   1728 H3'        32.1208    8.2282    4.5230 H        54   G68       0.0615
   1729 H2'        33.2275    6.1899    5.1853 H        54   G68       0.0972
   1730 H1'        35.7639    7.1905    4.9825 H        54   G68       0.2006
   1731 H8         33.8010   10.1238    6.1824 H        54   G68       0.1640
   1732 H1         34.7669    5.6860   10.7119 H        54   G68       0.3424
   1733 H21        35.4766    3.8001    9.7803 H        54   G68       0.4364
   1734 H22        35.7272    3.6586    8.0548 H        54   G68       0.4364
   1735 HO2'       33.9529    5.0422    3.5273 H        54   G68       0.4186
   1736 P          30.5670    6.6470    2.9630 P.3      55   U69       1.1662
   1737 OP1        30.0620    6.2630    1.6130 O.co2    55   U69      -0.7760
   1738 OP2        29.8050    7.6280    3.7800 O.co2    55   U69      -0.7760
   1739 O5'        30.7390    5.3200    3.8320 O.3      55   U69      -0.4989
   1740 C5'        31.5150    4.2250    3.3500 C.3      55   U69       0.0558
   1741 C4'        31.8010    3.2490    4.4730 C.3      55   U69       0.1065
   1742 O4'        32.6610    3.8920    5.4460 O.3      55   U69      -0.3548
   1743 C3'        30.5990    2.7930    5.2830 C.3      55   U69       0.2022
   1744 O3'        29.9520    1.6960    4.6490 O.3      55   U69      -0.5246
   1745 C2'        31.2500    2.3760    6.5960 C.3      55   U69       0.0670
   1746 O2'        31.9020    1.1250    6.5130 O.3      55   U69      -0.6139
   1747 C1'        32.3100    3.4620    6.7530 C.3      55   U69       0.0674
   1748 N1         31.8420    4.6230    7.5210 N.am     55   U69       0.0418
   1749 C2         31.8840    4.5190    8.8940 C.2      55   U69       0.4687
   1750 O2         32.2360    3.4970    9.4580 O.2      55   U69      -0.5477
   1751 N3         31.4870    5.6430    9.5770 N.am     55   U69      -0.3549
   1752 C4         31.0420    6.8310    9.0390 C.2      55   U69       0.5952
   1753 O4         30.7730    7.7750    9.7900 O.2      55   U69      -0.5761
   1754 C5         30.9950    6.8540    7.6030 C.2      55   U69      -0.3635
   1755 C6         31.3890    5.7740    6.9100 C.2      55   U69      -0.1126
   1756 H5'        32.4574    4.6003    2.9511 H        55   U69       0.0679
   1757 H5''       30.9661    3.7142    2.5589 H        55   U69       0.0679
   1758 H4'        32.3109    2.3755    4.0667 H        55   U69       0.1174
   1759 H3'        29.9021    3.6163    5.4399 H        55   U69       0.0615
   1760 H2'        30.5348    2.3973    7.4183 H        55   U69       0.0972
   1761 H1'        33.1885    3.0391    7.2403 H        55   U69       0.1824
   1762 H3         31.5256    5.5930   10.5850 H        55   U69       0.3154
   1763 H5         30.6450    7.7345    7.0847 H        55   U69       0.1811
   1764 H6         31.3498    5.8074    5.8312 H        55   U69       0.2188
   1765 HO2'       31.4031    0.4702    7.0069 H        55   U69       0.4186
   1766 P          28.3680    1.5060    4.8040 P.3      56   C70       1.1662
   1767 OP1        27.9290    0.5880    3.7140 O.co2    56   C70      -0.7760
   1768 OP2        27.7070    2.8320    4.9540 O.co2    56   C70      -0.7760
   1769 O5'        28.2010    0.7570    6.2020 O.3      56   C70      -0.4989
   1770 C5'        28.7640   -0.5400    6.4010 C.3      56   C70       0.0558
   1771 C4'        28.7890   -0.8850    7.8730 C.3      56   C70       0.1065
   1772 O4'        29.6640    0.0310    8.5800 O.3      56   C70      -0.3548
   1773 C3'        27.4690   -0.7650    8.6140 C.3      56   C70       0.2022
   1774 O3'        26.6790   -1.9310    8.4210 O.3      56   C70      -0.5246
   1775 C2'        27.9430   -0.6520   10.0560 C.3      56   C70       0.0670
   1776 O2'        28.3720   -1.8940   10.5850 O.3      56   C70      -0.6139
   1777 C1'        29.1640    0.2530    9.8890 C.3      56   C70       0.0066
   1778 N1         28.8690    1.6910   10.0320 N.am     56   C70      -0.0484
   1779 C2         28.8820    2.2540   11.3050 C.2      56   C70       0.7538
   1780 O2         29.0700    1.5130   12.2860 O.2      56   C70      -0.6252
   1781 N3         28.6850    3.5860   11.4440 N.2      56   C70      -0.7584
   1782 C4         28.4630    4.3410   10.3630 C.2      56   C70       0.8185
   1783 N4         28.3040    5.6560   10.5400 N.pl3    56   C70      -0.9530
   1784 C5         28.4030    3.7830    9.0550 C.2      56   C70      -0.5215
   1785 C6         28.6090    2.4660    8.9360 C.2      56   C70       0.0053
   1786 H5'        29.7822   -0.5527    6.0122 H        56   C70       0.0679
   1787 H5''       28.1653   -1.2785    5.8678 H        56   C70       0.0679
   1788 H4'        29.1696   -1.8995    7.9916 H        56   C70       0.1174
   1789 H3'        26.9277    0.1303    8.3080 H        56   C70       0.0615
   1790 H2'        27.1866   -0.1885   10.6894 H        56   C70       0.0972
   1791 H1'        29.9240   -0.0316   10.6166 H        56   C70       0.2029
   1792 H5         28.1990    4.3988    8.1916 H        56   C70       0.1928
   1793 H6         28.5692    2.0081    7.9587 H        56   C70       0.1958
   1794 H41        28.3501    6.0497   11.4690 H        56   C70       0.4234
   1795 H42        28.1377    6.2561    9.7448 H        56   C70       0.4234
   1796 HO2'       27.8926   -2.0797   11.3957 H        56   C70       0.4186
   1797 P          25.0930   -1.7980    8.2340 P.3      57   C71       1.1662
   1798 OP1        24.6110   -3.1010    7.7000 O.co2    57   C71      -0.7760
   1799 OP2        24.7920   -0.5480    7.4890 O.co2    57   C71      -0.7760
   1800 O5'        24.5230   -1.6210    9.7100 O.3      57   C71      -0.4989
   1801 C5'        24.5540   -2.6980   10.6390 C.3      57   C71       0.0558
   1802 C4'        24.5510   -2.1730   12.0610 C.3      57   C71       0.1065
   1803 O4'        25.6490   -1.2400   12.2510 O.3      57   C71      -0.3548
   1804 C3'        23.3430   -1.3610   12.4890 C.3      57   C71       0.2022
   1805 O3'        22.2410   -2.1830   12.8300 O.3      57   C71      -0.5246
   1806 C2'        23.8940   -0.6670   13.7240 C.3      57   C71       0.0670
   1807 O2'        24.0300   -1.5620   14.8160 O.3      57   C71      -0.6139
   1808 C1'        25.2720   -0.2570   13.2120 C.3      57   C71       0.0066
   1809 N1         25.2480    1.0590   12.5510 N.am     57   C71      -0.0484
   1810 C2         25.2730    2.2000   13.3480 C.2      57   C71       0.7538
   1811 O2         25.2520    2.0630   14.5820 O.2      57   C71      -0.6252
   1812 N3         25.3000    3.4190   12.7610 N.2      57   C71      -0.7584
   1813 C4         25.2700    3.5210   11.4320 C.2      57   C71       0.8185
   1814 N4         25.2920    4.7460   10.8940 N.pl3    57   C71      -0.9530
   1815 C5         25.2160    2.3690   10.5890 C.2      57   C71      -0.5215
   1816 C6         25.2080    1.1670   11.1890 C.2      57   C71       0.0053
   1817 H5'        23.6772   -3.3276   10.4874 H        57   C71       0.0679
   1818 H5''       25.4549   -3.2893   10.4752 H        57   C71       0.0679
   1819 H4'        24.6756   -3.0104   12.7475 H        57   C71       0.1174
   1820 H3'        23.0678   -0.6360   11.7230 H        57   C71       0.0615
   1821 H2'        23.2942    0.2023   13.9936 H        57   C71       0.0972
   1822 H1'        25.9870   -0.2473   14.0347 H        57   C71       0.2029
   1823 H5         25.1830    2.4606    9.5134 H        57   C71       0.1928
   1824 H6         25.1694    0.2720   10.5857 H        57   C71       0.1958
   1825 H41        25.3302    5.5594   11.4915 H        57   C71       0.4234
   1826 H42        25.2704    4.8572    9.8904 H        57   C71       0.4234
   1827 HO2'       24.5151   -1.1315   15.5238 H        57   C71       0.4186
   1828 P          20.7510   -1.6110   12.6880 P.3      58   G72       1.1662
   1829 OP1        19.8130   -2.6840   13.0890 O.co2    58   G72      -0.7760
   1830 OP2        20.6150   -0.9760   11.3460 O.co2    58   G72      -0.7760
   1831 O5'        20.6920   -0.4330   13.7630 O.3      58   G72      -0.4989
   1832 C5'        20.7680   -0.7220   15.1510 C.3      58   G72       0.0558
   1833 C4'        20.7860    0.5560   15.9430 C.3      58   G72       0.1065
   1834 O4'        21.9550    1.3300   15.5800 O.3      58   G72      -0.3548
   1835 C3'        19.6330    1.5010   15.6650 C.3      58   G72       0.2022
   1836 O3'        18.5110    1.0820   16.4220 O.3      58   G72      -0.5246
   1837 C2'        20.2040    2.8210   16.1680 C.3      58   G72       0.0670
   1838 O2'        20.1730    2.9200   17.5790 O.3      58   G72      -0.6139
   1839 C1'        21.6560    2.7120   15.6940 C.3      58   G72       0.0191
   1840 N9         21.8720    3.3500   14.4000 N.ar     58   G72       0.0492
   1841 C8         21.9520    2.7630   13.1570 C.ar     58   G72       0.1374
   1842 N7         22.1270    3.6320   12.1930 N.ar     58   G72      -0.5709
   1843 C5         22.1730    4.8610   12.8470 C.ar     58   G72       0.1744
   1844 C6         22.3340    6.1830   12.3360 C.2      58   G72       0.4770
   1845 O6         22.4670    6.5540   11.1590 O.2      58   G72      -0.5597
   1846 N1         22.3180    7.1280   13.3600 N.am     58   G72      -0.4787
   1847 C2         22.1590    6.8480   14.6940 C.2      58   G72       0.7657
   1848 N2         22.1570    7.8980   15.5380 N.pl3    58   G72      -0.9672
   1849 N3         22.0070    5.6320   15.1760 N.2      58   G72      -0.6323
   1850 C4         22.0210    4.6970   14.2050 C.ar     58   G72       0.1222
   1851 H5'        19.9020   -1.3156   15.4438 H        58   G72       0.0679
   1852 H5''       21.6784   -1.2860   15.3537 H        58   G72       0.0679
   1853 H4'        20.8186    0.3244   17.0076 H        58   G72       0.1174
   1854 H3'        19.4019    1.5461   14.6007 H        58   G72       0.0615
   1855 H2'        19.7014    3.6692   15.7033 H        58   G72       0.0972
   1856 H1'        22.3141    3.1650   16.4355 H        58   G72       0.2006
   1857 H8         21.8782    1.6979   12.9942 H        58   G72       0.1640
   1858 H1         22.4327    8.0970   13.0994 H        58   G72       0.3424
   1859 H21        22.2710    8.8350   15.1786 H        58   G72       0.4364
   1860 H22        22.0415    7.7482   16.5301 H        58   G72       0.4364
   1861 HO2'       19.2625    2.9883   17.8755 H        58   G72       0.4186
   1862 P          17.0260    1.4160   15.9130 P.3      59   A73       1.1662
   1863 OP1        16.0930    0.5770   16.7150 O.co2    59   A73      -0.7760
   1864 OP2        16.9630    1.3590   14.4350 O.co2    59   A73      -0.7760
   1865 O5'        16.8250    2.9310   16.3460 O.3      59   A73      -0.4989
   1866 C5'        15.5690    3.5660   16.1840 C.3      59   A73       0.0558
   1867 C4'        15.6610    4.9960   16.6380 C.3      59   A73       0.1065
   1868 O4'        16.6200    5.7050   15.8080 O.3      59   A73      -0.3548
   1869 C3'        14.3760    5.7890   16.5070 C.3      59   A73       0.2022
   1870 O3'        13.5990    5.6000   17.6790 O.3      59   A73      -0.5246
   1871 C2'        14.9070    7.2120   16.4120 C.3      59   A73       0.0670
   1872 O2'        15.3310    7.6880   17.6730 O.3      59   A73      -0.6139
   1873 C1'        16.1350    7.0050   15.5260 C.3      59   A73       0.0394
   1874 N9         15.8790    7.0950   14.0870 N.ar     59   A73      -0.0251
   1875 C8         15.7080    6.0700   13.1890 C.ar     59   A73       0.2006
   1876 N7         15.5460    6.4740   11.9500 N.ar     59   A73      -0.6073
   1877 C5         15.6000    7.8590   12.0420 C.ar     59   A73       0.0515
   1878 C6         15.5030    8.8810   11.0790 C.ar     59   A73       0.7009
   1879 N6         15.3300    8.6610    9.7710 N.pl3    59   A73      -0.9019
   1880 N1         15.5940   10.1570   11.5080 N.ar     59   A73      -0.7615
   1881 C2         15.7740   10.3830   12.8140 C.ar     59   A73       0.5875
   1882 N3         15.8830    9.5120   13.8120 N.ar     59   A73      -0.6997
   1883 C4         15.7890    8.2540   13.3550 C.ar     59   A73       0.3053
   1884 H5'        14.8201    3.0444   16.7800 H        59   A73       0.0679
   1885 H5''       15.2808    3.5370   15.1332 H        59   A73       0.0679
   1886 H4'        15.9951    5.0226   17.6752 H        59   A73       0.1174
   1887 H3'        13.8226    5.5082   15.6109 H        59   A73       0.0615
   1888 H2'        14.1835    7.8832   15.9493 H        59   A73       0.0972
   1889 H1'        16.8969    7.7355   15.7980 H        59   A73       0.2007
   1890 H8         15.7069    5.0286   13.4752 H        59   A73       0.1553
   1891 H2         15.8403   11.4228   13.0985 H        59   A73       0.0473
   1892 H61        15.2600    7.7155    9.4229 H        59   A73       0.4115
   1893 H62        15.2694    9.4404    9.1315 H        59   A73       0.4115
   1894 HO2'       15.7959    8.5204   17.5610 H        59   A73       0.4186
   1895 P          11.9970    5.5710   17.5740 P.3      60   C74       1.1662
   1896 OP1        11.4620    5.1830   18.9080 O.co2    60   C74      -0.7760
   1897 OP2        11.6240    4.7820   16.3740 O.co2    60   C74      -0.7760
   1898 O5'        11.6110    7.0900   17.2970 O.3      60   C74      -0.4989
   1899 C5'        11.9510    8.1080   18.2320 C.3      60   C74       0.0558
   1900 C4'        11.8880    9.4620   17.5720 C.3      60   C74       0.1065
   1901 O4'        12.8980    9.5400   16.5310 O.3      60   C74      -0.3548
   1902 C3'        10.5980    9.7800   16.8350 C.3      60   C74       0.2022
   1903 O3'         9.5960   10.2360   17.7340 O.3      60   C74      -0.5246
   1904 C2'        11.0600   10.8900   15.9030 C.3      60   C74       0.0670
   1905 O2'        11.2420   12.1190   16.5780 O.3      60   C74      -0.6139
   1906 C1'        12.4230   10.3500   15.4680 C.3      60   C74       0.0066
   1907 N1         12.3610    9.5320   14.2460 N.am     60   C74      -0.0484
   1908 C2         12.4210   10.1760   13.0110 C.2      60   C74       0.7538
   1909 O2         12.5150   11.4080   12.9860 O.2      60   C74      -0.6252
   1910 N3         12.3750    9.4430   11.8760 N.2      60   C74      -0.7584
   1911 C4         12.2720    8.1150   11.9450 C.2      60   C74       0.8185
   1912 N4         12.2390    7.4310   10.7960 N.pl3    60   C74      -0.9530
   1913 C5         12.2010    7.4280   13.1940 C.2      60   C74      -0.5215
   1914 C6         12.2490    8.1710   14.3100 C.2      60   C74       0.0053
   1915 H5'        12.9615    7.9343   18.6018 H        60   C74       0.0679
   1916 H5''       11.2509    8.0801   19.0670 H        60   C74       0.0679
   1917 H4'        12.0776   10.2351   18.3167 H        60   C74       0.1174
   1918 H3'        10.2496    8.9160   16.2691 H        60   C74       0.0615
   1919 H2'        10.3870   11.0001   15.0527 H        60   C74       0.0972
   1920 H1'        13.1094   11.1823   15.3123 H        60   C74       0.2029
   1921 H5         12.1122    6.3526   13.2389 H        60   C74       0.1928
   1922 H6         12.1984    7.6865   15.2739 H        60   C74       0.1958
   1923 H41        12.2905    7.9215    9.9146 H        60   C74       0.4234
   1924 H42        12.1626    6.4240   10.8098 H        60   C74       0.4234
   1925 HO2'       11.6654   12.7479   15.9891 H        60   C74       0.4186
   1926 P           8.0450    9.9960   17.3870 P.3      61   U75       1.1662
   1927 OP1         7.2520   10.6230   18.4780 O.co2    61   U75      -0.7760
   1928 OP2         7.8480    8.5610   17.0710 O.co2    61   U75      -0.7760
   1929 O5'         7.8160   10.8360   16.0520 O.3      61   U75      -0.4989
   1930 C5'         7.9450   12.2510   16.0580 C.3      61   U75       0.0558
   1931 C4'         7.7050   12.8170   14.6770 C.3      61   U75       0.1065
   1932 O4'         8.8130   12.4450   13.8090 O.3      61   U75      -0.3548
   1933 C3'         6.4790   12.2920   13.9450 C.3      61   U75       0.2022
   1934 O3'         5.2940   12.9800   14.3290 O.3      61   U75      -0.5246
   1935 C2'         6.8430   12.5590   12.4910 C.3      61   U75       0.0670
   1936 O2'         6.6740   13.9140   12.1270 O.3      61   U75      -0.6139
   1937 C1'         8.3340   12.2270   12.4900 C.3      61   U75       0.0674
   1938 N1          8.5770   10.8260   12.1180 N.am     61   U75       0.0418
   1939 C2          8.6770   10.5380   10.7720 C.2      61   U75       0.4687
   1940 O2          8.5850   11.3920    9.9080 O.2      61   U75      -0.5477
   1941 N3          8.8840    9.2150   10.4760 N.am     61   U75      -0.3549
   1942 C4          8.9970    8.1750   11.3690 C.2      61   U75       0.5952
   1943 O4          9.1780    7.0290   10.9480 O.2      61   U75      -0.5761
   1944 C5          8.8880    8.5550   12.7430 C.2      61   U75      -0.3635
   1945 C6          8.6890    9.8380   13.0630 C.2      61   U75      -0.1126
   1946 H5'         8.9508   12.5168   16.3833 H        61   U75       0.0679
   1947 H5''        7.2190   12.6752   16.7516 H        61   U75       0.0679
   1948 H4'         7.6475   13.9037   14.7396 H        61   U75       0.1174
   1949 H3'         6.3665   11.2214   14.1159 H        61   U75       0.0615
   1950 H2'         6.2925   11.8996   11.8200 H        61   U75       0.0972
   1951 H1'         8.8561   12.8864   11.7966 H        61   U75       0.1824
   1952 H3          8.9618    8.9790    9.4971 H        61   U75       0.3154
   1953 H5          8.9661    7.8085   13.5196 H        61   U75       0.1811
   1954 H6          8.6135   10.1069   14.1063 H        61   U75       0.2188
   1955 HO2'        6.8030   14.0101   11.1806 H        61   U75       0.4186
   1956 P           3.8780   12.2210   14.2590 P.3      62   A76       1.1662
   1957 OP1         2.8850   13.0720   14.9630 O.co2    62   A76      -0.7760
   1958 OP2         4.0660   10.8120   14.6820 O.co2    62   A76      -0.7760
   1959 O5'         3.5250   12.2100   12.7070 O.3      62   A76      -0.4989
   1960 C5'         3.3650   13.4290   11.9940 C.3      62   A76       0.0558
   1961 C4'         3.0460   13.1540   10.5430 C.3      62   A76       0.1065
   1962 O4'         4.2590   12.7410    9.8560 O.3      62   A76      -0.3548
   1963 C3'         2.0740   12.0140   10.2860 C.3      62   A76       0.2022
   1964 O3'         0.7240   12.4340   10.4260 O.3      62   A76      -0.5246
   1965 C2'         2.4200   11.6260    8.8540 C.3      62   A76       0.0670
   1966 O2'         1.8880   12.5340    7.9120 O.3      62   A76      -0.6139
   1967 C1'         3.9410   11.7700    8.8680 C.3      62   A76       0.0394
   1968 N9          4.6140   10.5170    9.2080 N.ar     62   A76      -0.0251
   1969 C8          4.9830   10.0600   10.4490 C.ar     62   A76       0.2006
   1970 N7          5.5560    8.8800   10.4290 N.ar     62   A76      -0.6073
   1971 C5          5.5710    8.5390    9.0830 C.ar     62   A76       0.0515
   1972 C6          6.0490    7.4070    8.3960 C.ar     62   A76       0.7009
   1973 N6          6.6330    6.3620    8.9960 N.pl3    62   A76      -0.9019
   1974 N1          5.9070    7.3830    7.0530 N.ar     62   A76      -0.7615
   1975 C2          5.3300    8.4300    6.4500 C.ar     62   A76       0.5875
   1976 N3          4.8460    9.5480    6.9830 N.ar     62   A76      -0.6997
   1977 C4          4.9970    9.5400    8.3190 C.ar     62   A76       0.3053
   1978 H5'         2.5501   14.0003   12.4385 H        62   A76       0.0679
   1979 H5''        4.2869   14.0072   12.0571 H        62   A76       0.0679
   1980 H4'         2.6632   14.0638   10.0806 H        62   A76       0.1174
   1981 H3'         2.2814   11.1837   10.9611 H        62   A76       0.0615
   1982 H2'         2.1186   10.6017    8.6346 H        62   A76       0.0972
   1983 H1'         4.2839   12.1156    7.8928 H        62   A76       0.2007
   1984 H8          4.8169   10.6200   11.3574 H        62   A76       0.1553
   1985 H2          5.2455    8.3558    5.3759 H        62   A76       0.0473
   1986 HO2'        2.4963   12.6241    7.1748 H        62   A76       0.4186
   1987 H61         7.1436    5.7883    8.3400 H        62   A76       0.4115
   1988 H62         6.5704    6.1705    9.9857 H        62   A76       0.4115
   1989 P          -0.3780   11.3930   10.9600 P.3      63   U77       1.1662
   1990 OP1        -1.6300   12.1480   11.2180 O.co2    63   U77      -0.7760
   1991 OP2         0.2220   10.5810   12.0480 O.co2    63   U77      -0.7760
   1992 O5'        -0.6200   10.4290    9.7180 O.3      63   U77      -0.4989
   1993 C5'        -1.1390   10.9390    8.4980 C.3      63   U77       0.0558
   1994 C4'        -1.1720    9.8550    7.4480 C.3      63   U77       0.1065
   1995 O4'         0.1940    9.5310    7.0650 O.3      63   U77      -0.3548
   1996 C3'        -1.7330    8.5200    7.9140 C.3      63   U77       0.2022
   1997 O3'        -3.1540    8.4690    7.8840 O.3      63   U77      -0.5246
   1998 C2'        -1.1070    7.5490    6.9240 C.3      63   U77       0.0670
   1999 O2'        -1.7610    7.5310    5.6710 O.3      63   U77      -0.6139
   2000 C1'         0.2890    8.1490    6.7620 C.3      63   U77       0.0674
   2001 N1          1.2550    7.5160    7.6700 N.am     63   U77       0.0418
   2002 C2          1.9210    6.4060    7.1960 C.2      63   U77       0.4687
   2003 O2          1.7580    5.9720    6.0700 O.2      63   U77      -0.5477
   2004 N3          2.7830    5.8210    8.0880 N.am     63   U77      -0.3549
   2005 C4          3.0430    6.2240    9.3770 C.2      63   U77       0.5952
   2006 O4          3.8430    5.5810   10.0600 O.2      63   U77      -0.5761
   2007 C5          2.3230    7.3920    9.7920 C.2      63   U77      -0.3635
   2008 C6          1.4760    7.9860    8.9420 C.2      63   U77      -0.1126
   2009 H5'        -2.1507   11.3088    8.6646 H        63   U77       0.0679
   2010 H5''       -0.5081   11.7576    8.1517 H        63   U77       0.0679
   2011 H4'        -1.7261   10.2033    6.5764 H        63   U77       0.1174
   2012 H3'        -1.3770    8.3013    8.9208 H        63   U77       0.0615
   2013 H2'        -1.0514    6.5459    7.3469 H        63   U77       0.0972
   2014 H1'         0.6218    8.0241    5.7316 H        63   U77       0.1824
   2015 H3          3.2814    5.0050    7.7627 H        63   U77       0.3154
   2016 H5          2.4631    7.7910   10.7858 H        63   U77       0.1811
   2017 H6          0.9461    8.8685    9.2688 H        63   U77       0.2188
   2018 HO2'       -2.1400    6.6620    5.5198 H        63   U77       0.4186
   2019 P          -3.9180    7.3260    8.7180 P.3      64   G78       1.1662
   2020 OP1        -5.3830    7.5650    8.6170 O.co2    64   G78      -0.7760
   2021 OP2        -3.2790    7.2530   10.0560 O.co2    64   G78      -0.7760
   2022 O5'        -3.5730    5.9800    7.9390 O.3      64   G78      -0.4989
   2023 C5'        -4.1910    5.6900    6.6920 C.3      64   G78       0.0558
   2024 C4'        -3.5510    4.4830    6.0470 C.3      64   G78       0.1065
   2025 O4'        -2.1070    4.6560    6.0220 O.3      64   G78      -0.3548
   2026 C3'        -3.7410    3.1740    6.7970 C.3      64   G78       0.2022
   2027 O3'        -4.9870    2.5680    6.4860 O.3      64   G78      -0.5246
   2028 C2'        -2.5730    2.3410    6.2890 C.3      64   G78       0.0670
   2029 O2'        -2.8100    1.7780    5.0140 O.3      64   G78      -0.6139
   2030 C1'        -1.4740    3.3960    6.1860 C.3      64   G78       0.0191
   2031 N9         -0.6320    3.4300    7.3770 N.ar     64   G78       0.0492
   2032 C8         -0.6100    4.3800    8.3690 C.ar     64   G78       0.1374
   2033 N7          0.2580    4.1160    9.3090 N.ar     64   G78      -0.5709
   2034 C5          0.8440    2.9210    8.9110 C.ar     64   G78       0.1744
   2035 C6          1.8590    2.1380    9.5260 C.2      64   G78       0.4770
   2036 O6          2.4670    2.3530   10.5830 O.2      64   G78      -0.5597
   2037 N1          2.1490    1.0000    8.7800 N.am     64   G78      -0.4787
   2038 C2          1.5460    0.6570    7.5960 C.2      64   G78       0.7657
   2039 N2          1.9620   -0.4820    7.0230 N.pl3    64   G78      -0.9672
   2040 N3          0.6030    1.3770    7.0140 N.2      64   G78      -0.6323
   2041 C4          0.3040    2.4870    7.7210 C.ar     64   G78       0.1222
   2042 H5'        -5.2497    5.4889    6.8556 H        64   G78       0.0679
   2043 H5''       -4.0862    6.5496    6.0300 H        64   G78       0.0679
   2044 H4'        -3.9222    4.3755    5.0278 H        64   G78       0.1174
   2045 H3'        -3.6542    3.3353    7.8715 H        64   G78       0.0615
   2046 H2'        -2.3039    1.5693    7.0102 H        64   G78       0.0972
   2047 H1'        -0.8552    3.1875    5.3132 H        64   G78       0.2006
   2048 H8         -1.2442    5.2541    8.3716 H        64   G78       0.1640
   2049 H1          2.8591    0.3774    9.1380 H        64   G78       0.3424
   2050 H21         2.6824   -1.0355    7.4643 H        64   G78       0.4364
   2051 H22         1.5548   -0.7863    6.1502 H        64   G78       0.4364
   2052 HO2'       -2.5825    0.8455    5.0287 H        64   G78       0.4186
   2053 P          -5.6980    1.6180    7.5690 P.3      65   U79       1.1662
   2054 OP1        -7.1030    1.4030    7.1370 O.co2    65   U79      -0.7760
   2055 OP2        -5.4210    2.1870    8.9120 O.co2    65   U79      -0.7760
   2056 O5'        -4.9160    0.2370    7.4410 O.3      65   U79      -0.4989
   2057 C5'        -4.7840   -0.4080    6.1780 C.3      65   U79       0.0558
   2058 C4'        -3.9980   -1.6880    6.3230 C.3      65   U79       0.1065
   2059 O4'        -2.5880   -1.3680    6.4640 O.3      65   U79      -0.3548
   2060 C3'        -4.3220   -2.5130    7.5580 C.3      65   U79       0.2022
   2061 O3'        -5.4320   -3.3680    7.3070 O.3      65   U79      -0.5246
   2062 C2'        -3.0410   -3.3140    7.7520 C.3      65   U79       0.0670
   2063 O2'        -2.9660   -4.4390    6.9000 O.3      65   U79      -0.6139
   2064 C1'        -1.9770   -2.2900    7.3520 C.3      65   U79       0.0674
   2065 N1         -1.4280   -1.5440    8.4920 N.am     65   U79       0.0418
   2066 C2         -0.3900   -2.1240    9.1950 C.2      65   U79       0.4687
   2067 O2          0.0750   -3.2150    8.9070 O.2      65   U79      -0.5477
   2068 N3          0.0850   -1.3800   10.2470 N.am     65   U79      -0.3549
   2069 C4         -0.3650   -0.1430   10.6580 C.2      65   U79       0.5952
   2070 O4          0.1690    0.4030   11.6260 O.2      65   U79      -0.5761
   2071 C5         -1.4430    0.3890    9.8820 C.2      65   U79      -0.3635
   2072 C6         -1.9250   -0.3120    8.8510 C.2      65   U79      -0.1126
   2073 H5'        -5.7750   -0.6372    5.7862 H        65   U79       0.0679
   2074 H5''       -4.2670    0.2565    5.4857 H        65   U79       0.0679
   2075 H4'        -4.1408   -2.3009    5.4330 H        65   U79       0.1174
   2076 H3'        -4.5126   -1.8696    8.4169 H        65   U79       0.0615
   2077 H2'        -2.9225   -3.6089    8.7946 H        65   U79       0.0972
   2078 H1'        -1.1652   -2.8011    6.8344 H        65   U79       0.1824
   2079 H3          0.8454   -1.7819   10.7764 H        65   U79       0.3154
   2080 H5         -1.8651    1.3521   10.1281 H        65   U79       0.1811
   2081 H6         -2.7381    0.1058    8.2759 H        65   U79       0.2188
   2082 HO2'       -3.5813   -5.1112    7.2019 H        65   U79       0.4186
   2083 P          -6.1950   -4.0680    8.5370 P.3      66   C80       1.1662
   2084 OP1        -7.3290   -4.8530    7.9870 O.co2    66   C80      -0.7760
   2085 OP2        -6.4520   -3.0250    9.5650 O.co2    66   C80      -0.7760
   2086 O5'        -5.1200   -5.0860    9.1240 O.3      66   C80      -0.4989
   2087 C5'        -5.3950   -5.8520   10.2920 C.3      66   C80       0.0558
   2088 C4'        -4.1630   -6.6190   10.7080 C.3      66   C80       0.1065
   2089 O4'        -2.9850   -5.8680   10.3140 O.3      66   C80      -0.3548
   2090 C3'        -3.9880   -6.8550   12.2000 C.3      66   C80       0.2022
   2091 O3'        -4.6820   -8.0230   12.6210 O.3      66   C80      -0.5246
   2092 C2'        -2.4800   -7.0370   12.3130 C.3      66   C80       0.0670
   2093 O2'        -2.0560   -8.3300   11.9310 O.3      66   C80      -0.6139
   2094 C1'        -1.9780   -6.0060   11.3010 C.3      66   C80       0.0066
   2095 N1         -1.7590   -4.6870   11.9130 N.am     66   C80      -0.0484
   2096 C2         -0.6220   -4.4910   12.6990 C.2      66   C80       0.7538
   2097 O2          0.1710   -5.4320   12.8500 O.2      66   C80      -0.6252
   2098 N3         -0.4170   -3.2830   13.2750 N.2      66   C80      -0.7584
   2099 C4         -1.2950   -2.2960   13.0870 C.2      66   C80       0.8185
   2100 N4         -1.0530   -1.1220   13.6760 N.pl3    66   C80      -0.9530
   2101 C5         -2.4620   -2.4690   12.2880 C.2      66   C80      -0.5215
   2102 C6         -2.6520   -3.6680   11.7240 C.2      66   C80       0.0053
   2103 H5'        -5.6940   -5.1839   11.0996 H        66   C80       0.0679
   2104 H5''       -6.2039   -6.5522   10.0834 H        66   C80       0.0679
   2105 H4'        -4.1562   -7.5809   10.1953 H        66   C80       0.1174
   2106 H3'        -4.3155   -5.9852   12.7694 H        66   C80       0.0615
   2107 H2'        -2.1337   -6.7956   13.3179 H        66   C80       0.0972
   2108 H1'        -1.0548   -6.3583   10.8409 H        66   C80       0.2029
   2109 H5         -3.1665   -1.6634   12.1429 H        66   C80       0.1928
   2110 H6         -3.5246   -3.8337   11.1096 H        66   C80       0.1958
   2111 H41        -0.2254   -1.0023   14.2424 H        66   C80       0.4234
   2112 H42        -1.6976   -0.3539   13.5550 H        66   C80       0.4234
   2113 HO2'       -1.0968   -8.3563   11.9005 H        66   C80       0.4186
   2114 P          -5.2920   -8.0910   14.1070 P.3      67   C81       1.1662
   2115 OP1        -6.0140   -9.3800   14.2580 O.co2    67   C81      -0.7760
   2116 OP2        -6.0120   -6.8140   14.3490 O.co2    67   C81      -0.7760
   2117 O5'        -4.0090   -8.1190   15.0520 O.3      67   C81      -0.4989
   2118 C5'        -3.1040   -9.2210   15.0250 C.3      67   C81       0.0558
   2119 C4'        -1.9610   -8.9840   15.9840 C.3      67   C81       0.1065
   2120 O4'        -1.2170   -7.8100   15.5580 O.3      67   C81      -0.3548
   2121 C3'        -2.3720   -8.6580   17.4110 C.3      67   C81       0.2022
   2122 O3'        -2.7570   -9.8000   18.1830 O.3      67   C81      -0.6541
   2123 C2'        -1.1560   -7.9070   17.9340 C.3      67   C81       0.0670
   2124 O2'        -0.1010   -8.7720   18.3050 O.3      67   C81      -0.6139
   2125 C1'        -0.7460   -7.1040   16.6960 C.3      67   C81       0.0066
   2126 N1         -1.3050   -5.7420   16.6670 N.am     67   C81      -0.0484
   2127 C2         -0.6760   -4.7430   17.4160 C.2      67   C81       0.7538
   2128 O2          0.3290   -5.0370   18.0830 O.2      67   C81      -0.6252
   2129 N3         -1.1770   -3.4850   17.3970 N.2      67   C81      -0.7584
   2130 C4         -2.2600   -3.2100   16.6670 C.2      67   C81       0.8185
   2131 N4         -2.7180   -1.9550   16.6770 N.pl3    67   C81      -0.9530
   2132 C5         -2.9220   -4.2100   15.8940 C.2      67   C81      -0.5215
   2133 C6         -2.4150   -5.4510   15.9230 C.2      67   C81       0.0053
   2134 H5'        -3.6339  -10.1285   15.3145 H        67   C81       0.0679
   2135 H5''       -2.7097   -9.3396   14.0158 H        67   C81       0.0679
   2136 H4'        -1.3014   -9.8518   15.9849 H        67   C81       0.1174
   2137 H3'        -3.2141   -7.9668   17.3766 H        67   C81       0.0615
   2138 H2'        -1.4281   -7.2461   18.7569 H        67   C81       0.0972
   2139 H1'         0.3415   -7.0442   16.6537 H        67   C81       0.2029
   2140 H5         -3.7983   -3.9762   15.3077 H        67   C81       0.1928
   2141 H6         -2.8907   -6.2330   15.3498 H        67   C81       0.1958
   2142 H41        -2.2468   -1.2498   17.2254 H        67   C81       0.4234
   2143 H42        -3.5355   -1.7114   16.1361 H        67   C81       0.4234
   2144 HO2'       -0.3574   -9.2757   19.0810 H        67   C81       0.4186
   2145 HO3'       -3.0024   -9.5206   19.0681 H        67   C81       0.4376
@<TRIPOS>BOND
     1    1    2 1
     2    2    3 1
     3    3    5 1
     4    3    4 1
     5    4    9 1
     6    5    7 1
     7    5    6 1
     8    7    9 1
     9    7    8 1
    10    9   10 1
    11   10   20 ar
    12   10   11 ar
    13   11   12 ar
    14   12   13 ar
    15   13   20 ar
    16   13   14 1
    17   14   15 2
    18   14   16 am
    19   16   17 1
    20   17   18 2
    21   17   19 2
    22   19   20 1
    23   33   35 1
    24   33   34 1
    25   33   36 1
    26   36   37 1
    27   37   38 1
    28   38   40 1
    29   38   39 1
    30   39   44 1
    31   40   41 1
    32   40   42 1
    33   42   43 1
    34   42   44 1
    35   44   45 1
    36   45   46 ar
    37   45   55 ar
    38   46   47 ar
    39   47   48 ar
    40   48   55 ar
    41   48   49 1
    42   49   50 2
    43   49   51 am
    44   51   52 1
    45   52   53 2
    46   52   54 2
    47   54   55 1
    48   33    6 1
    49   67   70 1
    50   67   69 1
    51   67   68 1
    52   70   71 1
    53   71   72 1
    54   72   74 1
    55   72   73 1
    56   73   78 1
    57   74   75 1
    58   74   76 1
    59   76   77 1
    60   76   78 1
    61   78   79 1
    62   79   88 ar
    63   79   80 ar
    64   80   81 ar
    65   81   82 ar
    66   82   83 ar
    67   82   88 ar
    68   83   84 1
    69   83   85 ar
    70   85   86 ar
    71   86   87 ar
    72   87   88 ar
    73   41   67 1
    74  100  101 1
    75  100  102 1
    76  100  103 1
    77  103  104 1
    78  104  105 1
    79  105  107 1
    80  105  106 1
    81  106  111 1
    82  107  109 1
    83  107  108 1
    84  109  110 1
    85  109  111 1
    86  111  112 1
    87  112  113 am
    88  112  119 1
    89  113  115 1
    90  113  114 2
    91  115  116 2
    92  116  118 2
    93  116  117 2
    94  118  119 2
    95   75  100 1
    96  131  134 1
    97  131  133 1
    98  131  132 1
    99  134  135 1
   100  135  136 1
   101  136  138 1
   102  136  137 1
   103  137  142 1
   104  138  139 1
   105  138  140 1
   106  140  141 1
   107  140  142 1
   108  142  143 1
   109  143  152 ar
   110  143  144 ar
   111  144  145 ar
   112  145  146 ar
   113  146  147 ar
   114  146  152 ar
   115  147  148 1
   116  147  149 ar
   117  149  150 ar
   118  150  151 ar
   119  151  152 ar
   120  108  131 1
   121  164  165 1
   122  164  166 1
   123  164  167 1
   124  167  168 1
   125  168  169 1
   126  169  171 1
   127  169  170 1
   128  170  175 1
   129  171  173 1
   130  171  172 1
   131  173  174 1
   132  173  175 1
   133  175  176 1
   134  176  177 am
   135  176  183 1
   136  177  178 2
   137  177  179 am
   138  179  180 am
   139  180  182 1
   140  180  181 2
   141  182  183 2
   142  139  164 1
   143  194  197 1
   144  194  196 1
   145  194  195 1
   146  197  198 1
   147  198  199 1
   148  199  201 1
   149  199  200 1
   150  200  205 1
   151  201  202 1
   152  201  203 1
   153  203  204 1
   154  203  205 1
   155  205  206 1
   156  206  215 ar
   157  206  207 ar
   158  207  208 ar
   159  208  209 ar
   160  209  210 ar
   161  209  215 ar
   162  210  211 1
   163  210  212 ar
   164  212  213 ar
   165  213  214 ar
   166  214  215 ar
   167  172  194 1
   168  227  228 1
   169  227  229 1
   170  227  230 1
   171  230  231 1
   172  231  232 1
   173  232  234 1
   174  232  233 1
   175  233  238 1
   176  234  236 1
   177  234  235 1
   178  236  237 1
   179  236  238 1
   180  238  239 1
   181  239  240 am
   182  239  246 1
   183  240  241 2
   184  240  242 am
   185  242  243 am
   186  243  245 1
   187  243  244 2
   188  245  246 2
   189  202  227 1
   190  257  260 1
   191  257  259 1
   192  257  258 1
   193  260  261 1
   194  261  262 1
   195  262  264 1
   196  262  263 1
   197  263  268 1
   198  264  265 1
   199  264  266 1
   200  266  267 1
   201  266  268 1
   202  268  269 1
   203  269  278 ar
   204  269  270 ar
   205  270  271 ar
   206  271  272 ar
   207  272  273 ar
   208  272  278 ar
   209  273  274 1
   210  273  275 ar
   211  275  276 ar
   212  276  277 ar
   213  277  278 ar
   214  235  257 1
   215  290  293 1
   216  290  292 1
   217  290  291 1
   218  293  294 1
   219  294  295 1
   220  295  297 1
   221  295  296 1
   222  296  301 1
   223  297  298 1
   224  297  299 1
   225  299  300 1
   226  299  301 1
   227  301  302 1
   228  302  311 ar
   229  302  303 ar
   230  303  304 ar
   231  304  305 ar
   232  305  306 ar
   233  305  311 ar
   234  306  307 1
   235  306  308 ar
   236  308  309 ar
   237  309  310 ar
   238  310  311 ar
   239  265  290 1
   240  323  324 1
   241  323  325 1
   242  323  326 1
   243  326  327 1
   244  327  328 1
   245  328  330 1
   246  328  329 1
   247  329  334 1
   248  330  332 1
   249  330  331 1
   250  332  333 1
   251  332  334 1
   252  334  335 1
   253  335  336 am
   254  335  342 1
   255  336  337 2
   256  336  338 am
   257  338  339 am
   258  339  341 1
   259  339  340 2
   260  341  342 2
   261  298  323 1
   262  353  354 1
   263  353  355 1
   264  353  356 1
   265  356  357 1
   266  357  358 1
   267  358  360 1
   268  358  359 1
   269  359  364 1
   270  360  362 1
   271  360  361 1
   272  362  363 1
   273  362  364 1
   274  364  365 1
   275  365  366 am
   276  365  372 1
   277  366  368 1
   278  366  367 2
   279  368  369 2
   280  369  371 2
   281  369  370 2
   282  371  372 2
   283  331  353 1
   284  384  386 1
   285  384  385 1
   286  384  387 1
   287  387  388 1
   288  388  389 1
   289  389  391 1
   290  389  390 1
   291  390  395 1
   292  391  392 1
   293  391  393 1
   294  393  394 1
   295  393  395 1
   296  395  396 1
   297  396  397 ar
   298  396  406 ar
   299  397  398 ar
   300  398  399 ar
   301  399  406 ar
   302  399  400 1
   303  400  401 2
   304  400  402 am
   305  402  403 1
   306  403  404 2
   307  403  405 2
   308  405  406 1
   309  361  384 1
   310  418  419 1
   311  418  420 1
   312  418  421 1
   313  421  422 1
   314  422  423 1
   315  423  425 1
   316  423  424 1
   317  424  429 1
   318  425  427 1
   319  425  426 1
   320  427  428 1
   321  427  429 1
   322  429  430 1
   323  430  431 am
   324  430  437 1
   325  431  433 1
   326  431  432 2
   327  433  434 2
   328  434  436 2
   329  434  435 2
   330  436  437 2
   331  392  418 1
   332  449  451 1
   333  449  450 1
   334  449  452 1
   335  452  453 1
   336  453  454 1
   337  454  456 1
   338  454  455 1
   339  455  460 1
   340  456  457 1
   341  456  458 1
   342  458  459 1
   343  458  460 1
   344  460  461 1
   345  461  462 ar
   346  461  471 ar
   347  462  463 ar
   348  463  464 ar
   349  464  471 ar
   350  464  465 1
   351  465  466 2
   352  465  467 am
   353  467  468 1
   354  468  469 2
   355  468  470 2
   356  470  471 1
   357  426  449 1
   358  483  484 1
   359  483  485 1
   360  483  486 1
   361  486  487 1
   362  487  488 1
   363  488  490 1
   364  488  489 1
   365  489  494 1
   366  490  492 1
   367  490  491 1
   368  492  493 1
   369  492  494 1
   370  494  495 1
   371  495  496 am
   372  495  502 1
   373  496  497 2
   374  496  498 am
   375  498  499 am
   376  499  501 1
   377  499  500 2
   378  501  502 2
   379  457  483 1
   380  513  515 1
   381  513  514 1
   382  513  516 1
   383  516  517 1
   384  517  518 1
   385  518  520 1
   386  518  519 1
   387  519  524 1
   388  520  521 1
   389  520  522 1
   390  522  523 1
   391  522  524 1
   392  524  525 1
   393  525  526 ar
   394  525  535 ar
   395  526  527 ar
   396  527  528 ar
   397  528  535 ar
   398  528  529 1
   399  529  530 2
   400  529  531 am
   401  531  532 1
   402  532  533 2
   403  532  534 2
   404  534  535 1
   405  491  513 1
   406  547  549 1
   407  547  548 1
   408  547  550 1
   409  550  551 1
   410  551  552 1
   411  552  554 1
   412  552  553 1
   413  553  558 1
   414  554  555 1
   415  554  556 1
   416  556  557 1
   417  556  558 1
   418  558  559 1
   419  559  560 ar
   420  559  569 ar
   421  560  561 ar
   422  561  562 ar
   423  562  569 ar
   424  562  563 1
   425  563  564 2
   426  563  565 am
   427  565  566 1
   428  566  567 2
   429  566  568 2
   430  568  569 1
   431  521  547 1
   432  581  584 1
   433  581  583 1
   434  581  582 1
   435  584  585 1
   436  585  586 1
   437  586  588 1
   438  586  587 1
   439  587  592 1
   440  588  589 1
   441  588  590 1
   442  590  591 1
   443  590  592 1
   444  592  593 1
   445  593  602 ar
   446  593  594 ar
   447  594  595 ar
   448  595  596 ar
   449  596  597 ar
   450  596  602 ar
   451  597  598 1
   452  597  599 ar
   453  599  600 ar
   454  600  601 ar
   455  601  602 ar
   456  555  581 1
   457  614  615 1
   458  614  616 1
   459  614  617 1
   460  617  618 1
   461  618  619 1
   462  619  621 1
   463  619  620 1
   464  620  625 1
   465  621  623 1
   466  621  622 1
   467  623  624 1
   468  623  625 1
   469  625  626 1
   470  626  627 am
   471  626  633 1
   472  627  628 2
   473  627  629 am
   474  629  630 am
   475  630  632 1
   476  630  631 2
   477  632  633 2
   478  589  614 1
   479  644  647 1
   480  644  646 1
   481  644  645 1
   482  647  648 1
   483  648  649 1
   484  649  651 1
   485  649  650 1
   486  650  655 1
   487  651  652 1
   488  651  653 1
   489  653  654 1
   490  653  655 1
   491  655  656 1
   492  656  665 ar
   493  656  657 ar
   494  657  658 ar
   495  658  659 ar
   496  659  660 ar
   497  659  665 ar
   498  660  661 1
   499  660  662 ar
   500  662  663 ar
   501  663  664 ar
   502  664  665 ar
   503  622  644 1
   504  677  678 1
   505  677  679 1
   506  677  680 1
   507  680  681 1
   508  681  682 1
   509  682  684 1
   510  682  683 1
   511  683  688 1
   512  684  686 1
   513  684  685 1
   514  686  687 1
   515  686  688 1
   516  688  689 1
   517  689  690 am
   518  689  696 1
   519  690  691 2
   520  690  692 am
   521  692  693 am
   522  693  695 1
   523  693  694 2
   524  695  696 2
   525  652  677 1
   526  707  709 1
   527  707  708 1
   528  707  710 1
   529  710  711 1
   530  711  712 1
   531  712  714 1
   532  712  713 1
   533  713  718 1
   534  714  715 1
   535  714  716 1
   536  716  717 1
   537  716  718 1
   538  718  719 1
   539  719  720 ar
   540  719  729 ar
   541  720  721 ar
   542  721  722 ar
   543  722  729 ar
   544  722  723 1
   545  723  724 2
   546  723  725 am
   547  725  726 1
   548  726  727 2
   549  726  728 2
   550  728  729 1
   551  685  707 1
   552  741  743 1
   553  741  742 1
   554  741  744 1
   555  744  745 1
   556  745  746 1
   557  746  748 1
   558  746  747 1
   559  747  752 1
   560  748  749 1
   561  748  750 1
   562  750  751 1
   563  750  752 1
   564  752  753 1
   565  753  754 ar
   566  753  763 ar
   567  754  755 ar
   568  755  756 ar
   569  756  763 ar
   570  756  757 1
   571  757  758 2
   572  757  759 am
   573  759  760 1
   574  760  761 2
   575  760  762 2
   576  762  763 1
   577  715  741 1
   578  775  776 1
   579  775  777 1
   580  775  778 1
   581  778  779 1
   582  779  780 1
   583  780  782 1
   584  780  781 1
   585  781  786 1
   586  782  784 1
   587  782  783 1
   588  784  785 1
   589  784  786 1
   590  786  787 1
   591  787  788 am
   592  787  794 1
   593  788  790 1
   594  788  789 2
   595  790  791 2
   596  791  793 2
   597  791  792 2
   598  793  794 2
   599  749  775 1
   600  806  809 1
   601  806  808 1
   602  806  807 1
   603  809  810 1
   604  810  811 1
   605  811  813 1
   606  811  812 1
   607  812  817 1
   608  813  814 1
   609  813  815 1
   610  815  816 1
   611  815  817 1
   612  817  818 1
   613  818  827 ar
   614  818  819 ar
   615  819  820 ar
   616  820  821 ar
   617  821  822 ar
   618  821  827 ar
   619  822  823 1
   620  822  824 ar
   621  824  825 ar
   622  825  826 ar
   623  826  827 ar
   624  783  806 1
   625  839  840 1
   626  839  841 1
   627  839  842 1
   628  842  843 1
   629  843  844 1
   630  844  846 1
   631  844  845 1
   632  845  850 1
   633  846  848 1
   634  846  847 1
   635  848  849 1
   636  848  850 1
   637  850  851 1
   638  851  852 am
   639  851  858 1
   640  852  854 1
   641  852  853 2
   642  854  855 2
   643  855  857 2
   644  855  856 2
   645  857  858 2
   646  814  839 1
   647  870  872 1
   648  870  871 1
   649  870  873 1
   650  873  874 1
   651  874  875 1
   652  875  877 1
   653  875  876 1
   654  876  881 1
   655  877  878 1
   656  877  879 1
   657  879  880 1
   658  879  881 1
   659  881  882 1
   660  882  883 ar
   661  882  892 ar
   662  883  884 ar
   663  884  885 ar
   664  885  892 ar
   665  885  886 1
   666  886  887 2
   667  886  888 am
   668  888  889 1
   669  889  890 2
   670  889  891 2
   671  891  892 1
   672  847  870 1
   673  904  905 1
   674  904  906 1
   675  904  907 1
   676  907  908 1
   677  908  909 1
   678  909  911 1
   679  909  910 1
   680  910  915 1
   681  911  913 1
   682  911  912 1
   683  913  914 1
   684  913  915 1
   685  915  916 1
   686  916  917 am
   687  916  923 1
   688  917  919 1
   689  917  918 2
   690  919  920 2
   691  920  922 2
   692  920  921 2
   693  922  923 2
   694  878  904 1
   695  935  938 1
   696  935  937 1
   697  935  936 1
   698  938  939 1
   699  939  940 1
   700  940  942 1
   701  940  941 1
   702  941  946 1
   703  942  943 1
   704  942  944 1
   705  944  945 1
   706  944  946 1
   707  946  947 1
   708  947  956 ar
   709  947  948 ar
   710  948  949 ar
   711  949  950 ar
   712  950  951 ar
   713  950  956 ar
   714  951  952 1
   715  951  953 ar
   716  953  954 ar
   717  954  955 ar
   718  955  956 ar
   719  912  935 1
   720  968  971 1
   721  968  970 1
   722  968  969 1
   723  971  972 1
   724  972  973 1
   725  973  975 1
   726  973  974 1
   727  974  979 1
   728  975  976 1
   729  975  977 1
   730  977  978 1
   731  977  979 1
   732  979  980 1
   733  980  989 ar
   734  980  981 ar
   735  981  982 ar
   736  982  983 ar
   737  983  984 ar
   738  983  989 ar
   739  984  985 1
   740  984  986 ar
   741  986  987 ar
   742  987  988 ar
   743  988  989 ar
   744  943  968 1
   745 1001 1003 1
   746 1001 1002 1
   747 1001 1004 1
   748 1004 1005 1
   749 1005 1006 1
   750 1006 1008 1
   751 1006 1007 1
   752 1007 1012 1
   753 1008 1009 1
   754 1008 1010 1
   755 1010 1011 1
   756 1010 1012 1
   757 1012 1013 1
   758 1013 1014 ar
   759 1013 1023 ar
   760 1014 1015 ar
   761 1015 1016 ar
   762 1016 1023 ar
   763 1016 1017 1
   764 1017 1018 2
   765 1017 1019 am
   766 1019 1020 1
   767 1020 1021 2
   768 1020 1022 2
   769 1022 1023 1
   770  976 1001 1
   771 1035 1036 1
   772 1035 1037 1
   773 1035 1038 1
   774 1038 1039 1
   775 1039 1040 1
   776 1040 1042 1
   777 1040 1041 1
   778 1041 1046 1
   779 1042 1044 1
   780 1042 1043 1
   781 1044 1045 1
   782 1044 1046 1
   783 1046 1047 1
   784 1047 1048 am
   785 1047 1054 1
   786 1048 1049 2
   787 1048 1050 am
   788 1050 1051 am
   789 1051 1053 1
   790 1051 1052 2
   791 1053 1054 2
   792 1009 1035 1
   793 1065 1066 1
   794 1065 1067 1
   795 1065 1068 1
   796 1068 1069 1
   797 1069 1070 1
   798 1070 1072 1
   799 1070 1071 1
   800 1071 1076 1
   801 1072 1074 1
   802 1072 1073 1
   803 1074 1075 1
   804 1074 1076 1
   805 1076 1077 1
   806 1077 1078 am
   807 1077 1084 1
   808 1078 1079 2
   809 1078 1080 am
   810 1080 1081 am
   811 1081 1083 1
   812 1081 1082 2
   813 1083 1084 2
   814 1043 1065 1
   815 1095 1096 1
   816 1095 1097 1
   817 1095 1098 1
   818 1098 1099 1
   819 1099 1100 1
   820 1100 1102 1
   821 1100 1101 1
   822 1101 1106 1
   823 1102 1104 1
   824 1102 1103 1
   825 1104 1105 1
   826 1104 1106 1
   827 1106 1107 1
   828 1107 1108 am
   829 1107 1114 1
   830 1108 1109 2
   831 1108 1110 am
   832 1110 1111 am
   833 1111 1113 1
   834 1111 1112 2
   835 1113 1114 2
   836 1073 1095 1
   837 1125 1126 1
   838 1125 1127 1
   839 1125 1128 1
   840 1128 1129 1
   841 1129 1130 1
   842 1130 1132 1
   843 1130 1131 1
   844 1131 1136 1
   845 1132 1134 1
   846 1132 1133 1
   847 1134 1135 1
   848 1134 1136 1
   849 1136 1137 1
   850 1137 1138 am
   851 1137 1144 1
   852 1138 1140 1
   853 1138 1139 2
   854 1140 1141 2
   855 1141 1143 2
   856 1141 1142 2
   857 1143 1144 2
   858 1103 1125 1
   859 1156 1157 1
   860 1156 1158 1
   861 1156 1159 1
   862 1159 1160 1
   863 1160 1161 1
   864 1161 1163 1
   865 1161 1162 1
   866 1162 1167 1
   867 1163 1165 1
   868 1163 1164 1
   869 1165 1166 1
   870 1165 1167 1
   871 1167 1168 1
   872 1168 1169 am
   873 1168 1175 1
   874 1169 1170 2
   875 1169 1171 am
   876 1171 1172 am
   877 1172 1174 1
   878 1172 1173 2
   879 1174 1175 2
   880 1133 1156 1
   881 1186 1189 1
   882 1186 1188 1
   883 1186 1187 1
   884 1189 1190 1
   885 1190 1191 1
   886 1191 1193 1
   887 1191 1192 1
   888 1192 1197 1
   889 1193 1194 1
   890 1193 1195 1
   891 1195 1196 1
   892 1195 1197 1
   893 1197 1198 1
   894 1198 1207 ar
   895 1198 1199 ar
   896 1199 1200 ar
   897 1200 1201 ar
   898 1201 1202 ar
   899 1201 1207 ar
   900 1202 1203 1
   901 1202 1204 ar
   902 1204 1205 ar
   903 1205 1206 ar
   904 1206 1207 ar
   905 1164 1186 1
   906 1219 1220 1
   907 1219 1221 1
   908 1219 1222 1
   909 1222 1223 1
   910 1223 1224 1
   911 1224 1226 1
   912 1224 1225 1
   913 1225 1230 1
   914 1226 1228 1
   915 1226 1227 1
   916 1228 1229 1
   917 1228 1230 1
   918 1230 1231 1
   919 1231 1232 am
   920 1231 1238 1
   921 1232 1234 1
   922 1232 1233 2
   923 1234 1235 2
   924 1235 1237 2
   925 1235 1236 2
   926 1237 1238 2
   927 1194 1219 1
   928 1250 1251 1
   929 1250 1252 1
   930 1250 1253 1
   931 1253 1254 1
   932 1254 1255 1
   933 1255 1257 1
   934 1255 1256 1
   935 1256 1261 1
   936 1257 1259 1
   937 1257 1258 1
   938 1259 1260 1
   939 1259 1261 1
   940 1261 1262 1
   941 1262 1263 am
   942 1262 1269 1
   943 1263 1265 1
   944 1263 1264 2
   945 1265 1266 2
   946 1266 1268 2
   947 1266 1267 2
   948 1268 1269 2
   949 1227 1250 1
   950 1281 1283 1
   951 1281 1282 1
   952 1281 1284 1
   953 1284 1285 1
   954 1285 1286 1
   955 1286 1288 1
   956 1286 1287 1
   957 1287 1292 1
   958 1288 1289 1
   959 1288 1290 1
   960 1290 1291 1
   961 1290 1292 1
   962 1292 1293 1
   963 1293 1294 ar
   964 1293 1303 ar
   965 1294 1295 ar
   966 1295 1296 ar
   967 1296 1303 ar
   968 1296 1297 1
   969 1297 1298 2
   970 1297 1299 am
   971 1299 1300 1
   972 1300 1301 2
   973 1300 1302 2
   974 1302 1303 1
   975 1258 1281 1
   976 1315 1317 1
   977 1315 1316 1
   978 1315 1318 1
   979 1318 1319 1
   980 1319 1320 1
   981 1320 1322 1
   982 1320 1321 1
   983 1321 1326 1
   984 1322 1323 1
   985 1322 1324 1
   986 1324 1325 1
   987 1324 1326 1
   988 1326 1327 1
   989 1327 1328 ar
   990 1327 1337 ar
   991 1328 1329 ar
   992 1329 1330 ar
   993 1330 1337 ar
   994 1330 1331 1
   995 1331 1332 2
   996 1331 1333 am
   997 1333 1334 1
   998 1334 1335 2
   999 1334 1336 2
  1000 1336 1337 1
  1001 1289 1315 1
  1002 1349 1351 1
  1003 1349 1350 1
  1004 1349 1352 1
  1005 1352 1353 1
  1006 1353 1354 1
  1007 1354 1356 1
  1008 1354 1355 1
  1009 1355 1360 1
  1010 1356 1357 1
  1011 1356 1358 1
  1012 1358 1359 1
  1013 1358 1360 1
  1014 1360 1361 1
  1015 1361 1362 ar
  1016 1361 1371 ar
  1017 1362 1363 ar
  1018 1363 1364 ar
  1019 1364 1371 ar
  1020 1364 1365 1
  1021 1365 1366 2
  1022 1365 1367 am
  1023 1367 1368 1
  1024 1368 1369 2
  1025 1368 1370 2
  1026 1370 1371 1
  1027 1323 1349 1
  1028 1383 1384 1
  1029 1383 1385 1
  1030 1383 1386 1
  1031 1386 1387 1
  1032 1387 1388 1
  1033 1388 1390 1
  1034 1388 1389 1
  1035 1389 1394 1
  1036 1390 1392 1
  1037 1390 1391 1
  1038 1392 1393 1
  1039 1392 1394 1
  1040 1394 1395 1
  1041 1395 1396 am
  1042 1395 1402 1
  1043 1396 1398 1
  1044 1396 1397 2
  1045 1398 1399 2
  1046 1399 1401 2
  1047 1399 1400 2
  1048 1401 1402 2
  1049 1357 1383 1
  1050 1414 1417 1
  1051 1414 1416 1
  1052 1414 1415 1
  1053 1417 1418 1
  1054 1418 1419 1
  1055 1419 1421 1
  1056 1419 1420 1
  1057 1420 1425 1
  1058 1421 1422 1
  1059 1421 1423 1
  1060 1423 1424 1
  1061 1423 1425 1
  1062 1425 1426 1
  1063 1426 1435 ar
  1064 1426 1427 ar
  1065 1427 1428 ar
  1066 1428 1429 ar
  1067 1429 1430 ar
  1068 1429 1435 ar
  1069 1430 1431 1
  1070 1430 1432 ar
  1071 1432 1433 ar
  1072 1433 1434 ar
  1073 1434 1435 ar
  1074 1391 1414 1
  1075 1447 1448 1
  1076 1447 1449 1
  1077 1447 1450 1
  1078 1450 1451 1
  1079 1451 1452 1
  1080 1452 1454 1
  1081 1452 1453 1
  1082 1453 1458 1
  1083 1454 1456 1
  1084 1454 1455 1
  1085 1456 1457 1
  1086 1456 1458 1
  1087 1458 1459 1
  1088 1459 1460 am
  1089 1459 1466 1
  1090 1460 1462 1
  1091 1460 1461 2
  1092 1462 1463 2
  1093 1463 1465 2
  1094 1463 1464 2
  1095 1465 1466 2
  1096 1422 1447 1
  1097 1478 1479 1
  1098 1478 1480 1
  1099 1478 1481 1
  1100 1481 1482 1
  1101 1482 1483 1
  1102 1483 1485 1
  1103 1483 1484 1
  1104 1484 1489 1
  1105 1485 1487 1
  1106 1485 1486 1
  1107 1487 1488 1
  1108 1487 1489 1
  1109 1489 1490 1
  1110 1490 1491 am
  1111 1490 1497 1
  1112 1491 1493 1
  1113 1491 1492 2
  1114 1493 1494 2
  1115 1494 1496 2
  1116 1494 1495 2
  1117 1496 1497 2
  1118 1455 1478 1
  1119 1509 1511 1
  1120 1509 1510 1
  1121 1509 1512 1
  1122 1512 1513 1
  1123 1513 1514 1
  1124 1514 1516 1
  1125 1514 1515 1
  1126 1515 1520 1
  1127 1516 1517 1
  1128 1516 1518 1
  1129 1518 1519 1
  1130 1518 1520 1
  1131 1520 1521 1
  1132 1521 1522 ar
  1133 1521 1531 ar
  1134 1522 1523 ar
  1135 1523 1524 ar
  1136 1524 1531 ar
  1137 1524 1525 1
  1138 1525 1526 2
  1139 1525 1527 am
  1140 1527 1528 1
  1141 1528 1529 2
  1142 1528 1530 2
  1143 1530 1531 1
  1144 1486 1509 1
  1145 1543 1544 1
  1146 1543 1545 1
  1147 1543 1546 1
  1148 1546 1547 1
  1149 1547 1548 1
  1150 1548 1550 1
  1151 1548 1549 1
  1152 1549 1554 1
  1153 1550 1552 1
  1154 1550 1551 1
  1155 1552 1553 1
  1156 1552 1554 1
  1157 1554 1555 1
  1158 1555 1556 am
  1159 1555 1562 1
  1160 1556 1557 2
  1161 1556 1558 am
  1162 1558 1559 am
  1163 1559 1561 1
  1164 1559 1560 2
  1165 1561 1562 2
  1166 1517 1543 1
  1167 1573 1576 1
  1168 1573 1575 1
  1169 1573 1574 1
  1170 1576 1577 1
  1171 1577 1578 1
  1172 1578 1580 1
  1173 1578 1579 1
  1174 1579 1584 1
  1175 1580 1581 1
  1176 1580 1582 1
  1177 1582 1583 1
  1178 1582 1584 1
  1179 1584 1585 1
  1180 1585 1594 ar
  1181 1585 1586 ar
  1182 1586 1587 ar
  1183 1587 1588 ar
  1184 1588 1589 ar
  1185 1588 1594 ar
  1186 1589 1590 1
  1187 1589 1591 ar
  1188 1591 1592 ar
  1189 1592 1593 ar
  1190 1593 1594 ar
  1191 1551 1573 1
  1192 1606 1609 1
  1193 1606 1608 1
  1194 1606 1607 1
  1195 1609 1610 1
  1196 1610 1611 1
  1197 1611 1613 1
  1198 1611 1612 1
  1199 1612 1617 1
  1200 1613 1614 1
  1201 1613 1615 1
  1202 1615 1616 1
  1203 1615 1617 1
  1204 1617 1618 1
  1205 1618 1627 ar
  1206 1618 1619 ar
  1207 1619 1620 ar
  1208 1620 1621 ar
  1209 1621 1622 ar
  1210 1621 1627 ar
  1211 1622 1623 1
  1212 1622 1624 ar
  1213 1624 1625 ar
  1214 1625 1626 ar
  1215 1626 1627 ar
  1216 1581 1606 1
  1217 1639 1642 1
  1218 1639 1641 1
  1219 1639 1640 1
  1220 1642 1643 1
  1221 1643 1644 1
  1222 1644 1646 1
  1223 1644 1645 1
  1224 1645 1650 1
  1225 1646 1647 1
  1226 1646 1648 1
  1227 1648 1649 1
  1228 1648 1650 1
  1229 1650 1651 1
  1230 1651 1660 ar
  1231 1651 1652 ar
  1232 1652 1653 ar
  1233 1653 1654 ar
  1234 1654 1655 ar
  1235 1654 1660 ar
  1236 1655 1656 1
  1237 1655 1657 ar
  1238 1657 1658 ar
  1239 1658 1659 ar
  1240 1659 1660 ar
  1241 1614 1639 1
  1242 1672 1673 1
  1243 1672 1674 1
  1244 1672 1675 1
  1245 1675 1676 1
  1246 1676 1677 1
  1247 1677 1679 1
  1248 1677 1678 1
  1249 1678 1683 1
  1250 1679 1681 1
  1251 1679 1680 1
  1252 1681 1682 1
  1253 1681 1683 1
  1254 1683 1684 1
  1255 1684 1685 am
  1256 1684 1691 1
  1257 1685 1686 2
  1258 1685 1687 am
  1259 1687 1688 am
  1260 1688 1690 1
  1261 1688 1689 2
  1262 1690 1691 2
  1263 1647 1672 1
  1264 1702 1704 1
  1265 1702 1703 1
  1266 1702 1705 1
  1267 1705 1706 1
  1268 1706 1707 1
  1269 1707 1709 1
  1270 1707 1708 1
  1271 1708 1713 1
  1272 1709 1710 1
  1273 1709 1711 1
  1274 1711 1712 1
  1275 1711 1713 1
  1276 1713 1714 1
  1277 1714 1715 ar
  1278 1714 1724 ar
  1279 1715 1716 ar
  1280 1716 1717 ar
  1281 1717 1724 ar
  1282 1717 1718 1
  1283 1718 1719 2
  1284 1718 1720 am
  1285 1720 1721 1
  1286 1721 1722 2
  1287 1721 1723 2
  1288 1723 1724 1
  1289 1680 1702 1
  1290 1736 1737 1
  1291 1736 1738 1
  1292 1736 1739 1
  1293 1739 1740 1
  1294 1740 1741 1
  1295 1741 1743 1
  1296 1741 1742 1
  1297 1742 1747 1
  1298 1743 1745 1
  1299 1743 1744 1
  1300 1745 1746 1
  1301 1745 1747 1
  1302 1747 1748 1
  1303 1748 1749 am
  1304 1748 1755 1
  1305 1749 1750 2
  1306 1749 1751 am
  1307 1751 1752 am
  1308 1752 1754 1
  1309 1752 1753 2
  1310 1754 1755 2
  1311 1710 1736 1
  1312 1766 1767 1
  1313 1766 1768 1
  1314 1766 1769 1
  1315 1769 1770 1
  1316 1770 1771 1
  1317 1771 1773 1
  1318 1771 1772 1
  1319 1772 1777 1
  1320 1773 1775 1
  1321 1773 1774 1
  1322 1775 1776 1
  1323 1775 1777 1
  1324 1777 1778 1
  1325 1778 1779 am
  1326 1778 1785 1
  1327 1779 1781 1
  1328 1779 1780 2
  1329 1781 1782 2
  1330 1782 1784 2
  1331 1782 1783 2
  1332 1784 1785 2
  1333 1744 1766 1
  1334 1797 1798 1
  1335 1797 1799 1
  1336 1797 1800 1
  1337 1800 1801 1
  1338 1801 1802 1
  1339 1802 1804 1
  1340 1802 1803 1
  1341 1803 1808 1
  1342 1804 1806 1
  1343 1804 1805 1
  1344 1806 1807 1
  1345 1806 1808 1
  1346 1808 1809 1
  1347 1809 1810 am
  1348 1809 1816 1
  1349 1810 1812 1
  1350 1810 1811 2
  1351 1812 1813 2
  1352 1813 1815 2
  1353 1813 1814 2
  1354 1815 1816 2
  1355 1774 1797 1
  1356 1828 1830 1
  1357 1828 1829 1
  1358 1828 1831 1
  1359 1831 1832 1
  1360 1832 1833 1
  1361 1833 1835 1
  1362 1833 1834 1
  1363 1834 1839 1
  1364 1835 1836 1
  1365 1835 1837 1
  1366 1837 1838 1
  1367 1837 1839 1
  1368 1839 1840 1
  1369 1840 1841 ar
  1370 1840 1850 ar
  1371 1841 1842 ar
  1372 1842 1843 ar
  1373 1843 1850 ar
  1374 1843 1844 1
  1375 1844 1845 2
  1376 1844 1846 am
  1377 1846 1847 1
  1378 1847 1848 2
  1379 1847 1849 2
  1380 1849 1850 1
  1381 1805 1828 1
  1382 1862 1865 1
  1383 1862 1864 1
  1384 1862 1863 1
  1385 1865 1866 1
  1386 1866 1867 1
  1387 1867 1869 1
  1388 1867 1868 1
  1389 1868 1873 1
  1390 1869 1870 1
  1391 1869 1871 1
  1392 1871 1872 1
  1393 1871 1873 1
  1394 1873 1874 1
  1395 1874 1883 ar
  1396 1874 1875 ar
  1397 1875 1876 ar
  1398 1876 1877 ar
  1399 1877 1878 ar
  1400 1877 1883 ar
  1401 1878 1879 1
  1402 1878 1880 ar
  1403 1880 1881 ar
  1404 1881 1882 ar
  1405 1882 1883 ar
  1406 1836 1862 1
  1407 1895 1896 1
  1408 1895 1897 1
  1409 1895 1898 1
  1410 1898 1899 1
  1411 1899 1900 1
  1412 1900 1902 1
  1413 1900 1901 1
  1414 1901 1906 1
  1415 1902 1904 1
  1416 1902 1903 1
  1417 1904 1905 1
  1418 1904 1906 1
  1419 1906 1907 1
  1420 1907 1908 am
  1421 1907 1914 1
  1422 1908 1910 1
  1423 1908 1909 2
  1424 1910 1911 2
  1425 1911 1913 2
  1426 1911 1912 2
  1427 1913 1914 2
  1428 1870 1895 1
  1429 1926 1927 1
  1430 1926 1928 1
  1431 1926 1929 1
  1432 1929 1930 1
  1433 1930 1931 1
  1434 1931 1933 1
  1435 1931 1932 1
  1436 1932 1937 1
  1437 1933 1935 1
  1438 1933 1934 1
  1439 1935 1936 1
  1440 1935 1937 1
  1441 1937 1938 1
  1442 1938 1939 am
  1443 1938 1945 1
  1444 1939 1940 2
  1445 1939 1941 am
  1446 1941 1942 am
  1447 1942 1944 1
  1448 1942 1943 2
  1449 1944 1945 2
  1450 1903 1926 1
  1451 1956 1959 1
  1452 1956 1958 1
  1453 1956 1957 1
  1454 1959 1960 1
  1455 1960 1961 1
  1456 1961 1963 1
  1457 1961 1962 1
  1458 1962 1967 1
  1459 1963 1964 1
  1460 1963 1965 1
  1461 1965 1966 1
  1462 1965 1967 1
  1463 1967 1968 1
  1464 1968 1977 ar
  1465 1968 1969 ar
  1466 1969 1970 ar
  1467 1970 1971 ar
  1468 1971 1972 ar
  1469 1971 1977 ar
  1470 1972 1973 1
  1471 1972 1974 ar
  1472 1974 1975 ar
  1473 1975 1976 ar
  1474 1976 1977 ar
  1475 1934 1956 1
  1476 1989 1990 1
  1477 1989 1991 1
  1478 1989 1992 1
  1479 1992 1993 1
  1480 1993 1994 1
  1481 1994 1996 1
  1482 1994 1995 1
  1483 1995 2000 1
  1484 1996 1998 1
  1485 1996 1997 1
  1486 1998 1999 1
  1487 1998 2000 1
  1488 2000 2001 1
  1489 2001 2002 am
  1490 2001 2008 1
  1491 2002 2003 2
  1492 2002 2004 am
  1493 2004 2005 am
  1494 2005 2007 1
  1495 2005 2006 2
  1496 2007 2008 2
  1497 1964 1989 1
  1498 2019 2021 1
  1499 2019 2020 1
  1500 2019 2022 1
  1501 2022 2023 1
  1502 2023 2024 1
  1503 2024 2026 1
  1504 2024 2025 1
  1505 2025 2030 1
  1506 2026 2027 1
  1507 2026 2028 1
  1508 2028 2029 1
  1509 2028 2030 1
  1510 2030 2031 1
  1511 2031 2032 ar
  1512 2031 2041 ar
  1513 2032 2033 ar
  1514 2033 2034 ar
  1515 2034 2041 ar
  1516 2034 2035 1
  1517 2035 2036 2
  1518 2035 2037 am
  1519 2037 2038 1
  1520 2038 2039 2
  1521 2038 2040 2
  1522 2040 2041 1
  1523 1997 2019 1
  1524 2053 2054 1
  1525 2053 2055 1
  1526 2053 2056 1
  1527 2056 2057 1
  1528 2057 2058 1
  1529 2058 2060 1
  1530 2058 2059 1
  1531 2059 2064 1
  1532 2060 2062 1
  1533 2060 2061 1
  1534 2062 2063 1
  1535 2062 2064 1
  1536 2064 2065 1
  1537 2065 2066 am
  1538 2065 2072 1
  1539 2066 2067 2
  1540 2066 2068 am
  1541 2068 2069 am
  1542 2069 2071 1
  1543 2069 2070 2
  1544 2071 2072 2
  1545 2027 2053 1
  1546 2083 2084 1
  1547 2083 2085 1
  1548 2083 2086 1
  1549 2086 2087 1
  1550 2087 2088 1
  1551 2088 2090 1
  1552 2088 2089 1
  1553 2089 2094 1
  1554 2090 2092 1
  1555 2090 2091 1
  1556 2092 2093 1
  1557 2092 2094 1
  1558 2094 2095 1
  1559 2095 2096 am
  1560 2095 2102 1
  1561 2096 2098 1
  1562 2096 2097 2
  1563 2098 2099 2
  1564 2099 2101 2
  1565 2099 2100 2
  1566 2101 2102 2
  1567 2061 2083 1
  1568 2117 2118 1
  1569 2118 2119 1
  1570 2119 2121 1
  1571 2119 2120 1
  1572 2120 2125 1
  1573 2121 2123 1
  1574 2121 2122 1
  1575 2123 2124 1
  1576 2123 2125 1
  1577 2125 2126 1
  1578 2126 2133 1
  1579 2126 2127 am
  1580 2127 2128 2
  1581 2127 2129 1
  1582 2129 2130 2
  1583 2130 2132 2
  1584 2130 2131 2
  1585 2132 2133 2
  1586 2114 2115 1
  1587 2114 2116 1
  1588 2114 2117 1
  1589 2091 2114 1
  1590   21    2 1
  1591   22    2 1
  1592   23    3 1
  1593   24    5 1
  1594   25    7 1
  1595   26    9 1
  1596   27   11 1
  1597   28   16 1
  1598   56   37 1
  1599   57   37 1
  1600   58   38 1
  1601   59   40 1
  1602   60   42 1
  1603   61   44 1
  1604   62   46 1
  1605   63   51 1
  1606   89   71 1
  1607   90   71 1
  1608   91   72 1
  1609   92   74 1
  1610   93   76 1
  1611   94   78 1
  1612   95   80 1
  1613   96   86 1
  1614  120  104 1
  1615  121  104 1
  1616  122  105 1
  1617  123  107 1
  1618  124  109 1
  1619  125  111 1
  1620  126  118 1
  1621  127  119 1
  1622  153  135 1
  1623  154  135 1
  1624  155  136 1
  1625  156  138 1
  1626  157  140 1
  1627  158  142 1
  1628  159  144 1
  1629  160  150 1
  1630  184  168 1
  1631  185  168 1
  1632  186  169 1
  1633  187  171 1
  1634  188  173 1
  1635  189  175 1
  1636  190  179 1
  1637  191  182 1
  1638  192  183 1
  1639  216  198 1
  1640  217  198 1
  1641  218  199 1
  1642  219  201 1
  1643  220  203 1
  1644  221  205 1
  1645  222  207 1
  1646  223  213 1
  1647  247  231 1
  1648  248  231 1
  1649  249  232 1
  1650  250  234 1
  1651  251  236 1
  1652  252  238 1
  1653  253  242 1
  1654  254  245 1
  1655  255  246 1
  1656  279  261 1
  1657  280  261 1
  1658  281  262 1
  1659  282  264 1
  1660  283  266 1
  1661  284  268 1
  1662  285  270 1
  1663  286  276 1
  1664  312  294 1
  1665  313  294 1
  1666  314  295 1
  1667  315  297 1
  1668  316  299 1
  1669  317  301 1
  1670  318  303 1
  1671  319  309 1
  1672  343  327 1
  1673  344  327 1
  1674  345  328 1
  1675  346  330 1
  1676  347  332 1
  1677  348  334 1
  1678  349  338 1
  1679  350  341 1
  1680  351  342 1
  1681  373  357 1
  1682  374  357 1
  1683  375  358 1
  1684  376  360 1
  1685  377  362 1
  1686  378  364 1
  1687  379  371 1
  1688  380  372 1
  1689  407  388 1
  1690  408  388 1
  1691  409  389 1
  1692  410  391 1
  1693  411  393 1
  1694  412  395 1
  1695  413  397 1
  1696  414  402 1
  1697  438  422 1
  1698  439  422 1
  1699  440  423 1
  1700  441  425 1
  1701  442  427 1
  1702  443  429 1
  1703  444  436 1
  1704  445  437 1
  1705  472  453 1
  1706  473  453 1
  1707  474  454 1
  1708  475  456 1
  1709  476  458 1
  1710  477  460 1
  1711  478  462 1
  1712  479  467 1
  1713  503  487 1
  1714  504  487 1
  1715  505  488 1
  1716  506  490 1
  1717  507  492 1
  1718  508  494 1
  1719  509  498 1
  1720  510  501 1
  1721  511  502 1
  1722  536  517 1
  1723  537  517 1
  1724  538  518 1
  1725  539  520 1
  1726  540  522 1
  1727  541  524 1
  1728  542  526 1
  1729  543  531 1
  1730  570  551 1
  1731  571  551 1
  1732  572  552 1
  1733  573  554 1
  1734  574  556 1
  1735  575  558 1
  1736  576  560 1
  1737  577  565 1
  1738  603  585 1
  1739  604  585 1
  1740  605  586 1
  1741  606  588 1
  1742  607  590 1
  1743  608  592 1
  1744  609  594 1
  1745  610  600 1
  1746  634  618 1
  1747  635  618 1
  1748  636  619 1
  1749  637  621 1
  1750  638  623 1
  1751  639  625 1
  1752  640  629 1
  1753  641  632 1
  1754  642  633 1
  1755  666  648 1
  1756  667  648 1
  1757  668  649 1
  1758  669  651 1
  1759  670  653 1
  1760  671  655 1
  1761  672  657 1
  1762  673  663 1
  1763  697  681 1
  1764  698  681 1
  1765  699  682 1
  1766  700  684 1
  1767  701  686 1
  1768  702  688 1
  1769  703  692 1
  1770  704  695 1
  1771  705  696 1
  1772  730  711 1
  1773  731  711 1
  1774  732  712 1
  1775  733  714 1
  1776  734  716 1
  1777  735  718 1
  1778  736  720 1
  1779  737  725 1
  1780  764  745 1
  1781  765  745 1
  1782  766  746 1
  1783  767  748 1
  1784  768  750 1
  1785  769  752 1
  1786  770  754 1
  1787  771  759 1
  1788  795  779 1
  1789  796  779 1
  1790  797  780 1
  1791  798  782 1
  1792  799  784 1
  1793  800  786 1
  1794  801  793 1
  1795  802  794 1
  1796  828  810 1
  1797  829  810 1
  1798  830  811 1
  1799  831  813 1
  1800  832  815 1
  1801  833  817 1
  1802  834  819 1
  1803  835  825 1
  1804  859  843 1
  1805  860  843 1
  1806  861  844 1
  1807  862  846 1
  1808  863  848 1
  1809  864  850 1
  1810  865  857 1
  1811  866  858 1
  1812  893  874 1
  1813  894  874 1
  1814  895  875 1
  1815  896  877 1
  1816  897  879 1
  1817  898  881 1
  1818  899  883 1
  1819  900  888 1
  1820  924  908 1
  1821  925  908 1
  1822  926  909 1
  1823  927  911 1
  1824  928  913 1
  1825  929  915 1
  1826  930  922 1
  1827  931  923 1
  1828  957  939 1
  1829  958  939 1
  1830  959  940 1
  1831  960  942 1
  1832  961  944 1
  1833  962  946 1
  1834  963  948 1
  1835  964  954 1
  1836  990  972 1
  1837  991  972 1
  1838  992  973 1
  1839  993  975 1
  1840  994  977 1
  1841  995  979 1
  1842  996  981 1
  1843  997  987 1
  1844 1024 1005 1
  1845 1025 1005 1
  1846 1026 1006 1
  1847 1027 1008 1
  1848 1028 1010 1
  1849 1029 1012 1
  1850 1030 1014 1
  1851 1031 1019 1
  1852 1055 1039 1
  1853 1056 1039 1
  1854 1057 1040 1
  1855 1058 1042 1
  1856 1059 1044 1
  1857 1060 1046 1
  1858 1061 1050 1
  1859 1062 1053 1
  1860 1063 1054 1
  1861 1085 1069 1
  1862 1086 1069 1
  1863 1087 1070 1
  1864 1088 1072 1
  1865 1089 1074 1
  1866 1090 1076 1
  1867 1091 1080 1
  1868 1092 1083 1
  1869 1093 1084 1
  1870 1115 1099 1
  1871 1116 1099 1
  1872 1117 1100 1
  1873 1118 1102 1
  1874 1119 1104 1
  1875 1120 1106 1
  1876 1121 1110 1
  1877 1122 1113 1
  1878 1123 1114 1
  1879 1145 1129 1
  1880 1146 1129 1
  1881 1147 1130 1
  1882 1148 1132 1
  1883 1149 1134 1
  1884 1150 1136 1
  1885 1151 1143 1
  1886 1152 1144 1
  1887 1176 1160 1
  1888 1177 1160 1
  1889 1178 1161 1
  1890 1179 1163 1
  1891 1180 1165 1
  1892 1181 1167 1
  1893 1182 1171 1
  1894 1183 1174 1
  1895 1184 1175 1
  1896 1208 1190 1
  1897 1209 1190 1
  1898 1210 1191 1
  1899 1211 1193 1
  1900 1212 1195 1
  1901 1213 1197 1
  1902 1214 1199 1
  1903 1215 1205 1
  1904 1239 1223 1
  1905 1240 1223 1
  1906 1241 1224 1
  1907 1242 1226 1
  1908 1243 1228 1
  1909 1244 1230 1
  1910 1245 1237 1
  1911 1246 1238 1
  1912 1270 1254 1
  1913 1271 1254 1
  1914 1272 1255 1
  1915 1273 1257 1
  1916 1274 1259 1
  1917 1275 1261 1
  1918 1276 1268 1
  1919 1277 1269 1
  1920 1304 1285 1
  1921 1305 1285 1
  1922 1306 1286 1
  1923 1307 1288 1
  1924 1308 1290 1
  1925 1309 1292 1
  1926 1310 1294 1
  1927 1311 1299 1
  1928 1338 1319 1
  1929 1339 1319 1
  1930 1340 1320 1
  1931 1341 1322 1
  1932 1342 1324 1
  1933 1343 1326 1
  1934 1344 1328 1
  1935 1345 1333 1
  1936 1372 1353 1
  1937 1373 1353 1
  1938 1374 1354 1
  1939 1375 1356 1
  1940 1376 1358 1
  1941 1377 1360 1
  1942 1378 1362 1
  1943 1379 1367 1
  1944 1403 1387 1
  1945 1404 1387 1
  1946 1405 1388 1
  1947 1406 1390 1
  1948 1407 1392 1
  1949 1408 1394 1
  1950 1409 1401 1
  1951 1410 1402 1
  1952 1436 1418 1
  1953 1437 1418 1
  1954 1438 1419 1
  1955 1439 1421 1
  1956 1440 1423 1
  1957 1441 1425 1
  1958 1442 1427 1
  1959 1443 1433 1
  1960 1467 1451 1
  1961 1468 1451 1
  1962 1469 1452 1
  1963 1470 1454 1
  1964 1471 1456 1
  1965 1472 1458 1
  1966 1473 1465 1
  1967 1474 1466 1
  1968 1498 1482 1
  1969 1499 1482 1
  1970 1500 1483 1
  1971 1501 1485 1
  1972 1502 1487 1
  1973 1503 1489 1
  1974 1504 1496 1
  1975 1505 1497 1
  1976 1532 1513 1
  1977 1533 1513 1
  1978 1534 1514 1
  1979 1535 1516 1
  1980 1536 1518 1
  1981 1537 1520 1
  1982 1538 1522 1
  1983 1539 1527 1
  1984 1563 1547 1
  1985 1564 1547 1
  1986 1565 1548 1
  1987 1566 1550 1
  1988 1567 1552 1
  1989 1568 1554 1
  1990 1569 1558 1
  1991 1570 1561 1
  1992 1571 1562 1
  1993 1595 1577 1
  1994 1596 1577 1
  1995 1597 1578 1
  1996 1598 1580 1
  1997 1599 1582 1
  1998 1600 1584 1
  1999 1601 1586 1
  2000 1602 1592 1
  2001 1628 1610 1
  2002 1629 1610 1
  2003 1630 1611 1
  2004 1631 1613 1
  2005 1632 1615 1
  2006 1633 1617 1
  2007 1634 1619 1
  2008 1635 1625 1
  2009 1661 1643 1
  2010 1662 1643 1
  2011 1663 1644 1
  2012 1664 1646 1
  2013 1665 1648 1
  2014 1666 1650 1
  2015 1667 1652 1
  2016 1668 1658 1
  2017 1692 1676 1
  2018 1693 1676 1
  2019 1694 1677 1
  2020 1695 1679 1
  2021 1696 1681 1
  2022 1697 1683 1
  2023 1698 1687 1
  2024 1699 1690 1
  2025 1700 1691 1
  2026 1725 1706 1
  2027 1726 1706 1
  2028 1727 1707 1
  2029 1728 1709 1
  2030 1729 1711 1
  2031 1730 1713 1
  2032 1731 1715 1
  2033 1732 1720 1
  2034 1756 1740 1
  2035 1757 1740 1
  2036 1758 1741 1
  2037 1759 1743 1
  2038 1760 1745 1
  2039 1761 1747 1
  2040 1762 1751 1
  2041 1763 1754 1
  2042 1764 1755 1
  2043 1786 1770 1
  2044 1787 1770 1
  2045 1788 1771 1
  2046 1789 1773 1
  2047 1790 1775 1
  2048 1791 1777 1
  2049 1792 1784 1
  2050 1793 1785 1
  2051 1817 1801 1
  2052 1818 1801 1
  2053 1819 1802 1
  2054 1820 1804 1
  2055 1821 1806 1
  2056 1822 1808 1
  2057 1823 1815 1
  2058 1824 1816 1
  2059 1851 1832 1
  2060 1852 1832 1
  2061 1853 1833 1
  2062 1854 1835 1
  2063 1855 1837 1
  2064 1856 1839 1
  2065 1857 1841 1
  2066 1858 1846 1
  2067 1884 1866 1
  2068 1885 1866 1
  2069 1886 1867 1
  2070 1887 1869 1
  2071 1888 1871 1
  2072 1889 1873 1
  2073 1890 1875 1
  2074 1891 1881 1
  2075 1915 1899 1
  2076 1916 1899 1
  2077 1917 1900 1
  2078 1918 1902 1
  2079 1919 1904 1
  2080 1920 1906 1
  2081 1921 1913 1
  2082 1922 1914 1
  2083 1946 1930 1
  2084 1947 1930 1
  2085 1948 1931 1
  2086 1949 1933 1
  2087 1950 1935 1
  2088 1951 1937 1
  2089 1952 1941 1
  2090 1953 1944 1
  2091 1954 1945 1
  2092 1978 1960 1
  2093 1979 1960 1
  2094 1980 1961 1
  2095 1981 1963 1
  2096 1982 1965 1
  2097 1983 1967 1
  2098 1984 1969 1
  2099 1985 1975 1
  2100 2009 1993 1
  2101 2010 1993 1
  2102 2011 1994 1
  2103 2012 1996 1
  2104 2013 1998 1
  2105 2014 2000 1
  2106 2015 2004 1
  2107 2016 2007 1
  2108 2017 2008 1
  2109 2042 2023 1
  2110 2043 2023 1
  2111 2044 2024 1
  2112 2045 2026 1
  2113 2046 2028 1
  2114 2047 2030 1
  2115 2048 2032 1
  2116 2049 2037 1
  2117 2073 2057 1
  2118 2074 2057 1
  2119 2075 2058 1
  2120 2076 2060 1
  2121 2077 2062 1
  2122 2078 2064 1
  2123 2079 2068 1
  2124 2080 2071 1
  2125 2081 2072 1
  2126 2103 2087 1
  2127 2104 2087 1
  2128 2105 2088 1
  2129 2106 2090 1
  2130 2107 2092 1
  2131 2108 2094 1
  2132 2109 2101 1
  2133 2110 2102 1
  2134 2134 2118 1
  2135 2135 2118 1
  2136 2136 2119 1
  2137 2137 2121 1
  2138 2138 2123 1
  2139 2139 2125 1
  2140 2140 2132 1
  2141 2141 2133 1
  2142   29   18 1
  2143   30   18 1
  2144   64   53 1
  2145   65   53 1
  2146  128  117 1
  2147  129  117 1
  2148  381  370 1
  2149  382  370 1
  2150  415  404 1
  2151  416  404 1
  2152  446  435 1
  2153  447  435 1
  2154  480  469 1
  2155  481  469 1
  2156  544  533 1
  2157  545  533 1
  2158  578  567 1
  2159  579  567 1
  2160  738  727 1
  2161  739  727 1
  2162  772  761 1
  2163  773  761 1
  2164  803  792 1
  2165  804  792 1
  2166  867  856 1
  2167  868  856 1
  2168  901  890 1
  2169  902  890 1
  2170  932  921 1
  2171  933  921 1
  2172 1032 1021 1
  2173 1033 1021 1
  2174 1153 1142 1
  2175 1154 1142 1
  2176 1247 1236 1
  2177 1248 1236 1
  2178 1278 1267 1
  2179 1279 1267 1
  2180 1312 1301 1
  2181 1313 1301 1
  2182 1346 1335 1
  2183 1347 1335 1
  2184 1380 1369 1
  2185 1381 1369 1
  2186 1411 1400 1
  2187 1412 1400 1
  2188 1475 1464 1
  2189 1476 1464 1
  2190 1506 1495 1
  2191 1507 1495 1
  2192 1540 1529 1
  2193 1541 1529 1
  2194 1733 1722 1
  2195 1734 1722 1
  2196 1794 1783 1
  2197 1795 1783 1
  2198 1825 1814 1
  2199 1826 1814 1
  2200 1859 1848 1
  2201 1860 1848 1
  2202 1923 1912 1
  2203 1924 1912 1
  2204 2050 2039 1
  2205 2051 2039 1
  2206 2111 2100 1
  2207 2112 2100 1
  2208 2142 2131 1
  2209 2143 2131 1
  2210 1124 1105 1
  2211  643  624 1
  2212  224  204 1
  2213 1508 1488 1
  2214  740  717 1
  2215  611  591 1
  2216 1955 1936 1
  2217 1064 1045 1
  2218 2018 1999 1
  2219 1603 1583 1
  2220 1477 1457 1
  2221 2082 2063 1
  2222 1986 1966 1
  2223 1765 1746 1
  2224  512  493 1
  2225 1796 1776 1
  2226  161  141 1
  2227 1735 1712 1
  2228 1314 1291 1
  2229 1216 1196 1
  2230  836  816 1
  2231  934  914 1
  2232   66   43 1
  2233 1249 1229 1
  2234 1444 1431 1
  2235 1445 1431 1
  2236 1636 1623 1
  2237 1637 1623 1
  2238  225  211 1
  2239  226  211 1
  2240   97   84 1
  2241   98   84 1
  2242  998  985 1
  2243  999  985 1
  2244  612  598 1
  2245  613  598 1
  2246  287  274 1
  2247  288  274 1
  2248 1604 1590 1
  2249 1605 1590 1
  2250 1892 1879 1
  2251 1893 1879 1
  2252  837  823 1
  2253  838  823 1
  2254  162  148 1
  2255  163  148 1
  2256  674  661 1
  2257  675  661 1
  2258 1217 1203 1
  2259 1218 1203 1
  2260 1669 1656 1
  2261 1670 1656 1
  2262  965  952 1
  2263  966  952 1
  2264 1987 1973 1
  2265 1988 1973 1
  2266  320  307 1
  2267  321  307 1
  2268  676  654 1
  2269  322  300 1
  2270 1034 1011 1
  2271 1382 1359 1
  2272 2144 2124 1
  2273 2145 2122 1
  2274 1413 1393 1
  2275   31    1 1
  2276 1446 1424 1
  2277   99   77 1
  2278  130  110 1
  2279 1094 1075 1
  2280  289  267 1
  2281  546  523 1
  2282  774  751 1
  2283 1542 1519 1
  2284  482  459 1
  2285 1701 1682 1
  2286 1861 1838 1
  2287  193  174 1
  2288  352  333 1
  2289 1572 1553 1
  2290  967  945 1
  2291 1280 1260 1
  2292 1894 1872 1
  2293   32    8 1
  2294 2052 2029 1
  2295  383  363 1
  2296  805  785 1
  2297 1000  978 1
  2298 1925 1905 1
  2299 1155 1135 1
  2300  706  687 1
  2301  256  237 1
  2302  417  394 1
  2303  869  849 1
  2304 1638 1616 1
  2305  580  557 1
  2306 1185 1166 1
  2307 1348 1325 1
  2308 2113 2093 1
  2309  903  880 1
  2310  448  428 1
  2311 1671 1649 1
  2312 1827 1807 1
@<TRIPOS>SUBSTRUCTURE
     1   G15       3 RESIDUE           4 A       G     1 ROOT
     2   G16      38 RESIDUE           4 A       G     2
     3   A17      72 RESIDUE           4 A       A     2
     4   C18     105 RESIDUE           4 A       C     2
     5   A19     136 RESIDUE           4 A       A     2
     6   U20     169 RESIDUE           4 A       U     2
     7   A21     199 RESIDUE           4 A       A     2
     8   U22     232 RESIDUE           4 A       U     2
     9   A23     262 RESIDUE           4 A       A     2
    10   A24     295 RESIDUE           4 A       A     2
    11   U25     328 RESIDUE           4 A       U     2
    12   C26     358 RESIDUE           4 A       C     2
    13   G27     389 RESIDUE           4 A       G     2
    14   C28     423 RESIDUE           4 A       C     2
    15   G29     454 RESIDUE           4 A       G     2
    16   U30     488 RESIDUE           4 A       U     2
    17   G31     518 RESIDUE           4 A       G     2
    18   G32     552 RESIDUE           4 A       G     2
    19   A33     586 RESIDUE           4 A       A     2
    20   U34     619 RESIDUE           4 A       U     2
    21   A35     649 RESIDUE           4 A       A     2
    22   U36     682 RESIDUE           4 A       U     2
    23   G37     712 RESIDUE           4 A       G     2
    24   G38     746 RESIDUE           4 A       G     2
    25   C39     780 RESIDUE           4 A       C     2
    26   A40     811 RESIDUE           4 A       A     2
    27   C41     844 RESIDUE           4 A       C     2
    28   G42     875 RESIDUE           4 A       G     2
    29   C43     909 RESIDUE           4 A       C     2
    30   A44     940 RESIDUE           4 A       A     2
    31   A45     973 RESIDUE           4 A       A     2
    32   G46    1006 RESIDUE           4 A       G     2
    33   U47    1040 RESIDUE           4 A       U     2
    34   U48    1070 RESIDUE           4 A       U     2
    35   U49    1100 RESIDUE           4 A       U     2
    36   C50    1130 RESIDUE           4 A       C     2
    37   U51    1161 RESIDUE           4 A       U     2
    38   A52    1191 RESIDUE           4 A       A     2
    39   C53    1224 RESIDUE           4 A       C     2
    40   C54    1255 RESIDUE           4 A       C     2
    41   G55    1286 RESIDUE           4 A       G     2
    42   G56    1320 RESIDUE           4 A       G     2
    43   G57    1354 RESIDUE           4 A       G     2
    44   C58    1388 RESIDUE           4 A       C     2
    45   A59    1419 RESIDUE           4 A       A     2
    46   C60    1452 RESIDUE           4 A       C     2
    47   C61    1483 RESIDUE           4 A       C     2
    48   G62    1514 RESIDUE           4 A       G     2
    49   U63    1548 RESIDUE           4 A       U     2
    50   A64    1578 RESIDUE           4 A       A     2
    51   A65    1611 RESIDUE           4 A       A     2
    52   A66    1644 RESIDUE           4 A       A     2
    53   U67    1677 RESIDUE           4 A       U     2
    54   G68    1707 RESIDUE           4 A       G     2
    55   U69    1741 RESIDUE           4 A       U     2
    56   C70    1771 RESIDUE           4 A       C     2
    57   C71    1802 RESIDUE           4 A       C     2
    58   G72    1833 RESIDUE           4 A       G     2
    59   A73    1867 RESIDUE           4 A       A     2
    60   C74    1900 RESIDUE           4 A       C     2
    61   U75    1931 RESIDUE           4 A       U     2
    62   A76    1961 RESIDUE           4 A       A     2
    63   U77    1994 RESIDUE           4 A       U     2
    64   G78    2024 RESIDUE           4 A       G     2
    65   U79    2058 RESIDUE           4 A       U     2
    66   C80    2088 RESIDUE           4 A       C     2
    67   C81    2119 RESIDUE           4 A       C     1
