@<TRIPOS>MOLECULE
1UUI.pdb
930 1001 29 0 0
NUCLEIC_ACID
AMBER ff14SB


@<TRIPOS>ATOM
      1 O5'       -23.6140   -9.8000    8.0240 O.3       1   G17      -0.6223
      2 C5'       -24.4090  -10.1240    6.8750 C.3       1   G17       0.0558
      3 C4'       -25.8670   -9.7280    7.0490 C.3       1   G17       0.1065
      4 O4'       -26.5010  -10.4970    8.0780 O.3       1   G17      -0.3548
      5 C3'       -25.9930   -8.2730    7.4740 C.3       1   G17       0.2022
      6 O3'       -26.1850   -7.4800    6.2970 O.3       1   G17      -0.5246
      7 C2'       -27.2710   -8.2680    8.2910 C.3       1   G17       0.0670
      8 O2'       -28.4290   -8.1480    7.4570 O.3       1   G17      -0.6139
      9 C1'       -27.2100   -9.6280    8.9760 C.3       1   G17       0.0191
     10 N9        -26.5170   -9.5420   10.2760 N.ar      1   G17       0.0492
     11 C8        -25.3480  -10.1050   10.6680 C.ar      1   G17       0.1374
     12 N7        -24.9520   -9.8860   11.8770 N.ar      1   G17      -0.5709
     13 C5        -25.9780   -9.0730   12.3700 C.ar      1   G17       0.1744
     14 C6        -26.1360   -8.4880   13.6560 C.2       1   G17       0.4770
     15 O6        -25.4010   -8.5750   14.6200 O.2       1   G17      -0.5597
     16 N1        -27.3060   -7.7440   13.7360 N.am      1   G17      -0.4787
     17 C2        -28.2150   -7.5780   12.7100 C.2       1   G17       0.7657
     18 N2        -29.2790   -6.8220   12.9820 N.pl3     1   G17      -0.9672
     19 N3        -28.0750   -8.1260   11.4970 N.2       1   G17      -0.6323
     20 C4        -26.9410   -8.8570   11.3950 C.ar      1   G17       0.1222
     21 H5'       -24.3910  -11.1930    6.7150 H         1   G17       0.0679
     22 H5''      -23.9820   -9.6120    6.0000 H         1   G17       0.0679
     23 H4'       -26.3980   -9.8800    6.1100 H         1   G17       0.1174
     24 H3'       -25.1340   -7.9430    8.0590 H         1   G17       0.0615
     25 H2'       -27.2400   -7.4720    9.0380 H         1   G17       0.0972
     26 HO2'      -28.1490   -8.3140    6.5540 H         1   G17       0.4186
     27 H1'       -28.2220  -10.0060    9.1260 H         1   G17       0.2006
     28 H8        -24.7610  -10.7210    9.9860 H         1   G17       0.1640
     29 H1        -27.4880   -7.2980   14.6230 H         1   G17       0.3424
     30 H21       -29.3840   -6.4090   13.8980 H         1   G17       0.4364
     31 H22       -29.9800   -6.6620   12.2730 H         1   G17       0.4364
     32 HO5'      -22.8530   -9.3030    7.7140 H         1   G17       0.4295
     33 P         -25.6650   -5.9550    6.2330 P.3       2   G18       1.1662
     34 OP1       -25.8510   -5.4610    4.8500 O.co2     2   G18      -0.7760
     35 OP2       -24.3270   -5.8970    6.8630 O.co2     2   G18      -0.7760
     36 O5'       -26.7050   -5.1810    7.1880 O.3       2   G18      -0.4989
     37 C5'       -27.9420   -4.6880    6.6540 C.3       2   G18       0.0558
     38 C4'       -28.6970   -3.8030    7.6360 C.3       2   G18       0.1065
     39 O4'       -29.0190   -4.5160    8.8340 O.3       2   G18      -0.3548
     40 C3'       -27.8540   -2.6170    8.0780 C.3       2   G18       0.2022
     41 O3'       -28.1520   -1.5050    7.2300 O.3       2   G18      -0.5246
     42 C2'       -28.3910   -2.3210    9.4640 C.3       2   G18       0.0670
     43 O2'       -29.5660   -1.5020    9.4100 O.3       2   G18      -0.6139
     44 C1'       -28.7040   -3.7160    9.9870 C.3       2   G18       0.0191
     45 N9        -27.5480   -4.2690   10.7140 N.ar      2   G18       0.0492
     46 C8        -26.6290   -5.1800   10.3100 C.ar      2   G18       0.1374
     47 N7        -25.6980   -5.5020   11.1430 N.ar      2   G18      -0.5709
     48 C5        -26.0220   -4.7120   12.2500 C.ar      2   G18       0.1744
     49 C6        -25.3750   -4.6030   13.5100 C.2       2   G18       0.4770
     50 O6        -24.3830   -5.1850   13.9010 O.2       2   G18      -0.5597
     51 N1        -26.0220   -3.6940   14.3370 N.am      2   G18      -0.4787
     52 C2        -27.1520   -2.9750   14.0000 C.2       2   G18       0.7657
     53 N2        -27.6240   -2.1480   14.9320 N.pl3     2   G18      -0.9672
     54 N3        -27.7670   -3.0720   12.8170 N.2       2   G18      -0.6323
     55 C4        -27.1540   -3.9530   11.9940 C.ar      2   G18       0.1222
     56 H5'       -28.5900   -5.5220    6.4220 H         2   G18       0.0679
     57 H5''      -27.7230   -4.1250    5.7350 H         2   G18       0.0679
     58 H4'       -29.6160   -3.4460    7.1730 H         2   G18       0.1174
     59 H3'       -26.7890   -2.8540    8.0930 H         2   G18       0.0615
     60 H2'       -27.6160   -1.8550   10.0780 H         2   G18       0.0972
     61 HO2'      -29.9700   -1.5250   10.2800 H         2   G18       0.4186
     62 H1'       -29.5680   -3.6740   10.6510 H         2   G18       0.2006
     63 H8        -26.6690   -5.6150    9.3130 H         2   G18       0.1640
     64 H1        -25.6200   -3.5650   15.2530 H         2   G18       0.3424
     65 H21       -27.1590   -2.0750   15.8260 H         2   G18       0.4364
     66 H22       -28.4480   -1.5940   14.7450 H         2   G18       0.4364
     67 P         -27.0300   -0.3910    6.9220 P.3       3   C19       1.1662
     68 OP1       -27.5780    0.5540    5.9240 O.co2     3   C19      -0.7760
     69 OP2       -25.7500   -1.0840    6.6580 O.co2     3   C19      -0.7760
     70 O5'       -26.9050    0.3800    8.3310 O.3       3   C19      -0.4989
     71 C5'       -27.8930    1.3360    8.7230 C.3       3   C19       0.0558
     72 C4'       -27.6000    1.9170   10.1040 C.3       3   C19       0.1065
     73 O4'       -27.5750    0.8990   11.1070 O.3       3   C19      -0.3548
     74 C3'       -26.2250    2.5590   10.1520 C.3       3   C19       0.2022
     75 O3'       -26.3520    3.9380    9.7950 O.3       3   C19      -0.5246
     76 C2'       -25.8680    2.4770   11.6250 C.3       3   C19       0.0670
     77 O2'       -26.3910    3.5920   12.3550 O.3       3   C19      -0.6139
     78 C1'       -26.5280    1.1680   12.0550 C.3       3   C19       0.0066
     79 N1        -25.5420    0.0690   12.0840 N.am      3   C19      -0.0484
     80 C2        -24.7620   -0.0670   13.2250 C.2       3   C19       0.7538
     81 O2        -24.9010    0.7010   14.1580 O.2       3   C19      -0.6252
     82 N3        -23.8470   -1.0740   13.2640 N.2       3   C19      -0.7584
     83 C4        -23.7000   -1.9120   12.2290 C.2       3   C19       0.8185
     84 N4        -22.7910   -2.8840   12.3010 N.pl3     3   C19      -0.9530
     85 C5        -24.5010   -1.7750   11.0520 C.2       3   C19      -0.5215
     86 C6        -25.4050   -0.7760   11.0220 C.2       3   C19       0.0053
     87 H5'       -27.9120    2.1460    7.9940 H         3   C19       0.0679
     88 H5''      -28.8690    0.8510    8.7420 H         3   C19       0.0679
     89 H4'       -28.3580    2.6560   10.3590 H         3   C19       0.1174
     90 H3'       -25.5050    2.0330    9.5260 H         3   C19       0.0615
     91 H2'       -24.7840    2.4060   11.7440 H         3   C19       0.0972
     92 HO2'      -27.2080    3.3040   12.7690 H         3   C19       0.4186
     93 H1'       -26.9610    1.2910   13.0480 H         3   C19       0.2029
     94 H41       -22.2250   -2.9840   13.1300 H         3   C19       0.4234
     95 H42       -22.6690   -3.5200   11.5270 H         3   C19       0.4234
     96 H5        -24.3830   -2.4540   10.2080 H         3   C19       0.1928
     97 H6        -26.0320   -0.6420   10.1410 H         3   C19       0.1958
     98 P         -25.0940    4.7440    9.1930 P.3       4   A20       1.1662
     99 OP1       -25.5220    6.1350    8.9220 O.co2     4   A20      -0.7760
    100 OP2       -24.5000    3.9300    8.1080 O.co2     4   A20      -0.7760
    101 O5'       -24.0620    4.7650   10.4290 O.3       4   A20      -0.4989
    102 C5'       -24.3500    5.5340   11.5990 C.3       4   A20       0.0558
    103 C4'       -23.3380    5.2740   12.7110 C.3       4   A20       0.1065
    104 O4'       -23.3170    3.9030   13.0870 O.3       4   A20      -0.3548
    105 C3'       -21.9230    5.5710   12.2540 C.3       4   A20       0.2022
    106 O3'       -21.6340    6.9420   12.5460 O.3       4   A20      -0.5246
    107 C2'       -21.0660    4.6960   13.1620 C.3       4   A20       0.0670
    108 O2'       -20.6070    5.4270   14.3050 O.3       4   A20      -0.6139
    109 C1'       -22.0110    3.5600   13.5710 C.3       4   A20       0.0394
    110 N9        -21.5610    2.2730   13.0070 N.ar      4   A20      -0.0251
    111 C8        -22.0520    1.5690   11.9560 C.ar      4   A20       0.2006
    112 N7        -21.4810    0.4470   11.6710 N.ar      4   A20      -0.6073
    113 C5        -20.4810    0.3840   12.6460 C.ar      4   A20       0.0515
    114 C6        -19.4910   -0.5630   12.9260 C.ar      4   A20       0.7009
    115 N6        -19.3350   -1.6840   12.2210 N.pl3     4   A20      -0.9019
    116 N1        -18.6690   -0.3120   13.9610 N.ar      4   A20      -0.7615
    117 C2        -18.8100    0.8030   14.6800 C.ar      4   A20       0.5875
    118 N3        -19.7120    1.7650   14.5030 N.ar      4   A20      -0.6997
    119 C4        -20.5230    1.4910   13.4620 C.ar      4   A20       0.3053
    120 H5'       -25.3460    5.2760   11.9580 H         4   A20       0.0679
    121 H5''      -24.3290    6.5930   11.3410 H         4   A20       0.0679
    122 H4'       -23.5800    5.8830   13.5800 H         4   A20       0.1174
    123 H3'       -21.7750    5.3340   11.2000 H         4   A20       0.0615
    124 H2'       -20.2210    4.2920   12.5980 H         4   A20       0.0972
    125 HO2'      -20.4100    6.3200   14.0130 H         4   A20       0.4186
    126 H1'       -22.0370    3.4860   14.6580 H         4   A20       0.2007
    127 H8        -22.8930    1.9390   11.3720 H         4   A20       0.1553
    128 H61       -18.6040   -2.3360   12.4650 H         4   A20       0.4115
    129 H62       -19.9480   -1.8800   11.4430 H         4   A20       0.4115
    130 H2        -18.1090    0.9410   15.5030 H         4   A20       0.0473
    131 P         -20.6490    7.7890   11.5960 P.3       5   G21       1.1662
    132 OP1       -20.4590    9.1270   12.2000 O.co2     5   G21      -0.7760
    133 OP2       -21.1330    7.6710   10.2020 O.co2     5   G21      -0.7760
    134 O5'       -19.2620    6.9800   11.7170 O.3       5   G21      -0.4989
    135 C5'       -18.2080    7.4650   12.5610 C.3       5   G21       0.0558
    136 C4'       -17.3660    6.3390   13.1410 C.3       5   G21       0.1065
    137 O4'       -18.0090    5.0830   12.9960 O.3       5   G21      -0.3548
    138 C3'       -16.0470    6.2020   12.3960 C.3       5   G21       0.2022
    139 O3'       -15.0400    6.8910   13.1420 O.3       5   G21      -0.5246
    140 C2'       -15.7300    4.7050   12.4400 C.3       5   G21       0.0670
    141 O2'       -14.6240    4.4360   13.3090 O.3       5   G21      -0.6139
    142 C1'       -17.0160    4.0580   12.9640 C.3       5   G21       0.0191
    143 N9        -17.4350    2.9420   12.0950 N.ar      5   G21       0.0492
    144 C8        -18.4460    2.8800   11.1940 C.ar      5   G21       0.1374
    145 N7        -18.6060    1.7740   10.5480 N.ar      5   G21      -0.5709
    146 C5        -17.5770    0.9860   11.0740 C.ar      5   G21       0.1744
    147 C6        -17.2130   -0.3540   10.7720 C.2       5   G21       0.4770
    148 O6        -17.7280   -1.1150    9.9780 O.2       5   G21      -0.5597
    149 N1        -16.1210   -0.7670   11.5260 N.am      5   G21      -0.4787
    150 C2        -15.4570    0.0080   12.4560 C.2       5   G21       0.7657
    151 N2        -14.4310   -0.5690   13.0800 N.pl3     5   G21      -0.9672
    152 N3        -15.7940    1.2700   12.7450 N.2       5   G21      -0.6323
    153 C4        -16.8560    1.6950   12.0230 C.ar      5   G21       0.1222
    154 H5'       -18.6360    8.0000   13.3980 H         5   G21       0.0679
    155 H5''      -17.5750    8.1440   11.9720 H         5   G21       0.0679
    156 H4'       -17.1740    6.5290   14.1960 H         5   G21       0.1174
    157 H3'       -16.1190    6.5710   11.3730 H         5   G21       0.0615
    158 H2'       -15.5200    4.3420   11.4300 H         5   G21       0.0972
    159 HO2'      -14.5240    5.1960   13.8870 H         5   G21       0.4186
    160 H1'       -16.8480    3.6850   13.9740 H         5   G21       0.2006
    161 H8        -19.1010    3.7340   11.0210 H         5   G21       0.1640
    162 H1        -15.8020   -1.7110   11.3630 H         5   G21       0.3424
    163 H21       -14.1780   -1.5220   12.8600 H         5   G21       0.4364
    164 H22       -13.9060   -0.0540   13.7720 H         5   G21       0.4364
    165 P         -13.7920    7.5770   12.3910 P.3       6   A22       1.1662
    166 OP1       -13.2070    8.5920   13.2960 O.co2     6   A22      -0.7760
    167 OP2       -14.2270    7.9660   11.0300 O.co2     6   A22      -0.7760
    168 O5'       -12.7480    6.3590   12.2580 O.3       6   A22      -0.4989
    169 C5'       -12.8750    5.4050   11.2000 C.3       6   A22       0.0558
    170 C4'       -12.4690    4.0060   11.6560 C.3       6   A22       0.1065
    171 O4'       -13.4580    3.0450   11.3130 O.3       6   A22      -0.3548
    172 C3'       -11.1870    3.5500   10.9630 C.3       6   A22       0.2022
    173 O3'       -10.1290    3.5810   11.9240 O.3       6   A22      -0.5246
    174 C2'       -11.4350    2.0880   10.5760 C.3       6   A22       0.0670
    175 O2'       -10.4440    1.2260   11.1470 O.3       6   A22      -0.6139
    176 C1'       -12.8210    1.7840   11.1400 C.3       6   A22       0.0394
    177 N9        -13.5880    0.9210   10.2230 N.ar      6   A22      -0.0251
    178 C8        -14.7520    1.1660    9.5720 C.ar      6   A22       0.2006
    179 N7        -15.2190    0.2320    8.8140 N.ar      6   A22      -0.6073
    180 C5        -14.2540   -0.7670    8.9700 C.ar      6   A22       0.0515
    181 C6        -14.1250   -2.0540    8.4350 C.ar      6   A22       0.7009
    182 N6        -15.0110   -2.5830    7.5910 N.pl3     6   A22      -0.9019
    183 N1        -13.0490   -2.7720    8.8010 N.ar      6   A22      -0.7615
    184 C2        -12.1490   -2.2590    9.6420 C.ar      6   A22       0.5875
    185 N3        -12.1720   -1.0560   10.2070 N.ar      6   A22      -0.6997
    186 C4        -13.2580   -0.3560    9.8260 C.ar      6   A22       0.3053
    187 H5'       -12.2380    5.7090   10.3690 H         6   A22       0.0679
    188 H5''      -13.9110    5.3820   10.8640 H         6   A22       0.0679
    189 H4'       -12.3220    4.0020   12.7360 H         6   A22       0.1174
    190 H3'       -10.9600    4.1640   10.0910 H         6   A22       0.0615
    191 H2'       -11.4490    1.9900    9.4880 H         6   A22       0.0972
    192 HO2'      -10.8930    0.6460   11.7660 H         6   A22       0.4186
    193 H1'       -12.7210    1.2910   12.1070 H         6   A22       0.2007
    194 H8        -15.2740    2.1170    9.6860 H         6   A22       0.1553
    195 H61       -14.8710   -3.5170    7.2330 H         6   A22       0.4115
    196 H62       -15.8210   -2.0510    7.3100 H         6   A22       0.4115
    197 H2        -11.3020   -2.8980    9.8950 H         6   A22       0.0473
    198 P          -8.6010    3.7640   11.4500 P.3       7   U23       1.1662
    199 OP1        -7.7270    3.6050   12.6340 O.co2     7   U23      -0.7760
    200 OP2        -8.5150    4.9910   10.6280 O.co2     7   U23      -0.7760
    201 O5'        -8.3780    2.4940   10.4850 O.3       7   U23      -0.4989
    202 C5'        -8.0710    2.6790    9.1010 C.3       7   U23       0.0558
    203 C4'        -6.5650    2.7260    8.8630 C.3       7   U23       0.1065
    204 O4'        -6.0560    1.4270    8.5580 O.3       7   U23      -0.3548
    205 C3'        -6.2250    3.6310    7.6780 C.3       7   U23       0.2022
    206 O3'        -5.3450    4.6560    8.1460 O.3       7   U23      -0.5246
    207 C2'        -5.4440    2.7520    6.7030 C.3       7   U23       0.0670
    208 O2'        -4.0400    3.0250    6.7670 O.3       7   U23      -0.6139
    209 C1'        -5.7530    1.3340    7.1680 C.3       7   U23       0.0674
    210 N1         -6.8790    0.7400    6.4120 N.am      7   U23       0.0418
    211 C2         -6.7400   -0.5720    5.9980 C.2       7   U23       0.4687
    212 O2         -5.7410   -1.2220    6.2370 O.2       7   U23      -0.5477
    213 N3         -7.8040   -1.1060    5.2940 N.am      7   U23      -0.3549
    214 C4         -8.9810   -0.4510    4.9720 C.2       7   U23       0.5952
    215 O4         -9.8530   -1.0190    4.3440 O.2       7   U23      -0.5761
    216 C5         -9.0420    0.9140    5.4420 C.2       7   U23      -0.3635
    217 C6         -8.0120    1.4590    6.1340 C.2       7   U23      -0.1126
    218 H5'        -8.5150    3.6130    8.7590 H         7   U23       0.0679
    219 H5''       -8.4960    1.8530    8.5300 H         7   U23       0.0679
    220 H4'        -6.0710    3.1030    9.7580 H         7   U23       0.1174
    221 H3'        -7.1200    4.0490    7.2180 H         7   U23       0.0615
    222 H2'        -5.8190    2.8990    5.6870 H         7   U23       0.0972
    223 HO2'       -3.6730    2.8400    5.9000 H         7   U23       0.4186
    224 H1'        -4.8660    0.7130    7.0360 H         7   U23       0.1824
    225 H3         -7.7110   -2.0620    4.9800 H         7   U23       0.3154
    226 H5         -9.9260    1.5160    5.2330 H         7   U23       0.1811
    227 H6         -8.0880    2.4900    6.4780 H         7   U23       0.2188
    228 P          -5.9320    6.0320    8.7420 P.3       8   C24       1.1662
    229 OP1        -7.3420    6.1590    8.3100 O.co2     8   C24      -0.7760
    230 OP2        -4.9680    7.1150    8.4430 O.co2     8   C24      -0.7760
    231 O5'        -5.9130    5.7650   10.3290 O.3       8   C24      -0.4989
    232 C5'        -4.7430    6.0520   11.1000 C.3       8   C24       0.0558
    233 C4'        -3.7770    4.8710   11.1130 C.3       8   C24       0.1065
    234 O4'        -2.7860    5.0010   10.0890 O.3       8   C24      -0.3548
    235 C3'        -3.0130    4.8040   12.4260 C.3       8   C24       0.2022
    236 O3'        -3.6980    3.9040   13.3010 O.3       8   C24      -0.5246
    237 C2'        -1.6900    4.1730   12.0300 C.3       8   C24       0.0670
    238 O2'        -1.7620    2.7430   12.0600 O.3       8   C24      -0.6139
    239 C1'        -1.4840    4.6910   10.6100 C.3       8   C24       0.0066
    240 N1         -0.6130    5.8850   10.6040 N.am      8   C24      -0.0484
    241 C2          0.6280    5.7760    9.9900 C.2       8   C24       0.7538
    242 O2          0.9660    4.7270    9.4760 O.2       8   C24      -0.6252
    243 N3          1.4410    6.8670    9.9820 N.2       8   C24      -0.7584
    244 C4          1.0570    8.0170   10.5510 C.2       8   C24       0.8185
    245 N4          1.8800    9.0650   10.5260 N.pl3     8   C24      -0.9530
    246 C5         -0.2200    8.1350   11.1840 C.2       8   C24      -0.5215
    247 C6         -1.0190    7.0510   11.1880 C.2       8   C24       0.0053
    248 H5'        -4.2400    6.9190   10.6730 H         8   C24       0.0679
    249 H5''       -5.0390    6.2800   12.1240 H         8   C24       0.0679
    250 H4'        -4.3300    3.9450   10.9640 H         8   C24       0.1174
    251 H3'        -2.8790    5.7900   12.8720 H         8   C24       0.0615
    252 H2'        -0.8910    4.5380   12.6810 H         8   C24       0.0972
    253 HO2'       -0.9270    2.4230   12.4100 H         8   C24       0.4186
    254 H1'        -1.0280    3.9090   10.0030 H         8   C24       0.2029
    255 H41         2.7830    8.9880   10.0800 H         8   C24       0.4234
    256 H42         1.6010    9.9370   10.9540 H         8   C24       0.4234
    257 H5         -0.5350    9.0690   11.6470 H         8   C24       0.1928
    258 H6         -2.0000    7.1050   11.6600 H         8   C24       0.1958
    259 P          -4.1930    4.3950   14.7520 P.3       9   U25       1.1662
    260 OP1        -5.6300    4.7390   14.6590 O.co2     9   U25      -0.7760
    261 OP2        -3.2260    5.3950   15.2580 O.co2     9   U25      -0.7760
    262 O5'        -4.0510    3.0610   15.6430 O.3       9   U25      -0.4989
    263 C5'        -5.1860    2.2250   15.8820 C.3       9   U25       0.0558
    264 C4'        -5.0610    0.8910   15.1530 C.3       9   U25       0.1065
    265 O4'        -5.5450   -0.1860   15.9650 O.3       9   U25      -0.3548
    266 C3'        -5.8990    0.8880   13.8730 C.3       9   U25       0.2022
    267 O3'        -5.1250    0.2780   12.8370 O.3       9   U25      -0.5246
    268 C2'        -7.0730   -0.0270   14.1890 C.3       9   U25       0.0670
    269 O2'        -7.5140   -0.7360   13.0260 O.3       9   U25      -0.6139
    270 C1'        -6.4830   -0.9680   15.2250 C.3       9   U25       0.0674
    271 N1         -7.5320   -1.5160   16.1050 N.am      9   U25       0.0418
    272 C2         -8.0020   -2.7850   15.8220 C.2       9   U25       0.4687
    273 O2         -7.5780   -3.4380   14.8890 O.2       9   U25      -0.5477
    274 N3         -8.9850   -3.2710   16.6640 N.am      9   U25      -0.3549
    275 C4         -9.5320   -2.6070   17.7500 C.2       9   U25       0.5952
    276 O4        -10.3960   -3.1310   18.4250 O.2       9   U25      -0.5761
    277 C5         -8.9830   -1.2890   17.9710 C.2       9   U25      -0.3635
    278 C6         -8.0180   -0.7910   17.1590 C.2       9   U25      -0.1126
    279 H5'        -6.0840    2.7370   15.5370 H         9   U25       0.0679
    280 H5''       -5.2710    2.0380   16.9530 H         9   U25       0.0679
    281 H4'        -4.0170    0.7110   14.9030 H         9   U25       0.1174
    282 H3'        -6.2270    1.8910   13.6010 H         9   U25       0.0615
    283 H2'        -7.8910    0.5500   14.6290 H         9   U25       0.0972
    284 HO2'       -6.9890   -1.5380   12.9650 H         9   U25       0.4186
    285 H1'        -5.9630   -1.7840   14.7230 H         9   U25       0.1824
    286 H3         -9.3380   -4.1970   16.4690 H         9   U25       0.3154
    287 H5         -9.3490   -0.6860   18.8030 H         9   U25       0.1811
    288 H6         -7.6220    0.2060   17.3500 H         9   U25       0.2188
    289 P          -5.2030    0.8290   11.3260 P.3      10   G26       1.1662
    290 OP1        -4.9820    2.2930   11.3540 O.co2    10   G26      -0.7760
    291 OP2        -6.4220    0.2790   10.6940 O.co2    10   G26      -0.7760
    292 O5'        -3.9220    0.1400   10.6340 O.3      10   G26      -0.4989
    293 C5'        -4.0310   -0.4570    9.3350 C.3      10   G26       0.0558
    294 C4'        -3.8040   -1.9600    9.3690 C.3      10   G26       0.1065
    295 O4'        -4.9070   -2.6340    9.9910 O.3      10   G26      -0.3548
    296 C3'        -3.6950   -2.5270    7.9580 C.3      10   G26       0.2022
    297 O3'        -2.3110   -2.7280    7.6600 O.3      10   G26      -0.5246
    298 C2'        -4.3610   -3.8860    8.0660 C.3      10   G26       0.0670
    299 O2'        -3.4340   -4.8940    8.4880 O.3      10   G26      -0.6139
    300 C1'        -5.4320   -3.6390    9.1150 C.3      10   G26       0.0191
    301 N9         -6.6930   -3.1960    8.4920 N.ar     10   G26       0.0492
    302 C8         -7.3090   -1.9900    8.5480 C.ar     10   G26       0.1374
    303 N7         -8.4180   -1.8540    7.9010 N.ar     10   G26      -0.5709
    304 C5         -8.5760   -3.1240    7.3360 C.ar     10   G26       0.1744
    305 C6         -9.6100   -3.6270    6.5010 C.2      10   G26       0.4770
    306 O6        -10.5940   -3.0470    6.0880 O.2      10   G26      -0.5597
    307 N1         -9.3880   -4.9550    6.1570 N.am     10   G26      -0.4787
    308 C2         -8.3060   -5.7100    6.5630 C.2      10   G26       0.7657
    309 N2         -8.2760   -6.9730    6.1350 N.pl3    10   G26      -0.9672
    310 N3         -7.3280   -5.2450    7.3470 N.2      10   G26      -0.6323
    311 C4         -7.5240   -3.9520    7.6950 C.ar     10   G26       0.1222
    312 H5'        -5.0300   -0.2370    8.9340 H        10   G26       0.0679
    313 H5''       -3.2760   -0.0400    8.6830 H        10   G26       0.0679
    314 H4'        -2.8910   -2.1780    9.9210 H        10   G26       0.1174
    315 H3'        -4.1860   -1.8900    7.2220 H        10   G26       0.0615
    316 H2'        -4.8240   -4.1550    7.1150 H        10   G26       0.0972
    317 HO2'       -3.9470   -5.6240    8.8410 H        10   G26       0.4186
    318 H1'        -5.6070   -4.5540    9.6740 H        10   G26       0.2006
    319 H8         -6.8830   -1.1640    9.1180 H        10   G26       0.1640
    320 H1        -10.0830   -5.3810    5.5620 H        10   G26       0.3424
    321 H21        -9.0150   -7.3230    5.5430 H        10   G26       0.4364
    322 H22        -7.5150   -7.5790    6.4050 H        10   G26       0.4364
    323 P          -1.7720   -2.5830    6.1490 P.3      11   A27       1.1662
    324 OP1        -0.2950   -2.6700    6.1740 O.co2    11   A27      -0.7760
    325 OP2        -2.4320   -1.4110    5.5330 O.co2    11   A27      -0.7760
    326 O5'        -2.3430   -3.9120    5.4440 O.3      11   A27      -0.4989
    327 C5'        -1.5070   -5.0600    5.2750 C.3      11   A27       0.0558
    328 C4'        -2.3280   -6.3270    5.0560 C.3      11   A27       0.1065
    329 O4'        -3.6500   -6.1860    5.5770 O.3      11   A27      -0.3548
    330 C3'        -2.4970   -6.6180    3.5750 C.3      11   A27       0.2022
    331 O3'        -1.4580   -7.5170    3.1760 O.3      11   A27      -0.5246
    332 C2'        -3.8240   -7.3570    3.5050 C.3      11   A27       0.0670
    333 O2'        -3.6390   -8.7720    3.6200 O.3      11   A27      -0.6139
    334 C1'        -4.6030   -6.8020    4.6970 C.3      11   A27       0.0394
    335 N9         -5.6220   -5.8250    4.2660 N.ar     11   A27      -0.0251
    336 C8         -5.7330   -4.5090    4.5700 C.ar     11   A27       0.2006
    337 N7         -6.7570   -3.8740    4.1130 N.ar     11   A27      -0.6073
    338 C5         -7.4210   -4.8800    3.4070 C.ar     11   A27       0.0515
    339 C6         -8.6050   -4.8890    2.6620 C.ar     11   A27       0.7009
    340 N6         -9.3780   -3.8130    2.5070 N.pl3    11   A27      -0.9019
    341 N1         -8.9710   -6.0520    2.0940 N.ar     11   A27      -0.7615
    342 C2         -8.2200   -7.1440    2.2480 C.ar     11   A27       0.5875
    343 N3         -7.0830   -7.2490    2.9340 N.ar     11   A27      -0.6997
    344 C4         -6.7370   -6.0720    3.4920 C.ar     11   A27       0.3053
    345 H5'        -0.8590   -4.9030    4.4130 H        11   A27       0.0679
    346 H5''       -0.8910   -5.1850    6.1660 H        11   A27       0.0679
    347 H4'        -1.8370   -7.1690    5.5410 H        11   A27       0.1174
    348 H3'        -2.5040   -5.7060    2.9780 H        11   A27       0.0615
    349 H2'        -4.3400   -7.1090    2.5750 H        11   A27       0.0972
    350 HO2'       -4.2900   -9.0950    4.2480 H        11   A27       0.4186
    351 H1'        -5.0940   -7.6240    5.2180 H        11   A27       0.2007
    352 H8         -4.9740   -4.0030    5.1620 H        11   A27       0.1553
    353 H61       -10.2250   -3.8740    1.9600 H        11   A27       0.4115
    354 H62        -9.1190   -2.9380    2.9390 H        11   A27       0.4115
    355 H2         -8.5740   -8.0480    1.7530 H        11   A27       0.0473
    356 P          -0.9640   -7.5710    1.6450 P.3      12   G28       1.1662
    357 OP1         0.1890   -8.4970    1.5620 O.co2    12   G28      -0.7760
    358 OP2        -0.8330   -6.1830    1.1510 O.co2    12   G28      -0.7760
    359 O5'        -2.2150   -8.2570    0.8990 O.3      12   G28      -0.4989
    360 C5'        -2.6200   -9.5900    1.2380 C.3      12   G28       0.0558
    361 C4'        -3.9530   -9.9650    0.6110 C.3      12   G28       0.1065
    362 O4'        -4.9870   -9.0820    1.0240 O.3      12   G28      -0.3548
    363 C3'        -3.9100   -9.8340   -0.8980 C.3      12   G28       0.2022
    364 O3'        -3.4770  -11.0820   -1.4470 O.3      12   G28      -0.5246
    365 C2'        -5.3720   -9.6270   -1.2700 C.3      12   G28       0.0670
    366 O2'        -6.0100  -10.8700   -1.5850 O.3      12   G28      -0.6139
    367 C1'        -5.9760   -8.9930   -0.0100 C.3      12   G28       0.0191
    368 N9         -6.3530   -7.5900   -0.2630 N.ar     12   G28       0.0492
    369 C8         -5.7520   -6.4440    0.1430 C.ar     12   G28       0.1374
    370 N7         -6.2710   -5.3270   -0.2430 N.ar     12   G28      -0.5709
    371 C5         -7.3590   -5.7660   -1.0040 C.ar     12   G28       0.1744
    372 C6         -8.3360   -5.0160   -1.7090 C.2      12   G28       0.4770
    373 O6         -8.4340   -3.8090   -1.8070 O.2      12   G28      -0.5597
    374 N1         -9.2550   -5.8440   -2.3420 N.am     12   G28      -0.4787
    375 C2         -9.2400   -7.2240   -2.3040 C.2      12   G28       0.7657
    376 N2        -10.2150   -7.8420   -2.9700 N.pl3    12   G28      -0.9672
    377 N3         -8.3230   -7.9380   -1.6440 N.2      12   G28      -0.6323
    378 C4         -7.4170   -7.1520   -1.0190 C.ar     12   G28       0.1222
    379 H5'        -2.7440   -9.6670    2.3090 H        12   G28       0.0679
    380 H5''       -1.8370  -10.2870    0.9040 H        12   G28       0.0679
    381 H4'        -4.2200  -10.9840    0.8850 H        12   G28       0.1174
    382 H3'        -3.2840   -9.0010   -1.2190 H        12   G28       0.0615
    383 H2'        -5.4470   -8.9300   -2.1080 H        12   G28       0.0972
    384 HO2'       -6.8200  -10.6630   -2.0580 H        12   G28       0.4186
    385 H1'        -6.8570   -9.5580    0.2890 H        12   G28       0.2006
    386 H8         -4.8650   -6.4640    0.7750 H        12   G28       0.1640
    387 H1         -9.9790   -5.3790   -2.8700 H        12   G28       0.3424
    388 H21       -10.9050   -7.3030   -3.4730 H        12   G28       0.4364
    389 H22       -10.2610   -8.8510   -2.9760 H        12   G28       0.4364
    390 P          -2.7460  -11.1350   -2.8810 P.3      13   C29       1.1662
    391 OP1        -2.2770  -12.5200   -3.1100 O.co2    13   C29      -0.7760
    392 OP2        -1.7880  -10.0100   -2.9550 O.co2    13   C29      -0.7760
    393 O5'        -3.9540  -10.8370   -3.9030 O.3      13   C29      -0.4989
    394 C5'        -4.8070  -11.8970   -4.3420 C.3      13   C29       0.0558
    395 C4'        -5.8010  -11.4220   -5.3980 C.3      13   C29       0.1065
    396 O4'        -6.6400  -10.3840   -4.8910 O.3      13   C29      -0.3548
    397 C3'        -5.0840  -10.8210   -6.5940 C.3      13   C29       0.2022
    398 O3'        -4.8870  -11.8510   -7.5660 O.3      13   C29      -0.5246
    399 C2'        -6.0970   -9.8320   -7.1460 C.3      13   C29       0.0670
    400 O2'        -6.9740  -10.4540   -8.0910 O.3      13   C29      -0.6139
    401 C1'        -6.8530   -9.3800   -5.8970 C.3      13   C29       0.0066
    402 N1         -6.3690   -8.0630   -5.4380 N.am     13   C29      -0.0484
    403 C2         -6.9280   -6.9320   -6.0180 C.2      13   C29       0.7538
    404 O2         -7.7870   -7.0420   -6.8730 O.2      13   C29      -0.6252
    405 N3         -6.4890   -5.7120   -5.6050 N.2      13   C29      -0.7584
    406 C4         -5.5430   -5.6030   -4.6630 C.2      13   C29       0.8185
    407 N4         -5.1360   -4.3920   -4.2810 N.pl3    13   C29      -0.9530
    408 C5         -4.9650   -6.7650   -4.0630 C.2      13   C29      -0.5215
    409 C6         -5.4050   -7.9690   -4.4780 C.2      13   C29       0.0053
    410 H5'        -5.3570  -12.2880   -3.4870 H        13   C29       0.0679
    411 H5''       -4.1940  -12.6940   -4.7650 H        13   C29       0.0679
    412 H4'        -6.4170  -12.2590   -5.7230 H        13   C29       0.1174
    413 H3'        -4.1500  -10.3360   -6.3100 H        13   C29       0.0615
    414 H2'        -5.5790   -8.9810   -7.5970 H        13   C29       0.0972
    415 HO2'       -6.4760  -10.5810   -8.9020 H        13   C29       0.4186
    416 H1'        -7.9170   -9.3140   -6.1220 H        13   C29       0.2029
    417 H41        -5.5410   -3.5680   -4.7010 H        13   C29       0.4234
    418 H42        -4.4220   -4.2990   -3.5730 H        13   C29       0.4234
    419 H5         -4.1950   -6.6800   -3.2960 H        13   C29       0.1928
    420 H6         -4.9840   -8.8760   -4.0450 H        13   C29       0.1958
    421 P          -3.6270  -11.8000   -8.5660 P.3      14   C30       1.1662
    422 OP1        -3.6030  -13.0580   -9.3450 O.co2    14   C30      -0.7760
    423 OP2        -2.4350  -11.3900   -7.7900 O.co2    14   C30      -0.7760
    424 O5'        -4.0170  -10.5970   -9.5630 O.3      14   C30      -0.4989
    425 C5'        -3.0020   -9.8980  -10.2890 C.3      14   C30       0.0558
    426 C4'        -3.3560   -8.4250  -10.4720 C.3      14   C30       0.1065
    427 O4'        -3.7520   -7.8330   -9.2280 O.3      14   C30      -0.3548
    428 C3'        -2.1470   -7.6340  -10.9680 C.3      14   C30       0.2022
    429 O3'        -2.3520   -7.3230  -12.3490 O.3      14   C30      -0.5246
    430 C2'        -2.2020   -6.3370  -10.1770 C.3      14   C30       0.0670
    431 O2'        -2.9910   -5.3460  -10.8460 O.3      14   C30      -0.6139
    432 C1'        -2.8500   -6.7800   -8.8760 C.3      14   C30       0.0066
    433 N1         -1.8360   -7.2470   -7.9090 N.am     14   C30      -0.0484
    434 C2         -0.8820   -6.3320   -7.4810 C.2      14   C30       0.7538
    435 O2         -0.8980   -5.1900   -7.8990 O.2      14   C30      -0.6252
    436 N3          0.0580   -6.7500   -6.5900 N.2      14   C30      -0.7584
    437 C4          0.0650   -8.0110   -6.1360 C.2      14   C30       0.8185
    438 N4          1.0010   -8.3860   -5.2640 N.pl3    14   C30      -0.9530
    439 C5         -0.9150   -8.9560   -6.5730 C.2      14   C30      -0.5215
    440 C6         -1.8410   -8.5340   -7.4550 C.2      14   C30       0.0053
    441 H5'        -2.0600   -9.9730   -9.7450 H        14   C30       0.0679
    442 H5''       -2.8840  -10.3600  -11.2690 H        14   C30       0.0679
    443 H4'        -4.1700   -8.3340  -11.1890 H        14   C30       0.1174
    444 H3'        -1.2130   -8.1710  -10.8040 H        14   C30       0.0615
    445 H2'        -1.1900   -5.9700   -9.9870 H        14   C30       0.0972
    446 HO2'       -2.4550   -4.9880  -11.5580 H        14   C30       0.4186
    447 H1'        -3.4090   -5.9490   -8.4450 H        14   C30       0.2029
    448 H41         1.6950   -7.7230   -4.9510 H        14   C30       0.4234
    449 H42         1.0150   -9.3340   -4.9150 H        14   C30       0.4234
    450 H5         -0.9120   -9.9820   -6.2060 H        14   C30       0.1928
    451 H6         -2.6040   -9.2280   -7.8100 H        14   C30       0.1958
    452 P          -1.1460   -7.4660  -13.4050 P.3      15   U31       1.1662
    453 OP1        -1.7170   -7.4150  -14.7700 O.co2    15   U31      -0.7760
    454 OP2        -0.3070   -8.6150  -12.9980 O.co2    15   U31      -0.7760
    455 O5'        -0.3040   -6.1160  -13.1600 O.3      15   U31      -0.4989
    456 C5'         0.7750   -5.7670  -14.0310 C.3      15   U31       0.0558
    457 C4'         1.7530   -4.8080  -13.3580 C.3      15   U31       0.1065
    458 O4'         1.6630   -4.8880  -11.9360 O.3      15   U31      -0.3548
    459 C3'         3.1880   -5.1650  -13.6980 C.3      15   U31       0.2022
    460 O3'         3.5800   -4.4020  -14.8430 O.3      15   U31      -0.5246
    461 C2'         3.9720   -4.6630  -12.4970 C.3      15   U31       0.0670
    462 O2'         4.3940   -3.3060  -12.6790 O.3      15   U31      -0.6139
    463 C1'         2.9700   -4.7860  -11.3480 C.3      15   U31       0.0674
    464 N1          3.2660   -5.9660  -10.5140 N.am     15   U31       0.0418
    465 C2          4.3740   -5.9040   -9.6910 C.2      15   U31       0.4687
    466 O2          5.0920   -4.9240   -9.6460 O.2      15   U31      -0.5477
    467 N3          4.6210   -7.0240   -8.9190 N.am     15   U31      -0.3549
    468 C4          3.8670   -8.1850   -8.8990 C.2      15   U31       0.5952
    469 O4          4.1770   -9.1120   -8.1780 O.2      15   U31      -0.5761
    470 C5          2.7290   -8.1620   -9.7900 C.2      15   U31      -0.3635
    471 C6          2.4660   -7.0760  -10.5560 C.2      15   U31      -0.1126
    472 H5'         0.3710   -5.2930  -14.9260 H        15   U31       0.0679
    473 H5''        1.3080   -6.6740  -14.3180 H        15   U31       0.0679
    474 H4'         1.5440   -3.7880  -13.6770 H        15   U31       0.1174
    475 H3'         3.3180   -6.2360  -13.8530 H        15   U31       0.0615
    476 H2'         4.8310   -5.3140  -12.3130 H        15   U31       0.0972
    477 HO2'        3.6970   -2.7420  -12.3350 H        15   U31       0.4186
    478 H1'         3.0180   -3.8890  -10.7310 H        15   U31       0.1824
    479 H3          5.4280   -6.9930   -8.3120 H        15   U31       0.3154
    480 H5          2.0720   -9.0310   -9.8460 H        15   U31       0.1811
    481 H6          1.6010   -7.0860  -11.2190 H        15   U31       0.2188
    482 P           5.0800   -4.5020  -15.4190 P.3      16   G32       1.1662
    483 OP1         5.1330   -5.6250  -16.3820 O.co2    16   G32      -0.7760
    484 OP2         6.0190   -4.4660  -14.2750 O.co2    16   G32      -0.7760
    485 O5'         5.2330   -3.1260  -16.2400 O.3      16   G32      -0.4989
    486 C5'         4.0720   -2.4330  -16.7200 C.3      16   G32       0.0558
    487 C4'         3.3410   -1.6920  -15.6120 C.3      16   G32       0.1065
    488 O4'         4.1440   -1.5910  -14.4390 O.3      16   G32      -0.3548
    489 C3'         3.0350   -0.2630  -16.0200 C.3      16   G32       0.2022
    490 O3'         1.9140    0.1930  -15.2580 O.3      16   G32      -0.5246
    491 C2'         4.2660    0.5110  -15.5700 C.3      16   G32       0.0670
    492 O2'         3.9210    1.8350  -15.1460 O.3      16   G32      -0.6139
    493 C1'         4.8120   -0.3210  -14.4070 C.3      16   G32       0.0191
    494 N9          6.2710   -0.4940  -14.5290 N.ar     16   G32       0.0492
    495 C8          6.9850   -1.1660  -15.4640 C.ar     16   G32       0.1374
    496 N7          8.2710   -1.1690  -15.3480 N.ar     16   G32      -0.5709
    497 C5          8.4540   -0.4050  -14.1910 C.ar     16   G32       0.1744
    498 C6          9.6540   -0.0350  -13.5270 C.2      16   G32       0.4770
    499 O6         10.7980   -0.3090  -13.8280 O.2      16   G32      -0.5597
    500 N1          9.3950    0.7370  -12.4000 N.am     16   G32      -0.4787
    501 C2          8.1400    1.1090  -11.9630 C.2      16   G32       0.7657
    502 N2          8.0970    1.8530  -10.8580 N.pl3    16   G32      -0.9672
    503 N3          7.0060    0.7650  -12.5820 N.2      16   G32      -0.6323
    504 C4          7.2330    0.0120  -13.6830 C.ar     16   G32       0.1222
    505 H5'         4.3880   -1.7260  -17.5020 H        16   G32       0.0679
    506 H5''        3.3740   -3.1470  -17.1350 H        16   G32       0.0679
    507 H4'         2.4150   -2.2120  -15.3720 H        16   G32       0.1174
    508 H3'         2.8670   -0.1730  -17.0930 H        16   G32       0.0615
    509 H2'         5.0000    0.5440  -16.3800 H        16   G32       0.0972
    510 HO2'        3.3020    1.7490  -14.4180 H        16   G32       0.4186
    511 H1'         4.5870    0.1820  -13.4670 H        16   G32       0.2006
    512 H8          6.4910   -1.6850  -16.2860 H        16   G32       0.1640
    513 H1         10.2030    1.0390  -11.8750 H        16   G32       0.3424
    514 H21         8.9540    2.1130  -10.3900 H        16   G32       0.4364
    515 H22         7.2080    2.1580  -10.4880 H        16   G32       0.4364
    516 P           0.6810    0.9330  -15.9830 P.3      17   G33       1.1662
    517 OP1         0.1260    0.0160  -17.0030 O.co2    17   G33      -0.7760
    518 OP2         1.1200    2.2920  -16.3720 O.co2    17   G33      -0.7760
    519 O5'        -0.3950    1.0730  -14.7930 O.3      17   G33      -0.4989
    520 C5'        -1.1590   -0.0640  -14.3640 C.3      17   G33       0.0558
    521 C4'        -1.8300    0.1460  -13.0110 C.3      17   G33       0.1065
    522 O4'        -1.5510   -0.9480  -12.1270 O.3      17   G33      -0.3548
    523 C3'        -1.3140    1.4050  -12.3160 C.3      17   G33       0.2022
    524 O3'        -2.2920    2.4370  -12.4750 O.3      17   G33      -0.5246
    525 C2'        -1.2690    1.0180  -10.8480 C.3      17   G33       0.0670
    526 O2'        -2.5230    1.2630  -10.2010 O.3      17   G33      -0.6139
    527 C1'        -0.9560   -0.4690  -10.9140 C.3      17   G33       0.0191
    528 N9          0.5000   -0.7040  -10.9080 N.ar     17   G33       0.0492
    529 C8          1.3620   -0.8230  -11.9470 C.ar     17   G33       0.1374
    530 N7          2.6070   -1.0260  -11.6720 N.ar     17   G33      -0.5709
    531 C5          2.5900   -1.0480  -10.2740 C.ar     17   G33       0.1744
    532 C6          3.6560   -1.2340   -9.3530 C.2      17   G33       0.4770
    533 O6          4.8330   -1.4170   -9.5900 O.2      17   G33      -0.5597
    534 N1          3.2090   -1.1850   -8.0380 N.am     17   G33      -0.4787
    535 C2          1.8990   -0.9840   -7.6510 C.2      17   G33       0.7657
    536 N2          1.6670   -0.9690   -6.3390 N.pl3    17   G33      -0.9672
    537 N3          0.8900   -0.8080   -8.5110 N.2      17   G33      -0.6323
    538 C4          1.3020   -0.8510   -9.7980 C.ar     17   G33       0.1222
    539 H5'        -0.5020   -0.9170  -14.2590 H        17   G33       0.0679
    540 H5''       -1.9190   -0.2780  -15.1300 H        17   G33       0.0679
    541 H4'        -2.9070    0.2250  -13.1500 H        17   G33       0.1174
    542 H3'        -0.3350    1.7050  -12.6890 H        17   G33       0.0615
    543 H2'        -0.4580    1.5500  -10.3440 H        17   G33       0.0972
    544 HO2'       -3.0810    1.7290  -10.8280 H        17   G33       0.4186
    545 H1'        -1.4100   -0.9740  -10.0620 H        17   G33       0.2006
    546 H8          1.0170   -0.7500  -12.9780 H        17   G33       0.1640
    547 H1          3.9130   -1.3100   -7.3260 H        17   G33       0.3424
    548 H21         2.4300   -1.1020   -5.6900 H        17   G33       0.4364
    549 H22         0.7290   -0.8260   -5.9930 H        17   G33       0.4364
    550 P          -1.8430    3.9340  -12.8640 P.3      18   G34       1.1662
    551 OP1        -2.7830    4.4480  -13.8850 O.co2    18   G34      -0.7760
    552 OP2        -0.3890    3.9250  -13.1380 O.co2    18   G34      -0.7760
    553 O5'        -2.0940    4.7450  -11.4950 O.3      18   G34      -0.4989
    554 C5'        -2.9670    4.2220  -10.4850 C.3      18   G34       0.0558
    555 C4'        -4.3930    4.0470  -10.9850 C.3      18   G34       0.1065
    556 O4'        -4.5950    2.7290  -11.5130 O.3      18   G34      -0.3548
    557 C3'        -5.3940    4.2130   -9.8470 C.3      18   G34       0.2022
    558 O3'        -5.9640    5.5230   -9.9340 O.3      18   G34      -0.5246
    559 C2'        -6.4800    3.2030  -10.1700 C.3      18   G34       0.0670
    560 O2'        -7.4710    3.7580  -11.0430 O.3      18   G34      -0.6139
    561 C1'        -5.6950    2.0920  -10.8510 C.3      18   G34       0.0191
    562 N9         -5.2210    1.0990   -9.8680 N.ar     18   G34       0.0492
    563 C8         -4.9870    1.2410   -8.5400 C.ar     18   G34       0.1374
    564 N7         -4.5740    0.2040   -7.8920 N.ar     18   G34      -0.5709
    565 C5         -4.5200   -0.7610   -8.9010 C.ar     18   G34       0.1744
    566 C6         -4.1360   -2.1280   -8.8340 C.2      18   G34       0.4770
    567 O6         -3.7670   -2.7600   -7.8640 O.2      18   G34      -0.5597
    568 N1         -4.2240   -2.7440  -10.0760 N.am     18   G34      -0.4787
    569 C2         -4.6300   -2.1270  -11.2430 C.2      18   G34       0.7657
    570 N2         -4.6470   -2.8880  -12.3370 N.pl3    18   G34      -0.9672
    571 N3         -4.9920   -0.8420  -11.3150 N.2      18   G34      -0.6323
    572 C4         -4.9150   -0.2210  -10.1160 C.ar     18   G34       0.1222
    573 H5'        -2.5660    3.2560  -10.1450 H        18   G34       0.0679
    574 H5''       -3.0090    4.9120   -9.6530 H        18   G34       0.0679
    575 H4'        -4.5990    4.7810  -11.7620 H        18   G34       0.1174
    576 H3'        -4.9400    4.0260   -8.8730 H        18   G34       0.0615
    577 H2'        -6.9340    2.8310   -9.2480 H        18   G34       0.0972
    578 HO2'       -8.0720    3.0480  -11.2800 H        18   G34       0.4186
    579 H1'        -6.3280    1.6000  -11.5900 H        18   G34       0.2006
    580 H8         -5.1420    2.1960   -8.0380 H        18   G34       0.1640
    581 H1         -3.9670   -3.7200  -10.1060 H        18   G34       0.3424
    582 H21        -4.3730   -3.8590  -12.2820 H        18   G34       0.4364
    583 H22        -4.9340   -2.4940  -13.2220 H        18   G34       0.4364
    584 P          -5.3870    6.7280   -9.0360 P.3      19   A35       1.1662
    585 OP1        -5.8810    8.0030   -9.6020 O.co2    19   A35      -0.7760
    586 OP2        -3.9330    6.5160   -8.8560 O.co2    19   A35      -0.7760
    587 O5'        -6.1100    6.4950   -7.6150 O.3      19   A35      -0.4989
    588 C5'        -7.1830    5.5570   -7.4840 C.3      19   A35       0.0558
    589 C4'        -8.4420    6.0410   -8.1970 C.3      19   A35       0.1065
    590 O4'        -8.1280    6.6130   -9.4630 O.3      19   A35      -0.3548
    591 C3'        -9.3950    4.8750   -8.4720 C.3      19   A35       0.2022
    592 O3'       -10.6140    5.1250   -7.7670 O.3      19   A35      -0.5246
    593 C2'        -9.6920    4.9390   -9.9720 C.3      19   A35       0.0670
    594 O2'       -11.0950    4.8140  -10.2310 O.3      19   A35      -0.6139
    595 C1'        -9.1740    6.3110  -10.3790 C.3      19   A35       0.0394
    596 N9         -8.6790    6.3030  -11.7680 N.ar     19   A35      -0.0251
    597 C8         -7.6120    6.9400  -12.3100 C.ar     19   A35       0.2006
    598 N7         -7.3920    6.7700  -13.5710 N.ar     19   A35      -0.6073
    599 C5         -8.4380    5.9120  -13.9250 C.ar     19   A35       0.0515
    600 C6         -8.8100    5.3220  -15.1380 C.ar     19   A35       0.7009
    601 N6         -8.1430    5.5130  -16.2760 N.pl3    19   A35      -0.9019
    602 N1         -9.8960    4.5290  -15.1330 N.ar     19   A35      -0.7615
    603 C2        -10.5790    4.3260  -14.0050 C.ar     19   A35       0.5875
    604 N3        -10.3170    4.8330  -12.8040 N.ar     19   A35      -0.6997
    605 C4         -9.2250    5.6240  -12.8340 C.ar     19   A35       0.3053
    606 H5'        -6.8770    4.6030   -7.9110 H        19   A35       0.0679
    607 H5''       -7.4050    5.4180   -6.4260 H        19   A35       0.0679
    608 H4'        -8.9460    6.7840   -7.5800 H        19   A35       0.1174
    609 H3'        -8.9540    3.9190   -8.1890 H        19   A35       0.0615
    610 H2'        -9.1310    4.1600  -10.4950 H        19   A35       0.0972
    611 HO2'      -11.5430    5.4760   -9.6990 H        19   A35       0.4186
    612 H1'        -9.9710    7.0470  -10.2790 H        19   A35       0.2007
    613 H8         -6.9630    7.5720  -11.7030 H        19   A35       0.1553
    614 H61        -8.4540    5.0630  -17.1250 H        19   A35       0.4115
    615 H62        -7.3270    6.1080  -16.2890 H        19   A35       0.4115
    616 H2        -11.4480    3.6710  -14.0750 H        19   A35       0.0473
    617 P         -11.1010    4.1290   -6.6000 P.3      20   G36       1.1662
    618 OP1       -12.2990    4.7160   -5.9590 O.co2    20   G36      -0.7760
    619 OP2        -9.9240    3.7690   -5.7770 O.co2    20   G36      -0.7760
    620 O5'       -11.5590    2.8230   -7.4220 O.3      20   G36      -0.4989
    621 C5'       -12.3060    2.9570   -8.6380 C.3      20   G36       0.0558
    622 C4'       -12.6490    1.6130   -9.2610 C.3      20   G36       0.1065
    623 O4'       -11.4930    0.9970   -9.8390 O.3      20   G36      -0.3548
    624 C3'       -13.1560    0.6360   -8.2120 C.3      20   G36       0.2022
    625 O3'       -14.5830    0.7050   -8.1780 O.3      20   G36      -0.5246
    626 C2'       -12.7520   -0.7090   -8.7840 C.3      20   G36       0.0670
    627 O2'       -13.7080   -1.1840   -9.7390 O.3      20   G36      -0.6139
    628 C1'       -11.4180   -0.3830   -9.4430 C.3      20   G36       0.0191
    629 N9        -10.3060   -0.6020   -8.5000 N.ar     20   G36       0.0492
    630 C8         -9.5940    0.2990   -7.7800 C.ar     20   G36       0.1374
    631 N7         -8.6660   -0.1520   -7.0050 N.ar     20   G36      -0.5709
    632 C5         -8.7580   -1.5300   -7.2230 C.ar     20   G36       0.1744
    633 C6         -8.0010   -2.5930   -6.6600 C.2      20   G36       0.4770
    634 O6         -7.0970   -2.5280   -5.8510 O.2      20   G36      -0.5597
    635 N1         -8.4140   -3.8270   -7.1480 N.am     20   G36      -0.4787
    636 C2         -9.4290   -4.0210   -8.0640 C.2      20   G36       0.7657
    637 N2         -9.6750   -5.2840   -8.4130 N.pl3    20   G36      -0.9672
    638 N3        -10.1450   -3.0260   -8.5990 N.2      20   G36      -0.6323
    639 C4         -9.7600   -1.8140   -8.1380 C.ar     20   G36       0.1222
    640 H5'       -11.7150    3.4980   -9.3650 H        20   G36       0.0679
    641 H5''      -13.2270    3.5170   -8.4200 H        20   G36       0.0679
    642 H4'       -13.4070    1.7500  -10.0300 H        20   G36       0.1174
    643 H3'       -12.7070    0.8160   -7.2350 H        20   G36       0.0615
    644 H2'       -12.6070   -1.4340   -7.9780 H        20   G36       0.0972
    645 HO2'      -13.2630   -1.8290  -10.2930 H        20   G36       0.4186
    646 H1'       -11.2800   -1.0100  -10.3230 H        20   G36       0.2006
    647 H8         -9.8030    1.3670   -7.8490 H        20   G36       0.1640
    648 H1         -7.9210   -4.6320   -6.7900 H        20   G36       0.3424
    649 H21        -9.1340   -6.0350   -8.0090 H        20   G36       0.4364
    650 H22       -10.4030   -5.4900   -9.0830 H        20   G36       0.4364
    651 P         -15.3730    0.5290   -6.7860 P.3      21   C37       1.1662
    652 OP1       -16.8090    0.7910   -7.0310 O.co2    21   C37      -0.7760
    653 OP2       -14.6510    1.2920   -5.7430 O.co2    21   C37      -0.7760
    654 O5'       -15.1940   -1.0410   -6.4770 O.3      21   C37      -0.4989
    655 C5'       -15.8960   -2.0150   -7.2520 C.3      21   C37       0.0558
    656 C4'       -15.5510   -3.4370   -6.8200 C.3      21   C37       0.1065
    657 O4'       -14.1910   -3.7630   -7.1270 O.3      21   C37      -0.3548
    658 C3'       -15.6760   -3.6020   -5.3160 C.3      21   C37       0.2022
    659 O3'       -16.9980   -4.0530   -5.0120 O.3      21   C37      -0.5246
    660 C2'       -14.7040   -4.7270   -5.0180 C.3      21   C37       0.0670
    661 O2'       -15.3060   -6.0100   -5.2260 O.3      21   C37      -0.6139
    662 C1'       -13.5890   -4.4620   -6.0230 C.3      21   C37       0.0066
    663 N1        -12.5120   -3.6610   -5.4080 N.am     21   C37      -0.0484
    664 C2        -11.5400   -4.3380   -4.6820 C.2      21   C37       0.7538
    665 O2        -11.5800   -5.5490   -4.5840 O.2      21   C37      -0.6252
    666 N3        -10.5520   -3.6090   -4.0930 N.2      21   C37      -0.7584
    667 C4        -10.5180   -2.2750   -4.2120 C.2      21   C37       0.8185
    668 N4         -9.5400   -1.5910   -3.6180 N.pl3    21   C37      -0.9530
    669 C5        -11.5160   -1.5750   -4.9600 C.2      21   C37      -0.5215
    670 C6        -12.4890   -2.3030   -5.5390 C.2      21   C37       0.0053
    671 H5'       -15.6340   -1.8890   -8.3020 H        21   C37       0.0679
    672 H5''      -16.9680   -1.8590   -7.1320 H        21   C37       0.0679
    673 H4'       -16.2110   -4.1430   -7.3220 H        21   C37       0.1174
    674 H3'       -15.4170   -2.6870   -4.7810 H        21   C37       0.0615
    675 H2'       -14.3220   -4.6330   -3.9980 H        21   C37       0.0972
    676 HO2'      -16.2580   -5.8840   -5.2140 H        21   C37       0.4186
    677 H1'       -13.1820   -5.4110   -6.3730 H        21   C37       0.2029
    678 H41        -8.8320   -2.0790   -3.0870 H        21   C37       0.4234
    679 H42        -9.5060   -0.5840   -3.6980 H        21   C37       0.4234
    680 H5        -11.4880   -0.4900   -5.0600 H        21   C37       0.1928
    681 H6        -13.2660   -1.8030   -6.1170 H        21   C37       0.1958
    682 P         -17.5760   -3.9080   -3.5170 P.3      22   U38       1.1662
    683 OP1       -18.8480   -4.6610   -3.4350 O.co2    22   U38      -0.7760
    684 OP2       -17.5380   -2.4770   -3.1390 O.co2    22   U38      -0.7760
    685 O5'       -16.4700   -4.6900   -2.6480 O.3      22   U38      -0.4989
    686 C5'       -16.8340   -5.8290   -1.8660 C.3      22   U38       0.0558
    687 C4'       -15.7740   -6.9250   -1.9480 C.3      22   U38       0.1065
    688 O4'       -14.5930   -6.4610   -2.6130 O.3      22   U38      -0.3548
    689 C3'       -15.3240   -7.3660   -0.5660 C.3      22   U38       0.2022
    690 O3'       -16.1200   -8.4860   -0.1700 O.3      22   U38      -0.5246
    691 C2'       -13.9050   -7.8430   -0.8170 C.3      22   U38       0.0670
    692 O2'       -13.8810   -9.1910   -1.3000 O.3      22   U38      -0.6139
    693 C1'       -13.4250   -6.8590   -1.8770 C.3      22   U38       0.0674
    694 N1        -12.7690   -5.6950   -1.2530 N.am     22   U38       0.0418
    695 C2        -11.6450   -5.9340   -0.4840 C.2      22   U38       0.4687
    696 O2        -11.1940   -7.0520   -0.3280 O.2      22   U38      -0.5477
    697 N3        -11.0620   -4.8250    0.1000 N.am     22   U38      -0.3549
    698 C4        -11.4970   -3.5160   -0.0170 C.2      22   U38       0.5952
    699 O4        -10.9100   -2.6150    0.5480 O.2      22   U38      -0.5761
    700 C5        -12.6750   -3.3590   -0.8400 C.2      22   U38      -0.3635
    701 C6        -13.2650   -4.4310   -1.4220 C.2      22   U38      -0.1126
    702 H5'       -17.7820   -6.2230   -2.2300 H        22   U38       0.0679
    703 H5''      -16.9510   -5.5230   -0.8260 H        22   U38       0.0679
    704 H4'       -16.1760   -7.7790   -2.4870 H        22   U38       0.1174
    705 H3'       -15.3610   -6.5510    0.1580 H        22   U38       0.0615
    706 H2'       -13.3050   -7.7390    0.0890 H        22   U38       0.0972
    707 HO2'      -14.3110   -9.1940   -2.1590 H        22   U38       0.4186
    708 H1'       -12.7240   -7.3580   -2.5470 H        22   U38       0.1824
    709 H3        -10.2430   -4.9860    0.6680 H        22   U38       0.3154
    710 H5        -13.0950   -2.3650   -0.9950 H        22   U38       0.1811
    711 H6        -14.1520   -4.2840   -2.0380 H        22   U38       0.2188
    712 P         -16.8440   -8.5050    1.2680 P.3      23   C39       1.1662
    713 OP1       -18.0680   -9.3290    1.1590 O.co2    23   C39      -0.7760
    714 OP2       -16.9350   -7.1110    1.7580 O.co2    23   C39      -0.7760
    715 O5'       -15.7860   -9.2930    2.1880 O.3      23   C39      -0.4989
    716 C5'       -15.2810  -10.5680    1.7840 C.3      23   C39       0.0558
    717 C4'       -13.8140  -10.7350    2.1690 C.3      23   C39       0.1065
    718 O4'       -13.0300   -9.6340    1.7080 O.3      23   C39      -0.3548
    719 C3'       -13.6460  -10.7550    3.6780 C.3      23   C39       0.2022
    720 O3'       -13.6740  -12.1160    4.1150 O.3      23   C39      -0.5246
    721 C2'       -12.2410  -10.2160    3.8830 C.3      23   C39       0.0670
    722 O2'       -11.2700  -11.2690    3.8650 O.3      23   C39      -0.6139
    723 C1'       -12.0560   -9.2670    2.6990 C.3      23   C39       0.0066
    724 N1        -12.2300   -7.8610    3.1180 N.am     23   C39      -0.0484
    725 C2        -11.3100   -7.3410    4.0200 C.2      23   C39       0.7538
    726 O2        -10.4030   -8.0350    4.4390 O.2      23   C39      -0.6252
    727 N3        -11.4540   -6.0460    4.4110 N.2      23   C39      -0.7584
    728 C4        -12.4540   -5.2910    3.9390 C.2      23   C39       0.8185
    729 N4        -12.5710   -4.0300    4.3530 N.pl3    23   C39      -0.9530
    730 C5        -13.4020   -5.8200    3.0090 C.2      23   C39      -0.5215
    731 C6        -13.2550   -7.1040    2.6290 C.2      23   C39       0.0053
    732 H5'       -15.3780  -10.6620    0.7020 H        23   C39       0.0679
    733 H5''      -15.8660  -11.3520    2.2640 H        23   C39       0.0679
    734 H4'       -13.4260  -11.6590    1.7440 H        23   C39       0.1174
    735 H3'       -14.3960  -10.1450    4.1810 H        23   C39       0.0615
    736 H2'       -12.1890   -9.6570    4.8210 H        23   C39       0.0972
    737 HO2'      -11.6250  -11.9930    4.3850 H        23   C39       0.4186
    738 H1'       -11.0560   -9.3980    2.2870 H        23   C39       0.2029
    739 H41       -11.9040   -3.6500    5.0100 H        23   C39       0.4234
    740 H42       -13.3280   -3.4550    4.0120 H        23   C39       0.4234
    741 H5        -14.2060   -5.2010    2.6080 H        23   C39       0.1928
    742 H6        -13.9680   -7.5450    1.9330 H        23   C39       0.1958
    743 P         -14.7820  -12.6120    5.1740 P.3      24   U40       1.1662
    744 OP1       -15.2350  -13.9620    4.7720 O.co2    24   U40      -0.7760
    745 OP2       -15.7690  -11.5240    5.3530 O.co2    24   U40      -0.7760
    746 O5'       -13.9310  -12.7490    6.5340 O.3      24   U40      -0.4989
    747 C5'       -14.0270  -11.7520    7.5540 C.3      24   U40       0.0558
    748 C4'       -12.6520  -11.2360    7.9660 C.3      24   U40       0.1065
    749 O4'       -12.1120  -10.3550    6.9720 O.3      24   U40      -0.3548
    750 C3'       -12.7380  -10.4280    9.2550 C.3      24   U40       0.2022
    751 O3'       -12.3270  -11.2660   10.3390 O.3      24   U40      -0.5246
    752 C2'       -11.6920   -9.3420    9.0690 C.3      24   U40       0.0670
    753 O2'       -10.3980   -9.7800    9.5000 O.3      24   U40      -0.6139
    754 C1'       -11.7290   -9.1070    7.5660 C.3      24   U40       0.0674
    755 N1        -12.6880   -8.0390    7.2210 N.am     24   U40       0.0418
    756 C2        -12.4380   -6.7750    7.7200 C.2      24   U40       0.4687
    757 O2        -11.4730   -6.5340    8.4180 O.2      24   U40      -0.5477
    758 N3        -13.3540   -5.7950    7.3800 N.am     24   U40      -0.3549
    759 C4        -14.4810   -5.9690    6.5940 C.2      24   U40       0.5952
    760 O4        -15.2200   -5.0340    6.3570 O.2      24   U40      -0.5761
    761 C5        -14.6620   -7.3210    6.1160 C.2      24   U40      -0.3635
    762 C6        -13.7790   -8.2970    6.4360 C.2      24   U40      -0.1126
    763 H5'       -14.6230  -10.9190    7.1820 H        24   U40       0.0679
    764 H5''      -14.5210  -12.1810    8.4260 H        24   U40       0.0679
    765 H4'       -11.9750  -12.0770    8.1080 H        24   U40       0.1174
    766 H3'       -13.7330  -10.0120    9.4110 H        24   U40       0.0615
    767 H2'       -11.9940   -8.4350    9.5990 H        24   U40       0.0972
    768 HO2'       -9.9460  -10.1340    8.7310 H        24   U40       0.4186
    769 H1'       -10.7350   -8.8290    7.2170 H        24   U40       0.1824
    770 H3        -13.1840   -4.8660    7.7370 H        24   U40       0.3154
    771 H5        -15.5210   -7.5580    5.4880 H        24   U40       0.1811
    772 H6        -13.9400   -9.3080    6.0620 H        24   U40       0.2188
    773 P         -13.1770  -11.3080   11.7050 P.3      25   C41       1.1662
    774 OP1       -12.5850  -12.3390   12.5870 O.co2    25   C41      -0.7760
    775 OP2       -14.6130  -11.3710   11.3560 O.co2    25   C41      -0.7760
    776 O5'       -12.8780   -9.8620   12.3490 O.3      25   C41      -0.4989
    777 C5'       -11.5340   -9.3970   12.4960 C.3      25   C41       0.0558
    778 C4'       -11.4890   -7.9490   12.9740 C.3      25   C41       0.1065
    779 O4'       -11.8460   -7.0460   11.9350 O.3      25   C41      -0.3548
    780 C3'       -12.5080   -7.7000   14.0720 C.3      25   C41       0.2022
    781 O3'       -11.8670   -7.8800   15.3380 O.3      25   C41      -0.5246
    782 C2'       -12.8580   -6.2220   13.9260 C.3      25   C41       0.0670
    783 O2'       -12.2080   -5.4310   14.9280 O.3      25   C41      -0.6139
    784 C1'       -12.3680   -5.8510   12.5240 C.3      25   C41       0.0066
    785 N1        -13.4760   -5.2950   11.7210 N.am     25   C41      -0.0484
    786 C2        -13.8090   -3.9620   11.9270 C.2      25   C41       0.7538
    787 O2        -13.1850   -3.2890   12.7250 O.2      25   C41      -0.6252
    788 N3        -14.8440   -3.4400   11.2150 N.2      25   C41      -0.7584
    789 C4        -15.5250   -4.1890   10.3380 C.2      25   C41       0.8185
    790 N4        -16.5390   -3.6450    9.6660 N.pl3    25   C41      -0.9530
    791 C5        -15.1830   -5.5610   10.1210 C.2      25   C41      -0.5215
    792 C6        -14.1570   -6.0710   10.8300 C.2      25   C41       0.0053
    793 H5'       -11.0250   -9.4710   11.5350 H        25   C41       0.0679
    794 H5''      -11.0170  -10.0270   13.2210 H        25   C41       0.0679
    795 H4'       -10.4900   -7.7090   13.3350 H        25   C41       0.1174
    796 H3'       -13.3850   -8.3380   13.9640 H        25   C41       0.0615
    797 H2'       -13.9400   -6.0960   13.9810 H        25   C41       0.0972
    798 HO2'      -11.8470   -6.0370   15.5800 H        25   C41       0.4186
    799 H1'       -11.5730   -5.1100   12.6030 H        25   C41       0.2029
    800 H41       -16.7830   -2.6770    9.8160 H        25   C41       0.4234
    801 H42       -17.0650   -4.2020    9.0080 H        25   C41       0.4234
    802 H5        -15.7340   -6.1730    9.4070 H        25   C41       0.1928
    803 H6        -13.8690   -7.1130   10.6900 H        25   C41       0.1958
    804 P         -12.7450   -7.9840   16.6850 P.3      26   U42       1.1662
    805 OP1       -11.8500   -8.3960   17.7890 O.co2    26   U42      -0.7760
    806 OP2       -13.9590   -8.7760   16.3860 O.co2    26   U42      -0.7760
    807 O5'       -13.1910   -6.4560   16.9420 O.3      26   U42      -0.4989
    808 C5'       -12.4740   -5.6420   17.8750 C.3      26   U42       0.0558
    809 C4'       -13.1940   -4.3240   18.1560 C.3      26   U42       0.1065
    810 O4'       -13.3590   -3.5450   16.9700 O.3      26   U42      -0.3548
    811 C3'       -14.6020   -4.5550   18.6690 C.3      26   U42       0.2022
    812 O3'       -14.5540   -4.6910   20.0920 O.3      26   U42      -0.5246
    813 C2'       -15.2910   -3.2470   18.3260 C.3      26   U42       0.0670
    814 O2'       -15.0650   -2.2540   19.3330 O.3      26   U42      -0.6139
    815 C1'       -14.6290   -2.8640   17.0030 C.3      26   U42       0.0674
    816 N1        -15.4740   -3.2680   15.8640 N.am     26   U42       0.0418
    817 C2        -16.4530   -2.3850   15.4470 C.2      26   U42       0.4687
    818 O2        -16.6200   -1.3070   15.9810 O.2      26   U42      -0.5477
    819 N3        -17.2340   -2.8030   14.3830 N.am     26   U42      -0.3549
    820 C4        -17.1230   -4.0080   13.7130 C.2      26   U42       0.5952
    821 O4        -17.8660   -4.2730   12.7880 O.2      26   U42      -0.5761
    822 C5        -16.0760   -4.8670   14.2170 C.2      26   U42      -0.3635
    823 C6        -15.2970   -4.4790   15.2560 C.2      26   U42      -0.1126
    824 H5'       -11.4860   -5.4260   17.4690 H        26   U42       0.0679
    825 H5''      -12.3620   -6.1910   18.8100 H        26   U42       0.0679
    826 H4'       -12.6290   -3.7480   18.8880 H        26   U42       0.1174
    827 H3'       -15.0790   -5.4080   18.1850 H        26   U42       0.0615
    828 H2'       -16.3570   -3.4140   18.1730 H        26   U42       0.0972
    829 HO2'      -14.3490   -2.5690   19.8900 H        26   U42       0.4186
    830 H1'       -14.4690   -1.7870   16.9750 H        26   U42       0.1824
    831 H3        -17.9500   -2.1660   14.0620 H        26   U42       0.3154
    832 H5        -15.9100   -5.8400   13.7550 H        26   U42       0.1811
    833 H6        -14.5180   -5.1480   15.6190 H        26   U42       0.2188
    834 P         -15.7790   -5.3680   20.8900 P.3      27   G43       1.1662
    835 OP1       -15.3800   -5.5200   22.3070 O.co2    27   G43      -0.7760
    836 OP2       -16.2340   -6.5490   20.1220 O.co2    27   G43      -0.7760
    837 O5'       -16.9270   -4.2410   20.8080 O.3      27   G43      -0.4989
    838 C5'       -16.9810   -3.1960   21.7890 C.3      27   G43       0.0558
    839 C4'       -18.1670   -2.2630   21.5910 C.3      27   G43       0.1065
    840 O4'       -18.1270   -1.6290   20.3130 O.3      27   G43      -0.3548
    841 C3'       -19.4830   -3.0170   21.6100 C.3      27   G43       0.2022
    842 O3'       -19.9480   -3.1020   22.9590 O.3      27   G43      -0.5246
    843 C2'       -20.4020   -2.0850   20.8430 C.3      27   G43       0.0670
    844 O2'       -20.9530   -1.0720   21.6930 O.3      27   G43      -0.6139
    845 C1'       -19.4630   -1.4880   19.7960 C.3      27   G43       0.0191
    846 N9        -19.6140   -2.1900   18.5100 N.ar     27   G43       0.0492
    847 C8        -18.9670   -3.2840   18.0410 C.ar     27   G43       0.1374
    848 N7        -19.2980   -3.7200   16.8730 N.ar     27   G43      -0.5709
    849 C5        -20.2950   -2.8140   16.5020 C.ar     27   G43       0.1744
    850 C6        -21.0690   -2.7490   15.3140 C.2      27   G43       0.4770
    851 O6        -21.0220   -3.4800   14.3440 O.2      27   G43      -0.5597
    852 N1        -21.9620   -1.6840   15.3440 N.am     27   G43      -0.4787
    853 C2        -22.0970   -0.7890   16.3860 C.2      27   G43       0.7657
    854 N2        -23.0140    0.1650   16.2290 N.pl3    27   G43      -0.9672
    855 N3        -21.3710   -0.8430   17.5080 N.2      27   G43      -0.6323
    856 C4        -20.4950   -1.8730   17.5010 C.ar     27   G43       0.1222
    857 H5'       -16.0890   -2.5890   21.7140 H        27   G43       0.0679
    858 H5''      -17.0300   -3.6580   22.7860 H        27   G43       0.0679
    859 H4'       -18.1690   -1.5020   22.3700 H        27   G43       0.1174
    860 H3'       -19.4020   -3.9960   21.1350 H        27   G43       0.0615
    861 H2'       -21.1920   -2.6570   20.3520 H        27   G43       0.0972
    862 HO2'      -21.7790   -0.7850   21.2960 H        27   G43       0.4186
    863 H1'       -19.6900   -0.4310   19.6620 H        27   G43       0.2006
    864 H8        -18.2090   -3.7880   18.6380 H        27   G43       0.1640
    865 H1        -22.5520   -1.5770   14.5320 H        27   G43       0.3424
    866 H21       -23.5610    0.2040   15.3810 H        27   G43       0.4364
    867 H22       -23.1630    0.8480   16.9580 H        27   G43       0.4364
    868 P         -21.0380   -4.2130   23.3770 P.3      28   C44       1.1662
    869 OP1       -21.3090   -4.0740   24.8250 O.co2    28   C44      -0.7760
    870 OP2       -20.6020   -5.5170   22.8290 O.co2    28   C44      -0.7760
    871 O5'       -22.3520   -3.7420   22.5720 O.3      28   C44      -0.4989
    872 C5'       -23.1610   -2.6740   23.0720 C.3      28   C44       0.0558
    873 C4'       -24.3150   -2.3420   22.1270 C.3      28   C44       0.1065
    874 O4'       -23.8540   -1.9520   20.8360 O.3      28   C44      -0.3548
    875 C3'       -25.1980   -3.5360   21.8670 C.3      28   C44       0.2022
    876 O3'       -26.1340   -3.6500   22.9450 O.3      28   C44      -0.5246
    877 C2'       -25.9280   -3.0850   20.6150 C.3      28   C44       0.0670
    878 O2'       -27.0170   -2.2080   20.9290 O.3      28   C44      -0.6139
    879 C1'       -24.8210   -2.3560   19.8510 C.3      28   C44       0.0066
    880 N1        -24.2120   -3.2470   18.8430 N.am     28   C44      -0.0484
    881 C2        -24.8070   -3.3020   17.5900 C.2      28   C44       0.7538
    882 O2        -25.7870   -2.6240   17.3460 O.2      28   C44      -0.6252
    883 N3        -24.2630   -4.1280   16.6550 N.2      28   C44      -0.7584
    884 C4        -23.1820   -4.8680   16.9350 C.2      28   C44       0.8185
    885 N4        -22.6750   -5.6650   15.9950 N.pl3    28   C44      -0.9530
    886 C5        -22.5670   -4.8150   18.2260 C.2      28   C44      -0.5215
    887 C6        -23.1120   -3.9950   19.1450 C.2      28   C44       0.0053
    888 H5'       -22.5400   -1.7880   23.1980 H        28   C44       0.0679
    889 H5''      -23.5680   -2.9630   24.0410 H        28   C44       0.0679
    890 H4'       -24.9190   -1.5440   22.5420 H        28   C44       0.1174
    891 H3'       -24.6230   -4.4500   21.7070 H        28   C44       0.0615
    892 H2'       -26.2690   -3.9450   20.0450 H        28   C44       0.0972
    893 HO2'      -27.4690   -2.0090   20.1060 H        28   C44       0.4186
    894 H1'       -25.2340   -1.4750   19.3580 H        28   C44       0.2029
    895 H41       -23.1050   -5.7060   15.0820 H        28   C44       0.4234
    896 H42       -21.8600   -6.2270   16.1950 H        28   C44       0.4234
    897 H5        -21.6890   -5.4170   18.4570 H        28   C44       0.1928
    898 H6        -22.6770   -3.9370   20.1410 H        28   C44       0.1958
    899 P         -26.8410   -5.0600   23.2730 P.3      29   C45       1.1662
    900 OP1       -27.6470   -4.9020   24.5030 O.co2    29   C45      -0.7760
    901 OP2       -25.8160   -6.1250   23.1900 O.co2    29   C45      -0.7760
    902 O5'       -27.8430   -5.2230   22.0290 O.3      29   C45      -0.4989
    903 C5'       -28.9550   -4.3390   21.8850 C.3      29   C45       0.0558
    904 C4'       -29.6100   -4.4910   20.5200 C.3      29   C45       0.1065
    905 O4'       -28.6680   -4.2110   19.4850 O.3      29   C45      -0.3548
    906 C3'       -30.0780   -5.9160   20.2750 C.3      29   C45       0.2022
    907 O3'       -31.4040   -6.1300   20.7730 O.3      29   C45      -0.6541
    908 C2'       -30.0300   -6.0030   18.7590 C.3      29   C45       0.0670
    909 O2'       -31.2160   -5.4620   18.1650 O.3      29   C45      -0.6139
    910 C1'       -28.8030   -5.1630   18.4250 C.3      29   C45       0.0066
    911 N1        -27.6020   -6.0140   18.3060 N.am     29   C45      -0.0484
    912 C2        -27.3420   -6.5950   17.0710 C.2      29   C45       0.7538
    913 O2        -28.1020   -6.4180   16.1370 O.2      29   C45      -0.6252
    914 N3        -26.2250   -7.3620   16.9430 N.2      29   C45      -0.7584
    915 C4        -25.3980   -7.5530   17.9800 C.2      29   C45       0.8185
    916 N4        -24.3070   -8.3020   17.8150 N.pl3    29   C45      -0.9530
    917 C5        -25.6650   -6.9590   19.2540 C.2      29   C45      -0.5215
    918 C6        -26.7730   -6.2050   19.3710 C.2      29   C45       0.0053
    919 H5'       -28.6100   -3.3120   22.0020 H        29   C45       0.0679
    920 H5''      -29.6890   -4.5600   22.6600 H        29   C45       0.0679
    921 H4'       -30.4520   -3.8070   20.4360 H        29   C45       0.1174
    922 H3'       -29.3720   -6.6260   20.7160 H        29   C45       0.0615
    923 H2'       -29.8730   -7.0390   18.4470 H        29   C45       0.0972
    924 HO2'      -31.1230   -4.5070   18.1610 H        29   C45       0.4186
    925 H1'       -28.9620   -4.6300   17.4920 H        29   C45       0.2029
    926 H41       -24.1150   -8.7230   16.9170 H        29   C45       0.4234
    927 H42       -23.6730   -8.4470   18.5870 H        29   C45       0.4234
    928 H5        -24.9890   -7.0990   20.0980 H        29   C45       0.1928
    929 H6        -27.0150   -5.7500   20.3300 H        29   C45       0.1958
    930 HO3'      -31.4980   -5.6020   21.5690 H        29   C45       0.4376
@<TRIPOS>BOND
     1    1    2 1
     2    2   21 1
     3    2   22 1
     4    2    3 1
     5    3    5 1
     6    3   23 1
     7    3    4 1
     8    4    9 1
     9    5   24 1
    10    5    7 1
    11    5    6 1
    12    7    9 1
    13    7   25 1
    14    7    8 1
    15    8   26 1
    16    9   27 1
    17    9   10 1
    18   10   20 ar
    19   10   11 ar
    20   11   28 1
    21   11   12 ar
    22   12   13 ar
    23   13   20 ar
    24   13   14 1
    25   14   15 2
    26   14   16 am
    27   16   17 1
    28   16   29 1
    29   17   18 2
    30   17   19 2
    31   18   31 1
    32   18   30 1
    33   19   20 1
    34   32    1 1
    35   33   35 1
    36   33   34 1
    37   33   36 1
    38   36   37 1
    39   37   38 1
    40   37   56 1
    41   37   57 1
    42   38   40 1
    43   38   58 1
    44   38   39 1
    45   39   44 1
    46   40   41 1
    47   40   42 1
    48   40   59 1
    49   42   43 1
    50   42   60 1
    51   42   44 1
    52   43   61 1
    53   44   45 1
    54   44   62 1
    55   45   46 ar
    56   45   55 ar
    57   46   47 ar
    58   46   63 1
    59   47   48 ar
    60   48   55 ar
    61   48   49 1
    62   49   50 2
    63   49   51 am
    64   51   52 1
    65   51   64 1
    66   52   53 2
    67   52   54 2
    68   53   66 1
    69   53   65 1
    70   54   55 1
    71   33    6 1
    72   67   69 1
    73   67   68 1
    74   67   70 1
    75   70   71 1
    76   71   87 1
    77   71   88 1
    78   71   72 1
    79   72   74 1
    80   72   89 1
    81   72   73 1
    82   73   78 1
    83   74   90 1
    84   74   76 1
    85   74   75 1
    86   76   91 1
    87   76   77 1
    88   76   78 1
    89   77   92 1
    90   78   93 1
    91   78   79 1
    92   79   80 am
    93   79   86 1
    94   80   82 1
    95   80   81 2
    96   82   83 2
    97   83   85 2
    98   83   84 2
    99   84   94 1
   100   84   95 1
   101   85   86 2
   102   85   96 1
   103   86   97 1
   104   41   67 1
   105   98   99 1
   106   98  100 1
   107   98  101 1
   108  101  102 1
   109  102  120 1
   110  102  121 1
   111  102  103 1
   112  103  105 1
   113  103  122 1
   114  103  104 1
   115  104  109 1
   116  105  123 1
   117  105  107 1
   118  105  106 1
   119  107  109 1
   120  107  124 1
   121  107  108 1
   122  108  125 1
   123  109  126 1
   124  109  110 1
   125  110  119 ar
   126  110  111 ar
   127  111  127 1
   128  111  112 ar
   129  112  113 ar
   130  113  119 ar
   131  113  114 ar
   132  114  116 ar
   133  114  115 1
   134  115  128 1
   135  115  129 1
   136  116  117 ar
   137  117  130 1
   138  117  118 ar
   139  118  119 ar
   140   75   98 1
   141  131  133 1
   142  131  132 1
   143  131  134 1
   144  134  135 1
   145  135  136 1
   146  135  154 1
   147  135  155 1
   148  136  138 1
   149  136  156 1
   150  136  137 1
   151  137  142 1
   152  138  139 1
   153  138  140 1
   154  138  157 1
   155  140  141 1
   156  140  158 1
   157  140  142 1
   158  141  159 1
   159  142  143 1
   160  142  160 1
   161  143  144 ar
   162  143  153 ar
   163  144  145 ar
   164  144  161 1
   165  145  146 ar
   166  146  153 ar
   167  146  147 1
   168  147  148 2
   169  147  149 am
   170  149  150 1
   171  149  162 1
   172  150  151 2
   173  150  152 2
   174  151  164 1
   175  151  163 1
   176  152  153 1
   177  106  131 1
   178  165  166 1
   179  165  167 1
   180  165  168 1
   181  168  169 1
   182  169  187 1
   183  169  188 1
   184  169  170 1
   185  170  172 1
   186  170  189 1
   187  170  171 1
   188  171  176 1
   189  172  190 1
   190  172  174 1
   191  172  173 1
   192  174  176 1
   193  174  191 1
   194  174  175 1
   195  175  192 1
   196  176  193 1
   197  176  177 1
   198  177  186 ar
   199  177  178 ar
   200  178  194 1
   201  178  179 ar
   202  179  180 ar
   203  180  186 ar
   204  180  181 ar
   205  181  183 ar
   206  181  182 1
   207  182  195 1
   208  182  196 1
   209  183  184 ar
   210  184  197 1
   211  184  185 ar
   212  185  186 ar
   213  139  165 1
   214  198  199 1
   215  198  200 1
   216  198  201 1
   217  201  202 1
   218  202  218 1
   219  202  219 1
   220  202  203 1
   221  203  205 1
   222  203  220 1
   223  203  204 1
   224  204  209 1
   225  205  221 1
   226  205  207 1
   227  205  206 1
   228  207  222 1
   229  207  208 1
   230  207  209 1
   231  208  223 1
   232  209  224 1
   233  209  210 1
   234  210  211 am
   235  210  217 1
   236  211  212 2
   237  211  213 am
   238  213  214 am
   239  213  225 1
   240  214  216 1
   241  214  215 2
   242  216  217 2
   243  216  226 1
   244  217  227 1
   245  173  198 1
   246  228  230 1
   247  228  229 1
   248  228  231 1
   249  231  232 1
   250  232  248 1
   251  232  249 1
   252  232  233 1
   253  233  235 1
   254  233  250 1
   255  233  234 1
   256  234  239 1
   257  235  251 1
   258  235  237 1
   259  235  236 1
   260  237  252 1
   261  237  238 1
   262  237  239 1
   263  238  253 1
   264  239  254 1
   265  239  240 1
   266  240  241 am
   267  240  247 1
   268  241  243 1
   269  241  242 2
   270  243  244 2
   271  244  246 2
   272  244  245 2
   273  245  255 1
   274  245  256 1
   275  246  247 2
   276  246  257 1
   277  247  258 1
   278  206  228 1
   279  259  260 1
   280  259  261 1
   281  259  262 1
   282  262  263 1
   283  263  279 1
   284  263  280 1
   285  263  264 1
   286  264  266 1
   287  264  281 1
   288  264  265 1
   289  265  270 1
   290  266  282 1
   291  266  268 1
   292  266  267 1
   293  268  283 1
   294  268  269 1
   295  268  270 1
   296  269  284 1
   297  270  285 1
   298  270  271 1
   299  271  272 am
   300  271  278 1
   301  272  273 2
   302  272  274 am
   303  274  275 am
   304  274  286 1
   305  275  277 1
   306  275  276 2
   307  277  278 2
   308  277  287 1
   309  278  288 1
   310  236  259 1
   311  289  291 1
   312  289  290 1
   313  289  292 1
   314  292  293 1
   315  293  294 1
   316  293  312 1
   317  293  313 1
   318  294  296 1
   319  294  314 1
   320  294  295 1
   321  295  300 1
   322  296  297 1
   323  296  298 1
   324  296  315 1
   325  298  299 1
   326  298  316 1
   327  298  300 1
   328  299  317 1
   329  300  301 1
   330  300  318 1
   331  301  302 ar
   332  301  311 ar
   333  302  303 ar
   334  302  319 1
   335  303  304 ar
   336  304  311 ar
   337  304  305 1
   338  305  306 2
   339  305  307 am
   340  307  308 1
   341  307  320 1
   342  308  309 2
   343  308  310 2
   344  309  322 1
   345  309  321 1
   346  310  311 1
   347  267  289 1
   348  323  324 1
   349  323  325 1
   350  323  326 1
   351  326  327 1
   352  327  345 1
   353  327  346 1
   354  327  328 1
   355  328  330 1
   356  328  347 1
   357  328  329 1
   358  329  334 1
   359  330  348 1
   360  330  332 1
   361  330  331 1
   362  332  334 1
   363  332  349 1
   364  332  333 1
   365  333  350 1
   366  334  351 1
   367  334  335 1
   368  335  344 ar
   369  335  336 ar
   370  336  352 1
   371  336  337 ar
   372  337  338 ar
   373  338  344 ar
   374  338  339 ar
   375  339  341 ar
   376  339  340 1
   377  340  353 1
   378  340  354 1
   379  341  342 ar
   380  342  355 1
   381  342  343 ar
   382  343  344 ar
   383  297  323 1
   384  356  358 1
   385  356  357 1
   386  356  359 1
   387  359  360 1
   388  360  361 1
   389  360  379 1
   390  360  380 1
   391  361  363 1
   392  361  381 1
   393  361  362 1
   394  362  367 1
   395  363  364 1
   396  363  365 1
   397  363  382 1
   398  365  366 1
   399  365  383 1
   400  365  367 1
   401  366  384 1
   402  367  368 1
   403  367  385 1
   404  368  369 ar
   405  368  378 ar
   406  369  370 ar
   407  369  386 1
   408  370  371 ar
   409  371  378 ar
   410  371  372 1
   411  372  373 2
   412  372  374 am
   413  374  375 1
   414  374  387 1
   415  375  376 2
   416  375  377 2
   417  376  389 1
   418  376  388 1
   419  377  378 1
   420  331  356 1
   421  390  392 1
   422  390  391 1
   423  390  393 1
   424  393  394 1
   425  394  410 1
   426  394  411 1
   427  394  395 1
   428  395  397 1
   429  395  412 1
   430  395  396 1
   431  396  401 1
   432  397  413 1
   433  397  399 1
   434  397  398 1
   435  399  414 1
   436  399  400 1
   437  399  401 1
   438  400  415 1
   439  401  416 1
   440  401  402 1
   441  402  403 am
   442  402  409 1
   443  403  405 1
   444  403  404 2
   445  405  406 2
   446  406  408 2
   447  406  407 2
   448  407  417 1
   449  407  418 1
   450  408  409 2
   451  408  419 1
   452  409  420 1
   453  364  390 1
   454  421  423 1
   455  421  422 1
   456  421  424 1
   457  424  425 1
   458  425  441 1
   459  425  442 1
   460  425  426 1
   461  426  428 1
   462  426  443 1
   463  426  427 1
   464  427  432 1
   465  428  444 1
   466  428  430 1
   467  428  429 1
   468  430  445 1
   469  430  431 1
   470  430  432 1
   471  431  446 1
   472  432  447 1
   473  432  433 1
   474  433  434 am
   475  433  440 1
   476  434  436 1
   477  434  435 2
   478  436  437 2
   479  437  439 2
   480  437  438 2
   481  438  448 1
   482  438  449 1
   483  439  440 2
   484  439  450 1
   485  440  451 1
   486  398  421 1
   487  452  453 1
   488  452  454 1
   489  452  455 1
   490  455  456 1
   491  456  472 1
   492  456  473 1
   493  456  457 1
   494  457  459 1
   495  457  474 1
   496  457  458 1
   497  458  463 1
   498  459  475 1
   499  459  461 1
   500  459  460 1
   501  461  476 1
   502  461  462 1
   503  461  463 1
   504  462  477 1
   505  463  478 1
   506  463  464 1
   507  464  465 am
   508  464  471 1
   509  465  466 2
   510  465  467 am
   511  467  468 am
   512  467  479 1
   513  468  470 1
   514  468  469 2
   515  470  471 2
   516  470  480 1
   517  471  481 1
   518  429  452 1
   519  482  484 1
   520  482  483 1
   521  482  485 1
   522  485  486 1
   523  486  487 1
   524  486  505 1
   525  486  506 1
   526  487  489 1
   527  487  507 1
   528  487  488 1
   529  488  493 1
   530  489  490 1
   531  489  491 1
   532  489  508 1
   533  491  492 1
   534  491  509 1
   535  491  493 1
   536  492  510 1
   537  493  494 1
   538  493  511 1
   539  494  495 ar
   540  494  504 ar
   541  495  496 ar
   542  495  512 1
   543  496  497 ar
   544  497  504 ar
   545  497  498 1
   546  498  499 2
   547  498  500 am
   548  500  501 1
   549  500  513 1
   550  501  502 2
   551  501  503 2
   552  502  515 1
   553  502  514 1
   554  503  504 1
   555  460  482 1
   556  516  518 1
   557  516  517 1
   558  516  519 1
   559  519  520 1
   560  520  521 1
   561  520  539 1
   562  520  540 1
   563  521  523 1
   564  521  541 1
   565  521  522 1
   566  522  527 1
   567  523  524 1
   568  523  525 1
   569  523  542 1
   570  525  526 1
   571  525  543 1
   572  525  527 1
   573  526  544 1
   574  527  528 1
   575  527  545 1
   576  528  529 ar
   577  528  538 ar
   578  529  530 ar
   579  529  546 1
   580  530  531 ar
   581  531  538 ar
   582  531  532 1
   583  532  533 2
   584  532  534 am
   585  534  535 1
   586  534  547 1
   587  535  536 2
   588  535  537 2
   589  536  549 1
   590  536  548 1
   591  537  538 1
   592  490  516 1
   593  550  552 1
   594  550  551 1
   595  550  553 1
   596  553  554 1
   597  554  555 1
   598  554  573 1
   599  554  574 1
   600  555  557 1
   601  555  575 1
   602  555  556 1
   603  556  561 1
   604  557  558 1
   605  557  559 1
   606  557  576 1
   607  559  560 1
   608  559  577 1
   609  559  561 1
   610  560  578 1
   611  561  562 1
   612  561  579 1
   613  562  563 ar
   614  562  572 ar
   615  563  564 ar
   616  563  580 1
   617  564  565 ar
   618  565  572 ar
   619  565  566 1
   620  566  567 2
   621  566  568 am
   622  568  569 1
   623  568  581 1
   624  569  570 2
   625  569  571 2
   626  570  583 1
   627  570  582 1
   628  571  572 1
   629  524  550 1
   630  584  585 1
   631  584  586 1
   632  584  587 1
   633  587  588 1
   634  588  606 1
   635  588  607 1
   636  588  589 1
   637  589  591 1
   638  589  608 1
   639  589  590 1
   640  590  595 1
   641  591  609 1
   642  591  593 1
   643  591  592 1
   644  593  595 1
   645  593  610 1
   646  593  594 1
   647  594  611 1
   648  595  612 1
   649  595  596 1
   650  596  605 ar
   651  596  597 ar
   652  597  613 1
   653  597  598 ar
   654  598  599 ar
   655  599  605 ar
   656  599  600 ar
   657  600  602 ar
   658  600  601 1
   659  601  614 1
   660  601  615 1
   661  602  603 ar
   662  603  616 1
   663  603  604 ar
   664  604  605 ar
   665  558  584 1
   666  617  619 1
   667  617  618 1
   668  617  620 1
   669  620  621 1
   670  621  622 1
   671  621  640 1
   672  621  641 1
   673  622  624 1
   674  622  642 1
   675  622  623 1
   676  623  628 1
   677  624  625 1
   678  624  626 1
   679  624  643 1
   680  626  627 1
   681  626  644 1
   682  626  628 1
   683  627  645 1
   684  628  629 1
   685  628  646 1
   686  629  630 ar
   687  629  639 ar
   688  630  631 ar
   689  630  647 1
   690  631  632 ar
   691  632  639 ar
   692  632  633 1
   693  633  634 2
   694  633  635 am
   695  635  636 1
   696  635  648 1
   697  636  637 2
   698  636  638 2
   699  637  650 1
   700  637  649 1
   701  638  639 1
   702  592  617 1
   703  651  653 1
   704  651  652 1
   705  651  654 1
   706  654  655 1
   707  655  671 1
   708  655  672 1
   709  655  656 1
   710  656  658 1
   711  656  673 1
   712  656  657 1
   713  657  662 1
   714  658  674 1
   715  658  660 1
   716  658  659 1
   717  660  675 1
   718  660  661 1
   719  660  662 1
   720  661  676 1
   721  662  677 1
   722  662  663 1
   723  663  664 am
   724  663  670 1
   725  664  666 1
   726  664  665 2
   727  666  667 2
   728  667  669 2
   729  667  668 2
   730  668  678 1
   731  668  679 1
   732  669  670 2
   733  669  680 1
   734  670  681 1
   735  625  651 1
   736  682  683 1
   737  682  684 1
   738  682  685 1
   739  685  686 1
   740  686  702 1
   741  686  703 1
   742  686  687 1
   743  687  689 1
   744  687  704 1
   745  687  688 1
   746  688  693 1
   747  689  705 1
   748  689  691 1
   749  689  690 1
   750  691  706 1
   751  691  692 1
   752  691  693 1
   753  692  707 1
   754  693  708 1
   755  693  694 1
   756  694  695 am
   757  694  701 1
   758  695  696 2
   759  695  697 am
   760  697  698 am
   761  697  709 1
   762  698  700 1
   763  698  699 2
   764  700  701 2
   765  700  710 1
   766  701  711 1
   767  659  682 1
   768  712  714 1
   769  712  713 1
   770  712  715 1
   771  715  716 1
   772  716  732 1
   773  716  733 1
   774  716  717 1
   775  717  719 1
   776  717  734 1
   777  717  718 1
   778  718  723 1
   779  719  735 1
   780  719  721 1
   781  719  720 1
   782  721  736 1
   783  721  722 1
   784  721  723 1
   785  722  737 1
   786  723  738 1
   787  723  724 1
   788  724  725 am
   789  724  731 1
   790  725  727 1
   791  725  726 2
   792  727  728 2
   793  728  730 2
   794  728  729 2
   795  729  739 1
   796  729  740 1
   797  730  731 2
   798  730  741 1
   799  731  742 1
   800  690  712 1
   801  743  744 1
   802  743  745 1
   803  743  746 1
   804  746  747 1
   805  747  763 1
   806  747  764 1
   807  747  748 1
   808  748  750 1
   809  748  765 1
   810  748  749 1
   811  749  754 1
   812  750  766 1
   813  750  752 1
   814  750  751 1
   815  752  767 1
   816  752  753 1
   817  752  754 1
   818  753  768 1
   819  754  769 1
   820  754  755 1
   821  755  756 am
   822  755  762 1
   823  756  757 2
   824  756  758 am
   825  758  759 am
   826  758  770 1
   827  759  761 1
   828  759  760 2
   829  761  762 2
   830  761  771 1
   831  762  772 1
   832  720  743 1
   833  773  775 1
   834  773  774 1
   835  773  776 1
   836  776  777 1
   837  777  793 1
   838  777  794 1
   839  777  778 1
   840  778  780 1
   841  778  795 1
   842  778  779 1
   843  779  784 1
   844  780  796 1
   845  780  782 1
   846  780  781 1
   847  782  797 1
   848  782  783 1
   849  782  784 1
   850  783  798 1
   851  784  799 1
   852  784  785 1
   853  785  786 am
   854  785  792 1
   855  786  788 1
   856  786  787 2
   857  788  789 2
   858  789  791 2
   859  789  790 2
   860  790  800 1
   861  790  801 1
   862  791  792 2
   863  791  802 1
   864  792  803 1
   865  751  773 1
   866  804  805 1
   867  804  806 1
   868  804  807 1
   869  807  808 1
   870  808  824 1
   871  808  825 1
   872  808  809 1
   873  809  811 1
   874  809  826 1
   875  809  810 1
   876  810  815 1
   877  811  827 1
   878  811  813 1
   879  811  812 1
   880  813  828 1
   881  813  814 1
   882  813  815 1
   883  814  829 1
   884  815  830 1
   885  815  816 1
   886  816  817 am
   887  816  823 1
   888  817  818 2
   889  817  819 am
   890  819  820 am
   891  819  831 1
   892  820  822 1
   893  820  821 2
   894  822  823 2
   895  822  832 1
   896  823  833 1
   897  781  804 1
   898  834  836 1
   899  834  835 1
   900  834  837 1
   901  837  838 1
   902  838  839 1
   903  838  857 1
   904  838  858 1
   905  839  841 1
   906  839  859 1
   907  839  840 1
   908  840  845 1
   909  841  842 1
   910  841  843 1
   911  841  860 1
   912  843  844 1
   913  843  861 1
   914  843  845 1
   915  844  862 1
   916  845  846 1
   917  845  863 1
   918  846  847 ar
   919  846  856 ar
   920  847  848 ar
   921  847  864 1
   922  848  849 ar
   923  849  856 ar
   924  849  850 1
   925  850  851 2
   926  850  852 am
   927  852  853 1
   928  852  865 1
   929  853  854 2
   930  853  855 2
   931  854  867 1
   932  854  866 1
   933  855  856 1
   934  812  834 1
   935  868  870 1
   936  868  869 1
   937  868  871 1
   938  871  872 1
   939  872  888 1
   940  872  889 1
   941  872  873 1
   942  873  875 1
   943  873  890 1
   944  873  874 1
   945  874  879 1
   946  875  891 1
   947  875  877 1
   948  875  876 1
   949  877  892 1
   950  877  878 1
   951  877  879 1
   952  878  893 1
   953  879  894 1
   954  879  880 1
   955  880  881 am
   956  880  887 1
   957  881  883 1
   958  881  882 2
   959  883  884 2
   960  884  886 2
   961  884  885 2
   962  885  895 1
   963  885  896 1
   964  886  887 2
   965  886  897 1
   966  887  898 1
   967  842  868 1
   968  902  903 1
   969  903  919 1
   970  903  920 1
   971  903  904 1
   972  904  906 1
   973  904  921 1
   974  904  905 1
   975  905  910 1
   976  906  922 1
   977  906  908 1
   978  906  907 1
   979  908  923 1
   980  908  909 1
   981  908  910 1
   982  909  924 1
   983  910  925 1
   984  910  911 1
   985  911  918 1
   986  911  912 am
   987  912  913 2
   988  912  914 1
   989  914  915 2
   990  915  917 2
   991  915  916 2
   992  916  926 1
   993  916  927 1
   994  917  918 2
   995  917  928 1
   996  918  929 1
   997  899  900 1
   998  899  901 1
   999  899  902 1
  1000  930  907 1
  1001  876  899 1
@<TRIPOS>SUBSTRUCTURE
     1   G17       3 RESIDUE           4 B       G     1 ROOT
     2   G18      38 RESIDUE           4 B       G     2
     3   C19      72 RESIDUE           4 B       C     2
     4   A20     103 RESIDUE           4 B       A     2
     5   G21     136 RESIDUE           4 B       G     2
     6   A22     170 RESIDUE           4 B       A     2
     7   U23     203 RESIDUE           4 B       U     2
     8   C24     233 RESIDUE           4 B       C     2
     9   U25     264 RESIDUE           4 B       U     2
    10   G26     294 RESIDUE           4 B       G     2
    11   A27     328 RESIDUE           4 B       A     2
    12   G28     361 RESIDUE           4 B       G     2
    13   C29     395 RESIDUE           4 B       C     2
    14   C30     426 RESIDUE           4 B       C     2
    15   U31     457 RESIDUE           4 B       U     2
    16   G32     487 RESIDUE           4 B       G     2
    17   G33     521 RESIDUE           4 B       G     2
    18   G34     555 RESIDUE           4 B       G     2
    19   A35     589 RESIDUE           4 B       A     2
    20   G36     622 RESIDUE           4 B       G     2
    21   C37     656 RESIDUE           4 B       C     2
    22   U38     687 RESIDUE           4 B       U     2
    23   C39     717 RESIDUE           4 B       C     2
    24   U40     748 RESIDUE           4 B       U     2
    25   C41     778 RESIDUE           4 B       C     2
    26   U42     809 RESIDUE           4 B       U     2
    27   G43     839 RESIDUE           4 B       G     2
    28   C44     873 RESIDUE           4 B       C     2
    29   C45     904 RESIDUE           4 B       C     1
