@<TRIPOS>MOLECULE
3GAO.pdb
2145 2312 67 0 0
NUCLEIC_ACID
AMBER ff14SB


@<TRIPOS>ATOM
      1 O5'         3.0420    4.4440   20.0770 O.3       1   G15      -0.6223
      2 C5'         4.1130    4.3230   21.0220 C.3       1   G15       0.0558
      3 C4'         4.2620    2.9170   21.5610 C.3       1   G15       0.1065
      4 O4'         2.9780    2.4610   22.0650 O.3       1   G15      -0.3548
      5 C3'         4.7020    1.8360   20.5840 C.3       1   G15       0.2022
      6 O3'         6.1100    1.9240   20.3010 O.3       1   G15      -0.5246
      7 C2'         4.1480    0.5710   21.2370 C.3       1   G15       0.0670
      8 O2'         4.9020    0.0960   22.3350 O.3       1   G15      -0.6139
      9 C1'         2.8040    1.0850   21.7650 C.3       1   G15       0.0191
     10 N9          1.7320    0.9950   20.7780 N.ar      1   G15       0.0492
     11 C8          1.0440    2.0490   20.2240 C.ar      1   G15       0.1374
     12 N7          0.1390    1.6770   19.3620 N.ar      1   G15      -0.5709
     13 C5          0.2310    0.2920   19.3440 C.ar      1   G15       0.1744
     14 C6         -0.5060   -0.6640   18.6000 C.2       1   G15       0.4770
     15 O6         -1.4140   -0.4700   17.7820 O.2       1   G15      -0.5597
     16 N1         -0.0930   -1.9610   18.8860 N.am      1   G15      -0.4787
     17 C2          0.8990   -2.2970   19.7750 C.2       1   G15       0.7657
     18 N2          1.1500   -3.6080   19.9120 N.pl3     1   G15      -0.9672
     19 N3          1.5930   -1.4140   20.4780 N.2       1   G15      -0.6323
     20 C4          1.2090   -0.1470   20.2130 C.ar      1   G15       0.1222
     21 H5'         3.9192    4.9972   21.8563 H         1   G15       0.0679
     22 H5''        5.0450    4.6170   20.5393 H         1   G15       0.0679
     23 H4'         4.9689    2.9396   22.3904 H         1   G15       0.1174
     24 H3'         4.1635    1.9921   19.6492 H         1   G15       0.0615
     25 H2'         4.0001   -0.2158   20.4973 H         1   G15       0.0972
     26 H1'         2.5258    0.5400   22.6670 H         1   G15       0.2006
     27 H8          1.2342    3.0815   20.4775 H         1   G15       0.1640
     28 H1         -0.5591   -2.7151   18.4020 H         1   G15       0.3424
     29 H21         0.6214   -4.2820   19.3768 H         1   G15       0.4364
     30 H22         1.8675   -3.9208   20.5503 H         1   G15       0.4364
     31 HO5'        3.2724    5.0985   19.4136 H         1   G15       0.4295
     32 HO2'        4.3073   -0.2062   23.0254 H         1   G15       0.4186
     33 P           7.1390    0.7770   20.7860 P.3       2   G16       1.1662
     34 OP1         7.1920    0.7900   22.2710 O.co2     2   G16      -0.7760
     35 OP2         8.3930    0.9790   20.0130 O.co2     2   G16      -0.7760
     36 O5'         6.5240   -0.6170   20.3170 O.3       2   G16      -0.4989
     37 C5'         6.9760   -1.8240   20.9290 C.3       2   G16       0.0558
     38 C4'         6.5550   -3.0400   20.1340 C.3       2   G16       0.1065
     39 O4'         5.1040   -3.1140   20.0990 O.3       2   G16      -0.3548
     40 C3'         6.9600   -3.0620   18.6680 C.3       2   G16       0.2022
     41 O3'         8.2870   -3.5390   18.4840 O.3       2   G16      -0.5246
     42 C2'         5.9400   -4.0220   18.0690 C.3       2   G16       0.0670
     43 O2'         6.2590   -5.3780   18.3060 O.3       2   G16      -0.6139
     44 C1'         4.6860   -3.6590   18.8590 C.3       2   G16       0.0191
     45 N9          3.8490   -2.6870   18.1660 N.ar      2   G16       0.0492
     46 C8          3.7980   -1.3280   18.3620 C.ar      2   G16       0.1374
     47 N7          2.9320   -0.7330   17.5870 N.ar      2   G16      -0.5709
     48 C5          2.3830   -1.7630   16.8330 C.ar      2   G16       0.1744
     49 C6          1.3850   -1.7350   15.8240 C.2       2   G16       0.4770
     50 O6          0.7600   -0.7610   15.3810 O.2       2   G16      -0.5597
     51 N1          1.1330   -3.0090   15.3200 N.am      2   G16      -0.4787
     52 C2          1.7590   -4.1600   15.7330 C.2       2   G16       0.7657
     53 N2          1.3880   -5.2940   15.1230 N.pl3     2   G16      -0.9672
     54 N3          2.6850   -4.1970   16.6750 N.2       2   G16      -0.6323
     55 C4          2.9450   -2.9720   17.1760 C.ar      2   G16       0.1222
     56 H5'         8.0639   -1.8024   20.9935 H         2   G16       0.0679
     57 H5''        6.5598   -1.8926   21.9341 H         2   G16       0.0679
     58 H4'         6.9434   -3.9339   20.6220 H         2   G16       0.1174
     59 H3'         6.8498   -2.0702   18.2296 H         2   G16       0.0615
     60 H2'         5.8012   -3.8323   17.0046 H         2   G16       0.0972
     61 H1'         4.1057   -4.5631   19.0435 H         2   G16       0.2006
     62 H8          4.4106   -0.8062   19.0823 H         2   G16       0.1640
     63 H1          0.4356   -3.0930   14.5943 H         2   G16       0.3424
     64 H21         0.6815   -5.2716   14.4016 H         2   G16       0.4364
     65 H22         1.8149   -6.1712   15.3846 H         2   G16       0.4364
     66 HO2'        6.2293   -5.8636   17.4784 H         2   G16       0.4186
     67 P           8.9980   -3.3720   17.0510 P.3       3   A17       1.1662
     68 OP1        10.3380   -4.0130   17.1090 O.co2     3   A17      -0.7760
     69 OP2         8.8830   -1.9440   16.6590 O.co2     3   A17      -0.7760
     70 O5'         8.0830   -4.2260   16.0660 O.3       3   A17      -0.4989
     71 C5'         8.1130   -5.6490   16.0960 C.3       3   A17       0.0558
     72 C4'         7.4170   -6.2090   14.8800 C.3       3   A17       0.1065
     73 O4'         5.9890   -5.9580   14.9710 O.3       3   A17      -0.3548
     74 C3'         7.8260   -5.5660   13.5700 C.3       3   A17       0.2022
     75 O3'         9.0290   -6.1470   13.0850 O.3       3   A17      -0.5246
     76 C2'         6.6170   -5.8420   12.6830 C.3       3   A17       0.0670
     77 O2'         6.6120   -7.1500   12.1460 O.3       3   A17      -0.6139
     78 C1'         5.4670   -5.6830   13.6810 C.3       3   A17       0.0394
     79 N9          4.9010   -4.3350   13.7060 N.ar      3   A17      -0.0251
     80 C8          5.3240   -3.2710   14.4640 C.ar      3   A17       0.2006
     81 N7          4.6260   -2.1770   14.2780 N.ar      3   A17      -0.6073
     82 C5          3.6780   -2.5440   13.3320 C.ar      3   A17       0.0515
     83 C6          2.6360   -1.8300   12.7100 C.ar      3   A17       0.7009
     84 N6          2.3670   -0.5450   12.9610 N.pl3     3   A17      -0.9019
     85 N1          1.8720   -2.4900   11.8130 N.ar      3   A17      -0.7615
     86 C2          2.1420   -3.7800   11.5650 C.ar      3   A17       0.5875
     87 N3          3.0920   -4.5590   12.0850 N.ar      3   A17      -0.6997
     88 C4          3.8350   -3.8720   12.9720 C.ar      3   A17       0.3053
     89 H5'         9.1491   -5.9873   16.1057 H         3   A17       0.0679
     90 H5''        7.6090   -6.0022   16.9956 H         3   A17       0.0679
     91 H4'         7.5925   -7.2834   14.8257 H         3   A17       0.1174
     92 H3'         7.9556   -4.4920   13.7038 H         3   A17       0.0615
     93 H2'         6.5438   -5.0989   11.8889 H         3   A17       0.0972
     94 H1'         4.6817   -6.4017   13.4468 H         3   A17       0.2007
     95 H8          6.1556   -3.3300   15.1506 H         3   A17       0.1553
     96 H2          1.4981   -4.2565   10.8406 H         3   A17       0.0473
     97 HO2'        7.1741   -7.1793   11.3683 H         3   A17       0.4186
     98 H61         1.4559   -0.2620   12.6294 H         3   A17       0.4115
     99 H62         3.0074    0.0775   13.4326 H         3   A17       0.4115
    100 P           9.8930   -5.3700   11.9770 P.3       4   C18       1.1662
    101 OP1        11.2630   -5.9440   11.9320 O.co2     4   C18      -0.7760
    102 OP2         9.7140   -3.9120   12.2110 O.co2     4   C18      -0.7760
    103 O5'         9.1470   -5.7410   10.6250 O.3       4   C18      -0.4989
    104 C5'         9.0490   -4.7970    9.5780 C.3       4   C18       0.0558
    105 C4'         7.7550   -4.9810    8.8320 C.3       4   C18       0.1065
    106 O4'         6.6380   -4.7610    9.7320 O.3       4   C18      -0.3548
    107 C3'         7.5390   -3.9750    7.7230 C.3       4   C18       0.2022
    108 O3'         8.2450   -4.3690    6.5590 O.3       4   C18      -0.5246
    109 C2'         6.0240   -3.9740    7.5750 C.3       4   C18       0.0670
    110 O2'         5.5310   -5.0680    6.8280 O.3       4   C18      -0.6139
    111 C1'         5.5890   -4.1010    9.0370 C.3       4   C18       0.0066
    112 N1          5.3900   -2.7860    9.6660 N.am      4   C18      -0.0484
    113 C2          4.3220   -1.9940    9.2460 C.2       4   C18       0.7538
    114 O2          3.5670   -2.4260    8.3580 O.2       4   C18      -0.6252
    115 N3          4.1380   -0.7800    9.8130 N.2       4   C18      -0.7584
    116 C4          4.9730   -0.3530   10.7610 C.2       4   C18       0.8185
    117 N4          4.7550    0.8550   11.2860 N.pl3     4   C18      -0.9530
    118 C5          6.0680   -1.1420   11.2110 C.2       4   C18      -0.5215
    119 C6          6.2380   -2.3410   10.6430 C.2       4   C18       0.0053
    120 H5'         9.0836   -3.7909    9.9960 H         4   C18       0.0679
    121 H5''        9.8844   -4.9316    8.8909 H         4   C18       0.0679
    122 H4'         7.7058   -5.9913    8.4259 H         4   C18       0.1174
    123 H3'         7.8791   -2.9910    8.0457 H         4   C18       0.0615
    124 H2'         5.6789   -3.0311    7.1509 H         4   C18       0.0972
    125 H1'         4.6725   -4.6874    9.1028 H         4   C18       0.2029
    126 H5          6.7362   -0.7866   11.9815 H         4   C18       0.1928
    127 H6          7.0580   -2.9680   10.9608 H         4   C18       0.1958
    128 H41         3.9772    1.4129   10.9636 H         4   C18       0.4234
    129 H42         5.3679    1.2110   12.0055 H         4   C18       0.4234
    130 HO2'        4.5721   -5.0795    6.8726 H         4   C18       0.4186
    131 P           9.0570   -3.2690    5.7280 P.3       5   A19       1.1662
    132 OP1         9.9180   -3.9610    4.7390 O.co2     5   A19      -0.7760
    133 OP2         9.6660   -2.3290    6.6990 O.co2     5   A19      -0.7760
    134 O5'         7.9000   -2.5040    4.9520 O.3       5   A19      -0.4989
    135 C5'         6.9590   -3.2280    4.1670 C.3       5   A19       0.0558
    136 C4'         5.8960   -2.2970    3.6480 C.3       5   A19       0.1065
    137 O4'         5.0100   -1.9090    4.7320 O.3       5   A19      -0.3548
    138 C3'         6.4370   -0.9780    3.1310 C.3       5   A19       0.2022
    139 O3'         6.9180   -1.1010    1.8030 O.3       5   A19      -0.5246
    140 C2'         5.2270   -0.0650    3.2470 C.3       5   A19       0.0670
    141 O2'         4.3130   -0.2550    2.1870 O.3       5   A19      -0.6139
    142 C1'         4.6000   -0.5640    4.5490 C.3       5   A19       0.0394
    143 N9          4.9940    0.2060    5.7280 N.ar      5   A19      -0.0251
    144 C8          5.9310   -0.1120    6.6810 C.ar      5   A19       0.2006
    145 N7          6.0240    0.7720    7.6460 N.ar      5   A19      -0.6073
    146 C5          5.0900    1.7400    7.3020 C.ar      5   A19       0.0515
    147 C6          4.6870    2.9350    7.9280 C.ar      5   A19       0.7009
    148 N6          5.1850    3.3740    9.0880 N.pl3     5   A19      -0.9019
    149 N1          3.7330    3.6710    7.3170 N.ar      5   A19      -0.7615
    150 C2          3.2200    3.2260    6.1640 C.ar      5   A19       0.5875
    151 N3          3.5080    2.1190    5.4850 N.ar      5   A19      -0.6997
    152 C4          4.4610    1.4110    6.1160 C.ar      5   A19       0.3053
    153 H5'         7.4730   -3.6933    3.3259 H         5   A19       0.0679
    154 H5''        6.4952   -4.0009    4.7799 H         5   A19       0.0679
    155 H4'         5.3234   -2.7926    2.8641 H         5   A19       0.1174
    156 H3'         7.2345   -0.6224    3.7834 H         5   A19       0.0615
    157 H2'         5.5267    0.9799    3.3278 H         5   A19       0.0972
    158 H1'         3.5146   -0.5346    4.4534 H         5   A19       0.2007
    159 H8          6.5349   -1.0064    6.6397 H         5   A19       0.1553
    160 H2          2.4632    3.8564    5.7209 H         5   A19       0.0473
    161 HO2'        4.2575    0.5480    1.6639 H         5   A19       0.4186
    162 H61         4.6338    4.1417    9.4443 H         5   A19       0.4115
    163 H62         6.0001    2.9909    9.5452 H         5   A19       0.4115
    164 P           8.1300   -0.1710    1.3170 P.3       6   U20       1.1662
    165 OP1         8.5570   -0.6250   -0.0320 O.co2     6   U20      -0.7760
    166 OP2         9.1180   -0.1190    2.4250 O.co2     6   U20      -0.7760
    167 O5'         7.4530    1.2620    1.1790 O.3       6   U20      -0.4989
    168 C5'         6.3700    1.4510    0.2810 C.3       6   U20       0.0558
    169 C4'         5.7880    2.8350    0.4260 C.3       6   U20       0.1065
    170 O4'         5.0940    2.9460    1.7010 O.3       6   U20      -0.3548
    171 C3'         6.8140    3.9500    0.4880 C.3       6   U20       0.2022
    172 O3'         7.2970    4.3230   -0.7930 O.3       6   U20      -0.5246
    173 C2'         6.0400    5.0630    1.1790 C.3       6   U20       0.0670
    174 O2'         5.1680    5.7370    0.2970 O.3       6   U20      -0.6139
    175 C1'         5.2200    4.2710    2.1960 C.3       6   U20       0.0674
    176 N1          5.8570    4.2480    3.5190 N.am      6   U20       0.0418
    177 C2          5.5840    5.3100    4.3550 C.2       6   U20       0.4687
    178 O2          4.8260    6.2100    4.0400 O.2       6   U20      -0.5477
    179 N3          6.2290    5.2810    5.5680 N.am      6   U20      -0.3549
    180 C4          7.1000    4.3130    6.0190 C.2       6   U20       0.5952
    181 O4          7.6500    4.4560    7.1150 O.2       6   U20      -0.5761
    182 C5          7.3170    3.2330    5.1020 C.2       6   U20      -0.3635
    183 C6          6.7010    3.2380    3.9120 C.2       6   U20      -0.1126
    184 H5'         6.7260    1.3186   -0.7407 H         6   U20       0.0679
    185 H5''        5.5965    0.7122    0.4905 H         6   U20       0.0679
    186 H4'         5.0894    3.0254   -0.3887 H         6   U20       0.1174
    187 H3'         7.6493    3.6421    1.1170 H         6   U20       0.0615
    188 H2'         6.7140    5.7611    1.6754 H         6   U20       0.0972
    189 H1'         4.2292    4.7169    2.2829 H         6   U20       0.1824
    190 H3          6.0452    6.0507    6.1956 H         6   U20       0.3154
    191 H5          7.9742    2.4186    5.3690 H         6   U20       0.1811
    192 H6          6.8751    2.4149    3.2347 H         6   U20       0.2188
    193 HO2'        4.6092    6.3373    0.7960 H         6   U20       0.4186
    194 P           8.8010    4.8750   -0.9360 P.3       7   A21       1.1662
    195 OP1         8.9850    5.2720   -2.3540 O.co2     7   A21      -0.7760
    196 OP2         9.7210    3.8860   -0.3230 O.co2     7   A21      -0.7760
    197 O5'         8.8050    6.1950   -0.0410 O.3       7   A21      -0.4989
    198 C5'         8.0500    7.3220   -0.4480 C.3       7   A21       0.0558
    199 C4'         8.2880    8.4980    0.4660 C.3       7   A21       0.1065
    200 O4'         7.6650    8.2520    1.7590 O.3       7   A21      -0.3548
    201 C3'         9.7510    8.7150    0.8290 C.3       7   A21       0.2022
    202 O3'        10.4470    9.4200   -0.1910 O.3       7   A21      -0.5246
    203 C2'         9.6520    9.5240    2.1160 C.3       7   A21       0.0670
    204 O2'         9.4330   10.8990    1.8810 O.3       7   A21      -0.6139
    205 C1'         8.4110    8.9140    2.7690 C.3       7   A21       0.0394
    206 N9          8.7080    8.0130    3.8830 N.ar      7   A21      -0.0251
    207 C8          9.1580    6.7190    3.8920 C.ar      7   A21       0.2006
    208 N7          9.4090    6.2570    5.0950 N.ar      7   A21      -0.6073
    209 C5          9.0820    7.3150    5.9350 C.ar      7   A21       0.0515
    210 C6          9.1400    7.4800    7.3400 C.ar      7   A21       0.7009
    211 N6          9.5780    6.5440    8.1900 N.pl3     7   A21      -0.9019
    212 N1          8.7320    8.6650    7.8490 N.ar      7   A21      -0.7615
    213 C2          8.3050    9.6120    7.0050 C.ar      7   A21       0.5875
    214 N3          8.2170    9.5810    5.6780 N.ar      7   A21      -0.6997
    215 C4          8.6270    8.3920    5.2010 C.ar      7   A21       0.3053
    216 H5'         8.3397    7.5961   -1.4624 H         7   A21       0.0679
    217 H5''        6.9904    7.0669   -0.4348 H         7   A21       0.0679
    218 H4'         7.8767    9.4041    0.0212 H         7   A21       0.1174
    219 H3'        10.2361    7.7583    1.0228 H         7   A21       0.0615
    220 H2'        10.5333    9.3720    2.7391 H         7   A21       0.0972
    221 H1'         7.8005    9.7309    3.1538 H         7   A21       0.2007
    222 H8          9.2935    6.1342    2.9942 H         7   A21       0.1553
    223 H2          7.9860   10.5341    7.4680 H         7   A21       0.0473
    224 HO2'       10.2416   11.3012    1.5554 H         7   A21       0.4186
    225 H61         9.2813    6.7837    9.1252 H         7   A21       0.4115
    226 H62        10.1183    5.7290    7.9371 H         7   A21       0.4115
    227 P          11.7930    8.7920   -0.8110 P.3       8   U22       1.1662
    228 OP1        12.2970    9.7530   -1.8170 O.co2     8   U22      -0.7760
    229 OP2        11.4910    7.3980   -1.2170 O.co2     8   U22      -0.7760
    230 O5'        12.8050    8.7530    0.4280 O.3       8   U22      -0.4989
    231 C5'        13.9430    7.8780    0.4460 C.3       8   U22       0.0558
    232 C4'        14.4820    7.7430    1.8600 C.3       8   U22       0.1065
    233 O4'        14.8770    9.0600    2.3400 O.3       8   U22      -0.3548
    234 C3'        13.3690    7.2720    2.7960 C.3       8   U22       0.2022
    235 O3'        13.7380    6.3040    3.7770 O.3       8   U22      -0.5246
    236 C2'        12.8200    8.5310    3.4530 C.3       8   U22       0.0670
    237 O2'        12.4760    8.3170    4.8040 O.3       8   U22      -0.6139
    238 C1'        14.0290    9.4650    3.3860 C.3       8   U22       0.0674
    239 N1         13.7280   10.8920    3.2620 N.am      8   U22       0.0418
    240 C2         13.8850   11.6570    4.3970 C.2       8   U22       0.4687
    241 O2         14.3060   11.2010    5.4560 O.2       8   U22      -0.5477
    242 N3         13.5340   12.9730    4.2550 N.am      8   U22      -0.3549
    243 C4         13.0600   13.5850    3.1180 C.2       8   U22       0.5952
    244 O4         12.6930   14.7570    3.1780 O.2       8   U22      -0.5761
    245 C5         12.9550   12.7290    1.9760 C.2       8   U22      -0.3635
    246 C6         13.2870   11.4430    2.0840 C.2       8   U22      -0.1126
    247 H5'        14.7214    8.2874   -0.1978 H         8   U22       0.0679
    248 H5''       13.6488    6.8956    0.0766 H         8   U22       0.0679
    249 H4'        15.3259    7.0537    1.8868 H         8   U22       0.1174
    250 H3'        12.5767    6.8419    2.1834 H         8   U22       0.0615
    251 H2'        11.9780    8.9345    2.8906 H         8   U22       0.0972
    252 H1'        14.5841    9.3355    4.3151 H         8   U22       0.1824
    253 H3         13.6339   13.5570    5.0730 H         8   U22       0.3154
    254 H5         12.6086   13.1230    1.0320 H         8   U22       0.1811
    255 H6         13.2062   10.8104    1.2124 H         8   U22       0.2188
    256 HO2'       11.7171    7.7310    4.8525 H         8   U22       0.4186
    257 P          14.3010    4.8680    3.3500 P.3       9   A23       1.1662
    258 OP1        13.6170    4.4360    2.1040 O.co2     9   A23      -0.7760
    259 OP2        14.2370    4.0120    4.5570 O.co2     9   A23      -0.7760
    260 O5'        15.8440    5.1210    3.0580 O.3       9   A23      -0.4989
    261 C5'        16.6790    5.7550    4.0250 C.3       9   A23       0.0558
    262 C4'        18.0210    6.0600    3.4150 C.3       9   A23       0.1065
    263 O4'        17.7990    6.6760    2.1270 O.3       9   A23      -0.3548
    264 C3'        18.8980    7.0420    4.1770 C.3       9   A23       0.2022
    265 O3'        19.7140    6.3440    5.1180 O.3       9   A23      -0.5246
    266 C2'        19.7720    7.6340    3.0740 C.3       9   A23       0.0670
    267 O2'        20.9110    6.8420    2.8020 O.3       9   A23      -0.6139
    268 C1'        18.8370    7.5930    1.8620 C.3       9   A23       0.0394
    269 N9         18.2350    8.8590    1.4510 N.ar      9   A23      -0.0251
    270 C8         17.9980    9.2530    0.1600 C.ar      9   A23       0.2006
    271 N7         17.4660   10.4430    0.0570 N.ar      9   A23      -0.6073
    272 C5         17.3420   10.8650    1.3720 C.ar      9   A23       0.0515
    273 C6         16.8500   12.0480    1.9340 C.ar      9   A23       0.7009
    274 N6         16.3900   13.0700    1.2090 N.pl3     9   A23      -0.9019
    275 N1         16.8510   12.1520    3.2810 N.ar      9   A23      -0.7615
    276 C2         17.3230   11.1230    4.0020 C.ar      9   A23       0.5875
    277 N3         17.8180    9.9590    3.5870 N.ar      9   A23      -0.6997
    278 C4         17.8030    9.8930    2.2440 C.ar      9   A23       0.3053
    279 H5'        16.2116    6.6830    4.3543 H         9   A23       0.0679
    280 H5''       16.8115    5.0922    4.8801 H         9   A23       0.0679
    281 H4'        18.5686    5.1281    3.2746 H         9   A23       0.1174
    282 H3'        18.2999    7.8116    4.6650 H         9   A23       0.0615
    283 H2'        20.0577    8.6588    3.3112 H         9   A23       0.0972
    284 H1'        19.4086    7.2095    1.0169 H         9   A23       0.2007
    285 H8         18.2298    8.6360   -0.6955 H         9   A23       0.1553
    286 H2         17.2975   11.2589    5.0731 H         9   A23       0.0473
    287 H61        16.3026   14.0391    1.4796 H         9   A23       0.4115
    288 H62        15.9265   13.1739    0.3177 H         9   A23       0.4115
    289 HO2'       21.5031    6.8621    3.5574 H         9   A23       0.4186
    290 P          19.5360    6.6100    6.6930 P.3      10   A24       1.1662
    291 OP1        20.4430    5.6850    7.4290 O.co2    10   A24      -0.7760
    292 OP2        18.0840    6.5960    6.9970 O.co2    10   A24      -0.7760
    293 O5'        20.0940    8.0880    6.9110 O.3      10   A24      -0.4989
    294 C5'        19.3460    9.2330    6.5140 C.3      10   A24       0.0558
    295 C4'        19.1750   10.1690    7.6870 C.3      10   A24       0.1065
    296 O4'        18.2390    9.5890    8.6340 O.3      10   A24      -0.3548
    297 C3'        20.4260   10.4230    8.5160 C.3      10   A24       0.2022
    298 O3'        21.2190   11.4610    7.9450 O.3      10   A24      -0.5246
    299 C2'        19.8290   10.8780    9.8470 C.3      10   A24       0.0670
    300 O2'        19.4290   12.2340    9.8260 O.3      10   A24      -0.6139
    301 C1'        18.5730   10.0110    9.9420 C.3      10   A24       0.0394
    302 N9         18.6950    8.8360   10.8040 N.ar     10   A24      -0.0251
    303 C8         18.7120    7.5070   10.4480 C.ar     10   A24       0.2006
    304 N7         18.7850    6.6890   11.4680 N.ar     10   A24      -0.6073
    305 C5         18.8270    7.5330   12.5700 C.ar     10   A24       0.0515
    306 C6         18.8890    7.2830   13.9540 C.ar     10   A24       0.7009
    307 N6         18.8970    6.0590   14.4880 N.pl3    10   A24      -0.9019
    308 N1         18.9270    8.3490   14.7830 N.ar     10   A24      -0.7615
    309 C2         18.8880    9.5790   14.2480 C.ar     10   A24       0.5875
    310 N3         18.8170    9.9400   12.9710 N.ar     10   A24      -0.6997
    311 C4         18.7880    8.8570   12.1740 C.ar     10   A24       0.3053
    312 H5'        19.8751    9.7502    5.7136 H        10   A24       0.0679
    313 H5''       18.3657    8.9186    6.1558 H        10   A24       0.0679
    314 H4'        18.7813   11.1212    7.3313 H        10   A24       0.1174
    315 H3'        21.0068    9.5089    8.6391 H        10   A24       0.0615
    316 H2'        20.5102   10.6794   10.6744 H        10   A24       0.0972
    317 H1'        17.7587   10.6292   10.3201 H        10   A24       0.2007
    318 H8         18.6691    7.1699    9.4229 H        10   A24       0.1553
    319 H2         18.9187   10.3928   14.9574 H        10   A24       0.0473
    320 H61        18.8632    5.2465   13.8890 H        10   A24       0.4115
    321 H62        18.9369    5.9458   15.4908 H        10   A24       0.4115
    322 HO2'       19.1617   12.5025   10.7081 H        10   A24       0.4186
    323 P          22.7810   11.2140    7.6390 P.3      11   U25       1.1662
    324 OP1        23.1830    9.8600    8.1110 O.co2    11   U25      -0.7760
    325 OP2        23.5310   12.4010    8.1130 O.co2    11   U25      -0.7760
    326 O5'        22.8410   11.2260    6.0520 O.3      11   U25      -0.4989
    327 C5'        22.6380   10.0320    5.3090 C.3      11   U25       0.0558
    328 C4'        22.1500   10.3660    3.9240 C.3      11   U25       0.1065
    329 O4'        20.7860   10.8650    3.9880 O.3      11   U25      -0.3548
    330 C3'        22.9200   11.4750    3.2310 C.3      11   U25       0.2022
    331 O3'        24.1110   10.9710    2.6330 O.3      11   U25      -0.5246
    332 C2'        21.9020   11.9690    2.2090 C.3      11   U25       0.0670
    333 O2'        21.7900   11.1190    1.0860 O.3      11   U25      -0.6139
    334 C1'        20.6060   11.8860    3.0180 C.3      11   U25       0.0674
    335 N1         20.2630   13.1290    3.7220 N.am     11   U25       0.0418
    336 C2         19.8550   14.2090    2.9670 C.2      11   U25       0.4687
    337 O2         19.7840   14.1770    1.7530 O.2      11   U25      -0.5477
    338 N3         19.5270   15.3290    3.6900 N.am     11   U25      -0.3549
    339 C4         19.5630   15.4730    5.0630 C.2      11   U25       0.5952
    340 O4         19.1950   16.5330    5.5710 O.2      11   U25      -0.5761
    341 C5         20.0080   14.3160    5.7730 C.2      11   U25      -0.3635
    342 C6         20.3350   13.2110    5.0960 C.2      11   U25      -0.1126
    343 H5'        21.8957    9.4140    5.8142 H        11   U25       0.0679
    344 H5''       23.5780    9.4846    5.2395 H        11   U25       0.0679
    345 H4'        22.1767    9.4683    3.3063 H        11   U25       0.1174
    346 H3'        23.1595   12.2681    3.9393 H        11   U25       0.0615
    347 H2'        22.1129   12.9949    1.9071 H        11   U25       0.0972
    348 H1'        19.7858   11.6108    2.3549 H        11   U25       0.1824
    349 H3         19.2269   16.1349    3.1604 H        11   U25       0.3154
    350 H5         20.0798   14.3341    6.8505 H        11   U25       0.1811
    351 H6         20.6698   12.3458    5.6489 H        11   U25       0.2188
    352 HO2'       22.5981   11.1622    0.5695 H        11   U25       0.4186
    353 P          25.4770   11.8080    2.7610 P.3      12   C26       1.1662
    354 OP1        26.5400   11.0770    2.0290 O.co2    12   C26      -0.7760
    355 OP2        25.6750   12.1460    4.1920 O.co2    12   C26      -0.7760
    356 O5'        25.1620   13.1540    1.9730 O.3      12   C26      -0.4989
    357 C5'        24.8610   13.1190    0.5860 C.3      12   C26       0.0558
    358 C4'        24.3290   14.4500    0.1370 C.3      12   C26       0.1065
    359 O4'        23.0240   14.6930    0.7340 O.3      12   C26      -0.3548
    360 C3'        25.1410   15.6420    0.5970 C.3      12   C26       0.2022
    361 O3'        26.3080   15.8350   -0.1860 O.3      12   C26      -0.5246
    362 C2'        24.1290   16.7680    0.4600 C.3      12   C26       0.0670
    363 O2'        23.9350   17.1700   -0.8770 O.3      12   C26      -0.6139
    364 C1'        22.8670   16.0840    0.9870 C.3      12   C26       0.0066
    365 N1         22.7430   16.2890    2.4400 N.am     12   C26      -0.0484
    366 C2         22.1620   17.4780    2.9020 C.2      12   C26       0.7538
    367 O2         21.7050   18.2810    2.0740 O.2      12   C26      -0.6252
    368 N3         22.1100   17.7150    4.2330 N.2      12   C26      -0.7584
    369 C4         22.5950   16.8120    5.0910 C.2      12   C26       0.8185
    370 N4         22.5380   17.0950    6.3980 N.pl3    12   C26      -0.9530
    371 C5         23.1610   15.5790    4.6490 C.2      12   C26      -0.5215
    372 C6         23.2100   15.3600    3.3280 C.2      12   C26       0.0053
    373 H5'        24.1111   12.3502    0.3997 H        12   C26       0.0679
    374 H5''       25.7660   12.8841    0.0258 H        12   C26       0.0679
    375 H4'        24.2429   14.4626   -0.9495 H        12   C26       0.1174
    376 H3'        25.4160   15.5188    1.6445 H        12   C26       0.0615
    377 H2'        24.4030   17.6168    1.0865 H        12   C26       0.0972
    378 H1'        21.9851   16.4663    0.4730 H        12   C26       0.2029
    379 H5         23.5356   14.8501    5.3524 H        12   C26       0.1928
    380 H6         23.6254   14.4341    2.9584 H        12   C26       0.1958
    381 H41        22.1372   17.9685    6.7086 H        12   C26       0.4234
    382 H42        22.8958   16.4350    7.0737 H        12   C26       0.4234
    383 HO2'       24.5838   17.8388   -1.1079 H        12   C26       0.4186
    384 P          27.6370   16.4000    0.5170 P.3      13   G27       1.1662
    385 OP1        28.7800   15.5200    0.1500 O.co2    13   G27      -0.7760
    386 OP2        27.3190   16.6210    1.9500 O.co2    13   G27      -0.7760
    387 O5'        27.8260   17.8240   -0.1650 O.3      13   G27      -0.4989
    388 C5'        27.9380   17.9340   -1.5770 C.3      13   G27       0.0558
    389 C4'        27.5410   19.3170   -2.0270 C.3      13   G27       0.1065
    390 O4'        26.1040   19.4930   -1.8770 O.3      13   G27      -0.3548
    391 C3'        28.1280   20.4690   -1.2290 C.3      13   G27       0.2022
    392 O3'        29.4810   20.7480   -1.5950 O.3      13   G27      -0.5246
    393 C2'        27.1640   21.5890   -1.5980 C.3      13   G27       0.0670
    394 O2'        27.3920   22.0450   -2.9200 O.3      13   G27      -0.6139
    395 C1'        25.8220   20.8510   -1.5430 C.3      13   G27       0.0191
    396 N9         25.2350   20.8770   -0.2050 N.ar     13   G27       0.0492
    397 C8         25.2870   19.8650    0.7200 C.ar     13   G27       0.1374
    398 N7         24.7400   20.1810    1.8610 N.ar     13   G27      -0.5709
    399 C5         24.2810   21.4790    1.6790 C.ar     13   G27       0.1744
    400 C6         23.6210   22.3510    2.5850 C.2      13   G27       0.4770
    401 O6         23.3160   22.1410    3.7650 O.2      13   G27      -0.5597
    402 N1         23.3240   23.5790    1.9980 N.am     13   G27      -0.4787
    403 C2         23.6280   23.9290    0.7080 C.2      13   G27       0.7657
    404 N2         23.2520   25.1680    0.3390 N.pl3    13   G27      -0.9672
    405 N3         24.2540   23.1250   -0.1540 N.2      13   G27      -0.6323
    406 C4         24.5540   21.9220    0.4020 C.ar     13   G27       0.1222
    407 H5'        27.2830   17.2009   -2.0478 H        13   G27       0.0679
    408 H5''       28.9688   17.7400   -1.8735 H        13   G27       0.0679
    409 H4'        27.8068   19.4396   -3.0770 H        13   G27       0.1174
    410 H3'        28.0646   20.2564   -0.1618 H        13   G27       0.0615
    411 H2'        27.2031   22.4066   -0.8782 H        13   G27       0.0972
    412 H1'        25.1279   21.2793   -2.2661 H        13   G27       0.2006
    413 H8         25.7361   18.9028    0.5229 H        13   G27       0.1640
    414 H1         22.8479   24.2644    2.5669 H        13   G27       0.3424
    415 H21        22.7790   25.7696    0.9982 H        13   G27       0.4364
    416 H22        23.4429   25.4959   -0.5970 H        13   G27       0.4364
    417 HO2'       26.6858   22.6415   -3.1788 H        13   G27       0.4186
    418 P          30.5120   21.2990   -0.4780 P.3      14   C28       1.1662
    419 OP1        31.8880   21.2930   -1.0490 O.co2    14   C28      -0.7760
    420 OP2        30.2460   20.5670    0.7910 O.co2    14   C28      -0.7760
    421 O5'        30.0410   22.8090   -0.2750 O.3      14   C28      -0.4989
    422 C5'        29.8300   23.6450   -1.4130 C.3      14   C28       0.0558
    423 C4'        29.0270   24.8780   -1.0470 C.3      14   C28       0.1065
    424 O4'        27.6900   24.5010   -0.6360 O.3      14   C28      -0.3548
    425 C3'        29.5290   25.7280    0.1080 C.3      14   C28       0.2022
    426 O3'        30.5800   26.5830   -0.3230 O.3      14   C28      -0.5246
    427 C2'        28.2720   26.5200    0.4450 C.3      14   C28       0.0670
    428 O2'        28.0070   27.5060   -0.5280 O.3      14   C28      -0.6139
    429 C1'        27.2020   25.4370    0.3120 C.3      14   C28       0.0066
    430 N1         26.9470   24.7330    1.5810 N.am     14   C28      -0.0484
    431 C2         26.2050   25.3840    2.5810 C.2      14   C28       0.7538
    432 O2         25.7640   26.5300    2.3650 O.2      14   C28      -0.6252
    433 N3         25.9810   24.7500    3.7580 N.2      14   C28      -0.7584
    434 C4         26.4560   23.5220    3.9580 C.2      14   C28       0.8185
    435 N4         26.2050   22.9480    5.1430 N.pl3    14   C28      -0.9530
    436 C5         27.2070   22.8300    2.9580 C.2      14   C28      -0.5215
    437 C6         27.4270   23.4680    1.7920 C.2      14   C28       0.0053
    438 H5'        30.7965   23.9554   -1.8100 H        14   C28       0.0679
    439 H5''       29.2934   23.0818   -2.1765 H        14   C28       0.0679
    440 H4'        28.9487   25.5114   -1.9306 H        14   C28       0.1174
    441 H3'        29.8428   25.1082    0.9479 H        14   C28       0.0615
    442 H2'        28.3088   26.9375    1.4512 H        14   C28       0.0972
    443 H1'        26.2757   25.8800   -0.0538 H        14   C28       0.2029
    444 H5         27.5841   21.8328    3.1307 H        14   C28       0.1928
    445 H6         27.9896   22.9750    1.0130 H        14   C28       0.1958
    446 H41        25.6736   23.4459    5.8428 H        14   C28       0.4234
    447 H42        26.5473   22.0176    5.3361 H        14   C28       0.4234
    448 HO2'       27.1348   27.8778   -0.3776 H        14   C28       0.4186
    449 P          31.6690   27.1050    0.7320 P.3      15   G29       1.1662
    450 OP1        32.8190   27.6580   -0.0210 O.co2    15   G29      -0.7760
    451 OP2        31.9000   26.0370    1.7400 O.co2    15   G29      -0.7760
    452 O5'        30.9270   28.2740    1.5070 O.3      15   G29      -0.4989
    453 C5'        30.4710   29.4370    0.8400 C.3      15   G29       0.0558
    454 C4'        29.7670   30.3280    1.8260 C.3      15   G29       0.1065
    455 O4'        28.5380   29.6850    2.2600 O.3      15   G29      -0.3548
    456 C3'        30.5380   30.5420    3.1150 C.3      15   G29       0.2022
    457 O3'        31.5010   31.5720    2.9630 O.3      15   G29      -0.5246
    458 C2'        29.4240   30.9120    4.0790 C.3      15   G29       0.0670
    459 O2'        28.9800   32.2380    3.8910 O.3      15   G29      -0.6139
    460 C1'        28.3320   29.9370    3.6400 C.3      15   G29       0.0191
    461 N9         28.3770   28.6610    4.3500 N.ar     15   G29       0.0492
    462 C8         28.8550   27.4570    3.8880 C.ar     15   G29       0.1374
    463 N7         28.7250   26.4870    4.7590 N.ar     15   G29      -0.5709
    464 C5         28.1330   27.0910    5.8590 C.ar     15   G29       0.1744
    465 C6         27.7320   26.5420    7.1150 C.2      15   G29       0.4770
    466 O6         27.8220   25.3680    7.5140 O.2      15   G29      -0.5597
    467 N1         27.1730   27.5160    7.9420 N.am     15   G29      -0.4787
    468 C2         27.0120   28.8420    7.6000 C.2      15   G29       0.7657
    469 N2         26.4370   29.6320    8.5170 N.pl3    15   G29      -0.9672
    470 N3         27.3820   29.3570    6.4400 N.2      15   G29      -0.6323
    471 C4         27.9260   28.4350    5.6260 C.ar     15   G29       0.1222
    472 H5'        31.3208   29.9680    0.4109 H        15   G29       0.0679
    473 H5''       29.7796   29.1542    0.0462 H        15   G29       0.0679
    474 H4'        29.5410   31.2889    1.3638 H        15   G29       0.1174
    475 H3'        31.0191   29.6154    3.4281 H        15   G29       0.0615
    476 H2'        29.7201   30.7360    5.1132 H        15   G29       0.0972
    477 H1'        27.3547   30.3979    3.7831 H        15   G29       0.2006
    478 H8         29.2920   27.3249    2.9092 H        15   G29       0.1640
    479 H1         26.8632   27.2288    8.8594 H        15   G29       0.3424
    480 H21        26.1488   29.2476    9.4054 H        15   G29       0.4364
    481 H22        26.2918   30.6119    8.3198 H        15   G29       0.4364
    482 HO2'       29.6675   32.8484    4.1674 H        15   G29       0.4186
    483 P          32.9880   31.3660    3.5320 P.3      16   U30       1.1662
    484 OP1        33.8370   32.3950    2.8790 O.co2    16   U30      -0.7760
    485 OP2        33.3730   29.9360    3.4410 O.co2    16   U30      -0.7760
    486 O5'        32.8410   31.7270    5.0720 O.3      16   U30      -0.4989
    487 C5'        32.5800   33.0640    5.4770 C.3      16   U30       0.0558
    488 C4'        32.2050   33.1040    6.9360 C.3      16   U30       0.1065
    489 O4'        30.9340   32.4250    7.1300 O.3      16   U30      -0.3548
    490 C3'        33.1390   32.3790    7.8870 C.3      16   U30       0.2022
    491 O3'        34.3060   33.1400    8.1870 O.3      16   U30      -0.5246
    492 C2'        32.2280   32.1860    9.0930 C.3      16   U30       0.0670
    493 O2'        32.0050   33.3810    9.8070 O.3      16   U30      -0.6139
    494 C1'        30.9190   31.7980    8.4050 C.3      16   U30       0.0674
    495 N1         30.8320   30.3410    8.2200 N.am     16   U30       0.0418
    496 C2         30.4080   29.5880    9.3000 C.2      16   U30       0.4687
    497 O2         30.0890   30.0910   10.3700 O.2      16   U30      -0.5477
    498 N3         30.3830   28.2280    9.0860 N.am     16   U30      -0.3549
    499 C4         30.7430   27.5610    7.9290 C.2      16   U30       0.5952
    500 O4         30.7350   26.3260    7.9060 O.2      16   U30      -0.5761
    501 C5         31.1550   28.4150    6.8550 C.2      16   U30      -0.3635
    502 C6         31.1790   29.7440    7.0330 C.2      16   U30      -0.1126
    503 H5'        33.4730   33.6685    5.3186 H        16   U30       0.0679
    504 H5''       31.7605   33.4678    4.8825 H        16   U30       0.0679
    505 H4'        32.1078   34.1426    7.2522 H        16   U30       0.1174
    506 H3'        33.4197   31.4114    7.4711 H        16   U30       0.0615
    507 H2'        32.5892   31.3908    9.7451 H        16   U30       0.0972
    508 H1'        30.0693   32.1535    8.9878 H        16   U30       0.1824
    509 H3         30.0680   27.6561    9.8566 H        16   U30       0.3154
    510 H5         31.4452   27.9900    5.9055 H        16   U30       0.1811
    511 H6         31.4840   30.3710    6.2083 H        16   U30       0.2188
    512 HO2'       32.0855   33.2115   10.7485 H        16   U30       0.4186
    513 P          35.6990   32.3820    8.4990 P.3      17   G31       1.1662
    514 OP1        36.7480   33.4280    8.5530 O.co2    17   G31      -0.7760
    515 OP2        35.8660   31.2350    7.5820 O.co2    17   G31      -0.7760
    516 O5'        35.4880   31.8010    9.9670 O.3      17   G31      -0.4989
    517 C5'        35.3000   32.6860   11.0640 C.3      17   G31       0.0558
    518 C4'        34.7070   31.9560   12.2440 C.3      17   G31       0.1065
    519 O4'        33.4400   31.3520   11.8600 O.3      17   G31      -0.3548
    520 C3'        35.5020   30.7880   12.8080 C.3      17   G31       0.2022
    521 O3'        36.5390   31.2320   13.6740 O.3      17   G31      -0.5246
    522 C2'        34.4190   30.0620   13.5830 C.3      17   G31       0.0670
    523 O2'        34.1000   30.7470   14.7740 O.3      17   G31      -0.6139
    524 C1'        33.2490   30.1590   12.6000 C.3      17   G31       0.0191
    525 N9         33.2830   29.0230   11.6850 N.ar     17   G31       0.0492
    526 C8         33.6140   29.0040   10.3510 C.ar     17   G31       0.1374
    527 N7         33.6020   27.7980    9.8410 N.ar     17   G31      -0.5709
    528 C5         33.2360   26.9820   10.9010 C.ar     17   G31       0.1744
    529 C6         33.0710   25.5680   10.9710 C.2      17   G31       0.4770
    530 O6         33.2310   24.7280   10.0740 O.2      17   G31      -0.5597
    531 N1         32.6850   25.1620   12.2510 N.am     17   G31      -0.4787
    532 C2         32.4990   26.0040   13.3230 C.2      17   G31       0.7657
    533 N2         32.1520   25.4390   14.4990 N.pl3    17   G31      -0.9672
    534 N3         32.6500   27.3110   13.2630 N.2      17   G31      -0.6323
    535 C4         33.0180   27.7280   12.0360 C.ar     17   G31       0.1222
    536 H5'        36.2628   33.1081   11.3519 H        17   G31       0.0679
    537 H5''       34.6291   33.4915   10.7653 H        17   G31       0.0679
    538 H4'        34.5244   32.6737   13.0438 H        17   G31       0.1174
    539 H3'        35.8994   30.1619   12.0091 H        17   G31       0.0615
    540 H2'        34.6930   29.0252   13.7784 H        17   G31       0.0972
    541 H1'        32.3006   30.1896   13.1364 H        17   G31       0.2006
    542 H8         33.8581   29.8899    9.7836 H        17   G31       0.1640
    543 H1         32.5308   24.1751   12.4007 H        17   G31       0.3424
    544 H21        32.0358   24.4378   14.5634 H        17   G31       0.4364
    545 H22        32.0086   26.0175   15.3144 H        17   G31       0.4364
    546 HO2'       33.9077   30.1112   15.4671 H        17   G31       0.4186
    547 P          37.8290   30.3050   13.9210 P.3      18   G32       1.1662
    548 OP1        38.7460   31.0620   14.8080 O.co2    18   G32      -0.7760
    549 OP2        38.3420   29.7710   12.6340 O.co2    18   G32      -0.7760
    550 O5'        37.2730   29.0480   14.7260 O.3      18   G32      -0.4989
    551 C5'        36.6360   29.1960   15.9880 C.3      18   G32       0.0558
    552 C4'        36.2110   27.8440   16.5100 C.3      18   G32       0.1065
    553 O4'        35.1560   27.2840   15.6730 O.3      18   G32      -0.3548
    554 C3'        37.2900   26.7810   16.4710 C.3      18   G32       0.2022
    555 O3'        38.1710   26.9090   17.5780 O.3      18   G32      -0.5246
    556 C2'        36.4630   25.5050   16.5250 C.3      18   G32       0.0670
    557 O2'        35.9290   25.2710   17.8170 O.3      18   G32      -0.6139
    558 C1'        35.3220   25.8730   15.5740 C.3      18   G32       0.0191
    559 N9         35.6470   25.5500   14.1870 N.ar     18   G32       0.0492
    560 C8         35.9850   26.4350   13.1920 C.ar     18   G32       0.1374
    561 N7         36.2300   25.8530   12.0490 N.ar     18   G32      -0.5709
    562 C5         36.0410   24.5000   12.3040 C.ar     18   G32       0.1744
    563 C6         36.1570   23.3830   11.4420 C.2      18   G32       0.4770
    564 O6         36.4540   23.3670   10.2430 O.2      18   G32      -0.5597
    565 N1         35.8890   22.1890   12.1090 N.am     18   G32      -0.4787
    566 C2         35.5570   22.0870   13.4350 C.2      18   G32       0.7657
    567 N2         35.3800   20.8500   13.8990 N.pl3    18   G32      -0.9672
    568 N3         35.4230   23.1280   14.2470 N.2      18   G32      -0.6323
    569 C4         35.6820   24.2950   13.6190 C.ar     18   G32       0.1222
    570 H5'        35.7584   29.8329   15.8774 H        18   G32       0.0679
    571 H5''       37.3299   29.6545   16.6925 H        18   G32       0.0679
    572 H4'        35.8445   27.9497   17.5311 H        18   G32       0.1174
    573 H3'        37.8449   26.8358   15.5344 H        18   G32       0.0615
    574 H2'        37.0267   24.6456   16.1620 H        18   G32       0.0972
    575 H1'        34.4051   25.3650   15.8730 H        18   G32       0.2006
    576 H8         36.0422   27.5033   13.3401 H        18   G32       0.1640
    577 H1         35.9436   21.3337   11.5746 H        18   G32       0.3424
    578 H21        35.4872   20.0586   13.2807 H        18   G32       0.4364
    579 H22        35.1387   20.7041   14.8688 H        18   G32       0.4364
    580 HO2'       36.0535   24.3486   18.0522 H        18   G32       0.4186
    581 P          39.6760   26.3880   17.4460 P.3      19   A33       1.1662
    582 OP1        40.4290   26.9040   18.6180 O.co2    19   A33      -0.7760
    583 OP2        40.1690   26.6710   16.0760 O.co2    19   A33      -0.7760
    584 O5'        39.5320   24.8040   17.5500 O.3      19   A33      -0.4989
    585 C5'        38.9360   24.2030   18.6920 C.3      19   A33       0.0558
    586 C4'        38.9210   22.6980   18.5480 C.3      19   A33       0.1065
    587 O4'        37.9860   22.3010   17.5080 O.3      19   A33      -0.3548
    588 C3'        40.2190   22.0400   18.1150 C.3      19   A33       0.2022
    589 O3'        41.1340   21.9130   19.2010 O.3      19   A33      -0.5246
    590 C2'        39.7190   20.6810   17.6390 C.3      19   A33       0.0670
    591 O2'        39.4230   19.8210   18.7230 O.3      19   A33      -0.6139
    592 C1'        38.4140   21.0690   16.9430 C.3      19   A33       0.0394
    593 N9         38.5830   21.2380   15.5000 N.ar     19   A33      -0.0251
    594 C8         38.6170   22.3960   14.7630 C.ar     19   A33       0.2006
    595 N7         38.7930   22.1970   13.4790 N.ar     19   A33      -0.6073
    596 C5         38.8760   20.8150   13.3620 C.ar     19   A33       0.0515
    597 C6         39.0580   19.9620   12.2550 C.ar     19   A33       0.7009
    598 N6         39.1950   20.3920   11.0000 N.pl3    19   A33      -0.9019
    599 N1         39.0940   18.6280   12.4890 N.ar     19   A33      -0.7615
    600 C2         38.9550   18.1950   13.7450 C.ar     19   A33       0.5875
    601 N3         38.7800   18.8960   14.8610 N.ar     19   A33      -0.6997
    602 C4         38.7510   20.2140   14.5970 C.ar     19   A33       0.3053
    603 H5'        39.5081   24.4731   19.5796 H        19   A33       0.0679
    604 H5''       37.9135   24.5654   18.7979 H        19   A33       0.0679
    605 H4'        38.6025   22.2580   19.4930 H        19   A33       0.1174
    606 H3'        40.6736   22.5918   17.2922 H        19   A33       0.0615
    607 H2'        40.4200   20.2194   16.9435 H        19   A33       0.0972
    608 H1'        37.6615   20.3034   17.1320 H        19   A33       0.2007
    609 H8         38.5090   23.3779   15.1996 H        19   A33       0.1553
    610 H2         38.9897   17.1230   13.8719 H        19   A33       0.0473
    611 HO2'       39.2526   18.9359   18.3926 H        19   A33       0.4186
    612 H61        39.1970   19.6248   10.3431 H        19   A33       0.4115
    613 H62        39.2854   21.3635   10.7391 H        19   A33       0.4115
    614 P          42.7170   21.9920   18.9240 P.3      20   U34       1.1662
    615 OP1        43.4180   22.0280   20.2320 O.co2    20   U34      -0.7760
    616 OP2        42.9360   23.0950   17.9400 O.co2    20   U34      -0.7760
    617 O5'        43.0700   20.6180   18.1960 O.3      20   U34      -0.4989
    618 C5'        42.6650   19.3730   18.7600 C.3      20   U34       0.0558
    619 C4'        42.8020   18.2350   17.7580 C.3      20   U34       0.1065
    620 O4'        42.0590   18.5490   16.5480 O.3      20   U34      -0.3548
    621 C3'        44.2530   18.0340   17.3090 C.3      20   U34       0.2022
    622 O3'        44.6320   16.6660   17.2820 O.3      20   U34      -0.5246
    623 C2'        44.3820   18.7220   15.9540 C.3      20   U34       0.0670
    624 O2'        45.1660   18.0120   15.0150 O.3      20   U34      -0.6139
    625 C1'        42.9450   18.6520   15.4570 C.3      20   U34       0.0674
    626 N1         42.5350   19.6890   14.5070 N.am     20   U34       0.0418
    627 C2         42.4380   19.2850   13.1950 C.2      20   U34       0.4687
    628 O2         42.5590   18.1190   12.8580 O.2      20   U34      -0.5477
    629 N3         42.1850   20.2820   12.2970 N.am     20   U34      -0.3549
    630 C4         41.9960   21.6140   12.5760 C.2      20   U34       0.5952
    631 O4         41.8260   22.4020   11.6460 O.2      20   U34      -0.5761
    632 C5         42.0560   21.9490   13.9710 C.2      20   U34      -0.3635
    633 C6         42.3120   20.9890   14.8690 C.2      20   U34      -0.1126
    634 H5'        43.2888   19.1578   19.6275 H        20   U34       0.0679
    635 H5''       41.6248   19.4462   19.0774 H        20   U34       0.0679
    636 H4'        42.4207   17.3120   18.1949 H        20   U34       0.1174
    637 H3'        44.9016   18.5519   18.0156 H        20   U34       0.0615
    638 H2'        44.7195   19.7531   16.0591 H        20   U34       0.0972
    639 H1'        42.8632   17.7078   14.9186 H        20   U34       0.1824
    640 H3         42.1311   20.0119   11.3253 H        20   U34       0.3154
    641 H5         41.8959   22.9672   14.2935 H        20   U34       0.1811
    642 H6         42.3435   21.2506   15.9164 H        20   U34       0.2188
    643 HO2'       46.0934   18.0837   15.2524 H        20   U34       0.4186
    644 P          45.6980   16.0980   18.3250 P.3      21   A35       1.1662
    645 OP1        45.2430   16.5390   19.6650 O.co2    21   A35      -0.7760
    646 OP2        47.0710   16.4360   17.8640 O.co2    21   A35      -0.7760
    647 O5'        45.5060   14.5220   18.1820 O.3      21   A35      -0.4989
    648 C5'        44.2790   13.8940   18.5620 C.3      21   A35       0.0558
    649 C4'        44.3150   12.4150   18.2290 C.3      21   A35       0.1065
    650 O4'        44.2650   12.2400   16.7930 O.3      21   A35      -0.3548
    651 C3'        45.6210   11.7820   18.6860 C.3      21   A35       0.2022
    652 O3'        45.4350   10.5280   19.3340 O.3      21   A35      -0.5246
    653 C2'        46.5210   11.7500   17.4510 C.3      21   A35       0.0670
    654 O2'        47.2940   10.5710   17.3610 O.3      21   A35      -0.6139
    655 C1'        45.4930   11.7380   16.3170 C.3      21   A35       0.0394
    656 N9         45.8390   12.4290   15.0780 N.ar     21   A35      -0.0251
    657 C8         45.5980   13.7330   14.7310 C.ar     21   A35       0.2006
    658 N7         46.0180   14.0460   13.5290 N.ar     21   A35      -0.6073
    659 C5         46.5780   12.8670   13.0540 C.ar     21   A35       0.0515
    660 C6         47.2040   12.5370   11.8360 C.ar     21   A35       0.7009
    661 N6         47.3800   13.4050   10.8330 N.pl3    21   A35      -0.9019
    662 N1         47.6490   11.2700   11.6820 N.ar     21   A35      -0.7615
    663 C2         47.4770   10.4020   12.6900 C.ar     21   A35       0.5875
    664 N3         46.9080   10.5940   13.8790 N.ar     21   A35      -0.6997
    665 C4         46.4750   11.8630   13.9990 C.ar     21   A35       0.3053
    666 H5'        43.4546   14.3627   18.0246 H        21   A35       0.0679
    667 H5''       44.1274   14.0185   19.6342 H        21   A35       0.0679
    668 H4'        43.4712   11.9071   18.6960 H        21   A35       0.1174
    669 H3'        46.0785   12.4590   19.4074 H        21   A35       0.0615
    670 H2'        47.1512   12.6379   17.4008 H        21   A35       0.0972
    671 H1'        45.3250   10.6929   16.0569 H        21   A35       0.2007
    672 H8         45.1077   14.4372   15.3868 H        21   A35       0.1553
    673 H2         47.8535    9.4055   12.5123 H        21   A35       0.0473
    674 H61        46.8098   14.2206   11.0054 H        21   A35       0.4115
    675 H62        47.9836   13.2673   10.0350 H        21   A35       0.4115
    676 HO2'       47.9458   10.5606   18.0657 H        21   A35       0.4186
    677 P          45.2420   10.4560   20.9220 P.3      22   U36       1.1662
    678 OP1        46.4430   11.1000   21.5120 O.co2    22   U36      -0.7760
    679 OP2        44.9490    9.0290   21.2210 O.co2    22   U36      -0.7760
    680 O5'        43.9360   11.3390   21.2070 O.3      22   U36      -0.4989
    681 C5'        42.6730   10.7580   21.6000 C.3      22   U36       0.0558
    682 C4'        42.0810   11.5800   22.7270 C.3      22   U36       0.1065
    683 O4'        43.0300   11.5430   23.7970 O.3      22   U36      -0.3548
    684 C3'        41.8560   13.0480   22.3450 C.3      22   U36       0.2022
    685 O3'        40.5470   13.4690   22.7470 O.3      22   U36      -0.5246
    686 C2'        42.7290   13.8650   23.3030 C.3      22   U36       0.0670
    687 O2'        42.0410   14.9200   23.9410 O.3      22   U36      -0.6139
    688 C1'        43.1590   12.8250   24.3350 C.3      22   U36       0.0674
    689 N1         44.4780   12.9620   24.9510 N.am     22   U36       0.0418
    690 C2         44.5010   13.5040   26.2120 C.2      22   U36       0.4687
    691 O2         43.4940   13.8870   26.7720 O.2      22   U36      -0.5477
    692 N3         45.7390   13.5760   26.7930 N.am     22   U36      -0.3549
    693 C4         46.9360   13.1690   26.2400 C.2      22   U36       0.5952
    694 O4         47.9690   13.2740   26.8990 O.2      22   U36      -0.5761
    695 C5         46.8310   12.6360   24.9130 C.2      22   U36      -0.3635
    696 C6         45.6320   12.5560   24.3250 C.2      22   U36      -0.1126
    697 H5'        41.9905   10.7584   20.7501 H        22   U36       0.0679
    698 H5''       42.8322    9.7346   21.9396 H        22   U36       0.0679
    699 H4'        41.1406   11.1356   23.0528 H        22   U36       0.1174
    700 H3'        42.0668   13.2531   21.2954 H        22   U36       0.0615
    701 H2'        43.6013   14.2519   22.7762 H        22   U36       0.0972
    702 H1'        42.4360   12.8872   25.1483 H        22   U36       0.1824
    703 H3         45.7803   13.9678   27.7230 H        22   U36       0.3154
    704 H5         47.7151   12.3009   24.3910 H        22   U36       0.1811
    705 H6         45.5688   12.1583   23.3229 H        22   U36       0.2188
    706 HO2'       41.9640   14.7313   24.8791 H        22   U36       0.4186
    707 P          39.2340   13.1090   21.9040 P.3      23   G37       1.1662
    708 OP1        38.1060   13.4170   22.8200 O.co2    23   G37      -0.7760
    709 OP2        39.3330   11.7620   21.2900 O.co2    23   G37      -0.7760
    710 O5'        39.2210   14.2000   20.7480 O.3      23   G37      -0.4989
    711 C5'        39.1890   15.5870   21.0560 C.3      23   G37       0.0558
    712 C4'        39.1200   16.3910   19.7810 C.3      23   G37       0.1065
    713 O4'        40.3640   16.2620   19.0400 O.3      23   G37      -0.3548
    714 C3'        38.0500   15.8990   18.8230 C.3      23   G37       0.2022
    715 O3'        36.8000   16.4700   19.1840 O.3      23   G37      -0.5246
    716 C2'        38.5900   16.3750   17.4790 C.3      23   G37       0.0670
    717 O2'        38.3800   17.7640   17.2900 O.3      23   G37      -0.6139
    718 C1'        40.0880   16.1060   17.6560 C.3      23   G37       0.0191
    719 N9         40.4900   14.7520   17.2800 N.ar     23   G37       0.0492
    720 C8         40.4420   13.6380   18.0880 C.ar     23   G37       0.1374
    721 N7         40.8620   12.5550   17.4970 N.ar     23   G37      -0.5709
    722 C5         41.2110   12.9700   16.2210 C.ar     23   G37       0.1744
    723 C6         41.7280   12.2310   15.1310 C.2      23   G37       0.4770
    724 O6         41.9810   11.0210   15.0750 O.2      23   G37      -0.5597
    725 N1         41.9510   13.0420   14.0190 N.am     23   G37      -0.4787
    726 C2         41.7110   14.3910   13.9660 C.2      23   G37       0.7657
    727 N2         42.0410   15.0030   12.8110 N.pl3    23   G37      -0.9672
    728 N3         41.2030   15.0930   14.9730 N.2      23   G37      -0.6323
    729 C4         40.9860   14.3250   16.0660 C.ar     23   G37       0.1222
    730 H5'        40.0909   15.8566   21.6056 H        23   G37       0.0679
    731 H5''       38.3133   15.8023   21.6683 H        23   G37       0.0679
    732 H4'        38.9433   17.4399   20.0192 H        23   G37       0.1174
    733 H3'        37.9913   14.8108   18.8451 H        23   G37       0.0615
    734 H2'        38.1757   15.7939   16.6551 H        23   G37       0.0972
    735 H1'        40.6626   16.8330   17.0821 H        23   G37       0.2006
    736 H8         40.0914   13.6596   19.1093 H        23   G37       0.1640
    737 H1         42.3180   12.6014   13.1876 H        23   G37       0.3424
    738 H21        42.4329   14.4673   12.0497 H        23   G37       0.4364
    739 H22        41.8963   15.9972   12.7070 H        23   G37       0.4364
    740 HO2'       38.6506   18.0112   16.4027 H        23   G37       0.4186
    741 P          35.4420   15.6970   18.8360 P.3      24   G38       1.1662
    742 OP1        34.3160   16.5010   19.3670 O.co2    24   G38      -0.7760
    743 OP2        35.5920   14.2760   19.2420 O.co2    24   G38      -0.7760
    744 O5'        35.4000   15.7380   17.2450 O.3      24   G38      -0.4989
    745 C5'        35.0940   16.9460   16.5460 C.3      24   G38       0.0558
    746 C4'        35.2920   16.7360   15.0650 C.3      24   G38       0.1065
    747 O4'        36.6720   16.3500   14.8460 O.3      24   G38      -0.3548
    748 C3'        34.4730   15.6050   14.4600 C.3      24   G38       0.2022
    749 O3'        33.1960   16.0940   14.0470 O.3      24   G38      -0.5246
    750 C2'        35.3280   15.1930   13.2620 C.3      24   G38       0.0670
    751 O2'        35.1240   15.9900   12.1140 O.3      24   G38      -0.6139
    752 C1'        36.7480   15.4070   13.7960 C.3      24   G38       0.0191
    753 N9         37.3100   14.1660   14.3170 N.ar     24   G38       0.0492
    754 C8         37.0560   13.5830   15.5370 C.ar     24   G38       0.1374
    755 N7         37.5860   12.3940   15.6550 N.ar     24   G38      -0.5709
    756 C5         38.2600   12.1960   14.4570 C.ar     24   G38       0.1744
    757 C6         38.9860   11.0750   13.9890 C.2      24   G38       0.4770
    758 O6         39.1780    9.9920   14.5540 O.2      24   G38      -0.5597
    759 N1         39.5100   11.2980   12.7170 N.am     24   G38      -0.4787
    760 C2         39.3510   12.4520   11.9880 C.2      24   G38       0.7657
    761 N2         39.9410   12.4760   10.7840 N.pl3    24   G38      -0.9672
    762 N3         38.6610   13.5010   12.4090 N.2      24   G38      -0.6323
    763 C4         38.1390   13.3010   13.6390 C.ar     24   G38       0.1222
    764 H5'        34.0576   17.2237   16.7378 H        24   G38       0.0679
    765 H5''       35.7533   17.7424   16.8913 H        24   G38       0.0679
    766 H4'        35.0830   17.6640   14.5329 H        24   G38       0.1174
    767 H3'        34.3658   14.7805   15.1649 H        24   G38       0.0615
    768 H2'        35.1669   14.1411   13.0260 H        24   G38       0.0972
    769 H1'        37.3853   15.7934   13.0006 H        24   G38       0.2006
    770 H8         36.4787   14.0583   16.3162 H        24   G38       0.1640
    771 H1         40.0487   10.5533   12.2983 H        24   G38       0.3424
    772 H21        39.8605   13.2949   10.1984 H        24   G38       0.4364
    773 H22        40.4659   11.6751   10.4628 H        24   G38       0.4364
    774 HO2'       34.3268   15.7028   11.6629 H        24   G38       0.4186
    775 P          31.8490   15.2630   14.3720 P.3      25   C39       1.1662
    776 OP1        32.1210   14.2440   15.4110 O.co2    25   C39      -0.7760
    777 OP2        31.2830   14.8360   13.0710 O.co2    25   C39      -0.7760
    778 O5'        30.8430   16.4020   14.8800 O.3      25   C39      -0.4989
    779 C5'        30.7440   16.7520   16.2460 C.3      25   C39       0.0558
    780 C4'        30.8730   18.2580   16.4410 C.3      25   C39       0.1065
    781 O4'        32.0560   18.7520   15.7470 O.3      25   C39      -0.3548
    782 C3'        29.8060   19.2340   15.9550 C.3      25   C39       0.2022
    783 O3'        28.6470   19.2360   16.7920 O.3      25   C39      -0.5246
    784 C2'        30.5650   20.5450   16.1320 C.3      25   C39       0.0670
    785 O2'        30.7120   20.8360   17.5070 O.3      25   C39      -0.6139
    786 C1'        31.9520   20.1650   15.6120 C.3      25   C39       0.0066
    787 N1         32.1380   20.5490   14.2020 N.am     25   C39      -0.0484
    788 C2         32.2500   21.9150   13.8930 C.2      25   C39       0.7538
    789 O2         32.2210   22.7420   14.8160 O.2      25   C39      -0.6252
    790 N3         32.3920   22.2930   12.6010 N.2      25   C39      -0.7584
    791 C4         32.4370   21.3700   11.6360 C.2      25   C39       0.8185
    792 N4         32.5670   21.7980   10.3660 N.pl3    25   C39      -0.9530
    793 C5         32.3460   19.9720   11.9220 C.2      25   C39      -0.5215
    794 C6         32.1940   19.6100   13.2050 C.2      25   C39       0.0053
    795 H5'        29.7761   16.4261   16.6269 H        25   C39       0.0679
    796 H5''       31.5353   16.2498   16.8025 H        25   C39       0.0679
    797 H4'        31.0199   18.4382   17.5059 H        25   C39       0.1174
    798 H3'        29.5468   19.0581   14.9110 H        25   C39       0.0615
    799 H2'        30.1181   21.3678   15.5740 H        25   C39       0.0972
    800 H1'        32.7147   20.6463   16.2241 H        25   C39       0.2029
    801 H5         32.3977   19.2348   11.1345 H        25   C39       0.1928
    802 H6         32.1145   18.5626   13.4561 H        25   C39       0.1958
    803 H41        32.6288   22.7869   10.1702 H        25   C39       0.4234
    804 H42        32.6027   21.1301    9.6092 H        25   C39       0.4234
    805 HO2'       30.0358   21.4620   17.7761 H        25   C39       0.4186
    806 P          27.3070   20.0370   16.3460 P.3      26   A40       1.1662
    807 OP1        26.2580   19.6610   17.3200 O.co2    26   A40      -0.7760
    808 OP2        27.0380   19.8680   14.8970 O.co2    26   A40      -0.7760
    809 O5'        27.6520   21.5840   16.5510 O.3      26   A40      -0.4989
    810 C5'        27.6280   22.1920   17.8430 C.3      26   A40       0.0558
    811 C4'        27.6630   23.7070   17.7180 C.3      26   A40       0.1065
    812 O4'        28.8960   24.1200   17.0580 O.3      26   A40      -0.3548
    813 C3'        26.5670   24.3090   16.8540 C.3      26   A40       0.2022
    814 O3'        25.3640   24.4810   17.5900 O.3      26   A40      -0.5246
    815 C2'        27.1830   25.6350   16.4360 C.3      26   A40       0.0670
    816 O2'        27.1490   26.6080   17.4630 O.3      26   A40      -0.6139
    817 C1'        28.6320   25.2170   16.1950 C.3      26   A40       0.0394
    818 N9         28.8670   24.7880   14.8180 N.ar     26   A40      -0.0251
    819 C8         28.8940   23.4990   14.3320 C.ar     26   A40       0.2006
    820 N7         29.1450   23.4230   13.0500 N.ar     26   A40      -0.6073
    821 C5         29.3010   24.7490   12.6610 C.ar     26   A40       0.0515
    822 C6         29.5970   25.3450   11.4170 C.ar     26   A40       0.7009
    823 N6         29.8260   24.6560   10.2930 N.pl3    26   A40      -0.9019
    824 N1         29.6600   26.6950   11.3670 N.ar     26   A40      -0.7615
    825 C2         29.4500   27.3880   12.4920 C.ar     26   A40       0.5875
    826 N3         29.1750   26.9440   13.7200 N.ar     26   A40      -0.6997
    827 C4         29.1150   25.6000   13.7360 C.ar     26   A40       0.3053
    828 H5'        26.7164   21.8958   18.3621 H        26   A40       0.0679
    829 H5''       28.4935   21.8574   18.4150 H        26   A40       0.0679
    830 H4'        27.6214   24.1509   18.7126 H        26   A40       0.1174
    831 H3'        26.3887   23.6831   15.9796 H        26   A40       0.0615
    832 H2'        26.7244   26.0114   15.5216 H        26   A40       0.0972
    833 H1'        29.2978   26.0445   16.4398 H        26   A40       0.2007
    834 H8         28.7237   22.6313   14.9520 H        26   A40       0.1553
    835 H2         29.5120   28.4616   12.3918 H        26   A40       0.0473
    836 HO2'       26.5411   27.3100   17.2194 H        26   A40       0.4186
    837 H61        30.1367   25.2375    9.5279 H        26   A40       0.4115
    838 H62        29.7009   23.6566   10.2175 H        26   A40       0.4115
    839 P          23.9530   24.3250   16.8480 P.3      27   C41       1.1662
    840 OP1        22.9060   24.3380   17.8910 O.co2    27   C41      -0.7760
    841 OP2        24.0170   23.1940   15.8890 O.co2    27   C41      -0.7760
    842 O5'        23.8320   25.6480   15.9720 O.3      27   C41      -0.4989
    843 C5'        23.7680   26.9210   16.5970 C.3      27   C41       0.0558
    844 C4'        23.9660   28.0100   15.5770 C.3      27   C41       0.1065
    845 O4'        25.3100   27.9290   15.0270 O.3      27   C41      -0.3548
    846 C3'        23.1010   27.9380   14.3330 C.3      27   C41       0.2022
    847 O3'        21.7760   28.3750   14.5780 O.3      27   C41      -0.5246
    848 C2'        23.8700   28.8710   13.4170 C.3      27   C41       0.0670
    849 O2'        23.7600   30.2170   13.8330 O.3      27   C41      -0.6139
    850 C1'        25.3000   28.4050   13.6900 C.3      27   C41       0.0066
    851 N1         25.6720   27.3040   12.7830 N.am     27   C41      -0.0484
    852 C2         26.0470   27.6340   11.4890 C.2      27   C41       0.7538
    853 O2         26.1260   28.8410   11.1820 O.2      27   C41      -0.6252
    854 N3         26.3200   26.6480   10.6050 N.2      27   C41      -0.7584
    855 C4         26.2430   25.3680   10.9850 C.2      27   C41       0.8185
    856 N4         26.4820   24.4260   10.0660 N.pl3    27   C41      -0.9530
    857 C5         25.9040   25.0000   12.3190 C.2      27   C41      -0.5215
    858 C6         25.6290   25.9950   13.1790 C.2      27   C41       0.0053
    859 H5'        22.7927   27.0421   17.0684 H        27   C41       0.0679
    860 H5''       24.5474   26.9906   17.3559 H        27   C41       0.0679
    861 H4'        23.8300   28.9802   16.0548 H        27   C41       0.1174
    862 H3'        23.0989   26.9254   13.9295 H        27   C41       0.0615
    863 H2'        23.5897   28.7414   12.3717 H        27   C41       0.0972
    864 H1'        25.9959   29.2367   13.5799 H        27   C41       0.2029
    865 H5         25.8695   23.9651   12.6259 H        27   C41       0.1928
    866 H6         25.3696   25.7576   14.2001 H        27   C41       0.1958
    867 H41        26.7171   24.6913    9.1202 H        27   C41       0.4234
    868 H42        26.4274   23.4494   10.3178 H        27   C41       0.4234
    869 HO2'       22.8674   30.5308   13.6703 H        27   C41       0.4186
    870 P          20.5690   27.7600   13.7180 P.3      28   G42       1.1662
    871 OP1        19.3070   28.2680   14.3110 O.co2    28   G42      -0.7760
    872 OP2        20.7810   26.2990   13.5830 O.co2    28   G42      -0.7760
    873 O5'        20.7510   28.4020   12.2730 O.3      28   G42      -0.4989
    874 C5'        20.6630   29.8080   12.1060 C.3      28   G42       0.0558
    875 C4'        21.1310   30.2140   10.7350 C.3      28   G42       0.1065
    876 O4'        22.5060   29.7910   10.5350 O.3      28   G42      -0.3548
    877 C3'        20.4070   29.6060    9.5480 C.3      28   G42       0.2022
    878 O3'        19.1700   30.2590    9.2990 O.3      28   G42      -0.5246
    879 C2'        21.4120   29.8670    8.4360 C.3      28   G42       0.0670
    880 O2'        21.4280   31.2230    8.0500 O.3      28   G42      -0.6139
    881 C1'        22.7260   29.5510    9.1510 C.3      28   G42       0.0191
    882 N9         23.1010   28.1530    8.9720 N.ar     28   G42       0.0492
    883 C8         22.9760   27.1270    9.8780 C.ar     28   G42       0.1374
    884 N7         23.3850   25.9790    9.4090 N.ar     28   G42      -0.5709
    885 C5         23.8120   26.2660    8.1210 C.ar     28   G42       0.1744
    886 C6         24.3600   25.4210    7.1250 C.2      28   G42       0.4770
    887 O6         24.5900   24.2100    7.1880 O.2      28   G42      -0.5597
    888 N1         24.6460   26.1250    5.9570 N.am     28   G42      -0.4787
    889 C2         24.4270   27.4720    5.7720 C.2      28   G42       0.7657
    890 N2         24.7430   27.9740    4.5650 N.pl3    28   G42      -0.9672
    891 N3         23.9270   28.2680    6.6980 N.2      28   G42      -0.6323
    892 C4         23.6430   27.6050    7.8370 C.ar     28   G42       0.1222
    893 H5'        19.6264   30.1189   12.2361 H        28   G42       0.0679
    894 H5''       21.2823   30.2985   12.8570 H        28   G42       0.0679
    895 H4'        21.0834   31.3001   10.6558 H        28   G42       0.1174
    896 H3'        20.2579   28.5359    9.6920 H        28   G42       0.0615
    897 H2'        21.2491   29.2077    7.5834 H        28   G42       0.0972
    898 H1'        23.5187   30.2009    8.7804 H        28   G42       0.2006
    899 H8         22.5805   27.2568   10.8745 H        28   G42       0.1640
    900 H1         25.0446   25.6075    5.1867 H        28   G42       0.3424
    901 H21        25.1232   27.3698    3.8506 H        28   G42       0.4364
    902 H22        24.6001   28.9552    4.3730 H        28   G42       0.4364
    903 HO2'       21.4757   31.2825    7.0930 H        28   G42       0.4186
    904 P          18.0450   29.5250    8.4130 P.3      29   C43       1.1662
    905 OP1        16.8280   30.3630    8.4510 O.co2    29   C43      -0.7760
    906 OP2        17.9720   28.1070    8.8380 O.co2    29   C43      -0.7760
    907 O5'        18.6410   29.5310    6.9370 O.3      29   C43      -0.4989
    908 C5'        18.8990   30.7550    6.2560 C.3      29   C43       0.0558
    909 C4'        19.4270   30.4830    4.8690 C.3      29   C43       0.1065
    910 O4'        20.7300   29.8510    4.9520 O.3      29   C43      -0.3548
    911 C3'        18.6230   29.5120    4.0230 C.3      29   C43       0.2022
    912 O3'        17.5000   30.1470    3.4280 O.3      29   C43      -0.5246
    913 C2'        19.6490   29.1010    2.9770 C.3      29   C43       0.0670
    914 O2'        19.8310   30.0890    1.9850 O.3      29   C43      -0.6139
    915 C1'        20.9190   29.0090    3.8240 C.3      29   C43       0.0066
    916 N1         21.1740   27.6410    4.2930 N.am     29   C43      -0.0484
    917 C2         21.8440   26.7510    3.4410 C.2      29   C43       0.7538
    918 O2         22.2030   27.1440    2.3170 O.2      29   C43      -0.6252
    919 N3         22.0820   25.4910    3.8620 N.2      29   C43      -0.7584
    920 C4         21.6800   25.1050    5.0740 C.2      29   C43       0.8185
    921 N4         21.9460   23.8540    5.4490 N.pl3    29   C43      -0.9530
    922 C5         20.9910   25.9850    5.9570 C.2      29   C43      -0.5215
    923 C6         20.7640   27.2340    5.5320 C.2      29   C43       0.0053
    924 H5'        17.9741   31.3270    6.1825 H        29   C43       0.0679
    925 H5''       19.6358   31.3310    6.8159 H        29   C43       0.0679
    926 H4'        19.5228   31.4273    4.3330 H        29   C43       0.1174
    927 H3'        18.3106   28.6520    4.6153 H        29   C43       0.0615
    928 H2'        19.3982   28.1371    2.5341 H        29   C43       0.0972
    929 H1'        21.7717   29.3613    3.2436 H        29   C43       0.2029
    930 H5         20.6640   25.6570    6.9326 H        29   C43       0.1928
    931 H6         20.2494   27.9304    6.1775 H        29   C43       0.1958
    932 H41        22.4359   23.2321    4.8218 H        29   C43       0.4234
    933 H42        21.6577   23.5279    6.3604 H        29   C43       0.4234
    934 HO2'       19.0379   30.1538    1.4479 H        29   C43       0.4186
    935 P          16.1540   29.3060    3.1760 P.3      30   A44       1.1662
    936 OP1        15.1760   30.2160    2.5360 O.co2    30   A44      -0.7760
    937 OP2        15.7950   28.6220    4.4440 O.co2    30   A44      -0.7760
    938 O5'        16.5850   28.1900    2.1220 O.3      30   A44      -0.4989
    939 C5'        16.7770   28.5320    0.7590 C.3      30   A44       0.0558
    940 C4'        17.3880   27.3820   -0.0180 C.3      30   A44       0.1065
    941 O4'        18.6370   26.9570    0.5930 O.3      30   A44      -0.3548
    942 C3'        16.6420   26.0620   -0.1270 C.3      30   A44       0.2022
    943 O3'        15.5490   26.1180   -1.0380 O.3      30   A44      -0.5246
    944 C2'        17.7470   25.1740   -0.6860 C.3      30   A44       0.0670
    945 O2'        17.9870   25.4220   -2.0560 O.3      30   A44      -0.6139
    946 C1'        18.9550   25.6560    0.1190 C.3      30   A44       0.0394
    947 N9         19.1940   24.7650    1.2500 N.ar     30   A44      -0.0251
    948 C8         18.8280   24.8990    2.5650 C.ar     30   A44       0.2006
    949 N7         19.1470   23.8650    3.3090 N.ar     30   A44      -0.6073
    950 C5         19.7770   22.9980    2.4240 C.ar     30   A44       0.0515
    951 C6         20.3370   21.7140    2.5840 C.ar     30   A44       0.7009
    952 N6         20.3290   21.0400    3.7330 N.pl3    30   A44      -0.9019
    953 N1         20.9020   21.1360    1.5020 N.ar     30   A44      -0.7615
    954 C2         20.8840   21.7980    0.3400 C.ar     30   A44       0.5875
    955 N3         20.3720   22.9970    0.0580 N.ar     30   A44      -0.6997
    956 C4         19.8290   23.5490    1.1580 C.ar     30   A44       0.3053
    957 H5'        17.4424   29.3933    0.6997 H        30   A44       0.0679
    958 H5''       15.8153   28.7917    0.3165 H        30   A44       0.0679
    959 H4'        17.6061   27.7325   -1.0268 H        30   A44       0.1174
    960 H3'        16.3174   25.7133    0.8534 H        30   A44       0.0615
    961 H2'        17.5414   24.1194   -0.5024 H        30   A44       0.0972
    962 H1'        19.8379   25.6958   -0.5190 H        30   A44       0.2007
    963 H8         18.3248   25.7727    2.9521 H        30   A44       0.1553
    964 H2         21.3514   21.2883   -0.4896 H        30   A44       0.0473
    965 HO2'       18.2533   24.6068   -2.4874 H        30   A44       0.4186
    966 H61        19.9084   21.4487    4.5553 H        30   A44       0.4115
    967 H62        20.7435   20.1203    3.7819 H        30   A44       0.4115
    968 P          14.3980   24.9910   -0.9740 P.3      31   A45       1.1662
    969 OP1        13.3890   25.3380   -2.0060 O.co2    31   A45      -0.7760
    970 OP2        13.9730   24.8160    0.4380 O.co2    31   A45      -0.7760
    971 O5'        15.1300   23.6470   -1.4250 O.3      31   A45      -0.4989
    972 C5'        15.6700   23.5300   -2.7350 C.3      31   A45       0.0558
    973 C4'        16.3720   22.2060   -2.9050 C.3      31   A45       0.1065
    974 O4'        17.4390   22.0890   -1.9290 O.3      31   A45      -0.3548
    975 C3'        15.5430   20.9570   -2.6600 C.3      31   A45       0.2022
    976 O3'        14.7540   20.6380   -3.7970 O.3      31   A45      -0.5246
    977 C2'        16.6290   19.9140   -2.4370 C.3      31   A45       0.0670
    978 O2'        17.2300   19.4900   -3.6430 O.3      31   A45      -0.6139
    979 C1'        17.6540   20.7180   -1.6380 C.3      31   A45       0.0394
    980 N9         17.5340   20.5130   -0.1960 N.ar     31   A45      -0.0251
    981 C8         17.0350   21.3610    0.7590 C.ar     31   A45       0.2006
    982 N7         17.0980   20.8760    1.9770 N.ar     31   A45      -0.6073
    983 C5         17.6710   19.6250    1.8080 C.ar     31   A45       0.0515
    984 C6         18.0160   18.6120    2.7160 C.ar     31   A45       0.7009
    985 N6         17.8430   18.7120    4.0340 N.pl3    31   A45      -0.9019
    986 N1         18.5610   17.4820    2.2190 N.ar     31   A45      -0.7615
    987 C2         18.7530   17.3890    0.8990 C.ar     31   A45       0.5875
    988 N3         18.4790   18.2750   -0.0540 N.ar     31   A45      -0.6997
    989 C4         17.9340   19.3840    0.4740 C.ar     31   A45       0.3053
    990 H5'        14.8620   23.6027   -3.4629 H        31   A45       0.0679
    991 H5''       16.3809   24.3386   -2.9047 H        31   A45       0.0679
    992 H4'        16.8000   22.1572   -3.9063 H        31   A45       0.1174
    993 H3'        14.9209   21.0691   -1.7720 H        31   A45       0.0615
    994 H2'        16.2537   19.0675   -1.8620 H        31   A45       0.0972
    995 H1'        18.6575   20.4371   -1.9575 H        31   A45       0.2007
    996 H8         16.6288   22.3353    0.5307 H        31   A45       0.1553
    997 H2         19.1929   16.4632    0.5586 H        31   A45       0.0473
    998 H61        18.4184   18.0130    4.4817 H        31   A45       0.4115
    999 H62        17.2405   19.3726    4.5038 H        31   A45       0.4115
   1000 HO2'       17.9927   18.9418   -3.4447 H        31   A45       0.4186
   1001 P          13.3250   19.9290   -3.6000 P.3      32   G46       1.1662
   1002 OP1        12.7570   19.6910   -4.9540 O.co2    32   G46      -0.7760
   1003 OP2        12.5570   20.7250   -2.6090 O.co2    32   G46      -0.7760
   1004 O5'        13.6850   18.5190   -2.9480 O.3      32   G46      -0.4989
   1005 C5'        14.3690   17.5240   -3.7040 C.3      32   G46       0.0558
   1006 C4'        14.6740   16.3200   -2.8420 C.3      32   G46       0.1065
   1007 O4'        15.5590   16.7220   -1.7630 O.3      32   G46      -0.3548
   1008 C3'        13.4920   15.6800   -2.1330 C.3      32   G46       0.2022
   1009 O3'        12.8220   14.7700   -3.0010 O.3      32   G46      -0.5246
   1010 C2'        14.1810   14.9550   -0.9770 C.3      32   G46       0.0670
   1011 O2'        14.8050   13.7440   -1.3660 O.3      32   G46      -0.6139
   1012 C1'        15.2750   15.9570   -0.6040 C.3      32   G46       0.0191
   1013 N9         14.8950   16.8790    0.4610 N.ar     32   G46       0.0492
   1014 C8         14.2510   18.0850    0.3180 C.ar     32   G46       0.1374
   1015 N7         14.0770   18.7080    1.4510 N.ar     32   G46      -0.5709
   1016 C5         14.6320   17.8590    2.4000 C.ar     32   G46       0.1744
   1017 C6         14.7510   18.0080    3.8060 C.2      32   G46       0.4770
   1018 O6         14.3740   18.9500    4.5130 O.2      32   G46      -0.5597
   1019 N1         15.3860   16.9100    4.3850 N.am     32   G46      -0.4787
   1020 C2         15.8420   15.8100    3.7010 C.2      32   G46       0.7657
   1021 N2         16.4240   14.8490    4.4390 N.pl3    32   G46      -0.9672
   1022 N3         15.7350   15.6620    2.3880 N.2      32   G46      -0.6323
   1023 C4         15.1290   16.7200    1.8070 C.ar     32   G46       0.1222
   1024 H5'        15.3028   17.9400   -4.0821 H        32   G46       0.0679
   1025 H5''       13.7452   17.2173   -4.5436 H        32   G46       0.0679
   1026 H4'        15.1745   15.5659   -3.4495 H        32   G46       0.1174
   1027 H3'        12.8045   16.4395   -1.7607 H        32   G46       0.0615
   1028 H2'        13.4934   14.7950   -0.1465 H        32   G46       0.0972
   1029 H1'        16.1714   15.4138   -0.3047 H        32   G46       0.2006
   1030 H8         13.9230   18.4763   -0.6337 H        32   G46       0.1640
   1031 H1         15.5212   16.9248    5.3858 H        32   G46       0.3424
   1032 H21        16.5059   14.9606    5.4395 H        32   G46       0.4364
   1033 H22        16.7794   14.0154    3.9930 H        32   G46       0.4364
   1034 HO2'       14.1334   13.0948   -1.5876 H        32   G46       0.4186
   1035 P          11.2610   14.9860   -3.3410 P.3      33   U47       1.1662
   1036 OP1        11.0200   14.2220   -4.5930 O.co2    33   U47      -0.7760
   1037 OP2        10.9470   16.4360   -3.2970 O.co2    33   U47      -0.7760
   1038 O5'        10.4880   14.2740   -2.1390 O.3      33   U47      -0.4989
   1039 C5'        10.5570   12.8600   -1.9530 C.3      33   U47       0.0558
   1040 C4'         9.6290   12.4120   -0.8360 C.3      33   U47       0.1065
   1041 O4'        10.0470   13.0050    0.4240 O.3      33   U47      -0.3548
   1042 C3'         8.1980   12.9060   -1.0700 C.3      33   U47       0.2022
   1043 O3'         7.2280   11.9080   -0.7710 O.3      33   U47      -0.5246
   1044 C2'         8.0450   14.1650   -0.2190 C.3      33   U47       0.0670
   1045 O2'         6.7770   14.2780    0.3910 O.3      33   U47      -0.6139
   1046 C1'         9.0560   13.8910    0.8890 C.3      33   U47       0.0674
   1047 N1          9.6500   15.0260    1.6020 N.am     33   U47       0.0418
   1048 C2          9.5500   15.0000    2.9760 C.2      33   U47       0.4687
   1049 O2          9.0660   14.0610    3.5830 O.2      33   U47      -0.5477
   1050 N3         10.0450   16.1020    3.6150 N.am     33   U47      -0.3549
   1051 C4         10.6350   17.1960    3.0350 C.2      33   U47       0.5952
   1052 O4         10.9900   18.1300    3.7470 O.2      33   U47      -0.5761
   1053 C5         10.7330   17.1370    1.6060 C.2      33   U47      -0.3635
   1054 C6         10.2480   16.0760    0.9540 C.2      33   U47      -0.1126
   1055 H5'        10.2656   12.3641   -2.8789 H        33   U47       0.0679
   1056 H5''       11.5805   12.5805   -1.7030 H        33   U47       0.0679
   1057 H4'         9.6392   11.3249   -0.7572 H        33   U47       0.1174
   1058 H3'         8.0957   13.1837   -2.1191 H        33   U47       0.0615
   1059 H2'         8.3005   15.0628   -0.7818 H        33   U47       0.0972
   1060 H1'         8.5060   13.3331    1.6468 H        33   U47       0.1824
   1061 H3          9.9682   16.1119    4.6220 H        33   U47       0.3154
   1062 H5         11.1961   17.9453    1.0595 H        33   U47       0.1811
   1063 H6         10.3301   16.0445   -0.1224 H        33   U47       0.2188
   1064 HO2'        6.2124   14.8396   -0.1451 H        33   U47       0.4186
   1065 P           6.4520   11.1480   -1.9460 P.3      34   U48       1.1662
   1066 OP1         5.6090   10.1400   -1.2510 O.co2    34   U48      -0.7760
   1067 OP2         7.4450   10.7050   -2.9550 O.co2    34   U48      -0.7760
   1068 O5'         5.5150   12.2710   -2.5860 O.3      34   U48      -0.4989
   1069 C5'         4.7540   13.1580   -1.7620 C.3      34   U48       0.0558
   1070 C4'         3.7460   13.9180   -2.6040 C.3      34   U48       0.1065
   1071 O4'         2.9980   12.9750   -3.3960 O.3      34   U48      -0.3548
   1072 C3'         2.6900   14.7080   -1.8350 C.3      34   U48       0.2022
   1073 O3'         3.0250   16.0930   -1.7460 O.3      34   U48      -0.5246
   1074 C2'         1.4570   14.6860   -2.7530 C.3      34   U48       0.0670
   1075 O2'         1.2660   15.8890   -3.4750 O.3      34   U48      -0.6139
   1076 C1'         1.7740   13.5660   -3.7440 C.3      34   U48       0.0674
   1077 N1          0.7490   12.5360   -3.9390 N.am     34   U48       0.0418
   1078 C2         -0.2190   12.8130   -4.8790 C.2      34   U48       0.4687
   1079 O2         -0.2650   13.8770   -5.4820 O.2      34   U48      -0.5477
   1080 N3         -1.1290   11.8100   -5.0890 N.am     34   U48      -0.3549
   1081 C4         -1.1700   10.5880   -4.4600 C.2      34   U48       0.5952
   1082 O4         -2.0030    9.7580   -4.8170 O.2      34   U48      -0.5761
   1083 C5         -0.1500   10.3880   -3.4730 C.2      34   U48      -0.3635
   1084 C6          0.7530   11.3490   -3.2520 C.2      34   U48      -0.1126
   1085 H5'         4.2266   12.5807   -1.0026 H        34   U48       0.0679
   1086 H5''        5.4258   13.8657   -1.2762 H        34   U48       0.0679
   1087 H4'         4.2799   14.5955   -3.2703 H        34   U48       0.1174
   1088 H3'         2.4821   14.2723   -0.8578 H        34   U48       0.0615
   1089 H2'         0.5625   14.4424   -2.1798 H        34   U48       0.0972
   1090 H1'         1.9237   14.0422   -4.7130 H        34   U48       0.1824
   1091 H3         -1.8452   11.9872   -5.7787 H        34   U48       0.3154
   1092 H5         -0.1111    9.4665   -2.9111 H        34   U48       0.1811
   1093 H6          1.5145   11.1842   -2.5041 H        34   U48       0.2188
   1094 HO2'        0.9862   15.6845   -4.3703 H        34   U48       0.4186
   1095 P           4.3440   16.5850   -0.9710 P.3      35   U49       1.1662
   1096 OP1         4.2390   18.0630   -1.0480 O.co2    35   U49      -0.7760
   1097 OP2         5.5530   15.9070   -1.5080 O.co2    35   U49      -0.7760
   1098 O5'         4.1220   16.1420    0.5460 O.3      35   U49      -0.4989
   1099 C5'         3.0400   16.6750    1.2960 C.3      35   U49       0.0558
   1100 C4'         3.3090   16.6050    2.7860 C.3      35   U49       0.1065
   1101 O4'         3.2320   15.2240    3.2370 O.3      35   U49      -0.3548
   1102 C3'         4.7210   17.0800    3.1420 C.3      35   U49       0.2022
   1103 O3'         4.7340   18.0700    4.1690 O.3      35   U49      -0.5246
   1104 C2'         5.5640   15.8160    3.3360 C.3      35   U49       0.0670
   1105 O2'         6.4450   15.8980    4.4370 O.3      35   U49      -0.6139
   1106 C1'         4.4900   14.8010    3.7130 C.3      35   U49       0.0674
   1107 N1          4.6820   13.3630    3.4860 N.am     35   U49       0.0418
   1108 C2          4.4600   12.5480    4.5790 C.2      35   U49       0.4687
   1109 O2          4.1130   12.9840    5.6610 O.2      35   U49      -0.5477
   1110 N3          4.6550   11.2110    4.3630 N.am     35   U49      -0.3549
   1111 C4          5.0450   10.6120    3.1880 C.2      35   U49       0.5952
   1112 O4          5.1780    9.3870    3.1530 O.2      35   U49      -0.5761
   1113 C5          5.2560   11.5180    2.0960 C.2      35   U49      -0.3635
   1114 C6          5.0690   12.8350    2.2790 C.2      35   U49      -0.1126
   1115 H5'         2.8913   17.7167    1.0116 H        35   U49       0.0679
   1116 H5''        2.1357   16.1102    1.0693 H        35   U49       0.0679
   1117 H4'         2.5739   17.2069    3.3202 H        35   U49       0.1174
   1118 H3'         5.1097   17.5676    2.2480 H        35   U49       0.0615
   1119 H2'         6.0849   15.5329    2.4213 H        35   U49       0.0972
   1120 H1'         4.4082   14.8905    4.7962 H        35   U49       0.1824
   1121 H3          4.4955   10.5988    5.1503 H        35   U49       0.3154
   1122 H5          5.5638   11.1426    1.1313 H        35   U49       0.1811
   1123 H6          5.2289   13.5037    1.4461 H        35   U49       0.2188
   1124 HO2'        6.8841   16.7517    4.4332 H        35   U49       0.4186
   1125 P           6.0440   18.9650    4.4290 P.3      36   C50       1.1662
   1126 OP1         5.9810   20.1640    3.5570 O.co2    36   C50      -0.7760
   1127 OP2         7.2560   18.1070    4.4050 O.co2    36   C50      -0.7760
   1128 O5'         5.8350   19.4500    5.9300 O.3      36   C50      -0.4989
   1129 C5'         4.6950   20.2240    6.2930 C.3      36   C50       0.0558
   1130 C4'         4.3570   19.9950    7.7440 C.3      36   C50       0.1065
   1131 O4'         3.8280   18.6550    7.9200 O.3      36   C50      -0.3548
   1132 C3'         5.5450   20.0620    8.6880 C.3      36   C50       0.2022
   1133 O3'         5.8130   21.4070    9.0580 O.3      36   C50      -0.5246
   1134 C2'         5.0670   19.2290    9.8700 C.3      36   C50       0.0670
   1135 O2'         4.2200   19.9480   10.7430 O.3      36   C50      -0.6139
   1136 C1'         4.2620   18.1340    9.1660 C.3      36   C50       0.0066
   1137 N1          5.0250   16.9050    8.9070 N.am     36   C50      -0.0484
   1138 C2          5.5030   16.1640    9.9920 C.2      36   C50       0.7538
   1139 O2          5.2900   16.5770   11.1420 O.2      36   C50      -0.6252
   1140 N3          6.1830   15.0170    9.7610 N.2      36   C50      -0.7584
   1141 C4          6.3900   14.6050    8.5080 C.2      36   C50       0.8185
   1142 N4          7.0480   13.4580    8.3280 N.pl3    36   C50      -0.9530
   1143 C5          5.9260   15.3490    7.3840 C.2      36   C50      -0.5215
   1144 C6          5.2550   16.4830    7.6270 C.2      36   C50       0.0053
   1145 H5'         4.9112   21.2806    6.1353 H        36   C50       0.0679
   1146 H5''        3.8471   19.9318    5.6735 H        36   C50       0.0679
   1147 H4'         3.6073   20.7215    8.0575 H        36   C50       0.1174
   1148 H3'         6.4240   19.6083    8.2302 H        36   C50       0.0615
   1149 H2'         5.9115   18.8029   10.4116 H        36   C50       0.0972
   1150 H1'         3.3896   17.8894    9.7719 H        36   C50       0.2029
   1151 H5          6.1085   15.0113    6.3745 H        36   C50       0.1928
   1152 H6          4.8902   17.0728    6.7991 H        36   C50       0.1958
   1153 H41         7.3738   12.9321    9.1263 H        36   C50       0.4234
   1154 H42         7.2202   13.1159    7.3934 H        36   C50       0.4234
   1155 HO2'        4.7242   20.6350   11.1850 H        36   C50       0.4186
   1156 P           7.3080   21.9810    8.9370 P.3      37   U51       1.1662
   1157 OP1         7.3220   23.3710    9.4560 O.co2    37   U51      -0.7760
   1158 OP2         7.7850   21.7100    7.5560 O.co2    37   U51      -0.7760
   1159 O5'         8.1500   21.0630    9.9310 O.3      37   U51      -0.4989
   1160 C5'         7.9110   21.0970   11.3300 C.3      37   U51       0.0558
   1161 C4'         8.4910   19.8690   11.9940 C.3      37   U51       0.1065
   1162 O4'         7.8770   18.6820   11.4270 O.3      37   U51      -0.3548
   1163 C3'         9.9790   19.6200   11.8060 C.3      37   U51       0.2022
   1164 O3'        10.7470   20.3960   12.7280 O.3      37   U51      -0.5246
   1165 C2'        10.0810   18.1310   12.1190 C.3      37   U51       0.0670
   1166 O2'        10.0580   17.8790   13.5080 O.3      37   U51      -0.6139
   1167 C1'         8.7860   17.5960   11.5040 C.3      37   U51       0.0674
   1168 N1          8.9640   17.0340   10.1570 N.am     37   U51       0.0418
   1169 C2          9.4310   15.7370   10.0600 C.2      37   U51       0.4687
   1170 O2          9.6990   15.0580   11.0350 O.2      37   U51      -0.5477
   1171 N3          9.5770   15.2660    8.7780 N.am     37   U51      -0.3549
   1172 C4          9.3130   15.9470    7.6070 C.2      37   U51       0.5952
   1173 O4          9.4970   15.3880    6.5240 O.2      37   U51      -0.5761
   1174 C5          8.8340   17.2840    7.7910 C.2      37   U51      -0.3635
   1175 C6          8.6790   17.7690    9.0300 C.2      37   U51      -0.1126
   1176 H5'         8.3770   21.9873   11.7522 H        37   U51       0.0679
   1177 H5''        6.8368   21.1317   11.5116 H        37   U51       0.0679
   1178 H4'         8.2705   19.9062   13.0608 H        37   U51       0.1174
   1179 H3'        10.2814   19.8238   10.7788 H        37   U51       0.0615
   1180 H2'        10.9577   17.6854   11.6489 H        37   U51       0.0972
   1181 H1'         8.3708   16.8293   12.1582 H        37   U51       0.1824
   1182 H3          9.9140   14.3188    8.6819 H        37   U51       0.3154
   1183 H5          8.5988   17.8985    6.9346 H        37   U51       0.1811
   1184 H6          8.3152   18.7789    9.1489 H        37   U51       0.2188
   1185 HO2'       10.9106   17.5362   13.7857 H        37   U51       0.4186
   1186 P          12.2830   20.7530   12.3950 P.3      38   A52       1.1662
   1187 OP1        12.8040   21.6280   13.4750 O.co2    38   A52      -0.7760
   1188 OP2        12.3550   21.2120   10.9830 O.co2    38   A52      -0.7760
   1189 O5'        13.0370   19.3540   12.5010 O.3      38   A52      -0.4989
   1190 C5'        13.0650   18.6260   13.7250 C.3      38   A52       0.0558
   1191 C4'        13.6080   17.2400   13.4860 C.3      38   A52       0.1065
   1192 O4'        12.7400   16.5550   12.5450 O.3      38   A52      -0.3548
   1193 C3'        14.9870   17.1990   12.8460 C.3      38   A52       0.2022
   1194 O3'        15.9840   17.2450   13.8700 O.3      38   A52      -0.5246
   1195 C2'        14.9790   15.8510   12.1280 C.3      38   A52       0.0670
   1196 O2'        15.2810   14.7820   13.0020 O.3      38   A52      -0.6139
   1197 C1'        13.5140   15.7360   11.6890 C.3      38   A52       0.0394
   1198 N9         13.2280   16.1250   10.3050 N.ar     38   A52      -0.0251
   1199 C8         12.6920   17.3110    9.8650 C.ar     38   A52       0.2006
   1200 N7         12.4990   17.3570    8.5680 N.ar     38   A52      -0.6073
   1201 C5         12.9450   16.1210    8.1210 C.ar     38   A52       0.0515
   1202 C6         12.9940   15.5430    6.8420 C.ar     38   A52       0.7009
   1203 N6         12.5460   16.1490    5.7370 N.pl3    38   A52      -0.9019
   1204 N1         13.5150   14.3010    6.7360 N.ar     38   A52      -0.7615
   1205 C2         13.9390   13.6860    7.8480 C.ar     38   A52       0.5875
   1206 N3         13.9290   14.1180    9.1050 N.ar     38   A52      -0.6997
   1207 C4         13.4130   15.3580    9.1760 C.ar     38   A52       0.3053
   1208 H5'        12.0538   18.5537   14.1254 H        38   A52       0.0679
   1209 H5''       13.7016   19.1458   14.4410 H        38   A52       0.0679
   1210 H4'        13.6282   16.6907   14.4273 H        38   A52       0.1174
   1211 H3'        15.1146   18.0184   12.1386 H        38   A52       0.0615
   1212 H2'        15.6488   15.8584   11.2681 H        38   A52       0.0972
   1213 H1'        13.1964   14.7023   11.8260 H        38   A52       0.2007
   1214 H8         12.4515   18.1304   10.5262 H        38   A52       0.1553
   1215 H2         14.3477   12.6970    7.7022 H        38   A52       0.0473
   1216 H61        12.7213   15.7031    4.8479 H        38   A52       0.4115
   1217 H62        12.0475   17.0258    5.7901 H        38   A52       0.4115
   1218 HO2'       16.1970   14.8461   13.2821 H        38   A52       0.4186
   1219 P          17.2650   18.2080   13.7110 P.3      39   C53       1.1662
   1220 OP1        17.9620   18.2330   15.0220 O.co2    39   C53      -0.7760
   1221 OP2        16.8350   19.4850   13.0860 O.co2    39   C53      -0.7760
   1222 O5'        18.1980   17.4670   12.6500 O.3      39   C53      -0.4989
   1223 C5'        18.8510   16.2410   12.9640 C.3      39   C53       0.0558
   1224 C4'        19.2700   15.5390   11.6910 C.3      39   C53       0.1065
   1225 O4'        18.0750   15.2620   10.9150 O.3      39   C53      -0.3548
   1226 C3'        20.1600   16.3350   10.7440 C.3      39   C53       0.2022
   1227 O3'        21.5390   16.1540   11.0600 O.3      39   C53      -0.5246
   1228 C2'        19.8510   15.6830    9.3990 C.3      39   C53       0.0670
   1229 O2'        20.5370   14.4590    9.2320 O.3      39   C53      -0.6139
   1230 C1'        18.3570   15.3900    9.5320 C.3      39   C53       0.0066
   1231 N1         17.4940   16.4450    8.9730 N.am     39   C53      -0.0484
   1232 C2         16.8040   16.1890    7.7790 C.2      39   C53       0.7538
   1233 O2         16.9190   15.0750    7.2470 O.2      39   C53      -0.6252
   1234 N3         16.0260   17.1580    7.2420 N.2      39   C53      -0.7584
   1235 C4         15.9140   18.3380    7.8550 C.2      39   C53       0.8185
   1236 N4         15.1420   19.2660    7.2850 N.pl3    39   C53      -0.9530
   1237 C5         16.5940   18.6210    9.0790 C.2      39   C53      -0.5215
   1238 C6         17.3680   17.6550    9.5960 C.2      39   C53       0.0053
   1239 H5'        19.7333   16.4467   13.5702 H        39   C53       0.0679
   1240 H5''       18.1690   15.6004   13.5230 H        39   C53       0.0679
   1241 H4'        19.7617   14.5994   11.9429 H        39   C53       0.1174
   1242 H3'        19.8903   17.3911   10.7424 H        39   C53       0.0615
   1243 H2'        20.0496   16.3652    8.5724 H        39   C53       0.0972
   1244 H1'        18.1336   14.4464    9.0343 H        39   C53       0.2029
   1245 H5         16.4889   19.5772    9.5699 H        39   C53       0.1928
   1246 H6         17.8996   17.8361   10.5185 H        39   C53       0.1958
   1247 H41        14.6643   19.0629    6.4186 H        39   C53       0.4234
   1248 H42        15.0356   20.1712    7.7201 H        39   C53       0.4234
   1249 HO2'       19.9891   13.7384    9.5517 H        39   C53       0.4186
   1250 P          22.3210   17.2560   11.9390 P.3      40   C54       1.1662
   1251 OP1        21.3280   18.2100   12.4830 O.co2    40   C54      -0.7760
   1252 OP2        23.4650   17.7650   11.1470 O.co2    40   C54      -0.7760
   1253 O5'        22.9090   16.4050   13.1530 O.3      40   C54      -0.4989
   1254 C5'        22.4330   16.6230   14.4690 C.3      40   C54       0.0558
   1255 C4'        22.2060   15.3130   15.1970 C.3      40   C54       0.1065
   1256 O4'        21.4600   14.3940   14.3520 O.3      40   C54      -0.3548
   1257 C3'        23.3980   14.4570   15.5990 C.3      40   C54       0.2022
   1258 O3'        24.0550   14.9840   16.7500 O.3      40   C54      -0.5246
   1259 C2'        22.6860   13.1580   15.9600 C.3      40   C54       0.0670
   1260 O2'        22.0190   13.2680   17.2010 O.3      40   C54      -0.6139
   1261 C1'        21.6260   13.0810   14.8580 C.3      40   C54       0.0066
   1262 N1         22.0120   12.1560   13.7760 N.am     40   C54      -0.0484
   1263 C2         21.9980   10.7920   14.0650 C.2      40   C54       0.7538
   1264 O2         21.6640   10.4360   15.2030 O.2      40   C54      -0.6252
   1265 N3         22.3510    9.9010   13.1080 N.2      40   C54      -0.7584
   1266 C4         22.7080   10.3320   11.8990 C.2      40   C54       0.8185
   1267 N4         23.0400    9.4140   10.9850 N.pl3    40   C54      -0.9530
   1268 C5         22.7360   11.7250   11.5730 C.2      40   C54      -0.5215
   1269 C6         22.3790   12.5950   12.5340 C.2      40   C54       0.0053
   1270 H5'        23.1671   17.2120   15.0189 H        40   C54       0.0679
   1271 H5''       21.4938   17.1742   14.4231 H        40   C54       0.0679
   1272 H4'        21.6135   15.5154   16.0892 H        40   C54       0.1174
   1273 H3'        24.0910   14.3181   14.7692 H        40   C54       0.0615
   1274 H2'        23.3617   12.3030   15.9354 H        40   C54       0.0972
   1275 H1'        20.6844   12.7460   15.2931 H        40   C54       0.2029
   1276 H5         23.0328   12.0649   10.5918 H        40   C54       0.1928
   1277 H6         22.3821   13.6540   12.3223 H        40   C54       0.1958
   1278 H41        23.0161    8.4327   11.2230 H        40   C54       0.4234
   1279 H42        23.3147    9.7019   10.0567 H        40   C54       0.4234
   1280 HO2'       22.5821   12.9253   17.8989 H        40   C54       0.4186
   1281 P          25.5120   14.4380   17.1730 P.3      41   G55       1.1662
   1282 OP1        25.9870   15.3240   18.2640 O.co2    41   G55      -0.7760
   1283 OP2        26.3570   14.2360   15.9760 O.co2    41   G55      -0.7760
   1284 O5'        25.2460   12.9990   17.8000 O.3      41   G55      -0.4989
   1285 C5'        24.7190   12.8630   19.1150 C.3      41   G55       0.0558
   1286 C4'        24.7360   11.4160   19.5430 C.3      41   G55       0.1065
   1287 O4'        23.9200   10.6310   18.6340 O.3      41   G55      -0.3548
   1288 C3'        26.0840   10.7210   19.4900 C.3      41   G55       0.2022
   1289 O3'        26.8620   11.0190   20.6420 O.3      41   G55      -0.5246
   1290 C2'        25.6670    9.2600   19.4550 C.3      41   G55       0.0670
   1291 O2'        25.1900    8.8150   20.7070 O.3      41   G55      -0.6139
   1292 C1'        24.4770    9.3300   18.5020 C.3      41   G55       0.0191
   1293 N9         24.8480    9.1300   17.1050 N.ar     41   G55       0.0492
   1294 C8         25.0630   10.0990   16.1510 C.ar     41   G55       0.1374
   1295 N7         25.2870    9.6050   14.9610 N.ar     41   G55      -0.5709
   1296 C5         25.2360    8.2270   15.1460 C.ar     41   G55       0.1744
   1297 C6         25.3700    7.1720   14.2140 C.2      41   G55       0.4770
   1298 O6         25.5460    7.2420   12.9930 O.2      41   G55      -0.5597
   1299 N1         25.2610    5.9270   14.8290 N.am     41   G55      -0.4787
   1300 C2         25.0410    5.7220   16.1720 C.2      41   G55       0.7657
   1301 N2         24.9600    4.4310   16.5740 N.pl3    41   G55      -0.9672
   1302 N3         24.9060    6.7000   17.0530 N.2      41   G55      -0.6323
   1303 C4         25.0050    7.9190   16.4720 C.ar     41   G55       0.1222
   1304 H5'        25.3245   13.4488   19.8065 H        41   G55       0.0679
   1305 H5''       23.6935   13.2320   19.1323 H        41   G55       0.0679
   1306 H4'        24.3297   11.3350   20.5512 H        41   G55       0.1174
   1307 H3'        26.6217   10.9907   18.5810 H        41   G55       0.0615
   1308 H2'        26.4601    8.6191   19.0700 H        41   G55       0.0972
   1309 H1'        23.7351    8.5857   18.7914 H        41   G55       0.2006
   1310 H8         25.0482   11.1578   16.3634 H        41   G55       0.1640
   1311 H1         25.3506    5.1095   14.2426 H        41   G55       0.3424
   1312 H21        25.0615    3.6851   15.9006 H        41   G55       0.4364
   1313 H22        24.7981    4.2143   17.5471 H        41   G55       0.4364
   1314 HO2'       25.8753    8.3090   21.1496 H        41   G55       0.4186
   1315 P          28.4430   11.2200   20.4870 P.3      42   G56       1.1662
   1316 OP1        28.9140   11.9010   21.7180 O.co2    42   G56      -0.7760
   1317 OP2        28.7010   11.8300   19.1560 O.co2    42   G56      -0.7760
   1318 O5'        29.0250    9.7380   20.4620 O.3      42   G56      -0.4989
   1319 C5'        29.0790    8.9680   21.6560 C.3      42   G56       0.0558
   1320 C4'        29.1450    7.4940   21.3290 C.3      42   G56       0.1065
   1321 O4'        28.0210    7.1490   20.4680 O.3      42   G56      -0.3548
   1322 C3'        30.3530    7.0230   20.5380 C.3      42   G56       0.2022
   1323 O3'        31.4830    6.8120   21.3780 O.3      42   G56      -0.5246
   1324 C2'        29.8240    5.7140   19.9720 C.3      42   G56       0.0670
   1325 O2'        29.7180    4.7230   20.9780 O.3      42   G56      -0.6139
   1326 C1'        28.4190    6.1390   19.5520 C.3      42   G56       0.0191
   1327 N9         28.4240    6.7060   18.2070 N.ar     42   G56       0.0492
   1328 C8         28.4170    8.0340   17.8550 C.ar     42   G56       0.1374
   1329 N7         28.4600    8.2230   16.5610 N.ar     42   G56      -0.5709
   1330 C5         28.4870    6.9420   16.0300 C.ar     42   G56       0.1744
   1331 C6         28.5390    6.5100   14.6850 C.2      42   G56       0.4770
   1332 O6         28.5780    7.2000   13.6590 O.2      42   G56      -0.5597
   1333 N1         28.5550    5.1170   14.5950 N.am     42   G56      -0.4787
   1334 C2         28.5390    4.2570   15.6590 C.2      42   G56       0.7657
   1335 N2         28.5860    2.9470   15.3650 N.pl3    42   G56      -0.9672
   1336 N3         28.4870    4.6480   16.9200 N.2      42   G56      -0.6323
   1337 C4         28.4630    5.9940   17.0310 C.ar     42   G56       0.1222
   1338 H5'        29.9649    9.2496   22.2252 H        42   G56       0.0679
   1339 H5''       28.1888    9.1655   22.2531 H        42   G56       0.0679
   1340 H4'        29.0768    6.9197   22.2529 H        42   G56       0.1174
   1341 H3'        30.5900    7.7240   19.7377 H        42   G56       0.0615
   1342 H2'        30.4152    5.3699   19.1233 H        42   G56       0.0972
   1343 H1'        27.7359    5.2912   19.6029 H        42   G56       0.2006
   1344 H8         28.3798    8.8398   18.5732 H        42   G56       0.1640
   1345 H1         28.5804    4.7115   13.6703 H        42   G56       0.3424
   1346 H21        28.6280    2.6469   14.4015 H        42   G56       0.4364
   1347 H22        28.5794    2.2623   16.1074 H        42   G56       0.4364
   1348 HO2'       30.3048    3.9920   20.7708 H        42   G56       0.4186
   1349 P          32.9470    6.7400   20.7360 P.3      43   G57       1.1662
   1350 OP1        33.9340    6.6900   21.8410 O.co2    43   G57      -0.7760
   1351 OP2        33.0370    7.8120   19.7150 O.co2    43   G57      -0.7760
   1352 O5'        32.9850    5.3530   19.9470 O.3      43   G57      -0.4989
   1353 C5'        33.0080    4.1100   20.6450 C.3      43   G57       0.0558
   1354 C4'        32.9620    2.9570   19.6670 C.3      43   G57       0.1065
   1355 O4'        31.7900    3.0990   18.8160 O.3      43   G57      -0.3548
   1356 C3'        34.1060    2.8650   18.6710 C.3      43   G57       0.2022
   1357 O3'        35.2420    2.2250   19.2330 O.3      43   G57      -0.5246
   1358 C2'        33.4830    2.0040   17.5830 C.3      43   G57       0.0670
   1359 O2'        33.4010    0.6450   17.9760 O.3      43   G57      -0.6139
   1360 C1'        32.0760    2.5930   17.5190 C.3      43   G57       0.0191
   1361 N9         31.9680    3.6870   16.5560 N.ar     43   G57       0.0492
   1362 C8         31.8510    5.0290   16.8300 C.ar     43   G57       0.1374
   1363 N7         31.7660    5.7660   15.7550 N.ar     43   G57      -0.5709
   1364 C5         31.8340    4.8560   14.7070 C.ar     43   G57       0.1744
   1365 C6         31.7840    5.0640   13.2990 C.2      43   G57       0.4770
   1366 O6         31.6490    6.1240   12.6800 O.2      43   G57      -0.5597
   1367 N1         31.9030    3.8680   12.6010 N.am     43   G57      -0.4787
   1368 C2         32.0450    2.6310   13.1750 C.2      43   G57       0.7657
   1369 N2         32.1770    1.5960   12.3240 N.pl3    43   G57      -0.9672
   1370 N3         32.0690    2.4210   14.4860 N.2      43   G57      -0.6323
   1371 C4         31.9640    3.5700   15.1840 C.ar     43   G57       0.1222
   1372 H5'        32.1443    4.0539   21.3075 H        43   G57       0.0679
   1373 H5''       33.9212    4.0452   21.2365 H        43   G57       0.0679
   1374 H4'        32.8920    2.0204   20.2201 H        43   G57       0.1174
   1375 H3'        34.3661    3.8508   18.2855 H        43   G57       0.0615
   1376 H2'        34.0076    2.1157   16.6341 H        43   G57       0.0972
   1377 H1'        31.3618    1.8096   17.2654 H        43   G57       0.2006
   1378 H8         31.8314    5.4326   17.8316 H        43   G57       0.1640
   1379 H1         31.8833    3.9137   11.5922 H        43   G57       0.3424
   1380 H21        32.1631    1.7570   11.3270 H        43   G57       0.4364
   1381 H22        32.2899    0.6586   12.6826 H        43   G57       0.4364
   1382 HO2'       34.2836    0.2697   18.0178 H        43   G57       0.4186
   1383 P          36.7180    2.7400   18.8590 P.3      44   C58       1.1662
   1384 OP1        37.6820    1.9340   19.6320 O.co2    44   C58      -0.7760
   1385 OP2        36.7450    4.2190   18.9790 O.co2    44   C58      -0.7760
   1386 O5'        36.8790    2.3510   17.3180 O.3      44   C58      -0.4989
   1387 C5'        36.9670    0.9890   16.9200 C.3      44   C58       0.0558
   1388 C4'        36.8400    0.8720   15.4210 C.3      44   C58       0.1065
   1389 O4'        35.5440    1.3790   15.0050 O.3      44   C58      -0.3548
   1390 C3'        37.8170    1.6880   14.5950 C.3      44   C58       0.2022
   1391 O3'        39.0780    1.0490   14.4880 O.3      44   C58      -0.5246
   1392 C2'        37.0930    1.7410   13.2570 C.3      44   C58       0.0670
   1393 O2'        37.1330    0.5130   12.5640 O.3      44   C58      -0.6139
   1394 C1'        35.6600    1.9780   13.7210 C.3      44   C58       0.0066
   1395 N1         35.3790    3.4200   13.8320 N.am     44   C58      -0.0484
   1396 C2         35.1290    4.1230   12.6640 C.2      44   C58       0.7538
   1397 O2         35.1390    3.5060   11.5960 O.2      44   C58      -0.6252
   1398 N3         34.8870    5.4520   12.7230 N.2      44   C58      -0.7584
   1399 C4         34.8910    6.0770   13.8950 C.2      44   C58       0.8185
   1400 N4         34.6500    7.3930   13.8970 N.pl3    44   C58      -0.9530
   1401 C5         35.1410    5.3840   15.1160 C.2      44   C58      -0.5215
   1402 C6         35.3740    4.0640   15.0380 C.2      44   C58       0.0053
   1403 H5'        36.1647    0.4235   17.3939 H        44   C58       0.0679
   1404 H5''       37.9287    0.5828   17.2335 H        44   C58       0.0679
   1405 H4'        36.9211   -0.1771   15.1366 H        44   C58       0.1174
   1406 H3'        37.9283    2.6893   15.0110 H        44   C58       0.0615
   1407 H2'        37.4546    2.5622   12.6381 H        44   C58       0.0972
   1408 H1'        34.9602    1.5129   13.0267 H        44   C58       0.2029
   1409 H5         35.1428    5.8999   16.0648 H        44   C58       0.1928
   1410 H6         35.5603    3.5025   15.9416 H        44   C58       0.1958
   1411 H41        34.4738    7.8755   13.0273 H        44   C58       0.4234
   1412 H42        34.6443    7.9040   14.7682 H        44   C58       0.4234
   1413 HO2'       38.0287    0.3442   12.2625 H        44   C58       0.4186
   1414 P          40.4080    1.9360   14.3380 P.3      45   A59       1.1662
   1415 OP1        41.5660    1.0430   14.5870 O.co2    45   A59      -0.7760
   1416 OP2        40.2430    3.1630   15.1560 O.co2    45   A59      -0.7760
   1417 O5'        40.4170    2.3780   12.8010 O.3      45   A59      -0.4989
   1418 C5'        40.4440    1.4050   11.7550 C.3      45   A59       0.0558
   1419 C4'        40.1680    2.0560   10.4170 C.3      45   A59       0.1065
   1420 O4'        38.8730    2.7040   10.4660 O.3      45   A59      -0.3548
   1421 C3'        41.1310    3.1500    9.9750 C.3      45   A59       0.2022
   1422 O3'        42.2390    2.5880    9.2770 O.3      45   A59      -0.5246
   1423 C2'        40.2760    3.9600    9.0110 C.3      45   A59       0.0670
   1424 O2'        40.1940    3.3680    7.7310 O.3      45   A59      -0.6139
   1425 C1'        38.9070    3.8910    9.6860 C.3      45   A59       0.0394
   1426 N9         38.6150    5.0250   10.5620 N.ar     45   A59      -0.0251
   1427 C8         38.5620    5.0320   11.9320 C.ar     45   A59       0.2006
   1428 N7         38.2030    6.1850   12.4380 N.ar     45   A59      -0.6073
   1429 C5         38.0200    6.9950   11.3280 C.ar     45   A59       0.0515
   1430 C6         37.6110    8.3310   11.1880 C.ar     45   A59       0.7009
   1431 N6         37.2570    9.1070   12.2140 N.pl3    45   A59      -0.9019
   1432 N1         37.5610    8.8450    9.9380 N.ar     45   A59      -0.7615
   1433 C2         37.8740    8.0540    8.9110 C.ar     45   A59       0.5875
   1434 N3         38.2470    6.7800    8.9130 N.ar     45   A59      -0.6997
   1435 C4         38.2990    6.3020   10.1680 C.ar     45   A59       0.3053
   1436 H5'        41.4268    0.9343   11.7286 H        45   A59       0.0679
   1437 H5''       39.6862    0.6460   11.9494 H        45   A59       0.0679
   1438 H4'        40.1427    1.2818    9.6501 H        45   A59       0.1174
   1439 H3'        41.4593    3.7555   10.8198 H        45   A59       0.0615
   1440 H2'        40.6286    4.9893    8.9447 H        45   A59       0.0972
   1441 H1'        38.1366    3.8308    8.9172 H        45   A59       0.2007
   1442 H8         38.7945    4.1679   12.5368 H        45   A59       0.1553
   1443 H2         37.8156    8.5167    7.9369 H        45   A59       0.0473
   1444 H61        36.8996    9.9925   11.8850 H        45   A59       0.4115
   1445 H62        37.3356    8.8449   13.1862 H        45   A59       0.4115
   1446 HO2'       40.2666    4.0491    7.0584 H        45   A59       0.4186
   1447 P          43.6650    3.3230    9.3090 P.3      46   C60       1.1662
   1448 OP1        44.6140    2.4880    8.5330 O.co2    46   C60      -0.7760
   1449 OP2        43.9870    3.6830   10.7100 O.co2    46   C60      -0.7760
   1450 O5'        43.4400    4.7000    8.5380 O.3      46   C60      -0.4989
   1451 C5'        43.0750    4.7400    7.1630 C.3      46   C60       0.0558
   1452 C4'        42.6490    6.1420    6.7900 C.3      46   C60       0.1065
   1453 O4'        41.4190    6.4800    7.4920 O.3      46   C60      -0.3548
   1454 C3'        43.6300    7.2230    7.2170 C.3      46   C60       0.2022
   1455 O3'        44.6690    7.3840    6.2580 O.3      46   C60      -0.5246
   1456 C2'        42.7330    8.4500    7.3270 C.3      46   C60       0.0670
   1457 O2'        42.4190    9.0240    6.0780 O.3      46   C60      -0.6139
   1458 C1'        41.4650    7.8360    7.9180 C.3      46   C60       0.0066
   1459 N1         41.4180    7.8660    9.3930 N.am     46   C60      -0.0484
   1460 C2         41.0110    9.0490   10.0440 C.2      46   C60       0.7538
   1461 O2         40.7750   10.0660    9.3700 O.2      46   C60      -0.6252
   1462 N3         40.8930    9.0530   11.3930 N.2      46   C60      -0.7584
   1463 C4         41.1760    7.9530   12.0920 C.2      46   C60       0.8185
   1464 N4         40.9970    7.9950   13.4230 N.pl3    46   C60      -0.9530
   1465 C5         41.6410    6.7570   11.4640 C.2      46   C60      -0.5215
   1466 C6         41.7420    6.7560   10.1250 C.2      46   C60       0.0053
   1467 H5'        43.9291    4.4464    6.5527 H        46   C60       0.0679
   1468 H5''       42.2491    4.0509    6.9867 H        46   C60       0.0679
   1469 H4'        42.4847    6.2008    5.7141 H        46   C60       0.1174
   1470 H3'        44.0540    6.9804    8.1914 H        46   C60       0.0615
   1471 H2'        43.1620    9.1903    8.0023 H        46   C60       0.0972
   1472 H1'        40.5965    8.3631    7.5231 H        46   C60       0.2029
   1473 H5         41.9019    5.8850   12.0453 H        46   C60       0.1928
   1474 H6         42.0841    5.8658    9.6181 H        46   C60       0.1958
   1475 H41        40.6634    8.8416   13.8612 H        46   C60       0.4234
   1476 H42        41.1960    7.1799   13.9853 H        46   C60       0.4234
   1477 HO2'       42.8416    9.8829    6.0047 H        46   C60       0.4186
   1478 P          46.1040    7.9170    6.7260 P.3      47   C61       1.1662
   1479 OP1        47.0520    7.7080    5.6020 O.co2    47   C61      -0.7760
   1480 OP2        46.4170    7.3500    8.0630 O.co2    47   C61      -0.7760
   1481 O5'        45.8990    9.4810    6.9280 O.3      47   C61      -0.4989
   1482 C5'        45.4930   10.3100    5.8450 C.3      47   C61       0.0558
   1483 C4'        45.0900   11.6740    6.3540 C.3      47   C61       0.1065
   1484 O4'        43.9380   11.5480    7.2310 O.3      47   C61      -0.3548
   1485 C3'        46.1300   12.3980    7.1920 C.3      47   C61       0.2022
   1486 O3'        47.0320   13.0900    6.3320 O.3      47   C61      -0.5246
   1487 C2'        45.2590   13.3710    7.9850 C.3      47   C61       0.0670
   1488 O2'        44.8600   14.4770    7.1970 O.3      47   C61      -0.6139
   1489 C1'        44.0210   12.5130    8.2670 C.3      47   C61       0.0066
   1490 N1         44.0210   11.8060    9.5630 N.am     47   C61      -0.0484
   1491 C2         43.5560   12.4780   10.6970 C.2      47   C61       0.7538
   1492 O2         43.2110   13.6670   10.5910 O.2      47   C61      -0.6252
   1493 N3         43.5010   11.8230   11.8770 N.2      47   C61      -0.7584
   1494 C4         43.9040   10.5520   11.9560 C.2      47   C61       0.8185
   1495 N4         43.8170    9.9420   13.1390 N.pl3    47   C61      -0.9530
   1496 C5         44.4090    9.8500   10.8230 C.2      47   C61      -0.5215
   1497 C6         44.4500   10.5100    9.6570 C.2      47   C61       0.0053
   1498 H5'        44.6447    9.8500    5.3381 H        47   C61       0.0679
   1499 H5''       46.3193   10.4164    5.1422 H        47   C61       0.0679
   1500 H4'        44.8206   12.3024    5.5051 H        47   C61       0.1174
   1501 H3'        46.6586   11.7096    7.8514 H        47   C61       0.0615
   1502 H2'        45.7469   13.6886    8.9065 H        47   C61       0.0972
   1503 H1'        43.1383   13.1507    8.2192 H        47   C61       0.2029
   1504 H5         44.7454    8.8267   10.9009 H        47   C61       0.1928
   1505 H6         44.8279   10.0106    8.7771 H        47   C61       0.1958
   1506 H41        43.4570   10.4416   13.9395 H        47   C61       0.4234
   1507 H42        44.1112    8.9805   13.2342 H        47   C61       0.4234
   1508 HO2'       44.0148   14.8062    7.5114 H        47   C61       0.4186
   1509 P          48.6160   12.8260    6.4390 P.3      48   G62       1.1662
   1510 OP1        49.2570   13.5530    5.3100 O.co2    48   G62      -0.7760
   1511 OP2        48.8380   11.3640    6.5950 O.co2    48   G62      -0.7760
   1512 O5'        49.0310   13.5360    7.7980 O.3      48   G62      -0.4989
   1513 C5'        50.3750   13.9320    8.0390 C.3      48   G62       0.0558
   1514 C4'        50.4930   14.5040    9.4270 C.3      48   G62       0.1065
   1515 O4'        50.2420   13.4540   10.3920 O.3      48   G62      -0.3548
   1516 C3'        51.9000   15.0080    9.7140 C.3      48   G62       0.2022
   1517 O3'        51.8560   16.2860   10.3270 O.3      48   G62      -0.5246
   1518 C2'        52.6070   13.8940   10.4840 C.3      48   G62       0.0670
   1519 O2'        53.3780   14.3930   11.5550 O.3      48   G62      -0.6139
   1520 C1'        51.4220   13.1580   11.1000 C.3      48   G62       0.0191
   1521 N9         51.4940   11.7270   11.3620 N.ar     48   G62       0.0492
   1522 C8         51.9210   10.7110   10.5420 C.ar     48   G62       0.1374
   1523 N7         51.8360    9.5340   11.1040 N.ar     48   G62      -0.5709
   1524 C5         51.3270    9.7950   12.3720 C.ar     48   G62       0.1744
   1525 C6         51.0120    8.9160   13.4500 C.2      48   G62       0.4770
   1526 O6         51.1250    7.6850   13.5030 O.2      48   G62      -0.5597
   1527 N1         50.5150    9.6140   14.5480 N.am     48   G62      -0.4787
   1528 C2         50.3390   10.9750   14.6080 C.2      48   G62       0.7657
   1529 N2         49.8360   11.4680   15.7480 N.pl3    48   G62      -0.9672
   1530 N3         50.6310   11.7960   13.6200 N.2      48   G62      -0.6323
   1531 C4         51.1150   11.1430   12.5420 C.ar     48   G62       0.1222
   1532 H5'        51.0301   13.0657    7.9471 H        48   G62       0.0679
   1533 H5''       50.6673   14.6871    7.3093 H        48   G62       0.0679
   1534 H4'        49.7734   15.3119    9.5596 H        48   G62       0.1174
   1535 H3'        52.4099   15.1203    8.7572 H        48   G62       0.0615
   1536 H2'        53.1905   13.2498    9.8262 H        48   G62       0.0972
   1537 H1'        51.2847   13.6165   12.0793 H        48   G62       0.2006
   1538 H8         52.2883   10.8682    9.5386 H        48   G62       0.1640
   1539 H1         50.2639    9.0765   15.3654 H        48   G62       0.3424
   1540 H21        49.6079   10.8457   16.5101 H        48   G62       0.4364
   1541 H22        49.6850   12.4619   15.8451 H        48   G62       0.4364
   1542 HO2'       53.7342   15.2529   11.3200 H        48   G62       0.4186
   1543 P          52.8920   17.4210    9.9010 P.3      49   U63       1.1662
   1544 OP1        52.9980   17.3960    8.4190 O.co2    49   U63      -0.7760
   1545 OP2        54.1100   17.2610   10.7330 O.co2    49   U63      -0.7760
   1546 O5'        52.1560   18.7600   10.3530 O.3      49   U63      -0.4989
   1547 C5'        51.0000   19.2330    9.6590 C.3      49   U63       0.0558
   1548 C4'        49.9610   19.7190   10.6430 C.3      49   U63       0.1065
   1549 O4'        49.1980   18.6040   11.1630 O.3      49   U63      -0.3548
   1550 C3'        50.5150   20.4060   11.8790 C.3      49   U63       0.2022
   1551 O3'        51.0210   21.7270   11.6020 O.3      49   U63      -0.5246
   1552 C2'        49.4310   20.2050   12.9440 C.3      49   U63       0.0670
   1553 O2'        48.4660   21.2310   13.0340 O.3      49   U63      -0.6139
   1554 C1'        48.7440   18.9150   12.4700 C.3      49   U63       0.0674
   1555 N1         48.8250   17.7060   13.3110 N.am     49   U63       0.0418
   1556 C2         48.2690   17.7510   14.5850 C.2      49   U63       0.4687
   1557 O2         47.7960   18.7620   15.0680 O.2      49   U63      -0.5477
   1558 N3         48.2940   16.5610   15.2740 N.am     49   U63      -0.3549
   1559 C4         48.8210   15.3620   14.8440 C.2      49   U63       0.5952
   1560 O4         48.7220   14.3640   15.5630 O.2      49   U63      -0.5761
   1561 C5         49.4120   15.4040   13.5400 C.2      49   U63      -0.3635
   1562 C6         49.3970   16.5450   12.8380 C.2      49   U63      -0.1126
   1563 H5'        50.5804   18.4215    9.0644 H        49   U63       0.0679
   1564 H5''       51.2849   20.0533    9.0002 H        49   U63       0.0679
   1565 H4'        49.2834   20.4032   10.1323 H        49   U63       0.1174
   1566 H3'        51.3712   19.8126   12.1997 H        49   U63       0.0615
   1567 H2'        49.8929   20.0433   13.9180 H        49   U63       0.0972
   1568 H1'        47.6839   19.1508   12.3764 H        49   U63       0.1824
   1569 H3         47.8811   16.5661   16.1957 H        49   U63       0.3154
   1570 H5         49.8685   14.5182   13.1237 H        49   U63       0.1811
   1571 H6         49.8529   16.5553   11.8590 H        49   U63       0.2188
   1572 HO2'       48.8604   22.0658   12.7711 H        49   U63       0.4186
   1573 P          50.0340   22.9570   11.2300 P.3      50   A64       1.1662
   1574 OP1        50.9480   24.0420   10.7970 O.co2    50   A64      -0.7760
   1575 OP2        49.0530   23.2300   12.3070 O.co2    50   A64      -0.7760
   1576 O5'        49.2470   22.4940    9.9240 O.3      50   A64      -0.4989
   1577 C5'        48.0740   23.1910    9.5000 C.3      50   A64       0.0558
   1578 C4'        47.5040   22.5570    8.2520 C.3      50   A64       0.1065
   1579 O4'        47.6990   21.1270    8.3050 O.3      50   A64      -0.3548
   1580 C3'        46.0120   22.7870    8.0560 C.3      50   A64       0.2022
   1581 O3'        45.8270   23.9260    7.2220 O.3      50   A64      -0.5246
   1582 C2'        45.5580   21.5100    7.3610 C.3      50   A64       0.0670
   1583 O2'        45.7790   21.5790    5.9660 O.3      50   A64      -0.6139
   1584 C1'        46.4980   20.4670    7.9730 C.3      50   A64       0.0394
   1585 N9         46.0490   19.7970    9.1900 N.ar     50   A64      -0.0251
   1586 C8         45.4490   20.3310   10.3040 C.ar     50   A64       0.2006
   1587 N7         45.2750   19.4650   11.2750 N.ar     50   A64      -0.6073
   1588 C5         45.7720   18.2790   10.7550 C.ar     50   A64       0.0515
   1589 C6         45.9000   16.9890   11.2960 C.ar     50   A64       0.7009
   1590 N6         45.5230   16.6640   12.5380 N.pl3    50   A64      -0.9019
   1591 N1         46.4410   16.0300   10.5110 N.ar     50   A64      -0.7615
   1592 C2         46.8300   16.3600    9.2720 C.ar     50   A64       0.5875
   1593 N3         46.7690   17.5370    8.6550 N.ar     50   A64      -0.6997
   1594 C4         46.2260   18.4640    9.4620 C.ar     50   A64       0.3053
   1595 H5'        47.3281   23.1538   10.2939 H        50   A64       0.0679
   1596 H5''       48.3278   24.2305    9.2924 H        50   A64       0.0679
   1597 H4'        48.0355   22.9507    7.3856 H        50   A64       0.1174
   1598 H3'        45.5055   22.9146    9.0127 H        50   A64       0.0615
   1599 H2'        44.5156   21.2850    7.5866 H        50   A64       0.0972
   1600 H1'        46.7146   19.7099    7.2194 H        50   A64       0.2007
   1601 H8         45.1486   21.3660   10.3745 H        50   A64       0.1553
   1602 H2         47.2540   15.5546    8.6906 H        50   A64       0.0473
   1603 HO2'       44.9360   21.5638    5.5069 H        50   A64       0.4186
   1604 H61        45.8330   15.7202   12.7204 H        50   A64       0.4115
   1605 H62        45.0175   17.2578   13.1799 H        50   A64       0.4115
   1606 P          44.4660   24.7740    7.3020 P.3      51   A65       1.1662
   1607 OP1        44.6430   25.9840    6.4530 O.co2    51   A65      -0.7760
   1608 OP2        44.1100   24.9270    8.7390 O.co2    51   A65      -0.7760
   1609 O5'        43.3720   23.8450    6.6020 O.3      51   A65      -0.4989
   1610 C5'        43.4290   23.5820    5.2030 C.3      51   A65       0.0558
   1611 C4'        42.4560   22.4860    4.8130 C.3      51   A65       0.1065
   1612 O4'        42.7170   21.2860    5.5860 O.3      51   A65      -0.3548
   1613 C3'        41.0060   22.8760    5.1210 C.3      51   A65       0.2022
   1614 O3'        40.1960   22.3640    4.0660 O.3      51   A65      -0.5246
   1615 C2'        40.6910   22.2310    6.4700 C.3      51   A65       0.0670
   1616 O2'        39.3680   21.7560    6.5680 O.3      51   A65      -0.6139
   1617 C1'        41.6190   21.0230    6.4140 C.3      51   A65       0.0394
   1618 N9         42.0100   20.2530    7.5880 N.ar     51   A65      -0.0251
   1619 C8         42.0730   20.5800    8.9150 C.ar     51   A65       0.2006
   1620 N7         42.3910   19.5680    9.6900 N.ar     51   A65      -0.6073
   1621 C5         42.5630   18.5120    8.8040 C.ar     51   A65       0.0515
   1622 C6         42.8940   17.1560    8.9910 C.ar     51   A65       0.7009
   1623 N6         43.1170   16.6020   10.1860 N.pl3    51   A65      -0.9019
   1624 N1         42.9860   16.3760    7.8910 N.ar     51   A65      -0.7615
   1625 C2         42.7620   16.9270    6.6930 C.ar     51   A65       0.5875
   1626 N3         42.4420   18.1820    6.3930 N.ar     51   A65      -0.6997
   1627 C4         42.3540   18.9270    7.5080 C.ar     51   A65       0.3053
   1628 H5'        43.1762   24.4922    4.6593 H        51   A65       0.0679
   1629 H5''       44.4404   23.2748    4.9370 H        51   A65       0.0679
   1630 H4'        42.5584   22.2665    3.7502 H        51   A65       0.1174
   1631 H3'        40.9083   23.9597    5.1848 H        51   A65       0.0615
   1632 H2'        40.9425   22.8921    7.2994 H        51   A65       0.0972
   1633 H1'        41.0440   20.3026    5.8323 H        51   A65       0.2007
   1634 H8         41.8799   21.5744    9.2894 H        51   A65       0.1553
   1635 H2         42.8541   16.2578    5.8503 H        51   A65       0.0473
   1636 HO2'       39.3041   20.8962    6.1458 H        51   A65       0.4186
   1637 H61        43.1880   15.6584    9.8330 H        51   A65       0.4115
   1638 H62        42.7528   17.2277   10.8902 H        51   A65       0.4115
   1639 P          38.9080   23.1520    3.5370 P.3      52   A66       1.1662
   1640 OP1        39.2920   23.6750    2.2000 O.co2    52   A66      -0.7760
   1641 OP2        38.3800   24.0900    4.5660 O.co2    52   A66      -0.7760
   1642 O5'        37.8630   21.9730    3.3120 O.3      52   A66      -0.4989
   1643 C5'        37.3800   21.1820    4.4050 C.3      52   A66       0.0558
   1644 C4'        37.6380   19.7120    4.1410 C.3      52   A66       0.1065
   1645 O4'        38.9530   19.3510    4.6580 O.3      52   A66      -0.3548
   1646 C3'        36.7470   18.7350    4.8850 C.3      52   A66       0.2022
   1647 O3'        35.4550   18.6230    4.3150 O.3      52   A66      -0.5246
   1648 C2'        37.5520   17.4560    4.7460 C.3      52   A66       0.0670
   1649 O2'        37.5190   16.9420    3.4290 O.3      52   A66      -0.6139
   1650 C1'        38.9460   17.9840    5.0720 C.3      52   A66       0.0394
   1651 N9         39.1320   17.9120    6.5240 N.ar     52   A66      -0.0251
   1652 C8         39.0900   18.9060    7.4720 C.ar     52   A66       0.2006
   1653 N7         39.2130   18.4660    8.7040 N.ar     52   A66      -0.6073
   1654 C5         39.3590   17.0920    8.5530 C.ar     52   A66       0.0515
   1655 C6         39.5080   16.0400    9.4840 C.ar     52   A66       0.7009
   1656 N6         39.5330   16.2130   10.8100 N.pl3    52   A66      -0.9019
   1657 N1         39.6240   14.7840    8.9970 N.ar     52   A66      -0.7615
   1658 C2         39.5880   14.6040    7.6680 C.ar     52   A66       0.5875
   1659 N3         39.4480   15.5080    6.6990 N.ar     52   A66      -0.6997
   1660 C4         39.3350   16.7430    7.2150 C.ar     52   A66       0.3053
   1661 H5'        36.3084   21.3443    4.5209 H        52   A66       0.0679
   1662 H5''       37.8915   21.4799    5.3203 H        52   A66       0.0679
   1663 H4'        37.5930   19.5138    3.0701 H        52   A66       0.1174
   1664 H3'        36.6715   19.0194    5.9345 H        52   A66       0.0615
   1665 H2'        37.2331   16.7071    5.4710 H        52   A66       0.0972
   1666 H1'        39.7134   17.4126    4.5499 H        52   A66       0.2007
   1667 H8         38.9674   19.9508    7.2274 H        52   A66       0.1553
   1668 H2         39.6865   13.5809    7.3363 H        52   A66       0.0473
   1669 H61        39.3727   17.1601   11.1220 H        52   A66       0.4115
   1670 H62        39.7000   15.4519   11.4526 H        52   A66       0.4115
   1671 HO2'       36.6381   16.6131    3.2354 H        52   A66       0.4186
   1672 P          34.1690   18.6210    5.2770 P.3      53   U67       1.1662
   1673 OP1        32.9890   18.2700    4.4460 O.co2    53   U67      -0.7760
   1674 OP2        34.1720   19.8860    6.0470 O.co2    53   U67      -0.7760
   1675 O5'        34.4710   17.4370    6.2970 O.3      53   U67      -0.4989
   1676 C5'        33.8100   16.1850    6.1780 C.3      53   U67       0.0558
   1677 C4'        34.7230   15.1710    5.5320 C.3      53   U67       0.1065
   1678 O4'        35.9290   14.9950    6.3260 O.3      53   U67      -0.3548
   1679 C3'        34.1240   13.7790    5.4290 C.3      53   U67       0.2022
   1680 O3'        33.3060   13.7030    4.2590 O.3      53   U67      -0.5246
   1681 C2'        35.3680   12.9080    5.3490 C.3      53   U67       0.0670
   1682 O2'        35.9330   12.9460    4.0580 O.3      53   U67      -0.6139
   1683 C1'        36.3060   13.6260    6.3250 C.3      53   U67       0.0674
   1684 N1         36.2440   13.1380    7.7130 N.am     53   U67       0.0418
   1685 C2         36.7510   11.8800    7.9900 C.2      53   U67       0.4687
   1686 O2         37.2170   11.1480    7.1340 O.2      53   U67      -0.5477
   1687 N3         36.6890   11.5080    9.3110 N.am     53   U67      -0.3549
   1688 C4         36.1780   12.2390   10.3600 C.2      53   U67       0.5952
   1689 O4         36.1770   11.7510   11.4970 O.2      53   U67      -0.5761
   1690 C5         35.6600   13.5240    9.9940 C.2      53   U67      -0.3635
   1691 C6         35.7080   13.9190    8.7150 C.2      53   U67      -0.1126
   1692 H5'        33.5257   15.8327    7.1696 H        53   U67       0.0679
   1693 H5''       32.9152   16.3058    5.5674 H        53   U67       0.0679
   1694 H4'        34.9969   15.5183    4.5358 H        53   U67       0.1174
   1695 H3'        33.5441   13.5419    6.3209 H        53   U67       0.0615
   1696 H2'        35.1634   11.8859    5.6676 H        53   U67       0.0972
   1697 H1'        37.3304   13.5393    5.9628 H        53   U67       0.1824
   1698 H3         37.0597   10.5964    9.5381 H        53   U67       0.3154
   1699 H5         35.2329   14.1710   10.7459 H        53   U67       0.1811
   1700 H6         35.3103   14.8896    8.4579 H        53   U67       0.2188
   1701 HO2'       35.3508   12.4978    3.4401 H        53   U67       0.4186
   1702 P          31.9660   12.8200    4.2780 P.3      54   G68       1.1662
   1703 OP1        31.2660   12.9710    2.9700 O.co2    54   G68      -0.7760
   1704 OP2        31.2320   13.1050    5.5280 O.co2    54   G68      -0.7760
   1705 O5'        32.5310   11.3310    4.3320 O.3      54   G68      -0.4989
   1706 C5'        33.2490   10.8050    3.2250 C.3      54   G68       0.0558
   1707 C4'        33.8440    9.4660    3.5690 C.3      54   G68       0.1065
   1708 O4'        34.7990    9.6250    4.6470 O.3      54   G68      -0.3548
   1709 C3'        32.8720    8.4310    4.1030 C.3      54   G68       0.2022
   1710 O3'        32.1530    7.7990    3.0460 O.3      54   G68      -0.5246
   1711 C2'        33.8160    7.4750    4.8120 C.3      54   G68       0.0670
   1712 O2'        34.5270    6.6550    3.9100 O.3      54   G68      -0.6139
   1713 C1'        34.7980    8.4570    5.4490 C.3      54   G68       0.0191
   1714 N9         34.4180    8.8160    6.8140 N.ar     54   G68       0.0492
   1715 C8         33.8720    9.9950    7.2620 C.ar     54   G68       0.1374
   1716 N7         33.6770   10.0070    8.5540 N.ar     54   G68      -0.5709
   1717 C5         34.1190    8.7610    8.9800 C.ar     54   G68       0.1744
   1718 C6         34.1760    8.1920   10.2850 C.2      54   G68       0.4770
   1719 O6         33.8660    8.7080   11.3720 O.2      54   G68      -0.5597
   1720 N1         34.6700    6.8900   10.2500 N.am     54   G68      -0.4787
   1721 C2         35.0710    6.2270    9.1160 C.2      54   G68       0.7657
   1722 N2         35.5010    4.9680    9.2730 N.pl3    54   G68      -0.9672
   1723 N3         35.0470    6.7530    7.9080 N.2      54   G68      -0.6323
   1724 C4         34.5600    8.0110    7.9140 C.ar     54   G68       0.1222
   1725 H5'        32.5702   10.6891    2.3801 H        54   G68       0.0679
   1726 H5''       34.0479   11.4950    2.9532 H        54   G68       0.0679
   1727 H4'        34.3534    9.0631    2.6936 H        54   G68       0.1174
   1728 H3'        32.1831    8.8856    4.8150 H        54   G68       0.0615
   1729 H2'        33.2956    6.8838    5.5655 H        54   G68       0.0972
   1730 H1'        35.7964    8.0196    5.4537 H        54   G68       0.2006
   1731 H8         33.6296   10.8245    6.6142 H        54   G68       0.1640
   1732 H1         34.7387    6.3946   11.1275 H        54   G68       0.3424
   1733 H21        35.5215    4.5524   10.1933 H        54   G68       0.4364
   1734 H22        35.8047    4.4344    8.4711 H        54   G68       0.4364
   1735 HO2'       34.2792    5.7377    4.0472 H        54   G68       0.4186
   1736 P          30.7090    7.1550    3.3420 P.3      55   U69       1.1662
   1737 OP1        30.1660    6.6270    2.0620 O.co2    55   U69      -0.7760
   1738 OP2        29.9120    8.1280    4.1290 O.co2    55   U69      -0.7760
   1739 O5'        31.0330    5.9260    4.2970 O.3      55   U69      -0.4989
   1740 C5'        31.7720    4.8070    3.8250 C.3      55   U69       0.0558
   1741 C4'        32.0330    3.8490    4.9610 C.3      55   U69       0.1065
   1742 O4'        32.8350    4.5150    5.9730 O.3      55   U69      -0.3548
   1743 C3'        30.7930    3.3990    5.7150 C.3      55   U69       0.2022
   1744 O3'        30.1780    2.3150    5.0340 O.3      55   U69      -0.5246
   1745 C2'        31.3790    2.9950    7.0610 C.3      55   U69       0.0670
   1746 O2'        32.0510    1.7520    7.0120 O.3      55   U69      -0.6139
   1747 C1'        32.4190    4.0950    7.2630 C.3      55   U69       0.0674
   1748 N1         31.9020    5.2630    7.9920 N.am     55   U69       0.0418
   1749 C2         31.8010    5.1580    9.3670 C.2      55   U69       0.4687
   1750 O2         32.0720    4.1300    9.9710 O.2      55   U69      -0.5477
   1751 N3         31.3610    6.2940   10.0030 N.am     55   U69      -0.3549
   1752 C4         31.0050    7.4930    9.4120 C.2      55   U69       0.5952
   1753 O4         30.6980    8.4520   10.1240 O.2      55   U69      -0.5761
   1754 C5         31.1070    7.5070    7.9860 C.2      55   U69      -0.3635
   1755 C6         31.5420    6.4210    7.3400 C.2      55   U69      -0.1126
   1756 H5'        31.2015    4.2989    3.0475 H        55   U69       0.0679
   1757 H5''       32.7219    5.1478    3.4131 H        55   U69       0.0679
   1758 H4'        32.5689    2.9767    4.5867 H        55   U69       0.1174
   1759 H3'        30.0930    4.2262    5.8328 H        55   U69       0.0615
   1760 H2'        30.6235    3.0102    7.8466 H        55   U69       0.0972
   1761 H1'        33.2744    3.6860    7.8006 H        55   U69       0.1824
   1762 H3         31.2900    6.2486   11.0095 H        55   U69       0.3154
   1763 H5         30.8332    8.3929    7.4323 H        55   U69       0.1811
   1764 H6         31.6141    6.4530    6.2629 H        55   U69       0.2188
   1765 HO2'       31.5370    1.0911    7.4818 H        55   U69       0.4186
   1766 P          28.5930    2.0940    5.1470 P.3      56   C70       1.1662
   1767 OP1        28.2220    1.1480    4.0650 O.co2    56   C70      -0.7760
   1768 OP2        27.9350    3.4200    5.2230 O.co2    56   C70      -0.7760
   1769 O5'        28.4040    1.3550    6.5510 O.3      56   C70      -0.4989
   1770 C5'        28.9720    0.0660    6.7730 C.3      56   C70       0.0558
   1771 C4'        28.9520   -0.2780    8.2460 C.3      56   C70       0.1065
   1772 O4'        29.7500    0.6860    8.9810 O.3      56   C70      -0.3548
   1773 C3'        27.5930   -0.2320    8.9250 C.3      56   C70       0.2022
   1774 O3'        26.8930   -1.4560    8.7210 O.3      56   C70      -0.5246
   1775 C2'        27.9850   -0.0530   10.3870 C.3      56   C70       0.0670
   1776 O2'        28.4190   -1.2630   10.9810 O.3      56   C70      -0.6139
   1777 C1'        29.1820    0.8910   10.2630 C.3      56   C70       0.0066
   1778 N1         28.8370    2.3160   10.4060 N.am     56   C70      -0.0484
   1779 C2         28.7240    2.8490   11.6910 C.2      56   C70       0.7538
   1780 O2         28.8450    2.0900   12.6650 O.2      56   C70      -0.6252
   1781 N3         28.4840    4.1690   11.8430 N.2      56   C70      -0.7584
   1782 C4         28.3440    4.9510   10.7670 C.2      56   C70       0.8185
   1783 N4         28.1640    6.2600   10.9630 N.pl3    56   C70      -0.9530
   1784 C5         28.4010    4.4250    9.4420 C.2      56   C70      -0.5215
   1785 C6         28.6490    3.1120    9.3090 C.2      56   C70       0.0053
   1786 H5'        28.3961   -0.6786    6.2235 H        56   C70       0.0679
   1787 H5''       30.0018    0.0600    6.4159 H        56   C70       0.0679
   1788 H4'        29.3820   -1.2702    8.3829 H        56   C70       0.1174
   1789 H3'        27.0077    0.6165    8.5707 H        56   C70       0.0615
   1790 H2'        27.1782    0.4031   10.9607 H        56   C70       0.0972
   1791 H1'        29.9190    0.6283   11.0219 H        56   C70       0.2029
   1792 H5         28.2506    5.0579    8.5799 H        56   C70       0.1928
   1793 H6         28.7008    2.6778    8.3215 H        56   C70       0.1958
   1794 H41        28.1306    6.6301   11.9021 H        56   C70       0.4234
   1795 H42        28.0613    6.8796   10.1720 H        56   C70       0.4234
   1796 HO2'       27.8029   -1.5205   11.6707 H        56   C70       0.4186
   1797 P          25.3330   -1.4330    8.3280 P.3      57   C71       1.1662
   1798 OP1        25.0090   -2.7710    7.7620 O.co2    57   C71      -0.7760
   1799 OP2        25.0910   -0.2130    7.5130 O.co2    57   C71      -0.7760
   1800 O5'        24.5750   -1.2880    9.7190 O.3      57   C71      -0.4989
   1801 C5'        24.4780   -2.4030   10.5970 C.3      57   C71       0.0558
   1802 C4'        24.4310   -1.9410   12.0310 C.3      57   C71       0.1065
   1803 O4'        25.5270   -1.0140   12.2650 O.3      57   C71      -0.3548
   1804 C3'        23.2140   -1.1400   12.4600 C.3      57   C71       0.2022
   1805 O3'        22.1230   -1.9920   12.7800 O.3      57   C71      -0.5246
   1806 C2'        23.7480   -0.4670   13.7130 C.3      57   C71       0.0670
   1807 O2'        23.8740   -1.4100   14.7590 O.3      57   C71      -0.6139
   1808 C1'        25.1450   -0.0670   13.2490 C.3      57   C71       0.0066
   1809 N1         25.1740    1.2850   12.6540 N.am     57   C71      -0.0484
   1810 C2         25.2200    2.3860   13.5160 C.2      57   C71       0.7538
   1811 O2         25.2340    2.1790   14.7400 O.2      57   C71      -0.6252
   1812 N3         25.2460    3.6440   12.9930 N.2      57   C71      -0.7584
   1813 C4         25.2210    3.8130   11.6660 C.2      57   C71       0.8185
   1814 N4         25.2240    5.0630   11.1890 N.pl3    57   C71      -0.9530
   1815 C5         25.1810    2.7050   10.7660 C.2      57   C71      -0.5215
   1816 C6         25.1550    1.4710   11.2990 C.2      57   C71       0.0053
   1817 H5'        25.3456   -3.0475   10.4558 H        57   C71       0.0679
   1818 H5''       23.5715   -2.9637   10.3690 H        57   C71       0.0679
   1819 H4'        24.5434   -2.8026   12.6891 H        57   C71       0.1174
   1820 H3'        22.9355   -0.4061   11.7037 H        57   C71       0.0615
   1821 H2'        23.1483    0.3950   14.0053 H        57   C71       0.0972
   1822 H1'        25.8374   -0.1124   14.0896 H        57   C71       0.2029
   1823 H5         25.1720    2.8529    9.6962 H        57   C71       0.1928
   1824 H6         25.1185    0.6116   10.6459 H        57   C71       0.1958
   1825 H41        25.2485    5.8465   11.8259 H        57   C71       0.4234
   1826 H42        25.2018    5.2231   10.1920 H        57   C71       0.4234
   1827 HO2'       24.3605   -1.0167   15.4872 H        57   C71       0.4186
   1828 P          20.6240   -1.4160   12.7270 P.3      58   G72       1.1662
   1829 OP1        19.6970   -2.5230   13.0830 O.co2    58   G72      -0.7760
   1830 OP2        20.4540   -0.6900   11.4440 O.co2    58   G72      -0.7760
   1831 O5'        20.5690   -0.3360   13.8930 O.3      58   G72      -0.4989
   1832 C5'        20.6020   -0.7400   15.2590 C.3      58   G72       0.0558
   1833 C4'        20.6230    0.4710   16.1590 C.3      58   G72       0.1065
   1834 O4'        21.8230    1.2400   15.8860 O.3      58   G72      -0.3548
   1835 C3'        19.4920    1.4640   15.9460 C.3      58   G72       0.2022
   1836 O3'        18.3220    1.0570   16.6440 O.3      58   G72      -0.5246
   1837 C2'        20.0920    2.7450   16.5110 C.3      58   G72       0.0670
   1838 O2'        20.0640    2.8000   17.9250 O.3      58   G72      -0.6139
   1839 C1'        21.5440    2.6210   16.0420 C.3      58   G72       0.0191
   1840 N9         21.7610    3.2960   14.7660 N.ar     58   G72       0.0492
   1841 C8         21.8560    2.7420   13.5090 C.ar     58   G72       0.1374
   1842 N7         22.0220    3.6360   12.5690 N.ar     58   G72      -0.5709
   1843 C5         22.0400    4.8480   13.2490 C.ar     58   G72       0.1744
   1844 C6         22.1690    6.1800   12.7670 C.2      58   G72       0.4770
   1845 O6         22.2860    6.5770   11.5930 O.2      58   G72      -0.5597
   1846 N1         22.1330    7.1020   13.8100 N.am     58   G72      -0.4787
   1847 C2         21.9760    6.7900   15.1370 C.2      58   G72       0.7657
   1848 N2         21.9460    7.8170   15.9920 N.pl3    58   G72      -0.9672
   1849 N3         21.8510    5.5600   15.5950 N.2      58   G72      -0.6323
   1850 C4         21.8900    4.6480   14.6050 C.ar     58   G72       0.1222
   1851 H5'        21.4970   -1.3363   15.4367 H        58   G72       0.0679
   1852 H5''       19.7187   -1.3392   15.4800 H        58   G72       0.0679
   1853 H4'        20.6294    0.1479   17.2000 H        58   G72       0.1174
   1854 H3'        19.2809    1.5787   14.8828 H        58   G72       0.0615
   1855 H2'        19.6153    3.6238   16.0768 H        58   G72       0.0972
   1856 H1'        22.2080    3.0442   16.7958 H        58   G72       0.2006
   1857 H8         21.7994    1.6803   13.3192 H        58   G72       0.1640
   1858 H1         22.2302    8.0784   13.5706 H        58   G72       0.3424
   1859 H21        22.0389    8.7625   15.6491 H        58   G72       0.4364
   1860 H22        21.8304    7.6476   16.9810 H        58   G72       0.4364
   1861 HO2'       19.1553    2.8778   18.2247 H        58   G72       0.4186
   1862 P          16.8700    1.4250   16.0540 P.3      59   A73       1.1662
   1863 OP1        15.8510    0.5650   16.7040 O.co2    59   A73      -0.7760
   1864 OP2        16.9490    1.4720   14.5730 O.co2    59   A73      -0.7760
   1865 O5'        16.6300    2.9150   16.5520 O.3      59   A73      -0.4989
   1866 C5'        15.3380    3.5030   16.4950 C.3      59   A73       0.0558
   1867 C4'        15.4040    4.9240   16.9860 C.3      59   A73       0.1065
   1868 O4'        16.3750    5.6450   16.1880 O.3      59   A73      -0.3548
   1869 C3'        14.1200    5.7170   16.8370 C.3      59   A73       0.2022
   1870 O3'        13.2780    5.5040   17.9640 O.3      59   A73      -0.5246
   1871 C2'        14.6370    7.1460   16.7660 C.3      59   A73       0.0670
   1872 O2'        14.9880    7.6510   18.0350 O.3      59   A73      -0.6139
   1873 C1'        15.9120    6.9580   15.9430 C.3      59   A73       0.0394
   1874 N9         15.7080    7.1000   14.5040 N.ar     59   A73      -0.0251
   1875 C8         15.6110    6.1080   13.5590 C.ar     59   A73       0.2006
   1876 N7         15.4620    6.5570   12.3380 N.ar     59   A73      -0.6073
   1877 C5         15.4490    7.9350   12.4910 C.ar     59   A73       0.0515
   1878 C6         15.3240    8.9840   11.5720 C.ar     59   A73       0.7009
   1879 N6         15.1830    8.8020   10.2610 N.pl3    59   A73      -0.9019
   1880 N1         15.3510   10.2460   12.0500 N.ar     59   A73      -0.7615
   1881 C2         15.4900   10.4270   13.3670 C.ar     59   A73       0.5875
   1882 N3         15.6150    9.5210   14.3330 N.ar     59   A73      -0.6997
   1883 C4         15.5900    8.2820   13.8200 C.ar     59   A73       0.3053
   1884 H5'        14.6533    2.9341   17.1240 H        59   A73       0.0679
   1885 H5''       14.9794    3.4913   15.4658 H        59   A73       0.0679
   1886 H4'        15.7157    4.9322   18.0304 H        59   A73       0.1174
   1887 H3'        13.6052    5.4472   15.9149 H        59   A73       0.0615
   1888 H2'        13.9286    7.8010   16.2588 H        59   A73       0.0972
   1889 H1'        16.6644    7.6740   16.2737 H        59   A73       0.2007
   1890 H8         15.6536    5.0562   13.8004 H        59   A73       0.1553
   1891 H2         15.5026   11.4563   13.6937 H        59   A73       0.0473
   1892 H61        15.1609    7.8667    9.8805 H        59   A73       0.4115
   1893 H62        15.0981    9.5992    9.6467 H        59   A73       0.4115
   1894 HO2'       15.4361    8.4936   17.9311 H        59   A73       0.4186
   1895 P          11.6830    5.5550   17.7820 P.3      60   C74       1.1662
   1896 OP1        11.0540    5.2210   19.0840 O.co2    60   C74      -0.7760
   1897 OP2        11.3590    4.7510   16.5810 O.co2    60   C74      -0.7760
   1898 O5'        11.3830    7.0850   17.4530 O.3      60   C74      -0.4989
   1899 C5'        11.7070    8.1050   18.3880 C.3      60   C74       0.0558
   1900 C4'        11.6760    9.4560   17.7190 C.3      60   C74       0.1065
   1901 O4'        12.6900    9.4990   16.6790 O.3      60   C74      -0.3548
   1902 C3'        10.3980    9.7970   16.9730 C.3      60   C74       0.2022
   1903 O3'         9.3830   10.2620   17.8490 O.3      60   C74      -0.5246
   1904 C2'        10.8820   10.8810   16.0200 C.3      60   C74       0.0670
   1905 O2'        11.0810   12.1340   16.6480 O.3      60   C74      -0.6139
   1906 C1'        12.2380   10.3130   15.6060 C.3      60   C74       0.0066
   1907 N1         12.1630    9.4820   14.3920 N.am     60   C74      -0.0484
   1908 C2         12.1850   10.1140   13.1490 C.2      60   C74       0.7538
   1909 O2         12.2350   11.3500   13.1090 O.2      60   C74      -0.6252
   1910 N3         12.1510    9.3660   12.0240 N.2      60   C74      -0.7584
   1911 C4         12.0980    8.0350   12.1110 C.2      60   C74       0.8185
   1912 N4         12.1000    7.3380   10.9760 N.pl3    60   C74      -0.9530
   1913 C5         12.0500    7.3630   13.3680 C.2      60   C74      -0.5215
   1914 C6         12.0840    8.1190   14.4730 C.2      60   C74       0.0053
   1915 H5'        12.7053    7.9238   18.7863 H        60   C74       0.0679
   1916 H5''       10.9845    8.0895   19.2040 H        60   C74       0.0679
   1917 H4'        11.8818   10.2307   18.4577 H        60   C74       0.1174
   1918 H3'        10.0455    8.9312   16.4124 H        60   C74       0.0615
   1919 H2'        10.2170   10.9739   15.1614 H        60   C74       0.0972
   1920 H1'        12.9420   11.1296   15.4461 H        60   C74       0.2029
   1921 H5         11.9886    6.2863   13.4266 H        60   C74       0.1928
   1922 H6         12.0485    7.6451   15.4428 H        60   C74       0.1958
   1923 H41        12.1374    7.8185   10.0884 H        60   C74       0.4234
   1924 H42        12.0641    6.3290   11.0029 H        60   C74       0.4234
   1925 HO2'       11.6346   12.0185   17.4238 H        60   C74       0.4186
   1926 P           7.8450    9.9590   17.5070 P.3      61   U75       1.1662
   1927 OP1         7.0220   10.5080   18.6160 O.co2    61   U75      -0.7760
   1928 OP2         7.7310    8.5260   17.1470 O.co2    61   U75      -0.7760
   1929 O5'         7.5650   10.8280   16.2030 O.3      61   U75      -0.4989
   1930 C5'         7.6090   12.2460   16.2620 C.3      61   U75       0.0558
   1931 C4'         7.4240   12.8420   14.8870 C.3      61   U75       0.1065
   1932 O4'         8.5550   12.4790   14.0470 O.3      61   U75      -0.3548
   1933 C3'         6.2220   12.3250   14.1160 C.3      61   U75       0.2022
   1934 O3'         5.0150   12.9730   14.4970 O.3      61   U75      -0.5246
   1935 C2'         6.6220   12.6120   12.6760 C.3      61   U75       0.0670
   1936 O2'         6.4580   13.9710   12.3310 O.3      61   U75      -0.6139
   1937 C1'         8.1150   12.2870   12.7110 C.3      61   U75       0.0674
   1938 N1          8.3750   10.8950   12.3190 N.am     61   U75       0.0418
   1939 C2          8.4480   10.6220   10.9690 C.2      61   U75       0.4687
   1940 O2          8.3230   11.4820   10.1140 O.2      61   U75      -0.5477
   1941 N3          8.6690    9.3080   10.6530 N.am     61   U75      -0.3549
   1942 C4          8.8230    8.2640   11.5300 C.2      61   U75       0.5952
   1943 O4          9.0340    7.1390   11.0890 O.2      61   U75      -0.5761
   1944 C5          8.7400    8.6250   12.9110 C.2      61   U75      -0.3635
   1945 C6          8.5260    9.8990   13.2500 C.2      61   U75      -0.1126
   1946 H5'         6.8133   12.6019   16.9164 H        61   U75       0.0679
   1947 H5''        8.5725   12.5598   16.6636 H        61   U75       0.0679
   1948 H4'         7.3647   13.9275   14.9668 H        61   U75       0.1174
   1949 H3'         6.1248   11.2494   14.2637 H        61   U75       0.0615
   1950 H2'         6.0918   11.9609   11.9810 H        61   U75       0.0972
   1951 H1'         8.6536   12.9624   12.0463 H        61   U75       0.1824
   1952 H3          8.7245    9.0835    9.6698 H        61   U75       0.3154
   1953 H5          8.8498    7.8710   13.6764 H        61   U75       0.1811
   1954 H6          8.4697   10.1549   14.2977 H        61   U75       0.2188
   1955 HO2'        6.6655   14.0930   11.4017 H        61   U75       0.4186
   1956 P           3.6190   12.1900   14.3530 P.3      62   A76       1.1662
   1957 OP1         2.5800   13.0050   15.0310 O.co2    62   A76      -0.7760
   1958 OP2         3.8290   10.7810   14.7590 O.co2    62   A76      -0.7760
   1959 O5'         3.3250   12.2190   12.7870 O.3      62   A76      -0.4989
   1960 C5'         3.0520   13.4520   12.1300 C.3      62   A76       0.0558
   1961 C4'         2.8130   13.2290   10.6560 C.3      62   A76       0.1065
   1962 O4'         4.0530   12.8260   10.0110 O.3      62   A76      -0.3548
   1963 C3'         1.8430   12.1120   10.3180 C.3      62   A76       0.2022
   1964 O3'         0.4930   12.5470   10.4110 O.3      62   A76      -0.5246
   1965 C2'         2.2540   11.7570    8.8960 C.3      62   A76       0.0670
   1966 O2'         1.7510   12.6820    7.9540 O.3      62   A76      -0.6139
   1967 C1'         3.7740   11.8960    8.9790 C.3      62   A76       0.0394
   1968 N9          4.4340   10.6340    9.3060 N.ar     62   A76      -0.0251
   1969 C8          4.8020   10.1720   10.5430 C.ar     62   A76       0.2006
   1970 N7          5.3700    8.9900   10.5200 N.ar     62   A76      -0.6073
   1971 C5          5.3820    8.6530    9.1740 C.ar     62   A76       0.0515
   1972 C6          5.8600    7.5220    8.4830 C.ar     62   A76       0.7009
   1973 N6          6.4560    6.4820    9.0760 N.pl3    62   A76      -0.9019
   1974 N1          5.7090    7.5000    7.1420 N.ar     62   A76      -0.7615
   1975 C2          5.1310    8.5490    6.5440 C.ar     62   A76       0.5875
   1976 N3          4.6550    9.6660    7.0800 N.ar     62   A76      -0.6997
   1977 C4          4.8090    9.6560    8.4150 C.ar     62   A76       0.3053
   1978 H5'         2.1641   13.9041   12.5721 H        62   A76       0.0679
   1979 H5''        3.9003   14.1241   12.2593 H        62   A76       0.0679
   1980 H4'         2.4608   14.1572   10.2061 H        62   A76       0.1174
   1981 H3'         2.0080   11.2608   10.9785 H        62   A76       0.0615
   1982 H2'         1.9633   10.7374    8.6432 H        62   A76       0.0972
   1983 H1'         4.1585   12.2748    8.0320 H        62   A76       0.2007
   1984 H8          4.6392   10.7301   11.4531 H        62   A76       0.1553
   1985 H2          5.0387    8.4758    5.4704 H        62   A76       0.0473
   1986 HO2'        2.3676   12.7619    7.2226 H        62   A76       0.4186
   1987 H61         6.9869    5.9614    8.3925 H        62   A76       0.4115
   1988 H62         6.3859    6.2523   10.0570 H        62   A76       0.4115
   1989 P          -0.6220   11.5480   10.9950 P.3      63   U77       1.1662
   1990 OP1        -1.8620   12.3380   11.2030 O.co2    63   U77      -0.7760
   1991 OP2        -0.0350   10.7990   12.1330 O.co2    63   U77      -0.7760
   1992 O5'        -0.8830   10.5310    9.7990 O.3      63   U77      -0.4989
   1993 C5'        -1.5380   10.9750    8.6180 C.3      63   U77       0.0558
   1994 C4'        -1.4560    9.9290    7.5350 C.3      63   U77       0.1065
   1995 O4'        -0.0570    9.6870    7.2140 O.3      63   U77      -0.3548
   1996 C3'        -1.9770    8.5530    7.9150 C.3      63   U77       0.2022
   1997 O3'        -3.3910    8.4530    7.8020 O.3      63   U77      -0.5246
   1998 C2'        -1.2500    7.6510    6.9270 C.3      63   U77       0.0670
   1999 O2'        -1.8300    7.6550    5.6380 O.3      63   U77      -0.6139
   2000 C1'         0.1200    8.3230    6.8640 C.3      63   U77       0.0674
   2001 N1          1.0740    7.7000    7.7880 N.am     63   U77       0.0418
   2002 C2          1.7560    6.6010    7.3200 C.2      63   U77       0.4687
   2003 O2          1.6110    6.1730    6.1900 O.2      63   U77      -0.5477
   2004 N3          2.6150    6.0210    8.2190 N.am     63   U77      -0.3549
   2005 C4          2.8570    6.4230    9.5120 C.2      63   U77       0.5952
   2006 O4          3.6350    5.7710   10.2090 O.2      63   U77      -0.5761
   2007 C5          2.1200    7.5840    9.9230 C.2      63   U77      -0.3635
   2008 C6          1.2750    8.1700    9.0650 C.2      63   U77      -0.1126
   2009 H5'        -2.5856   11.1741    8.8438 H        63   U77       0.0679
   2010 H5''       -1.0651   11.8926    8.2680 H        63   U77       0.0679
   2011 H4'        -1.9777   10.2834    6.6460 H        63   U77       0.1174
   2012 H3'        -1.6698    8.3098    8.9321 H        63   U77       0.0615
   2013 H2'        -1.1682    6.6354    7.3142 H        63   U77       0.0972
   2014 H1'         0.5074    8.2585    5.8472 H        63   U77       0.1824
   2015 H3          3.1249    5.2111    7.8964 H        63   U77       0.3154
   2016 H5          2.2462    7.9829   10.9187 H        63   U77       0.1811
   2017 H6          0.7306    9.0450    9.3881 H        63   U77       0.2188
   2018 HO2'       -2.1359    6.7712    5.4215 H        63   U77       0.4186
   2019 P          -4.1720    7.3110    8.6210 P.3      64   G78       1.1662
   2020 OP1        -5.6310    7.5590    8.4840 O.co2    64   G78      -0.7760
   2021 OP2        -3.5660    7.2260    9.9750 O.co2    64   G78      -0.7760
   2022 O5'        -3.8110    5.9690    7.8420 O.3      64   G78      -0.4989
   2023 C5'        -4.1900    5.7970    6.4830 C.3      64   G78       0.0558
   2024 C4'        -3.6170    4.5130    5.9300 C.3      64   G78       0.1065
   2025 O4'        -2.1650    4.5920    5.9330 O.3      64   G78      -0.3548
   2026 C3'        -3.9060    3.2700    6.7570 C.3      64   G78       0.2022
   2027 O3'        -5.1820    2.7150    6.4710 O.3      64   G78      -0.5246
   2028 C2'        -2.7850    2.3320    6.3380 C.3      64   G78       0.0670
   2029 O2'        -3.0450    1.6910    5.1050 O.3      64   G78      -0.6139
   2030 C1'        -1.6180    3.3070    6.1890 C.3      64   G78       0.0191
   2031 N9         -0.7830    3.3640    7.3840 N.ar     64   G78       0.0492
   2032 C8         -0.7980    4.3090    8.3830 C.ar     64   G78       0.1374
   2033 N7          0.0690    4.0640    9.3310 N.ar     64   G78      -0.5709
   2034 C5          0.6950    2.8900    8.9290 C.ar     64   G78       0.1744
   2035 C6          1.7260    2.1300    9.5510 C.2      64   G78       0.4770
   2036 O6          2.3170    2.3540   10.6150 O.2      64   G78      -0.5597
   2037 N1          2.0560    1.0050    8.8010 N.am     64   G78      -0.4787
   2038 C2          1.4750    0.6530    7.6070 C.2      64   G78       0.7657
   2039 N2          1.9260   -0.4730    7.0320 N.pl3    64   G78      -0.9672
   2040 N3          0.5200    1.3520    7.0180 N.2      64   G78      -0.6323
   2041 C4          0.1810    2.4490    7.7300 C.ar     64   G78       0.1222
   2042 H5'        -5.2774    5.7620    6.4161 H        64   G78       0.0679
   2043 H5''       -3.8201    6.6382    5.8968 H        64   G78       0.0679
   2044 H4'        -3.9724    4.3639    4.9104 H        64   G78       0.1174
   2045 H3'        -3.8261    3.4993    7.8196 H        64   G78       0.0615
   2046 H2'        -2.5805    1.6000    7.1193 H        64   G78       0.0972
   2047 H1'        -1.0057    3.0039    5.3397 H        64   G78       0.2006
   2048 H8         -1.4572    5.1645    8.3845 H        64   G78       0.1640
   2049 H1          2.7793    0.4000    9.1629 H        64   G78       0.3424
   2050 H21         2.6552   -1.0108    7.4782 H        64   G78       0.4364
   2051 H22         1.5361   -0.7824    6.1531 H        64   G78       0.4364
   2052 HO2'       -3.0406    0.7394    5.2314 H        64   G78       0.4186
   2053 P          -5.8580    1.7090    7.5250 P.3      65   U79       1.1662
   2054 OP1        -7.2460    1.4370    7.0710 O.co2    65   U79      -0.7760
   2055 OP2        -5.6220    2.2580    8.8840 O.co2    65   U79      -0.7760
   2056 O5'        -5.0050    0.3730    7.3790 O.3      65   U79      -0.4989
   2057 C5'        -4.9920   -0.3510    6.1540 C.3      65   U79       0.0558
   2058 C4'        -4.1420   -1.5920    6.2860 C.3      65   U79       0.1065
   2059 O4'        -2.7540   -1.2100    6.4720 O.3      65   U79      -0.3548
   2060 C3'        -4.4540   -2.4580    7.4950 C.3      65   U79       0.2022
   2061 O3'        -5.5400   -3.3350    7.2250 O.3      65   U79      -0.5246
   2062 C2'        -3.1440   -3.2070    7.7060 C.3      65   U79       0.0670
   2063 O2'        -2.9920   -4.3190    6.8430 O.3      65   U79      -0.6139
   2064 C1'        -2.1210   -2.1280    7.3500 C.3      65   U79       0.0674
   2065 N1         -1.6290   -1.3880    8.5210 N.am     65   U79       0.0418
   2066 C2         -0.6040   -1.9600    9.2480 C.2      65   U79       0.4687
   2067 O2         -0.1090   -3.0370    8.9580 O.2      65   U79      -0.5477
   2068 N3         -0.1790   -1.2250   10.3270 N.am     65   U79      -0.3549
   2069 C4         -0.6660   -0.0040   10.7440 C.2      65   U79       0.5952
   2070 O4         -0.1640    0.5430   11.7280 O.2      65   U79      -0.5761
   2071 C5         -1.7320    0.5200    9.9420 C.2      65   U79      -0.3635
   2072 C6         -2.1660   -0.1740    8.8830 C.2      65   U79      -0.1126
   2073 H5'        -4.5831    0.2824    5.3668 H        65   U79       0.0679
   2074 H5''       -6.0109   -0.6377    5.8936 H        65   U79       0.0679
   2075 H4'        -4.2335   -2.1906    5.3797 H        65   U79       0.1174
   2076 H3'        -4.6772   -1.8340    8.3604 H        65   U79       0.0615
   2077 H2'        -3.0372   -3.5103    8.7475 H        65   U79       0.0972
   2078 H1'        -1.2770   -2.5898    6.8376 H        65   U79       0.1824
   2079 H3          0.5714   -1.6214   10.8745 H        65   U79       0.3154
   2080 H5         -2.1825    1.4695   10.1908 H        65   U79       0.1811
   2081 H6         -2.9698    0.2352    8.2889 H        65   U79       0.2188
   2082 HO2'       -3.6368   -4.9925    7.0716 H        65   U79       0.4186
   2083 P          -6.3990   -3.9340    8.4430 P.3      66   C80       1.1662
   2084 OP1        -7.7560   -4.2560    7.9290 O.co2    66   C80      -0.7760
   2085 OP2        -6.2490   -3.0140    9.6010 O.co2    66   C80      -0.7760
   2086 O5'        -5.6560   -5.2970    8.7980 O.3      66   C80      -0.4989
   2087 C5'        -5.7390   -5.8530   10.1040 C.3      66   C80       0.0558
   2088 C4'        -4.4580   -6.5750   10.4390 C.3      66   C80       0.1065
   2089 O4'        -3.3320   -5.7170   10.1250 O.3      66   C80      -0.3548
   2090 C3'        -4.2700   -6.9470   11.9000 C.3      66   C80       0.2022
   2091 O3'        -4.9040   -8.1870   12.2000 O.3      66   C80      -0.5246
   2092 C2'        -2.7530   -7.0390   12.0110 C.3      66   C80       0.0670
   2093 O2'        -2.2390   -8.2620   11.5200 O.3      66   C80      -0.6139
   2094 C1'        -2.3160   -5.8910   11.0970 C.3      66   C80       0.0066
   2095 N1         -2.1570   -4.6110   11.8010 N.am     66   C80      -0.0484
   2096 C2         -1.1130   -4.4640   12.7160 C.2      66   C80       0.7538
   2097 O2         -0.3600   -5.4260   12.9250 O.2      66   C80      -0.6252
   2098 N3         -0.9540   -3.2790   13.3510 N.2      66   C80      -0.7584
   2099 C4         -1.7910   -2.2700   13.1010 C.2      66   C80       0.8185
   2100 N4         -1.5910   -1.1180   13.7440 N.pl3    66   C80      -0.9530
   2101 C5         -2.8690   -2.3970   12.1800 C.2      66   C80      -0.5215
   2102 C6         -3.0140   -3.5730   11.5590 C.2      66   C80       0.0053
   2103 H5'        -6.5709   -6.5561   10.1447 H        66   C80       0.0679
   2104 H5''       -5.9042   -5.0546   10.8274 H        66   C80       0.0679
   2105 H4'        -4.3931   -7.4788    9.8332 H        66   C80       0.1174
   2106 H3'        -4.6523   -6.1572   12.5467 H        66   C80       0.0615
   2107 H2'        -2.4273   -6.8646   13.0365 H        66   C80       0.0972
   2108 H1'        -1.3805   -6.1541   10.6033 H        66   C80       0.2029
   2109 H5         -3.5439   -1.5755   11.9899 H        66   C80       0.1928
   2110 H6         -3.8218   -3.7050   10.8544 H        66   C80       0.1958
   2111 H41        -0.8252   -1.0303   14.3966 H        66   C80       0.4234
   2112 H42        -2.2054   -0.3338   13.5781 H        66   C80       0.4234
   2113 HO2'       -1.5083   -8.5470   12.0736 H        66   C80       0.4186
   2114 P          -5.3790   -8.4950   13.7060 P.3      67   C81       1.1662
   2115 OP1        -5.9290   -9.8750   13.7460 O.co2    67   C81      -0.7760
   2116 OP2        -6.2190   -7.3540   14.1560 O.co2    67   C81      -0.7760
   2117 O5'        -4.0270   -8.4780   14.5500 O.3      67   C81      -0.4989
   2118 C5'        -3.0640   -9.5190   14.4070 C.3      67   C81       0.0558
   2119 C4'        -1.9690   -9.3620   15.4350 C.3      67   C81       0.1065
   2120 O4'        -1.2530   -8.1230   15.1860 O.3      67   C81      -0.3548
   2121 C3'        -2.4440   -9.2340   16.8730 C.3      67   C81       0.2022
   2122 O3'        -2.8320  -10.4770   17.4700 O.3      67   C81      -0.6541
   2123 C2'        -1.2810   -8.5060   17.5330 C.3      67   C81       0.0670
   2124 O2'        -0.2000   -9.3650   17.8400 O.3      67   C81      -0.6139
   2125 C1'        -0.8660   -7.5390   16.4210 C.3      67   C81       0.0066
   2126 N1         -1.5100   -6.2190   16.5260 N.am     67   C81      -0.0484
   2127 C2         -1.0350   -5.3090   17.4770 C.2      67   C81       0.7538
   2128 O2         -0.0870   -5.6430   18.2070 O.2      67   C81      -0.6252
   2129 N3         -1.6200   -4.0910   17.5770 N.2      67   C81      -0.7584
   2130 C4         -2.6390   -3.7720   16.7730 C.2      67   C81       0.8185
   2131 N4         -3.1860   -2.5610   16.9040 N.pl3    67   C81      -0.9530
   2132 C5         -3.1430   -4.6820   15.7980 C.2      67   C81      -0.5215
   2133 C6         -2.5550   -5.8820   15.7090 C.2      67   C81       0.0053
   2134 H5'        -3.5530  -10.4831   14.5465 H        67   C81       0.0679
   2135 H5''       -2.6304   -9.4751   13.4079 H        67   C81       0.0679
   2136 H4'        -1.2773  -10.2007   15.3566 H        67   C81       0.1174
   2137 H3'        -3.3082   -8.5698   16.8849 H        67   C81       0.0615
   2138 H2'        -1.6121   -7.9635   18.4185 H        67   C81       0.0972
   2139 H1'         0.2167   -7.4142   16.4372 H        67   C81       0.2029
   2140 H5         -3.9683   -4.4136   15.1551 H        67   C81       0.1928
   2141 H6         -2.9113   -6.5954   14.9806 H        67   C81       0.1958
   2142 H41        -2.8281   -1.9173   17.5951 H        67   C81       0.4234
   2143 H42        -3.9576   -2.2887   16.3120 H        67   C81       0.4234
   2144 HO3'       -3.1194  -10.3229   18.3729 H        67   C81       0.4376
   2145 HO2'       -0.4605   -9.9712   18.5373 H        67   C81       0.4186
@<TRIPOS>BOND
     1    1    2 1
     2    2    3 1
     3    3    5 1
     4    3    4 1
     5    4    9 1
     6    5    7 1
     7    5    6 1
     8    7    9 1
     9    7    8 1
    10    9   10 1
    11   10   20 ar
    12   10   11 ar
    13   11   12 ar
    14   12   13 ar
    15   13   20 ar
    16   13   14 1
    17   14   15 2
    18   14   16 am
    19   16   17 1
    20   17   18 2
    21   17   19 2
    22   19   20 1
    23   33   35 1
    24   33   34 1
    25   33   36 1
    26   36   37 1
    27   37   38 1
    28   38   40 1
    29   38   39 1
    30   39   44 1
    31   40   41 1
    32   40   42 1
    33   42   43 1
    34   42   44 1
    35   44   45 1
    36   45   46 ar
    37   45   55 ar
    38   46   47 ar
    39   47   48 ar
    40   48   55 ar
    41   48   49 1
    42   49   50 2
    43   49   51 am
    44   51   52 1
    45   52   53 2
    46   52   54 2
    47   54   55 1
    48   33    6 1
    49   67   70 1
    50   67   69 1
    51   67   68 1
    52   70   71 1
    53   71   72 1
    54   72   74 1
    55   72   73 1
    56   73   78 1
    57   74   75 1
    58   74   76 1
    59   76   77 1
    60   76   78 1
    61   78   79 1
    62   79   88 ar
    63   79   80 ar
    64   80   81 ar
    65   81   82 ar
    66   82   83 ar
    67   82   88 ar
    68   83   84 1
    69   83   85 ar
    70   85   86 ar
    71   86   87 ar
    72   87   88 ar
    73   41   67 1
    74  100  101 1
    75  100  102 1
    76  100  103 1
    77  103  104 1
    78  104  105 1
    79  105  107 1
    80  105  106 1
    81  106  111 1
    82  107  109 1
    83  107  108 1
    84  109  110 1
    85  109  111 1
    86  111  112 1
    87  112  113 am
    88  112  119 1
    89  113  115 1
    90  113  114 2
    91  115  116 2
    92  116  118 2
    93  116  117 2
    94  118  119 2
    95   75  100 1
    96  131  134 1
    97  131  133 1
    98  131  132 1
    99  134  135 1
   100  135  136 1
   101  136  138 1
   102  136  137 1
   103  137  142 1
   104  138  139 1
   105  138  140 1
   106  140  141 1
   107  140  142 1
   108  142  143 1
   109  143  152 ar
   110  143  144 ar
   111  144  145 ar
   112  145  146 ar
   113  146  147 ar
   114  146  152 ar
   115  147  148 1
   116  147  149 ar
   117  149  150 ar
   118  150  151 ar
   119  151  152 ar
   120  108  131 1
   121  164  165 1
   122  164  166 1
   123  164  167 1
   124  167  168 1
   125  168  169 1
   126  169  171 1
   127  169  170 1
   128  170  175 1
   129  171  173 1
   130  171  172 1
   131  173  174 1
   132  173  175 1
   133  175  176 1
   134  176  177 am
   135  176  183 1
   136  177  178 2
   137  177  179 am
   138  179  180 am
   139  180  182 1
   140  180  181 2
   141  182  183 2
   142  139  164 1
   143  194  197 1
   144  194  196 1
   145  194  195 1
   146  197  198 1
   147  198  199 1
   148  199  201 1
   149  199  200 1
   150  200  205 1
   151  201  202 1
   152  201  203 1
   153  203  204 1
   154  203  205 1
   155  205  206 1
   156  206  215 ar
   157  206  207 ar
   158  207  208 ar
   159  208  209 ar
   160  209  210 ar
   161  209  215 ar
   162  210  211 1
   163  210  212 ar
   164  212  213 ar
   165  213  214 ar
   166  214  215 ar
   167  172  194 1
   168  227  228 1
   169  227  229 1
   170  227  230 1
   171  230  231 1
   172  231  232 1
   173  232  234 1
   174  232  233 1
   175  233  238 1
   176  234  236 1
   177  234  235 1
   178  236  237 1
   179  236  238 1
   180  238  239 1
   181  239  240 am
   182  239  246 1
   183  240  241 2
   184  240  242 am
   185  242  243 am
   186  243  245 1
   187  243  244 2
   188  245  246 2
   189  202  227 1
   190  257  260 1
   191  257  259 1
   192  257  258 1
   193  260  261 1
   194  261  262 1
   195  262  264 1
   196  262  263 1
   197  263  268 1
   198  264  265 1
   199  264  266 1
   200  266  267 1
   201  266  268 1
   202  268  269 1
   203  269  278 ar
   204  269  270 ar
   205  270  271 ar
   206  271  272 ar
   207  272  273 ar
   208  272  278 ar
   209  273  274 1
   210  273  275 ar
   211  275  276 ar
   212  276  277 ar
   213  277  278 ar
   214  235  257 1
   215  290  293 1
   216  290  292 1
   217  290  291 1
   218  293  294 1
   219  294  295 1
   220  295  297 1
   221  295  296 1
   222  296  301 1
   223  297  298 1
   224  297  299 1
   225  299  300 1
   226  299  301 1
   227  301  302 1
   228  302  311 ar
   229  302  303 ar
   230  303  304 ar
   231  304  305 ar
   232  305  306 ar
   233  305  311 ar
   234  306  307 1
   235  306  308 ar
   236  308  309 ar
   237  309  310 ar
   238  310  311 ar
   239  265  290 1
   240  323  324 1
   241  323  325 1
   242  323  326 1
   243  326  327 1
   244  327  328 1
   245  328  330 1
   246  328  329 1
   247  329  334 1
   248  330  332 1
   249  330  331 1
   250  332  333 1
   251  332  334 1
   252  334  335 1
   253  335  336 am
   254  335  342 1
   255  336  337 2
   256  336  338 am
   257  338  339 am
   258  339  341 1
   259  339  340 2
   260  341  342 2
   261  298  323 1
   262  353  354 1
   263  353  355 1
   264  353  356 1
   265  356  357 1
   266  357  358 1
   267  358  360 1
   268  358  359 1
   269  359  364 1
   270  360  362 1
   271  360  361 1
   272  362  363 1
   273  362  364 1
   274  364  365 1
   275  365  366 am
   276  365  372 1
   277  366  368 1
   278  366  367 2
   279  368  369 2
   280  369  371 2
   281  369  370 2
   282  371  372 2
   283  331  353 1
   284  384  386 1
   285  384  385 1
   286  384  387 1
   287  387  388 1
   288  388  389 1
   289  389  391 1
   290  389  390 1
   291  390  395 1
   292  391  392 1
   293  391  393 1
   294  393  394 1
   295  393  395 1
   296  395  396 1
   297  396  397 ar
   298  396  406 ar
   299  397  398 ar
   300  398  399 ar
   301  399  406 ar
   302  399  400 1
   303  400  401 2
   304  400  402 am
   305  402  403 1
   306  403  404 2
   307  403  405 2
   308  405  406 1
   309  361  384 1
   310  418  419 1
   311  418  420 1
   312  418  421 1
   313  421  422 1
   314  422  423 1
   315  423  425 1
   316  423  424 1
   317  424  429 1
   318  425  427 1
   319  425  426 1
   320  427  428 1
   321  427  429 1
   322  429  430 1
   323  430  431 am
   324  430  437 1
   325  431  433 1
   326  431  432 2
   327  433  434 2
   328  434  436 2
   329  434  435 2
   330  436  437 2
   331  392  418 1
   332  449  451 1
   333  449  450 1
   334  449  452 1
   335  452  453 1
   336  453  454 1
   337  454  456 1
   338  454  455 1
   339  455  460 1
   340  456  457 1
   341  456  458 1
   342  458  459 1
   343  458  460 1
   344  460  461 1
   345  461  462 ar
   346  461  471 ar
   347  462  463 ar
   348  463  464 ar
   349  464  471 ar
   350  464  465 1
   351  465  466 2
   352  465  467 am
   353  467  468 1
   354  468  469 2
   355  468  470 2
   356  470  471 1
   357  426  449 1
   358  483  484 1
   359  483  485 1
   360  483  486 1
   361  486  487 1
   362  487  488 1
   363  488  490 1
   364  488  489 1
   365  489  494 1
   366  490  492 1
   367  490  491 1
   368  492  493 1
   369  492  494 1
   370  494  495 1
   371  495  496 am
   372  495  502 1
   373  496  497 2
   374  496  498 am
   375  498  499 am
   376  499  501 1
   377  499  500 2
   378  501  502 2
   379  457  483 1
   380  513  515 1
   381  513  514 1
   382  513  516 1
   383  516  517 1
   384  517  518 1
   385  518  520 1
   386  518  519 1
   387  519  524 1
   388  520  521 1
   389  520  522 1
   390  522  523 1
   391  522  524 1
   392  524  525 1
   393  525  526 ar
   394  525  535 ar
   395  526  527 ar
   396  527  528 ar
   397  528  535 ar
   398  528  529 1
   399  529  530 2
   400  529  531 am
   401  531  532 1
   402  532  533 2
   403  532  534 2
   404  534  535 1
   405  491  513 1
   406  547  549 1
   407  547  548 1
   408  547  550 1
   409  550  551 1
   410  551  552 1
   411  552  554 1
   412  552  553 1
   413  553  558 1
   414  554  555 1
   415  554  556 1
   416  556  557 1
   417  556  558 1
   418  558  559 1
   419  559  560 ar
   420  559  569 ar
   421  560  561 ar
   422  561  562 ar
   423  562  569 ar
   424  562  563 1
   425  563  564 2
   426  563  565 am
   427  565  566 1
   428  566  567 2
   429  566  568 2
   430  568  569 1
   431  521  547 1
   432  581  584 1
   433  581  583 1
   434  581  582 1
   435  584  585 1
   436  585  586 1
   437  586  588 1
   438  586  587 1
   439  587  592 1
   440  588  589 1
   441  588  590 1
   442  590  591 1
   443  590  592 1
   444  592  593 1
   445  593  602 ar
   446  593  594 ar
   447  594  595 ar
   448  595  596 ar
   449  596  597 ar
   450  596  602 ar
   451  597  598 1
   452  597  599 ar
   453  599  600 ar
   454  600  601 ar
   455  601  602 ar
   456  555  581 1
   457  614  615 1
   458  614  616 1
   459  614  617 1
   460  617  618 1
   461  618  619 1
   462  619  621 1
   463  619  620 1
   464  620  625 1
   465  621  623 1
   466  621  622 1
   467  623  624 1
   468  623  625 1
   469  625  626 1
   470  626  627 am
   471  626  633 1
   472  627  628 2
   473  627  629 am
   474  629  630 am
   475  630  632 1
   476  630  631 2
   477  632  633 2
   478  589  614 1
   479  644  647 1
   480  644  646 1
   481  644  645 1
   482  647  648 1
   483  648  649 1
   484  649  651 1
   485  649  650 1
   486  650  655 1
   487  651  652 1
   488  651  653 1
   489  653  654 1
   490  653  655 1
   491  655  656 1
   492  656  665 ar
   493  656  657 ar
   494  657  658 ar
   495  658  659 ar
   496  659  660 ar
   497  659  665 ar
   498  660  661 1
   499  660  662 ar
   500  662  663 ar
   501  663  664 ar
   502  664  665 ar
   503  622  644 1
   504  677  678 1
   505  677  679 1
   506  677  680 1
   507  680  681 1
   508  681  682 1
   509  682  684 1
   510  682  683 1
   511  683  688 1
   512  684  686 1
   513  684  685 1
   514  686  687 1
   515  686  688 1
   516  688  689 1
   517  689  690 am
   518  689  696 1
   519  690  691 2
   520  690  692 am
   521  692  693 am
   522  693  695 1
   523  693  694 2
   524  695  696 2
   525  652  677 1
   526  707  709 1
   527  707  708 1
   528  707  710 1
   529  710  711 1
   530  711  712 1
   531  712  714 1
   532  712  713 1
   533  713  718 1
   534  714  715 1
   535  714  716 1
   536  716  717 1
   537  716  718 1
   538  718  719 1
   539  719  720 ar
   540  719  729 ar
   541  720  721 ar
   542  721  722 ar
   543  722  729 ar
   544  722  723 1
   545  723  724 2
   546  723  725 am
   547  725  726 1
   548  726  727 2
   549  726  728 2
   550  728  729 1
   551  685  707 1
   552  741  743 1
   553  741  742 1
   554  741  744 1
   555  744  745 1
   556  745  746 1
   557  746  748 1
   558  746  747 1
   559  747  752 1
   560  748  749 1
   561  748  750 1
   562  750  751 1
   563  750  752 1
   564  752  753 1
   565  753  754 ar
   566  753  763 ar
   567  754  755 ar
   568  755  756 ar
   569  756  763 ar
   570  756  757 1
   571  757  758 2
   572  757  759 am
   573  759  760 1
   574  760  761 2
   575  760  762 2
   576  762  763 1
   577  715  741 1
   578  775  776 1
   579  775  777 1
   580  775  778 1
   581  778  779 1
   582  779  780 1
   583  780  782 1
   584  780  781 1
   585  781  786 1
   586  782  784 1
   587  782  783 1
   588  784  785 1
   589  784  786 1
   590  786  787 1
   591  787  788 am
   592  787  794 1
   593  788  790 1
   594  788  789 2
   595  790  791 2
   596  791  793 2
   597  791  792 2
   598  793  794 2
   599  749  775 1
   600  806  809 1
   601  806  808 1
   602  806  807 1
   603  809  810 1
   604  810  811 1
   605  811  813 1
   606  811  812 1
   607  812  817 1
   608  813  814 1
   609  813  815 1
   610  815  816 1
   611  815  817 1
   612  817  818 1
   613  818  827 ar
   614  818  819 ar
   615  819  820 ar
   616  820  821 ar
   617  821  822 ar
   618  821  827 ar
   619  822  823 1
   620  822  824 ar
   621  824  825 ar
   622  825  826 ar
   623  826  827 ar
   624  783  806 1
   625  839  840 1
   626  839  841 1
   627  839  842 1
   628  842  843 1
   629  843  844 1
   630  844  846 1
   631  844  845 1
   632  845  850 1
   633  846  848 1
   634  846  847 1
   635  848  849 1
   636  848  850 1
   637  850  851 1
   638  851  852 am
   639  851  858 1
   640  852  854 1
   641  852  853 2
   642  854  855 2
   643  855  857 2
   644  855  856 2
   645  857  858 2
   646  814  839 1
   647  870  872 1
   648  870  871 1
   649  870  873 1
   650  873  874 1
   651  874  875 1
   652  875  877 1
   653  875  876 1
   654  876  881 1
   655  877  878 1
   656  877  879 1
   657  879  880 1
   658  879  881 1
   659  881  882 1
   660  882  883 ar
   661  882  892 ar
   662  883  884 ar
   663  884  885 ar
   664  885  892 ar
   665  885  886 1
   666  886  887 2
   667  886  888 am
   668  888  889 1
   669  889  890 2
   670  889  891 2
   671  891  892 1
   672  847  870 1
   673  904  905 1
   674  904  906 1
   675  904  907 1
   676  907  908 1
   677  908  909 1
   678  909  911 1
   679  909  910 1
   680  910  915 1
   681  911  913 1
   682  911  912 1
   683  913  914 1
   684  913  915 1
   685  915  916 1
   686  916  917 am
   687  916  923 1
   688  917  919 1
   689  917  918 2
   690  919  920 2
   691  920  922 2
   692  920  921 2
   693  922  923 2
   694  878  904 1
   695  935  938 1
   696  935  937 1
   697  935  936 1
   698  938  939 1
   699  939  940 1
   700  940  942 1
   701  940  941 1
   702  941  946 1
   703  942  943 1
   704  942  944 1
   705  944  945 1
   706  944  946 1
   707  946  947 1
   708  947  956 ar
   709  947  948 ar
   710  948  949 ar
   711  949  950 ar
   712  950  951 ar
   713  950  956 ar
   714  951  952 1
   715  951  953 ar
   716  953  954 ar
   717  954  955 ar
   718  955  956 ar
   719  912  935 1
   720  968  971 1
   721  968  970 1
   722  968  969 1
   723  971  972 1
   724  972  973 1
   725  973  975 1
   726  973  974 1
   727  974  979 1
   728  975  976 1
   729  975  977 1
   730  977  978 1
   731  977  979 1
   732  979  980 1
   733  980  989 ar
   734  980  981 ar
   735  981  982 ar
   736  982  983 ar
   737  983  984 ar
   738  983  989 ar
   739  984  985 1
   740  984  986 ar
   741  986  987 ar
   742  987  988 ar
   743  988  989 ar
   744  943  968 1
   745 1001 1003 1
   746 1001 1002 1
   747 1001 1004 1
   748 1004 1005 1
   749 1005 1006 1
   750 1006 1008 1
   751 1006 1007 1
   752 1007 1012 1
   753 1008 1009 1
   754 1008 1010 1
   755 1010 1011 1
   756 1010 1012 1
   757 1012 1013 1
   758 1013 1014 ar
   759 1013 1023 ar
   760 1014 1015 ar
   761 1015 1016 ar
   762 1016 1023 ar
   763 1016 1017 1
   764 1017 1018 2
   765 1017 1019 am
   766 1019 1020 1
   767 1020 1021 2
   768 1020 1022 2
   769 1022 1023 1
   770  976 1001 1
   771 1035 1036 1
   772 1035 1037 1
   773 1035 1038 1
   774 1038 1039 1
   775 1039 1040 1
   776 1040 1042 1
   777 1040 1041 1
   778 1041 1046 1
   779 1042 1044 1
   780 1042 1043 1
   781 1044 1045 1
   782 1044 1046 1
   783 1046 1047 1
   784 1047 1048 am
   785 1047 1054 1
   786 1048 1049 2
   787 1048 1050 am
   788 1050 1051 am
   789 1051 1053 1
   790 1051 1052 2
   791 1053 1054 2
   792 1009 1035 1
   793 1065 1066 1
   794 1065 1067 1
   795 1065 1068 1
   796 1068 1069 1
   797 1069 1070 1
   798 1070 1072 1
   799 1070 1071 1
   800 1071 1076 1
   801 1072 1074 1
   802 1072 1073 1
   803 1074 1075 1
   804 1074 1076 1
   805 1076 1077 1
   806 1077 1078 am
   807 1077 1084 1
   808 1078 1079 2
   809 1078 1080 am
   810 1080 1081 am
   811 1081 1083 1
   812 1081 1082 2
   813 1083 1084 2
   814 1043 1065 1
   815 1095 1096 1
   816 1095 1097 1
   817 1095 1098 1
   818 1098 1099 1
   819 1099 1100 1
   820 1100 1102 1
   821 1100 1101 1
   822 1101 1106 1
   823 1102 1104 1
   824 1102 1103 1
   825 1104 1105 1
   826 1104 1106 1
   827 1106 1107 1
   828 1107 1108 am
   829 1107 1114 1
   830 1108 1109 2
   831 1108 1110 am
   832 1110 1111 am
   833 1111 1113 1
   834 1111 1112 2
   835 1113 1114 2
   836 1073 1095 1
   837 1125 1126 1
   838 1125 1127 1
   839 1125 1128 1
   840 1128 1129 1
   841 1129 1130 1
   842 1130 1132 1
   843 1130 1131 1
   844 1131 1136 1
   845 1132 1134 1
   846 1132 1133 1
   847 1134 1135 1
   848 1134 1136 1
   849 1136 1137 1
   850 1137 1138 am
   851 1137 1144 1
   852 1138 1140 1
   853 1138 1139 2
   854 1140 1141 2
   855 1141 1143 2
   856 1141 1142 2
   857 1143 1144 2
   858 1103 1125 1
   859 1156 1157 1
   860 1156 1158 1
   861 1156 1159 1
   862 1159 1160 1
   863 1160 1161 1
   864 1161 1163 1
   865 1161 1162 1
   866 1162 1167 1
   867 1163 1165 1
   868 1163 1164 1
   869 1165 1166 1
   870 1165 1167 1
   871 1167 1168 1
   872 1168 1169 am
   873 1168 1175 1
   874 1169 1170 2
   875 1169 1171 am
   876 1171 1172 am
   877 1172 1174 1
   878 1172 1173 2
   879 1174 1175 2
   880 1133 1156 1
   881 1186 1189 1
   882 1186 1188 1
   883 1186 1187 1
   884 1189 1190 1
   885 1190 1191 1
   886 1191 1193 1
   887 1191 1192 1
   888 1192 1197 1
   889 1193 1194 1
   890 1193 1195 1
   891 1195 1196 1
   892 1195 1197 1
   893 1197 1198 1
   894 1198 1207 ar
   895 1198 1199 ar
   896 1199 1200 ar
   897 1200 1201 ar
   898 1201 1202 ar
   899 1201 1207 ar
   900 1202 1203 1
   901 1202 1204 ar
   902 1204 1205 ar
   903 1205 1206 ar
   904 1206 1207 ar
   905 1164 1186 1
   906 1219 1220 1
   907 1219 1221 1
   908 1219 1222 1
   909 1222 1223 1
   910 1223 1224 1
   911 1224 1226 1
   912 1224 1225 1
   913 1225 1230 1
   914 1226 1228 1
   915 1226 1227 1
   916 1228 1229 1
   917 1228 1230 1
   918 1230 1231 1
   919 1231 1232 am
   920 1231 1238 1
   921 1232 1234 1
   922 1232 1233 2
   923 1234 1235 2
   924 1235 1237 2
   925 1235 1236 2
   926 1237 1238 2
   927 1194 1219 1
   928 1250 1251 1
   929 1250 1252 1
   930 1250 1253 1
   931 1253 1254 1
   932 1254 1255 1
   933 1255 1257 1
   934 1255 1256 1
   935 1256 1261 1
   936 1257 1259 1
   937 1257 1258 1
   938 1259 1260 1
   939 1259 1261 1
   940 1261 1262 1
   941 1262 1263 am
   942 1262 1269 1
   943 1263 1265 1
   944 1263 1264 2
   945 1265 1266 2
   946 1266 1268 2
   947 1266 1267 2
   948 1268 1269 2
   949 1227 1250 1
   950 1281 1283 1
   951 1281 1282 1
   952 1281 1284 1
   953 1284 1285 1
   954 1285 1286 1
   955 1286 1288 1
   956 1286 1287 1
   957 1287 1292 1
   958 1288 1289 1
   959 1288 1290 1
   960 1290 1291 1
   961 1290 1292 1
   962 1292 1293 1
   963 1293 1294 ar
   964 1293 1303 ar
   965 1294 1295 ar
   966 1295 1296 ar
   967 1296 1303 ar
   968 1296 1297 1
   969 1297 1298 2
   970 1297 1299 am
   971 1299 1300 1
   972 1300 1301 2
   973 1300 1302 2
   974 1302 1303 1
   975 1258 1281 1
   976 1315 1317 1
   977 1315 1316 1
   978 1315 1318 1
   979 1318 1319 1
   980 1319 1320 1
   981 1320 1322 1
   982 1320 1321 1
   983 1321 1326 1
   984 1322 1323 1
   985 1322 1324 1
   986 1324 1325 1
   987 1324 1326 1
   988 1326 1327 1
   989 1327 1328 ar
   990 1327 1337 ar
   991 1328 1329 ar
   992 1329 1330 ar
   993 1330 1337 ar
   994 1330 1331 1
   995 1331 1332 2
   996 1331 1333 am
   997 1333 1334 1
   998 1334 1335 2
   999 1334 1336 2
  1000 1336 1337 1
  1001 1289 1315 1
  1002 1349 1351 1
  1003 1349 1350 1
  1004 1349 1352 1
  1005 1352 1353 1
  1006 1353 1354 1
  1007 1354 1356 1
  1008 1354 1355 1
  1009 1355 1360 1
  1010 1356 1357 1
  1011 1356 1358 1
  1012 1358 1359 1
  1013 1358 1360 1
  1014 1360 1361 1
  1015 1361 1362 ar
  1016 1361 1371 ar
  1017 1362 1363 ar
  1018 1363 1364 ar
  1019 1364 1371 ar
  1020 1364 1365 1
  1021 1365 1366 2
  1022 1365 1367 am
  1023 1367 1368 1
  1024 1368 1369 2
  1025 1368 1370 2
  1026 1370 1371 1
  1027 1323 1349 1
  1028 1383 1384 1
  1029 1383 1385 1
  1030 1383 1386 1
  1031 1386 1387 1
  1032 1387 1388 1
  1033 1388 1390 1
  1034 1388 1389 1
  1035 1389 1394 1
  1036 1390 1392 1
  1037 1390 1391 1
  1038 1392 1393 1
  1039 1392 1394 1
  1040 1394 1395 1
  1041 1395 1396 am
  1042 1395 1402 1
  1043 1396 1398 1
  1044 1396 1397 2
  1045 1398 1399 2
  1046 1399 1401 2
  1047 1399 1400 2
  1048 1401 1402 2
  1049 1357 1383 1
  1050 1414 1417 1
  1051 1414 1416 1
  1052 1414 1415 1
  1053 1417 1418 1
  1054 1418 1419 1
  1055 1419 1421 1
  1056 1419 1420 1
  1057 1420 1425 1
  1058 1421 1422 1
  1059 1421 1423 1
  1060 1423 1424 1
  1061 1423 1425 1
  1062 1425 1426 1
  1063 1426 1435 ar
  1064 1426 1427 ar
  1065 1427 1428 ar
  1066 1428 1429 ar
  1067 1429 1430 ar
  1068 1429 1435 ar
  1069 1430 1431 1
  1070 1430 1432 ar
  1071 1432 1433 ar
  1072 1433 1434 ar
  1073 1434 1435 ar
  1074 1391 1414 1
  1075 1447 1448 1
  1076 1447 1449 1
  1077 1447 1450 1
  1078 1450 1451 1
  1079 1451 1452 1
  1080 1452 1454 1
  1081 1452 1453 1
  1082 1453 1458 1
  1083 1454 1456 1
  1084 1454 1455 1
  1085 1456 1457 1
  1086 1456 1458 1
  1087 1458 1459 1
  1088 1459 1460 am
  1089 1459 1466 1
  1090 1460 1462 1
  1091 1460 1461 2
  1092 1462 1463 2
  1093 1463 1465 2
  1094 1463 1464 2
  1095 1465 1466 2
  1096 1422 1447 1
  1097 1478 1479 1
  1098 1478 1480 1
  1099 1478 1481 1
  1100 1481 1482 1
  1101 1482 1483 1
  1102 1483 1485 1
  1103 1483 1484 1
  1104 1484 1489 1
  1105 1485 1487 1
  1106 1485 1486 1
  1107 1487 1488 1
  1108 1487 1489 1
  1109 1489 1490 1
  1110 1490 1491 am
  1111 1490 1497 1
  1112 1491 1493 1
  1113 1491 1492 2
  1114 1493 1494 2
  1115 1494 1496 2
  1116 1494 1495 2
  1117 1496 1497 2
  1118 1455 1478 1
  1119 1509 1511 1
  1120 1509 1510 1
  1121 1509 1512 1
  1122 1512 1513 1
  1123 1513 1514 1
  1124 1514 1516 1
  1125 1514 1515 1
  1126 1515 1520 1
  1127 1516 1517 1
  1128 1516 1518 1
  1129 1518 1519 1
  1130 1518 1520 1
  1131 1520 1521 1
  1132 1521 1522 ar
  1133 1521 1531 ar
  1134 1522 1523 ar
  1135 1523 1524 ar
  1136 1524 1531 ar
  1137 1524 1525 1
  1138 1525 1526 2
  1139 1525 1527 am
  1140 1527 1528 1
  1141 1528 1529 2
  1142 1528 1530 2
  1143 1530 1531 1
  1144 1486 1509 1
  1145 1543 1544 1
  1146 1543 1545 1
  1147 1543 1546 1
  1148 1546 1547 1
  1149 1547 1548 1
  1150 1548 1550 1
  1151 1548 1549 1
  1152 1549 1554 1
  1153 1550 1552 1
  1154 1550 1551 1
  1155 1552 1553 1
  1156 1552 1554 1
  1157 1554 1555 1
  1158 1555 1556 am
  1159 1555 1562 1
  1160 1556 1557 2
  1161 1556 1558 am
  1162 1558 1559 am
  1163 1559 1561 1
  1164 1559 1560 2
  1165 1561 1562 2
  1166 1517 1543 1
  1167 1573 1576 1
  1168 1573 1575 1
  1169 1573 1574 1
  1170 1576 1577 1
  1171 1577 1578 1
  1172 1578 1580 1
  1173 1578 1579 1
  1174 1579 1584 1
  1175 1580 1581 1
  1176 1580 1582 1
  1177 1582 1583 1
  1178 1582 1584 1
  1179 1584 1585 1
  1180 1585 1594 ar
  1181 1585 1586 ar
  1182 1586 1587 ar
  1183 1587 1588 ar
  1184 1588 1589 ar
  1185 1588 1594 ar
  1186 1589 1590 1
  1187 1589 1591 ar
  1188 1591 1592 ar
  1189 1592 1593 ar
  1190 1593 1594 ar
  1191 1551 1573 1
  1192 1606 1609 1
  1193 1606 1608 1
  1194 1606 1607 1
  1195 1609 1610 1
  1196 1610 1611 1
  1197 1611 1613 1
  1198 1611 1612 1
  1199 1612 1617 1
  1200 1613 1614 1
  1201 1613 1615 1
  1202 1615 1616 1
  1203 1615 1617 1
  1204 1617 1618 1
  1205 1618 1627 ar
  1206 1618 1619 ar
  1207 1619 1620 ar
  1208 1620 1621 ar
  1209 1621 1622 ar
  1210 1621 1627 ar
  1211 1622 1623 1
  1212 1622 1624 ar
  1213 1624 1625 ar
  1214 1625 1626 ar
  1215 1626 1627 ar
  1216 1581 1606 1
  1217 1639 1642 1
  1218 1639 1641 1
  1219 1639 1640 1
  1220 1642 1643 1
  1221 1643 1644 1
  1222 1644 1646 1
  1223 1644 1645 1
  1224 1645 1650 1
  1225 1646 1647 1
  1226 1646 1648 1
  1227 1648 1649 1
  1228 1648 1650 1
  1229 1650 1651 1
  1230 1651 1660 ar
  1231 1651 1652 ar
  1232 1652 1653 ar
  1233 1653 1654 ar
  1234 1654 1655 ar
  1235 1654 1660 ar
  1236 1655 1656 1
  1237 1655 1657 ar
  1238 1657 1658 ar
  1239 1658 1659 ar
  1240 1659 1660 ar
  1241 1614 1639 1
  1242 1672 1673 1
  1243 1672 1674 1
  1244 1672 1675 1
  1245 1675 1676 1
  1246 1676 1677 1
  1247 1677 1679 1
  1248 1677 1678 1
  1249 1678 1683 1
  1250 1679 1681 1
  1251 1679 1680 1
  1252 1681 1682 1
  1253 1681 1683 1
  1254 1683 1684 1
  1255 1684 1685 am
  1256 1684 1691 1
  1257 1685 1686 2
  1258 1685 1687 am
  1259 1687 1688 am
  1260 1688 1690 1
  1261 1688 1689 2
  1262 1690 1691 2
  1263 1647 1672 1
  1264 1702 1704 1
  1265 1702 1703 1
  1266 1702 1705 1
  1267 1705 1706 1
  1268 1706 1707 1
  1269 1707 1709 1
  1270 1707 1708 1
  1271 1708 1713 1
  1272 1709 1710 1
  1273 1709 1711 1
  1274 1711 1712 1
  1275 1711 1713 1
  1276 1713 1714 1
  1277 1714 1715 ar
  1278 1714 1724 ar
  1279 1715 1716 ar
  1280 1716 1717 ar
  1281 1717 1724 ar
  1282 1717 1718 1
  1283 1718 1719 2
  1284 1718 1720 am
  1285 1720 1721 1
  1286 1721 1722 2
  1287 1721 1723 2
  1288 1723 1724 1
  1289 1680 1702 1
  1290 1736 1737 1
  1291 1736 1738 1
  1292 1736 1739 1
  1293 1739 1740 1
  1294 1740 1741 1
  1295 1741 1743 1
  1296 1741 1742 1
  1297 1742 1747 1
  1298 1743 1745 1
  1299 1743 1744 1
  1300 1745 1746 1
  1301 1745 1747 1
  1302 1747 1748 1
  1303 1748 1749 am
  1304 1748 1755 1
  1305 1749 1750 2
  1306 1749 1751 am
  1307 1751 1752 am
  1308 1752 1754 1
  1309 1752 1753 2
  1310 1754 1755 2
  1311 1710 1736 1
  1312 1766 1767 1
  1313 1766 1768 1
  1314 1766 1769 1
  1315 1769 1770 1
  1316 1770 1771 1
  1317 1771 1773 1
  1318 1771 1772 1
  1319 1772 1777 1
  1320 1773 1775 1
  1321 1773 1774 1
  1322 1775 1776 1
  1323 1775 1777 1
  1324 1777 1778 1
  1325 1778 1779 am
  1326 1778 1785 1
  1327 1779 1781 1
  1328 1779 1780 2
  1329 1781 1782 2
  1330 1782 1784 2
  1331 1782 1783 2
  1332 1784 1785 2
  1333 1744 1766 1
  1334 1797 1798 1
  1335 1797 1799 1
  1336 1797 1800 1
  1337 1800 1801 1
  1338 1801 1802 1
  1339 1802 1804 1
  1340 1802 1803 1
  1341 1803 1808 1
  1342 1804 1806 1
  1343 1804 1805 1
  1344 1806 1807 1
  1345 1806 1808 1
  1346 1808 1809 1
  1347 1809 1810 am
  1348 1809 1816 1
  1349 1810 1812 1
  1350 1810 1811 2
  1351 1812 1813 2
  1352 1813 1815 2
  1353 1813 1814 2
  1354 1815 1816 2
  1355 1774 1797 1
  1356 1828 1830 1
  1357 1828 1829 1
  1358 1828 1831 1
  1359 1831 1832 1
  1360 1832 1833 1
  1361 1833 1835 1
  1362 1833 1834 1
  1363 1834 1839 1
  1364 1835 1836 1
  1365 1835 1837 1
  1366 1837 1838 1
  1367 1837 1839 1
  1368 1839 1840 1
  1369 1840 1841 ar
  1370 1840 1850 ar
  1371 1841 1842 ar
  1372 1842 1843 ar
  1373 1843 1850 ar
  1374 1843 1844 1
  1375 1844 1845 2
  1376 1844 1846 am
  1377 1846 1847 1
  1378 1847 1848 2
  1379 1847 1849 2
  1380 1849 1850 1
  1381 1805 1828 1
  1382 1862 1865 1
  1383 1862 1864 1
  1384 1862 1863 1
  1385 1865 1866 1
  1386 1866 1867 1
  1387 1867 1869 1
  1388 1867 1868 1
  1389 1868 1873 1
  1390 1869 1870 1
  1391 1869 1871 1
  1392 1871 1872 1
  1393 1871 1873 1
  1394 1873 1874 1
  1395 1874 1883 ar
  1396 1874 1875 ar
  1397 1875 1876 ar
  1398 1876 1877 ar
  1399 1877 1878 ar
  1400 1877 1883 ar
  1401 1878 1879 1
  1402 1878 1880 ar
  1403 1880 1881 ar
  1404 1881 1882 ar
  1405 1882 1883 ar
  1406 1836 1862 1
  1407 1895 1896 1
  1408 1895 1897 1
  1409 1895 1898 1
  1410 1898 1899 1
  1411 1899 1900 1
  1412 1900 1902 1
  1413 1900 1901 1
  1414 1901 1906 1
  1415 1902 1904 1
  1416 1902 1903 1
  1417 1904 1905 1
  1418 1904 1906 1
  1419 1906 1907 1
  1420 1907 1908 am
  1421 1907 1914 1
  1422 1908 1910 1
  1423 1908 1909 2
  1424 1910 1911 2
  1425 1911 1913 2
  1426 1911 1912 2
  1427 1913 1914 2
  1428 1870 1895 1
  1429 1926 1927 1
  1430 1926 1928 1
  1431 1926 1929 1
  1432 1929 1930 1
  1433 1930 1931 1
  1434 1931 1933 1
  1435 1931 1932 1
  1436 1932 1937 1
  1437 1933 1935 1
  1438 1933 1934 1
  1439 1935 1936 1
  1440 1935 1937 1
  1441 1937 1938 1
  1442 1938 1939 am
  1443 1938 1945 1
  1444 1939 1940 2
  1445 1939 1941 am
  1446 1941 1942 am
  1447 1942 1944 1
  1448 1942 1943 2
  1449 1944 1945 2
  1450 1903 1926 1
  1451 1956 1959 1
  1452 1956 1958 1
  1453 1956 1957 1
  1454 1959 1960 1
  1455 1960 1961 1
  1456 1961 1963 1
  1457 1961 1962 1
  1458 1962 1967 1
  1459 1963 1964 1
  1460 1963 1965 1
  1461 1965 1966 1
  1462 1965 1967 1
  1463 1967 1968 1
  1464 1968 1977 ar
  1465 1968 1969 ar
  1466 1969 1970 ar
  1467 1970 1971 ar
  1468 1971 1972 ar
  1469 1971 1977 ar
  1470 1972 1973 1
  1471 1972 1974 ar
  1472 1974 1975 ar
  1473 1975 1976 ar
  1474 1976 1977 ar
  1475 1934 1956 1
  1476 1989 1990 1
  1477 1989 1991 1
  1478 1989 1992 1
  1479 1992 1993 1
  1480 1993 1994 1
  1481 1994 1996 1
  1482 1994 1995 1
  1483 1995 2000 1
  1484 1996 1998 1
  1485 1996 1997 1
  1486 1998 1999 1
  1487 1998 2000 1
  1488 2000 2001 1
  1489 2001 2002 am
  1490 2001 2008 1
  1491 2002 2003 2
  1492 2002 2004 am
  1493 2004 2005 am
  1494 2005 2007 1
  1495 2005 2006 2
  1496 2007 2008 2
  1497 1964 1989 1
  1498 2019 2021 1
  1499 2019 2020 1
  1500 2019 2022 1
  1501 2022 2023 1
  1502 2023 2024 1
  1503 2024 2026 1
  1504 2024 2025 1
  1505 2025 2030 1
  1506 2026 2027 1
  1507 2026 2028 1
  1508 2028 2029 1
  1509 2028 2030 1
  1510 2030 2031 1
  1511 2031 2032 ar
  1512 2031 2041 ar
  1513 2032 2033 ar
  1514 2033 2034 ar
  1515 2034 2041 ar
  1516 2034 2035 1
  1517 2035 2036 2
  1518 2035 2037 am
  1519 2037 2038 1
  1520 2038 2039 2
  1521 2038 2040 2
  1522 2040 2041 1
  1523 1997 2019 1
  1524 2053 2054 1
  1525 2053 2055 1
  1526 2053 2056 1
  1527 2056 2057 1
  1528 2057 2058 1
  1529 2058 2060 1
  1530 2058 2059 1
  1531 2059 2064 1
  1532 2060 2062 1
  1533 2060 2061 1
  1534 2062 2063 1
  1535 2062 2064 1
  1536 2064 2065 1
  1537 2065 2066 am
  1538 2065 2072 1
  1539 2066 2067 2
  1540 2066 2068 am
  1541 2068 2069 am
  1542 2069 2071 1
  1543 2069 2070 2
  1544 2071 2072 2
  1545 2027 2053 1
  1546 2083 2084 1
  1547 2083 2085 1
  1548 2083 2086 1
  1549 2086 2087 1
  1550 2087 2088 1
  1551 2088 2090 1
  1552 2088 2089 1
  1553 2089 2094 1
  1554 2090 2092 1
  1555 2090 2091 1
  1556 2092 2093 1
  1557 2092 2094 1
  1558 2094 2095 1
  1559 2095 2096 am
  1560 2095 2102 1
  1561 2096 2098 1
  1562 2096 2097 2
  1563 2098 2099 2
  1564 2099 2101 2
  1565 2099 2100 2
  1566 2101 2102 2
  1567 2061 2083 1
  1568 2117 2118 1
  1569 2118 2119 1
  1570 2119 2121 1
  1571 2119 2120 1
  1572 2120 2125 1
  1573 2121 2123 1
  1574 2121 2122 1
  1575 2123 2124 1
  1576 2123 2125 1
  1577 2125 2126 1
  1578 2126 2133 1
  1579 2126 2127 am
  1580 2127 2128 2
  1581 2127 2129 1
  1582 2129 2130 2
  1583 2130 2132 2
  1584 2130 2131 2
  1585 2132 2133 2
  1586 2114 2115 1
  1587 2114 2116 1
  1588 2114 2117 1
  1589 2091 2114 1
  1590   21    2 1
  1591   22    2 1
  1592   23    3 1
  1593   24    5 1
  1594   25    7 1
  1595   26    9 1
  1596   27   11 1
  1597   28   16 1
  1598   56   37 1
  1599   57   37 1
  1600   58   38 1
  1601   59   40 1
  1602   60   42 1
  1603   61   44 1
  1604   62   46 1
  1605   63   51 1
  1606   89   71 1
  1607   90   71 1
  1608   91   72 1
  1609   92   74 1
  1610   93   76 1
  1611   94   78 1
  1612   95   80 1
  1613   96   86 1
  1614  120  104 1
  1615  121  104 1
  1616  122  105 1
  1617  123  107 1
  1618  124  109 1
  1619  125  111 1
  1620  126  118 1
  1621  127  119 1
  1622  153  135 1
  1623  154  135 1
  1624  155  136 1
  1625  156  138 1
  1626  157  140 1
  1627  158  142 1
  1628  159  144 1
  1629  160  150 1
  1630  184  168 1
  1631  185  168 1
  1632  186  169 1
  1633  187  171 1
  1634  188  173 1
  1635  189  175 1
  1636  190  179 1
  1637  191  182 1
  1638  192  183 1
  1639  216  198 1
  1640  217  198 1
  1641  218  199 1
  1642  219  201 1
  1643  220  203 1
  1644  221  205 1
  1645  222  207 1
  1646  223  213 1
  1647  247  231 1
  1648  248  231 1
  1649  249  232 1
  1650  250  234 1
  1651  251  236 1
  1652  252  238 1
  1653  253  242 1
  1654  254  245 1
  1655  255  246 1
  1656  279  261 1
  1657  280  261 1
  1658  281  262 1
  1659  282  264 1
  1660  283  266 1
  1661  284  268 1
  1662  285  270 1
  1663  286  276 1
  1664  312  294 1
  1665  313  294 1
  1666  314  295 1
  1667  315  297 1
  1668  316  299 1
  1669  317  301 1
  1670  318  303 1
  1671  319  309 1
  1672  343  327 1
  1673  344  327 1
  1674  345  328 1
  1675  346  330 1
  1676  347  332 1
  1677  348  334 1
  1678  349  338 1
  1679  350  341 1
  1680  351  342 1
  1681  373  357 1
  1682  374  357 1
  1683  375  358 1
  1684  376  360 1
  1685  377  362 1
  1686  378  364 1
  1687  379  371 1
  1688  380  372 1
  1689  407  388 1
  1690  408  388 1
  1691  409  389 1
  1692  410  391 1
  1693  411  393 1
  1694  412  395 1
  1695  413  397 1
  1696  414  402 1
  1697  438  422 1
  1698  439  422 1
  1699  440  423 1
  1700  441  425 1
  1701  442  427 1
  1702  443  429 1
  1703  444  436 1
  1704  445  437 1
  1705  472  453 1
  1706  473  453 1
  1707  474  454 1
  1708  475  456 1
  1709  476  458 1
  1710  477  460 1
  1711  478  462 1
  1712  479  467 1
  1713  503  487 1
  1714  504  487 1
  1715  505  488 1
  1716  506  490 1
  1717  507  492 1
  1718  508  494 1
  1719  509  498 1
  1720  510  501 1
  1721  511  502 1
  1722  536  517 1
  1723  537  517 1
  1724  538  518 1
  1725  539  520 1
  1726  540  522 1
  1727  541  524 1
  1728  542  526 1
  1729  543  531 1
  1730  570  551 1
  1731  571  551 1
  1732  572  552 1
  1733  573  554 1
  1734  574  556 1
  1735  575  558 1
  1736  576  560 1
  1737  577  565 1
  1738  603  585 1
  1739  604  585 1
  1740  605  586 1
  1741  606  588 1
  1742  607  590 1
  1743  608  592 1
  1744  609  594 1
  1745  610  600 1
  1746  634  618 1
  1747  635  618 1
  1748  636  619 1
  1749  637  621 1
  1750  638  623 1
  1751  639  625 1
  1752  640  629 1
  1753  641  632 1
  1754  642  633 1
  1755  666  648 1
  1756  667  648 1
  1757  668  649 1
  1758  669  651 1
  1759  670  653 1
  1760  671  655 1
  1761  672  657 1
  1762  673  663 1
  1763  697  681 1
  1764  698  681 1
  1765  699  682 1
  1766  700  684 1
  1767  701  686 1
  1768  702  688 1
  1769  703  692 1
  1770  704  695 1
  1771  705  696 1
  1772  730  711 1
  1773  731  711 1
  1774  732  712 1
  1775  733  714 1
  1776  734  716 1
  1777  735  718 1
  1778  736  720 1
  1779  737  725 1
  1780  764  745 1
  1781  765  745 1
  1782  766  746 1
  1783  767  748 1
  1784  768  750 1
  1785  769  752 1
  1786  770  754 1
  1787  771  759 1
  1788  795  779 1
  1789  796  779 1
  1790  797  780 1
  1791  798  782 1
  1792  799  784 1
  1793  800  786 1
  1794  801  793 1
  1795  802  794 1
  1796  828  810 1
  1797  829  810 1
  1798  830  811 1
  1799  831  813 1
  1800  832  815 1
  1801  833  817 1
  1802  834  819 1
  1803  835  825 1
  1804  859  843 1
  1805  860  843 1
  1806  861  844 1
  1807  862  846 1
  1808  863  848 1
  1809  864  850 1
  1810  865  857 1
  1811  866  858 1
  1812  893  874 1
  1813  894  874 1
  1814  895  875 1
  1815  896  877 1
  1816  897  879 1
  1817  898  881 1
  1818  899  883 1
  1819  900  888 1
  1820  924  908 1
  1821  925  908 1
  1822  926  909 1
  1823  927  911 1
  1824  928  913 1
  1825  929  915 1
  1826  930  922 1
  1827  931  923 1
  1828  957  939 1
  1829  958  939 1
  1830  959  940 1
  1831  960  942 1
  1832  961  944 1
  1833  962  946 1
  1834  963  948 1
  1835  964  954 1
  1836  990  972 1
  1837  991  972 1
  1838  992  973 1
  1839  993  975 1
  1840  994  977 1
  1841  995  979 1
  1842  996  981 1
  1843  997  987 1
  1844 1024 1005 1
  1845 1025 1005 1
  1846 1026 1006 1
  1847 1027 1008 1
  1848 1028 1010 1
  1849 1029 1012 1
  1850 1030 1014 1
  1851 1031 1019 1
  1852 1055 1039 1
  1853 1056 1039 1
  1854 1057 1040 1
  1855 1058 1042 1
  1856 1059 1044 1
  1857 1060 1046 1
  1858 1061 1050 1
  1859 1062 1053 1
  1860 1063 1054 1
  1861 1085 1069 1
  1862 1086 1069 1
  1863 1087 1070 1
  1864 1088 1072 1
  1865 1089 1074 1
  1866 1090 1076 1
  1867 1091 1080 1
  1868 1092 1083 1
  1869 1093 1084 1
  1870 1115 1099 1
  1871 1116 1099 1
  1872 1117 1100 1
  1873 1118 1102 1
  1874 1119 1104 1
  1875 1120 1106 1
  1876 1121 1110 1
  1877 1122 1113 1
  1878 1123 1114 1
  1879 1145 1129 1
  1880 1146 1129 1
  1881 1147 1130 1
  1882 1148 1132 1
  1883 1149 1134 1
  1884 1150 1136 1
  1885 1151 1143 1
  1886 1152 1144 1
  1887 1176 1160 1
  1888 1177 1160 1
  1889 1178 1161 1
  1890 1179 1163 1
  1891 1180 1165 1
  1892 1181 1167 1
  1893 1182 1171 1
  1894 1183 1174 1
  1895 1184 1175 1
  1896 1208 1190 1
  1897 1209 1190 1
  1898 1210 1191 1
  1899 1211 1193 1
  1900 1212 1195 1
  1901 1213 1197 1
  1902 1214 1199 1
  1903 1215 1205 1
  1904 1239 1223 1
  1905 1240 1223 1
  1906 1241 1224 1
  1907 1242 1226 1
  1908 1243 1228 1
  1909 1244 1230 1
  1910 1245 1237 1
  1911 1246 1238 1
  1912 1270 1254 1
  1913 1271 1254 1
  1914 1272 1255 1
  1915 1273 1257 1
  1916 1274 1259 1
  1917 1275 1261 1
  1918 1276 1268 1
  1919 1277 1269 1
  1920 1304 1285 1
  1921 1305 1285 1
  1922 1306 1286 1
  1923 1307 1288 1
  1924 1308 1290 1
  1925 1309 1292 1
  1926 1310 1294 1
  1927 1311 1299 1
  1928 1338 1319 1
  1929 1339 1319 1
  1930 1340 1320 1
  1931 1341 1322 1
  1932 1342 1324 1
  1933 1343 1326 1
  1934 1344 1328 1
  1935 1345 1333 1
  1936 1372 1353 1
  1937 1373 1353 1
  1938 1374 1354 1
  1939 1375 1356 1
  1940 1376 1358 1
  1941 1377 1360 1
  1942 1378 1362 1
  1943 1379 1367 1
  1944 1403 1387 1
  1945 1404 1387 1
  1946 1405 1388 1
  1947 1406 1390 1
  1948 1407 1392 1
  1949 1408 1394 1
  1950 1409 1401 1
  1951 1410 1402 1
  1952 1436 1418 1
  1953 1437 1418 1
  1954 1438 1419 1
  1955 1439 1421 1
  1956 1440 1423 1
  1957 1441 1425 1
  1958 1442 1427 1
  1959 1443 1433 1
  1960 1467 1451 1
  1961 1468 1451 1
  1962 1469 1452 1
  1963 1470 1454 1
  1964 1471 1456 1
  1965 1472 1458 1
  1966 1473 1465 1
  1967 1474 1466 1
  1968 1498 1482 1
  1969 1499 1482 1
  1970 1500 1483 1
  1971 1501 1485 1
  1972 1502 1487 1
  1973 1503 1489 1
  1974 1504 1496 1
  1975 1505 1497 1
  1976 1532 1513 1
  1977 1533 1513 1
  1978 1534 1514 1
  1979 1535 1516 1
  1980 1536 1518 1
  1981 1537 1520 1
  1982 1538 1522 1
  1983 1539 1527 1
  1984 1563 1547 1
  1985 1564 1547 1
  1986 1565 1548 1
  1987 1566 1550 1
  1988 1567 1552 1
  1989 1568 1554 1
  1990 1569 1558 1
  1991 1570 1561 1
  1992 1571 1562 1
  1993 1595 1577 1
  1994 1596 1577 1
  1995 1597 1578 1
  1996 1598 1580 1
  1997 1599 1582 1
  1998 1600 1584 1
  1999 1601 1586 1
  2000 1602 1592 1
  2001 1628 1610 1
  2002 1629 1610 1
  2003 1630 1611 1
  2004 1631 1613 1
  2005 1632 1615 1
  2006 1633 1617 1
  2007 1634 1619 1
  2008 1635 1625 1
  2009 1661 1643 1
  2010 1662 1643 1
  2011 1663 1644 1
  2012 1664 1646 1
  2013 1665 1648 1
  2014 1666 1650 1
  2015 1667 1652 1
  2016 1668 1658 1
  2017 1692 1676 1
  2018 1693 1676 1
  2019 1694 1677 1
  2020 1695 1679 1
  2021 1696 1681 1
  2022 1697 1683 1
  2023 1698 1687 1
  2024 1699 1690 1
  2025 1700 1691 1
  2026 1725 1706 1
  2027 1726 1706 1
  2028 1727 1707 1
  2029 1728 1709 1
  2030 1729 1711 1
  2031 1730 1713 1
  2032 1731 1715 1
  2033 1732 1720 1
  2034 1756 1740 1
  2035 1757 1740 1
  2036 1758 1741 1
  2037 1759 1743 1
  2038 1760 1745 1
  2039 1761 1747 1
  2040 1762 1751 1
  2041 1763 1754 1
  2042 1764 1755 1
  2043 1786 1770 1
  2044 1787 1770 1
  2045 1788 1771 1
  2046 1789 1773 1
  2047 1790 1775 1
  2048 1791 1777 1
  2049 1792 1784 1
  2050 1793 1785 1
  2051 1817 1801 1
  2052 1818 1801 1
  2053 1819 1802 1
  2054 1820 1804 1
  2055 1821 1806 1
  2056 1822 1808 1
  2057 1823 1815 1
  2058 1824 1816 1
  2059 1851 1832 1
  2060 1852 1832 1
  2061 1853 1833 1
  2062 1854 1835 1
  2063 1855 1837 1
  2064 1856 1839 1
  2065 1857 1841 1
  2066 1858 1846 1
  2067 1884 1866 1
  2068 1885 1866 1
  2069 1886 1867 1
  2070 1887 1869 1
  2071 1888 1871 1
  2072 1889 1873 1
  2073 1890 1875 1
  2074 1891 1881 1
  2075 1915 1899 1
  2076 1916 1899 1
  2077 1917 1900 1
  2078 1918 1902 1
  2079 1919 1904 1
  2080 1920 1906 1
  2081 1921 1913 1
  2082 1922 1914 1
  2083 1946 1930 1
  2084 1947 1930 1
  2085 1948 1931 1
  2086 1949 1933 1
  2087 1950 1935 1
  2088 1951 1937 1
  2089 1952 1941 1
  2090 1953 1944 1
  2091 1954 1945 1
  2092 1978 1960 1
  2093 1979 1960 1
  2094 1980 1961 1
  2095 1981 1963 1
  2096 1982 1965 1
  2097 1983 1967 1
  2098 1984 1969 1
  2099 1985 1975 1
  2100 2009 1993 1
  2101 2010 1993 1
  2102 2011 1994 1
  2103 2012 1996 1
  2104 2013 1998 1
  2105 2014 2000 1
  2106 2015 2004 1
  2107 2016 2007 1
  2108 2017 2008 1
  2109 2042 2023 1
  2110 2043 2023 1
  2111 2044 2024 1
  2112 2045 2026 1
  2113 2046 2028 1
  2114 2047 2030 1
  2115 2048 2032 1
  2116 2049 2037 1
  2117 2073 2057 1
  2118 2074 2057 1
  2119 2075 2058 1
  2120 2076 2060 1
  2121 2077 2062 1
  2122 2078 2064 1
  2123 2079 2068 1
  2124 2080 2071 1
  2125 2081 2072 1
  2126 2103 2087 1
  2127 2104 2087 1
  2128 2105 2088 1
  2129 2106 2090 1
  2130 2107 2092 1
  2131 2108 2094 1
  2132 2109 2101 1
  2133 2110 2102 1
  2134 2134 2118 1
  2135 2135 2118 1
  2136 2136 2119 1
  2137 2137 2121 1
  2138 2138 2123 1
  2139 2139 2125 1
  2140 2140 2132 1
  2141 2141 2133 1
  2142   29   18 1
  2143   30   18 1
  2144   64   53 1
  2145   65   53 1
  2146  128  117 1
  2147  129  117 1
  2148  381  370 1
  2149  382  370 1
  2150  415  404 1
  2151  416  404 1
  2152  446  435 1
  2153  447  435 1
  2154  480  469 1
  2155  481  469 1
  2156  544  533 1
  2157  545  533 1
  2158  578  567 1
  2159  579  567 1
  2160  738  727 1
  2161  739  727 1
  2162  772  761 1
  2163  773  761 1
  2164  803  792 1
  2165  804  792 1
  2166  867  856 1
  2167  868  856 1
  2168  901  890 1
  2169  902  890 1
  2170  932  921 1
  2171  933  921 1
  2172 1032 1021 1
  2173 1033 1021 1
  2174 1153 1142 1
  2175 1154 1142 1
  2176 1247 1236 1
  2177 1248 1236 1
  2178 1278 1267 1
  2179 1279 1267 1
  2180 1312 1301 1
  2181 1313 1301 1
  2182 1346 1335 1
  2183 1347 1335 1
  2184 1380 1369 1
  2185 1381 1369 1
  2186 1411 1400 1
  2187 1412 1400 1
  2188 1475 1464 1
  2189 1476 1464 1
  2190 1506 1495 1
  2191 1507 1495 1
  2192 1540 1529 1
  2193 1541 1529 1
  2194 1733 1722 1
  2195 1734 1722 1
  2196 1794 1783 1
  2197 1795 1783 1
  2198 1825 1814 1
  2199 1826 1814 1
  2200 1859 1848 1
  2201 1860 1848 1
  2202 1923 1912 1
  2203 1924 1912 1
  2204 2050 2039 1
  2205 2051 2039 1
  2206 2111 2100 1
  2207 2112 2100 1
  2208 2142 2131 1
  2209 2143 2131 1
  2210 1572 1553 1
  2211 1124 1105 1
  2212  224  204 1
  2213  740  717 1
  2214  611  591 1
  2215  643  624 1
  2216 1508 1488 1
  2217 1064 1045 1
  2218 1955 1936 1
  2219 1542 1519 1
  2220 2018 1999 1
  2221 1636 1616 1
  2222 1603 1583 1
  2223 1185 1166 1
  2224 1477 1457 1
  2225 1796 1776 1
  2226 1765 1746 1
  2227 2052 2029 1
  2228  512  493 1
  2229 1094 1075 1
  2230   97   77 1
  2231  805  785 1
  2232 1280 1260 1
  2233 1314 1291 1
  2234 1986 1966 1
  2235  836  816 1
  2236  161  141 1
  2237  383  363 1
  2238  706  687 1
  2239  965  945 1
  2240   66   43 1
  2241 1348 1325 1
  2242 1735 1712 1
  2243 1249 1229 1
  2244 1444 1431 1
  2245 1445 1431 1
  2246 1637 1623 1
  2247 1638 1623 1
  2248  837  823 1
  2249  838  823 1
  2250   98   84 1
  2251   99   84 1
  2252  287  274 1
  2253  288  274 1
  2254  998  985 1
  2255  999  985 1
  2256  612  598 1
  2257  613  598 1
  2258 1604 1590 1
  2259 1605 1590 1
  2260 1987 1973 1
  2261 1988 1973 1
  2262  674  661 1
  2263  675  661 1
  2264  162  148 1
  2265  163  148 1
  2266 1216 1203 1
  2267 1217 1203 1
  2268 1892 1879 1
  2269 1893 1879 1
  2270 1669 1656 1
  2271 1670 1656 1
  2272  966  952 1
  2273  967  952 1
  2274  225  211 1
  2275  226  211 1
  2276  320  307 1
  2277  321  307 1
  2278  322  300 1
  2279 1034 1011 1
  2280  774  751 1
  2281 1382 1359 1
  2282  482  459 1
  2283  934  914 1
  2284 1701 1682 1
  2285  193  174 1
  2286 1894 1872 1
  2287  352  333 1
  2288  676  654 1
  2289 1000  978 1
  2290 1925 1905 1
  2291 2082 2063 1
  2292  256  237 1
  2293  417  394 1
  2294  869  849 1
  2295   31    1 1
  2296  580  557 1
  2297  289  267 1
  2298 2113 2093 1
  2299  903  880 1
  2300  448  428 1
  2301  130  110 1
  2302 1861 1838 1
  2303 1671 1649 1
  2304 1218 1196 1
  2305  546  523 1
  2306 2144 2122 1
  2307 2145 2124 1
  2308 1413 1393 1
  2309 1155 1135 1
  2310   32    8 1
  2311 1446 1424 1
  2312 1827 1807 1
@<TRIPOS>SUBSTRUCTURE
     1   G15       3 RESIDUE           4 A       G     1 ROOT
     2   G16      38 RESIDUE           4 A       G     2
     3   A17      72 RESIDUE           4 A       A     2
     4   C18     105 RESIDUE           4 A       C     2
     5   A19     136 RESIDUE           4 A       A     2
     6   U20     169 RESIDUE           4 A       U     2
     7   A21     199 RESIDUE           4 A       A     2
     8   U22     232 RESIDUE           4 A       U     2
     9   A23     262 RESIDUE           4 A       A     2
    10   A24     295 RESIDUE           4 A       A     2
    11   U25     328 RESIDUE           4 A       U     2
    12   C26     358 RESIDUE           4 A       C     2
    13   G27     389 RESIDUE           4 A       G     2
    14   C28     423 RESIDUE           4 A       C     2
    15   G29     454 RESIDUE           4 A       G     2
    16   U30     488 RESIDUE           4 A       U     2
    17   G31     518 RESIDUE           4 A       G     2
    18   G32     552 RESIDUE           4 A       G     2
    19   A33     586 RESIDUE           4 A       A     2
    20   U34     619 RESIDUE           4 A       U     2
    21   A35     649 RESIDUE           4 A       A     2
    22   U36     682 RESIDUE           4 A       U     2
    23   G37     712 RESIDUE           4 A       G     2
    24   G38     746 RESIDUE           4 A       G     2
    25   C39     780 RESIDUE           4 A       C     2
    26   A40     811 RESIDUE           4 A       A     2
    27   C41     844 RESIDUE           4 A       C     2
    28   G42     875 RESIDUE           4 A       G     2
    29   C43     909 RESIDUE           4 A       C     2
    30   A44     940 RESIDUE           4 A       A     2
    31   A45     973 RESIDUE           4 A       A     2
    32   G46    1006 RESIDUE           4 A       G     2
    33   U47    1040 RESIDUE           4 A       U     2
    34   U48    1070 RESIDUE           4 A       U     2
    35   U49    1100 RESIDUE           4 A       U     2
    36   C50    1130 RESIDUE           4 A       C     2
    37   U51    1161 RESIDUE           4 A       U     2
    38   A52    1191 RESIDUE           4 A       A     2
    39   C53    1224 RESIDUE           4 A       C     2
    40   C54    1255 RESIDUE           4 A       C     2
    41   G55    1286 RESIDUE           4 A       G     2
    42   G56    1320 RESIDUE           4 A       G     2
    43   G57    1354 RESIDUE           4 A       G     2
    44   C58    1388 RESIDUE           4 A       C     2
    45   A59    1419 RESIDUE           4 A       A     2
    46   C60    1452 RESIDUE           4 A       C     2
    47   C61    1483 RESIDUE           4 A       C     2
    48   G62    1514 RESIDUE           4 A       G     2
    49   U63    1548 RESIDUE           4 A       U     2
    50   A64    1578 RESIDUE           4 A       A     2
    51   A65    1611 RESIDUE           4 A       A     2
    52   A66    1644 RESIDUE           4 A       A     2
    53   U67    1677 RESIDUE           4 A       U     2
    54   G68    1707 RESIDUE           4 A       G     2
    55   U69    1741 RESIDUE           4 A       U     2
    56   C70    1771 RESIDUE           4 A       C     2
    57   C71    1802 RESIDUE           4 A       C     2
    58   G72    1833 RESIDUE           4 A       G     2
    59   A73    1867 RESIDUE           4 A       A     2
    60   C74    1900 RESIDUE           4 A       C     2
    61   U75    1931 RESIDUE           4 A       U     2
    62   A76    1961 RESIDUE           4 A       A     2
    63   U77    1994 RESIDUE           4 A       U     2
    64   G78    2024 RESIDUE           4 A       G     2
    65   U79    2058 RESIDUE           4 A       U     2
    66   C80    2088 RESIDUE           4 A       C     2
    67   C81    2119 RESIDUE           4 A       C     1
