@<TRIPOS>MOLECULE
2YIE.pdb
3509 3788 109 0 0
NUCLEIC_ACID
AMBER ff14SB


@<TRIPOS>ATOM
      1 O5'        -8.5930  -45.8430  -71.4580 O.3       1   G2       -0.6223
      2 C5'        -8.9790  -45.5820  -70.1190 C.3       1   G2        0.0558
      3 C4'       -10.4770  -45.5740  -69.9730 C.3       1   G2        0.1065
      4 O4'       -11.0360  -44.4610  -70.7210 O.3       1   G2       -0.3548
      5 C3'       -11.2050  -46.7850  -70.5340 C.3       1   G2        0.2022
      6 O3'       -11.1720  -47.9100  -69.6740 O.3       1   G2       -0.5246
      7 C2'       -12.6000  -46.2360  -70.7780 C.3       1   G2        0.0670
      8 O2'       -13.3040  -46.0950  -69.5530 O.3       1   G2       -0.6139
      9 C1'       -12.2660  -44.8440  -71.3010 C.3       1   G2        0.0191
     10 N9        -12.1080  -44.8440  -72.7650 N.ar      1   G2        0.0492
     11 C8        -10.9420  -44.7540  -73.4860 C.ar      1   G2        0.1374
     12 N7        -11.1340  -44.7930  -74.7770 N.ar      1   G2       -0.5709
     13 C5        -12.5110  -44.9240  -74.9150 C.ar      1   G2        0.1744
     14 C6        -13.3230  -45.0200  -76.0780 C.2       1   G2        0.4770
     15 O6        -12.9760  -45.0090  -77.2670 O.2       1   G2       -0.5597
     16 N1        -14.6730  -45.1390  -75.7510 N.am      1   G2       -0.4787
     17 C2        -15.1830  -45.1640  -74.4730 C.2       1   G2        0.7657
     18 N2        -16.5160  -45.2860  -74.3600 N.pl3     1   G2       -0.9672
     19 N3        -14.4360  -45.0770  -73.3840 N.2       1   G2       -0.6323
     20 C4        -13.1240  -44.9590  -73.6790 C.ar      1   G2        0.1222
     21 H5'        -8.5636  -46.3553  -69.4728 H         1   G2        0.0679
     22 H5''       -8.5847  -44.6122  -69.8155 H         1   G2        0.0679
     23 H4'       -10.7324  -45.4603  -68.9195 H         1   G2        0.1174
     24 H3'       -10.7580  -47.0562  -71.4904 H         1   G2        0.0615
     25 H2'       -13.1544  -46.8279  -71.5063 H         1   G2        0.0972
     26 H1'       -13.0476  -44.1414  -71.0119 H         1   G2        0.2006
     27 H8         -9.9667  -44.6606  -73.0316 H         1   G2        0.1640
     28 H1        -15.3303  -45.2129  -76.5142 H         1   G2        0.3424
     29 H21       -17.0890  -45.3532  -75.1890 H         1   G2        0.4364
     30 H22       -16.9452  -45.3105  -73.4461 H         1   G2        0.4364
     31 HO2'      -13.5234  -46.9635  -69.2077 H         1   G2        0.4186
     32 HO5'       -7.6692  -45.8213  -71.7184 H         1   G2        0.4295
     33 P         -10.9400  -49.3810  -70.2830 P.3       2   A3        1.1662
     34 OP1        -9.8580  -49.2700  -71.2920 O.co2     2   A3       -0.7760
     35 OP2       -10.7530  -50.3030  -69.1360 O.co2     2   A3       -0.7760
     36 O5'       -12.3260  -49.6890  -71.0070 O.3       2   A3       -0.4989
     37 C5'       -13.5350  -49.7790  -70.2670 C.3       2   A3        0.0558
     38 C4'       -14.7340  -49.8860  -71.1770 C.3       2   A3        0.1065
     39 O4'       -14.8330  -48.6930  -72.0000 O.3       2   A3       -0.3548
     40 C3'       -14.7070  -51.0290  -72.1800 C.3       2   A3        0.2022
     41 O3'       -15.1130  -52.2670  -71.6190 O.3       2   A3       -0.5246
     42 C2'       -15.6240  -50.5240  -73.2860 C.3       2   A3        0.0670
     43 O2'       -16.9880  -50.6690  -72.9160 O.3       2   A3       -0.6139
     44 C1'       -15.2850  -49.0340  -73.2940 C.3       2   A3        0.0394
     45 N9        -14.2160  -48.7150  -74.2620 N.ar      2   A3       -0.0251
     46 C8        -12.9030  -48.4100  -73.9880 C.ar      2   A3        0.2006
     47 N7        -12.1760  -48.1670  -75.0520 N.ar      2   A3       -0.6073
     48 C5        -13.0720  -48.3190  -76.0990 C.ar      2   A3        0.0515
     49 C6        -12.9200  -48.1950  -77.4910 C.ar      2   A3        0.7009
     50 N6        -11.7650  -47.8790  -78.0860 N.pl3     2   A3       -0.9019
     51 N1        -14.0140  -48.4120  -78.2580 N.ar      2   A3       -0.7615
     52 C2        -15.1710  -48.7290  -77.6600 C.ar      2   A3        0.5875
     53 N3        -15.4360  -48.8760  -76.3640 N.ar      2   A3       -0.6997
     54 C4        -14.3320  -48.6520  -75.6290 C.ar      2   A3        0.3053
     55 H5'       -13.4948  -50.6620  -69.6291 H         2   A3        0.0679
     56 H5''      -13.6385  -48.8916  -69.6425 H         2   A3        0.0679
     57 H4'       -15.6339  -49.9711  -70.5678 H         2   A3        0.1174
     58 H3'       -13.6963  -51.1318  -72.5751 H         2   A3        0.0615
     59 H2'       -15.4079  -50.9973  -74.2438 H         2   A3        0.0972
     60 H1'       -16.1785  -48.4572  -73.5329 H         2   A3        0.2007
     61 H8        -12.5056  -48.3738  -72.9844 H         2   A3        0.1553
     62 H2        -16.0074  -48.8878  -78.3245 H         2   A3        0.0473
     63 HO2'      -17.3725  -51.4082  -73.3928 H         2   A3        0.4186
     64 H61       -10.9386  -47.7141  -77.5292 H         2   A3        0.4115
     65 H62       -11.7189  -47.8052  -79.0922 H         2   A3        0.4115
     66 P         -14.3310  -53.6230  -71.9930 P.3       3   U4        1.1662
     67 OP1       -14.5200  -54.5640  -70.8620 O.co2     3   U4       -0.7760
     68 OP2       -12.9490  -53.2430  -72.3770 O.co2     3   U4       -0.7760
     69 O5'       -15.1240  -54.1430  -73.2710 O.3       3   U4       -0.4989
     70 C5'       -16.5430  -54.1720  -73.2860 C.3       3   U4        0.0558
     71 C4'       -17.0770  -54.1660  -74.6950 C.3       3   U4        0.1065
     72 O4'       -16.8680  -52.8590  -75.2950 O.3       3   U4       -0.3548
     73 C3'       -16.4020  -55.1210  -75.6650 C.3       3   U4        0.2022
     74 O3'       -16.8500  -56.4590  -75.5410 O.3       3   U4       -0.5246
     75 C2'       -16.7140  -54.4860  -77.0120 C.3       3   U4        0.0670
     76 O2'       -18.0640  -54.7300  -77.3800 O.3       3   U4       -0.6139
     77 C1'       -16.5700  -53.0050  -76.6710 C.3       3   U4        0.0674
     78 N1        -15.1900  -52.5160  -76.9090 N.am      3   U4        0.0418
     79 C2        -14.8280  -52.1660  -78.2000 C.2       3   U4        0.4687
     80 O2        -15.5910  -52.2380  -79.1490 O.2       3   U4       -0.5477
     81 N3        -13.5310  -51.7290  -78.3430 N.am      3   U4       -0.3549
     82 C4        -12.5810  -51.6070  -77.3480 C.2       3   U4        0.5952
     83 O4        -11.4520  -51.1980  -77.6290 O.2       3   U4       -0.5761
     84 C5        -13.0310  -51.9870  -76.0430 C.2       3   U4       -0.3635
     85 C6        -14.2860  -52.4180  -75.8750 C.2       3   U4       -0.1126
     86 H5'       -16.9213  -53.2957  -72.7596 H         3   U4        0.0679
     87 H5''      -16.8878  -55.0719  -72.7766 H         3   U4        0.0679
     88 H4'       -18.1456  -54.3796  -74.6712 H         3   U4        0.1174
     89 H3'       -15.3250  -55.0911  -75.5001 H         3   U4        0.0615
     90 H2'       -16.0138  -54.7995  -77.7863 H         3   U4        0.0972
     91 H1'       -17.2743  -52.4211  -77.2636 H         3   U4        0.1824
     92 H3        -13.2429  -51.4697  -79.2756 H         3   U4        0.3154
     93 H5        -12.3605  -51.9259  -75.1986 H         3   U4        0.1811
     94 H6        -14.6049  -52.7021  -74.8830 H         3   U4        0.2188
     95 HO2'      -18.1738  -55.6584  -77.5984 H         3   U4        0.4186
     96 P         -15.8090  -57.6750  -75.7050 P.3       4   C5        1.1662
     97 OP1       -14.5630  -57.2800  -75.0040 O.co2     4   C5       -0.7760
     98 OP2       -16.5070  -58.9100  -75.2720 O.co2     4   C5       -0.7760
     99 O5'       -15.5580  -57.7150  -77.2800 O.3       4   C5       -0.4989
    100 C5'       -16.6040  -58.0710  -78.1730 C.3       4   C5        0.0558
    101 C4'       -16.2630  -57.7310  -79.6040 C.3       4   C5        0.1065
    102 O4'       -15.9580  -56.3170  -79.7190 O.3       4   C5       -0.3548
    103 C3'       -15.0380  -58.4140  -80.1880 C.3       4   C5        0.2022
    104 O3'       -15.2830  -59.7480  -80.5970 O.3       4   C5       -0.5246
    105 C2'       -14.6620  -57.4830  -81.3320 C.3       4   C5        0.0670
    106 O2'       -15.5190  -57.6820  -82.4460 O.3       4   C5       -0.6139
    107 C1'       -14.9760  -56.1200  -80.7180 C.3       4   C5        0.0066
    108 N1        -13.7850  -55.5170  -80.0940 N.am      4   C5       -0.0484
    109 C2        -12.8970  -54.8160  -80.9130 C.2       4   C5        0.7538
    110 O2        -13.1530  -54.7260  -82.1220 O.2       4   C5       -0.6252
    111 N3        -11.7910  -54.2610  -80.3640 N.2       4   C5       -0.7584
    112 C4        -11.5630  -54.3930  -79.0540 C.2       4   C5        0.8185
    113 N4        -10.4620  -53.8320  -78.5490 N.pl3     4   C5       -0.9530
    114 C5        -12.4530  -55.1080  -78.1980 C.2       4   C5       -0.5215
    115 C6        -13.5430  -55.6520  -78.7550 C.2       4   C5        0.0053
    116 H5'       -16.7809  -59.1440  -78.0984 H         4   C5        0.0679
    117 H5''      -17.5120  -57.5398  -77.8875 H         4   C5        0.0679
    118 H4'       -17.1240  -57.9566  -80.2331 H         4   C5        0.1174
    119 H3'       -14.2391  -58.4090  -79.4465 H         4   C5        0.0615
    120 H2'       -13.6106  -57.5753  -81.6044 H         4   C5        0.0972
    121 H1'       -15.3645  -55.4524  -81.4871 H         4   C5        0.2029
    122 H5        -12.2553  -55.2068  -77.1409 H         4   C5        0.1928
    123 H6        -14.2385  -56.2034  -78.1396 H         4   C5        0.1958
    124 H41        -9.8305  -53.3258  -79.1532 H         4   C5        0.4234
    125 H42       -10.2604  -53.9138  -77.5627 H         4   C5        0.4234
    126 HO2'      -14.9996  -57.9585  -83.2045 H         4   C5        0.4186
    127 P         -14.0560  -60.7630  -80.8240 P.3       5   U6        1.1662
    128 OP1       -13.0650  -60.5000  -79.7490 O.co2     5   U6       -0.7760
    129 OP2       -14.6330  -62.1240  -80.9440 O.co2     5   U6       -0.7760
    130 O5'       -13.4680  -60.2980  -82.2290 O.3       5   U6       -0.4989
    131 C5'       -14.2290  -60.4320  -83.4210 C.3       5   U6        0.0558
    132 C4'       -13.4850  -59.8860  -84.6110 C.3       5   U6        0.1065
    133 O4'       -13.2820  -58.4570  -84.4450 O.3       5   U6       -0.3548
    134 C3'       -12.0840  -60.4360  -84.8270 C.3       5   U6        0.2022
    135 O3'       -12.0700  -61.6900  -85.4840 O.3       5   U6       -0.5246
    136 C2'       -11.4100  -59.3230  -85.6130 C.3       5   U6        0.0670
    137 O2'       -11.8280  -59.3440  -86.9710 O.3       5   U6       -0.6139
    138 C1'       -12.0120  -58.0900  -84.9420 C.3       5   U6        0.0674
    139 N1        -11.1860  -57.6230  -83.8070 N.am      5   U6        0.0418
    140 C2        -10.1480  -56.7480  -84.0620 C.2       5   U6        0.4687
    141 O2         -9.8830  -56.3470  -85.1830 O.2       5   U6       -0.5477
    142 N3         -9.4260  -56.3610  -82.9560 N.am      5   U6       -0.3549
    143 C4         -9.6360  -56.7530  -81.6450 C.2       5   U6        0.5952
    144 O4         -8.9040  -56.3210  -80.7490 O.2       5   U6       -0.5761
    145 C5        -10.7300  -57.6590  -81.4670 C.2       5   U6       -0.3635
    146 C6        -11.4480  -58.0500  -82.5260 C.2       5   U6       -0.1126
    147 H5'       -14.4415  -61.4878  -83.5894 H         5   U6        0.0679
    148 H5''      -15.1688  -59.8916  -83.3080 H         5   U6        0.0679
    149 H4'       -14.0769  -60.0587  -85.5098 H         5   U6        0.1174
    150 H3'       -11.5900  -60.5367  -83.8606 H         5   U6        0.0615
    151 H2'       -10.3246  -59.3529  -85.5176 H         5   U6        0.0972
    152 H1'       -12.1201  -57.2887  -85.6730 H         5   U6        0.1824
    153 H3         -8.6606  -55.7223  -83.1183 H         5   U6        0.3154
    154 H5        -10.9749  -58.0257  -80.4811 H         5   U6        0.1811
    155 H6        -12.2706  -58.7318  -82.3679 H         5   U6        0.2188
    156 HO2'      -11.0574  -59.3574  -87.5433 H         5   U6        0.4186
    157 P         -10.9930  -62.8070  -85.0640 P.3       6   U7        1.1662
    158 OP1       -11.4570  -64.0960  -85.6340 O.co2     6   U7       -0.7760
    159 OP2       -10.8070  -62.7040  -83.5960 O.co2     6   U7       -0.7760
    160 O5'        -9.6700  -62.3240  -85.8130 O.3       6   U7       -0.4989
    161 C5'        -9.5630  -62.4050  -87.2280 C.3       6   U7        0.0558
    162 C4'        -8.4640  -61.5150  -87.7590 C.3       6   U7        0.1065
    163 O4'        -8.6330  -60.1640  -87.2540 O.3       6   U7       -0.3548
    164 C3'        -7.0460  -61.8750  -87.3470 C.3       6   U7        0.2022
    165 O3'        -6.4980  -62.9470  -88.0910 O.3       6   U7       -0.5246
    166 C2'        -6.3120  -60.5580  -87.5450 C.3       6   U7        0.0670
    167 O2'        -6.0770  -60.3160  -88.9240 O.3       6   U7       -0.6139
    168 C1'        -7.3650  -59.5670  -87.0560 C.3       6   U7        0.0674
    169 N1         -7.2040  -59.2660  -85.6170 N.am      6   U7        0.0418
    170 C2         -6.2060  -58.3690  -85.2630 C.2       6   U7        0.4687
    171 O2         -5.4760  -57.8270  -86.0820 O.2       6   U7       -0.5477
    172 N3         -6.0950  -58.1280  -83.9130 N.am      6   U7       -0.3549
    173 C4         -6.8640  -58.6830  -82.9080 C.2       6   U7        0.5952
    174 O4         -6.6450  -58.3650  -81.7360 O.2       6   U7       -0.5761
    175 C5         -7.8700  -59.6020  -83.3570 C.2       6   U7       -0.3635
    176 C6         -8.0020  -59.8580  -84.6650 C.2       6   U7       -0.1126
    177 H5'        -9.3474  -63.4364  -87.5070 H         6   U7        0.0679
    178 H5''      -10.5111  -62.1057  -87.6748 H         6   U7        0.0679
    179 H4'        -8.5210  -61.4948  -88.8473 H         6   U7        0.1174
    180 H3'        -7.0365  -62.1335  -86.2881 H         6   U7        0.0615
    181 H2'        -5.3955  -60.5065  -86.9572 H         6   U7        0.0972
    182 H1'        -7.2986  -58.6452  -87.6339 H         6   U7        0.1824
    183 H3         -5.3769  -57.4780  -83.6268 H         6   U7        0.3154
    184 H5         -8.5191  -60.0860  -82.6423 H         6   U7        0.1811
    185 H6         -8.7628  -60.5548  -84.9844 H         6   U7        0.2188
    186 HO2'       -5.7621  -59.4168  -89.0417 H         6   U7        0.4186
    187 P          -5.2980  -63.8200  -87.4730 P.3       7   C8        1.1662
    188 OP1        -5.7610  -64.3350  -86.1580 O.co2     7   C8       -0.7760
    189 OP2        -4.8870  -64.7930  -88.5140 O.co2     7   C8       -0.7760
    190 O5'        -4.1470  -62.7410  -87.2580 O.3       7   C8       -0.4989
    191 C5'        -3.3790  -62.2700  -88.3550 C.3       7   C8        0.0558
    192 C4'        -2.2400  -61.3930  -87.9000 C.3       7   C8        0.1065
    193 O4'        -2.7590  -60.2700  -87.1360 O.3       7   C8       -0.3548
    194 C3'        -1.2330  -62.0350  -86.9570 C.3       7   C8        0.2022
    195 O3'        -0.2830  -62.8530  -87.6170 O.3       7   C8       -0.5246
    196 C2'        -0.6250  -60.8250  -86.2670 C.3       7   C8        0.0670
    197 O2'         0.2830  -60.1590  -87.1310 O.3       7   C8       -0.6139
    198 C1'        -1.8590  -59.9440  -86.0940 C.3       7   C8        0.0066
    199 N1         -2.5270  -60.1980  -84.8020 N.am      7   C8       -0.0484
    200 C2         -1.9460  -59.6790  -83.6360 C.2       7   C8        0.7538
    201 O2         -0.9030  -59.0090  -83.7320 O.2       7   C8       -0.6252
    202 N3         -2.5420  -59.9210  -82.4410 N.2       7   C8       -0.7584
    203 C4         -3.6630  -60.6510  -82.3890 C.2       7   C8        0.8185
    204 N4         -4.2230  -60.8700  -81.1950 N.pl3     7   C8       -0.9530
    205 C5         -4.2650  -61.1930  -83.5640 C.2       7   C8       -0.5215
    206 C6         -3.6690  -60.9470  -84.7370 C.2       7   C8        0.0053
    207 H5'        -4.0253  -61.6946  -89.0178 H         7   C8        0.0679
    208 H5''       -2.9764  -63.1230  -88.9012 H         7   C8        0.0679
    209 H4'        -1.7135  -61.0130  -88.7755 H         7   C8        0.1174
    210 H3'        -1.7674  -62.6340  -86.2197 H         7   C8        0.0615
    211 H2'        -0.1681  -61.0837  -85.3118 H         7   C8        0.0972
    212 H1'        -1.5765  -58.8936  -86.1642 H         7   C8        0.2029
    213 H5         -5.1694  -61.7808  -83.5087 H         7   C8        0.1928
    214 H6         -4.0963  -61.3459  -85.6451 H         7   C8        0.1958
    215 H41        -3.8000  -60.4881  -80.3611 H         7   C8        0.4234
    216 H42        -5.0691  -61.4173  -81.1268 H         7   C8        0.4234
    217 HO2'        1.0667  -60.7003  -87.2511 H         7   C8        0.4186
    218 P           0.2800  -64.1770  -86.8970 P.3       8   G9        1.1662
    219 OP1         1.2950  -64.7700  -87.8020 O.co2     8   G9       -0.7760
    220 OP2        -0.8930  -64.9970  -86.5090 O.co2     8   G9       -0.7760
    221 O5'         0.9910  -63.5990  -85.5940 O.3       8   G9       -0.4989
    222 C5'         2.1070  -62.7290  -85.7000 C.3       8   G9        0.0558
    223 C4'         2.4990  -62.1600  -84.3600 C.3       8   G9        0.1065
    224 O4'         1.3990  -61.3950  -83.8050 O.3       8   G9       -0.3548
    225 C3'         2.8170  -63.1700  -83.2730 C.3       8   G9        0.2022
    226 O3'         4.1160  -63.7200  -83.3920 O.3       8   G9       -0.5246
    227 C2'         2.6100  -62.3540  -82.0060 C.3       8   G9        0.0670
    228 O2'         3.7070  -61.4810  -81.7870 O.3       8   G9       -0.6139
    229 C1'         1.3980  -61.5130  -82.3970 C.3       8   G9        0.0191
    230 N9          0.1400  -62.1530  -81.9800 N.ar      8   G9        0.0492
    231 C8         -0.6530  -62.9920  -82.7250 C.ar      8   G9        0.1374
    232 N7         -1.7020  -63.4170  -82.0740 N.ar      8   G9       -0.5709
    233 C5         -1.5890  -62.8250  -80.8200 C.ar      8   G9        0.1744
    234 C6         -2.4330  -62.9140  -79.6790 C.2       8   G9        0.4770
    235 O6         -3.4880  -63.5570  -79.5490 O.2       8   G9       -0.5597
    236 N1         -1.9400  -62.1490  -78.6210 N.am      8   G9       -0.4787
    237 C2         -0.7910  -61.4000  -78.6530 C.2       8   G9        0.7657
    238 N2         -0.4870  -60.7330  -77.5330 N.pl3     8   G9       -0.9672
    239 N3          0.0020  -61.3120  -79.7050 N.2       8   G9       -0.6323
    240 C4         -0.4550  -62.0420  -80.7460 C.ar      8   G9        0.1222
    241 H5'         2.9509  -63.2852  -86.1081 H         8   G9        0.0679
    242 H5''        1.8585  -61.9109  -86.3760 H         8   G9        0.0679
    243 H4'         3.3570  -61.5009  -84.4927 H         8   G9        0.1174
    244 H3'         2.0825  -63.9747  -83.3052 H         8   G9        0.0615
    245 H2'         2.4091  -62.9850  -81.1402 H         8   G9        0.0972
    246 H1'         1.4751  -60.5242  -81.9449 H         8   G9        0.2006
    247 H8         -0.4314  -63.2713  -83.7445 H         8   G9        0.1640
    248 H1         -2.4720  -62.1466  -77.7625 H         8   G9        0.3424
    249 H21        -1.0914  -60.7985  -76.7264 H         8   G9        0.4364
    250 H22         0.3467  -60.1642  -77.4945 H         8   G9        0.4364
    251 HO2'        4.5284  -61.9635  -81.9059 H         8   G9        0.4186
    252 P           4.3420  -65.3020  -83.2240 P.3       9   G10       1.1662
    253 OP1         3.3170  -65.9850  -84.0520 O.co2     9   G10      -0.7760
    254 OP2         4.3880  -65.5840  -81.7670 O.co2     9   G10      -0.7760
    255 O5'         5.7800  -65.5140  -83.8660 O.3       9   G10      -0.4989
    256 C5'         6.9110  -64.8060  -83.3710 C.3       9   G10       0.0558
    257 C4'         8.1580  -65.6450  -83.4420 C.3       9   G10       0.1065
    258 O4'         8.9610  -65.4020  -82.2550 O.3       9   G10      -0.3548
    259 C3'         7.9160  -67.1520  -83.4820 C.3       9   G10       0.2022
    260 O3'         8.9550  -67.7690  -84.2350 O.3       9   G10      -0.5246
    261 C2'         8.0570  -67.5390  -82.0150 C.3       9   G10       0.0670
    262 O2'         8.3610  -68.8990  -81.7880 O.3       9   G10      -0.6139
    263 C1'         9.1940  -66.6250  -81.5900 C.3       9   G10       0.0191
    264 N9          9.2610  -66.3710  -80.1520 N.ar      9   G10       0.0492
    265 C8          8.3060  -66.5800  -79.1870 C.ar      9   G10       0.1374
    266 N7          8.7180  -66.2530  -77.9880 N.ar      9   G10      -0.5709
    267 C5         10.0260  -65.8180  -78.1770 C.ar      9   G10       0.1744
    268 C6         10.9940  -65.3380  -77.2550 C.2       9   G10       0.4770
    269 O6         10.8980  -65.1890  -76.0310 O.2       9   G10      -0.5597
    270 N1         12.1860  -65.0070  -77.8890 N.am      9   G10      -0.4787
    271 C2         12.4260  -65.1210  -79.2330 C.2       9   G10       0.7657
    272 N2         13.6400  -64.7510  -79.6520 N.pl3     9   G10      -0.9672
    273 N3         11.5390  -65.5630  -80.1050 N.2       9   G10      -0.6323
    274 C4         10.3730  -65.8910  -79.5080 C.ar      9   G10       0.1222
    275 H5'         7.0550  -63.9057  -83.9683 H         9   G10       0.0679
    276 H5''        6.7296  -64.5221  -82.3344 H         9   G10       0.0679
    277 H4'         8.7307  -65.3546  -84.3228 H         9   G10       0.1174
    278 H3'         6.9287  -67.3957  -83.8744 H         9   G10       0.0615
    279 H2'         7.1487  -67.2706  -81.4754 H         9   G10       0.0972
    280 H1'        10.1414  -67.0454  -81.9275 H         9   G10       0.2006
    281 H8          7.3213  -66.9719  -79.3949 H         9   G10       0.1640
    282 H1         12.9360  -64.6538  -77.3120 H         9   G10       0.3424
    283 H21        14.3214  -64.4112  -78.9884 H         9   G10       0.4364
    284 H22        13.8760  -64.8112  -80.6322 H         9   G10       0.4364
    285 HO2'        8.2747  -69.3881  -82.6095 H         9   G10       0.4186
    286 P           8.6050  -68.7750  -85.4410 P.3      10   G11       1.1662
    287 OP1         7.6020  -68.1000  -86.3030 O.co2    10   G11      -0.7760
    288 OP2         8.2580  -70.0880  -84.8350 O.co2    10   G11      -0.7760
    289 O5'         9.9960  -68.8790  -86.2120 O.3      10   G11      -0.4989
    290 C5'        10.5820  -67.7330  -86.8150 C.3      10   G11       0.0558
    291 C4'        12.0580  -67.6500  -86.5180 C.3      10   G11       0.1065
    292 O4'        12.2660  -67.0990  -85.1990 O.3      10   G11      -0.3548
    293 C3'        12.8080  -68.9720  -86.5110 C.3      10   G11       0.2022
    294 O3'        13.2210  -69.3480  -87.8110 O.3      10   G11      -0.5246
    295 C2'        13.9760  -68.7160  -85.5630 C.3      10   G11       0.0670
    296 O2'        15.0570  -68.1190  -86.2620 O.3      10   G11      -0.6139
    297 C1'        13.4010  -67.6760  -84.6010 C.3      10   G11       0.0191
    298 N9         13.0040  -68.2350  -83.2930 N.ar     10   G11       0.0492
    299 C8         11.9120  -69.0100  -82.9930 C.ar     10   G11       0.1374
    300 N7         11.8020  -69.2840  -81.7200 N.ar     10   G11      -0.5709
    301 C5         12.8710  -68.6260  -81.1400 C.ar     10   G11       0.1744
    302 C6         13.2780  -68.5490  -79.7850 C.2      10   G11       0.4770
    303 O6         12.7470  -69.0690  -78.7970 O.2      10   G11      -0.5597
    304 N1         14.4260  -67.7770  -79.6300 N.am     10   G11      -0.4787
    305 C2         15.0890  -67.1600  -80.6550 C.2      10   G11       0.7657
    306 N2         16.1740  -66.4560  -80.3190 N.pl3    10   G11      -0.9672
    307 N3         14.7190  -67.2200  -81.9200 N.2      10   G11      -0.6323
    308 C4         13.6100  -67.9650  -82.0910 C.ar     10   G11       0.1222
    309 H5'        10.0918  -66.8393  -86.4289 H        10   G11       0.0679
    310 H5''       10.4366  -67.7828  -87.8941 H        10   G11       0.0679
    311 H4'        12.5238  -66.9891  -87.2490 H        10   G11       0.1174
    312 H3'        12.1675  -69.7498  -86.0951 H        10   G11       0.0615
    313 H2'        14.2819  -69.6237  -85.0427 H        10   G11       0.0972
    314 H1'        14.1465  -66.8976  -84.4386 H        10   G11       0.2006
    315 H8         11.2114  -69.3596  -83.7369 H        10   G11       0.1640
    316 H1         14.7947  -67.6648  -78.6964 H        10   G11       0.3424
    317 H21        16.4628  -66.4038  -79.3526 H        10   G11       0.4364
    318 H22        16.7052  -65.9761  -81.0315 H        10   G11       0.4364
    319 HO2'       15.7202  -68.7854  -86.4561 H        10   G11       0.4186
    320 P          13.1490  -70.8780  -88.2820 P.3      11   G12       1.1662
    321 OP1        12.9610  -70.8690  -89.7550 O.co2    11   G12      -0.7760
    322 OP2        12.1290  -71.5530  -87.4370 O.co2    11   G12      -0.7760
    323 O5'        14.6030  -71.4230  -87.9220 O.3      11   G12      -0.4989
    324 C5'        15.7680  -70.6970  -88.2860 C.3      11   G12       0.0558
    325 C4'        16.9410  -71.0820  -87.4230 C.3      11   G12       0.1065
    326 O4'        16.7200  -70.6180  -86.0730 O.3      11   G12      -0.3548
    327 C3'        17.1930  -72.5750  -87.2890 C.3      11   G12       0.2022
    328 O3'        18.0040  -73.0670  -88.3340 O.3      11   G12      -0.5246
    329 C2'        17.8380  -72.7150  -85.9160 C.3      11   G12       0.0670
    330 O2'        19.2390  -72.5140  -86.0070 O.3      11   G12      -0.6139
    331 C1'        17.2270  -71.5430  -85.1430 C.3      11   G12       0.0191
    332 N9         16.1230  -71.9450  -84.2510 N.ar     11   G12       0.0492
    333 C8         14.9960  -72.6770  -84.5370 C.ar     11   G12       0.1374
    334 N7         14.1920  -72.8100  -83.5110 N.ar     11   G12      -0.5709
    335 C5         14.8150  -72.1010  -82.4910 C.ar     11   G12       0.1744
    336 C6         14.4230  -71.8760  -81.1420 C.2      11   G12       0.4770
    337 O6         13.4110  -72.2650  -80.5400 O.2      11   G12      -0.5597
    338 N1         15.3630  -71.1080  -80.4650 N.am     11   G12      -0.4787
    339 C2         16.5210  -70.6130  -81.0080 C.2      11   G12       0.7657
    340 N2         17.2900  -69.8800  -80.1890 N.pl3    11   G12      -0.9672
    341 N3         16.8960  -70.8100  -82.2590 N.2      11   G12      -0.6323
    342 C4         16.0010  -71.5560  -82.9370 C.ar     11   G12       0.1222
    343 H5'        16.0082  -70.9094  -89.3278 H        11   G12       0.0679
    344 H5''       15.5751  -69.6302  -88.1732 H        11   G12       0.0679
    345 H4'        17.8394  -70.6067  -87.8166 H        11   G12       0.1174
    346 H3'        16.2394  -73.1030  -87.2943 H        11   G12       0.0615
    347 H2'        17.5974  -73.6722  -85.4534 H        11   G12       0.0972
    348 H1'        18.0059  -71.0622  -84.5511 H        11   G12       0.2006
    349 H8         14.7932  -73.1002  -85.5097 H        11   G12       0.1640
    350 H1         15.1783  -70.8974  -79.4946 H        11   G12       0.3424
    351 H21        17.0044  -69.7246  -79.2328 H        11   G12       0.4364
    352 H22        18.1547  -69.4835  -80.5286 H        11   G12       0.4364
    353 HO2'       19.5067  -71.8358  -85.3825 H        11   G12       0.4186
    354 P          17.9350  -74.6100  -88.7570 P.3      12   C13       1.1662
    355 OP1        18.4970  -74.7110  -90.1290 O.co2    12   C13      -0.7760
    356 OP2        16.5360  -75.0730  -88.5130 O.co2    12   C13      -0.7760
    357 O5'        18.9220  -75.3040  -87.7240 O.3      12   C13      -0.4989
    358 C5'        19.1420  -76.7020  -87.7670 C.3      12   C13       0.0558
    359 C4'        20.5920  -77.0340  -87.5540 C.3      12   C13       0.1065
    360 O4'        20.9790  -76.6760  -86.2180 O.3      12   C13      -0.3548
    361 C3'        20.9630  -78.4990  -87.7010 C.3      12   C13       0.2022
    362 O3'        21.2860  -78.8140  -89.0450 O.3      12   C13      -0.5246
    363 C2'        22.1400  -78.6980  -86.7280 C.3      12   C13       0.0670
    364 O2'        23.3810  -78.6300  -87.4120 O.3      12   C13      -0.6139
    365 C1'        22.0360  -77.4890  -85.7920 C.3      12   C13       0.0066
    366 N1         21.8200  -77.8450  -84.3740 N.am     12   C13      -0.0484
    367 C2         22.9250  -78.1590  -83.5870 C.2      12   C13       0.7538
    368 O2         24.0410  -78.2060  -84.1210 O.2      12   C13      -0.6252
    369 N3         22.7460  -78.4370  -82.2760 N.2      12   C13      -0.7584
    370 C4         21.5260  -78.3760  -81.7420 C.2      12   C13       0.8185
    371 N4         21.3900  -78.6540  -80.4420 N.pl3    12   C13      -0.9530
    372 C5         20.3860  -78.0290  -82.5180 C.2      12   C13      -0.5215
    373 C6         20.5800  -77.7580  -83.8130 C.2      12   C13       0.0053
    374 H5'        18.5504  -77.1785  -86.9853 H        12   C13       0.0679
    375 H5''       18.8263  -77.0842  -88.7378 H        12   C13       0.0679
    376 H4'        21.1887  -76.4521  -88.2565 H        12   C13       0.1174
    377 H3'        20.1236  -79.1157  -87.3797 H        12   C13       0.0615
    378 H2'        22.0433  -79.6336  -86.1771 H        12   C13       0.0972
    379 H1'        22.9608  -76.9169  -85.8656 H        12   C13       0.2029
    380 H5         19.4006  -77.9860  -82.0780 H        12   C13       0.1928
    381 H6         19.7400  -77.4651  -84.4254 H        12   C13       0.1958
    382 H41        22.1996  -78.9014  -79.8911 H        12   C13       0.4234
    383 H42        20.4776  -78.6168  -80.0104 H        12   C13       0.4234
    384 HO2'       23.6542  -79.5141  -87.6674 H        12   C13       0.4186
    385 P          20.9350  -80.2450  -89.6720 P.3      13   A14       1.1662
    386 OP1        19.4760  -80.4470  -89.5280 O.co2    13   A14      -0.7760
    387 OP2        21.8490  -81.2190  -89.0570 O.co2    13   A14      -0.7760
    388 O5'        21.3070  -80.0520  -91.2070 O.3      13   A14      -0.4989
    389 C5'        20.7500  -78.9860  -91.9590 C.3      13   A14       0.0558
    390 C4'        21.7320  -78.4400  -92.9660 C.3      13   A14       0.1065
    391 O4'        22.4480  -77.3100  -92.4060 O.3      13   A14      -0.3548
    392 C3'        22.8410  -79.3780  -93.4040 C.3      13   A14       0.2022
    393 O3'        22.4150  -80.3450  -94.3450 O.3      13   A14      -0.5246
    394 C2'        23.8830  -78.4090  -93.9490 C.3      13   A14       0.0670
    395 O2'        23.5140  -77.9500  -95.2400 O.3      13   A14      -0.6139
    396 C1'        23.7450  -77.2440  -92.9700 C.3      13   A14       0.0394
    397 N9         24.7420  -77.3150  -91.8880 N.ar     13   A14      -0.0251
    398 C8         24.5560  -77.5640  -90.5540 C.ar     13   A14       0.2006
    399 N7         25.6710  -77.5480  -89.8550 N.ar     13   A14      -0.6073
    400 C5         26.6560  -77.2680  -90.7940 C.ar     13   A14       0.0515
    401 C6         28.0550  -77.1160  -90.7000 C.ar     13   A14       0.7009
    402 N6         28.7340  -77.2330  -89.5570 N.pl3    13   A14      -0.9019
    403 N1         28.7490  -76.8390  -91.8280 N.ar     13   A14      -0.7615
    404 C2         28.0630  -76.7240  -92.9720 C.ar     13   A14       0.5875
    405 N3         26.7490  -76.8410  -93.1910 N.ar     13   A14      -0.6997
    406 C4         26.0930  -77.1190  -92.0480 C.ar     13   A14       0.3053
    407 H5'        20.4619  -78.1858  -91.2772 H        13   A14       0.0679
    408 H5''       19.8639  -79.3442  -92.4831 H        13   A14       0.0679
    409 H4'        21.1838  -78.1074  -93.8475 H        13   A14       0.1174
    410 H3'        23.2472  -79.8851  -92.5288 H        13   A14       0.0615
    411 H2'        24.8855  -78.8368  -93.9376 H        13   A14       0.0972
    412 H1'        23.8594  -76.3027  -93.5076 H        13   A14       0.2007
    413 H8         23.5868  -77.7552  -90.1174 H        13   A14       0.1553
    414 H2         28.6581  -76.5046  -93.8461 H        13   A14       0.0473
    415 H61        29.7017  -76.9452  -89.5271 H        13   A14       0.4115
    416 H62        28.7121  -77.3965  -88.5606 H        13   A14       0.4115
    417 HO2'       23.5942  -78.6692  -95.8708 H        13   A14       0.4186
    418 P          23.0560  -81.8160  -94.3310 P.3      14   G15       1.1662
    419 OP1        22.7430  -82.4390  -95.6420 O.co2    14   G15      -0.7760
    420 OP2        22.5870  -82.4880  -93.0900 O.co2    14   G15      -0.7760
    421 O5'        24.6170  -81.5200  -94.2290 O.3      14   G15      -0.4989
    422 C5'        25.3500  -81.0910  -95.3680 C.3      14   G15       0.0558
    423 C4'        26.8340  -81.0770  -95.1030 C.3      14   G15       0.1065
    424 O4'        27.1560  -80.0300  -94.1520 O.3      14   G15      -0.3548
    425 C3'        27.4090  -82.3280  -94.4670 C.3      14   G15       0.2022
    426 O3'        27.6140  -83.3780  -95.3930 O.3      14   G15      -0.5246
    427 C2'        28.6890  -81.8090  -93.8320 C.3      14   G15       0.0670
    428 O2'        29.6890  -81.6010  -94.8160 O.3      14   G15      -0.6139
    429 C1'        28.2250  -80.4460  -93.3270 C.3      14   G15       0.0191
    430 N9         27.7430  -80.5160  -91.9360 N.ar     14   G15       0.0492
    431 C8         26.4470  -80.6240  -91.4980 C.ar     14   G15       0.1374
    432 N7         26.3510  -80.6710  -90.1960 N.ar     14   G15      -0.5709
    433 C5         27.6630  -80.5950  -89.7540 C.ar     14   G15       0.1744
    434 C6         28.1960  -80.6000  -88.4400 C.2      14   G15       0.4770
    435 O6         27.5900  -80.6770  -87.3610 O.2      14   G15      -0.5597
    436 N1         29.5860  -80.5030  -88.4540 N.am     14   G15      -0.4787
    437 C2         30.3600  -80.4110  -89.5830 C.2      14   G15       0.7657
    438 N2         31.6810  -80.3240  -89.3930 N.pl3    14   G15      -0.9672
    439 N3         29.8770  -80.4060  -90.8090 N.2      14   G15      -0.6323
    440 C4         28.5330  -80.4990  -90.8170 C.ar     14   G15       0.1222
    441 H5'        25.1455  -81.7699  -96.1958 H        14   G15       0.0679
    442 H5''       25.0272  -80.0867  -95.6423 H        14   G15       0.0679
    443 H4'        27.3593  -80.8809  -96.0377 H        14   G15       0.1174
    444 H3'        26.7351  -82.6711  -93.6820 H        14   G15       0.0615
    445 H2'        29.0360  -82.4511  -93.0224 H        14   G15       0.0972
    446 H1'        29.0437  -79.7298  -93.3969 H        14   G15       0.2006
    447 H8         25.5952  -80.6658  -92.1606 H        14   G15       0.1640
    448 H1         30.0611  -80.5002  -87.5627 H        14   G15       0.3424
    449 H21        32.0578  -80.3278  -88.4559 H        14   G15       0.4364
    450 H22        32.3018  -80.2545  -90.1866 H        14   G15       0.4364
    451 HO2'       29.9944  -82.4489  -95.1468 H        14   G15       0.4186
    452 P          27.7590  -84.8910  -94.8710 P.3      15   G16       1.1662
    453 OP1        28.0300  -85.7390  -96.0610 O.co2    15   G16      -0.7760
    454 OP2        26.5630  -85.1860  -94.0390 O.co2    15   G16      -0.7760
    455 O5'        29.0510  -84.8160  -93.9500 O.3      15   G16      -0.4989
    456 C5'        29.1640  -85.6220  -92.7900 C.3      15   G16       0.0558
    457 C4'        30.3750  -85.2480  -91.9760 C.3      15   G16       0.1065
    458 O4'        30.1580  -83.9640  -91.3320 O.3      15   G16      -0.3548
    459 C3'        30.7180  -86.1860  -90.8310 C.3      15   G16       0.2022
    460 O3'        31.4440  -87.3260  -91.2520 O.3      15   G16      -0.5246
    461 C2'        31.4930  -85.2800  -89.8870 C.3      15   G16       0.0670
    462 O2'        32.8130  -85.0700  -90.3630 O.3      15   G16      -0.6139
    463 C1'        30.7170  -83.9760  -90.0360 C.3      15   G16       0.0191
    464 N9         29.6220  -83.8870  -89.0550 N.ar     15   G16       0.0492
    465 C8         28.2690  -83.8530  -89.2920 C.ar     15   G16       0.1374
    466 N7         27.5680  -83.7850  -88.1930 N.ar     15   G16      -0.5709
    467 C5         28.5160  -83.7820  -87.1780 C.ar     15   G16       0.1744
    468 C6         28.3620  -83.7250  -85.7710 C.2      15   G16       0.4770
    469 O6         27.3150  -83.6610  -85.1150 O.2      15   G16      -0.5597
    470 N1         29.5930  -83.7440  -85.1200 N.am     15   G16      -0.4787
    471 C2         30.8170  -83.8060  -85.7380 C.2      15   G16       0.7657
    472 N2         31.8950  -83.8150  -84.9410 N.pl3    15   G16      -0.9672
    473 N3         30.9720  -83.8610  -87.0480 N.2      15   G16      -0.6323
    474 C4         29.7880  -83.8450  -87.6950 C.ar     15   G16       0.1222
    475 H5'        28.2714  -85.4901  -92.1785 H        15   G16       0.0679
    476 H5''       29.2422  -86.6677  -93.0875 H        15   G16       0.0679
    477 H4'        31.2365  -85.1698  -92.6392 H        15   G16       0.1174
    478 H3'        29.7976  -86.5075  -90.3436 H        15   G16       0.0615
    479 H2'        31.4808  -85.6496  -88.8616 H        15   G16       0.0972
    480 H1'        31.3914  -83.1281  -89.9159 H        15   G16       0.2006
    481 H8         27.8331  -83.8796  -90.2798 H        15   G16       0.1640
    482 H1         29.5844  -83.7093  -84.1106 H        15   G16       0.3424
    483 H21        31.7819  -83.7751  -83.9381 H        15   G16       0.4364
    484 H22        32.8202  -83.8617  -85.3434 H        15   G16       0.4364
    485 HO2'       33.2323  -84.3766  -89.8482 H        15   G16       0.4186
    486 P          31.2980  -88.7190  -90.4640 P.3      16   G17       1.1662
    487 OP1        32.1130  -89.7180  -91.1990 O.co2    16   G17      -0.7760
    488 OP2        29.8500  -88.9780  -90.2900 O.co2    16   G17      -0.7760
    489 O5'        31.9700  -88.4010  -89.0520 O.3      16   G17      -0.4989
    490 C5'        33.3430  -88.0350  -88.9630 C.3      16   G17       0.0558
    491 C4'        33.8430  -88.0880  -87.5400 C.3      16   G17       0.1065
    492 O4'        33.3160  -86.9650  -86.7870 O.3      16   G17      -0.3548
    493 C3'        33.4280  -89.3080  -86.7330 C.3      16   G17       0.2022
    494 O3'        34.2460  -90.4360  -86.9810 O.3      16   G17      -0.5246
    495 C2'        33.5030  -88.8050  -85.2980 C.3      16   G17       0.0670
    496 O2'        34.8450  -88.7980  -84.8350 O.3      16   G17      -0.6139
    497 C1'        33.0390  -87.3590  -85.4610 C.3      16   G17       0.0191
    498 N9         31.5930  -87.2170  -85.2280 N.ar     16   G17       0.0492
    499 C8         30.6140  -87.1290  -86.1870 C.ar     16   G17       0.1374
    500 N7         29.4140  -87.0010  -85.6850 N.ar     16   G17      -0.5709
    501 C5         29.6200  -87.0060  -84.3120 C.ar     16   G17       0.1744
    502 C6         28.6910  -86.9000  -83.2480 C.2      16   G17       0.4770
    503 O6         27.4590  -86.7790  -83.3140 O.2      16   G17      -0.5597
    504 N1         29.3240  -86.9500  -82.0110 N.am     16   G17      -0.4787
    505 C2         30.6740  -87.0830  -81.8170 C.2      16   G17       0.7657
    506 N2         31.0880  -87.1080  -80.5410 N.pl3    16   G17      -0.9672
    507 N3         31.5520  -87.1840  -82.8020 N.2      16   G17      -0.6323
    508 C4         30.9590  -87.1370  -84.0130 C.ar     16   G17       0.1222
    509 H5'        33.9319  -88.7225  -89.5702 H        16   G17       0.0679
    510 H5''       33.4680  -87.0228  -89.3475 H        16   G17       0.0679
    511 H4'        34.9312  -88.0258  -87.5477 H        16   G17       0.1174
    512 H3'        32.3939  -89.5579  -86.9701 H        16   G17       0.0615
    513 H2'        32.8475  -89.3696  -84.6349 H        16   G17       0.0972
    514 H1'        33.5855  -86.7194  -84.7679 H        16   G17       0.2006
    515 H8         30.8151  -87.1622  -87.2476 H        16   G17       0.1640
    516 H1         28.7415  -86.8828  -81.1887 H        16   G17       0.3424
    517 H21        30.4164  -87.0308  -79.7906 H        16   G17       0.4364
    518 H22        32.0712  -87.2040  -80.3309 H        16   G17       0.4364
    519 HO2'       34.8901  -88.3421  -83.9913 H        16   G17       0.4186
    520 P          33.6410  -91.9160  -86.8470 P.3      17   U18       1.1662
    521 OP1        32.3600  -91.9320  -87.5950 O.co2    17   U18      -0.7760
    522 OP2        34.7140  -92.8630  -87.2450 O.co2    17   U18      -0.7760
    523 O5'        33.3580  -92.0450  -85.2840 O.3      17   U18      -0.4989
    524 C5'        34.4290  -92.1280  -84.3560 C.3      17   U18       0.0558
    525 C4'        33.9250  -92.2710  -82.9420 C.3      17   U18       0.1065
    526 O4'        33.2120  -91.0690  -82.5510 O.3      17   U18      -0.3548
    527 C3'        32.9200  -93.3880  -82.7010 C.3      17   U18       0.2022
    528 O3'        33.5240  -94.6640  -82.5640 O.3      17   U18      -0.5246
    529 C2'        32.1940  -92.9140  -81.4470 C.3      17   U18       0.0670
    530 O2'        32.9730  -93.1660  -80.2870 O.3      17   U18      -0.6139
    531 C1'        32.1500  -91.4030  -81.6790 C.3      17   U18       0.0674
    532 N1         30.8750  -90.9770  -82.2950 N.am     17   U18       0.0418
    533 C2         29.8080  -90.7540  -81.4470 C.2      17   U18       0.4687
    534 O2         29.8910  -90.8930  -80.2430 O.2      17   U18      -0.5477
    535 N3         28.6380  -90.3660  -82.0470 N.am     17   U18      -0.3549
    536 C4         28.4350  -90.1770  -83.3990 C.2      17   U18       0.5952
    537 O4         27.3240  -89.8190  -83.8070 O.2      17   U18      -0.5761
    538 C5         29.5890  -90.4270  -84.2110 C.2      17   U18      -0.3635
    539 C6         30.7410  -90.8110  -83.6500 C.2      17   U18      -0.1126
    540 H5'        35.0443  -92.9935  -84.6018 H        17   U18       0.0679
    541 H5''       35.0361  -91.2257  -84.4294 H        17   U18       0.0679
    542 H4'        34.7760  -92.4105  -82.2753 H        17   U18       0.1174
    543 H3'        32.2141  -93.4162  -83.5311 H        17   U18       0.0615
    544 H2'        31.1952  -93.3431  -81.3679 H        17   U18       0.0972
    545 H1'        32.2845  -90.8860  -80.7289 H        17   U18       0.1824
    546 H3         27.8473  -90.2025  -81.4403 H        17   U18       0.3154
    547 H5         29.5282  -90.3046  -85.2823 H        17   U18       0.1811
    548 H6         31.5944  -90.9966  -84.2853 H        17   U18       0.2188
    549 HO2'       33.0114  -94.1116  -80.1260 H        17   U18       0.4186
    550 P          32.9410  -95.9260  -83.3720 P.3      18   G19       1.1662
    551 OP1        32.6310  -95.4600  -84.7440 O.co2    18   G19      -0.7760
    552 OP2        33.9060  -97.0380  -83.2000 O.co2    18   G19      -0.7760
    553 O5'        31.5900  -96.2570  -82.5960 O.3      18   G19      -0.4989
    554 C5'        31.6130  -96.6630  -81.2370 C.3      18   G19       0.0558
    555 C4'        30.2660  -96.4900  -80.5830 C.3      18   G19       0.1065
    556 O4'        29.8560  -95.0970  -80.6510 O.3      18   G19      -0.3548
    557 C3'        29.1090  -97.2380  -81.2250 C.3      18   G19       0.2022
    558 O3'        29.0630  -98.6070  -80.8700 O.3      18   G19      -0.5246
    559 C2'        27.9030  -96.4410  -80.7480 C.3      18   G19       0.0670
    560 O2'        27.5990  -96.7460  -79.3930 O.3      18   G19      -0.6139
    561 C1'        28.4530  -95.0180  -80.8100 C.3      18   G19       0.0191
    562 N9         28.1610  -94.3820  -82.1080 N.ar     18   G19       0.0492
    563 C8         28.9140  -94.3980  -83.2570 C.ar     18   G19       0.1374
    564 N7         28.3580  -93.7450  -84.2430 N.ar     18   G19      -0.5709
    565 C5         27.1630  -93.2780  -83.7120 C.ar     18   G19       0.1744
    566 C6         26.1290  -92.5050  -84.2990 C.2      18   G19       0.4770
    567 O6         26.0570  -92.0580  -85.4520 O.2      18   G19      -0.5597
    568 N1         25.1030  -92.2580  -83.3940 N.am     18   G19      -0.4787
    569 C2         25.0700  -92.7020  -82.0920 C.2      18   G19       0.7657
    570 N2         23.9920  -92.3660  -81.3640 N.pl3    18   G19      -0.9672
    571 N3         26.0260  -93.4240  -81.5370 N.2      18   G19      -0.6323
    572 C4         27.0310  -93.6670  -82.3980 C.ar     18   G19       0.1222
    573 H5'        31.8981  -97.7139  -81.1867 H        18   G19       0.0679
    574 H5''       32.3502  -96.0671  -80.6989 H        18   G19       0.0679
    575 H4'        30.3407  -96.7857  -79.5365 H        18   G19       0.1174
    576 H3'        29.1868  -97.1529  -82.3089 H        18   G19       0.0615
    577 H2'        27.0403  -96.5748  -81.4007 H        18   G19       0.0972
    578 H1'        28.0244  -94.4225  -80.0039 H        18   G19       0.2006
    579 H8         29.8675  -94.8988  -83.3371 H        18   G19       0.1640
    580 H1         24.3196  -91.7090  -83.7179 H        18   G19       0.3424
    581 H21        23.2551  -91.8134  -81.7783 H        18   G19       0.4364
    582 H22        23.9185  -92.6660  -80.4024 H        18   G19       0.4364
    583 HO2'       26.8545  -96.2133  -79.1039 H        18   G19       0.4186
    584 P          28.6190  -99.7050  -81.9560 P.3      19   A20       1.1662
    585 OP1        28.2350 -100.9280  -81.2090 O.co2    19   A20      -0.7760
    586 OP2        29.7090  -99.7910  -82.9570 O.co2    19   A20      -0.7760
    587 O5'        27.3270  -99.0520  -82.6170 O.3      19   A20      -0.4989
    588 C5'        26.5850  -99.7520  -83.6030 C.3      19   A20       0.0558
    589 C4'        25.1330  -99.8750  -83.2170 C.3      19   A20       0.1065
    590 O4'        25.0150 -100.6340  -81.9900 O.3      19   A20      -0.3548
    591 C3'        24.4130  -98.5710  -82.9190 C.3      19   A20       0.2022
    592 O3'        23.9750  -97.9130  -84.0920 O.3      19   A20      -0.5246
    593 C2'        23.2740  -99.0050  -82.0010 C.3      19   A20       0.0670
    594 O2'        22.1730  -99.4920  -82.7560 O.3      19   A20      -0.6139
    595 C1'        23.9060 -100.1780  -81.2460 C.3      19   A20       0.0394
    596 N9         24.3680  -99.7970  -79.9000 N.ar     19   A20      -0.0251
    597 C8         25.6570  -99.7370  -79.4260 C.ar     19   A20       0.2006
    598 N7         25.7370  -99.3740  -78.1660 N.ar     19   A20      -0.6073
    599 C5         24.4120  -99.1940  -77.7880 C.ar     19   A20       0.0515
    600 C6         23.8170  -98.8080  -76.5720 C.ar     19   A20       0.7009
    601 N6         24.5100  -98.5220  -75.4660 N.pl3    19   A20      -0.9019
    602 N1         22.4660  -98.7200  -76.5340 N.ar     19   A20      -0.7615
    603 C2         21.7740  -99.0050  -77.6490 C.ar     19   A20       0.5875
    604 N3         22.2150  -99.3790  -78.8500 N.ar     19   A20      -0.6997
    605 C4         23.5580  -99.4560  -78.8480 C.ar     19   A20       0.3053
    606 H5'        26.6558  -99.2136  -84.5481 H        19   A20       0.0679
    607 H5''       27.0074 -100.7491  -83.7272 H        19   A20       0.0679
    608 H4'        24.5999 -100.3998  -84.0098 H        19   A20       0.1174
    609 H3'        25.0833  -97.9109  -82.3686 H        19   A20       0.0615
    610 H2'        22.9753  -98.2046  -81.3240 H        19   A20       0.0972
    611 H1'        23.1766 -100.9834  -81.1599 H        19   A20       0.2007
    612 H8         26.5213  -99.9664  -80.0316 H        19   A20       0.1553
    613 H2         20.7012  -98.9183  -77.5594 H        19   A20       0.0473
    614 H61        25.5184  -98.5793  -75.4729 H        19   A20       0.4115
    615 H62        24.0255  -98.2485  -74.6230 H        19   A20       0.4115
    616 HO2'       21.7668  -98.7660  -83.2351 H        19   A20       0.4186
    617 P          24.3930  -96.3910  -84.3620 P.3      20   A21       1.1662
    618 OP1        24.1360  -96.1150  -85.7970 O.co2    20   A21      -0.7760
    619 OP2        25.7700  -96.2170  -83.8370 O.co2    20   A21      -0.7760
    620 O5'        23.3590  -95.5870  -83.4630 O.3      20   A21      -0.4989
    621 C5'        21.9690  -95.6270  -83.7450 C.3      20   A21       0.0558
    622 C4'        21.1500  -95.3700  -82.5090 C.3      20   A21       0.1065
    623 O4'        21.5820  -96.2570  -81.4510 O.3      20   A21      -0.3548
    624 C3'        21.2740  -93.9790  -81.9040 C.3      20   A21       0.2022
    625 O3'        20.4530  -93.0210  -82.5530 O.3      20   A21      -0.5246
    626 C2'        20.9000  -94.2120  -80.4440 C.3      20   A21       0.0670
    627 O2'        19.4890  -94.2550  -80.2880 O.3      20   A21      -0.6139
    628 C1'        21.4550  -95.6170  -80.2020 C.3      20   A21       0.0394
    629 N9         22.7750  -95.5980  -79.5480 N.ar     20   A21      -0.0251
    630 C8         24.0230  -95.7500  -80.1060 C.ar     20   A21       0.2006
    631 N7         25.0100  -95.7000  -79.2340 N.ar     20   A21      -0.6073
    632 C5         24.3620  -95.5070  -78.0220 C.ar     20   A21       0.0515
    633 C6         24.8310  -95.3690  -76.7030 C.ar     20   A21       0.7009
    634 N6         26.1210  -95.4020  -76.3500 N.pl3    20   A21      -0.9019
    635 N1         23.9090  -95.1890  -75.7300 N.ar     20   A21      -0.7615
    636 C2         22.6120  -95.1550  -76.0610 C.ar     20   A21       0.5875
    637 N3         22.0480  -95.2770  -77.2580 N.ar     20   A21      -0.6997
    638 C4         22.9880  -95.4510  -78.2020 C.ar     20   A21       0.3053
    639 H5'        21.7362  -94.8653  -84.4891 H        20   A21       0.0679
    640 H5''       21.7135  -96.6080  -84.1456 H        20   A21       0.0679
    641 H4'        20.1014  -95.5677  -82.7312 H        20   A21       0.1174
    642 H3'        22.3135  -93.6559  -81.9599 H        20   A21       0.0615
    643 H2'        21.3590  -93.4752  -79.7848 H        20   A21       0.0972
    644 H1'        20.7554  -96.1770  -79.5815 H        20   A21       0.2007
    645 H8         24.1801  -95.8972  -81.1643 H        20   A21       0.1553
    646 H2         21.9274  -95.0076  -75.2388 H        20   A21       0.0473
    647 H61        26.8338  -95.5342  -77.0533 H        20   A21       0.4115
    648 H62        26.3821  -95.2948  -75.3802 H        20   A21       0.4115
    649 HO2'       19.1233  -93.3799  -80.4366 H        20   A21       0.4186
    650 P          21.1030  -91.7370  -83.2670 P.3      21   A22       1.1662
    651 OP1        20.0270  -91.0820  -84.0450 O.co2    21   A22      -0.7760
    652 OP2        22.3160  -92.1960  -83.9820 O.co2    21   A22      -0.7760
    653 O5'        21.5200  -90.8190  -82.0360 O.3      21   A22      -0.4989
    654 C5'        20.5380  -90.2690  -81.1690 C.3      21   A22       0.0558
    655 C4'        21.0940  -89.1190  -80.3670 C.3      21   A22       0.1065
    656 O4'        22.2260  -89.5680  -79.5940 O.3      21   A22      -0.3548
    657 C3'        21.6170  -87.9360  -81.1750 C.3      21   A22       0.2022
    658 O3'        20.6000  -86.9870  -81.4630 O.3      21   A22      -0.5246
    659 C2'        22.7560  -87.3560  -80.3180 C.3      21   A22       0.0670
    660 O2'        22.3180  -86.2200  -79.5880 O.3      21   A22      -0.6139
    661 C1'        23.0760  -88.4870  -79.3300 C.3      21   A22       0.0394
    662 N9         24.4770  -88.9380  -79.4000 N.ar     21   A22      -0.0251
    663 C8         25.2210  -89.4290  -80.4420 C.ar     21   A22       0.2006
    664 N7         26.4600  -89.7240  -80.1060 N.ar     21   A22      -0.6073
    665 C5         26.5280  -89.4060  -78.7540 C.ar     21   A22       0.0515
    666 C6         27.5580  -89.4840  -77.7930 C.ar     21   A22       0.7009
    667 N6         28.7950  -89.9280  -78.0370 N.pl3    21   A22      -0.9019
    668 N1         27.2690  -89.0790  -76.5350 N.ar     21   A22      -0.7615
    669 C2         26.0350  -88.6320  -76.2660 C.ar     21   A22       0.5875
    670 N3         24.9900  -88.5180  -77.0770 N.ar     21   A22      -0.6997
    671 C4         25.3100  -88.9250  -78.3150 C.ar     21   A22       0.3053
    672 H5'        20.1945  -91.0450  -80.4849 H        21   A22       0.0679
    673 H5''       19.6944  -89.9163  -81.7623 H        21   A22       0.0679
    674 H4'        20.3226  -88.7630  -79.6841 H        21   A22       0.1174
    675 H3'        22.0326  -88.3045  -82.1129 H        21   A22       0.0615
    676 H2'        23.6240  -87.1156  -80.9319 H        21   A22       0.0972
    677 H1'        22.8777  -88.1299  -78.3194 H        21   A22       0.2007
    678 H8         24.8296  -89.5609  -81.4399 H        21   A22       0.1553
    679 H2         25.8666  -88.3205  -75.2457 H        21   A22       0.0473
    680 HO2'       22.1375  -85.4988  -80.1954 H        21   A22       0.4186
    681 H61        28.7717  -90.3955  -78.9320 H        21   A22       0.4115
    682 H62        29.6012  -89.8169  -77.4389 H        21   A22       0.4115
    683 P          19.6170  -87.1910  -82.7180 P.3      22   U23       1.1662
    684 OP1        18.2370  -87.2810  -82.1860 O.co2    22   U23      -0.7760
    685 OP2        20.1480  -88.3190  -83.5110 O.co2    22   U23      -0.7760
    686 O5'        19.8010  -85.8310  -83.5250 O.3      22   U23      -0.4989
    687 C5'        21.0470  -85.5150  -84.1390 C.3      22   U23       0.0558
    688 C4'        21.3740  -84.0460  -84.0270 C.3      22   U23       0.1065
    689 O4'        20.6010  -83.3100  -85.0160 O.3      22   U23      -0.3548
    690 C3'        21.0680  -83.4130  -82.6680 C.3      22   U23       0.2022
    691 O3'        22.1020  -82.4980  -82.3100 O.3      22   U23      -0.5246
    692 C2'        19.7690  -82.6540  -82.9140 C.3      22   U23       0.0670
    693 O2'        19.5950  -81.5150  -82.1020 O.3      22   U23      -0.6139
    694 C1'        19.8710  -82.2770  -84.3910 C.3      22   U23       0.0674
    695 N1         18.5560  -82.1790  -85.0520 N.am     22   U23       0.0418
    696 C2         18.1640  -80.9740  -85.6050 C.2      22   U23       0.4687
    697 O2         18.8740  -79.9870  -85.6140 O.2      22   U23      -0.5477
    698 N3         16.9110  -80.9690  -86.1650 N.am     22   U23      -0.3549
    699 C4         16.0270  -82.0320  -86.2110 C.2      22   U23       0.5952
    700 O4         14.9300  -81.8740  -86.7520 O.2      22   U23      -0.5761
    701 C5         16.4990  -83.2420  -85.6030 C.2      22   U23      -0.3635
    702 C6         17.7150  -83.2680  -85.0490 C.2      22   U23      -0.1126
    703 H5'        21.8352  -86.0893  -83.6521 H        22   U23       0.0679
    704 H5''       21.0047  -85.7909  -85.1927 H        22   U23       0.0679
    705 H4'        22.4336  -83.9090  -84.2428 H        22   U23       0.1174
    706 H3'        20.9369  -84.1761  -81.9008 H        22   U23       0.0615
    707 H2'        18.9252  -83.3293  -82.7724 H        22   U23       0.0972
    708 H1'        20.4064  -81.3332  -84.4941 H        22   U23       0.1824
    709 H3         16.6039  -80.1034  -86.5852 H        22   U23       0.3154
    710 H5         15.8770  -84.1249  -85.5929 H        22   U23       0.1811
    711 H6         18.0512  -84.1809  -84.5799 H        22   U23       0.2188
    712 HO2'       19.5344  -81.7834  -81.1823 H        22   U23       0.4186
    713 P          23.3260  -82.9940  -81.3930 P.3      23   U24       1.1662
    714 OP1        23.6730  -84.3630  -81.8440 O.co2    23   U24      -0.7760
    715 OP2        24.3680  -81.9400  -81.4400 O.co2    23   U24      -0.7760
    716 O5'        22.6840  -83.0550  -79.9360 O.3      23   U24      -0.4989
    717 C5'        22.0760  -81.9080  -79.3560 C.3      23   U24       0.0558
    718 C4'        21.9340  -82.0390  -77.8580 C.3      23   U24       0.1065
    719 O4'        20.7740  -82.8610  -77.5480 O.3      23   U24      -0.3548
    720 C3'        23.1240  -82.6750  -77.1350 C.3      23   U24       0.2022
    721 O3'        23.4000  -81.9610  -75.9360 O.3      23   U24      -0.5246
    722 C2'        22.6220  -84.0700  -76.7800 C.3      23   U24       0.0670
    723 O2'        23.2110  -84.6190  -75.6220 O.3      23   U24      -0.6139
    724 C1'        21.1330  -83.8270  -76.5850 C.3      23   U24       0.0674
    725 N1         20.3040  -85.0320  -76.7850 N.am     23   U24       0.0418
    726 C2         19.7570  -85.5970  -75.6500 C.2      23   U24       0.4687
    727 O2         19.9130  -85.1280  -74.5380 O.2      23   U24      -0.5477
    728 N3         19.0070  -86.7220  -75.8640 N.am     23   U24      -0.3549
    729 C4         18.7640  -87.3340  -77.0780 C.2      23   U24       0.5952
    730 O4         18.0660  -88.3520  -77.1130 O.2      23   U24      -0.5761
    731 C5         19.3780  -86.6950  -78.2050 C.2      23   U24      -0.3635
    732 C6         20.1120  -85.5930  -78.0230 C.2      23   U24      -0.1126
    733 H5'        22.6905  -81.0350  -79.5760 H        23   U24       0.0679
    734 H5''       21.0886  -81.7680  -79.7960 H        23   U24       0.0679
    735 H4'        21.7710  -81.0452  -77.4410 H        23   U24       0.1174
    736 H3'        24.0014  -82.7214  -77.7800 H        23   U24       0.0615
    737 H2'        22.7768  -84.7417  -77.6243 H        23   U24       0.0972
    738 H1'        20.9578  -83.4271  -75.5863 H        23   U24       0.1824
    739 H3         18.5881  -87.1486  -75.0500 H        23   U24       0.3154
    740 H5         19.2480  -87.1024  -79.1967 H        23   U24       0.1811
    741 H6         20.5712  -85.1265  -78.8820 H        23   U24       0.2188
    742 HO2'       22.9133  -85.5248  -75.5103 H        23   U24       0.4186
    743 P          24.8060  -81.2100  -75.7710 P.3      24   C25       1.1662
    744 OP1        25.0240  -80.4220  -77.0150 O.co2    24   C25      -0.7760
    745 OP2        24.7730  -80.4940  -74.4670 O.co2    24   C25      -0.7760
    746 O5'        25.8470  -82.4170  -75.7060 O.3      24   C25      -0.4989
    747 C5'        26.2070  -83.0110  -74.4680 C.3      24   C25       0.0558
    748 C4'        27.3630  -83.9630  -74.6290 C.3      24   C25       0.1065
    749 O4'        26.9140  -85.1670  -75.2970 O.3      24   C25      -0.3548
    750 C3'        28.5200  -83.4620  -75.4840 C.3      24   C25       0.2022
    751 O3'        29.4260  -82.6530  -74.7540 O.3      24   C25      -0.5246
    752 C2'        29.1470  -84.7500  -76.0110 C.3      24   C25       0.0670
    753 O2'        30.0350  -85.3060  -75.0540 O.3      24   C25      -0.6139
    754 C1'        27.9320  -85.6700  -76.1340 C.3      24   C25       0.0066
    755 N1         27.4150  -85.7400  -77.5150 N.am     24   C25      -0.0484
    756 C2         28.2040  -86.3190  -78.5160 C.2      24   C25       0.7538
    757 O2         29.3390  -86.7410  -78.2260 O.2      24   C25      -0.6252
    758 N3         27.7080  -86.3890  -79.7750 N.2      24   C25      -0.7584
    759 C4         26.4880  -85.9210  -80.0440 C.2      24   C25       0.8185
    760 N4         26.0320  -86.0100  -81.2950 N.pl3    24   C25      -0.9530
    761 C5         25.6690  -85.3410  -79.0370 C.2      24   C25      -0.5215
    762 C6         26.1640  -85.2740  -77.7980 C.2      24   C25       0.0053
    763 H5'        25.3499  -83.5578  -74.0750 H        24   C25       0.0679
    764 H5''       26.4848  -82.2274  -73.7631 H        24   C25       0.0679
    765 H4'        27.7423  -84.2276  -73.6420 H        24   C25       0.1174
    766 H3'        28.1234  -82.8884  -76.3218 H        24   C25       0.0615
    767 H2'        29.6356  -84.5964  -76.9732 H        24   C25       0.0972
    768 H1'        28.2060  -86.6717  -75.8027 H        24   C25       0.2029
    769 H5         24.6816  -84.9678  -79.2656 H        24   C25       0.1928
    770 H6         25.5651  -84.8446  -77.0085 H        24   C25       0.1958
    771 H41        25.1106  -85.6645  -81.5224 H        24   C25       0.4234
    772 H42        26.6083  -86.4229  -82.0144 H        24   C25       0.4234
    773 HO2'       30.8050  -84.7397  -74.9643 H        24   C25       0.4186
    774 P          30.0120  -81.3000  -75.3990 P.3      25   C26       1.1662
    775 OP1        30.8940  -80.6740  -74.3750 O.co2    25   C26      -0.7760
    776 OP2        28.8530  -80.5230  -75.9200 O.co2    25   C26      -0.7760
    777 O5'        30.8930  -81.8440  -76.6110 O.3      25   C26      -0.4989
    778 C5'        32.1700  -82.4140  -76.3790 C.3      25   C26       0.0558
    779 C4'        32.8430  -82.8050  -77.6700 C.3      25   C26       0.1065
    780 O4'        32.1010  -83.8720  -78.3090 O.3      25   C26      -0.3548
    781 C3'        32.9170  -81.7290  -78.7370 C.3      25   C26       0.2022
    782 O3'        33.9570  -80.8010  -78.5120 O.3      25   C26      -0.5246
    783 C2'        33.0920  -82.5430  -80.0100 C.3      25   C26       0.0670
    784 O2'        34.4350  -82.9800  -80.1450 O.3      25   C26      -0.6139
    785 C1'        32.2150  -83.7590  -79.7120 C.3      25   C26       0.0066
    786 N1         30.8640  -83.6240  -80.2820 N.am     25   C26      -0.0484
    787 C2         30.6740  -83.9140  -81.6320 C.2      25   C26       0.7538
    788 O2         31.6470  -84.2660  -82.3100 O.2      25   C26      -0.6252
    789 N3         29.4390  -83.7970  -82.1660 N.2      25   C26      -0.7584
    790 C4         28.4170  -83.4140  -81.4000 C.2      25   C26       0.8185
    791 N4         27.2160  -83.3140  -81.9700 N.pl3    25   C26      -0.9530
    792 C5         28.5810  -83.1160  -80.0170 C.2      25   C26      -0.5215
    793 C6         29.8120  -83.2340  -79.5030 C.2      25   C26       0.0053
    794 H5'        32.7940  -81.6858  -75.8608 H        25   C26       0.0679
    795 H5''       32.0578  -83.2987  -75.7523 H        25   C26       0.0679
    796 H4'        33.8513  -83.1566  -77.4513 H        25   C26       0.1174
    797 H3'        31.9656  -81.1986  -78.7782 H        25   C26       0.0615
    798 H2'        32.7498  -82.0000  -80.8910 H        25   C26       0.0972
    799 H1'        32.6895  -84.6555  -80.1111 H        25   C26       0.2029
    800 H5         27.7453  -82.8070  -79.4066 H        25   C26       0.1928
    801 H6         29.9753  -83.0177  -78.4576 H        25   C26       0.1958
    802 H41        27.1034  -83.5258  -82.9511 H        25   C26       0.4234
    803 H42        26.4187  -83.0264  -81.4207 H        25   C26       0.4234
    804 HO2'       34.7020  -82.9143  -81.0648 H        25   C26       0.4186
    805 P          33.8170  -79.2980  -79.0540 P.3      26   C27       1.1662
    806 OP1        32.4440  -78.8370  -78.7190 O.co2    26   C27      -0.7760
    807 OP2        34.9750  -78.5370  -78.5270 O.co2    26   C27      -0.7760
    808 O5'        33.9560  -79.4770  -80.6290 O.3      26   C27      -0.4989
    809 C5'        35.0950  -80.1080  -81.1910 C.3      26   C27       0.0558
    810 C4'        35.0910  -80.0230  -82.6950 C.3      26   C27       0.1065
    811 O4'        34.1850  -81.0090  -83.2460 O.3      26   C27      -0.3548
    812 C3'        34.6070  -78.7130  -83.2890 C.3      26   C27       0.2022
    813 O3'        35.5950  -77.7000  -83.2610 O.3      26   C27      -0.5246
    814 C2'        34.1950  -79.1240  -84.6950 C.3      26   C27       0.0670
    815 O2'        35.3320  -79.2410  -85.5350 O.3      26   C27      -0.6139
    816 C1'        33.6310  -80.5250  -84.4500 C.3      26   C27       0.0066
    817 N1         32.1620  -80.5200  -84.3300 N.am     26   C27      -0.0484
    818 C2         31.4350  -80.6540  -85.5110 C.2      26   C27       0.7538
    819 O2         32.0580  -80.7630  -86.5780 O.2      26   C27      -0.6252
    820 N3         30.0850  -80.6560  -85.4650 N.2      26   C27      -0.7584
    821 C4         29.4590  -80.5330  -84.2960 C.2      26   C27       0.8185
    822 N4         28.1220  -80.5450  -84.3150 N.pl3    26   C27      -0.9530
    823 C5         30.1760  -80.3980  -83.0710 C.2      26   C27      -0.5215
    824 C6         31.5150  -80.3940  -83.1320 C.2      26   C27       0.0053
    825 H5'        35.9928  -79.6199  -80.8117 H        26   C27       0.0679
    826 H5''       35.1057  -81.1564  -80.8928 H        26   C27       0.0679
    827 H4'        36.0972  -80.2255  -83.0618 H        26   C27       0.1174
    828 H3'        33.7279  -78.3731  -82.7416 H        26   C27       0.0615
    829 H2'        33.4467  -78.4509  -85.1135 H        26   C27       0.0972
    830 H1'        33.9236  -81.1801  -85.2706 H        26   C27       0.2029
    831 H5         29.6588  -80.3024  -82.1278 H        26   C27       0.1928
    832 H6         32.0900  -80.2900  -82.2237 H        26   C27       0.1958
    833 H41        27.6303  -80.6429  -85.1918 H        26   C27       0.4234
    834 H42        27.6039  -80.4561  -83.4526 H        26   C27       0.4234
    835 HO2'       35.4672  -78.4166  -86.0079 H        26   C27       0.4186
    836 P          35.2080  -76.1800  -83.6100 P.3      27   G28       1.1662
    837 OP1        36.4200  -75.3560  -83.3690 O.co2    27   G28      -0.7760
    838 OP2        33.9660  -75.8570  -82.8620 O.co2    27   G28      -0.7760
    839 O5'        34.9010  -76.2470  -85.1700 O.3      27   G28      -0.4989
    840 C5'        34.1730  -75.2140  -85.8110 C.3      27   G28       0.0558
    841 C4'        33.1990  -75.7670  -86.8180 C.3      27   G28       0.1065
    842 O4'        32.6640  -77.0350  -86.3460 O.3      27   G28      -0.3548
    843 C3'        31.9670  -74.9160  -87.0750 C.3      27   G28       0.2022
    844 O3'        32.2060  -73.8580  -87.9870 O.3      27   G28      -0.5246
    845 C2'        30.9530  -75.9410  -87.5650 C.3      27   G28       0.0670
    846 O2'        31.2200  -76.3070  -88.9120 O.3      27   G28      -0.6139
    847 C1'        31.2910  -77.1310  -86.6690 C.3      27   G28       0.0191
    848 N9         30.5160  -77.1100  -85.4120 N.ar     27   G28       0.0492
    849 C8         31.0090  -76.9510  -84.1380 C.ar     27   G28       0.1374
    850 N7         30.0870  -76.9740  -83.2140 N.ar     27   G28      -0.5709
    851 C5         28.9080  -77.1580  -83.9200 C.ar     27   G28       0.1744
    852 C6         27.5650  -77.2580  -83.4600 C.2      27   G28       0.4770
    853 O6         27.1400  -77.2060  -82.2940 O.2      27   G28      -0.5597
    854 N1         26.6770  -77.4390  -84.5170 N.am     27   G28      -0.4787
    855 C2         27.0270  -77.5110  -85.8420 C.2      27   G28       0.7657
    856 N2         26.0210  -77.6880  -86.7140 N.pl3    27   G28      -0.9672
    857 N3         28.2750  -77.4210  -86.2820 N.2      27   G28      -0.6323
    858 C4         29.1570  -77.2470  -85.2760 C.ar     27   G28       0.1222
    859 H5'        34.8726  -74.5524  -86.3217 H        27   G28       0.0679
    860 H5''       33.6256  -74.6440  -85.0603 H        27   G28       0.0679
    861 H4'        33.7195  -75.9311  -87.7615 H        27   G28       0.1174
    862 H3'        31.6208  -74.4982  -86.1297 H        27   G28       0.0615
    863 H2'        29.9264  -75.6016  -87.4273 H        27   G28       0.0972
    864 H1'        31.1017  -78.0616  -87.2040 H        27   G28       0.2006
    865 H8         32.0591  -76.8196  -83.9224 H        27   G28       0.1640
    866 H1         25.6964  -77.5242  -84.2904 H        27   G28       0.3424
    867 H21        25.0702  -77.7585  -86.3806 H        27   G28       0.4364
    868 H22        26.2152  -77.7506  -87.7032 H        27   G28       0.4364
    869 HO2'       31.5023  -75.5326  -89.4041 H        27   G28       0.4186
    870 P          31.5780  -72.4010  -87.7180 P.3      28   A29       1.1662
    871 OP1        32.1470  -71.4890  -88.7410 O.co2    28   A29      -0.7760
    872 OP2        31.7930  -72.0900  -86.2810 O.co2    28   A29      -0.7760
    873 O5'        30.0270  -72.6270  -88.0000 O.3      28   A29      -0.4989
    874 C5'        29.5900  -73.0600  -89.2770 C.3      28   A29       0.0558
    875 C4'        28.1180  -73.3840  -89.2930 C.3      28   A29       0.1065
    876 O4'        27.8250  -74.4430  -88.3510 O.3      28   A29      -0.3548
    877 C3'        27.1750  -72.2650  -88.8930 C.3      28   A29       0.2022
    878 O3'        26.9720  -71.3310  -89.9390 O.3      28   A29      -0.5246
    879 C2'        25.9090  -73.0290  -88.4960 C.3      28   A29       0.0670
    880 O2'        25.1460  -73.3730  -89.6420 O.3      28   A29      -0.6139
    881 C1'        26.4900  -74.3190  -87.9030 C.3      28   A29       0.0394
    882 N9         26.4790  -74.3220  -86.4290 N.ar     28   A29      -0.0251
    883 C8         27.5600  -74.2960  -85.5880 C.ar     28   A29       0.2006
    884 N7         27.2340  -74.3290  -84.3220 N.ar     28   A29      -0.6073
    885 C5         25.8490  -74.3910  -84.3360 C.ar     28   A29       0.0515
    886 C6         24.9010  -74.4490  -83.3060 C.ar     28   A29       0.7009
    887 N6         25.2390  -74.4580  -82.0150 N.pl3    28   A29      -0.9019
    888 N1         23.5950  -74.5010  -83.6510 N.ar     28   A29      -0.7615
    889 C2         23.2730  -74.4950  -84.9500 C.ar     28   A29       0.5875
    890 N3         24.0760  -74.4450  -86.0110 N.ar     28   A29      -0.6997
    891 C4         25.3660  -74.3960  -85.6280 C.ar     28   A29       0.3053
    892 H5'        30.1493  -73.9531  -89.5555 H        28   A29       0.0679
    893 H5''       29.7889  -72.2744  -90.0059 H        28   A29       0.0679
    894 H4'        27.8484  -73.7244  -90.2928 H        28   A29       0.1174
    895 H3'        27.5751  -71.7493  -88.0200 H        28   A29       0.0615
    896 H2'        25.3164  -72.4786  -87.7653 H        28   A29       0.0972
    897 H1'        25.9123  -75.1693  -88.2653 H        28   A29       0.2007
    898 H8         28.5814  -74.2525  -85.9363 H        28   A29       0.1553
    899 H2         22.2160  -74.5364  -85.1678 H        28   A29       0.0473
    900 HO2'       24.2107  -73.3087  -89.4354 H        28   A29       0.4186
    901 H61        24.3402  -74.5487  -81.5633 H        28   A29       0.4115
    902 H62        26.1563  -74.3913  -81.5976 H        28   A29       0.4115
    903 P          26.6250  -69.7940  -89.6130 P.3      29   C30       1.1662
    904 OP1        27.5400  -69.3470  -88.5240 O.co2    29   C30      -0.7760
    905 OP2        26.6490  -69.0650  -90.9070 O.co2    29   C30      -0.7760
    906 O5'        25.1290  -69.8820  -89.0690 O.3      29   C30      -0.4989
    907 C5'        24.1110  -70.4670  -89.8610 C.3      29   C30       0.0558
    908 C4'        22.8570  -70.7240  -89.0650 C.3      29   C30       0.1065
    909 O4'        23.1040  -71.7250  -88.0470 O.3      29   C30      -0.3548
    910 C3'        22.3070  -69.5490  -88.2810 C.3      29   C30       0.2022
    911 O3'        21.6070  -68.6240  -89.0900 O.3      29   C30      -0.5246
    912 C2'        21.4320  -70.2410  -87.2490 C.3      29   C30       0.0670
    913 O2'        20.2150  -70.6760  -87.8370 O.3      29   C30      -0.6139
    914 C1'        22.2790  -71.4730  -86.9270 C.3      29   C30       0.0066
    915 N1         23.1380  -71.2550  -85.7490 N.am     29   C30      -0.0484
    916 C2         22.5690  -71.3290  -84.4770 C.2      29   C30       0.7538
    917 O2         21.3620  -71.5750  -84.3810 O.2      29   C30      -0.6252
    918 N3         23.3430  -71.1250  -83.3890 N.2      29   C30      -0.7584
    919 C4         24.6410  -70.8610  -83.5470 C.2      29   C30       0.8185
    920 N4         25.3820  -70.6640  -82.4540 N.pl3    29   C30      -0.9530
    921 C5         25.2460  -70.7830  -84.8350 C.2      29   C30      -0.5215
    922 C6         24.4640  -70.9810  -85.9000 C.2      29   C30       0.0053
    923 H5'        24.4753  -71.4138  -90.2598 H        29   C30       0.0679
    924 H5''       23.8761  -69.7986  -90.6894 H        29   C30       0.0679
    925 H4'        22.0823  -71.0910  -89.7382 H        29   C30       0.1174
    926 H3'        23.1261  -69.0380  -87.7750 H        29   C30       0.0615
    927 H2'        21.2634  -69.6182  -86.3705 H        29   C30       0.0972
    928 H1'        21.6278  -72.3294  -86.7518 H        29   C30       0.2029
    929 H5         26.2992  -70.5714  -84.9462 H        29   C30       0.1928
    930 H6         24.8877  -70.9232  -86.8917 H        29   C30       0.1958
    931 H41        24.9570  -70.7176  -81.5393 H        29   C30       0.4234
    932 H42        26.3676  -70.4614  -82.5418 H        29   C30       0.4234
    933 HO2'       19.9628  -71.5230  -87.4621 H        29   C30       0.4186
    934 P          21.3850  -67.1190  -88.5780 P.3      30   C31       1.1662
    935 OP1        20.7520  -66.3630  -89.6980 O.co2    30   C31      -0.7760
    936 OP2        22.6880  -66.6420  -88.0340 O.co2    30   C31      -0.7760
    937 O5'        20.3340  -67.3080  -87.3930 O.3      30   C31      -0.4989
    938 C5'        19.0310  -67.8080  -87.6520 C.3      30   C31       0.0558
    939 C4'        18.1650  -67.7390  -86.4260 C.3      30   C31       0.1065
    940 O4'        18.6770  -68.6370  -85.4190 O.3      30   C31      -0.3548
    941 C3'        18.1030  -66.3880  -85.7380 C.3      30   C31       0.2022
    942 O3'        17.1540  -65.5250  -86.3360 O.3      30   C31      -0.5246
    943 C2'        17.7710  -66.7480  -84.2950 C.3      30   C31       0.0670
    944 O2'        16.3740  -66.9320  -84.1350 O.3      30   C31      -0.6139
    945 C1'        18.4590  -68.1030  -84.1370 C.3      30   C31       0.0066
    946 N1         19.7610  -68.0050  -83.4450 N.am     30   C31      -0.0484
    947 C2         19.7920  -68.0470  -82.0480 C.2      30   C31       0.7538
    948 O2         18.7260  -68.1280  -81.4260 O.2      30   C31      -0.6252
    949 N3         20.9750  -67.9810  -81.4010 N.2      30   C31      -0.7584
    950 C4         22.1040  -67.9020  -82.1020 C.2      30   C31       0.8185
    951 N4         23.2510  -67.8460  -81.4170 N.pl3    30   C31      -0.9530
    952 C5         22.1030  -67.8730  -83.5290 C.2      30   C31      -0.5215
    953 C6         20.9220  -67.9330  -84.1580 C.2      30   C31       0.0053
    954 H5'        18.5738  -67.2138  -88.4432 H        30   C31       0.0679
    955 H5''       19.1044  -68.8448  -87.9802 H        30   C31       0.0679
    956 H4'        17.1534  -68.0464  -86.6911 H        30   C31       0.1174
    957 H3'        19.0870  -65.9206  -85.7745 H        30   C31       0.0615
    958 H2'        18.1641  -66.0114  -83.5943 H        30   C31       0.0972
    959 H1'        17.8060  -68.7725  -83.5771 H        30   C31       0.2029
    960 H5         23.0265  -67.8047  -84.0847 H        30   C31       0.1928
    961 H6         20.8885  -67.9243  -85.2374 H        30   C31       0.1958
    962 H41        23.2377  -67.8658  -80.4073 H        30   C31       0.4234
    963 H42        24.1307  -67.7839  -81.9093 H        30   C31       0.4234
    964 HO2'       16.0808  -66.4832  -83.3386 H        30   C31       0.4186
    965 P          17.3900  -63.9390  -86.3580 P.3      31   G32       1.1662
    966 OP1        16.5570  -63.3940  -87.4510 O.co2    31   G32      -0.7760
    967 OP2        18.8500  -63.7120  -86.3940 O.co2    31   G32      -0.7760
    968 O5'        16.8100  -63.4780  -84.9540 O.3      31   G32      -0.4989
    969 C5'        15.5560  -63.9600  -84.4870 C.3      31   G32       0.0558
    970 C4'        15.3680  -63.6730  -83.0200 C.3      31   G32       0.1065
    971 O4'        16.4490  -64.2970  -82.2770 O.3      31   G32      -0.3548
    972 C3'        15.4030  -62.1980  -82.6450 C.3      31   G32       0.2022
    973 O3'        14.6150  -61.9960  -81.4740 O.3      31   G32      -0.5246
    974 C2'        16.8710  -61.9890  -82.3080 C.3      31   G32       0.0670
    975 O2'        17.1290  -60.8690  -81.4900 O.3      31   G32      -0.6139
    976 C1'        17.1960  -63.3030  -81.6000 C.3      31   G32       0.0191
    977 N9         18.6070  -63.6890  -81.6490 N.ar     31   G32       0.0492
    978 C8         19.4430  -63.7510  -82.7350 C.ar     31   G32       0.1374
    979 N7         20.6470  -64.1650  -82.4320 N.ar     31   G32      -0.5709
    980 C5         20.5990  -64.4020  -81.0670 C.ar     31   G32       0.1744
    981 C6         21.6050  -64.8670  -80.1740 C.2      31   G32       0.4770
    982 O6         22.7900  -65.1750  -80.4170 O.2      31   G32      -0.5597
    983 N1         21.1120  -64.9590  -78.8710 N.am     31   G32      -0.4787
    984 C2         19.8220  -64.6420  -78.4820 C.2      31   G32       0.7657
    985 N2         19.5310  -64.7960  -77.1740 N.pl3    31   G32      -0.9672
    986 N3         18.8790  -64.2080  -79.3110 N.2      31   G32      -0.6323
    987 C4         19.3420  -64.1150  -80.5750 C.ar     31   G32       0.1222
    988 H5'        14.7581  -63.4739  -85.0483 H        31   G32       0.0679
    989 H5''       15.5034  -65.0364  -84.6503 H        31   G32       0.0679
    990 H4'        14.4198  -64.1000  -82.6933 H        31   G32       0.1174
    991 H3'        15.0796  -61.5609  -83.4682 H        31   G32       0.0615
    992 H2'        17.4517  -61.9138  -83.2274 H        31   G32       0.0972
    993 H1'        16.8699  -63.2471  -80.5614 H        31   G32       0.2006
    994 H8         19.1389  -63.4855  -83.7367 H        31   G32       0.1640
    995 H1         21.7471  -65.2826  -78.1554 H        31   G32       0.3424
    996 H21        20.2395  -65.1265  -76.5345 H        31   G32       0.4364
    997 H22        18.6046  -64.5809  -76.8340 H        31   G32       0.4364
    998 HO2'       17.8369  -61.0770  -80.8758 H        31   G32       0.4186
    999 P          13.6860  -60.6920  -81.3340 P.3      32   G33       1.1662
   1000 OP1        14.3380  -59.7920  -80.3450 O.co2    32   G33      -0.7760
   1001 OP2        13.4340  -60.1810  -82.7080 O.co2    32   G33      -0.7760
   1002 O5'        12.3370  -61.2810  -80.7200 O.3      32   G33      -0.4989
   1003 C5'        11.3340  -61.8320  -81.5590 C.3      32   G33       0.0558
   1004 C4'        10.0000  -61.8810  -80.8580 C.3      32   G33       0.1065
   1005 O4'        10.0980  -62.7170  -79.6760 O.3      32   G33      -0.3548
   1006 C3'         9.4750  -60.5490  -80.3390 C.3      32   G33       0.2022
   1007 O3'         8.8040  -59.8050  -81.3350 O.3      32   G33      -0.5246
   1008 C2'         8.5760  -60.9610  -79.1840 C.3      32   G33       0.0670
   1009 O2'         7.3190  -61.4070  -79.6640 O.3      32   G33      -0.6139
   1010 C1'         9.3350  -62.1630  -78.6260 C.3      32   G33       0.0191
   1011 N9         10.2580  -61.7770  -77.5470 N.ar     32   G33       0.0492
   1012 C8         11.6190  -61.9100  -77.5920 C.ar     32   G33       0.1374
   1013 N7         12.1870  -61.4970  -76.5000 N.ar     32   G33      -0.5709
   1014 C5         11.1480  -61.0730  -75.6910 C.ar     32   G33       0.1744
   1015 C6         11.1740  -60.5270  -74.3860 C.2      32   G33       0.4770
   1016 O6         12.1580  -60.3090  -73.6680 O.2      32   G33      -0.5597
   1017 N1          9.8900  -60.2310  -73.9400 N.am     32   G33      -0.4787
   1018 C2          8.7410  -60.4350  -74.6560 C.2      32   G33       0.7657
   1019 N2          7.6040  -60.0890  -74.0470 N.pl3    32   G33      -0.9672
   1020 N3          8.7060  -60.9450  -75.8710 N.2      32   G33      -0.6323
   1021 C4          9.9410  -61.2400  -76.3230 C.ar     32   G33       0.1222
   1022 H5'        11.2423  -61.2166  -82.4540 H        32   G33       0.0679
   1023 H5''       11.6240  -62.8423  -81.8475 H        32   G33       0.0679
   1024 H4'         9.2617  -62.3117  -81.5344 H        32   G33       0.1174
   1025 H3'        10.3079  -59.9614  -79.9529 H        32   G33       0.0615
   1026 H2'         8.4715  -60.1663  -78.4453 H        32   G33       0.0972
   1027 H1'         8.6271  -62.9045  -78.2558 H        32   G33       0.2006
   1028 H8         12.1580  -62.3117  -78.4373 H        32   G33       0.1640
   1029 H1          9.7982  -59.8346  -73.0156 H        32   G33       0.3424
   1030 H21         7.6283  -59.7005  -73.1150 H        32   G33       0.4364
   1031 H22         6.7198  -60.2158  -74.5184 H        32   G33       0.4364
   1032 HO2'        6.6557  -61.2928  -78.9795 H        32   G33       0.4186
   1033 P           9.0520  -58.2300  -81.4660 P.3      33   U34       1.1662
   1034 OP1         8.3370  -57.7780  -82.6900 O.co2    33   U34      -0.7760
   1035 OP2        10.5210  -58.0080  -81.3700 O.co2    33   U34      -0.7760
   1036 O5'         8.3290  -57.6540  -80.1680 O.3      33   U34      -0.4989
   1037 C5'         6.9360  -57.8420  -79.9670 C.3      33   U34       0.0558
   1038 C4'         6.4770  -57.2360  -78.6650 C.3      33   U34       0.1065
   1039 O4'         6.9900  -58.0080  -77.5510 O.3      33   U34      -0.3548
   1040 C3'         6.9560  -55.8260  -78.3800 C.3      33   U34       0.2022
   1041 O3'         6.2050  -54.8440  -79.0590 O.3      33   U34      -0.5246
   1042 C2'         6.8450  -55.7420  -76.8650 C.3      33   U34       0.0670
   1043 O2'         5.4980  -55.5370  -76.4730 O.3      33   U34      -0.6139
   1044 C1'         7.2530  -57.1560  -76.4570 C.3      33   U34       0.0674
   1045 N1          8.6890  -57.2430  -76.1300 N.am     33   U34       0.0418
   1046 C2          9.0740  -56.8120  -74.8770 C.2      33   U34       0.4687
   1047 O2          8.2790  -56.3780  -74.0590 O.2      33   U34      -0.5477
   1048 N3         10.4190  -56.9080  -74.6200 N.am     33   U34      -0.3549
   1049 C4         11.3960  -57.3820  -75.4690 C.2      33   U34       0.5952
   1050 O4         12.5690  -57.4050  -75.0880 O.2      33   U34      -0.5761
   1051 C5         10.9140  -57.8070  -76.7470 C.2      33   U34      -0.3635
   1052 C6          9.6100  -57.7280  -77.0290 C.2      33   U34      -0.1126
   1053 H5'         6.3936  -57.3712  -80.7869 H        33   U34       0.0679
   1054 H5''        6.7171  -58.9098  -79.9606 H        33   U34       0.0679
   1055 H4'         5.3876  -57.2517  -78.6332 H        33   U34       0.1174
   1056 H3'         8.0036  -55.7385  -78.6679 H        33   U34       0.0615
   1057 H2'         7.5117  -54.9875  -76.4474 H        33   U34       0.0972
   1058 H1'         6.6627  -57.4728  -75.5972 H        33   U34       0.1824
   1059 H3         10.7263  -56.5974  -73.7094 H        33   U34       0.3154
   1060 H5         11.6036  -58.1916  -77.4838 H        33   U34       0.1811
   1061 H6          9.2668  -58.0572  -77.9987 H        33   U34       0.2188
   1062 HO2'        5.4644  -54.8783  -75.7755 H        33   U34       0.4186
   1063 P           6.9090  -53.4860  -79.5450 P.3      34   G35       1.1662
   1064 OP1         6.0040  -52.8600  -80.5430 O.co2    34   G35      -0.7760
   1065 OP2         8.2910  -53.8300  -79.9530 O.co2    34   G35      -0.7760
   1066 O5'         6.9400  -52.6100  -78.2170 O.3      34   G35      -0.4989
   1067 C5'         5.7400  -52.0820  -77.6790 C.3      34   G35       0.0558
   1068 C4'         5.9710  -51.4020  -76.3550 C.3      34   G35       0.1065
   1069 O4'         6.4050  -52.3700  -75.3610 O.3      34   G35      -0.3548
   1070 C3'         7.0630  -50.3540  -76.3190 C.3      34   G35       0.2022
   1071 O3'         6.6840  -49.1280  -76.9040 O.3      34   G35      -0.5246
   1072 C2'         7.3490  -50.2630  -74.8320 C.3      34   G35       0.0670
   1073 O2'         6.3000  -49.5780  -74.1620 O.3      34   G35      -0.6139
   1074 C1'         7.2860  -51.7410  -74.4490 C.3      34   G35       0.0191
   1075 N9          8.6090  -52.3730  -74.5660 N.ar     34   G35       0.0492
   1076 C8          9.0500  -53.2740  -75.5030 C.ar     34   G35       0.1374
   1077 N7         10.3010  -53.6120  -75.3240 N.ar     34   G35      -0.5709
   1078 C5         10.7040  -52.8770  -74.2170 C.ar     34   G35       0.1744
   1079 C6         11.9500  -52.8160  -73.5480 C.2      34   G35       0.4770
   1080 O6         12.9950  -53.4240  -73.8070 O.2      34   G35      -0.5597
   1081 N1         11.9110  -51.9390  -72.4710 N.am     34   G35      -0.4787
   1082 C2         10.8170  -51.2080  -72.0790 C.2      34   G35       0.7657
   1083 N2         10.9780  -50.4130  -71.0110 N.pl3    34   G35      -0.9672
   1084 N3          9.6510  -51.2540  -72.6960 N.2      34   G35      -0.6323
   1085 C4          9.6710  -52.1030  -73.7430 C.ar     34   G35       0.1222
   1086 H5'         5.0289  -52.8959  -77.5379 H        34   G35       0.0679
   1087 H5''        5.3216  -51.3612  -78.3814 H        34   G35       0.0679
   1088 H4'         5.0366  -50.9497  -76.0227 H        34   G35       0.1174
   1089 H3'         7.9454  -50.7379  -76.8310 H        34   G35       0.0615
   1090 H2'         8.3255  -49.8247  -74.6258 H        34   G35       0.0972
   1091 H1'         6.9095  -51.8477  -73.4317 H        34   G35       0.2006
   1092 H8          8.4324  -53.6611  -76.3000 H        34   G35       0.1640
   1093 H1         12.7580  -51.8302  -71.9316 H        34   G35       0.3424
   1094 H21        11.8701  -50.3760  -70.5389 H        34   G35       0.4364
   1095 H22        10.2072  -49.8513  -70.6788 H        34   G35       0.4364
   1096 HO2'        6.6613  -49.0865  -73.4207 H        34   G35       0.4186
   1097 P           7.8040  -48.1410  -77.4930 P.3      35   G36       1.1662
   1098 OP1         7.1070  -46.9010  -77.9180 O.co2    35   G36      -0.7760
   1099 OP2         8.5790  -48.9050  -78.5010 O.co2    35   G36      -0.7760
   1100 O5'         8.7120  -47.8390  -76.2190 O.3      35   G36      -0.4989
   1101 C5'         8.1680  -47.1650  -75.0910 C.3      35   G36       0.0558
   1102 C4'         9.2170  -46.8730  -74.0460 C.3      35   G36       0.1065
   1103 O4'         9.8070  -48.1080  -73.5730 O.3      35   G36      -0.3548
   1104 C3'        10.4060  -46.0470  -74.5020 C.3      35   G36       0.2022
   1105 O3'        10.1200  -44.6610  -74.5550 O.3      35   G36      -0.5246
   1106 C2'        11.4790  -46.4110  -73.4790 C.3      35   G36       0.0670
   1107 O2'        11.3080  -45.6680  -72.2810 O.3      35   G36      -0.6139
   1108 C1'        11.1470  -47.8800  -73.1900 C.3      35   G36       0.0191
   1109 N9         12.0170  -48.8090  -73.9350 N.ar     35   G36       0.0492
   1110 C8         11.7210  -49.4670  -75.1040 C.ar     35   G36       0.1374
   1111 N7         12.6900  -50.2390  -75.5160 N.ar     35   G36      -0.5709
   1112 C5         13.6830  -50.0800  -74.5570 C.ar     35   G36       0.1744
   1113 C6         14.9740  -50.6640  -74.4630 C.2      35   G36       0.4770
   1114 O6         15.5150  -51.4620  -75.2370 O.2      35   G36      -0.5597
   1115 N1         15.6550  -50.2300  -73.3290 N.am     35   G36      -0.4787
   1116 C2         15.1650  -49.3500  -72.4000 C.2      35   G36       0.7657
   1117 N2         15.9840  -49.0660  -71.3780 N.pl3    35   G36      -0.9672
   1118 N3         13.9640  -48.7990  -72.4740 N.2      35   G36      -0.6323
   1119 C4         13.2830  -49.2050  -73.5700 C.ar     35   G36       0.1222
   1120 H5'         7.3939  -47.7909  -74.6470 H        35   G36       0.0679
   1121 H5''        7.7216  -46.2262  -75.4189 H        35   G36       0.0679
   1122 H4'         8.7419  -46.3677  -73.2051 H        35   G36       0.1174
   1123 H3'        10.7212  -46.3863  -75.4887 H        35   G36       0.0615
   1124 H2'        12.4831  -46.2956  -73.8871 H        35   G36       0.0972
   1125 H1'        11.2521  -48.0684  -72.1216 H        35   G36       0.2006
   1126 H8         10.7832  -49.3570  -75.6283 H        35   G36       0.1640
   1127 H1         16.5854  -50.5931  -73.1789 H        35   G36       0.3424
   1128 H21        16.8983  -49.4925  -71.3300 H        35   G36       0.4364
   1129 H22        15.6870  -48.4255  -70.6558 H        35   G36       0.4364
   1130 HO2'       11.5122  -44.7444  -72.4448 H        35   G36       0.4186
   1131 P          10.4570  -43.8150  -75.8780 P.3      36   U37       1.1662
   1132 OP1         9.6970  -42.5410  -75.7860 O.co2    36   U37      -0.7760
   1133 OP2        10.2190  -44.7080  -77.0420 O.co2    36   U37      -0.7760
   1134 O5'        12.0140  -43.5270  -75.7230 O.3      36   U37      -0.4989
   1135 C5'        12.5280  -42.9640  -74.5290 C.3      36   U37       0.0558
   1136 C4'        14.0000  -43.2380  -74.3800 C.3      36   U37       0.1065
   1137 O4'        14.2200  -44.6450  -74.1170 O.3      36   U37      -0.3548
   1138 C3'        14.8600  -42.9540  -75.6010 C.3      36   U37       0.2022
   1139 O3'        15.1630  -41.5750  -75.7520 O.3      36   U37      -0.5246
   1140 C2'        16.0870  -43.8250  -75.3510 C.3      36   U37       0.0670
   1141 O2'        16.9800  -43.1890  -74.4510 O.3      36   U37      -0.6139
   1142 C1'        15.4710  -45.0380  -74.6440 C.3      36   U37       0.0674
   1143 N1         15.2700  -46.1780  -75.5650 N.am     36   U37       0.0418
   1144 C2         16.0350  -47.3060  -75.3350 C.2      36   U37       0.4687
   1145 O2         16.8340  -47.3850  -74.4190 O.2      36   U37      -0.5477
   1146 N3         15.8330  -48.3400  -76.2140 N.am     36   U37      -0.3549
   1147 C4         14.9630  -48.3580  -77.2850 C.2      36   U37       0.5952
   1148 O4         14.8900  -49.3710  -77.9900 O.2      36   U37      -0.5761
   1149 C5         14.2100  -47.1500  -77.4600 C.2      36   U37      -0.3635
   1150 C6         14.3860  -46.1260  -76.6170 C.2      36   U37      -0.1126
   1151 H5'        11.9997  -43.3946  -73.6783 H        36   U37       0.0679
   1152 H5''       12.3647  -41.8864  -74.5429 H        36   U37       0.0679
   1153 H4'        14.3818  -42.6593  -73.5389 H        36   U37       0.1174
   1154 H3'        14.3442  -43.3081  -76.4936 H        36   U37       0.0615
   1155 H2'        16.5809  -44.1058  -76.2812 H        36   U37       0.0972
   1156 H1'        16.1234  -45.3470  -73.8273 H        36   U37       0.1824
   1157 H3         16.3786  -49.1761  -76.0610 H        36   U37       0.3154
   1158 H5         13.5018  -47.0670  -78.2712 H        36   U37       0.1811
   1159 H6         13.8117  -45.2240  -76.7686 H        36   U37       0.2188
   1160 HO2'       17.8739  -43.4986  -74.6142 H        36   U37       0.4186
   1161 P          15.2150  -40.9080  -77.2120 P.3      37   A38       1.1662
   1162 OP1        15.5460  -39.4740  -77.0280 O.co2    37   A38      -0.7760
   1163 OP2        13.9510  -41.2670  -77.9030 O.co2    37   A38      -0.7760
   1164 O5'        16.4380  -41.6610  -77.8940 O.3      37   A38      -0.4989
   1165 C5'        17.2360  -41.0220  -78.8850 C.3      37   A38       0.0558
   1166 C4'        17.7230  -42.0090  -79.9120 C.3      37   A38       0.1065
   1167 O4'        18.9110  -41.4850  -80.5780 O.3      37   A38      -0.3548
   1168 C3'        18.1270  -43.3800  -79.3580 C.3      37   A38       0.2022
   1169 O3'        17.8100  -44.3730  -80.3250 O.3      37   A38      -0.5246
   1170 C2'        19.6400  -43.2560  -79.2730 C.3      37   A38       0.0670
   1171 O2'        20.3310  -44.4850  -79.2540 O.3      37   A38      -0.6139
   1172 C1'        19.9090  -42.4830  -80.5490 C.3      37   A38       0.0394
   1173 N9         21.2370  -41.8700  -80.6330 N.ar     37   A38      -0.0251
   1174 C8         22.1540  -41.5990  -79.6500 C.ar     37   A38       0.2006
   1175 N7         23.2800  -41.0950  -80.1060 N.ar     37   A38      -0.6073
   1176 C5         23.0980  -41.0550  -81.4800 C.ar     37   A38       0.0515
   1177 C6         23.9200  -40.6260  -82.5380 C.ar     37   A38       0.7009
   1178 N6         25.1470  -40.1250  -82.3760 N.pl3    37   A38      -0.9019
   1179 N1         23.4270  -40.7250  -83.7920 N.ar     37   A38      -0.7615
   1180 C2         22.1920  -41.2290  -83.9520 C.ar     37   A38       0.5875
   1181 N3         21.3260  -41.6630  -83.0410 N.ar     37   A38      -0.6997
   1182 C4         21.8510  -41.5450  -81.8130 C.ar     37   A38       0.3053
   1183 H5'        16.6398  -40.2568  -79.3822 H        37   A38       0.0679
   1184 H5''       18.0942  -40.5516  -78.4051 H        37   A38       0.0679
   1185 H4'        16.9402  -42.1513  -80.6570 H        37   A38       0.1174
   1186 H3'        17.6729  -43.5855  -78.3887 H        37   A38       0.0615
   1187 H2'        19.9184  -42.6565  -78.4063 H        37   A38       0.0972
   1188 H1'        19.7707  -43.1475  -81.4019 H        37   A38       0.2007
   1189 H8         21.9692  -41.7819  -78.6018 H        37   A38       0.1553
   1190 H2         21.8511  -41.2910  -84.9749 H        37   A38       0.0473
   1191 H61        25.6462  -39.6673  -81.6267 H        37   A38       0.4115
   1192 H62        25.7144  -40.2291  -83.2051 H        37   A38       0.4115
   1193 HO2'       21.2750  -44.3221  -79.3158 H        37   A38       0.4186
   1194 P          16.5440  -45.3370  -80.1310 P.3      38   U39       1.1662
   1195 OP1        15.3240  -44.4930  -80.2450 O.co2    38   U39      -0.7760
   1196 OP2        16.7660  -46.1090  -78.8830 O.co2    38   U39      -0.7760
   1197 O5'        16.6600  -46.2990  -81.3920 O.3      38   U39      -0.4989
   1198 C5'        15.8870  -47.4870  -81.4740 C.3      38   U39       0.0558
   1199 C4'        16.3770  -48.3980  -82.5710 C.3      38   U39       0.1065
   1200 O4'        16.8710  -47.5970  -83.6770 O.3      38   U39      -0.3548
   1201 C3'        17.5140  -49.3410  -82.1830 C.3      38   U39       0.2022
   1202 O3'        17.3280  -50.5850  -82.8400 O.3      38   U39      -0.5246
   1203 C2'        18.7480  -48.6540  -82.7530 C.3      38   U39       0.0670
   1204 O2'        19.8190  -49.5300  -83.0530 O.3      38   U39      -0.6139
   1205 C1'        18.1810  -48.0080  -84.0110 C.3      38   U39       0.0674
   1206 N1         18.9290  -46.8290  -84.4690 N.am     38   U39       0.0418
   1207 C2         19.7630  -47.0160  -85.5400 C.2      38   U39       0.4687
   1208 O2         19.8730  -48.1040  -86.0780 O.2      38   U39      -0.5477
   1209 N3         20.4500  -45.8990  -85.9440 N.am     38   U39      -0.3549
   1210 C4         20.3750  -44.6430  -85.3860 C.2      38   U39       0.5952
   1211 O4         21.0470  -43.7210  -85.8510 O.2      38   U39      -0.5761
   1212 C5         19.4840  -44.5390  -84.2750 C.2      38   U39      -0.3635
   1213 C6         18.8040  -45.6090  -83.8590 C.2      38   U39      -0.1126
   1214 H5'        15.9495  -48.0151  -80.5225 H        38   U39       0.0679
   1215 H5''       14.8473  -47.2231  -81.6676 H        38   U39       0.0679
   1216 H4'        15.5372  -48.9960  -82.9250 H        38   U39       0.1174
   1217 H3'        17.5845  -49.4632  -81.1022 H        38   U39       0.0615
   1218 H2'        19.0883  -47.8804  -82.0646 H        38   U39       0.0972
   1219 H1'        18.1382  -48.7461  -84.8120 H        38   U39       0.1824
   1220 H3         21.0739  -46.0097  -86.7305 H        38   U39       0.3154
   1221 H5         19.3602  -43.5922  -83.7703 H        38   U39       0.1811
   1222 H6         18.1354  -45.5102  -83.0166 H        38   U39       0.2188
   1223 HO2'       19.5598  -50.4324  -82.8526 H        38   U39       0.4186
   1224 P          16.6070  -51.7850  -82.0690 P.3      39   A40       1.1662
   1225 OP1        16.3870  -52.8740  -83.0590 O.co2    39   A40      -0.7760
   1226 OP2        15.4320  -51.2100  -81.3590 O.co2    39   A40      -0.7760
   1227 O5'        17.7120  -52.2230  -81.0170 O.3      39   A40      -0.4989
   1228 C5'        18.9130  -52.8550  -81.4430 C.3      39   A40       0.0558
   1229 C4'        19.4450  -53.7740  -80.3840 C.3      39   A40       0.1065
   1230 O4'        19.9840  -52.9690  -79.3010 O.3      39   A40      -0.3548
   1231 C3'        18.3970  -54.6910  -79.7550 C.3      39   A40       0.2022
   1232 O3'        18.9950  -55.9380  -79.4100 O.3      39   A40      -0.5246
   1233 C2'        18.0090  -53.9400  -78.4860 C.3      39   A40       0.0670
   1234 O2'        17.4960  -54.7550  -77.4560 O.3      39   A40      -0.6139
   1235 C1'        19.3350  -53.3010  -78.0910 C.3      39   A40       0.0394
   1236 N9         19.1880  -52.0820  -77.2930 N.ar     39   A40      -0.0251
   1237 C8         18.2150  -51.1200  -77.3970 C.ar     39   A40       0.2006
   1238 N7         18.3390  -50.1570  -76.5190 N.ar     39   A40      -0.6073
   1239 C5         19.4650  -50.5140  -75.7880 C.ar     39   A40       0.0515
   1240 C6         20.1280  -49.9060  -74.7110 C.ar     39   A40       0.7009
   1241 N6         19.7330  -48.7570  -74.1610 N.pl3    39   A40      -0.9019
   1242 N1         21.2220  -50.5230  -74.2130 N.ar     39   A40      -0.7615
   1243 C2         21.6150  -51.6770  -74.7650 C.ar     39   A40       0.5875
   1244 N3         21.0780  -52.3470  -75.7800 N.ar     39   A40      -0.6997
   1245 C4         19.9940  -51.7030  -76.2490 C.ar     39   A40       0.3053
   1246 H5'        18.7108  -53.4316  -82.3456 H        39   A40       0.0679
   1247 H5''       19.6601  -52.0928  -81.6644 H        39   A40       0.0679
   1248 H4'        20.2436  -54.3827  -80.8079 H        39   A40       0.1174
   1249 H3'        17.5402  -54.8286  -80.4146 H        39   A40       0.0615
   1250 H2'        17.2865  -53.1610  -78.7293 H        39   A40       0.0972
   1251 H1'        19.9377  -54.0244  -77.5419 H        39   A40       0.2007
   1252 H8         17.4240  -51.1540  -78.1316 H        39   A40       0.1553
   1253 H2         22.4918  -52.1275  -74.3238 H        39   A40       0.0473
   1254 HO2'       17.8885  -54.4980  -76.6184 H        39   A40       0.4186
   1255 H61        18.7273  -48.6707  -74.1965 H        39   A40       0.4115
   1256 H62        20.3546  -48.0674  -73.7633 H        39   A40       0.4115
   1257 P          19.2340  -57.0630  -80.5350 P.3      40   G41       1.1662
   1258 OP1        20.6910  -57.0650  -80.8420 O.co2    40   G41      -0.7760
   1259 OP2        18.2690  -56.8040  -81.6320 O.co2    40   G41      -0.7760
   1260 O5'        18.8360  -58.4050  -79.7830 O.3      40   G41      -0.4989
   1261 C5'        17.6260  -58.5050  -79.0540 C.3      40   G41       0.0558
   1262 C4'        17.7910  -59.4120  -77.8690 C.3      40   G41       0.1065
   1263 O4'        18.2140  -60.7180  -78.3240 O.3      40   G41      -0.3548
   1264 C3'        18.8530  -58.9850  -76.8710 C.3      40   G41       0.2022
   1265 O3'        18.3500  -58.0710  -75.9140 O.3      40   G41      -0.5246
   1266 C2'        19.3220  -60.3040  -76.2660 C.3      40   G41       0.0670
   1267 O2'        18.4440  -60.7180  -75.2310 O.3      40   G41      -0.6139
   1268 C1'        19.1650  -61.2650  -77.4410 C.3      40   G41       0.0191
   1269 N9         20.4250  -61.4780  -78.1880 N.ar     40   G41       0.0492
   1270 C8         20.5880  -61.2120  -79.5280 C.ar     40   G41       0.1374
   1271 N7         21.7720  -61.5060  -79.9920 N.ar     40   G41      -0.5709
   1272 C5         22.4420  -62.0130  -78.8930 C.ar     40   G41       0.1744
   1273 C6         23.7690  -62.4970  -78.7930 C.2      40   G41       0.4770
   1274 O6         24.6340  -62.5680  -79.6780 O.2      40   G41      -0.5597
   1275 N1         24.0560  -62.9270  -77.5040 N.am     40   G41      -0.4787
   1276 C2         23.1820  -62.8930  -76.4460 C.2      40   G41       0.7657
   1277 N2         23.6600  -63.3510  -75.2770 N.pl3    40   G41      -0.9672
   1278 N3         21.9370  -62.4380  -76.5270 N.2      40   G41      -0.6323
   1279 C4         21.6290  -62.0170  -77.7730 C.ar     40   G41       0.1222
   1280 H5'        17.3349  -57.5135  -78.7072 H        40   G41       0.0679
   1281 H5''       16.8463  -58.9016  -79.7043 H        40   G41       0.0679
   1282 H4'        16.8345  -59.5054  -77.3547 H        40   G41       0.1174
   1283 H3'        19.6819  -58.5222  -77.4066 H        40   G41       0.0615
   1284 H2'        20.3552  -60.2482  -75.9231 H        40   G41       0.0972
   1285 H1'        18.8010  -62.2241  -77.0726 H        40   G41       0.2006
   1286 H8         19.8038  -60.7958  -80.1430 H        40   G41       0.1640
   1287 H1         24.9811  -63.2938  -77.3313 H        40   G41       0.3424
   1288 H21        24.6082  -63.6939  -75.2187 H        40   G41       0.4364
   1289 H22        23.0711  -63.3524  -74.4564 H        40   G41       0.4364
   1290 HO2'       18.8215  -61.4727  -74.7733 H        40   G41       0.4186
   1291 P          19.1650  -56.7370  -75.5490 P.3      41   U42       1.1662
   1292 OP1        18.2090  -55.8070  -74.9060 O.co2    41   U42      -0.7760
   1293 OP2        19.8710  -56.2980  -76.7800 O.co2    41   U42      -0.7760
   1294 O5'        20.2210  -57.2520  -74.4750 O.3      41   U42      -0.4989
   1295 C5'        19.7990  -58.0060  -73.3460 C.3      41   U42       0.0558
   1296 C4'        20.9480  -58.3160  -72.4260 C.3      41   U42       0.1065
   1297 O4'        21.8380  -59.2590  -73.0810 O.3      41   U42      -0.3548
   1298 C3'        21.7980  -57.1130  -72.0290 C.3      41   U42       0.2022
   1299 O3'        22.2180  -57.2460  -70.6740 O.3      41   U42      -0.5246
   1300 C2'        23.0010  -57.2100  -72.9540 C.3      41   U42       0.0670
   1301 O2'        24.1810  -56.6360  -72.4330 O.3      41   U42      -0.6139
   1302 C1'        23.1430  -58.7230  -73.1620 C.3      41   U42       0.0674
   1303 N1         23.6990  -59.0770  -74.4860 N.am     41   U42       0.0418
   1304 C2         24.8510  -59.8290  -74.5910 C.2      41   U42       0.4687
   1305 O2         25.4430  -60.2700  -73.6220 O.2      41   U42      -0.5477
   1306 N3         25.2890  -60.0580  -75.8760 N.am     41   U42      -0.3549
   1307 C4         24.7080  -59.6130  -77.0460 C.2      41   U42       0.5952
   1308 O4         25.2090  -59.8940  -78.1350 O.2      41   U42      -0.5761
   1309 C5         23.5270  -58.8370  -76.8530 C.2      41   U42      -0.3635
   1310 C6         23.0840  -58.5980  -75.6160 C.2      41   U42      -0.1126
   1311 H5'        19.0515  -57.4329  -72.7974 H        41   U42       0.0679
   1312 H5''       19.3529  -58.9402  -73.6872 H        41   U42       0.0679
   1313 H4'        20.5547  -58.7789  -71.5209 H        41   U42       0.1174
   1314 H3'        21.2564  -56.1798  -72.1837 H        41   U42       0.0615
   1315 H2'        22.7613  -56.7371  -73.9064 H        41   U42       0.0972
   1316 H1'        23.7659  -59.1471  -72.3745 H        41   U42       0.1824
   1317 H3         26.1276  -60.6125  -75.9730 H        41   U42       0.3154
   1318 H5         22.9924  -58.4437  -77.7050 H        41   U42       0.1811
   1319 H6         22.1950  -57.9961  -75.4984 H        41   U42       0.2188
   1320 HO2'       24.0538  -55.6916  -72.3170 H        41   U42       0.4186
   1321 P          21.2760  -56.7000  -69.4920 P.3      42   C43       1.1662
   1322 OP1        20.0930  -56.0680  -70.1350 O.co2    42   C43      -0.7760
   1323 OP2        21.0530  -57.8330  -68.5450 O.co2    42   C43      -0.7760
   1324 O5'        22.1810  -55.5830  -68.8060 O.3      42   C43      -0.4989
   1325 C5'        22.6750  -54.4840  -69.5560 C.3      42   C43       0.0558
   1326 C4'        22.1360  -53.1680  -69.0410 C.3      42   C43       0.1065
   1327 O4'        22.0240  -52.2320  -70.1440 O.3      42   C43      -0.3548
   1328 C3'        20.7400  -53.2130  -68.4230 C.3      42   C43       0.2022
   1329 O3'        20.7660  -53.5350  -67.0390 O.3      42   C43      -0.5246
   1330 C2'        20.1850  -51.8250  -68.7110 C.3      42   C43       0.0670
   1331 O2'        20.6640  -50.8870  -67.7610 O.3      42   C43      -0.6139
   1332 C1'        20.8230  -51.5100  -70.0590 C.3      42   C43       0.0066
   1333 N1         19.9700  -51.9150  -71.1930 N.am     42   C43      -0.0484
   1334 C2         18.9470  -51.0870  -71.6570 C.2      42   C43       0.7538
   1335 O2         18.7260  -50.0060  -71.0890 O.2      42   C43      -0.6252
   1336 N3         18.2090  -51.4950  -72.7130 N.2      42   C43      -0.7584
   1337 C4         18.4660  -52.6610  -73.3040 C.2      42   C43       0.8185
   1338 N4         17.7100  -53.0210  -74.3410 N.pl3    42   C43      -0.9530
   1339 C5         19.5080  -53.5160  -72.8610 C.2      42   C43      -0.5215
   1340 C6         20.2290  -53.1000  -71.8180 C.2      42   C43       0.0053
   1341 H5'        23.7628  -54.4708  -69.4884 H        42   C43       0.0679
   1342 H5''       22.3840  -54.6047  -70.5995 H        42   C43       0.0679
   1343 H4'        22.8334  -52.7650  -68.3066 H        42   C43       0.1174
   1344 H3'        20.1397  -53.9541  -68.9507 H        42   C43       0.0615
   1345 H2'        19.0965  -51.8264  -68.7672 H        42   C43       0.0972
   1346 H1'        21.0333  -50.4424  -70.1231 H        42   C43       0.2029
   1347 H5         19.7084  -54.4601  -73.3456 H        42   C43       0.1928
   1348 H6         21.0390  -53.7176  -71.4590 H        42   C43       0.1958
   1349 H41        16.9669  -52.4152  -74.6586 H        42   C43       0.4234
   1350 H42        17.8802  -53.8996  -74.8092 H        42   C43       0.4234
   1351 HO2'       20.0078  -50.1982  -67.6324 H        42   C43       0.4186
   1352 P          19.4100  -53.9150  -66.2580 P.3      43   C44       1.1662
   1353 OP1        19.7410  -53.9740  -64.8120 O.co2    43   C44      -0.7760
   1354 OP2        18.8530  -55.1270  -66.9130 O.co2    43   C44      -0.7760
   1355 O5'        18.4700  -52.6630  -66.5430 O.3      43   C44      -0.4989
   1356 C5'        18.4690  -51.5370  -65.6790 C.3      43   C44       0.0558
   1357 C4'        17.1300  -50.8490  -65.6850 C.3      43   C44       0.1065
   1358 O4'        16.8970  -50.2440  -66.9830 O.3      43   C44      -0.3548
   1359 C3'        15.9260  -51.7540  -65.4740 C.3      43   C44       0.2022
   1360 O3'        15.6770  -52.0290  -64.1100 O.3      43   C44      -0.5246
   1361 C2'        14.8020  -50.9960  -66.1620 C.3      43   C44       0.0670
   1362 O2'        14.3200  -49.9500  -65.3330 O.3      43   C44      -0.6139
   1363 C1'        15.5400  -50.3780  -67.3470 C.3      43   C44       0.0066
   1364 N1         15.4680  -51.2340  -68.5450 N.am     43   C44      -0.0484
   1365 C2         14.4250  -51.0630  -69.4540 C.2      43   C44       0.7538
   1366 O2         13.5690  -50.1910  -69.2340 O.2      43   C44      -0.6252
   1367 N3         14.3750  -51.8580  -70.5480 N.2      43   C44      -0.7584
   1368 C4         15.3140  -52.7840  -70.7530 C.2      43   C44       0.8185
   1369 N4         15.2300  -53.5410  -71.8490 N.pl3    43   C44      -0.9530
   1370 C5         16.3880  -52.9730  -69.8400 C.2      43   C44      -0.5215
   1371 C6         16.4250  -52.1820  -68.7630 C.2      43   C44       0.0053
   1372 H5'        19.2320  -50.8331  -66.0113 H        43   C44       0.0679
   1373 H5''       18.6997  -51.8633  -64.6649 H        43   C44       0.0679
   1374 H4'        17.1270  -50.0694  -64.9233 H        43   C44       0.1174
   1375 H3'        16.0930  -52.6940  -66.0000 H        43   C44       0.0615
   1376 H2'        14.0009  -51.6612  -66.4842 H        43   C44       0.0972
   1377 H1'        15.1206  -49.3970  -67.5703 H        43   C44       0.2029
   1378 H5         17.1436  -53.7257  -70.0101 H        43   C44       0.1928
   1379 H6         17.2289  -52.2956  -68.0507 H        43   C44       0.1958
   1380 H41        14.4683  -53.4065  -72.4985 H        43   C44       0.4234
   1381 H42        15.9281  -54.2483  -72.0289 H        43   C44       0.4234
   1382 HO2'       13.8531  -50.3250  -64.5827 H        43   C44       0.4186
   1383 P          14.7640  -53.2820  -63.7040 P.3      44   A45       1.1662
   1384 OP1        15.5500  -54.5120  -63.9960 O.co2    44   A45      -0.7760
   1385 OP2        14.2880  -53.0470  -62.3140 O.co2    44   A45      -0.7760
   1386 O5'        13.5530  -53.1600  -64.7210 O.3      44   A45      -0.4989
   1387 C5'        12.3390  -53.8430  -64.4920 C.3      44   A45       0.0558
   1388 C4'        11.2430  -53.2970  -65.3590 C.3      44   A45       0.1065
   1389 O4'        11.8170  -52.6830  -66.5460 O.3      44   A45      -0.3548
   1390 C3'        10.2720  -54.3210  -65.9100 C.3      44   A45       0.2022
   1391 O3'         9.2770  -54.7020  -64.9780 O.3      44   A45      -0.5246
   1392 C2'         9.7360  -53.6270  -67.1510 C.3      44   A45       0.0670
   1393 O2'         8.8130  -52.6070  -66.7990 O.3      44   A45      -0.6139
   1394 C1'        11.0110  -52.9660  -67.6690 C.3      44   A45       0.0394
   1395 N9         11.7640  -53.8720  -68.5550 N.ar     44   A45      -0.0251
   1396 C8         12.9850  -54.4590  -68.3270 C.ar     44   A45       0.2006
   1397 N7         13.3950  -55.2350  -69.3040 N.ar     44   A45      -0.6073
   1398 C5         12.3700  -55.1590  -70.2370 C.ar     44   A45       0.0515
   1399 C6         12.1860  -55.7510  -71.5010 C.ar     44   A45       0.7009
   1400 N6         13.0560  -56.5790  -72.0860 N.pl3    44   A45      -0.9019
   1401 N1         11.0460  -55.4560  -72.1620 N.ar     44   A45      -0.7615
   1402 C2         10.1590  -54.6310  -71.5910 C.ar     44   A45       0.5875
   1403 N3         10.2180  -54.0150  -70.4160 N.ar     44   A45      -0.6997
   1404 C4         11.3610  -54.3240  -69.7840 C.ar     44   A45       0.3053
   1405 H5'        12.4774  -54.9006  -64.7164 H        44   A45       0.0679
   1406 H5''       12.0570  -53.7323  -63.4449 H        44   A45       0.0679
   1407 H4'        10.6880  -52.5434  -64.8003 H        44   A45       0.1174
   1408 H3'        10.8287  -55.2074  -66.2140 H        44   A45       0.0615
   1409 H2'         9.3167  -54.3322  -67.8687 H        44   A45       0.0972
   1410 H1'        10.7669  -52.0439  -68.1965 H        44   A45       0.2007
   1411 H8         13.5565  -54.2968  -67.4251 H        44   A45       0.1553
   1412 H2          9.2673  -54.4390  -72.1693 H        44   A45       0.0473
   1413 H61        12.9667  -56.7921  -73.0692 H        44   A45       0.4115
   1414 H62        13.8026  -56.9917  -71.5454 H        44   A45       0.4115
   1415 HO2'        8.0040  -53.0062  -66.4707 H        44   A45       0.4186
   1416 P           9.0100  -56.2620  -64.6890 P.3      45   C46       1.1662
   1417 OP1         8.2410  -56.3480  -63.4200 O.co2    45   C46      -0.7760
   1418 OP2        10.3190  -56.9600  -64.7800 O.co2    45   C46      -0.7760
   1419 O5'         8.0850  -56.6820  -65.9120 O.3      45   C46      -0.4989
   1420 C5'         7.0600  -55.8170  -66.3660 C.3      45   C46       0.0558
   1421 C4'         6.4200  -56.3350  -67.6230 C.3      45   C46       0.1065
   1422 O4'         7.2570  -56.0320  -68.7670 O.3      45   C46      -0.3548
   1423 C3'         6.2220  -57.8380  -67.6980 C.3      45   C46       0.2022
   1424 O3'         5.0820  -58.2760  -66.9790 O.3      45   C46      -0.5246
   1425 C2'         6.1290  -58.0790  -69.1980 C.3      45   C46       0.0670
   1426 O2'         4.8370  -57.7380  -69.6810 O.3      45   C46      -0.6139
   1427 C1'         7.1310  -57.0510  -69.7330 C.3      45   C46       0.0066
   1428 N1          8.4620  -57.6420  -69.9680 N.am     45   C46      -0.0484
   1429 C2          8.6760  -58.3230  -71.1640 C.2      45   C46       0.7538
   1430 O2          7.7380  -58.4060  -71.9690 O.2      45   C46      -0.6252
   1431 N3          9.8890  -58.8730  -71.4040 N.2      45   C46      -0.7584
   1432 C4         10.8640  -58.7520  -70.5030 C.2      45   C46       0.8185
   1433 N4         12.0400  -59.3060  -70.7860 N.pl3    45   C46      -0.9530
   1434 C5         10.6760  -58.0580  -69.2750 C.2      45   C46      -0.5215
   1435 C6          9.4690  -57.5220  -69.0510 C.2      45   C46       0.0053
   1436 H5'         7.4880  -54.8346  -66.5653 H        45   C46       0.0679
   1437 H5''        6.3002  -55.7250  -65.5899 H        45   C46       0.0679
   1438 H4'         5.4547  -55.8459  -67.7538 H        45   C46       0.1174
   1439 H3'         7.1082  -58.3379  -67.3072 H        45   C46       0.0615
   1440 H2'         6.4084  -59.0981  -69.4653 H        45   C46       0.0972
   1441 H1'         6.7533  -56.6254  -70.6627 H        45   C46       0.2029
   1442 H5         11.4740  -57.9671  -68.5530 H        45   C46       0.1928
   1443 H6          9.2883  -56.9862  -68.1309 H        45   C46       0.1958
   1444 H41        12.1697  -59.7975  -71.6587 H        45   C46       0.4234
   1445 H42        12.8030  -59.2351  -70.1281 H        45   C46       0.4234
   1446 HO2'        4.4544  -58.4933  -70.1334 H        45   C46       0.4186
   1447 P           4.9410  -59.8130  -66.5380 P.3      46   G47       1.1662
   1448 OP1         3.6830  -59.9280  -65.7540 O.co2    46   G47      -0.7760
   1449 OP2         6.2210  -60.2050  -65.8950 O.co2    46   G47      -0.7760
   1450 O5'         4.7800  -60.5640  -67.9290 O.3      46   G47      -0.4989
   1451 C5'         3.6300  -60.3660  -68.7340 C.3      46   G47       0.0558
   1452 C4'         3.6640  -61.2420  -69.9550 C.3      46   G47       0.1065
   1453 O4'         4.7100  -60.7870  -70.8520 O.3      46   G47      -0.3548
   1454 C3'         3.9870  -62.7070  -69.6990 C.3      46   G47       0.2022
   1455 O3'         2.8400  -63.4610  -69.3350 O.3      46   G47      -0.5246
   1456 C2'         4.6320  -63.1540  -71.0090 C.3      46   G47       0.0670
   1457 O2'         3.6440  -63.4420  -71.9870 O.3      46   G47      -0.6139
   1458 C1'         5.3710  -61.8880  -71.4320 C.3      46   G47       0.0191
   1459 N9          6.7690  -61.8760  -70.9710 N.ar     46   G47       0.0492
   1460 C8          7.2400  -61.2980  -69.8210 C.ar     46   G47       0.1374
   1461 N7          8.5330  -61.4230  -69.6760 N.ar     46   G47      -0.5709
   1462 C5          8.9390  -62.1230  -70.8050 C.ar     46   G47       0.1744
   1463 C6         10.2310  -62.5590  -71.2040 C.2      46   G47       0.4770
   1464 O6         11.3130  -62.4070  -70.6180 O.2      46   G47      -0.5597
   1465 N1         10.1860  -63.2360  -72.4190 N.am     46   G47      -0.4787
   1466 C2          9.0470  -63.4650  -73.1540 C.2      46   G47       0.7657
   1467 N2          9.2030  -64.1350  -74.3050 N.pl3    46   G47      -0.9672
   1468 N3          7.8390  -63.0620  -72.7900 N.2      46   G47      -0.6323
   1469 C4          7.8590  -62.4010  -71.6150 C.ar     46   G47       0.1222
   1470 H5'         2.7416  -60.6052  -68.1496 H        46   G47       0.0679
   1471 H5''        3.5848  -59.3218  -69.0434 H        46   G47       0.0679
   1472 H4'         2.7039  -61.1747  -70.4667 H        46   G47       0.1174
   1473 H3'         4.7244  -62.7736  -68.8991 H        46   G47       0.0615
   1474 H2'         5.3134  -63.9918  -70.8611 H        46   G47       0.0972
   1475 H1'         5.3451  -61.7972  -72.5179 H        46   G47       0.2006
   1476 H8          6.6074  -60.7910  -69.1075 H        46   G47       0.1640
   1477 H1         11.0578  -63.5863  -72.7896 H        46   G47       0.3424
   1478 H21        10.1218  -64.4436  -74.5891 H        46   G47       0.4364
   1479 H22         8.4018  -64.3310  -74.8878 H        46   G47       0.4364
   1480 HO2'        3.1140  -62.6579  -72.1476 H        46   G47       0.4186
   1481 P           2.9430  -64.6230  -68.2320 P.3      47   A48       1.1662
   1482 OP1         3.9450  -64.1930  -67.2250 O.co2    47   A48      -0.7760
   1483 OP2         1.5620  -64.9170  -67.7790 O.co2    47   A48      -0.7760
   1484 O5'         3.5090  -65.8460  -69.0720 O.3      47   A48      -0.4989
   1485 C5'         2.8930  -66.2390  -70.2880 C.3      47   A48       0.0558
   1486 C4'         3.7610  -67.2030  -71.0500 C.3      47   A48       0.1065
   1487 O4'         4.9770  -66.5330  -71.4650 O.3      47   A48      -0.3548
   1488 C3'         4.2430  -68.4140  -70.2670 C.3      47   A48       0.2022
   1489 O3'         3.2890  -69.4600  -70.2340 O.3      47   A48      -0.5246
   1490 C2'         5.5360  -68.7890  -70.9790 C.3      47   A48       0.0670
   1491 O2'         5.2660  -69.5320  -72.1600 O.3      47   A48      -0.6139
   1492 C1'         6.0700  -67.4170  -71.3850 C.3      47   A48       0.0394
   1493 N9          7.0240  -66.8810  -70.4020 N.ar     47   A48      -0.0251
   1494 C8          6.7890  -66.5510  -69.0910 C.ar     47   A48       0.2006
   1495 N7          7.8510  -66.0880  -68.4790 N.ar     47   A48      -0.6073
   1496 C5          8.8410  -66.1100  -69.4540 C.ar     47   A48       0.0515
   1497 C6         10.1940  -65.7420  -69.4370 C.ar     47   A48       0.7009
   1498 N6         10.8130  -65.2570  -68.3590 N.pl3    47   A48      -0.9019
   1499 N1         10.8960  -65.8930  -70.5790 N.ar     47   A48      -0.7615
   1500 C2         10.2720  -66.3790  -71.6580 C.ar     47   A48       0.5875
   1501 N3          9.0080  -66.7580  -71.8020 N.ar     47   A48      -0.6997
   1502 C4          8.3440  -66.5950  -70.6460 C.ar     47   A48       0.3053
   1503 H5'         2.7206  -65.3546  -70.9013 H        47   A48       0.0679
   1504 H5''        1.9371  -66.7144  -70.0681 H        47   A48       0.0679
   1505 H4'         3.2228  -67.5430  -71.9348 H        47   A48       0.1174
   1506 H3'         4.4736  -68.1096  -69.2461 H        47   A48       0.0615
   1507 H2'         6.2259  -69.3138  -70.3181 H        47   A48       0.0972
   1508 H1'         6.5528  -67.4881  -72.3596 H        47   A48       0.2007
   1509 H8          5.8271  -66.6616  -68.6126 H        47   A48       0.1553
   1510 H2         10.8864  -66.4773  -72.5408 H        47   A48       0.0473
   1511 H61        10.9220  -65.5786  -67.4078 H        47   A48       0.4115
   1512 H62        11.2735  -64.3749  -68.5322 H        47   A48       0.4115
   1513 HO2'        4.9288  -70.3990  -71.9231 H        47   A48       0.4186
   1514 P           2.7730  -70.0420  -68.8280 P.3      48   A49       1.1662
   1515 OP1         1.5840  -70.8830  -69.1160 O.co2    48   A49      -0.7760
   1516 OP2         2.6230  -68.8910  -67.9030 O.co2    48   A49      -0.7760
   1517 O5'         3.9880  -70.9580  -68.3570 O.3      48   A49      -0.4989
   1518 C5'         4.3980  -72.0820  -69.1210 C.3      48   A49       0.0558
   1519 C4'         5.6590  -72.6900  -68.5620 C.3      48   A49       0.1065
   1520 O4'         6.7250  -71.7090  -68.6050 O.3      48   A49      -0.3548
   1521 C3'         5.5990  -73.1200  -67.0980 C.3      48   A49       0.2022
   1522 O3'         5.0310  -74.4100  -66.9200 O.3      48   A49      -0.5246
   1523 C2'         7.0550  -73.0260  -66.6570 C.3      48   A49       0.0670
   1524 O2'         7.7850  -74.1650  -67.0810 O.3      48   A49      -0.6139
   1525 C1'         7.5400  -71.8230  -67.4610 C.3      48   A49       0.0394
   1526 N9          7.4420  -70.5690  -66.6960 N.ar     48   A49      -0.0251
   1527 C8          6.5690  -69.5250  -66.8810 C.ar     48   A49       0.2006
   1528 N7          6.7460  -68.5370  -66.0360 N.ar     48   A49      -0.6073
   1529 C5          7.8090  -68.9620  -65.2520 C.ar     48   A49       0.0515
   1530 C6          8.4880  -68.3740  -64.1730 C.ar     48   A49       0.7009
   1531 N6          8.1810  -67.1760  -63.6710 N.pl3    48   A49      -0.9019
   1532 N1          9.5040  -69.0730  -63.6150 N.ar     48   A49      -0.7615
   1533 C2          9.8110  -70.2760  -64.1140 C.ar     48   A49       0.5875
   1534 N3          9.2520  -70.9330  -65.1240 N.ar     48   A49      -0.6997
   1535 C4          8.2500  -70.2110  -65.6510 C.ar     48   A49       0.3053
   1536 H5'         4.5807  -71.7662  -70.1481 H        48   A49       0.0679
   1537 H5''        3.6051  -72.8299  -69.1118 H        48   A49       0.0679
   1538 H4'         5.9408  -73.5477  -69.1728 H        48   A49       0.1174
   1539 H3'         5.0108  -72.3928  -66.5382 H        48   A49       0.0615
   1540 H2'         7.1453  -72.8612  -65.5833 H        48   A49       0.0972
   1541 H1'         8.5742  -71.9828  -67.7660 H        48   A49       0.2007
   1542 H8          5.8094  -69.5180  -67.6487 H        48   A49       0.1553
   1543 H2         10.6293  -70.7849  -63.6264 H        48   A49       0.0473
   1544 HO2'        8.6116  -73.8852  -67.4811 H        48   A49       0.4186
   1545 H61         9.0107  -66.7675  -63.2650 H        48   A49       0.4115
   1546 H62         7.2668  -66.7472  -63.6935 H        48   A49       0.4115
   1547 P           3.9760  -74.6790  -65.7330 P.3      49   U50       1.1662
   1548 OP1         3.3890  -76.0220  -65.9660 O.co2    49   U50      -0.7760
   1549 OP2         3.0660  -73.5080  -65.6780 O.co2    49   U50      -0.7760
   1550 O5'         4.9020  -74.7070  -64.4350 O.3      49   U50      -0.4989
   1551 C5'         5.8760  -75.7220  -64.2540 C.3      49   U50       0.0558
   1552 C4'         6.8060  -75.3940  -63.1140 C.3      49   U50       0.1065
   1553 O4'         7.5430  -74.1830  -63.4160 O.3      49   U50      -0.3548
   1554 C3'         6.1430  -75.1000  -61.7760 C.3      49   U50       0.2022
   1555 O3'         5.8030  -76.2740  -61.0630 O.3      49   U50      -0.5246
   1556 C2'         7.1790  -74.2380  -61.0660 C.3      49   U50       0.0670
   1557 O2'         8.2040  -75.0440  -60.5010 O.3      49   U50      -0.6139
   1558 C1'         7.7730  -73.4490  -62.2320 C.3      49   U50       0.0674
   1559 N1          7.1570  -72.1130  -62.3750 N.am     49   U50       0.0418
   1560 C2          7.5950  -71.1320  -61.5080 C.2      49   U50       0.4687
   1561 O2          8.4350  -71.3440  -60.6490 O.2      49   U50      -0.5477
   1562 N3          7.0080  -69.9020  -61.6790 N.am     49   U50      -0.3549
   1563 C4          6.0560  -69.5640  -62.6160 C.2      49   U50       0.5952
   1564 O4          5.6260  -68.4100  -62.6460 O.2      49   U50      -0.5761
   1565 C5          5.6610  -70.6340  -63.4800 C.2      49   U50      -0.3635
   1566 C6          6.2110  -71.8440  -63.3370 C.2      49   U50      -0.1126
   1567 H5'         6.4588  -75.8215  -65.1697 H        49   U50       0.0679
   1568 H5''        5.3737  -76.6666  -64.0453 H        49   U50       0.0679
   1569 H4'         7.5117  -76.2148  -62.9861 H        49   U50       0.1174
   1570 H3'         5.2420  -74.5103  -61.9450 H        49   U50       0.0615
   1571 H2'         6.7222  -73.5832  -60.3239 H        49   U50       0.0972
   1572 H1'         8.8466  -73.3363  -62.0809 H        49   U50       0.1824
   1573 H3          7.3055  -69.1682  -61.0520 H        49   U50       0.3154
   1574 H5          4.9195  -70.4643  -64.2467 H        49   U50       0.1811
   1575 H6          5.9018  -72.6384  -64.0001 H        49   U50       0.2188
   1576 HO2'        7.8471  -75.5474  -59.7656 H        49   U50       0.4186
   1577 P           4.6050  -76.2530  -59.9950 P.3      50   C51       1.1662
   1578 OP1         4.4920  -77.6260  -59.4440 O.co2    50   C51      -0.7760
   1579 OP2         3.4250  -75.6540  -60.6700 O.co2    50   C51      -0.7760
   1580 O5'         5.1440  -75.2630  -58.8700 O.3      50   C51      -0.4989
   1581 C5'         6.0340  -75.7190  -57.8630 C.3      50   C51       0.0558
   1582 C4'         6.3580  -74.6280  -56.8750 C.3      50   C51       0.1065
   1583 O4'         6.8940  -73.4730  -57.5760 O.3      50   C51      -0.3548
   1584 C3'         5.1830  -74.0630  -56.0920 C.3      50   C51       0.2022
   1585 O3'         4.8000  -74.8750  -54.9960 O.3      50   C51      -0.5246
   1586 C2'         5.6930  -72.6880  -55.6890 C.3      50   C51       0.0670
   1587 O2'         6.6200  -72.7910  -54.6170 O.3      50   C51      -0.6139
   1588 C1'         6.4580  -72.2850  -56.9460 C.3      50   C51       0.0066
   1589 N1          5.6020  -71.5390  -57.8920 N.am     50   C51      -0.0484
   1590 C2          5.4900  -70.1550  -57.7490 C.2      50   C51       0.7538
   1591 O2          6.1140  -69.5990  -56.8340 O.2      50   C51      -0.6252
   1592 N3          4.7060  -69.4610  -58.6070 N.2      50   C51      -0.7584
   1593 C4          4.0510  -70.1010  -59.5770 C.2      50   C51       0.8185
   1594 N4          3.2900  -69.3800  -60.4030 N.pl3    50   C51      -0.9530
   1595 C5          4.1470  -71.5110  -59.7470 C.2      50   C51      -0.5215
   1596 C6          4.9250  -72.1840  -58.8900 C.2      50   C51       0.0053
   1597 H5'         5.5713  -76.5510  -57.3322 H        50   C51       0.0679
   1598 H5''        6.9566  -76.0627  -58.3308 H        50   C51       0.0679
   1599 H4'         7.1070  -74.9959  -56.1738 H        50   C51       0.1174
   1600 H3'         4.3318  -73.9449  -56.7625 H        50   C51       0.0615
   1601 H2'         4.8798  -71.9979  -55.4640 H        50   C51       0.0972
   1602 H1'         7.3200  -71.6766  -56.6723 H        50   C51       0.2029
   1603 H5          3.6129  -72.0183  -60.5368 H        50   C51       0.1928
   1604 H6          5.0196  -73.2553  -58.9886 H        50   C51       0.1958
   1605 H41         3.2222  -68.3794  -60.2831 H        50   C51       0.4234
   1606 H42         2.7819  -69.8349  -61.1480 H        50   C51       0.4234
   1607 HO2'        6.4723  -72.0735  -53.9965 H        50   C51       0.4186
   1608 P           3.3360  -74.7200  -54.3470 P.3      51   C52       1.1662
   1609 OP1         2.3540  -74.7430  -55.4610 O.co2    51   C52      -0.7760
   1610 OP2         3.2240  -75.7440  -53.2800 O.co2    51   C52      -0.7760
   1611 O5'         3.3870  -73.2670  -53.7000 O.3      51   C52      -0.4989
   1612 C5'         4.1550  -73.0120  -52.5340 C.3      51   C52       0.0558
   1613 C4'         3.8030  -71.6790  -51.9240 C.3      51   C52       0.1065
   1614 O4'         4.2280  -70.6070  -52.8090 O.3      51   C52      -0.3548
   1615 C3'         2.3200  -71.4130  -51.7190 C.3      51   C52       0.2022
   1616 O3'         1.7970  -72.0210  -50.5520 O.3      51   C52      -0.5246
   1617 C2'         2.2600  -69.8950  -51.6980 C.3      51   C52       0.0670
   1618 O2'         2.7270  -69.3920  -50.4550 O.3      51   C52      -0.6139
   1619 C1'         3.2880  -69.5520  -52.7710 C.3      51   C52       0.0066
   1620 N1          2.6670  -69.4320  -54.1080 N.am     51   C52      -0.0484
   1621 C2          2.1470  -68.2010  -54.5180 C.2      51   C52       0.7538
   1622 O2          2.2190  -67.2320  -53.7470 O.2      51   C52      -0.6252
   1623 N3          1.5790  -68.0970  -55.7430 N.2      51   C52      -0.7584
   1624 C4          1.5210  -69.1630  -56.5450 C.2      51   C52       0.8185
   1625 N4          0.9540  -69.0230  -57.7460 N.pl3    51   C52      -0.9530
   1626 C5          2.0420  -70.4280  -56.1500 C.2      51   C52      -0.5215
   1627 C6          2.6000  -70.5160  -54.9360 C.2      51   C52       0.0053
   1628 H5'         3.9624  -73.7980  -51.8037 H        51   C52       0.0679
   1629 H5''        5.2134  -73.0176  -52.7946 H        51   C52       0.0679
   1630 H4'         4.3182  -71.5774  -50.9688 H        51   C52       0.1174
   1631 H3'         1.7704  -71.7782  -52.5866 H        51   C52       0.0615
   1632 H2'         1.2670  -69.5199  -51.9458 H        51   C52       0.0972
   1633 H1'         3.7912  -68.6199  -52.5140 H        51   C52       0.2029
   1634 H5          1.9890  -71.2848  -56.8054 H        51   C52       0.1928
   1635 H6          3.0044  -71.4614  -54.6056 H        51   C52       0.1958
   1636 H41         0.5831  -68.1269  -58.0280 H        51   C52       0.4234
   1637 H42         0.8961  -69.8132  -58.3723 H        51   C52       0.4234
   1638 HO2'        2.0284  -68.8892  -50.0299 H        51   C52       0.4186
   1639 P           0.2380  -72.3970  -50.4790 P.3      52   A53       1.1662
   1640 OP1        -0.1360  -72.9620  -51.7980 O.co2    52   A53      -0.7760
   1641 OP2         0.0450  -73.2290  -49.2660 O.co2    52   A53      -0.7760
   1642 O5'        -0.4570  -70.9800  -50.2800 O.3      52   A53      -0.4989
   1643 C5'        -0.1140  -70.1510  -49.1810 C.3      52   A53       0.0558
   1644 C4'        -0.8010  -68.8120  -49.2640 C.3      52   A53       0.1065
   1645 O4'        -0.2500  -68.0430  -50.3630 O.3      52   A53      -0.3548
   1646 C3'        -2.2910  -68.8470  -49.5530 C.3      52   A53       0.2022
   1647 O3'        -3.0700  -69.1220  -48.4030 O.3      52   A53      -0.5246
   1648 C2'        -2.5450  -67.4690  -50.1480 C.3      52   A53       0.0670
   1649 O2'        -2.6180  -66.4870  -49.1260 O.3      52   A53      -0.6139
   1650 C1'        -1.2590  -67.2430  -50.9440 C.3      52   A53       0.0394
   1651 N9         -1.4080  -67.6260  -52.3610 N.ar     52   A53      -0.0251
   1652 C8         -1.1170  -68.8340  -52.9470 C.ar     52   A53       0.2006
   1653 N7         -1.3500  -68.8640  -54.2380 N.ar     52   A53      -0.6073
   1654 C5         -1.8260  -67.5900  -54.5250 C.ar     52   A53       0.0515
   1655 C6         -2.2540  -66.9810  -55.7220 C.ar     52   A53       0.7009
   1656 N6         -2.2790  -67.5960  -56.9100 N.pl3    52   A53      -0.9019
   1657 N1         -2.6640  -65.6950  -55.6550 N.ar     52   A53      -0.7615
   1658 C2         -2.6430  -65.0750  -54.4670 C.ar     52   A53       0.5875
   1659 N3         -2.2650  -65.5390  -53.2780 N.ar     52   A53      -0.6997
   1660 C4         -1.8620  -66.8170  -53.3760 C.ar     52   A53       0.3053
   1661 H5'        -0.4133  -70.6459  -48.2571 H        52   A53       0.0679
   1662 H5''        0.9653  -69.9989  -49.1714 H        52   A53       0.0679
   1663 H4'        -0.6335  -68.2698  -48.3334 H        52   A53       0.1174
   1664 H3'        -2.4907  -69.6056  -50.3098 H        52   A53       0.0615
   1665 H2'        -3.4275  -67.4577  -50.7877 H        52   A53       0.0972
   1666 H1'        -0.9720  -66.1934  -50.8799 H        52   A53       0.2007
   1667 H8         -0.7324  -69.6799  -52.3966 H        52   A53       0.1553
   1668 H2         -2.9821  -64.0497  -54.4756 H        52   A53       0.0473
   1669 H61        -1.9783  -68.5571  -56.9876 H        52   A53       0.4115
   1670 H62        -2.5986  -67.0992  -57.7292 H        52   A53       0.4115
   1671 HO2'       -3.3395  -65.8823  -49.3142 H        52   A53       0.4186
   1672 P          -4.4860  -69.8620  -48.5510 P.3      53   U54       1.1662
   1673 OP1        -4.9600  -70.1770  -47.1810 O.co2    53   U54      -0.7760
   1674 OP2        -4.2980  -70.9730  -49.5140 O.co2    53   U54      -0.7760
   1675 O5'        -5.4060  -68.7340  -49.1980 O.3      53   U54      -0.4989
   1676 C5'        -5.6360  -67.5070  -48.5220 C.3      53   U54       0.0558
   1677 C4'        -6.6500  -66.6560  -49.2440 C.3      53   U54       0.1065
   1678 O4'        -6.0210  -65.9690  -50.3550 O.3      53   U54      -0.3548
   1679 C3'        -7.8140  -67.3970  -49.8830 C.3      53   U54       0.2022
   1680 O3'        -8.8220  -67.7540  -48.9520 O.3      53   U54      -0.6541
   1681 C2'        -8.2850  -66.4160  -50.9520 C.3      53   U54       0.0670
   1682 O2'        -9.1050  -65.4050  -50.3820 O.3      53   U54      -0.6139
   1683 C1'        -6.9620  -65.7790  -51.3930 C.3      53   U54       0.0674
   1684 N1         -6.4350  -66.3910  -52.6330 N.am     53   U54       0.0418
   1685 C2         -6.4750  -65.6360  -53.7970 C.2      53   U54       0.4687
   1686 O2         -6.9130  -64.4980  -53.8400 O.2      53   U54      -0.5477
   1687 N3         -5.9820  -66.2610  -54.9170 N.am     53   U54      -0.3549
   1688 C4         -5.4610  -67.5390  -54.9870 C.2      53   U54       0.5952
   1689 O4         -5.0540  -67.9650  -56.0690 O.2      53   U54      -0.5761
   1690 C5         -5.4530  -68.2550  -53.7450 C.2      53   U54      -0.3635
   1691 C6         -5.9310  -67.6710  -52.6390 C.2      53   U54      -0.1126
   1692 H5'        -4.6966  -66.9582  -48.4563 H        53   U54       0.0679
   1693 H5''       -5.9979  -67.7165  -47.5154 H        53   U54       0.0679
   1694 H4'        -7.0443  -65.9140  -48.5497 H        53   U54       0.1174
   1695 H3'        -7.4399  -68.2992  -50.3669 H        53   U54       0.0615
   1696 H2'        -8.7841  -66.9248  -51.7767 H        53   U54       0.0972
   1697 H1'        -7.1116  -64.7113  -51.5532 H        53   U54       0.1824
   1698 H3         -6.0025  -65.7321  -55.7772 H        53   U54       0.3154
   1699 H5         -5.0631  -69.2612  -53.7016 H        53   U54       0.1811
   1700 H6         -5.9204  -68.2277  -51.7136 H        53   U54       0.2188
   1701 HO2'       -9.9385  -65.7893  -50.1006 H        53   U54       0.4186
   1702 HO3'       -9.5291  -68.2170  -49.4072 H        53   U54       0.4376
   1703 O5'         3.6530  -59.0110  -56.5600 O.3      54   G58      -0.6223
   1704 C5'         3.4550  -58.8600  -55.1610 C.3      54   G58       0.0558
   1705 C4'         3.9700  -60.0530  -54.3920 C.3      54   G58       0.1065
   1706 O4'         3.0750  -61.1820  -54.5670 O.3      54   G58      -0.3548
   1707 C3'         5.3240  -60.5910  -54.8200 C.3      54   G58       0.2022
   1708 O3'         6.4060  -59.8370  -54.3040 O.3      54   G58      -0.5246
   1709 C2'         5.2810  -62.0300  -54.3180 C.3      54   G58       0.0670
   1710 O2'         5.5430  -62.0850  -52.9240 O.3      54   G58      -0.6139
   1711 C1'         3.8120  -62.3860  -54.5490 C.3      54   G58       0.0191
   1712 N9          3.6060  -63.0820  -55.8330 N.ar     54   G58       0.0492
   1713 C8          2.9560  -62.6030  -56.9460 C.ar     54   G58       0.1374
   1714 N7          2.9340  -63.4560  -57.9350 N.ar     54   G58      -0.5709
   1715 C5          3.6100  -64.5670  -57.4470 C.ar     54   G58       0.1744
   1716 C6          3.9070  -65.8100  -58.0640 C.2      54   G58       0.4770
   1717 O6          3.6200  -66.1890  -59.2070 O.2      54   G58      -0.5597
   1718 N1          4.6130  -66.6510  -57.2060 N.am     54   G58      -0.4787
   1719 C2          4.9860  -66.3420  -55.9200 C.2      54   G58       0.7657
   1720 N2          5.6610  -67.2860  -55.2460 N.pl3    54   G58      -0.9672
   1721 N3          4.7150  -65.1860  -55.3350 N.2      54   G58      -0.6323
   1722 C4          4.0280  -64.3540  -56.1490 C.ar     54   G58       0.1222
   1723 H5'         3.9829  -57.9679  -54.8239 H        54   G58       0.0679
   1724 H5''        2.3899  -58.7404  -54.9624 H        54   G58       0.0679
   1725 H4'         4.0115  -59.7978  -53.3331 H        54   G58       0.1174
   1726 H3'         5.3786  -60.5944  -55.9086 H        54   G58       0.0615
   1727 H2'         5.9504  -62.6782  -54.8835 H        54   G58       0.0972
   1728 H1'         3.4583  -63.0164  -53.7332 H        54   G58       0.2006
   1729 H8          2.5090  -61.6212  -56.9973 H        54   G58       0.1640
   1730 H1          4.8716  -67.5617  -57.5579 H        54   G58       0.3424
   1731 H21         5.8702  -68.1698  -55.6878 H        54   G58       0.4364
   1732 H22         5.9598  -67.1126  -54.2969 H        54   G58       0.4364
   1733 HO2'        6.1540  -62.8026  -52.7413 H        54   G58       0.4186
   1734 HO5'        3.3016  -58.3673  -57.1796 H        54   G58       0.4295
   1735 P           7.7590  -59.6760  -55.1560 P.3      55   A59       1.1662
   1736 OP1         8.6250  -58.7200  -54.4230 O.co2    55   A59      -0.7760
   1737 OP2         7.3650  -59.3570  -56.5510 O.co2    55   A59      -0.7760
   1738 O5'         8.3880  -61.1350  -55.0900 O.3      55   A59      -0.4989
   1739 C5'         8.6340  -61.7650  -53.8420 C.3      55   A59       0.0558
   1740 C4'         9.0820  -63.1920  -54.0210 C.3      55   A59       0.1065
   1741 O4'         7.9690  -64.0090  -54.4710 O.3      55   A59      -0.3548
   1742 C3'        10.1550  -63.4280  -55.0710 C.3      55   A59       0.2022
   1743 O3'        11.4590  -63.1070  -54.6150 O.3      55   A59      -0.5246
   1744 C2'         9.9630  -64.9010  -55.4120 C.3      55   A59       0.0670
   1745 O2'        10.5400  -65.7280  -54.4120 O.3      55   A59      -0.6139
   1746 C1'         8.4400  -65.0330  -55.3240 C.3      55   A59       0.0394
   1747 N9          7.7890  -64.8860  -56.6420 N.ar     55   A59      -0.0251
   1748 C8          7.0640  -63.8150  -57.1070 C.ar     55   A59       0.2006
   1749 N7          6.5980  -63.9780  -58.3230 N.ar     55   A59      -0.6073
   1750 C5          7.0370  -65.2460  -58.6850 C.ar     55   A59       0.0515
   1751 C6          6.8720  -66.0090  -59.8580 C.ar     55   A59       0.7009
   1752 N6          6.1940  -65.5880  -60.9300 N.pl3    55   A59      -0.9019
   1753 N1          7.4390  -67.2370  -59.8940 N.ar     55   A59      -0.7615
   1754 C2          8.1210  -67.6600  -58.8210 C.ar     55   A59       0.5875
   1755 N3          8.3450  -67.0370  -57.6650 N.ar     55   A59      -0.6997
   1756 C4          7.7690  -65.8200  -57.6580 C.ar     55   A59       0.3053
   1757 H5'         9.4122  -61.2134  -53.3146 H        55   A59       0.0679
   1758 H5''        7.7203  -61.7495  -53.2479 H        55   A59       0.0679
   1759 H4'         9.4355  -63.5738  -53.0632 H        55   A59       0.1174
   1760 H3'         9.9286  -62.8270  -55.9517 H        55   A59       0.0615
   1761 H2'        10.3370  -65.1420  -56.4071 H        55   A59       0.0972
   1762 H1'         8.1844  -66.0040  -54.8999 H        55   A59       0.2007
   1763 H8          6.8934  -62.9213  -56.5251 H        55   A59       0.1553
   1764 H2          8.5506  -68.6473  -58.9054 H        55   A59       0.0473
   1765 HO2'       11.4560  -65.9091  -54.6352 H        55   A59       0.4186
   1766 H61         6.1529  -66.5164  -61.3256 H        55   A59       0.4115
   1767 H62         5.8530  -64.6859  -61.2300 H        55   A59       0.4115
   1768 P          12.6680  -62.9510  -55.6650 P.3      56   U60       1.1662
   1769 OP1        12.0940  -62.4060  -56.9180 O.co2    56   U60      -0.7760
   1770 OP2        13.7450  -62.1910  -54.9860 O.co2    56   U60      -0.7760
   1771 O5'        13.1290  -64.4560  -55.8890 O.3      56   U60      -0.4989
   1772 C5'        13.8870  -64.8190  -57.0260 C.3      56   U60       0.0558
   1773 C4'        13.2090  -65.9080  -57.8130 C.3      56   U60       0.1065
   1774 O4'        11.7820  -65.6690  -57.8600 O.3      56   U60      -0.3548
   1775 C3'        13.6130  -66.0130  -59.2710 C.3      56   U60       0.2022
   1776 O3'        14.8290  -66.7070  -59.4470 O.3      56   U60      -0.5246
   1777 C2'        12.4140  -66.7030  -59.9120 C.3      56   U60       0.0670
   1778 O2'        12.4810  -68.1080  -59.7180 O.3      56   U60      -0.6139
   1779 C1'        11.2540  -66.1530  -59.0770 C.3      56   U60       0.0674
   1780 N1         10.5270  -65.0510  -59.7580 N.am     56   U60       0.0418
   1781 C2         10.0310  -65.2670  -61.0340 C.2      56   U60       0.4687
   1782 O2         10.1840  -66.3110  -61.6450 O.2      56   U60      -0.5477
   1783 N3          9.3490  -64.2020  -61.5820 N.am     56   U60      -0.3549
   1784 C4          9.1020  -62.9720  -60.9980 C.2      56   U60       0.5952
   1785 O4          8.4680  -62.1150  -61.6240 O.2      56   U60      -0.5761
   1786 C5          9.6330  -62.8310  -59.6750 C.2      56   U60      -0.3635
   1787 C6         10.3020  -63.8500  -59.1170 C.2      56   U60      -0.1126
   1788 H5'        14.8656  -65.1728  -56.7015 H        56   U60       0.0679
   1789 H5''       14.0163  -63.9445  -57.6637 H        56   U60       0.0679
   1790 H4'        13.3923  -66.8650  -57.3245 H        56   U60       0.1174
   1791 H3'        13.7115  -65.0102  -59.6867 H        56   U60       0.0615
   1792 H2'        12.3131  -66.4439  -60.9659 H        56   U60       0.0972
   1793 H1'        10.5548  -66.9616  -58.8642 H        56   U60       0.1824
   1794 H3          8.9885  -64.3344  -62.5161 H        56   U60       0.3154
   1795 H5          9.4951  -61.9088  -59.1301 H        56   U60       0.1811
   1796 H6         10.6843  -63.7245  -58.1148 H        56   U60       0.2188
   1797 HO2'       13.2045  -68.4688  -60.2356 H        56   U60       0.4186
   1798 P          16.1130  -65.9360  -60.0150 P.3      57   U61       1.1662
   1799 OP1        15.8570  -64.4820  -59.8470 O.co2    57   U61      -0.7760
   1800 OP2        17.3050  -66.5310  -59.3620 O.co2    57   U61      -0.7760
   1801 O5'        16.0910  -66.3210  -61.5610 O.3      57   U61      -0.4989
   1802 C5'        15.7760  -67.6430  -61.9800 C.3      57   U61       0.0558
   1803 C4'        14.9720  -67.6390  -63.2570 C.3      57   U61       0.1065
   1804 O4'        13.6550  -67.0950  -63.0000 O.3      57   U61      -0.3548
   1805 C3'        15.5320  -66.7860  -64.3860 C.3      57   U61       0.2022
   1806 O3'        16.4960  -67.4810  -65.1620 O.3      57   U61      -0.5246
   1807 C2'        14.2910  -66.3880  -65.1840 C.3      57   U61       0.0670
   1808 O2'        13.9510  -67.4010  -66.1180 O.3      57   U61      -0.6139
   1809 C1'        13.2070  -66.3460  -64.1050 C.3      57   U61       0.0674
   1810 N1         12.8980  -64.9690  -63.6460 N.am     57   U61       0.0418
   1811 C2         11.6690  -64.4340  -64.0000 C.2      57   U61       0.4687
   1812 O2         10.8690  -65.0310  -64.7010 O.2      57   U61      -0.5477
   1813 N3         11.4140  -63.1670  -63.5210 N.am     57   U61      -0.3549
   1814 C4         12.2400  -62.3970  -62.7230 C.2      57   U61       0.5952
   1815 O4         11.8760  -61.2700  -62.3660 O.2      57   U61      -0.5761
   1816 C5         13.4850  -63.0290  -62.3900 C.2      57   U61      -0.3635
   1817 C6         13.7620  -64.2610  -62.8420 C.2      57   U61      -0.1126
   1818 H5'        16.7026  -68.1925  -62.1462 H        57   U61       0.0679
   1819 H5''       15.2017  -68.1388  -61.1974 H        57   U61       0.0679
   1820 H4'        14.8665  -68.6649  -63.6098 H        57   U61       0.1174
   1821 H3'        15.9893  -65.8906  -63.9651 H        57   U61       0.0615
   1822 H2'        14.4162  -65.4192  -65.6676 H        57   U61       0.0972
   1823 H1'        12.2979  -66.8016  -64.4974 H        57   U61       0.1824
   1824 H3         10.5284  -62.7568  -63.7809 H        57   U61       0.3154
   1825 H5         14.2026  -62.5097  -61.7721 H        57   U61       0.1811
   1826 H6         14.7012  -64.7159  -62.5638 H        57   U61       0.2188
   1827 HO2'       14.6212  -67.4423  -66.8041 H        57   U61       0.4186
   1828 P          18.0650  -67.3310  -64.8460 P.3      58   G62       1.1662
   1829 OP1        18.2440  -67.5300  -63.3860 O.co2    58   G62      -0.7760
   1830 OP2        18.7850  -68.2340  -65.7790 O.co2    58   G62      -0.7760
   1831 O5'        18.3540  -65.8120  -65.2270 O.3      58   G62      -0.4989
   1832 C5'        19.6810  -65.3200  -65.2980 C.3      58   G62       0.0558
   1833 C4'        20.3820  -65.8040  -66.5410 C.3      58   G62       0.1065
   1834 O4'        19.4100  -66.1070  -67.5660 O.3      58   G62      -0.3548
   1835 C3'        21.3360  -64.8140  -67.1810 C.3      58   G62       0.2022
   1836 O3'        22.6270  -64.8830  -66.6100 O.3      58   G62      -0.5246
   1837 C2'        21.3120  -65.1890  -68.6580 C.3      58   G62       0.0670
   1838 O2'        22.2390  -66.2310  -68.9210 O.3      58   G62      -0.6139
   1839 C1'        19.9010  -65.7460  -68.8330 C.3      58   G62       0.0191
   1840 N9         18.9610  -64.7790  -69.4270 N.ar     58   G62       0.0492
   1841 C8         18.2820  -63.8060  -68.7390 C.ar     58   G62       0.1374
   1842 N7         17.4590  -63.1230  -69.4860 N.ar     58   G62      -0.5709
   1843 C5         17.5790  -63.6980  -70.7410 C.ar     58   G62       0.1744
   1844 C6         16.9200  -63.3740  -71.9570 C.2      58   G62       0.4770
   1845 O6         16.0810  -62.4860  -72.1590 O.2      58   G62      -0.5597
   1846 N1         17.3270  -64.2000  -73.0010 N.am     58   G62      -0.4787
   1847 C2         18.2500  -65.2080  -72.8840 C.2      58   G62       0.7657
   1848 N2         18.5090  -65.8930  -74.0080 N.pl3    58   G62      -0.9672
   1849 N3         18.8690  -65.5200  -71.7520 N.2      58   G62      -0.6323
   1850 C4         18.4910  -64.7320  -70.7230 C.ar     58   G62       0.1222
   1851 H5'        20.2334  -65.6632  -64.4233 H        58   G62       0.0679
   1852 H5''       19.6585  -64.2302  -65.3017 H        58   G62       0.0679
   1853 H4'        20.9318  -66.7140  -66.3005 H        58   G62       0.1174
   1854 H3'        20.9423  -63.8049  -67.0595 H        58   G62       0.0615
   1855 H2'        21.4861  -64.3233  -69.2970 H        58   G62       0.0972
   1856 H1'        19.9445  -66.6337  -69.4640 H        58   G62       0.2006
   1857 H8         18.4155  -63.6233  -67.6830 H        58   G62       0.1640
   1858 H1         16.9132  -64.0461  -73.9094 H        58   G62       0.3424
   1859 H21        18.0350  -65.6521  -74.8667 H        58   G62       0.4364
   1860 H22        19.1780  -66.6496  -73.9955 H        58   G62       0.4364
   1861 HO2'       21.9322  -66.7523  -69.6665 H        58   G62       0.4186
   1862 P          23.2940  -63.5830  -65.9570 P.3      59   A63       1.1662
   1863 OP1        24.0140  -64.0310  -64.7400 O.co2    59   A63      -0.7760
   1864 OP2        22.2290  -62.5590  -65.8210 O.co2    59   A63      -0.7760
   1865 O5'        24.3360  -63.1360  -67.0690 O.3      59   A63      -0.4989
   1866 C5'        25.2240  -64.0790  -67.6470 C.3      59   A63       0.0558
   1867 C4'        25.4070  -63.8240  -69.1150 C.3      59   A63       0.1065
   1868 O4'        24.1690  -64.0950  -69.8110 O.3      59   A63      -0.3548
   1869 C3'        25.7540  -62.3960  -69.4920 C.3      59   A63       0.2022
   1870 O3'        27.1420  -62.1350  -69.3850 O.3      59   A63      -0.5246
   1871 C2'        25.2220  -62.2700  -70.9160 C.3      59   A63       0.0670
   1872 O2'        26.1630  -62.7730  -71.8520 O.3      59   A63      -0.6139
   1873 C1'        24.0150  -63.2090  -70.8930 C.3      59   A63       0.0394
   1874 N9         22.7380  -62.4900  -70.7300 N.ar     59   A63      -0.0251
   1875 C8         22.2560  -61.8200  -69.6340 C.ar     59   A63       0.2006
   1876 N7         21.0610  -61.3040  -69.8200 N.ar     59   A63      -0.6073
   1877 C5         20.7310  -61.6690  -71.1210 C.ar     59   A63       0.0515
   1878 C6         19.5960  -61.4390  -71.9270 C.ar     59   A63       0.7009
   1879 N6         18.5240  -60.7500  -71.5330 N.pl3    59   A63      -0.9019
   1880 N1         19.5960  -61.9420  -73.1780 N.ar     59   A63      -0.7615
   1881 C2         20.6650  -62.6320  -73.5870 C.ar     59   A63       0.5875
   1882 N3         21.7860  -62.9200  -72.9300 N.ar     59   A63      -0.6997
   1883 C4         21.7560  -62.4030  -71.6890 C.ar     59   A63       0.3053
   1884 H5'        26.1916  -64.0067  -67.1504 H        59   A63       0.0679
   1885 H5''       24.8228  -65.0825  -67.5051 H        59   A63       0.0679
   1886 H4'        26.1813  -64.4895  -69.4966 H        59   A63       0.1174
   1887 H3'        25.2087  -61.7107  -68.8430 H        59   A63       0.0615
   1888 H2'        24.9310  -61.2455  -71.1482 H        59   A63       0.0972
   1889 H1'        23.9881  -63.7796  -71.8213 H        59   A63       0.2007
   1890 H8         22.8047  -61.7256  -68.7086 H        59   A63       0.1553
   1891 H2         20.6114  -63.0108  -74.5970 H        59   A63       0.0473
   1892 HO2'       25.8723  -62.5637  -72.7427 H        59   A63       0.4186
   1893 H61        18.4902  -60.3566  -70.6034 H        59   A63       0.4115
   1894 H62        17.7461  -60.6217  -72.1643 H        59   A63       0.4115
   1895 P          27.6760  -60.7950  -68.6780 P.3      60   U64       1.1662
   1896 OP1        27.0860  -60.7510  -67.3140 O.co2    60   U64      -0.7760
   1897 OP2        29.1580  -60.7940  -68.8180 O.co2    60   U64      -0.7760
   1898 O5'        27.0420  -59.6430  -69.5810 O.3      60   U64      -0.4989
   1899 C5'        27.3460  -59.5510  -70.9700 C.3      60   U64       0.0558
   1900 C4'        28.5950  -58.7410  -71.2120 C.3      60   U64       0.1065
   1901 O4'        28.9560  -58.8150  -72.6210 O.3      60   U64      -0.3548
   1902 C3'        28.4790  -57.2530  -70.8880 C.3      60   U64       0.2022
   1903 O3'        29.7530  -56.7740  -70.4620 O.3      60   U64      -0.5246
   1904 C2'        28.1540  -56.6570  -72.2510 C.3      60   U64       0.0670
   1905 O2'        28.4390  -55.2820  -72.3760 O.3      60   U64      -0.6139
   1906 C1'        29.0460  -57.5050  -73.1460 C.3      60   U64       0.0674
   1907 N1         28.6390  -57.5340  -74.5640 N.am     60   U64       0.0418
   1908 C2         29.6130  -57.9080  -75.4680 C.2      60   U64       0.4687
   1909 O2         30.7420  -58.2110  -75.1280 O.2      60   U64      -0.5477
   1910 N3         29.2150  -57.9220  -76.7770 N.am     60   U64      -0.3549
   1911 C4         27.9700  -57.6010  -77.2660 C.2      60   U64       0.5952
   1912 O4         27.7720  -57.6650  -78.4800 O.2      60   U64      -0.5761
   1913 C5         27.0180  -57.2210  -76.2700 C.2      60   U64      -0.3635
   1914 C6         27.3750  -57.1940  -74.9800 C.2      60   U64      -0.1126
   1915 H5'        26.5108  -59.0753  -71.4841 H        60   U64       0.0679
   1916 H5''       27.4878  -60.5543  -71.3717 H        60   U64       0.0679
   1917 H4'        29.4065  -59.1651  -70.6207 H        60   U64       0.1174
   1918 H3'        27.6981  -57.0517  -70.1547 H        60   U64       0.0615
   1919 H2'        27.1072  -56.8402  -72.4936 H        60   U64       0.0972
   1920 H1'        30.0750  -57.1536  -73.0707 H        60   U64       0.1824
   1921 H3         29.9094  -58.1974  -77.4567 H        60   U64       0.3154
   1922 H5         26.0114  -56.9558  -76.5578 H        60   U64       0.1811
   1923 H6         26.6451  -56.8951  -74.2422 H        60   U64       0.2188
   1924 HO2'       28.5971  -54.9072  -71.5065 H        60   U64       0.4186
   1925 P          29.8980  -55.9220  -69.1110 P.3      61   U65       1.1662
   1926 OP1        28.8440  -54.8740  -69.1380 O.co2    61   U65      -0.7760
   1927 OP2        29.9190  -56.8850  -67.9810 O.co2    61   U65      -0.7760
   1928 O5'        31.3340  -55.2530  -69.2800 O.3      61   U65      -0.4989
   1929 C5'        31.6150  -54.3850  -70.3720 C.3      61   U65       0.0558
   1930 C4'        32.8230  -54.8460  -71.1460 C.3      61   U65       0.1065
   1931 O4'        32.4270  -55.8310  -72.1360 O.3      61   U65      -0.3548
   1932 C3'        33.5450  -53.7820  -71.9570 C.3      61   U65       0.2022
   1933 O3'        34.4150  -52.9850  -71.1700 O.3      61   U65      -0.5246
   1934 C2'        34.2630  -54.6100  -73.0190 C.3      61   U65       0.0670
   1935 O2'        35.4320  -55.2160  -72.4870 O.3      61   U65      -0.6139
   1936 C1'        33.2360  -55.7060  -73.2880 C.3      61   U65       0.0674
   1937 N1         32.3750  -55.3790  -74.4360 N.am     61   U65       0.0418
   1938 C2         32.8740  -55.6790  -75.6820 C.2      61   U65       0.4687
   1939 O2         33.9680  -56.1890  -75.8440 O.2      61   U65      -0.5477
   1940 N3         32.0430  -55.3540  -76.7230 N.am     61   U65      -0.3549
   1941 C4         30.7950  -54.7710  -76.6430 C.2      61   U65       0.5952
   1942 O4         30.1650  -54.5420  -77.6770 O.2      61   U65      -0.5761
   1943 C5         30.3520  -54.4920  -75.3140 C.2      61   U65      -0.3635
   1944 C6         31.1410  -54.7980  -74.2800 C.2      61   U65      -0.1126
   1945 H5'        30.7533  -54.3647  -71.0392 H        61   U65       0.0679
   1946 H5''       31.7964  -53.3797  -69.9919 H        61   U65       0.0679
   1947 H4'        33.5309  -55.3044  -70.4555 H        61   U65       0.1174
   1948 H3'        32.8093  -53.1393  -72.4405 H        61   U65       0.0615
   1949 H2'        34.4785  -54.0258  -73.9136 H        61   U65       0.0972
   1950 H1'        33.7503  -56.6486  -73.4756 H        61   U65       0.1824
   1951 H3         32.3818  -55.5646  -77.6509 H        61   U65       0.3154
   1952 H5         29.3869  -54.0373  -75.1462 H        61   U65       0.1811
   1953 H6         30.7939  -54.5794  -73.2809 H        61   U65       0.2188
   1954 HO2'       35.7818  -55.8468  -73.1205 H        61   U65       0.4186
   1955 P          34.6720  -51.4400  -71.5420 P.3      62   U66       1.1662
   1956 OP1        35.4480  -50.8530  -70.4250 O.co2    62   U66      -0.7760
   1957 OP2        33.3610  -50.8410  -71.8880 O.co2    62   U66      -0.7760
   1958 O5'        35.5850  -51.5330  -72.8440 O.3      62   U66      -0.4989
   1959 C5'        36.8750  -52.1210  -72.7840 C.3      62   U66       0.0558
   1960 C4'        37.5090  -52.2180  -74.1500 C.3      62   U66       0.1065
   1961 O4'        36.7960  -53.1890  -74.9610 O.3      62   U66      -0.3548
   1962 C3'        37.4820  -50.9540  -74.9940 C.3      62   U66       0.2022
   1963 O3'        38.4760  -50.0120  -74.6300 O.3      62   U66      -0.5246
   1964 C2'        37.6460  -51.5030  -76.4040 C.3      62   U66       0.0670
   1965 O2'        39.0010  -51.8550  -76.6540 O.3      62   U66      -0.6139
   1966 C1'        36.8190  -52.7860  -76.3170 C.3      62   U66       0.0674
   1967 N1         35.4300  -52.5710  -76.7740 N.am     62   U66       0.0418
   1968 C2         35.2570  -52.4610  -78.1370 C.2      62   U66       0.4687
   1969 O2         36.1830  -52.5420  -78.9200 O.2      62   U66      -0.5477
   1970 N3         33.9700  -52.2530  -78.5570 N.am     62   U66      -0.3549
   1971 C4         32.8540  -52.1440  -77.7600 C.2      62   U66       0.5952
   1972 O4         31.7570  -51.9590  -78.2980 O.2      62   U66      -0.5761
   1973 C5         33.1140  -52.2660  -76.3530 C.2      62   U66      -0.3635
   1974 C6         34.3630  -52.4690  -75.9140 C.2      62   U66      -0.1126
   1975 H5'        37.5112  -51.5117  -72.1420 H        62   U66       0.0679
   1976 H5''       36.7916  -53.1208  -72.3578 H        62   U66       0.0679
   1977 H4'        38.5428  -52.5444  -74.0366 H        62   U66       0.1174
   1978 H3'        36.5006  -50.4879  -74.9055 H        62   U66       0.0615
   1979 H2'        37.2571  -50.8172  -77.1567 H        62   U66       0.0972
   1980 H1'        37.2862  -53.5635  -76.9213 H        62   U66       0.1824
   1981 H3         33.8256  -52.1713  -79.5533 H        62   U66       0.3154
   1982 H5         32.3001  -52.1939  -75.6468 H        62   U66       0.1811
   1983 H6         34.5369  -52.5552  -74.8516 H        62   U66       0.2188
   1984 HO2'       39.3624  -51.2778  -77.3307 H        62   U66       0.4186
   1985 P          38.2060  -48.4390  -74.8350 P.3      63   G67       1.1662
   1986 OP1        39.3370  -47.7140  -74.1980 O.co2    63   G67      -0.7760
   1987 OP2        36.8240  -48.1670  -74.3580 O.co2    63   G67      -0.7760
   1988 O5'        38.2760  -48.2720  -76.4210 O.3      63   G67      -0.4989
   1989 C5'        39.5110  -48.3970  -77.1060 C.3      63   G67       0.0558
   1990 C4'        39.3260  -48.3830  -78.6040 C.3      63   G67       0.1065
   1991 O4'        38.4530  -49.4690  -79.0080 O.3      63   G67      -0.3548
   1992 C3'        38.6560  -47.1540  -79.1930 C.3      63   G67       0.2022
   1993 O3'        39.5120  -46.0360  -79.2990 O.3      63   G67      -0.5246
   1994 C2'        38.1680  -47.6740  -80.5350 C.3      63   G67       0.0670
   1995 O2'        39.2500  -47.8020  -81.4470 O.3      63   G67      -0.6139
   1996 C1'        37.6990  -49.0720  -80.1430 C.3      63   G67       0.0191
   1997 N9         36.2640  -49.0800  -79.7900 N.ar     63   G67       0.0492
   1998 C8         35.7030  -49.0980  -78.5390 C.ar     63   G67       0.1374
   1999 N7         34.3980  -49.0830  -78.5680 N.ar     63   G67      -0.5709
   2000 C5         34.0760  -49.0430  -79.9190 C.ar     63   G67       0.1744
   2001 C6         32.8110  -49.0110  -80.5710 C.2      63   G67       0.4770
   2002 O6         31.6770  -49.0120  -80.0680 O.2      63   G67      -0.5597
   2003 N1         32.9530  -48.9730  -81.9550 N.am     63   G67      -0.4787
   2004 C2         34.1520  -48.9700  -82.6260 C.2      63   G67       0.7657
   2005 N2         34.0880  -48.9310  -83.9630 N.pl3    63   G67      -0.9672
   2006 N3         35.3310  -49.0000  -82.0300 N.2      63   G67      -0.6323
   2007 C4         35.2200  -49.0370  -80.6860 C.ar     63   G67       0.1222
   2008 H5'        40.1569  -47.5659  -76.8228 H        63   G67       0.0679
   2009 H5''       39.9868  -49.3334  -76.8146 H        63   G67       0.0679
   2010 H4'        40.2975  -48.5165  -79.0800 H        63   G67       0.1174
   2011 H3'        37.7956  -46.8878  -78.5791 H        63   G67       0.0615
   2012 H2'        37.3582  -47.0677  -80.9407 H        63   G67       0.0972
   2013 H1'        37.8795  -49.7646  -80.9651 H        63   G67       0.2006
   2014 H8         36.2798  -49.1220  -77.6262 H        63   G67       0.1640
   2015 H1         32.1091  -48.9455  -82.5092 H        63   G67       0.3424
   2016 H21        33.1902  -48.9068  -84.4251 H        63   G67       0.4364
   2017 H22        34.9375  -48.9258  -84.5093 H        63   G67       0.4364
   2018 HO2'       38.9595  -47.5477  -82.3259 H        63   G67       0.4186
   2019 P          38.8850  -44.5600  -79.3600 P.3      64   G68       1.1662
   2020 OP1        37.9620  -44.4330  -78.2040 O.co2    64   G68      -0.7760
   2021 OP2        40.0160  -43.6070  -79.4790 O.co2    64   G68      -0.7760
   2022 O5'        38.0510  -44.5850  -80.7180 O.3      64   G68      -0.4989
   2023 C5'        38.7040  -44.6800  -81.9750 C.3      64   G68       0.0558
   2024 C4'        37.7180  -44.6030  -83.1140 C.3      64   G68       0.1065
   2025 O4'        36.8450  -45.7600  -83.0860 O.3      64   G68      -0.3548
   2026 C3'        36.7610  -43.4230  -83.0880 C.3      64   G68       0.2022
   2027 O3'        37.3360  -42.2280  -83.5810 O.3      64   G68      -0.5246
   2028 C2'        35.5910  -43.9280  -83.9210 C.3      64   G68       0.0670
   2029 O2'        35.8970  -43.8720  -85.3060 O.3      64   G68      -0.6139
   2030 C1'        35.5450  -45.3930  -83.5000 C.3      64   G68       0.0191
   2031 N9         34.6110  -45.6130  -82.3780 N.ar     64   G68       0.0492
   2032 C8         34.9160  -45.7160  -81.0410 C.ar     64   G68       0.1374
   2033 N7         33.8660  -45.9090  -80.2890 N.ar     64   G68      -0.5709
   2034 C5         32.8070  -45.9360  -81.1830 C.ar     64   G68       0.1744
   2035 C6         31.4260  -46.1150  -80.9530 C.2      64   G68       0.4770
   2036 O6         30.8510  -46.2920  -79.8720 O.2      64   G68      -0.5597
   2037 N1         30.6980  -46.0700  -82.1370 N.am     64   G68      -0.4787
   2038 C2         31.2280  -45.8800  -83.3900 C.2      64   G68       0.7657
   2039 N2         30.3600  -45.8690  -84.4180 N.pl3    64   G68      -0.9672
   2040 N3         32.5210  -45.7150  -83.6160 N.2      64   G68      -0.6323
   2041 C4         33.2450  -45.7550  -82.4760 C.ar     64   G68       0.1222
   2042 H5'        39.2339  -45.6310  -82.0284 H        64   G68       0.0679
   2043 H5''       39.4218  -43.8650  -82.0676 H        64   G68       0.0679
   2044 H4'        38.2653  -44.5947  -84.0566 H        64   G68       0.1174
   2045 H3'        36.4247  -43.2601  -82.0641 H        64   G68       0.0615
   2046 H2'        34.6643  -43.4049  -83.6849 H        64   G68       0.0972
   2047 H1'        35.2458  -46.0072  -84.3493 H        64   G68       0.2006
   2048 H8         35.9212  -45.6446  -80.6526 H        64   G68       0.1640
   2049 H1         29.6970  -46.1866  -82.0701 H        64   G68       0.3424
   2050 H21        29.3727  -45.9958  -84.2467 H        64   G68       0.4364
   2051 H22        30.6957  -45.7340  -85.3610 H        64   G68       0.4364
   2052 HO2'       35.2189  -44.3361  -85.8023 H        64   G68       0.4186
   2053 P          36.9000  -40.8130  -82.9670 P.3      65   U69       1.1662
   2054 OP1        36.8040  -40.9850  -81.4970 O.co2    65   U69      -0.7760
   2055 OP2        37.8350  -39.8000  -83.5070 O.co2    65   U69      -0.7760
   2056 O5'        35.4470  -40.5920  -83.5820 O.3      65   U69      -0.4989
   2057 C5'        35.2580  -40.4810  -84.9860 C.3      65   U69       0.0558
   2058 C4'        33.7940  -40.3940  -85.3480 C.3      65   U69       0.1065
   2059 O4'        33.1390  -41.6590  -85.0740 O.3      65   U69      -0.3548
   2060 C3'        32.9690  -39.3790  -84.5730 C.3      65   U69       0.2022
   2061 O3'        33.1180  -38.0610  -85.0570 O.3      65   U69      -0.5246
   2062 C2'        31.5530  -39.9190  -84.7190 C.3      65   U69       0.0670
   2063 O2'        31.0110  -39.5700  -85.9850 O.3      65   U69      -0.6139
   2064 C1'        31.7970  -41.4300  -84.6910 C.3      65   U69       0.0674
   2065 N1         31.5830  -41.9910  -83.3400 N.am     65   U69       0.0418
   2066 C2         30.2680  -42.2190  -82.9950 C.2      65   U69       0.4687
   2067 O2         29.3540  -41.9840  -83.7690 O.2      65   U69      -0.5477
   2068 N3         30.0730  -42.7260  -81.7310 N.am     65   U69      -0.3549
   2069 C4         31.0500  -43.0140  -80.8010 C.2      65   U69       0.5952
   2070 O4         30.7210  -43.4670  -79.7050 O.2      65   U69      -0.5761
   2071 C5         32.3880  -42.7430  -81.2350 C.2      65   U69      -0.3635
   2072 C6         32.6070  -42.2500  -82.4590 C.2      65   U69      -0.1126
   2073 H5'        35.6901  -41.3565  -85.4707 H        65   U69       0.0679
   2074 H5''       35.7678  -39.5869  -85.3448 H        65   U69       0.0679
   2075 H4'        33.7078  -40.1772  -86.4127 H        65   U69       0.1174
   2076 H3'        33.2577  -39.4097  -83.5224 H        65   U69       0.0615
   2077 H2'        30.9099  -39.5970  -83.9000 H        65   U69       0.0972
   2078 H1'        31.1280  -41.9198  -85.3986 H        65   U69       0.1824
   2079 H3         29.1178  -42.9055  -81.4563 H        65   U69       0.3154
   2080 H5         33.2198  -42.9367  -80.5740 H        65   U69       0.1811
   2081 H6         33.6226  -42.0484  -82.7660 H        65   U69       0.2188
   2082 HO2'       30.8530  -38.6236  -86.0161 H        65   U69       0.4186
   2083 P          33.2580  -36.8350  -84.0280 P.3      66   G70       1.1662
   2084 OP1        33.6880  -35.6510  -84.8180 O.co2    66   G70      -0.7760
   2085 OP2        34.1190  -37.2980  -82.9100 O.co2    66   G70      -0.7760
   2086 O5'        31.7660  -36.6300  -83.5100 O.3      66   G70      -0.4989
   2087 C5'        30.7080  -36.3570  -84.4130 C.3      66   G70       0.0558
   2088 C4'        29.3670  -36.5930  -83.7680 C.3      66   G70       0.1065
   2089 O4'        29.2250  -37.9980  -83.4240 O.3      66   G70      -0.3548
   2090 C3'        29.1280  -35.8700  -82.4550 C.3      66   G70       0.2022
   2091 O3'        28.7550  -34.5160  -82.6330 O.3      66   G70      -0.5246
   2092 C2'        28.0500  -36.7230  -81.7950 C.3      66   G70       0.0670
   2093 O2'        26.7730  -36.4260  -82.3370 O.3      66   G70      -0.6139
   2094 C1'        28.4520  -38.1300  -82.2470 C.3      66   G70       0.0191
   2095 N9         29.2550  -38.8350  -81.2270 N.ar     66   G70       0.0492
   2096 C8         30.6250  -38.9130  -81.1410 C.ar     66   G70       0.1374
   2097 N7         31.0420  -39.6090  -80.1180 N.ar     66   G70      -0.5709
   2098 C5         29.8770  -40.0220  -79.4890 C.ar     66   G70       0.1744
   2099 C6         29.6900  -40.8090  -78.3250 C.2      66   G70       0.4770
   2100 O6         30.5460  -41.3170  -77.5910 O.2      66   G70      -0.5597
   2101 N1         28.3400  -40.9860  -78.0410 N.am     66   G70      -0.4787
   2102 C2         27.3050  -40.4760  -78.7810 C.2      66   G70       0.7657
   2103 N2         26.0680  -40.7560  -78.3520 N.pl3    66   G70      -0.9672
   2104 N3         27.4670  -39.7440  -79.8660 N.2      66   G70      -0.6323
   2105 C4         28.7680  -39.5570  -80.1620 C.ar     66   G70       0.1222
   2106 H5'        30.8045  -37.0089  -85.2812 H        66   G70       0.0679
   2107 H5''       30.7721  -35.3180  -84.7363 H        66   G70       0.0679
   2108 H4'        28.5814  -36.3189  -84.4721 H        66   G70       0.1174
   2109 H3'        30.0358  -35.9138  -81.8532 H        66   G70       0.0615
   2110 H2'        28.0631  -36.6258  -80.7094 H        66   G70       0.0972
   2111 H1'        27.5553  -38.7098  -82.4660 H        66   G70       0.2006
   2112 H8         31.2911  -38.4444  -81.8503 H        66   G70       0.1640
   2113 H1         28.1038  -41.5332  -77.2256 H        66   G70       0.3424
   2114 H21        25.9361  -41.3164  -77.5221 H        66   G70       0.4364
   2115 H22        25.2668  -40.4069  -78.8582 H        66   G70       0.4364
   2116 HO2'       26.0903  -36.7527  -81.7464 H        66   G70       0.4186
   2117 P          29.3400  -33.3820  -81.6530 P.3      67   A71       1.1662
   2118 OP1        29.2850  -32.0930  -82.3890 O.co2    67   A71      -0.7760
   2119 OP2        30.6560  -33.8690  -81.1620 O.co2    67   A71      -0.7760
   2120 O5'        28.2870  -33.3700  -80.4590 O.3      67   A71      -0.4989
   2121 C5'        28.6400  -32.8620  -79.1840 C.3      67   A71       0.0558
   2122 C4'        27.5130  -33.0230  -78.2010 C.3      67   A71       0.1065
   2123 O4'        26.3100  -32.4240  -78.7430 O.3      67   A71      -0.3548
   2124 C3'        27.1100  -34.4530  -77.8830 C.3      67   A71       0.2022
   2125 O3'        27.9390  -35.0500  -76.8990 O.3      67   A71      -0.5246
   2126 C2'        25.6540  -34.3070  -77.4530 C.3      67   A71       0.0670
   2127 O2'        25.5690  -33.8760  -76.1030 O.3      67   A71      -0.6139
   2128 C1'        25.1790  -33.1660  -78.3530 C.3      67   A71       0.0394
   2129 N9         24.5040  -33.6530  -79.5680 N.ar     67   A71      -0.0251
   2130 C8         25.0360  -33.7500  -80.8300 C.ar     67   A71       0.2006
   2131 N7         24.1930  -34.2130  -81.7210 N.ar     67   A71      -0.6073
   2132 C5         23.0260  -34.4230  -80.9980 C.ar     67   A71       0.0515
   2133 C6         21.7580  -34.9020  -81.3690 C.ar     67   A71       0.7009
   2134 N6         21.4480  -35.2710  -82.6140 N.pl3    67   A71      -0.9019
   2135 N1         20.8110  -34.9920  -80.4090 N.ar     67   A71      -0.7615
   2136 C2         21.1310  -34.6220  -79.1620 C.ar     67   A71       0.5875
   2137 N3         22.2850  -34.1540  -78.6910 N.ar     67   A71      -0.6997
   2138 C4         23.2010  -34.0760  -79.6710 C.ar     67   A71       0.3053
   2139 H5'        29.5122  -33.4021  -78.8157 H        67   A71       0.0679
   2140 H5''       28.8865  -31.8042  -79.2759 H        67   A71       0.0679
   2141 H4'        27.7758  -32.5140  -77.2737 H        67   A71       0.1174
   2142 H3'        27.1546  -35.0475  -78.7955 H        67   A71       0.0615
   2143 H2'        25.0866  -35.2219  -77.6236 H        67   A71       0.0972
   2144 H1'        24.4991  -32.5230  -77.7941 H        67   A71       0.2007
   2145 H8         26.0523  -33.4714  -81.0663 H        67   A71       0.1553
   2146 H2         20.3390  -34.7170  -78.4339 H        67   A71       0.0473
   2147 HO2'       25.4011  -34.6317  -75.5353 H        67   A71       0.4186
   2148 H61        22.1417  -35.2121  -83.3457 H        67   A71       0.4115
   2149 H62        20.5198  -35.6091  -82.8242 H        67   A71       0.4115
   2150 P          28.4720  -36.5540  -77.0900 P.3      68   A72       1.1662
   2151 OP1        29.5730  -36.7570  -76.1180 O.co2    68   A72      -0.7760
   2152 OP2        28.7560  -36.7350  -78.5320 O.co2    68   A72      -0.7760
   2153 O5'        27.2120  -37.4280  -76.6680 O.3      68   A72      -0.4989
   2154 C5'        26.6670  -37.3380  -75.3600 C.3      68   A72       0.0558
   2155 C4'        25.2300  -37.7890  -75.3310 C.3      68   A72       0.1065
   2156 O4'        24.4500  -36.9720  -76.2380 O.3      68   A72      -0.3548
   2157 C3'        24.9800  -39.2220  -75.7830 C.3      68   A72       0.2022
   2158 O3'        25.1410  -40.1590  -74.7280 O.3      68   A72      -0.5246
   2159 C2'        23.5610  -39.1760  -76.3450 C.3      68   A72       0.0670
   2160 O2'        22.6050  -39.3130  -75.3050 O.3      68   A72      -0.6139
   2161 C1'        23.4790  -37.7520  -76.8940 C.3      68   A72       0.0394
   2162 N9         23.7310  -37.6830  -78.3480 N.ar     68   A72      -0.0251
   2163 C8         24.9060  -37.3250  -78.9680 C.ar     68   A72       0.2006
   2164 N7         24.8410  -37.3190  -80.2790 N.ar     68   A72      -0.6073
   2165 C5         23.5290  -37.6780  -80.5390 C.ar     68   A72       0.0515
   2166 C6         22.8270  -37.8500  -81.7440 C.ar     68   A72       0.7009
   2167 N6         23.3970  -37.6630  -82.9360 N.pl3    68   A72      -0.9019
   2168 N1         21.5250  -38.2280  -81.6850 N.ar     68   A72      -0.7615
   2169 C2         20.9840  -38.4040  -80.4700 C.ar     68   A72       0.5875
   2170 N3         21.5400  -38.2680  -79.2640 N.ar     68   A72      -0.6997
   2171 C4         22.8280  -37.8970  -79.3650 C.ar     68   A72       0.3053
   2172 H5'        26.7204  -36.3024  -75.0242 H        68   A72       0.0679
   2173 H5''       27.2517  -37.9633  -74.6852 H        68   A72       0.0679
   2174 H4'        24.8411  -37.6645  -74.3204 H        68   A72       0.1174
   2175 H3'        25.6737  -39.4681  -76.5869 H        68   A72       0.0615
   2176 H2'        23.4135  -39.9192  -77.1286 H        68   A72       0.0972
   2177 H1'        22.4905  -37.3440  -76.6829 H        68   A72       0.2007
   2178 H8         25.8035  -37.0711  -78.4235 H        68   A72       0.1553
   2179 H2         19.9452  -38.6994  -80.4672 H        68   A72       0.0473
   2180 H61        24.3661  -37.3847  -82.9943 H        68   A72       0.4115
   2181 H62        22.8593  -37.7998  -83.7799 H        68   A72       0.4115
   2182 HO2'       22.6441  -40.2037  -74.9491 H        68   A72       0.4186
   2183 P          26.1300  -41.4100  -74.8930 P.3      69   A73       1.1662
   2184 OP1        26.0550  -42.1950  -73.6380 O.co2    69   A73      -0.7760
   2185 OP2        27.4420  -40.8790  -75.3250 O.co2    69   A73      -0.7760
   2186 O5'        25.4580  -42.2200  -76.0760 O.3      69   A73      -0.4989
   2187 C5'        24.0530  -42.4170  -76.1070 C.3      69   A73       0.0558
   2188 C4'        23.7030  -43.8280  -76.4820 C.3      69   A73       0.1065
   2189 O4'        23.6450  -43.9260  -77.9240 O.3      69   A73      -0.3548
   2190 C3'        24.6850  -44.8870  -75.9930 C.3      69   A73       0.2022
   2191 O3'        23.9830  -45.9670  -75.3910 O.3      69   A73      -0.5246
   2192 C2'        25.4060  -45.3650  -77.2560 C.3      69   A73       0.0670
   2193 O2'        25.6790  -46.7500  -77.2760 O.3      69   A73      -0.6139
   2194 C1'        24.4630  -44.9730  -78.3950 C.3      69   A73       0.0394
   2195 N9         25.1720  -44.4760  -79.5790 N.ar     69   A73      -0.0251
   2196 C8         26.4910  -44.0880  -79.6260 C.ar     69   A73       0.2006
   2197 N7         26.8900  -43.6750  -80.8010 N.ar     69   A73      -0.6073
   2198 C5         25.7520  -43.7880  -81.5850 C.ar     69   A73       0.0515
   2199 C6         25.5180  -43.5030  -82.9410 C.ar     69   A73       0.7009
   2200 N6         26.4570  -43.0270  -83.7640 N.pl3    69   A73      -0.9019
   2201 N1         24.2770  -43.7320  -83.4290 N.ar     69   A73      -0.7615
   2202 C2         23.3450  -44.2140  -82.5930 C.ar     69   A73       0.5875
   2203 N3         23.4420  -44.5170  -81.2990 N.ar     69   A73      -0.6997
   2204 C4         24.6870  -44.2790  -80.8490 C.ar     69   A73       0.3053
   2205 H5'        23.6163  -41.7375  -76.8389 H        69   A73       0.0679
   2206 H5''       23.6395  -42.1959  -75.1230 H        69   A73       0.0679
   2207 H4'        22.7166  -44.0585  -76.0795 H        69   A73       0.1174
   2208 H3'        25.3951  -44.4533  -75.2889 H        69   A73       0.0615
   2209 H2'        26.3414  -44.8155  -77.3623 H        69   A73       0.0972
   2210 H1'        23.8441  -45.8272  -78.6695 H        69   A73       0.2007
   2211 H8         27.1422  -44.1216  -78.7651 H        69   A73       0.1553
   2212 H2         22.3732  -44.3810  -83.0336 H        69   A73       0.0473
   2213 HO2'       26.2586  -46.9517  -78.0142 H        69   A73       0.4186
   2214 H61        27.3353  -42.5783  -83.5464 H        69   A73       0.4115
   2215 H62        26.2593  -43.1313  -84.7489 H        69   A73       0.4115
   2216 P          24.0680  -46.1810  -73.8000 P.3      70   U74       1.1662
   2217 OP1        22.7050  -46.5300  -73.3330 O.co2    70   U74      -0.7760
   2218 OP2        24.7320  -44.9810  -73.2320 O.co2    70   U74      -0.7760
   2219 O5'        25.0280  -47.4410  -73.6630 O.3      70   U74      -0.4989
   2220 C5'        26.3480  -47.4120  -74.1880 C.3      70   U74       0.0558
   2221 C4'        26.8550  -48.7990  -74.4930 C.3      70   U74       0.1065
   2222 O4'        27.1830  -49.4730  -73.2480 O.3      70   U74      -0.3548
   2223 C3'        25.8680  -49.7080  -75.2320 C.3      70   U74       0.2022
   2224 O3'        26.5570  -50.4630  -76.2230 O.3      70   U74      -0.5246
   2225 C2'        25.3630  -50.6470  -74.1430 C.3      70   U74       0.0670
   2226 O2'        24.9700  -51.9170  -74.6100 O.3      70   U74      -0.6139
   2227 C1'        26.5730  -50.7460  -73.2250 C.3      70   U74       0.0674
   2228 N1         26.2310  -51.0880  -71.8260 N.am     70   U74       0.0418
   2229 C2         27.1250  -51.8520  -71.0960 C.2      70   U74       0.4687
   2230 O2         28.2070  -52.2260  -71.5370 O.2      70   U74      -0.5477
   2231 N3         26.7210  -52.1390  -69.8140 N.am     70   U74      -0.3549
   2232 C4         25.5410  -51.7620  -69.2070 C.2      70   U74       0.5952
   2233 O4         25.3170  -52.0990  -68.0430 O.2      70   U74      -0.5761
   2234 C5         24.6710  -50.9880  -70.0370 C.2      70   U74      -0.3635
   2235 C6         25.0320  -50.6910  -71.2890 C.2      70   U74      -0.1126
   2236 H5'        27.0091  -46.9467  -73.4569 H        70   U74       0.0679
   2237 H5''       26.3552  -46.8201  -75.1033 H        70   U74       0.0679
   2238 H4'        27.7624  -48.7132  -75.0908 H        70   U74       0.1174
   2239 H3'        25.0515  -49.1332  -75.6690 H        70   U74       0.0615
   2240 H2'        24.5351  -50.1795  -73.6100 H        70   U74       0.0972
   2241 H1'        27.2675  -51.4876  -73.6198 H        70   U74       0.1824
   2242 H3         27.3588  -52.6867  -69.2543 H        70   U74       0.3154
   2243 H5         23.7225  -50.6436  -69.6522 H        70   U74       0.1811
   2244 H6         24.3537  -50.1161  -71.9021 H        70   U74       0.2188
   2245 HO2'       24.2069  -51.8249  -75.1851 H        70   U74       0.4186
   2246 P          26.3760  -50.0960  -77.7740 P.3      71   U75       1.1662
   2247 OP1        26.9450  -48.7380  -77.9670 O.co2    71   U75      -0.7760
   2248 OP2        26.9380  -51.2240  -78.5640 O.co2    71   U75      -0.7760
   2249 O5'        24.7920  -50.0560  -77.9460 O.3      71   U75      -0.4989
   2250 C5'        24.0420  -51.2630  -77.9780 C.3      71   U75       0.0558
   2251 C4'        22.8740  -51.1900  -78.9340 C.3      71   U75       0.1065
   2252 O4'        21.7540  -50.5200  -78.2880 O.3      71   U75      -0.3548
   2253 C3'        23.1300  -50.4480  -80.2470 C.3      71   U75       0.2022
   2254 O3'        22.4710  -51.1350  -81.3110 O.3      71   U75      -0.5246
   2255 C2'        22.4460  -49.0990  -80.0170 C.3      71   U75       0.0670
   2256 O2'        22.0170  -48.4510  -81.1960 O.3      71   U75      -0.6139
   2257 C1'        21.2690  -49.4950  -79.1290 C.3      71   U75       0.0674
   2258 N1         20.7520  -48.4000  -78.2780 N.am     71   U75       0.0418
   2259 C2         19.4610  -47.9620  -78.5090 C.2      71   U75       0.4687
   2260 O2         18.7430  -48.4360  -79.3730 O.2      71   U75      -0.5477
   2261 N3         19.0310  -46.9460  -77.6940 N.am     71   U75      -0.3549
   2262 C4         19.7460  -46.3350  -76.6920 C.2      71   U75       0.5952
   2263 O4         19.2210  -45.4320  -76.0440 O.2      71   U75      -0.5761
   2264 C5         21.0700  -46.8410  -76.5130 C.2      71   U75      -0.3635
   2265 C6         21.5160  -47.8320  -77.2920 C.2      71   U75      -0.1126
   2266 H5'        23.6624  -51.4658  -76.9766 H        71   U75       0.0679
   2267 H5''       24.6974  -52.0796  -78.2808 H        71   U75       0.0679
   2268 H4'        22.5677  -52.2082  -79.1738 H        71   U75       0.1174
   2269 H3'        24.1960  -50.3310  -80.4423 H        71   U75       0.0615
   2270 H2'        23.1153  -48.4411  -79.4627 H        71   U75       0.0972
   2271 H1'        20.4617  -49.8853  -79.7487 H        71   U75       0.1824
   2272 H3         18.0901  -46.6118  -77.8463 H        71   U75       0.3154
   2273 H5         21.7098  -46.4236  -75.7495 H        71   U75       0.1811
   2274 H6         22.5196  -48.2000  -77.1379 H        71   U75       0.2188
   2275 HO2'       21.4197  -49.0269  -81.6790 H        71   U75       0.4186
   2276 P          23.2870  -51.5740  -82.6260 P.3      72   C76       1.1662
   2277 OP1        24.6150  -52.0730  -82.1800 O.co2    72   C76      -0.7760
   2278 OP2        22.4060  -52.4870  -83.3990 O.co2    72   C76      -0.7760
   2279 O5'        23.4610  -50.1990  -83.4070 O.3      72   C76      -0.4989
   2280 C5'        22.7240  -49.9260  -84.5890 C.3      72   C76       0.0558
   2281 C4'        23.3610  -48.8120  -85.3780 C.3      72   C76       0.1065
   2282 O4'        23.6270  -47.6930  -84.4950 O.3      72   C76      -0.3548
   2283 C3'        24.7070  -49.1400  -86.0150 C.3      72   C76       0.2022
   2284 O3'        24.5670  -49.7450  -87.2960 O.3      72   C76      -0.5246
   2285 C2'        25.4300  -47.7900  -86.0470 C.3      72   C76       0.0670
   2286 O2'        25.0810  -47.0500  -87.2090 O.3      72   C76      -0.6139
   2287 C1'        24.8440  -47.0730  -84.8290 C.3      72   C76       0.0066
   2288 N1         25.7310  -47.1220  -83.6500 N.am     72   C76      -0.0484
   2289 C2         27.0110  -46.5640  -83.6940 C.2      72   C76       0.7538
   2290 O2         27.4210  -46.0490  -84.7460 O.2      72   C76      -0.6252
   2291 N3         27.7800  -46.6120  -82.5810 N.2      72   C76      -0.7584
   2292 C4         27.3100  -47.1700  -81.4630 C.2      72   C76       0.8185
   2293 N4         28.0990  -47.1940  -80.3860 N.pl3    72   C76      -0.9530
   2294 C5         26.0060  -47.7310  -81.3910 C.2      72   C76      -0.5215
   2295 C6         25.2580  -47.6760  -82.4950 C.2      72   C76       0.0053
   2296 H5'        22.6918  -50.8251  -85.2044 H        72   C76       0.0679
   2297 H5''       21.7075  -49.6391  -84.3197 H        72   C76       0.0679
   2298 H4'        22.6700  -48.4908  -86.1574 H        72   C76       0.1174
   2299 H3'        25.2530  -49.8190  -85.3601 H        72   C76       0.0615
   2300 H2'        26.5096  -47.9117  -85.9590 H        72   C76       0.0972
   2301 H1'        24.6532  -46.0314  -85.0873 H        72   C76       0.2029
   2302 H5         25.6364  -48.1823  -80.4821 H        72   C76       0.1928
   2303 H6         24.2561  -48.0787  -82.4744 H        72   C76       0.1958
   2304 H41        29.0265  -46.7966  -80.4305 H        72   C76       0.4234
   2305 H42        27.7683  -47.6096  -79.5269 H        72   C76       0.4234
   2306 HO2'       25.4404  -47.4848  -87.9858 H        72   C76       0.4186
   2307 P          25.3570  -51.0990  -87.6560 P.3      73   C77       1.1662
   2308 OP1        25.3270  -51.9620  -86.4470 O.co2    73   C77      -0.7760
   2309 OP2        24.7810  -51.6250  -88.9190 O.co2    73   C77      -0.7760
   2310 O5'        26.8410  -50.5810  -87.9120 O.3      73   C77      -0.4989
   2311 C5'        27.1370  -49.7330  -89.0100 C.3      73   C77       0.0558
   2312 C4'        28.6110  -49.4320  -89.0830 C.3      73   C77       0.1065
   2313 O4'        28.9550  -48.4310  -88.0890 O.3      73   C77      -0.3548
   2314 C3'        29.5400  -50.5930  -88.7720 C.3      73   C77       0.2022
   2315 O3'        29.7350  -51.4600  -89.8770 O.3      73   C77      -0.5246
   2316 C2'        30.8070  -49.8860  -88.3150 C.3      73   C77       0.0670
   2317 O2'        31.5180  -49.3630  -89.4300 O.3      73   C77      -0.6139
   2318 C1'        30.2210  -48.7170  -87.5350 C.3      73   C77       0.0066
   2319 N1         30.0390  -49.0390  -86.1040 N.am     73   C77      -0.0484
   2320 C2         31.1230  -48.9190  -85.2350 C.2      73   C77       0.7538
   2321 O2         32.2170  -48.5650  -85.6890 O.2      73   C77      -0.6252
   2322 N3         30.9570  -49.1990  -83.9250 N.2      73   C77      -0.7584
   2323 C4         29.7650  -49.5770  -83.4710 C.2      73   C77       0.8185
   2324 N4         29.6510  -49.8420  -82.1690 N.pl3    73   C77      -0.9530
   2325 C5         28.6380  -49.6990  -84.3310 C.2      73   C77      -0.5215
   2326 C6         28.8170  -49.4230  -85.6280 C.2      73   C77       0.0053
   2327 H5'        26.8285  -50.2249  -89.9324 H        73   C77       0.0679
   2328 H5''       26.5856  -48.7992  -88.9003 H        73   C77       0.0679
   2329 H4'        28.8460  -49.0442  -90.0742 H        73   C77       0.1174
   2330 H3'        29.1302  -51.1641  -87.9389 H        73   C77       0.0615
   2331 H2'        31.4323  -50.5247  -87.6911 H        73   C77       0.0972
   2332 H1'        30.8701  -47.8471  -87.6354 H        73   C77       0.2029
   2333 H5         27.6739  -50.0031  -83.9510 H        73   C77       0.1928
   2334 H6         27.9829  -49.5050  -86.3091 H        73   C77       0.1958
   2335 H41        30.4544  -49.7533  -81.5634 H        73   C77       0.4234
   2336 H42        28.7613  -50.1314  -81.7886 H        73   C77       0.4234
   2337 HO2'       32.2210  -48.7875  -89.1197 H        73   C77       0.4186
   2338 P          30.2700  -52.9560  -89.6420 P.3      74   A78       1.1662
   2339 OP1        30.5140  -53.5460  -90.9780 O.co2    74   A78      -0.7760
   2340 OP2        29.3100  -53.6270  -88.7300 O.co2    74   A78      -0.7760
   2341 O5'        31.6530  -52.7220  -88.8930 O.3      74   A78      -0.4989
   2342 C5'        32.8230  -52.3700  -89.6110 C.3      74   A78       0.0558
   2343 C4'        34.0550  -52.5280  -88.7590 C.3      74   A78       0.1065
   2344 O4'        34.0110  -51.5860  -87.6540 O.3      74   A78      -0.3548
   2345 C3'        34.2230  -53.8770  -88.0750 C.3      74   A78       0.2022
   2346 O3'        34.7370  -54.8840  -88.9340 O.3      74   A78      -0.5246
   2347 C2'        35.1390  -53.5380  -86.9060 C.3      74   A78       0.0670
   2348 O2'        36.4830  -53.3950  -87.3490 O.3      74   A78      -0.6139
   2349 C1'        34.6130  -52.1590  -86.5100 C.3      74   A78       0.0394
   2350 N9         33.6050  -52.2370  -85.4320 N.ar     74   A78      -0.0251
   2351 C8         32.2360  -52.1680  -85.5230 C.ar     74   A78       0.2006
   2352 N7         31.6180  -52.2600  -84.3680 N.ar     74   A78      -0.6073
   2353 C5         32.6470  -52.3950  -83.4460 C.ar     74   A78       0.0515
   2354 C6         32.6700  -52.5390  -82.0400 C.ar     74   A78       0.7009
   2355 N6         31.5870  -52.5730  -81.2570 N.pl3    74   A78      -0.9019
   2356 N1         33.8760  -52.6470  -81.4400 N.ar     74   A78      -0.7615
   2357 C2         34.9740  -52.6120  -82.2030 C.ar     74   A78       0.5875
   2358 N3         35.0800  -52.4830  -83.5250 N.ar     74   A78      -0.6997
   2359 C4         33.8710  -52.3760  -84.0930 C.ar     74   A78       0.3053
   2360 H5'        32.9107  -53.0150  -90.4853 H        74   A78       0.0679
   2361 H5''       32.7442  -51.3331  -89.9376 H        74   A78       0.0679
   2362 H4'        34.9369  -52.3240  -89.3663 H        74   A78       0.1174
   2363 H3'        33.2573  -54.2007  -87.6868 H        74   A78       0.0615
   2364 H2'        35.0501  -54.2591  -86.0935 H        74   A78       0.0972
   2365 H1'        35.4441  -51.5330  -86.1852 H        74   A78       0.2007
   2366 H8         31.7144  -52.0487  -86.4611 H        74   A78       0.1553
   2367 H2         35.9096  -52.7011  -81.6709 H        74   A78       0.0473
   2368 H61        31.6344  -52.1511  -80.3406 H        74   A78       0.4115
   2369 H62        30.7359  -53.0131  -81.5764 H        74   A78       0.4115
   2370 HO2'       37.0741  -53.8094  -86.7162 H        74   A78       0.4186
   2371 P          34.3800  -56.4310  -88.6670 P.3      75   A79       1.1662
   2372 OP1        32.9030  -56.5240  -88.5610 O.co2    75   A79      -0.7760
   2373 OP2        35.0760  -57.2260  -89.7120 O.co2    75   A79      -0.7760
   2374 O5'        35.0410  -56.7080  -87.2490 O.3      75   A79      -0.4989
   2375 C5'        36.4390  -56.5710  -87.0700 C.3      75   A79       0.0558
   2376 C4'        36.8380  -56.7130  -85.6240 C.3      75   A79       0.1065
   2377 O4'        36.2270  -55.6680  -84.8260 O.3      75   A79      -0.3548
   2378 C3'        36.4040  -57.9850  -84.9250 C.3      75   A79       0.2022
   2379 O3'        37.1880  -59.1080  -85.2830 O.3      75   A79      -0.5246
   2380 C2'        36.5270  -57.5900  -83.4580 C.3      75   A79       0.0670
   2381 O2'        37.8910  -57.5990  -83.0540 O.3      75   A79      -0.6139
   2382 C1'        36.0540  -56.1350  -83.5020 C.3      75   A79       0.0394
   2383 N9         34.6360  -56.0010  -83.1270 N.ar     75   A79      -0.0251
   2384 C8         33.5260  -55.9390  -83.9310 C.ar     75   A79       0.2006
   2385 N7         32.4020  -55.8100  -83.2640 N.ar     75   A79      -0.6073
   2386 C5         32.7990  -55.7830  -81.9310 C.ar     75   A79       0.0515
   2387 C6         32.0880  -55.6690  -80.7170 C.ar     75   A79       0.7009
   2388 N6         30.7600  -55.5510  -80.6190 N.pl3    75   A79      -0.9019
   2389 N1         32.8030  -55.6800  -79.5730 N.ar     75   A79      -0.7615
   2390 C2         34.1360  -55.7940  -79.6460 C.ar     75   A79       0.5875
   2391 N3         34.9150  -55.9090  -80.7190 N.ar     75   A79      -0.6997
   2392 C4         34.1760  -55.8970  -81.8400 C.ar     75   A79       0.3053
   2393 H5'        36.7445  -55.5866  -87.4245 H        75   A79       0.0679
   2394 H5''       36.9495  -57.3347  -87.6567 H        75   A79       0.0679
   2395 H4'        37.9217  -56.6236  -85.5487 H        75   A79       0.1174
   2396 H3'        35.3583  -58.1859  -85.1581 H        75   A79       0.0615
   2397 H2'        35.9022  -58.2066  -82.8119 H        75   A79       0.0972
   2398 H1'        36.6643  -55.5365  -82.8256 H        75   A79       0.2007
   2399 H8         33.5721  -55.9913  -85.0088 H        75   A79       0.1553
   2400 H2         34.6527  -55.7923  -78.6976 H        75   A79       0.0473
   2401 HO2'       37.9610  -57.9672  -82.1702 H        75   A79       0.4186
   2402 H61        30.7409  -55.1740  -79.6822 H        75   A79       0.4115
   2403 H62        30.0182  -55.7679  -81.2692 H        75   A79       0.4115
   2404 P          36.5590  -60.5830  -85.2120 P.3      76   A80       1.1662
   2405 OP1        35.1670  -60.4900  -85.7100 O.co2    76   A80      -0.7760
   2406 OP2        37.5030  -61.4940  -85.9040 O.co2    76   A80      -0.7760
   2407 O5'        36.5570  -60.8890  -83.6480 O.3      76   A80      -0.4989
   2408 C5'        37.7700  -60.8980  -82.9080 C.3      76   A80       0.0558
   2409 C4'        37.5170  -60.8690  -81.4210 C.3      76   A80       0.1065
   2410 O4'        36.7980  -59.6590  -81.0640 O.3      76   A80      -0.3548
   2411 C3'        36.6520  -61.9870  -80.8650 C.3      76   A80       0.2022
   2412 O3'        37.3670  -63.1980  -80.6770 O.3      76   A80      -0.5246
   2413 C2'        36.1230  -61.3830  -79.5690 C.3      76   A80       0.0670
   2414 O2'        37.1030  -61.4650  -78.5430 O.3      76   A80      -0.6139
   2415 C1'        35.9510  -59.9120  -79.9620 C.3      76   A80       0.0394
   2416 N9         34.5630  -59.5960  -80.3510 N.ar     76   A80      -0.0251
   2417 C8         34.0270  -59.5680  -81.6140 C.ar     76   A80       0.2006
   2418 N7         32.7550  -59.2440  -81.6470 N.ar     76   A80      -0.6073
   2419 C5         32.4320  -59.0420  -80.3140 C.ar     76   A80       0.0515
   2420 C6         31.2330  -58.6840  -79.6760 C.ar     76   A80       0.7009
   2421 N6         30.0890  -58.4510  -80.3240 N.pl3    76   A80      -0.9019
   2422 N1         31.2470  -58.5720  -78.3300 N.ar     76   A80      -0.7615
   2423 C2         32.3920  -58.8020  -77.6790 C.ar     76   A80       0.5875
   2424 N3         33.5830  -59.1440  -78.1680 N.ar     76   A80      -0.6997
   2425 C4         33.5360  -59.2500  -79.5060 C.ar     76   A80       0.3053
   2426 H5'        38.3269  -61.8022  -83.1538 H        76   A80       0.0679
   2427 H5''       38.3636  -60.0270  -83.1858 H        76   A80       0.0679
   2428 H4'        38.4752  -60.8746  -80.9014 H        76   A80       0.1174
   2429 H3'        35.8178  -62.1654  -81.5435 H        76   A80       0.0615
   2430 H2'        35.1788  -61.8354  -79.2658 H        76   A80       0.0972
   2431 H1'        36.2457  -59.2775  -79.1262 H        76   A80       0.2007
   2432 H8         34.6002  -59.7924  -82.5014 H        76   A80       0.1553
   2433 H2         32.3446  -58.6955  -76.6053 H        76   A80       0.0473
   2434 H61        29.3105  -58.2128  -79.7263 H        76   A80       0.4115
   2435 H62        30.0088  -58.5082  -81.3292 H        76   A80       0.4115
   2436 HO2'       37.2218  -62.3823  -78.2859 H        76   A80       0.4186
   2437 P          36.5910  -64.5420  -80.2510 P.3      77   A81       1.1662
   2438 OP1        35.7990  -64.9820  -81.4260 O.co2    77   A81      -0.7760
   2439 OP2        37.6000  -65.4710  -79.6810 O.co2    77   A81      -0.7760
   2440 O5'        35.6170  -64.0290  -79.1050 O.3      77   A81      -0.4989
   2441 C5'        34.8890  -64.9360  -78.3010 C.3      77   A81       0.0558
   2442 C4'        34.4430  -64.2890  -77.0170 C.3      77   A81       0.1065
   2443 O4'        34.0480  -62.9130  -77.2690 O.3      77   A81      -0.3548
   2444 C3'        33.2310  -64.9140  -76.3540 C.3      77   A81       0.2022
   2445 O3'        33.5590  -66.0530  -75.5840 O.3      77   A81      -0.5246
   2446 C2'        32.6590  -63.7650  -75.5350 C.3      77   A81       0.0670
   2447 O2'        33.3710  -63.6130  -74.3180 O.3      77   A81      -0.6139
   2448 C1'        32.9630  -62.5630  -76.4350 C.3      77   A81       0.0394
   2449 N9         31.8140  -62.2050  -77.2880 N.ar     77   A81      -0.0251
   2450 C8         31.7360  -62.2230  -78.6600 C.ar     77   A81       0.2006
   2451 N7         30.5710  -61.8420  -79.1330 N.ar     77   A81      -0.6073
   2452 C5         29.8320  -61.5570  -77.9960 C.ar     77   A81       0.0515
   2453 C6         28.5140  -61.1050  -77.8160 C.ar     77   A81       0.7009
   2454 N6         27.6740  -60.8530  -78.8210 N.pl3    77   A81      -0.9019
   2455 N1         28.0810  -60.9140  -76.5510 N.ar     77   A81      -0.7615
   2456 C2         28.9290  -61.1690  -75.5460 C.ar     77   A81       0.5875
   2457 N3         30.1880  -61.5970  -75.5870 N.ar     77   A81      -0.6997
   2458 C4         30.5840  -61.7730  -76.8570 C.ar     77   A81       0.3053
   2459 H5'        34.0114  -65.2741  -78.8521 H        77   A81       0.0679
   2460 H5''       35.5191  -65.7947  -78.0693 H        77   A81       0.0679
   2461 H4'        35.2738  -64.2945  -76.3114 H        77   A81       0.1174
   2462 H3'        32.5111  -65.1977  -77.1217 H        77   A81       0.0615
   2463 H2'        31.5887  -63.8828  -75.3654 H        77   A81       0.0972
   2464 H1'        33.2391  -61.7075  -75.8186 H        77   A81       0.2007
   2465 H8         32.5584  -62.5233  -79.2924 H        77   A81       0.1553
   2466 H2         28.5318  -61.0025  -74.5556 H        77   A81       0.0473
   2467 H61        26.7740  -60.7307  -78.3793 H        77   A81       0.4115
   2468 H62        27.8902  -60.7969  -79.8060 H        77   A81       0.4115
   2469 HO2'       33.0938  -62.8026  -73.8844 H        77   A81       0.4186
   2470 P          32.5710  -67.3170  -75.5620 P.3      78   C82       1.1662
   2471 OP1        32.1570  -67.5750  -76.9620 O.co2    78   C82      -0.7760
   2472 OP2        33.2580  -68.3980  -74.8120 O.co2    78   C82      -0.7760
   2473 O5'        31.3340  -66.7770  -74.7220 O.3      78   C82      -0.4989
   2474 C5'        31.5120  -66.2960  -73.4020 C.3      78   C82       0.0558
   2475 C4'        30.2760  -65.5980  -72.9020 C.3      78   C82       0.1065
   2476 O4'        30.0140  -64.4230  -73.7100 O.3      78   C82      -0.3548
   2477 C3'        28.9840  -66.3930  -72.9790 C.3      78   C82       0.2022
   2478 O3'        28.8370  -67.3070  -71.9070 O.3      78   C82      -0.5246
   2479 C2'        27.9290  -65.2970  -72.9910 C.3      78   C82       0.0670
   2480 O2'        27.7280  -64.7880  -71.6830 O.3      78   C82      -0.6139
   2481 C1'        28.6230  -64.2180  -73.8220 C.3      78   C82       0.0066
   2482 N1         28.2510  -64.2830  -75.2510 N.am     78   C82      -0.0484
   2483 C2         27.0760  -63.6540  -75.6710 C.2      78   C82       0.7538
   2484 O2         26.3750  -63.0720  -74.8270 O.2      78   C82      -0.6252
   2485 N3         26.7350  -63.6990  -76.9840 N.2      78   C82      -0.7584
   2486 C4         27.5170  -64.3310  -77.8600 C.2      78   C82       0.8185
   2487 N4         27.1400  -64.3480  -79.1400 N.pl3    78   C82      -0.9530
   2488 C5         28.7200  -64.9740  -77.4540 C.2      78   C82      -0.5215
   2489 C6         29.0470  -64.9240  -76.1560 C.2      78   C82       0.0053
   2490 H5'        31.7349  -67.1368  -72.7451 H        78   C82       0.0679
   2491 H5''       32.3487  -65.5976  -73.3855 H        78   C82       0.0679
   2492 H4'        30.4388  -65.2877  -71.8698 H        78   C82       0.1174
   2493 H3'        28.9505  -66.9363  -73.9234 H        78   C82       0.0615
   2494 H2'        26.9974  -65.6303  -73.4484 H        78   C82       0.0972
   2495 H1'        28.3683  -63.2352  -73.4254 H        78   C82       0.2029
   2496 H5         29.3482  -65.4851  -78.1685 H        78   C82       0.1928
   2497 H6         29.9566  -65.3992  -75.8195 H        78   C82       0.1958
   2498 H41        26.2846  -63.8901  -79.4206 H        78   C82       0.4234
   2499 H42        27.7100  -64.8188  -79.8281 H        78   C82       0.4234
   2500 HO2'       26.8447  -64.4182  -71.6153 H        78   C82       0.4186
   2501 P          27.9120  -68.6100  -72.0720 P.3      79   C83       1.1662
   2502 OP1        28.2360  -69.2150  -73.3870 O.co2    79   C83      -0.7760
   2503 OP2        28.0910  -69.4300  -70.8470 O.co2    79   C83      -0.7760
   2504 O5'        26.4430  -67.9960  -72.1020 O.3      79   C83      -0.4989
   2505 C5'        25.8780  -67.4050  -70.9420 C.3      79   C83       0.0558
   2506 C4'        24.4740  -66.9150  -71.1970 C.3      79   C83       0.1065
   2507 O4'        24.4720  -65.9800  -72.3000 O.3      79   C83      -0.3548
   2508 C3'        23.4610  -67.9750  -71.5960 C.3      79   C83       0.2022
   2509 O3'        22.9220  -68.6470  -70.4710 O.3      79   C83      -0.5246
   2510 C2'        22.4170  -67.1790  -72.3790 C.3      79   C83       0.0670
   2511 O2'        21.4850  -66.5820  -71.4960 O.3      79   C83      -0.6139
   2512 C1'        23.2540  -66.0630  -73.0020 C.3      79   C83       0.0066
   2513 N1         23.5410  -66.2810  -74.4440 N.am     79   C83      -0.0484
   2514 C2         22.5370  -66.0290  -75.4000 C.2      79   C83       0.7538
   2515 O2         21.4040  -65.6810  -75.0230 O.2      79   C83      -0.6252
   2516 N3         22.8130  -66.1910  -76.7200 N.2      79   C83      -0.7584
   2517 C4         24.0350  -66.5700  -77.1010 C.2      79   C83       0.8185
   2518 N4         24.2730  -66.7250  -78.4080 N.pl3    79   C83      -0.9530
   2519 C5         25.0710  -66.8110  -76.1510 C.2      79   C83      -0.5215
   2520 C6         24.7910  -66.6510  -74.8520 C.2      79   C83       0.0053
   2521 H5'        26.4973  -66.5613  -70.6374 H        79   C83       0.0679
   2522 H5''       25.8587  -68.1420  -70.1391 H        79   C83       0.0679
   2523 H4'        24.1135  -66.4043  -70.3041 H        79   C83       0.1174
   2524 H3'        23.9358  -68.6994  -72.2578 H        79   C83       0.0615
   2525 H2'        21.9253  -67.7892  -73.1366 H        79   C83       0.0972
   2526 H1'        22.7197  -65.1196  -72.8896 H        79   C83       0.2029
   2527 H5         26.0565  -67.1149  -76.4716 H        79   C83       0.1928
   2528 H6         25.5640  -66.8167  -74.1162 H        79   C83       0.1958
   2529 H41        23.5374  -66.5549  -79.0789 H        79   C83       0.4234
   2530 H42        25.1883  -67.0121  -78.7241 H        79   C83       0.4234
   2531 HO2'       20.5934  -66.8114  -71.7681 H        79   C83       0.4186
   2532 P          22.8290  -70.2520  -70.4320 P.3      80   G84       1.1662
   2533 OP1        23.6510  -70.7710  -71.5520 O.co2    80   G84      -0.7760
   2534 OP2        23.1620  -70.6710  -69.0450 O.co2    80   G84      -0.7760
   2535 O5'        21.2860  -70.5140  -70.7270 O.3      80   G84      -0.4989
   2536 C5'        20.2840  -69.6430  -70.2140 C.3      80   G84       0.0558
   2537 C4'        19.1550  -69.4540  -71.1990 C.3      80   G84       0.1065
   2538 O4'        19.6230  -68.6940  -72.3350 O.3      80   G84      -0.3548
   2539 C3'        18.5630  -70.7300  -71.7880 C.3      80   G84       0.2022
   2540 O3'        17.5310  -71.2600  -70.9700 O.3      80   G84      -0.5246
   2541 C2'        18.0690  -70.3010  -73.1700 C.3      80   G84       0.0670
   2542 O2'        16.7330  -69.8240  -73.0890 O.3      80   G84      -0.6139
   2543 C1'        18.9830  -69.1190  -73.5120 C.3      80   G84       0.0191
   2544 N9         20.0210  -69.4350  -74.5190 N.ar     80   G84       0.0492
   2545 C8         21.2080  -70.0950  -74.3120 C.ar     80   G84       0.1374
   2546 N7         21.9690  -70.1640  -75.3740 N.ar     80   G84      -0.5709
   2547 C5         21.2610  -69.4790  -76.3460 C.ar     80   G84       0.1744
   2548 C6         21.5850  -69.2200  -77.7060 C.2      80   G84       0.4770
   2549 O6         22.5900  -69.5530  -78.3470 O.2      80   G84      -0.5597
   2550 N1         20.5920  -68.4880  -78.3420 N.am     80   G84      -0.4787
   2551 C2         19.4350  -68.0600  -77.7490 C.2      80   G84       0.7657
   2552 N2         18.6080  -67.3700  -78.5470 N.pl3    80   G84      -0.9672
   2553 N3         19.1150  -68.2920  -76.4810 N.2      80   G84      -0.6323
   2554 C4         20.0670  -69.0060  -75.8340 C.ar     80   G84       0.1222
   2555 H5'        20.7337  -68.6732  -70.0010 H        80   G84       0.0679
   2556 H5''       19.8854  -70.0623  -69.2902 H        80   G84       0.0679
   2557 H4'        18.3576  -68.8939  -70.7106 H        80   G84       0.1174
   2558 H3'        19.3512  -71.4742  -71.9017 H        80   G84       0.0615
   2559 H2'        18.1644  -71.1063  -73.8984 H        80   G84       0.0972
   2560 H1'        18.3688  -68.3014  -73.8894 H        80   G84       0.2006
   2561 H8         21.4877  -70.5186  -73.3587 H        80   G84       0.1640
   2562 H1         20.7336  -68.2538  -79.3142 H        80   G84       0.3424
   2563 H21        18.8605  -67.2001  -79.5101 H        80   G84       0.4364
   2564 H22        17.7324  -67.0200  -78.1852 H        80   G84       0.4364
   2565 HO2'       16.1451  -70.5522  -72.8751 H        80   G84       0.4186
   2566 P          17.2430  -72.8410  -70.9220 P.3      81   A85       1.1662
   2567 OP1        18.4220  -73.4830  -70.2760 O.co2    81   A85      -0.7760
   2568 OP2        16.8570  -73.2660  -72.2980 O.co2    81   A85      -0.7760
   2569 O5'        15.9810  -72.9320  -69.9580 O.3      81   A85      -0.4989
   2570 C5'        15.8850  -72.1150  -68.8020 C.3      81   A85       0.0558
   2571 C4'        14.5440  -72.2640  -68.1350 C.3      81   A85       0.1065
   2572 O4'        13.5130  -71.6550  -68.9570 O.3      81   A85      -0.3548
   2573 C3'        14.0550  -73.6880  -67.9380 C.3      81   A85       0.2022
   2574 O3'        14.6500  -74.3300  -66.8270 O.3      81   A85      -0.5246
   2575 C2'        12.5520  -73.5000  -67.8040 C.3      81   A85       0.0670
   2576 O2'        12.2200  -73.0260  -66.5060 O.3      81   A85      -0.6139
   2577 C1'        12.3030  -72.3720  -68.8110 C.3      81   A85       0.0394
   2578 N9         11.8940  -72.8920  -70.1320 N.ar     81   A85      -0.0251
   2579 C8         12.6020  -72.9070  -71.3100 C.ar     81   A85       0.2006
   2580 N7         11.9530  -73.4570  -72.3130 N.ar     81   A85      -0.6073
   2581 C5         10.7350  -73.8300  -71.7580 C.ar     81   A85       0.0515
   2582 C6          9.6040  -74.4600  -72.2970 C.ar     81   A85       0.7009
   2583 N6          9.4970  -74.8410  -73.5690 N.pl3    81   A85      -0.9019
   2584 N1          8.5660  -74.6860  -71.4690 N.ar     81   A85      -0.7615
   2585 C2          8.6640  -74.3040  -70.1890 C.ar     81   A85       0.5875
   2586 N3          9.6670  -73.7040  -69.5650 N.ar     81   A85      -0.6997
   2587 C4         10.6840  -73.4890  -70.4170 C.ar     81   A85       0.3053
   2588 H5'        16.6654  -72.4037  -68.0979 H        81   A85       0.0679
   2589 H5''       16.0286  -71.0729  -69.0876 H        81   A85       0.0679
   2590 H4'        14.5705  -71.7609  -67.1684 H        81   A85       0.1174
   2591 H3'        14.2640  -74.2654  -68.8386 H        81   A85       0.0615
   2592 H2'        12.0026  -74.4056  -68.0610 H        81   A85       0.0972
   2593 H1'        11.5300  -71.7062  -68.4272 H        81   A85       0.2007
   2594 H8         13.5997  -72.5041  -71.4034 H        81   A85       0.1553
   2595 H2          7.8000  -74.5158  -69.5766 H        81   A85       0.0473
   2596 H61         8.5690  -75.0737  -73.8925 H        81   A85       0.4115
   2597 H62        10.3013  -74.8943  -74.1776 H        81   A85       0.4115
   2598 HO2'       12.3707  -73.7221  -65.8624 H        81   A85       0.4186
   2599 P          14.8800  -75.9230  -66.8390 P.3      82   C86       1.1662
   2600 OP1        15.4750  -76.2840  -65.5240 O.co2    82   C86      -0.7760
   2601 OP2        15.6330  -76.2530  -68.0780 O.co2    82   C86      -0.7760
   2602 O5'        13.4000  -76.4960  -66.9410 O.3      82   C86      -0.4989
   2603 C5'        12.5450  -76.5070  -65.8120 C.3      82   C86       0.0558
   2604 C4'        11.1790  -77.0270  -66.1650 C.3      82   C86       0.1065
   2605 O4'        10.6360  -76.2710  -67.2780 O.3      82   C86      -0.3548
   2606 C3'        11.1150  -78.4630  -66.6490 C.3      82   C86       0.2022
   2607 O3'        11.1900  -79.4080  -65.5980 O.3      82   C86      -0.5246
   2608 C2'         9.7930  -78.4860  -67.3990 C.3      82   C86       0.0670
   2609 O2'         8.7040  -78.5310  -66.4910 O.3      82   C86      -0.6139
   2610 C1'         9.8090  -77.1090  -68.0600 C.3      82   C86       0.0066
   2611 N1         10.3500  -77.1630  -69.4300 N.am     82   C86      -0.0484
   2612 C2          9.5300  -77.7120  -70.4140 C.2      82   C86       0.7538
   2613 O2          8.4080  -78.1180  -70.0830 O.2      82   C86      -0.6252
   2614 N3          9.9780  -77.7890  -71.6880 N.2      82   C86      -0.7584
   2615 C4         11.1950  -77.3390  -71.9910 C.2      82   C86       0.8185
   2616 N4         11.5940  -77.4380  -73.2620 N.pl3    82   C86      -0.9530
   2617 C5         12.0530  -76.7690  -71.0020 C.2      82   C86      -0.5215
   2618 C6         11.5950  -76.7020  -69.7430 C.2      82   C86       0.0053
   2619 H5'        12.9802  -77.1460  -65.0436 H        82   C86       0.0679
   2620 H5''       12.4523  -75.4928  -65.4235 H        82   C86       0.0679
   2621 H4'        10.5215  -76.9127  -65.3032 H        82   C86       0.1174
   2622 H3'        11.9293  -78.6417  -67.3512 H        82   C86       0.0615
   2623 H2'         9.7505  -79.2923  -68.1312 H        82   C86       0.0972
   2624 H1'         8.7973  -76.7039  -68.0832 H        82   C86       0.2029
   2625 H5         13.0366  -76.4045  -71.2588 H        82   C86       0.1928
   2626 H6         12.2184  -76.2787  -68.9693 H        82   C86       0.1958
   2627 H41        10.9798  -77.8428  -73.9541 H        82   C86       0.4234
   2628 H42        12.5099  -77.1080  -73.5309 H        82   C86       0.4234
   2629 HO2'        8.6775  -79.3908  -66.0648 H        82   C86       0.4186
   2630 P          12.0130  -80.7720  -65.8000 P.3      83   A87       1.1662
   2631 OP1        13.2720  -80.4240  -66.5010 O.co2    83   A87      -0.7760
   2632 OP2        12.0950  -81.4380  -64.4760 O.co2    83   A87      -0.7760
   2633 O5'        11.0720  -81.6070  -66.7690 O.3      83   A87      -0.4989
   2634 C5'         9.8500  -82.1490  -66.3020 C.3      83   A87       0.0558
   2635 C4'         9.0910  -82.8120  -67.4160 C.3      83   A87       0.1065
   2636 O4'         8.8100  -81.8410  -68.4540 O.3      83   A87      -0.3548
   2637 C3'         9.8240  -83.9180  -68.1520 C.3      83   A87       0.2022
   2638 O3'         9.8200  -85.1530  -67.4590 O.3      83   A87      -0.5246
   2639 C2'         9.0940  -83.9590  -69.4850 C.3      83   A87       0.0670
   2640 O2'         7.8480  -84.6240  -69.3530 O.3      83   A87      -0.6139
   2641 C1'         8.8230  -82.4750  -69.7170 C.3      83   A87       0.0394
   2642 N9          9.8610  -81.8460  -70.5560 N.ar     83   A87      -0.0251
   2643 C8         10.8910  -81.0170  -70.1900 C.ar     83   A87       0.2006
   2644 N7         11.6390  -80.6260  -71.1970 N.ar     83   A87      -0.6073
   2645 C5         11.0600  -81.2380  -72.3010 C.ar     83   A87       0.0515
   2646 C6         11.3750  -81.2330  -73.6770 C.ar     83   A87       0.7009
   2647 N6         12.3990  -80.5560  -74.2110 N.pl3    83   A87      -0.9019
   2648 N1         10.5910  -81.9560  -74.5090 N.ar     83   A87      -0.7615
   2649 C2          9.5630  -82.6340  -73.9850 C.ar     83   A87       0.5875
   2650 N3          9.1690  -82.7180  -72.7150 N.ar     83   A87      -0.6997
   2651 C4          9.9660  -81.9890  -71.9160 C.ar     83   A87       0.3053
   2652 H5'        10.0608  -82.8861  -65.5272 H        83   A87       0.0679
   2653 H5''        9.2413  -81.3494  -65.8799 H        83   A87       0.0679
   2654 H4'         8.1509  -83.2025  -67.0264 H        83   A87       0.1174
   2655 H3'        10.8555  -83.6090  -68.3213 H        83   A87       0.0615
   2656 H2'         9.7077  -84.3918  -70.2750 H        83   A87       0.0972
   2657 H1'         7.8499  -82.3544  -70.1931 H        83   A87       0.2007
   2658 H8         11.0704  -80.7139  -69.1690 H        83   A87       0.1553
   2659 H2          8.9680  -83.1926  -74.6923 H        83   A87       0.0473
   2660 H61        12.1101  -80.2042  -75.1126 H        83   A87       0.4115
   2661 H62        13.3048  -80.4203  -73.7854 H        83   A87       0.4115
   2662 HO2'        7.6757  -85.1407  -70.1435 H        83   A87       0.4186
   2663 P          11.0210  -86.2010  -67.6730 P.3      84   G88       1.1662
   2664 OP1        10.7300  -87.3790  -66.8210 O.co2    84   G88      -0.7760
   2665 OP2        12.2890  -85.4630  -67.4570 O.co2    84   G88      -0.7760
   2666 O5'        10.8790  -86.5940  -69.2090 O.3      84   G88      -0.4989
   2667 C5'         9.7220  -87.2660  -69.6840 C.3      84   G88       0.0558
   2668 C4'         9.8590  -87.6400  -71.1360 C.3      84   G88       0.1065
   2669 O4'         9.8490  -86.4470  -71.9550 O.3      84   G88      -0.3548
   2670 C3'        11.1460  -88.3530  -71.5170 C.3      84   G88       0.2022
   2671 O3'        11.0940  -89.7450  -71.2510 O.3      84   G88      -0.5246
   2672 C2'        11.3050  -88.0220  -73.0000 C.3      84   G88       0.0670
   2673 O2'        10.5670  -88.9330  -73.8000 O.3      84   G88      -0.6139
   2674 C1'        10.6490  -86.6380  -73.1000 C.3      84   G88       0.0191
   2675 N9         11.6370  -85.5400  -73.1790 N.ar     84   G88       0.0492
   2676 C8         12.1290  -84.7890  -72.1370 C.ar     84   G88       0.1374
   2677 N7         12.9830  -83.8720  -72.5070 N.ar     84   G88      -0.5709
   2678 C5         13.0580  -84.0140  -73.8840 C.ar     84   G88       0.1744
   2679 C6         13.8270  -83.2920  -74.8360 C.2      84   G88       0.4770
   2680 O6         14.6220  -82.3530  -74.6600 O.2      84   G88      -0.5597
   2681 N1         13.5980  -83.7630  -76.1230 N.am     84   G88      -0.4787
   2682 C2         12.7520  -84.7910  -76.4550 C.2      84   G88       0.7657
   2683 N2         12.6840  -85.0840  -77.7640 N.pl3    84   G88      -0.9672
   2684 N3         12.0320  -85.4710  -75.5770 N.2      84   G88      -0.6323
   2685 C4         12.2290  -85.0310  -74.3170 C.ar     84   G88       0.1222
   2686 H5'         8.8588  -86.6108  -69.5669 H        84   G88       0.0679
   2687 H5''        9.5669  -88.1701  -69.0952 H        84   G88       0.0679
   2688 H4'         9.0133  -88.2670  -71.4185 H        84   G88       0.1174
   2689 H3'        11.9752  -87.9141  -70.9622 H        84   G88       0.0615
   2690 H2'        12.3543  -87.9902  -73.2932 H        84   G88       0.0972
   2691 H1'        10.0142  -86.6090  -73.9856 H        84   G88       0.2006
   2692 H8         11.8366  -84.9430  -71.1088 H        84   G88       0.1640
   2693 H1         14.0956  -83.3111  -76.8768 H        84   G88       0.3424
   2694 H21        13.2356  -84.5599  -78.4281 H        84   G88       0.4364
   2695 H22        12.0812  -85.8285  -78.0842 H        84   G88       0.4364
   2696 HO2'       11.1728  -89.5141  -74.2657 H        84   G88       0.4186
   2697 P          12.3610  -90.4990  -70.6110 P.3      85   U89       1.1662
   2698 OP1        11.9010  -91.8440  -70.1870 O.co2    85   U89      -0.7760
   2699 OP2        12.9440  -89.5900  -69.5910 O.co2    85   U89      -0.7760
   2700 O5'        13.3510  -90.6320  -71.8480 O.3      85   U89      -0.4989
   2701 C5'        12.9260  -91.2480  -73.0530 C.3      85   U89       0.0558
   2702 C4'        13.9100  -91.0110  -74.1680 C.3      85   U89       0.1065
   2703 O4'        13.7910  -89.6490  -74.6500 O.3      85   U89      -0.3548
   2704 C3'        15.3780  -91.1440  -73.7990 C.3      85   U89       0.2022
   2705 O3'        15.8150  -92.4930  -73.7520 O.3      85   U89      -0.5246
   2706 C2'        16.0700  -90.3100  -74.8740 C.3      85   U89       0.0670
   2707 O2'        16.2070  -91.0540  -76.0770 O.3      85   U89      -0.6139
   2708 C1'        15.0470  -89.1930  -75.1100 C.3      85   U89       0.0674
   2709 N1         15.4000  -87.9440  -74.3900 N.am     85   U89       0.0418
   2710 C2         15.8170  -86.8540  -75.1510 C.2      85   U89       0.4687
   2711 O2         15.9010  -86.8790  -76.3710 O.2      85   U89      -0.5477
   2712 N3         16.1350  -85.7250  -74.4300 N.am     85   U89      -0.3549
   2713 C4         16.0820  -85.5760  -73.0570 C.2      85   U89       0.5952
   2714 O4         16.4030  -84.4980  -72.5530 O.2      85   U89      -0.5761
   2715 C5         15.6440  -86.7430  -72.3480 C.2      85   U89      -0.3635
   2716 C6         15.3270  -87.8600  -73.0170 C.2      85   U89      -0.1126
   2717 H5'        12.8293  -92.3210  -72.8877 H        85   U89       0.0679
   2718 H5''       11.9561  -90.8415  -73.3396 H        85   U89       0.0679
   2719 H4'        13.6881  -91.6959  -74.9864 H        85   U89       0.1174
   2720 H3'        15.5445  -90.6811  -72.8263 H        85   U89       0.0615
   2721 H2'        17.0265  -89.9173  -74.5291 H        85   U89       0.0972
   2722 H1'        14.9835  -88.9851  -76.1781 H        85   U89       0.1824
   2723 H3         16.4390  -84.9210  -74.9603 H        85   U89       0.3154
   2724 H5         15.5693  -86.7216  -71.2708 H        85   U89       0.1811
   2725 H6         15.0024  -88.7260  -72.4593 H        85   U89       0.2188
   2726 HO2'       16.8727  -91.7354  -75.9583 H        85   U89       0.4186
   2727 P          17.1860  -92.8780  -73.0040 P.3      86   A90       1.1662
   2728 OP1        17.2860  -94.3570  -73.0050 O.co2    86   A90      -0.7760
   2729 OP2        17.1890  -92.1650  -71.7010 O.co2    86   A90      -0.7760
   2730 O5'        18.2940  -92.2600  -73.9620 O.3      86   A90      -0.4989
   2731 C5'        19.6450  -92.6970  -73.8960 C.3      86   A90       0.0558
   2732 C4'        20.5840  -91.5450  -73.6620 C.3      86   A90       0.1065
   2733 O4'        21.9180  -91.9130  -74.1210 O.3      86   A90      -0.3548
   2734 C3'        20.2220  -90.2500  -74.3990 C.3      86   A90       0.2022
   2735 O3'        20.5700  -89.1280  -73.5860 O.3      86   A90      -0.5246
   2736 C2'        21.1470  -90.2930  -75.6100 C.3      86   A90       0.0670
   2737 O2'        21.4190  -89.0330  -76.1890 O.3      86   A90      -0.6139
   2738 C1'        22.3920  -90.9100  -74.9930 C.3      86   A90       0.0394
   2739 N9         23.3170  -91.5030  -75.9580 N.ar     86   A90      -0.0251
   2740 C8         23.0780  -91.9260  -77.2390 C.ar     86   A90       0.2006
   2741 N7         24.1520  -92.3700  -77.8520 N.ar     86   A90      -0.6073
   2742 C5         25.1640  -92.2060  -76.9170 C.ar     86   A90       0.0515
   2743 C6         26.5430  -92.4830  -76.9470 C.ar     86   A90       0.7009
   2744 N6         27.1700  -93.0090  -78.0020 N.pl3    86   A90      -0.9019
   2745 N1         27.2670  -92.2040  -75.8390 N.ar     86   A90      -0.7615
   2746 C2         26.6370  -91.6770  -74.7780 C.ar     86   A90       0.5875
   2747 N3         25.3490  -91.3700  -74.6300 N.ar     86   A90      -0.6997
   2748 C4         24.6630  -91.6640  -75.7500 C.ar     86   A90       0.3053
   2749 H5'        19.9069  -93.1824  -74.8362 H        86   A90       0.0679
   2750 H5''       19.7494  -93.4144  -73.0820 H        86   A90       0.0679
   2751 H4'        20.6261  -91.3392  -72.5924 H        86   A90       0.1174
   2752 H3'        19.1720  -90.2293  -74.6910 H        86   A90       0.0615
   2753 H2'        20.7370  -90.9649  -76.3640 H        86   A90       0.0972
   2754 H1'        22.9176  -90.1512  -74.4133 H        86   A90       0.2007
   2755 H8         22.1018  -91.8973  -77.7001 H        86   A90       0.1553
   2756 H2         27.2631  -91.4726  -73.9221 H        86   A90       0.0473
   2757 H61        26.6510  -93.2284  -78.8402 H        86   A90       0.4115
   2758 H62        28.1633  -93.1875  -77.9618 H        86   A90       0.4115
   2759 HO2'       20.6134  -88.6738  -76.5678 H        86   A90       0.4186
   2760 P          19.4680  -88.4150  -72.6590 P.3      87   G91       1.1662
   2761 OP1        19.2060  -89.3190  -71.5090 O.co2    87   G91      -0.7760
   2762 OP2        18.3390  -88.0340  -73.5360 O.co2    87   G91      -0.7760
   2763 O5'        20.2300  -87.1120  -72.1610 O.3      87   G91      -0.4989
   2764 C5'        19.7600  -86.3690  -71.0430 C.3      87   G91       0.0558
   2765 C4'        20.7000  -85.2440  -70.6930 C.3      87   G91       0.1065
   2766 O4'        22.0130  -85.7940  -70.3960 O.3      87   G91      -0.3548
   2767 C3'        20.9140  -84.2130  -71.7950 C.3      87   G91       0.2022
   2768 O3'        21.1180  -82.9300  -71.2030 O.3      87   G91      -0.5246
   2769 C2'        22.2090  -84.6890  -72.4530 C.3      87   G91       0.0670
   2770 O2'        22.9240  -83.6840  -73.1440 O.3      87   G91      -0.6139
   2771 C1'        22.9830  -85.2130  -71.2480 C.3      87   G91       0.0191
   2772 N9         23.9880  -86.2380  -71.5670 N.ar     87   G91       0.0492
   2773 C8         23.7630  -87.5280  -71.9900 C.ar     87   G91       0.1374
   2774 N7         24.8590  -88.2180  -72.1770 N.ar     87   G91      -0.5709
   2775 C5         25.8790  -87.3370  -71.8490 C.ar     87   G91       0.1744
   2776 C6         27.2940  -87.5160  -71.8530 C.2      87   G91       0.4770
   2777 O6         27.9570  -88.5240  -72.1640 O.2      87   G91      -0.5597
   2778 N1         27.9560  -86.3580  -71.4460 N.am     87   G91      -0.4787
   2779 C2         27.3420  -85.1820  -71.0860 C.2      87   G91       0.7657
   2780 N2         28.1550  -84.1760  -70.7250 N.pl3    87   G91      -0.9672
   2781 N3         26.0260  -85.0100  -71.0730 N.2      87   G91      -0.6323
   2782 C4         25.3580  -86.1160  -71.4650 C.ar     87   G91       0.1222
   2783 H5'        18.7816  -85.9518  -71.2811 H        87   G91       0.0679
   2784 H5''       19.6652  -87.0352  -70.1855 H        87   G91       0.0679
   2785 H4'        20.3236  -84.7357  -69.8053 H        87   G91       0.1174
   2786 H3'        20.0844  -84.2022  -72.5019 H        87   G91       0.0615
   2787 H2'        21.9909  -85.5131  -73.1322 H        87   G91       0.0972
   2788 H1'        23.4641  -84.3800  -70.7354 H        87   G91       0.2006
   2789 H8         22.7750  -87.9328  -72.1523 H        87   G91       0.1640
   2790 H1         28.9651  -86.3855  -71.4132 H        87   G91       0.3424
   2791 H21        29.1562  -84.3085  -70.7320 H        87   G91       0.4364
   2792 H22        27.7652  -83.2868  -70.4465 H        87   G91       0.4364
   2793 HO2'       22.8304  -83.8171  -74.0901 H        87   G91       0.4186
   2794 P          20.0060  -81.7830  -71.3630 P.3      88   A92       1.1662
   2795 OP1        18.6940  -82.3980  -71.0750 O.co2    88   A92      -0.7760
   2796 OP2        20.4450  -80.6310  -70.5450 O.co2    88   A92      -0.7760
   2797 O5'        20.0990  -81.4210  -72.9040 O.3      88   A92      -0.4989
   2798 C5'        21.1600  -80.6180  -73.4000 C.3      88   A92       0.0558
   2799 C4'        20.6800  -79.7060  -74.4910 C.3      88   A92       0.1065
   2800 O4'        20.2370  -80.5140  -75.6130 O.3      88   A92      -0.3548
   2801 C3'        19.4950  -78.8280  -74.1110 C.3      88   A92       0.2022
   2802 O3'        19.5650  -77.6090  -74.8410 O.3      88   A92      -0.5246
   2803 C2'        18.3070  -79.6480  -74.5930 C.3      88   A92       0.0670
   2804 O2'        17.1400  -78.8960  -74.8440 O.3      88   A92      -0.6139
   2805 C1'        18.8660  -80.2730  -75.8690 C.3      88   A92       0.0394
   2806 N9         18.2410  -81.5480  -76.2320 N.ar     88   A92      -0.0251
   2807 C8         17.9070  -82.5840  -75.3970 C.ar     88   A92       0.2006
   2808 N7         17.3520  -83.5980  -76.0130 N.ar     88   A92      -0.6073
   2809 C5         17.3210  -83.2050  -77.3460 C.ar     88   A92       0.0515
   2810 C6         16.8540  -83.8450  -78.5130 C.ar     88   A92       0.7009
   2811 N6         16.3070  -85.0650  -78.5230 N.pl3    88   A92      -0.9019
   2812 N1         16.9720  -83.1810  -79.6870 N.ar     88   A92      -0.7615
   2813 C2         17.5210  -81.9560  -79.6740 C.ar     88   A92       0.5875
   2814 N3         17.9960  -81.2530  -78.6470 N.ar     88   A92      -0.6997
   2815 C4         17.8660  -81.9420  -77.4960 C.ar     88   A92       0.3053
   2816 H5'        21.5630  -80.0170  -72.5849 H        88   A92       0.0679
   2817 H5''       21.9457  -81.2638  -73.7920 H        88   A92       0.0679
   2818 H4'        21.5052  -79.0709  -74.8132 H        88   A92       0.1174
   2819 H3'        19.4529  -78.6517  -73.0362 H        88   A92       0.0615
   2820 H2'        18.0870  -80.4322  -73.8686 H        88   A92       0.0972
   2821 H1'        18.7666  -79.5688  -76.6950 H        88   A92       0.2007
   2822 H8         18.0849  -82.5653  -74.3319 H        88   A92       0.1553
   2823 H2         17.5872  -81.4697  -80.6361 H        88   A92       0.0473
   2824 HO2'       17.2786  -78.3357  -75.6111 H        88   A92       0.4186
   2825 H61        16.3247  -85.4845  -77.6044 H        88   A92       0.4115
   2826 H62        15.9247  -85.5105  -79.3448 H        88   A92       0.4115
   2827 P          20.6940  -76.5260  -74.4800 P.3      89   G93       1.1662
   2828 OP1        21.8600  -76.7920  -75.3680 O.co2    89   G93      -0.7760
   2829 OP2        20.8870  -76.5770  -73.0040 O.co2    89   G93      -0.7760
   2830 O5'        20.0060  -75.1520  -74.8860 O.3      89   G93      -0.4989
   2831 C5'        18.7020  -74.8270  -74.4250 C.3      89   G93       0.0558
   2832 C4'        18.0330  -73.8440  -75.3430 C.3      89   G93       0.1065
   2833 O4'        18.9020  -72.7030  -75.5400 O.3      89   G93      -0.3548
   2834 C3'        17.7270  -74.3560  -76.7440 C.3      89   G93       0.2022
   2835 O3'        16.4740  -75.0150  -76.8060 O.3      89   G93      -0.5246
   2836 C2'        17.7850  -73.0960  -77.6010 C.3      89   G93       0.0670
   2837 O2'        16.5450  -72.4020  -77.5450 O.3      89   G93      -0.6139
   2838 C1'        18.8370  -72.2580  -76.8710 C.3      89   G93       0.0191
   2839 N9         20.1880  -72.3680  -77.4630 N.ar     89   G93       0.0492
   2840 C8         21.3050  -72.6940  -76.7340 C.ar     89   G93       0.1374
   2841 N7         22.4050  -72.7050  -77.4260 N.ar     89   G93      -0.5709
   2842 C5         21.9950  -72.3480  -78.6970 C.ar     89   G93       0.1744
   2843 C6         22.7700  -72.1940  -79.8700 C.2      89   G93       0.4770
   2844 O6         23.9930  -72.3580  -79.9940 O.2      89   G93      -0.5597
   2845 N1         21.9750  -71.8180  -80.9530 N.am     89   G93      -0.4787
   2846 C2         20.6150  -71.6200  -80.9020 C.2      89   G93       0.7657
   2847 N2         20.0200  -71.2600  -82.0490 N.pl3    89   G93      -0.9672
   2848 N3         19.8880  -71.7610  -79.8060 N.2      89   G93      -0.6323
   2849 C4         20.6350  -72.1230  -78.7430 C.ar     89   G93       0.1222
   2850 H5'        18.7752  -74.3906  -73.4288 H        89   G93       0.0679
   2851 H5''       18.1026  -75.7360  -74.3750 H        89   G93       0.0679
   2852 H4'        17.1056  -73.5052  -74.8812 H        89   G93       0.1174
   2853 H3'        18.5129  -75.0431  -77.0576 H        89   G93       0.0615
   2854 H2'        18.0813  -73.3159  -78.6267 H        89   G93       0.0972
   2855 H1'        18.5285  -71.2126  -76.8815 H        89   G93       0.2006
   2856 H8         21.2723  -72.9212  -75.6787 H        89   G93       0.1640
   2857 H1         22.4333  -71.6807  -81.8425 H        89   G93       0.3424
   2858 H21        20.5689  -71.1494  -82.8896 H        89   G93       0.4364
   2859 H22        19.0231  -71.0996  -82.0721 H        89   G93       0.4364
   2860 HO2'       15.8709  -72.9132  -77.9987 H        89   G93       0.4186
   2861 P          16.3380  -76.4660  -77.4740 P.3      90   U94       1.1662
   2862 OP1        15.0030  -76.9990  -77.0870 O.co2    90   U94      -0.7760
   2863 OP2        17.5440  -77.2350  -77.0970 O.co2    90   U94      -0.7760
   2864 O5'        16.3630  -76.1310  -79.0330 O.3      90   U94      -0.4989
   2865 C5'        15.4190  -75.2230  -79.5920 C.3      90   U94       0.0558
   2866 C4'        15.5710  -75.0910  -81.0880 C.3      90   U94       0.1065
   2867 O4'        16.8250  -74.4240  -81.3800 O.3      90   U94      -0.3548
   2868 C3'        15.5820  -76.4050  -81.8650 C.3      90   U94       0.2022
   2869 O3'        14.8870  -76.2410  -83.0970 O.3      90   U94      -0.5246
   2870 C2'        17.0630  -76.6440  -82.1390 C.3      90   U94       0.0670
   2871 O2'        17.3300  -77.3810  -83.3120 O.3      90   U94      -0.6139
   2872 C1'        17.6220  -75.2270  -82.2300 C.3      90   U94       0.0674
   2873 N1         19.0120  -75.1330  -81.7640 N.am     90   U94       0.0418
   2874 C2         20.0090  -74.7480  -82.6280 C.2      90   U94       0.4687
   2875 O2         19.7930  -74.4500  -83.7860 O.2      90   U94      -0.5477
   2876 N3         21.2650  -74.7280  -82.0700 N.am     90   U94      -0.3549
   2877 C4         21.6040  -75.0570  -80.7690 C.2      90   U94       0.5952
   2878 O4         22.7740  -75.0050  -80.3890 O.2      90   U94      -0.5761
   2879 C5         20.5080  -75.4460  -79.9460 C.2      90   U94      -0.3635
   2880 C6         19.2820  -75.4790  -80.4630 C.2      90   U94      -0.1126
   2881 H5'        14.4138  -75.5823  -79.3719 H        90   U94       0.0679
   2882 H5''       15.5542  -74.2434  -79.1336 H        90   U94       0.0679
   2883 H4'        14.7555  -74.4737  -81.4649 H        90   U94       0.1174
   2884 H3'        15.1540  -77.2157  -81.2754 H        90   U94       0.0615
   2885 H2'        17.5095  -77.1529  -81.2847 H        90   U94       0.0972
   2886 H1'        17.5499  -74.8655  -83.2558 H        90   U94       0.1824
   2887 H3         22.0221  -74.4425  -82.6745 H        90   U94       0.3154
   2888 H5         20.6706  -75.7117  -78.9119 H        90   U94       0.1811
   2889 H6         18.4636  -75.7917  -79.8314 H        90   U94       0.2188
   2890 HO2'       16.9670  -78.2654  -83.2244 H        90   U94       0.4186
   2891 P          13.3780  -76.7690  -83.2350 P.3      91   C95       1.1662
   2892 OP1        12.9140  -76.4040  -84.5920 O.co2    91   C95      -0.7760
   2893 OP2        12.6270  -76.2620  -82.0600 O.co2    91   C95      -0.7760
   2894 O5'        13.5430  -78.3430  -83.1290 O.3      91   C95      -0.4989
   2895 C5'        13.7870  -79.1280  -84.2860 C.3      91   C95       0.0558
   2896 C4'        13.6310  -80.5930  -83.9890 C.3      91   C95       0.1065
   2897 O4'        14.6400  -81.0040  -83.0370 O.3      91   C95      -0.3548
   2898 C3'        12.3180  -80.9920  -83.3420 C.3      91   C95       0.2022
   2899 O3'        11.2830  -81.1640  -84.2880 O.3      91   C95      -0.5246
   2900 C2'        12.6750  -82.2690  -82.5860 C.3      91   C95       0.0670
   2901 O2'        12.6570  -83.3930  -83.4550 O.3      91   C95      -0.6139
   2902 C1'        14.1230  -81.9990  -82.1820 C.3      91   C95       0.0066
   2903 N1         14.2510  -81.5340  -80.7860 N.am     91   C95      -0.0484
   2904 C2         14.0740  -82.4450  -79.7400 C.2      91   C95       0.7538
   2905 O2         13.7690  -83.6170  -80.0110 O.2      91   C95      -0.6252
   2906 N3         14.2240  -82.0260  -78.4620 N.2      91   C95      -0.7584
   2907 C4         14.5510  -80.7590  -78.2120 C.2      91   C95       0.8185
   2908 N4         14.6880  -80.3850  -76.9420 N.pl3    91   C95      -0.9530
   2909 C5         14.7510  -79.8150  -79.2570 C.2      91   C95      -0.5215
   2910 C6         14.6010  -80.2440  -80.5180 C.2      91   C95       0.0053
   2911 H5'        13.0778  -78.8452  -85.0639 H        91   C95       0.0679
   2912 H5''       14.8008  -78.9399  -84.6395 H        91   C95       0.0679
   2913 H4'        13.7600  -81.1591  -84.9115 H        91   C95       0.1174
   2914 H3'        12.0242  -80.2237  -82.6268 H        91   C95       0.0615
   2915 H2'        12.0334  -82.4182  -81.7176 H        91   C95       0.0972
   2916 H1'        14.7038  -82.9128  -82.3074 H        91   C95       0.2029
   2917 H5         15.0142  -78.7898  -79.0422 H        91   C95       0.1928
   2918 H6         14.7601  -79.5562  -81.3353 H        91   C95       0.1958
   2919 H41        14.5453  -81.0552  -76.2000 H        91   C95       0.4234
   2920 H42        14.9346  -79.4310  -76.7203 H        91   C95       0.4234
   2921 HO2'       11.7532  -83.5785  -83.7203 H        91   C95       0.4186
   2922 P           9.8480  -80.4880  -84.0510 P.3      92   U96       1.1662
   2923 OP1         9.1410  -80.5070  -85.3550 O.co2    92   U96      -0.7760
   2924 OP2        10.0790  -79.1810  -83.3800 O.co2    92   U96      -0.7760
   2925 O5'         9.1520  -81.4970  -83.0410 O.3      92   U96      -0.4989
   2926 C5'         8.9700  -82.8600  -83.3830 C.3      92   U96       0.0558
   2927 C4'         8.5980  -83.6740  -82.1750 C.3      92   U96       0.1065
   2928 O4'         9.7440  -83.7970  -81.2980 O.3      92   U96      -0.3548
   2929 C3'         7.5170  -83.0810  -81.2870 C.3      92   U96       0.2022
   2930 O3'         6.2110  -83.3230  -81.7750 O.3      92   U96      -0.5246
   2931 C2'         7.7950  -83.7260  -79.9350 C.3      92   U96       0.0670
   2932 O2'         7.2640  -85.0420  -79.8870 O.3      92   U96      -0.6139
   2933 C1'         9.3210  -83.8220  -79.9510 C.3      92   U96       0.0674
   2934 N1          9.9670  -82.7020  -79.2300 N.am     92   U96       0.0418
   2935 C2         10.1310  -82.8350  -77.8610 C.2      92   U96       0.4687
   2936 O2          9.7380  -83.8130  -77.2470 O.2      92   U96      -0.5477
   2937 N3         10.7550  -81.7830  -77.2360 N.am     92   U96      -0.3549
   2938 C4         11.2310  -80.6380  -77.8350 C.2      92   U96       0.5952
   2939 O4         11.7760  -79.7710  -77.1450 O.2      92   U96      -0.5761
   2940 C5         11.0320  -80.5810  -79.2530 C.2      92   U96      -0.3635
   2941 C6         10.4260  -81.5880  -79.8910 C.2      92   U96      -0.1126
   2942 H5'         8.1745  -82.9382  -84.1240 H        92   U96       0.0679
   2943 H5''        9.8952  -83.2500  -83.8074 H        92   U96       0.0679
   2944 H4'         8.2882  -84.6681  -82.4973 H        92   U96       0.1174
   2945 H3'         7.6731  -82.0052  -81.2067 H        92   U96       0.0615
   2946 H2'         7.4348  -83.1118  -79.1097 H        92   U96       0.0972
   2947 H1'         9.6260  -84.7647  -79.4966 H        92   U96       0.1824
   2948 H3         10.8770  -81.8567  -76.2361 H        92   U96       0.3154
   2949 H5         11.3732  -79.7204  -79.8092 H        92   U96       0.1811
   2950 H6         10.2929  -81.5237  -80.9608 H        92   U96       0.2188
   2951 HO2'        6.8539  -85.1904  -79.0318 H        92   U96       0.4186
   2952 P           5.0400  -82.2590  -81.5100 P.3      93   G97       1.1662
   2953 OP1         5.5700  -80.9180  -81.8770 O.co2    93   G97      -0.7760
   2954 OP2         3.8300  -82.7650  -82.2050 O.co2    93   G97      -0.7760
   2955 O5'         4.8340  -82.3460  -79.9350 O.3      93   G97      -0.4989
   2956 C5'         4.3920  -83.5470  -79.3290 C.3      93   G97       0.0558
   2957 C4'         4.2310  -83.3850  -77.8420 C.3      93   G97       0.1065
   2958 O4'         5.5320  -83.2680  -77.2160 O.3      93   G97      -0.3548
   2959 C3'         3.4870  -82.1440  -77.3850 C.3      93   G97       0.2022
   2960 O3'         2.0800  -82.2870  -77.4720 O.3      93   G97      -0.5246
   2961 C2'         3.9960  -81.9540  -75.9600 C.3      93   G97       0.0670
   2962 O2'         3.3180  -82.8240  -75.0660 O.3      93   G97      -0.6139
   2963 C1'         5.4460  -82.4290  -76.0850 C.3      93   G97       0.0191
   2964 N9          6.3990  -81.3120  -76.2500 N.ar     93   G97       0.0492
   2965 C8          6.9070  -80.7990  -77.4220 C.ar     93   G97       0.1374
   2966 N7          7.7580  -79.8240  -77.2330 N.ar     93   G97      -0.5709
   2967 C5          7.8230  -79.6870  -75.8520 C.ar     93   G97       0.1744
   2968 C6          8.5730  -78.7910  -75.0450 C.2      93   G97       0.4770
   2969 O6          9.3620  -77.9050  -75.3960 O.2      93   G97      -0.5597
   2970 N1          8.3360  -78.9980  -73.6900 N.am     93   G97      -0.4787
   2971 C2          7.4850  -79.9460  -73.1750 C.2      93   G97       0.7657
   2972 N2          7.3850  -80.0020  -71.8380 N.pl3    93   G97      -0.9672
   2973 N3          6.7800  -80.7830  -73.9150 N.2      93   G97      -0.6323
   2974 C4          6.9960  -80.6010  -75.2340 C.ar     93   G97       0.1222
   2975 H5'         3.4318  -83.8294  -79.7608 H        93   G97       0.0679
   2976 H5''        5.1184  -84.3354  -79.5262 H        93   G97       0.0679
   2977 H4'         3.7262  -84.2653  -77.4441 H        93   G97       0.1174
   2978 H3'         3.7991  -81.2949  -77.9931 H        93   G97       0.0615
   2979 H2'         3.9344  -80.9136  -75.6409 H        93   G97       0.0972
   2980 H1'         5.7136  -82.9992  -75.1954 H        93   G97       0.2006
   2981 H8          6.6305  -81.1650  -78.3998 H        93   G97       0.1640
   2982 H1          8.8268  -78.4064  -73.0348 H        93   G97       0.3424
   2983 H21         7.9205  -79.3661  -71.2645 H        93   G97       0.4364
   2984 H22         6.7742  -80.6800  -71.4052 H        93   G97       0.4364
   2985 HO2'        2.6549  -82.3295  -74.5787 H        93   G97       0.4186
   2986 P           1.1690  -81.0540  -77.9500 P.3      94   G98       1.1662
   2987 OP1        -0.0490  -81.6270  -78.5790 O.co2    94   G98      -0.7760
   2988 OP2         2.0340  -80.1620  -78.7570 O.co2    94   G98      -0.7760
   2989 O5'         0.7890  -80.3490  -76.5750 O.3      94   G98      -0.4989
   2990 C5'         0.1940  -81.0900  -75.5200 C.3      94   G98       0.0558
   2991 C4'         0.3480  -80.3890  -74.1960 C.3      94   G98       0.1065
   2992 O4'         1.7490  -80.3060  -73.8460 O.3      94   G98      -0.3548
   2993 C3'        -0.1450  -78.9510  -74.1430 C.3      94   G98       0.2022
   2994 O3'        -1.5420  -78.8700  -73.9140 O.3      94   G98      -0.5246
   2995 C2'         0.6860  -78.3380  -73.0190 C.3      94   G98       0.0670
   2996 O2'         0.0910  -78.6020  -71.7550 O.3      94   G98      -0.6139
   2997 C1'         1.9970  -79.1280  -73.1140 C.3      94   G98       0.0191
   2998 N9          3.0770  -78.3720  -73.7840 N.ar     94   G98       0.0492
   2999 C8          3.2710  -78.1990  -75.1360 C.ar     94   G98       0.1374
   3000 N7          4.3380  -77.4990  -75.4230 N.ar     94   G98      -0.5709
   3001 C5          4.8970  -77.2010  -74.1860 C.ar     94   G98       0.1744
   3002 C6          6.0690  -76.4660  -73.8570 C.2      94   G98       0.4770
   3003 O6          6.8780  -75.9110  -74.6230 O.2      94   G98      -0.5597
   3004 N1          6.2600  -76.4050  -72.4790 N.am     94   G98      -0.4787
   3005 C2          5.4380  -76.9750  -71.5410 C.2      94   G98       0.7657
   3006 N2          5.7900  -76.8080  -70.2580 N.pl3    94   G98      -0.9672
   3007 N3          4.3480  -77.6630  -71.8350 N.2      94   G98      -0.6323
   3008 C4          4.1360  -77.7380  -73.1670 C.ar     94   G98       0.1222
   3009 H5'         0.6725  -82.0675  -75.4605 H        94   G98       0.0679
   3010 H5''       -0.8668  -81.2240  -75.7318 H        94   G98       0.0679
   3011 H4'        -0.1711  -80.9663  -73.4309 H        94   G98       0.1174
   3012 H3'         0.0957  -78.4527  -75.0821 H        94   G98       0.0615
   3013 H2'         0.8469  -77.2710  -73.1732 H        94   G98       0.0972
   3014 H1'         2.3228  -79.3968  -72.1092 H        94   G98       0.2006
   3015 H8          2.6070  -78.6020  -75.8864 H        94   G98       0.1640
   3016 H1          7.0683  -75.9008  -72.1437 H        94   G98       0.3424
   3017 H21         6.6220  -76.2842  -70.0267 H        94   G98       0.4364
   3018 H22         5.2232  -77.2061  -69.5229 H        94   G98       0.4364
   3019 HO2'       -0.7322  -78.1138  -71.6801 H        94   G98       0.4186
   3020 P          -2.4240  -77.7420  -74.6370 P.3      95   A99       1.1662
   3021 OP1        -1.9430  -76.4300  -74.1460 O.co2    95   A99      -0.7760
   3022 OP2        -3.8470  -78.1040  -74.4300 O.co2    95   A99      -0.7760
   3023 O5'        -2.0400  -77.9210  -76.1660 O.3      95   A99      -0.4989
   3024 C5'        -2.7010  -77.1720  -77.1780 C.3      95   A99       0.0558
   3025 C4'        -1.7560  -76.8110  -78.2910 C.3      95   A99       0.1065
   3026 O4'        -0.9680  -75.6660  -77.8690 O.3      95   A99      -0.3548
   3027 C3'        -0.7730  -77.9170  -78.6710 C.3      95   A99       0.2022
   3028 O3'        -0.6440  -78.0470  -80.0980 O.3      95   A99      -0.5246
   3029 C2'         0.5520  -77.4810  -78.0420 C.3      95   A99       0.0670
   3030 O2'         1.6970  -77.8400  -78.7840 O.3      95   A99      -0.6139
   3031 C1'         0.4150  -75.9590  -77.9200 C.3      95   A99       0.0394
   3032 N9          1.0360  -75.4280  -76.7000 N.ar     95   A99      -0.0251
   3033 C8          0.5090  -75.4830  -75.4310 C.ar     95   A99       0.2006
   3034 N7          1.2810  -74.9690  -74.5050 N.ar     95   A99      -0.6073
   3035 C5          2.4070  -74.5610  -75.2060 C.ar     95   A99       0.0515
   3036 C6          3.6010  -73.9390  -74.7930 C.ar     95   A99       0.7009
   3037 N6          3.8570  -73.6150  -73.5250 N.pl3    95   A99      -0.9019
   3038 N1          4.5310  -73.6550  -75.7290 N.ar     95   A99      -0.7615
   3039 C2          4.2700  -73.9850  -76.9990 C.ar     95   A99       0.5875
   3040 N3          3.1890  -74.5710  -77.5120 N.ar     95   A99      -0.6997
   3041 C4          2.2780  -74.8390  -76.5570 C.ar     95   A99       0.3053
   3042 H5'        -3.5183  -77.7676  -77.5846 H        95   A99       0.0679
   3043 H5''       -3.1058  -76.2590  -76.7413 H        95   A99       0.0679
   3044 H4'        -2.3360  -76.5356  -79.1718 H        95   A99       0.1174
   3045 H3'        -1.0951  -78.8646  -78.2393 H        95   A99       0.0615
   3046 H2'         0.6282  -77.9108  -77.0432 H        95   A99       0.0972
   3047 H1'         0.8580  -75.4809  -78.7936 H        95   A99       0.2007
   3048 H8         -0.4581  -75.9129  -75.2159 H        95   A99       0.1553
   3049 H2          5.0461  -73.7417  -77.7096 H        95   A99       0.0473
   3050 HO2'        1.8223  -78.7908  -78.7400 H        95   A99       0.4186
   3051 H61         3.1773  -73.8158  -72.8054 H        95   A99       0.4115
   3052 H62         4.7305  -73.1688  -73.2843 H        95   A99       0.4115
   3053 P          -0.7040  -76.7760  -81.0800 P.3      96   U100      1.1662
   3054 OP1        -0.5530  -77.2930  -82.4630 O.co2    96   U100     -0.7760
   3055 OP2         0.2790  -75.7860  -80.5840 O.co2    96   U100     -0.7760
   3056 O5'        -2.1820  -76.2270  -80.8700 O.3      96   U100     -0.4989
   3057 C5'        -2.4430  -74.8330  -80.8460 C.3      96   U100      0.0558
   3058 C4'        -3.0230  -74.3620  -82.1520 C.3      96   U100      0.1065
   3059 O4'        -3.3860  -75.5050  -82.9660 O.3      96   U100     -0.3548
   3060 C3'        -4.3040  -73.5500  -82.0550 C.3      96   U100      0.2022
   3061 O3'        -4.0680  -72.1860  -81.7470 O.3      96   U100     -0.5246
   3062 C2'        -4.9370  -73.7680  -83.4230 C.3      96   U100      0.0670
   3063 O2'        -4.3190  -72.9400  -84.3960 O.3      96   U100     -0.6139
   3064 C1'        -4.5490  -75.2190  -83.7090 C.3      96   U100      0.0674
   3065 N1         -5.6050  -76.1700  -83.3060 N.am     96   U100      0.0418
   3066 C2         -5.3580  -77.5140  -83.5140 C.2      96   U100      0.4687
   3067 O2         -4.3210  -77.9290  -84.0040 O.2      96   U100     -0.5477
   3068 N3         -6.3690  -78.3570  -83.1250 N.am     96   U100     -0.3549
   3069 C4         -7.5770  -77.9950  -82.5630 C.2      96   U100      0.5952
   3070 O4         -8.3920  -78.8690  -82.2640 O.2      96   U100     -0.5761
   3071 C5         -7.7570  -76.5870  -82.3830 C.2      96   U100     -0.3635
   3072 C6         -6.7880  -75.7420  -82.7520 C.2      96   U100     -0.1126
   3073 H5'        -3.1509  -74.6183  -80.0455 H        96   U100      0.0679
   3074 H5''       -1.5129  -74.2981  -80.6540 H        96   U100      0.0679
   3075 H4'        -2.2720  -73.7755  -82.6812 H        96   U100      0.1174
   3076 H3'        -4.9467  -73.9844  -81.2893 H        96   U100      0.0615
   3077 H2'        -6.0182  -73.6319  -83.3987 H        96   U100      0.0972
   3078 H1'        -4.3397  -75.3369  -84.7722 H        96   U100      0.1824
   3079 H3         -6.2129  -79.3451  -83.2644 H        96   U100      0.3154
   3080 H5         -8.6714  -76.2081  -81.9510 H        96   U100      0.1811
   3081 H6         -6.9410  -74.6825  -82.6092 H        96   U100      0.2188
   3082 HO2'       -4.5522  -72.0234  -84.2315 H        96   U100      0.4186
   3083 P          -4.5170  -71.5850  -80.3250 P.3      97   G101      1.1662
   3084 OP1        -5.9640  -71.2720  -80.4200 O.co2    97   G101     -0.7760
   3085 OP2        -3.5730  -70.4890  -79.9970 O.co2    97   G101     -0.7760
   3086 O5'        -4.2900  -72.8100  -79.3340 O.3      97   G101     -0.4989
   3087 C5'        -5.2750  -73.1660  -78.3760 C.3      97   G101      0.0558
   3088 C4'        -4.7690  -72.9860  -76.9650 C.3      97   G101      0.1065
   3089 O4'        -3.4880  -73.6540  -76.8100 O.3      97   G101     -0.3548
   3090 C3'        -4.4890  -71.5550  -76.5330 C.3      97   G101      0.2022
   3091 O3'        -5.6590  -70.8480  -76.1510 O.3      97   G101     -0.5246
   3092 C2'        -3.4890  -71.7470  -75.3990 C.3      97   G101      0.0670
   3093 O2'        -4.1470  -72.1660  -74.2120 O.3      97   G101     -0.6139
   3094 C1'        -2.6660  -72.9190  -75.9260 C.3      97   G101      0.0191
   3095 N9         -1.4710  -72.4700  -76.6630 N.ar     97   G101      0.0492
   3096 C8         -1.3380  -72.3830  -78.0270 C.ar     97   G101      0.1374
   3097 N7         -0.1600  -71.9640  -78.3980 N.ar     97   G101     -0.5709
   3098 C5          0.5300  -71.7660  -77.2070 C.ar     97   G101      0.1744
   3099 C6          1.8570  -71.3160  -76.9740 C.2      97   G101      0.4770
   3100 O6          2.7170  -70.9940  -77.8010 O.2      97   G101     -0.5597
   3101 N1          2.1530  -71.2560  -75.6170 N.am     97   G101     -0.4787
   3102 C2          1.2840  -71.5900  -74.6090 C.2      97   G101      0.7657
   3103 N2          1.7550  -71.4670  -73.3600 N.pl3    97   G101     -0.9672
   3104 N3          0.0450  -72.0110  -74.8110 N.2      97   G101     -0.6323
   3105 C4         -0.2660  -72.0760  -76.1250 C.ar     97   G101      0.1222
   3106 H5'        -6.1524  -72.5356  -78.5201 H        97   G101      0.0679
   3107 H5''       -5.5564  -74.2086  -78.5240 H        97   G101      0.0679
   3108 H4'        -5.4850  -73.4301  -76.2735 H        97   G101      0.1174
   3109 H3'        -4.0027  -71.0241  -77.3513 H        97   G101      0.0615
   3110 H2'        -2.8787  -70.8586  -75.2368 H        97   G101      0.0972
   3111 H1'        -2.3639  -73.5557  -75.0945 H        97   G101      0.2006
   3112 H8         -2.1267  -72.6353  -78.7203 H        97   G101      0.1640
   3113 H1          3.0765  -70.9433  -75.3535 H        97   G101      0.3424
   3114 H21         2.6999  -71.1451  -73.2060 H        97   G101      0.4364
   3115 H22         1.1650  -71.6962  -72.5729 H        97   G101      0.4364
   3116 HO2'       -4.1192  -71.4587  -73.5635 H        97   G101      0.4186
   3117 P          -5.7860  -69.2680  -76.4400 P.3      98   A102      1.1662
   3118 OP1        -5.2430  -69.0240  -77.8020 O.co2    98   A102     -0.7760
   3119 OP2        -7.1910  -68.8840  -76.1550 O.co2    98   A102     -0.7760
   3120 O5'        -4.8180  -68.6300  -75.3480 O.3      98   A102     -0.4989
   3121 C5'        -5.0630  -68.8090  -73.9610 C.3      98   A102      0.0558
   3122 C4'        -3.8560  -68.4380  -73.1350 C.3      98   A102      0.1065
   3123 O4'        -2.7410  -69.3060  -73.4760 O.3      98   A102     -0.3548
   3124 C3'        -3.3020  -67.0390  -73.3530 C.3      98   A102      0.2022
   3125 O3'        -4.0230  -66.0340  -72.6670 O.3      98   A102     -0.5246
   3126 C2'        -1.8620  -67.1850  -72.8930 C.3      98   A102      0.0670
   3127 O2'        -1.7880  -67.2320  -71.4750 O.3      98   A102     -0.6139
   3128 C1'        -1.5330  -68.5710  -73.4380 C.3      98   A102      0.0394
   3129 N9         -0.9910  -68.4950  -74.8050 N.ar     98   A102     -0.0251
   3130 C8         -1.6350  -68.7310  -75.9950 C.ar     98   A102      0.2006
   3131 N7         -0.8720  -68.5670  -77.0500 N.ar     98   A102     -0.6073
   3132 C5          0.3530  -68.1900  -76.5150 C.ar     98   A102      0.0515
   3133 C6          1.5880  -67.8690  -77.1060 C.ar     98   A102      0.7009
   3134 N6          1.8010  -67.8760  -78.4240 N.pl3    98   A102     -0.9019
   3135 N1          2.6090  -67.5360  -76.2840 N.ar     98   A102     -0.7615
   3136 C2          2.3950  -67.5300  -74.9620 C.ar     98   A102      0.5875
   3137 N3          1.2820  -67.8100  -74.2870 N.ar     98   A102     -0.6997
   3138 C4          0.2910  -68.1380  -75.1330 C.ar     98   A102      0.3053
   3139 H5'        -5.9019  -68.1790  -73.6652 H        98   A102      0.0679
   3140 H5''       -5.3166  -69.8526  -73.7746 H        98   A102      0.0679
   3141 H4'        -4.0952  -68.5650  -72.0792 H        98   A102      0.1174
   3142 H3'        -3.3121  -66.8164  -74.4200 H        98   A102      0.0615
   3143 H2'        -1.2160  -66.4141  -73.3131 H        98   A102      0.0972
   3144 H1'        -0.8174  -69.0671  -72.7823 H        98   A102      0.2007
   3145 H8         -2.6726  -69.0242  -76.0567 H        98   A102      0.1553
   3146 H2          3.2474  -67.2592  -74.3566 H        98   A102      0.0473
   3147 H61         1.0519  -68.1216  -79.0553 H        98   A102      0.4115
   3148 H62         2.7113  -67.6357  -78.7897 H        98   A102      0.4115
   3149 HO2'       -0.9018  -67.4880  -71.2091 H        98   A102      0.4186
   3150 P          -4.3730  -64.6530  -73.4080 P.3      99   G103      1.1662
   3151 OP1        -5.7270  -64.2430  -72.9560 O.co2    99   G103     -0.7760
   3152 OP2        -4.1400  -64.8650  -74.8600 O.co2    99   G103     -0.7760
   3153 O5'        -3.2790  -63.6550  -72.8260 O.3      99   G103     -0.4989
   3154 C5'        -2.3530  -64.0810  -71.8410 C.3      99   G103      0.0558
   3155 C4'        -0.9650  -63.5770  -72.1390 C.3      99   G103      0.1065
   3156 O4'        -0.2500  -64.5400  -72.9520 O.3      99   G103     -0.3548
   3157 C3'        -0.8830  -62.2890  -72.9350 C.3      99   G103      0.2022
   3158 O3'        -1.0760  -61.1390  -72.1360 O.3      99   G103     -0.5246
   3159 C2'         0.5030  -62.3710  -73.5590 C.3      99   G103      0.0670
   3160 O2'         1.4970  -62.0050  -72.6160 O.3      99   G103     -0.6139
   3161 C1'         0.6270  -63.8710  -73.8310 C.3      99   G103      0.0191
   3162 N9          0.2590  -64.2180  -75.2150 N.ar     99   G103      0.0492
   3163 C8         -0.9850  -64.5810  -75.6780 C.ar     99   G103      0.1374
   3164 N7         -1.0020  -64.8420  -76.9580 N.ar     99   G103     -0.5709
   3165 C5          0.3120  -64.6430  -77.3630 C.ar     99   G103      0.1744
   3166 C6          0.9050  -64.7730  -78.6450 C.2      99   G103      0.4770
   3167 O6          0.3710  -65.1020  -79.7110 O.2      99   G103     -0.5597
   3168 N1          2.2630  -64.4770  -78.6110 N.am     99   G103     -0.4787
   3169 C2          2.9610  -64.1010  -77.4890 C.2      99   G103      0.7657
   3170 N2          4.2700  -63.8610  -77.6650 N.pl3    99   G103     -0.9672
   3171 N3          2.4200  -63.9740  -76.2870 N.2      99   G103     -0.6323
   3172 C4          1.1030  -64.2620  -76.2990 C.ar     99   G103      0.1222
   3173 H5'        -2.3372  -65.1706  -71.8166 H        99   G103      0.0679
   3174 H5''       -2.6685  -63.7059  -70.8674 H        99   G103      0.0679
   3175 H4'        -0.4297  -63.4441  -71.1988 H        99   G103      0.1174
   3176 H3'        -1.6338  -62.3071  -73.7250 H        99   G103      0.0615
   3177 H2'         0.5734  -61.7835  -74.4744 H        99   G103      0.0972
   3178 H1'         1.6504  -64.1917  -73.6363 H        99   G103      0.2006
   3179 H8         -1.8591  -64.6438  -75.0469 H        99   G103      0.1640
   3180 H1          2.7762  -64.5435  -79.4784 H        99   G103      0.3424
   3181 H21         4.6827  -63.9594  -78.5816 H        99   G103      0.4364
   3182 H22         4.8422  -63.5820  -76.8808 H        99   G103      0.4364
   3183 HO2'        1.8096  -61.1178  -72.8079 H        99   G103      0.4186
   3184 P          -1.3590  -59.7180  -72.8240 P.3     100   A104      1.1662
   3185 OP1        -1.6560  -59.9760  -74.2550 O.co2   100   A104     -0.7760
   3186 OP2        -2.3800  -59.0270  -71.9980 O.co2   100   A104     -0.7760
   3187 O5'         0.0440  -58.9790  -72.6860 O.3     100   A104     -0.4989
   3188 C5'         0.7500  -58.9720  -71.4530 C.3     100   A104      0.0558
   3189 C4'         2.1740  -58.5200  -71.6450 C.3     100   A104      0.1065
   3190 O4'         2.8790  -59.4790  -72.4730 O.3     100   A104     -0.3548
   3191 C3'         2.3450  -57.1830  -72.3510 C.3     100   A104      0.2022
   3192 O3'         2.2980  -56.0930  -71.4490 O.3     100   A104     -0.5246
   3193 C2'         3.6860  -57.3200  -73.0680 C.3     100   A104      0.0670
   3194 O2'         4.7600  -56.9940  -72.1990 O.3     100   A104     -0.6139
   3195 C1'         3.7410  -58.8200  -73.3670 C.3     100   A104      0.0394
   3196 N9          3.3150  -59.1390  -74.7430 N.ar    100   A104     -0.0251
   3197 C8          2.0850  -58.9570  -75.3330 C.ar    100   A104      0.2006
   3198 N7          2.0330  -59.3680  -76.5790 N.ar    100   A104     -0.6073
   3199 C5          3.3120  -59.8630  -76.8230 C.ar    100   A104      0.0515
   3200 C6          3.9150  -60.4420  -77.9550 C.ar    100   A104      0.7009
   3201 N6          3.3010  -60.6490  -79.1210 N.pl3   100   A104     -0.9019
   3202 N1          5.2040  -60.8130  -77.8490 N.ar    100   A104     -0.7615
   3203 C2          5.8420  -60.6220  -76.6890 C.ar    100   A104      0.5875
   3204 N3          5.3900  -60.0900  -75.5600 N.ar    100   A104     -0.6997
   3205 C4          4.1050  -59.7290  -75.6970 C.ar    100   A104      0.3053
   3206 H5'         0.2514  -58.2928  -70.7615 H       100   A104      0.0679
   3207 H5''        0.7468  -59.9776  -71.0325 H       100   A104      0.0679
   3208 H4'         2.6618  -58.4693  -70.6716 H       100   A104      0.1174
   3209 H3'         1.5542  -57.0672  -73.0922 H       100   A104      0.0615
   3210 H2'         3.7150  -56.7270  -73.9821 H       100   A104      0.0972
   3211 H1'         4.7588  -59.1791  -73.2143 H       100   A104      0.2007
   3212 H8          1.2424  -58.5177  -74.8198 H       100   A104      0.1553
   3213 H2          6.8717  -60.9470  -76.6680 H       100   A104      0.0473
   3214 HO2'        4.4208  -56.8391  -71.3144 H       100   A104      0.4186
   3215 H61         3.5524  -60.8707  -80.0738 H       100   A104      0.4115
   3216 H62         2.2998  -60.5583  -79.0233 H       100   A104      0.4115
   3217 P           1.6110  -54.7070  -71.8750 P.3     101   G105      1.1662
   3218 OP1         0.2910  -54.6470  -71.1990 O.co2   101   G105     -0.7760
   3219 OP2         2.6000  -53.6300  -71.6110 O.co2   101   G105     -0.7760
   3220 O5'         1.4060  -54.8780  -73.4390 O.3     101   G105     -0.4989
   3221 C5'         1.6610  -53.8020  -74.3240 C.3     101   G105      0.0558
   3222 C4'         2.3920  -54.2670  -75.5530 C.3     101   G105      0.1065
   3223 O4'         2.2040  -55.6960  -75.7240 O.3     101   G105     -0.3548
   3224 C3'         1.9290  -53.6530  -76.8600 C.3     101   G105      0.2022
   3225 O3'         2.5490  -52.4100  -77.1160 O.3     101   G105     -0.5246
   3226 C2'         2.2610  -54.7260  -77.8910 C.3     101   G105      0.0670
   3227 O2'         3.6300  -54.6620  -78.2660 O.3     101   G105     -0.6139
   3228 C1'         2.0390  -56.0070  -77.0890 C.3     101   G105      0.0191
   3229 N9          0.6840  -56.5630  -77.2790 N.ar    101   G105      0.0492
   3230 C8         -0.3130  -56.6370  -76.3350 C.ar    101   G105      0.1374
   3231 N7         -1.4010  -57.2010  -76.7740 N.ar    101   G105     -0.5709
   3232 C5         -1.1070  -57.5270  -78.0890 C.ar    101   G105      0.1744
   3233 C6         -1.9040  -58.1610  -79.0750 C.2     101   G105      0.4770
   3234 O6         -3.0650  -58.5700  -78.9740 O.2     101   G105     -0.5597
   3235 N1         -1.2260  -58.3030  -80.2810 N.am    101   G105     -0.4787
   3236 C2          0.0620  -57.8870  -80.5090 C.2     101   G105      0.7657
   3237 N2          0.5460  -58.1110  -81.7400 N.pl3   101   G105     -0.9672
   3238 N3          0.8230  -57.2970  -79.5960 N.2     101   G105     -0.6323
   3239 C4          0.1770  -57.1490  -78.4170 C.ar    101   G105      0.1222
   3240 H5'         2.2682  -53.0565  -73.8106 H       101   G105      0.0679
   3241 H5''        0.7143  -53.3502  -74.6202 H       101   G105      0.0679
   3242 H4'         3.4557  -54.0649  -75.4270 H       101   G105      0.1174
   3243 H3'         0.8486  -53.5128  -76.8257 H       101   G105      0.0615
   3244 H2'         1.6016  -54.6720  -78.7573 H       101   G105      0.0972
   3245 H1'         2.7797  -56.7507  -77.3827 H       101   G105      0.2006
   3246 H8         -0.2041  -56.2636  -75.3275 H       101   G105      0.1640
   3247 H1         -1.7174  -58.7446  -81.0450 H       101   G105      0.3424
   3248 H21        -0.0317  -58.5611  -82.4356 H       101   G105      0.4364
   3249 H22         1.4880  -57.8295  -81.9712 H       101   G105      0.4364
   3250 HO2'        4.1706  -55.0470  -77.5724 H       101   G105      0.4186
   3251 P           1.7330  -51.2240  -77.8230 P.3     102   A106      1.1662
   3252 OP1         2.5760  -50.0030  -77.7320 O.co2   102   A106     -0.7760
   3253 OP2         0.3710  -51.2010  -77.2230 O.co2   102   A106     -0.7760
   3254 O5'         1.6470  -51.7150  -79.3330 O.3     102   A106     -0.4989
   3255 C5'         2.8170  -52.0560  -80.0570 C.3     102   A106      0.0558
   3256 C4'         2.4750  -52.5440  -81.4390 C.3     102   A106      0.1065
   3257 O4'         2.0270  -53.9210  -81.3750 O.3     102   A106     -0.3548
   3258 C3'         1.3380  -51.8150  -82.1280 C.3     102   A106      0.2022
   3259 O3'         1.7540  -50.6090  -82.7350 O.3     102   A106     -0.5246
   3260 C2'         0.8200  -52.8520  -83.1140 C.3     102   A106      0.0670
   3261 O2'         1.6600  -52.9220  -84.2560 O.3     102   A106     -0.6139
   3262 C1'         0.9940  -54.1380  -82.3110 C.3     102   A106      0.0394
   3263 N9         -0.2280  -54.5010  -81.5740 N.ar    102   A106     -0.0251
   3264 C8         -0.5260  -54.2180  -80.2660 C.ar    102   A106      0.2006
   3265 N7         -1.6870  -54.6840  -79.8810 N.ar    102   A106     -0.6073
   3266 C5         -2.1820  -55.3200  -81.0110 C.ar    102   A106      0.0515
   3267 C6         -3.3780  -56.0150  -81.2560 C.ar    102   A106      0.7009
   3268 N6         -4.3310  -56.1960  -80.3390 N.pl3   102   A106     -0.9019
   3269 N1         -3.5610  -56.5280  -82.4920 N.ar    102   A106     -0.7615
   3270 C2         -2.6000  -56.3470  -83.4090 C.ar    102   A106      0.5875
   3271 N3         -1.4340  -55.7130  -83.3020 N.ar    102   A106     -0.6997
   3272 C4         -1.2870  -55.2190  -82.0610 C.ar    102   A106      0.3053
   3273 H5'         3.4548  -51.1758  -80.1379 H       102   A106      0.0679
   3274 H5''        3.3537  -52.8398  -79.5225 H       102   A106      0.0679
   3275 H4'         3.3648  -52.4884  -82.0661 H       102   A106      0.1174
   3276 H3'         0.5591  -51.5968  -81.3974 H       102   A106      0.0615
   3277 H2'        -0.2215  -52.6758  -83.3829 H       102   A106      0.0972
   3278 H1'         1.2724  -54.9520  -82.9804 H       102   A106      0.2007
   3279 H8          0.1341  -53.6635  -79.6155 H       102   A106      0.1553
   3280 H2         -2.8013  -56.7794  -84.3780 H       102   A106      0.0473
   3281 HO2'        1.1322  -52.8067  -85.0496 H       102   A106      0.4186
   3282 H61        -4.9492  -56.7956  -80.8667 H       102   A106      0.4115
   3283 H62        -4.4103  -55.8394  -79.3974 H       102   A106      0.4115
   3284 P           0.6880  -49.4480  -83.0420 P.3     103   A107      1.1662
   3285 OP1         1.4110  -48.1580  -82.9250 O.co2   103   A107     -0.7760
   3286 OP2        -0.4930  -49.6880  -82.1720 O.co2   103   A107     -0.7760
   3287 O5'         0.3020  -49.7210  -84.5610 O.3     103   A107     -0.4989
   3288 C5'        -1.0240  -49.5220  -85.0160 C.3     103   A107      0.0558
   3289 C4'        -1.4550  -50.6090  -85.9680 C.3     103   A107      0.1065
   3290 O4'        -1.4230  -51.8970  -85.2970 O.3     103   A107     -0.3548
   3291 C3'        -2.8790  -50.4980  -86.4820 C.3     103   A107      0.2022
   3292 O3'        -3.0060  -49.5890  -87.5540 O.3     103   A107     -0.5246
   3293 C2'        -3.2160  -51.9330  -86.8450 C.3     103   A107      0.0670
   3294 O2'        -2.5970  -52.2960  -88.0700 O.3     103   A107     -0.6139
   3295 C1'        -2.5210  -52.6840  -85.7140 C.3     103   A107      0.0394
   3296 N9         -3.4150  -52.8830  -84.5560 N.ar    103   A107     -0.0251
   3297 C8         -3.2800  -52.3320  -83.3050 C.ar    103   A107      0.2006
   3298 N7         -4.2190  -52.6840  -82.4620 N.ar    103   A107     -0.6073
   3299 C5         -5.0300  -53.5260  -83.2060 C.ar    103   A107      0.0515
   3300 C6         -6.2020  -54.2310  -82.8800 C.ar    103   A107      0.7009
   3301 N6         -6.7760  -54.1940  -81.6760 N.pl3   103   A107     -0.9019
   3302 N1         -6.7670  -54.9830  -83.8490 N.ar    103   A107     -0.7615
   3303 C2         -6.1870  -55.0160  -85.0550 C.ar    103   A107      0.5875
   3304 N3         -5.0870  -54.3980  -85.4810 N.ar    103   A107     -0.6997
   3305 C4         -4.5480  -53.6600  -84.4970 C.ar    103   A107      0.3053
   3306 H5'        -1.0816  -48.5612  -85.5275 H       103   A107      0.0679
   3307 H5''       -1.6973  -49.5108  -84.1589 H       103   A107      0.0679
   3308 H4'        -0.7707  -50.6319  -86.8161 H       103   A107      0.1174
   3309 H3'        -3.5266  -50.1770  -85.6661 H       103   A107      0.0615
   3310 H2'        -4.2911  -52.1124  -86.8583 H       103   A107      0.0972
   3311 H1'        -2.1663  -53.6491  -86.0758 H       103   A107      0.2007
   3312 H8         -2.4712  -51.6673  -83.0398 H       103   A107      0.1553
   3313 H2         -6.6832  -55.6335  -85.7891 H       103   A107      0.0473
   3314 H61        -7.3980  -54.9065  -81.3216 H       103   A107      0.4115
   3315 H62        -6.5756  -53.4029  -81.0809 H       103   A107      0.4115
   3316 HO2'       -3.0229  -51.8315  -88.7942 H       103   A107      0.4186
   3317 P          -3.7750  -48.2000  -87.3360 P.3     104   G108      1.1662
   3318 OP1        -3.3600  -47.2980  -88.4350 O.co2   104   G108     -0.7760
   3319 OP2        -3.5250  -47.7770  -85.9370 O.co2   104   G108     -0.7760
   3320 O5'        -5.3060  -48.6180  -87.5120 O.3     104   G108     -0.4989
   3321 C5'        -5.7620  -49.2030  -88.7240 C.3     104   G108      0.0558
   3322 C4'        -6.9520  -50.1150  -88.5140 C.3     104   G108      0.1065
   3323 O4'        -6.6820  -51.0790  -87.4670 O.3     104   G108     -0.3548
   3324 C3'        -8.2440  -49.4620  -88.0590 C.3     104   G108      0.2022
   3325 O3'        -8.9140  -48.7670  -89.0950 O.3     104   G108     -0.5246
   3326 C2'        -9.0270  -50.6550  -87.5160 C.3     104   G108      0.0670
   3327 O2'        -9.6100  -51.3990  -88.5760 O.3     104   G108     -0.6139
   3328 C1'        -7.9090  -51.4990  -86.8980 C.3     104   G108      0.0191
   3329 N9         -7.8490  -51.3500  -85.4320 N.ar    104   G108      0.0492
   3330 C8         -6.9780  -50.6340  -84.6450 C.ar    104   G108      0.1374
   3331 N7         -7.2410  -50.7450  -83.3650 N.ar    104   G108     -0.5709
   3332 C5         -8.3520  -51.5850  -83.3000 C.ar    104   G108      0.1744
   3333 C6         -9.1060  -52.0830  -82.1890 C.2     104   G108      0.4770
   3334 O6         -8.9550  -51.8840  -80.9720 O.2     104   G108     -0.5597
   3335 N1        -10.1500  -52.9070  -82.6040 N.am    104   G108     -0.4787
   3336 C2        -10.4420  -53.2160  -83.9110 C.2     104   G108      0.7657
   3337 N2        -11.4930  -54.0280  -84.1040 N.pl3   104   G108     -0.9672
   3338 N3         -9.7530  -52.7640  -84.9500 N.2     104   G108     -0.6323
   3339 C4         -8.7320  -51.9620  -84.5740 C.ar    104   G108      0.1222
   3340 H5'        -4.9489  -49.7837  -89.1596 H       104   G108      0.0679
   3341 H5''       -6.0416  -48.4096  -89.4171 H       104   G108      0.0679
   3342 H4'        -7.1437  -50.6545  -89.4415 H       104   G108      0.1174
   3343 H3'        -8.0297  -48.7715  -87.2433 H       104   G108      0.0615
   3344 H2'        -9.7670  -50.3534  -86.7748 H       104   G108      0.0972
   3345 H1'        -8.0760  -52.5477  -87.1437 H       104   G108      0.2006
   3346 H8         -6.1642  -50.0433  -85.0389 H       104   G108      0.1640
   3347 H1        -10.7384  -53.3088  -81.8882 H       104   G108      0.3424
   3348 H21       -12.0170  -54.3727  -83.3123 H       104   G108      0.4364
   3349 H22       -11.7600  -54.2944  -85.0409 H       104   G108      0.4364
   3350 HO2'      -10.5666  -51.3638  -88.5039 H       104   G108      0.4186
   3351 P          -9.8900  -47.5400  -88.7430 P.3     105   A109      1.1662
   3352 OP1        -9.2830  -46.8090  -87.6030 O.co2   105   A109     -0.7760
   3353 OP2       -10.1410  -46.8080  -90.0050 O.co2   105   A109     -0.7760
   3354 O5'       -11.2210  -48.2720  -88.2670 O.3     105   A109     -0.4989
   3355 C5'       -11.9260  -49.1380  -89.1410 C.3     105   A109      0.0558
   3356 C4'       -13.0480  -49.8470  -88.4260 C.3     105   A109      0.1065
   3357 O4'       -12.5040  -50.8090  -87.4880 O.3     105   A109     -0.3548
   3358 C3'       -13.9500  -48.9730  -87.5730 C.3     105   A109      0.2022
   3359 O3'       -14.9280  -48.2820  -88.3290 O.3     105   A109     -0.5246
   3360 C2'       -14.5350  -49.9710  -86.5830 C.3     105   A109      0.0670
   3361 O2'       -15.5760  -50.7240  -87.1870 O.3     105   A109     -0.6139
   3362 C1'       -13.3430  -50.8980  -86.3540 C.3     105   A109      0.0394
   3363 N9        -12.5650  -50.5140  -85.1610 N.ar    105   A109     -0.0251
   3364 C8        -11.4350  -49.7380  -85.0970 C.ar    105   A109      0.2006
   3365 N7        -10.9700  -49.5830  -83.8790 N.ar    105   A109     -0.6073
   3366 C5        -11.8510  -50.3060  -83.0860 C.ar    105   A109      0.0515
   3367 C6        -11.9060  -50.5410  -81.6940 C.ar    105   A109      0.7009
   3368 N6        -11.0260  -50.0440  -80.8160 N.pl3   105   A109     -0.9019
   3369 N1        -12.9200  -51.3080  -81.2300 N.ar    105   A109     -0.7615
   3370 C2        -13.8030  -51.7980  -82.1150 C.ar    105   A109      0.5875
   3371 N3        -13.8540  -51.6530  -83.4400 N.ar    105   A109     -0.6997
   3372 C4        -12.8370  -50.8870  -83.8680 C.ar    105   A109      0.3053
   3373 H5'       -12.3421  -48.5524  -89.9608 H       105   A109      0.0679
   3374 H5''      -11.2353  -49.8782  -89.5449 H       105   A109      0.0679
   3375 H4'       -13.6576  -50.3743  -89.1598 H       105   A109      0.1174
   3376 H3'       -13.3394  -48.2497  -87.0325 H       105   A109      0.0615
   3377 H2'       -14.8610  -49.4891  -85.6613 H       105   A109      0.0972
   3378 H1'       -13.6961  -51.9232  -86.2429 H       105   A109      0.2007
   3379 H8        -10.9717  -49.2963  -85.9668 H       105   A109      0.1553
   3380 H2        -14.5915  -52.4010  -81.6895 H       105   A109      0.0473
   3381 H61       -11.0803  -50.4494  -79.8925 H       105   A109      0.4115
   3382 H62       -10.3618  -49.3224  -81.0574 H       105   A109      0.4115
   3383 HO2'      -15.8272  -51.4457  -86.6059 H       105   A109      0.4186
   3384 P         -15.4970  -46.8710  -87.8170 P.3     106   U110      1.1662
   3385 OP1       -16.3530  -46.3310  -88.8960 O.co2   106   U110     -0.7760
   3386 OP2       -14.3350  -46.0690  -87.3610 O.co2   106   U110     -0.7760
   3387 O5'       -16.3940  -47.2840  -86.5670 O.3     106   U110     -0.4989
   3388 C5'       -17.5980  -48.0120  -86.7490 C.3     106   U110      0.0558
   3389 C4'       -18.2700  -48.3150  -85.4310 C.3     106   U110      0.1065
   3390 O4'       -17.4690  -49.2570  -84.6750 O.3     106   U110     -0.3548
   3391 C3'       -18.4490  -47.1410  -84.4820 C.3     106   U110      0.2022
   3392 O3'       -19.5570  -46.3210  -84.8120 O.3     106   U110     -0.5246
   3393 C2'       -18.5830  -47.8310  -83.1300 C.3     106   U110      0.0670
   3394 O2'       -19.8940  -48.3500  -82.9600 O.3     106   U110     -0.6139
   3395 C1'       -17.6180  -49.0060  -83.2920 C.3     106   U110      0.0674
   3396 N1        -16.2880  -48.7170  -82.7130 N.am    106   U110      0.0418
   3397 C2        -16.0570  -49.1710  -81.4280 C.2     106   U110      0.4687
   3398 O2        -16.8980  -49.7790  -80.7860 O.2     106   U110     -0.5477
   3399 N3        -14.8120  -48.8890  -80.9210 N.am    106   U110     -0.3549
   3400 C4        -13.7940  -48.2090  -81.5590 C.2     106   U110      0.5952
   3401 O4        -12.7270  -48.0310  -80.9680 O.2     106   U110     -0.5761
   3402 C5        -14.1110  -47.7720  -82.8880 C.2     106   U110     -0.3635
   3403 C6        -15.3180  -48.0330  -83.4080 C.2     106   U110     -0.1126
   3404 H5'       -17.3705  -48.9509  -87.2538 H       106   U110      0.0679
   3405 H5''      -18.2775  -47.4284  -87.3701 H       106   U110      0.0679
   3406 H4'       -19.2452  -48.7605  -85.6275 H       106   U110      0.1174
   3407 H3'       -17.5423  -46.5360  -84.4865 H       106   U110      0.0615
   3408 H2'       -18.2939  -47.1764  -82.3078 H       106   U110      0.0972
   3409 H1'       -18.0384  -49.8877  -82.8083 H       106   U110      0.1824
   3410 H3        -14.6214  -49.2130  -79.9835 H       106   U110      0.3154
   3411 H5        -13.3773  -47.2330  -83.4690 H       106   U110      0.1811
   3412 H6        -15.5373  -47.6938  -84.4096 H       106   U110      0.2188
   3413 HO2'      -20.3103  -47.9280  -82.2049 H       106   U110      0.4186
   3414 P         -19.6280  -44.8040  -84.2860 P.3     107   U111      1.1662
   3415 OP1       -20.8670  -44.2090  -84.8380 O.co2   107   U111     -0.7760
   3416 OP2       -18.3280  -44.1690  -84.6100 O.co2   107   U111     -0.7760
   3417 O5'       -19.7660  -44.9790  -82.7090 O.3     107   U111     -0.4989
   3418 C5'       -20.9240  -45.5740  -82.1420 C.3     107   U111      0.0558
   3419 C4'       -20.7730  -45.7740  -80.6540 C.3     107   U111      0.1065
   3420 O4'       -19.6230  -46.6150  -80.3840 O.3     107   U111     -0.3548
   3421 C3'       -20.5130  -44.5210  -79.8350 C.3     107   U111      0.2022
   3422 O3'       -21.6900  -43.7800  -79.5670 O.3     107   U111     -0.5246
   3423 C2'       -19.8420  -45.0770  -78.5840 C.3     107   U111      0.0670
   3424 O2'       -20.8080  -45.6210  -77.6960 O.3     107   U111     -0.6139
   3425 C1'       -19.0210  -46.2270  -79.1650 C.3     107   U111      0.0674
   3426 N1        -17.6200  -45.8330  -79.4320 N.am    107   U111      0.0418
   3427 C2        -16.7690  -45.7630  -78.3450 C.2     107   U111      0.4687
   3428 O2        -17.1380  -45.9990  -77.2050 O.2     107   U111     -0.5477
   3429 N3        -15.4750  -45.3990  -78.6410 N.am    107   U111     -0.3549
   3430 C4        -14.9580  -45.1070  -79.8890 C.2     107   U111      0.5952
   3431 O4        -13.7700  -44.7920  -79.9970 O.2     107   U111     -0.5761
   3432 C5        -15.9040  -45.2080  -80.9610 C.2     107   U111     -0.3635
   3433 C6        -17.1700  -45.5600  -80.7030 C.2     107   U111     -0.1126
   3434 H5'       -21.0913  -46.5422  -82.6139 H       107   U111      0.0679
   3435 H5''      -21.7842  -44.9316  -82.3304 H       107   U111      0.0679
   3436 H4'       -21.6673  -46.2660  -80.2717 H       107   U111      0.1174
   3437 H3'       -19.8050  -43.8864  -80.3680 H       107   U111      0.0615
   3438 H2'       -19.2124  -44.3336  -78.0950 H       107   U111      0.0972
   3439 H1'       -19.0344  -47.0676  -78.4713 H       107   U111      0.1824
   3440 H3        -14.8344  -45.3388  -77.8624 H       107   U111      0.3154
   3441 H5        -15.5963  -45.0005  -81.9752 H       107   U111      0.1811
   3442 H6        -17.8657  -45.6325  -81.5259 H       107   U111      0.2188
   3443 HO2'      -20.5968  -45.3623  -76.7959 H       107   U111      0.4186
   3444 P         -21.6090  -42.1970  -79.3060 P.3     108   C112      1.1662
   3445 OP1       -20.7680  -41.6200  -80.3820 O.co2   108   C112     -0.7760
   3446 OP2       -22.9990  -41.7090  -79.1500 O.co2   108   C112     -0.7760
   3447 O5'       -20.8440  -42.1090  -77.9130 O.3     108   C112     -0.4989
   3448 C5'       -21.4330  -42.6170  -76.7250 C.3     108   C112      0.0558
   3449 C4'       -20.5630  -42.3560  -75.5210 C.3     108   C112      0.1065
   3450 O4'       -19.3880  -43.2070  -75.5670 O.3     108   C112     -0.3548
   3451 C3'       -19.9950  -40.9520  -75.4020 C.3     108   C112      0.2022
   3452 O3'       -20.9230  -40.0210  -74.8740 O.3     108   C112     -0.5246
   3453 C2'       -18.7730  -41.1650  -74.5190 C.3     108   C112      0.0670
   3454 O2'       -19.1530  -41.2940  -73.1570 O.3     108   C112     -0.6139
   3455 C1'       -18.2800  -42.5250  -75.0130 C.3     108   C112      0.0066
   3456 N1        -17.2360  -42.3940  -76.0550 N.am    108   C112     -0.0484
   3457 C2        -15.9490  -41.9860  -75.6750 C.2     108   C112      0.7538
   3458 O2        -15.7200  -41.7380  -74.4780 O.2     108   C112     -0.6252
   3459 N3        -14.9890  -41.8660  -76.6250 N.2     108   C112     -0.7584
   3460 C4        -15.2700  -42.1370  -77.9040 C.2     108   C112      0.8185
   3461 N4        -14.2860  -42.0040  -78.8020 N.pl3   108   C112     -0.9530
   3462 C5        -16.5720  -42.5570  -78.3160 C.2     108   C112     -0.5215
   3463 C6        -17.5130  -42.6730  -77.3680 C.2     108   C112      0.0053
   3464 H5'       -22.3991  -42.1351  -76.5748 H       108   C112      0.0679
   3465 H5''      -21.5825  -43.6914  -76.8316 H       108   C112      0.0679
   3466 H4'       -21.1302  -42.5853  -74.6189 H       108   C112      0.1174
   3467 H3'       -19.6701  -40.6136  -76.3859 H       108   C112      0.0615
   3468 H2'       -18.0259  -40.3842  -74.6616 H       108   C112      0.0972
   3469 H1'       -17.8851  -43.0957  -74.1725 H       108   C112      0.2029
   3470 H5        -16.7899  -42.7728  -79.3515 H       108   C112      0.1928
   3471 H6        -18.5072  -42.9920  -77.6440 H       108   C112      0.1958
   3472 H41       -13.3676  -41.7071  -78.5045 H       108   C112      0.4234
   3473 H42       -14.4621  -42.2006  -79.7769 H       108   C112      0.4234
   3474 HO2'      -18.5276  -40.8205  -72.6036 H       108   C112      0.4186
   3475 P         -20.8990  -38.4910  -75.3640 P.3     109   G113      1.1662
   3476 OP1       -22.0630  -37.8170  -74.7420 O.co2   109   G113     -0.7760
   3477 OP2       -20.7900  -38.5070  -76.8430 O.co2   109   G113     -0.7760
   3478 O5'       -19.5470  -37.9380  -74.7270 O.3     109   G113     -0.4989
   3479 C5'       -19.3580  -37.9240  -73.3190 C.3     109   G113      0.0558
   3480 C4'       -17.9260  -37.6190  -72.9510 C.3     109   G113      0.1065
   3481 O4'       -17.0500  -38.6510  -73.4710 O.3     109   G113     -0.3548
   3482 C3'       -17.3490  -36.3330  -73.5160 C.3     109   G113      0.2022
   3483 O3'       -17.7420  -35.1830  -72.7870 O.3     109   G113     -0.6541
   3484 C2'       -15.8480  -36.5990  -73.4770 C.3     109   G113      0.0670
   3485 O2'       -15.3390  -36.4170  -72.1640 O.3     109   G113     -0.6139
   3486 C1'       -15.7960  -38.0900  -73.8060 C.3     109   G113      0.0191
   3487 N9        -15.5300  -38.3380  -75.2370 N.ar    109   G113      0.0492
   3488 C8        -16.4540  -38.5340  -76.2360 C.ar    109   G113      0.1374
   3489 N7        -15.9080  -38.7440  -77.4030 N.ar    109   G113     -0.5709
   3490 C5        -14.5400  -38.6880  -77.1600 C.ar    109   G113      0.1744
   3491 C6        -13.4400  -38.8420  -78.0460 C.2     109   G113      0.4770
   3492 O6        -13.4600  -39.0670  -79.2640 O.2     109   G113     -0.5597
   3493 N1        -12.2210  -38.7140  -77.3840 N.am    109   G113     -0.4787
   3494 C2        -12.0730  -38.4630  -76.0420 C.2     109   G113      0.7657
   3495 N2        -10.8070  -38.3760  -75.5970 N.pl3   109   G113     -0.9672
   3496 N3        -13.0920  -38.3150  -75.2050 N.2     109   G113     -0.6323
   3497 C4        -14.2870  -38.4420  -75.8260 C.ar    109   G113      0.1222
   3498 H5'       -20.0045  -37.1621  -72.8835 H       109   G113      0.0679
   3499 H5''      -19.6309  -38.8980  -72.9128 H       109   G113      0.0679
   3500 H4'       -17.8384  -37.5970  -71.8647 H       109   G113      0.1174
   3501 H3'       -17.6660  -36.2244  -74.5532 H       109   G113      0.0615
   3502 H2'       -15.3082  -36.0002  -74.2106 H       109   G113      0.0972
   3503 H1'       -15.0179  -38.5640  -73.2076 H       109   G113      0.2006
   3504 H8        -17.5214  -38.5161  -76.0722 H       109   G113      0.1640
   3505 H1        -11.3799  -38.8136  -77.9343 H       109   G113      0.3424
   3506 H21       -10.0367  -38.4917  -76.2399 H       109   G113      0.4364
   3507 H22       -10.6265  -38.1950  -74.6199 H       109   G113      0.4364
   3508 HO3'      -17.3509  -34.4020  -73.1853 H       109   G113      0.4376
   3509 HO2'      -15.3631  -35.4844  -71.9374 H       109   G113      0.4186
@<TRIPOS>BOND
     1    1    2 1
     2    2    3 1
     3    3    5 1
     4    3    4 1
     5    4    9 1
     6    5    7 1
     7    5    6 1
     8    7    9 1
     9    7    8 1
    10    9   10 1
    11   10   20 ar
    12   10   11 ar
    13   11   12 ar
    14   12   13 ar
    15   13   20 ar
    16   13   14 1
    17   14   15 2
    18   14   16 am
    19   16   17 1
    20   17   18 2
    21   17   19 2
    22   19   20 1
    23   33   35 1
    24   33   34 1
    25   33   36 1
    26   36   37 1
    27   37   38 1
    28   38   40 1
    29   38   39 1
    30   39   44 1
    31   40   42 1
    32   40   41 1
    33   42   43 1
    34   42   44 1
    35   44   45 1
    36   45   46 ar
    37   45   54 ar
    38   46   47 ar
    39   47   48 ar
    40   48   54 ar
    41   48   49 ar
    42   49   50 1
    43   49   51 ar
    44   51   52 ar
    45   52   53 ar
    46   53   54 ar
    47   33    6 1
    48   66   69 1
    49   66   68 1
    50   66   67 1
    51   69   70 1
    52   70   71 1
    53   71   73 1
    54   71   72 1
    55   72   77 1
    56   73   75 1
    57   73   74 1
    58   75   76 1
    59   75   77 1
    60   77   78 1
    61   78   85 1
    62   78   79 am
    63   79   81 am
    64   79   80 2
    65   81   82 am
    66   82   84 1
    67   82   83 2
    68   84   85 2
    69   41   66 1
    70   96   99 1
    71   96   98 1
    72   96   97 1
    73   99  100 1
    74  100  101 1
    75  101  103 1
    76  101  102 1
    77  102  107 1
    78  103  105 1
    79  103  104 1
    80  105  106 1
    81  105  107 1
    82  107  108 1
    83  108  109 am
    84  108  115 1
    85  109  110 2
    86  109  111 1
    87  111  112 2
    88  112  114 2
    89  112  113 2
    90  114  115 2
    91   74   96 1
    92  127  130 1
    93  127  129 1
    94  127  128 1
    95  130  131 1
    96  131  132 1
    97  132  134 1
    98  132  133 1
    99  133  138 1
   100  134  136 1
   101  134  135 1
   102  136  137 1
   103  136  138 1
   104  138  139 1
   105  139  146 1
   106  139  140 am
   107  140  142 am
   108  140  141 2
   109  142  143 am
   110  143  145 1
   111  143  144 2
   112  145  146 2
   113  104  127 1
   114  157  160 1
   115  157  159 1
   116  157  158 1
   117  160  161 1
   118  161  162 1
   119  162  164 1
   120  162  163 1
   121  163  168 1
   122  164  166 1
   123  164  165 1
   124  166  167 1
   125  166  168 1
   126  168  169 1
   127  169  176 1
   128  169  170 am
   129  170  172 am
   130  170  171 2
   131  172  173 am
   132  173  175 1
   133  173  174 2
   134  175  176 2
   135  135  157 1
   136  187  190 1
   137  187  189 1
   138  187  188 1
   139  190  191 1
   140  191  192 1
   141  192  194 1
   142  192  193 1
   143  193  198 1
   144  194  196 1
   145  194  195 1
   146  196  197 1
   147  196  198 1
   148  198  199 1
   149  199  200 am
   150  199  206 1
   151  200  201 2
   152  200  202 1
   153  202  203 2
   154  203  205 2
   155  203  204 2
   156  205  206 2
   157  165  187 1
   158  218  219 1
   159  218  220 1
   160  218  221 1
   161  221  222 1
   162  222  223 1
   163  223  225 1
   164  223  224 1
   165  224  229 1
   166  225  227 1
   167  225  226 1
   168  227  229 1
   169  227  228 1
   170  229  230 1
   171  230  240 ar
   172  230  231 ar
   173  231  232 ar
   174  232  233 ar
   175  233  240 ar
   176  233  234 1
   177  234  235 2
   178  234  236 am
   179  236  237 1
   180  237  238 2
   181  237  239 2
   182  239  240 1
   183  195  218 1
   184  252  253 1
   185  252  254 1
   186  252  255 1
   187  255  256 1
   188  256  257 1
   189  257  259 1
   190  257  258 1
   191  258  263 1
   192  259  261 1
   193  259  260 1
   194  261  263 1
   195  261  262 1
   196  263  264 1
   197  264  274 ar
   198  264  265 ar
   199  265  266 ar
   200  266  267 ar
   201  267  274 ar
   202  267  268 1
   203  268  269 2
   204  268  270 am
   205  270  271 1
   206  271  272 2
   207  271  273 2
   208  273  274 1
   209  226  252 1
   210  286  287 1
   211  286  288 1
   212  286  289 1
   213  289  290 1
   214  290  291 1
   215  291  293 1
   216  291  292 1
   217  292  297 1
   218  293  295 1
   219  293  294 1
   220  295  297 1
   221  295  296 1
   222  297  298 1
   223  298  308 ar
   224  298  299 ar
   225  299  300 ar
   226  300  301 ar
   227  301  308 ar
   228  301  302 1
   229  302  303 2
   230  302  304 am
   231  304  305 1
   232  305  306 2
   233  305  307 2
   234  307  308 1
   235  260  286 1
   236  320  321 1
   237  320  322 1
   238  320  323 1
   239  323  324 1
   240  324  325 1
   241  325  327 1
   242  325  326 1
   243  326  331 1
   244  327  329 1
   245  327  328 1
   246  329  331 1
   247  329  330 1
   248  331  332 1
   249  332  342 ar
   250  332  333 ar
   251  333  334 ar
   252  334  335 ar
   253  335  342 ar
   254  335  336 1
   255  336  337 2
   256  336  338 am
   257  338  339 1
   258  339  340 2
   259  339  341 2
   260  341  342 1
   261  294  320 1
   262  354  357 1
   263  354  356 1
   264  354  355 1
   265  357  358 1
   266  358  359 1
   267  359  361 1
   268  359  360 1
   269  360  365 1
   270  361  363 1
   271  361  362 1
   272  363  364 1
   273  363  365 1
   274  365  366 1
   275  366  367 am
   276  366  373 1
   277  367  368 2
   278  367  369 1
   279  369  370 2
   280  370  372 2
   281  370  371 2
   282  372  373 2
   283  328  354 1
   284  385  387 1
   285  385  386 1
   286  385  388 1
   287  388  389 1
   288  389  390 1
   289  390  392 1
   290  390  391 1
   291  391  396 1
   292  392  394 1
   293  392  393 1
   294  394  395 1
   295  394  396 1
   296  396  397 1
   297  397  398 ar
   298  397  406 ar
   299  398  399 ar
   300  399  400 ar
   301  400  406 ar
   302  400  401 ar
   303  401  402 1
   304  401  403 ar
   305  403  404 ar
   306  404  405 ar
   307  405  406 ar
   308  362  385 1
   309  418  419 1
   310  418  420 1
   311  418  421 1
   312  421  422 1
   313  422  423 1
   314  423  425 1
   315  423  424 1
   316  424  429 1
   317  425  427 1
   318  425  426 1
   319  427  429 1
   320  427  428 1
   321  429  430 1
   322  430  440 ar
   323  430  431 ar
   324  431  432 ar
   325  432  433 ar
   326  433  440 ar
   327  433  434 1
   328  434  435 2
   329  434  436 am
   330  436  437 1
   331  437  438 2
   332  437  439 2
   333  439  440 1
   334  393  418 1
   335  452  453 1
   336  452  454 1
   337  452  455 1
   338  455  456 1
   339  456  457 1
   340  457  459 1
   341  457  458 1
   342  458  463 1
   343  459  461 1
   344  459  460 1
   345  461  463 1
   346  461  462 1
   347  463  464 1
   348  464  474 ar
   349  464  465 ar
   350  465  466 ar
   351  466  467 ar
   352  467  474 ar
   353  467  468 1
   354  468  469 2
   355  468  470 am
   356  470  471 1
   357  471  472 2
   358  471  473 2
   359  473  474 1
   360  426  452 1
   361  486  487 1
   362  486  488 1
   363  486  489 1
   364  489  490 1
   365  490  491 1
   366  491  493 1
   367  491  492 1
   368  492  497 1
   369  493  495 1
   370  493  494 1
   371  495  497 1
   372  495  496 1
   373  497  498 1
   374  498  508 ar
   375  498  499 ar
   376  499  500 ar
   377  500  501 ar
   378  501  508 ar
   379  501  502 1
   380  502  503 2
   381  502  504 am
   382  504  505 1
   383  505  506 2
   384  505  507 2
   385  507  508 1
   386  460  486 1
   387  520  523 1
   388  520  522 1
   389  520  521 1
   390  523  524 1
   391  524  525 1
   392  525  527 1
   393  525  526 1
   394  526  531 1
   395  527  529 1
   396  527  528 1
   397  529  530 1
   398  529  531 1
   399  531  532 1
   400  532  539 1
   401  532  533 am
   402  533  535 am
   403  533  534 2
   404  535  536 am
   405  536  538 1
   406  536  537 2
   407  538  539 2
   408  494  520 1
   409  550  551 1
   410  550  552 1
   411  550  553 1
   412  553  554 1
   413  554  555 1
   414  555  557 1
   415  555  556 1
   416  556  561 1
   417  557  559 1
   418  557  558 1
   419  559  561 1
   420  559  560 1
   421  561  562 1
   422  562  572 ar
   423  562  563 ar
   424  563  564 ar
   425  564  565 ar
   426  565  572 ar
   427  565  566 1
   428  566  567 2
   429  566  568 am
   430  568  569 1
   431  569  570 2
   432  569  571 2
   433  571  572 1
   434  528  550 1
   435  584  586 1
   436  584  585 1
   437  584  587 1
   438  587  588 1
   439  588  589 1
   440  589  591 1
   441  589  590 1
   442  590  595 1
   443  591  593 1
   444  591  592 1
   445  593  594 1
   446  593  595 1
   447  595  596 1
   448  596  597 ar
   449  596  605 ar
   450  597  598 ar
   451  598  599 ar
   452  599  605 ar
   453  599  600 ar
   454  600  601 1
   455  600  602 ar
   456  602  603 ar
   457  603  604 ar
   458  604  605 ar
   459  558  584 1
   460  617  619 1
   461  617  618 1
   462  617  620 1
   463  620  621 1
   464  621  622 1
   465  622  624 1
   466  622  623 1
   467  623  628 1
   468  624  626 1
   469  624  625 1
   470  626  627 1
   471  626  628 1
   472  628  629 1
   473  629  630 ar
   474  629  638 ar
   475  630  631 ar
   476  631  632 ar
   477  632  638 ar
   478  632  633 ar
   479  633  634 1
   480  633  635 ar
   481  635  636 ar
   482  636  637 ar
   483  637  638 ar
   484  592  617 1
   485  650  652 1
   486  650  651 1
   487  650  653 1
   488  653  654 1
   489  654  655 1
   490  655  657 1
   491  655  656 1
   492  656  661 1
   493  657  659 1
   494  657  658 1
   495  659  660 1
   496  659  661 1
   497  661  662 1
   498  662  663 ar
   499  662  671 ar
   500  663  664 ar
   501  664  665 ar
   502  665  671 ar
   503  665  666 ar
   504  666  667 1
   505  666  668 ar
   506  668  669 ar
   507  669  670 ar
   508  670  671 ar
   509  625  650 1
   510  683  686 1
   511  683  685 1
   512  683  684 1
   513  686  687 1
   514  687  688 1
   515  688  690 1
   516  688  689 1
   517  689  694 1
   518  690  692 1
   519  690  691 1
   520  692  693 1
   521  692  694 1
   522  694  695 1
   523  695  702 1
   524  695  696 am
   525  696  698 am
   526  696  697 2
   527  698  699 am
   528  699  701 1
   529  699  700 2
   530  701  702 2
   531  658  683 1
   532  713  716 1
   533  713  715 1
   534  713  714 1
   535  716  717 1
   536  717  718 1
   537  718  720 1
   538  718  719 1
   539  719  724 1
   540  720  722 1
   541  720  721 1
   542  722  723 1
   543  722  724 1
   544  724  725 1
   545  725  732 1
   546  725  726 am
   547  726  728 am
   548  726  727 2
   549  728  729 am
   550  729  731 1
   551  729  730 2
   552  731  732 2
   553  691  713 1
   554  743  746 1
   555  743  745 1
   556  743  744 1
   557  746  747 1
   558  747  748 1
   559  748  750 1
   560  748  749 1
   561  749  754 1
   562  750  752 1
   563  750  751 1
   564  752  753 1
   565  752  754 1
   566  754  755 1
   567  755  756 am
   568  755  762 1
   569  756  757 2
   570  756  758 1
   571  758  759 2
   572  759  761 2
   573  759  760 2
   574  761  762 2
   575  721  743 1
   576  774  777 1
   577  774  776 1
   578  774  775 1
   579  777  778 1
   580  778  779 1
   581  779  781 1
   582  779  780 1
   583  780  785 1
   584  781  783 1
   585  781  782 1
   586  783  784 1
   587  783  785 1
   588  785  786 1
   589  786  787 am
   590  786  793 1
   591  787  788 2
   592  787  789 1
   593  789  790 2
   594  790  792 2
   595  790  791 2
   596  792  793 2
   597  751  774 1
   598  805  808 1
   599  805  807 1
   600  805  806 1
   601  808  809 1
   602  809  810 1
   603  810  812 1
   604  810  811 1
   605  811  816 1
   606  812  814 1
   607  812  813 1
   608  814  815 1
   609  814  816 1
   610  816  817 1
   611  817  818 am
   612  817  824 1
   613  818  819 2
   614  818  820 1
   615  820  821 2
   616  821  823 2
   617  821  822 2
   618  823  824 2
   619  782  805 1
   620  836  837 1
   621  836  838 1
   622  836  839 1
   623  839  840 1
   624  840  841 1
   625  841  843 1
   626  841  842 1
   627  842  847 1
   628  843  845 1
   629  843  844 1
   630  845  847 1
   631  845  846 1
   632  847  848 1
   633  848  858 ar
   634  848  849 ar
   635  849  850 ar
   636  850  851 ar
   637  851  858 ar
   638  851  852 1
   639  852  853 2
   640  852  854 am
   641  854  855 1
   642  855  856 2
   643  855  857 2
   644  857  858 1
   645  813  836 1
   646  870  872 1
   647  870  871 1
   648  870  873 1
   649  873  874 1
   650  874  875 1
   651  875  877 1
   652  875  876 1
   653  876  881 1
   654  877  879 1
   655  877  878 1
   656  879  880 1
   657  879  881 1
   658  881  882 1
   659  882  883 ar
   660  882  891 ar
   661  883  884 ar
   662  884  885 ar
   663  885  891 ar
   664  885  886 ar
   665  886  887 1
   666  886  888 ar
   667  888  889 ar
   668  889  890 ar
   669  890  891 ar
   670  844  870 1
   671  903  906 1
   672  903  905 1
   673  903  904 1
   674  906  907 1
   675  907  908 1
   676  908  910 1
   677  908  909 1
   678  909  914 1
   679  910  912 1
   680  910  911 1
   681  912  913 1
   682  912  914 1
   683  914  915 1
   684  915  916 am
   685  915  922 1
   686  916  917 2
   687  916  918 1
   688  918  919 2
   689  919  921 2
   690  919  920 2
   691  921  922 2
   692  878  903 1
   693  934  937 1
   694  934  936 1
   695  934  935 1
   696  937  938 1
   697  938  939 1
   698  939  941 1
   699  939  940 1
   700  940  945 1
   701  941  943 1
   702  941  942 1
   703  943  944 1
   704  943  945 1
   705  945  946 1
   706  946  947 am
   707  946  953 1
   708  947  948 2
   709  947  949 1
   710  949  950 2
   711  950  952 2
   712  950  951 2
   713  952  953 2
   714  911  934 1
   715  965  966 1
   716  965  967 1
   717  965  968 1
   718  968  969 1
   719  969  970 1
   720  970  972 1
   721  970  971 1
   722  971  976 1
   723  972  974 1
   724  972  973 1
   725  974  976 1
   726  974  975 1
   727  976  977 1
   728  977  987 ar
   729  977  978 ar
   730  978  979 ar
   731  979  980 ar
   732  980  987 ar
   733  980  981 1
   734  981  982 2
   735  981  983 am
   736  983  984 1
   737  984  985 2
   738  984  986 2
   739  986  987 1
   740  942  965 1
   741  999 1000 1
   742  999 1001 1
   743  999 1002 1
   744 1002 1003 1
   745 1003 1004 1
   746 1004 1006 1
   747 1004 1005 1
   748 1005 1010 1
   749 1006 1008 1
   750 1006 1007 1
   751 1008 1010 1
   752 1008 1009 1
   753 1010 1011 1
   754 1011 1021 ar
   755 1011 1012 ar
   756 1012 1013 ar
   757 1013 1014 ar
   758 1014 1021 ar
   759 1014 1015 1
   760 1015 1016 2
   761 1015 1017 am
   762 1017 1018 1
   763 1018 1019 2
   764 1018 1020 2
   765 1020 1021 1
   766  973  999 1
   767 1033 1036 1
   768 1033 1035 1
   769 1033 1034 1
   770 1036 1037 1
   771 1037 1038 1
   772 1038 1040 1
   773 1038 1039 1
   774 1039 1044 1
   775 1040 1042 1
   776 1040 1041 1
   777 1042 1043 1
   778 1042 1044 1
   779 1044 1045 1
   780 1045 1052 1
   781 1045 1046 am
   782 1046 1048 am
   783 1046 1047 2
   784 1048 1049 am
   785 1049 1051 1
   786 1049 1050 2
   787 1051 1052 2
   788 1007 1033 1
   789 1063 1064 1
   790 1063 1065 1
   791 1063 1066 1
   792 1066 1067 1
   793 1067 1068 1
   794 1068 1070 1
   795 1068 1069 1
   796 1069 1074 1
   797 1070 1072 1
   798 1070 1071 1
   799 1072 1074 1
   800 1072 1073 1
   801 1074 1075 1
   802 1075 1085 ar
   803 1075 1076 ar
   804 1076 1077 ar
   805 1077 1078 ar
   806 1078 1085 ar
   807 1078 1079 1
   808 1079 1080 2
   809 1079 1081 am
   810 1081 1082 1
   811 1082 1083 2
   812 1082 1084 2
   813 1084 1085 1
   814 1041 1063 1
   815 1097 1098 1
   816 1097 1099 1
   817 1097 1100 1
   818 1100 1101 1
   819 1101 1102 1
   820 1102 1104 1
   821 1102 1103 1
   822 1103 1108 1
   823 1104 1106 1
   824 1104 1105 1
   825 1106 1108 1
   826 1106 1107 1
   827 1108 1109 1
   828 1109 1119 ar
   829 1109 1110 ar
   830 1110 1111 ar
   831 1111 1112 ar
   832 1112 1119 ar
   833 1112 1113 1
   834 1113 1114 2
   835 1113 1115 am
   836 1115 1116 1
   837 1116 1117 2
   838 1116 1118 2
   839 1118 1119 1
   840 1071 1097 1
   841 1131 1134 1
   842 1131 1133 1
   843 1131 1132 1
   844 1134 1135 1
   845 1135 1136 1
   846 1136 1138 1
   847 1136 1137 1
   848 1137 1142 1
   849 1138 1140 1
   850 1138 1139 1
   851 1140 1141 1
   852 1140 1142 1
   853 1142 1143 1
   854 1143 1150 1
   855 1143 1144 am
   856 1144 1146 am
   857 1144 1145 2
   858 1146 1147 am
   859 1147 1149 1
   860 1147 1148 2
   861 1149 1150 2
   862 1105 1131 1
   863 1161 1163 1
   864 1161 1162 1
   865 1161 1164 1
   866 1164 1165 1
   867 1165 1166 1
   868 1166 1168 1
   869 1166 1167 1
   870 1167 1172 1
   871 1168 1170 1
   872 1168 1169 1
   873 1170 1171 1
   874 1170 1172 1
   875 1172 1173 1
   876 1173 1174 ar
   877 1173 1182 ar
   878 1174 1175 ar
   879 1175 1176 ar
   880 1176 1182 ar
   881 1176 1177 ar
   882 1177 1178 1
   883 1177 1179 ar
   884 1179 1180 ar
   885 1180 1181 ar
   886 1181 1182 ar
   887 1139 1161 1
   888 1194 1197 1
   889 1194 1196 1
   890 1194 1195 1
   891 1197 1198 1
   892 1198 1199 1
   893 1199 1201 1
   894 1199 1200 1
   895 1200 1205 1
   896 1201 1203 1
   897 1201 1202 1
   898 1203 1204 1
   899 1203 1205 1
   900 1205 1206 1
   901 1206 1213 1
   902 1206 1207 am
   903 1207 1209 am
   904 1207 1208 2
   905 1209 1210 am
   906 1210 1212 1
   907 1210 1211 2
   908 1212 1213 2
   909 1169 1194 1
   910 1224 1226 1
   911 1224 1225 1
   912 1224 1227 1
   913 1227 1228 1
   914 1228 1229 1
   915 1229 1231 1
   916 1229 1230 1
   917 1230 1235 1
   918 1231 1233 1
   919 1231 1232 1
   920 1233 1234 1
   921 1233 1235 1
   922 1235 1236 1
   923 1236 1237 ar
   924 1236 1245 ar
   925 1237 1238 ar
   926 1238 1239 ar
   927 1239 1245 ar
   928 1239 1240 ar
   929 1240 1241 1
   930 1240 1242 ar
   931 1242 1243 ar
   932 1243 1244 ar
   933 1244 1245 ar
   934 1202 1224 1
   935 1257 1258 1
   936 1257 1259 1
   937 1257 1260 1
   938 1260 1261 1
   939 1261 1262 1
   940 1262 1264 1
   941 1262 1263 1
   942 1263 1268 1
   943 1264 1266 1
   944 1264 1265 1
   945 1266 1268 1
   946 1266 1267 1
   947 1268 1269 1
   948 1269 1279 ar
   949 1269 1270 ar
   950 1270 1271 ar
   951 1271 1272 ar
   952 1272 1279 ar
   953 1272 1273 1
   954 1273 1274 2
   955 1273 1275 am
   956 1275 1276 1
   957 1276 1277 2
   958 1276 1278 2
   959 1278 1279 1
   960 1232 1257 1
   961 1291 1294 1
   962 1291 1293 1
   963 1291 1292 1
   964 1294 1295 1
   965 1295 1296 1
   966 1296 1298 1
   967 1296 1297 1
   968 1297 1302 1
   969 1298 1300 1
   970 1298 1299 1
   971 1300 1301 1
   972 1300 1302 1
   973 1302 1303 1
   974 1303 1310 1
   975 1303 1304 am
   976 1304 1306 am
   977 1304 1305 2
   978 1306 1307 am
   979 1307 1309 1
   980 1307 1308 2
   981 1309 1310 2
   982 1265 1291 1
   983 1321 1324 1
   984 1321 1323 1
   985 1321 1322 1
   986 1324 1325 1
   987 1325 1326 1
   988 1326 1328 1
   989 1326 1327 1
   990 1327 1332 1
   991 1328 1330 1
   992 1328 1329 1
   993 1330 1331 1
   994 1330 1332 1
   995 1332 1333 1
   996 1333 1334 am
   997 1333 1340 1
   998 1334 1335 2
   999 1334 1336 1
  1000 1336 1337 2
  1001 1337 1339 2
  1002 1337 1338 2
  1003 1339 1340 2
  1004 1299 1321 1
  1005 1352 1355 1
  1006 1352 1354 1
  1007 1352 1353 1
  1008 1355 1356 1
  1009 1356 1357 1
  1010 1357 1359 1
  1011 1357 1358 1
  1012 1358 1363 1
  1013 1359 1361 1
  1014 1359 1360 1
  1015 1361 1362 1
  1016 1361 1363 1
  1017 1363 1364 1
  1018 1364 1365 am
  1019 1364 1371 1
  1020 1365 1366 2
  1021 1365 1367 1
  1022 1367 1368 2
  1023 1368 1370 2
  1024 1368 1369 2
  1025 1370 1371 2
  1026 1329 1352 1
  1027 1383 1385 1
  1028 1383 1384 1
  1029 1383 1386 1
  1030 1386 1387 1
  1031 1387 1388 1
  1032 1388 1390 1
  1033 1388 1389 1
  1034 1389 1394 1
  1035 1390 1392 1
  1036 1390 1391 1
  1037 1392 1393 1
  1038 1392 1394 1
  1039 1394 1395 1
  1040 1395 1396 ar
  1041 1395 1404 ar
  1042 1396 1397 ar
  1043 1397 1398 ar
  1044 1398 1404 ar
  1045 1398 1399 ar
  1046 1399 1400 1
  1047 1399 1401 ar
  1048 1401 1402 ar
  1049 1402 1403 ar
  1050 1403 1404 ar
  1051 1360 1383 1
  1052 1416 1419 1
  1053 1416 1418 1
  1054 1416 1417 1
  1055 1419 1420 1
  1056 1420 1421 1
  1057 1421 1423 1
  1058 1421 1422 1
  1059 1422 1427 1
  1060 1423 1425 1
  1061 1423 1424 1
  1062 1425 1426 1
  1063 1425 1427 1
  1064 1427 1428 1
  1065 1428 1429 am
  1066 1428 1435 1
  1067 1429 1430 2
  1068 1429 1431 1
  1069 1431 1432 2
  1070 1432 1434 2
  1071 1432 1433 2
  1072 1434 1435 2
  1073 1391 1416 1
  1074 1447 1448 1
  1075 1447 1449 1
  1076 1447 1450 1
  1077 1450 1451 1
  1078 1451 1452 1
  1079 1452 1454 1
  1080 1452 1453 1
  1081 1453 1458 1
  1082 1454 1456 1
  1083 1454 1455 1
  1084 1456 1458 1
  1085 1456 1457 1
  1086 1458 1459 1
  1087 1459 1469 ar
  1088 1459 1460 ar
  1089 1460 1461 ar
  1090 1461 1462 ar
  1091 1462 1469 ar
  1092 1462 1463 1
  1093 1463 1464 2
  1094 1463 1465 am
  1095 1465 1466 1
  1096 1466 1467 2
  1097 1466 1468 2
  1098 1468 1469 1
  1099 1424 1447 1
  1100 1481 1483 1
  1101 1481 1482 1
  1102 1481 1484 1
  1103 1484 1485 1
  1104 1485 1486 1
  1105 1486 1488 1
  1106 1486 1487 1
  1107 1487 1492 1
  1108 1488 1490 1
  1109 1488 1489 1
  1110 1490 1491 1
  1111 1490 1492 1
  1112 1492 1493 1
  1113 1493 1494 ar
  1114 1493 1502 ar
  1115 1494 1495 ar
  1116 1495 1496 ar
  1117 1496 1502 ar
  1118 1496 1497 ar
  1119 1497 1498 1
  1120 1497 1499 ar
  1121 1499 1500 ar
  1122 1500 1501 ar
  1123 1501 1502 ar
  1124 1455 1481 1
  1125 1514 1516 1
  1126 1514 1515 1
  1127 1514 1517 1
  1128 1517 1518 1
  1129 1518 1519 1
  1130 1519 1521 1
  1131 1519 1520 1
  1132 1520 1525 1
  1133 1521 1523 1
  1134 1521 1522 1
  1135 1523 1524 1
  1136 1523 1525 1
  1137 1525 1526 1
  1138 1526 1527 ar
  1139 1526 1535 ar
  1140 1527 1528 ar
  1141 1528 1529 ar
  1142 1529 1535 ar
  1143 1529 1530 ar
  1144 1530 1531 1
  1145 1530 1532 ar
  1146 1532 1533 ar
  1147 1533 1534 ar
  1148 1534 1535 ar
  1149 1489 1514 1
  1150 1547 1550 1
  1151 1547 1549 1
  1152 1547 1548 1
  1153 1550 1551 1
  1154 1551 1552 1
  1155 1552 1554 1
  1156 1552 1553 1
  1157 1553 1558 1
  1158 1554 1556 1
  1159 1554 1555 1
  1160 1556 1557 1
  1161 1556 1558 1
  1162 1558 1559 1
  1163 1559 1566 1
  1164 1559 1560 am
  1165 1560 1562 am
  1166 1560 1561 2
  1167 1562 1563 am
  1168 1563 1565 1
  1169 1563 1564 2
  1170 1565 1566 2
  1171 1522 1547 1
  1172 1577 1580 1
  1173 1577 1579 1
  1174 1577 1578 1
  1175 1580 1581 1
  1176 1581 1582 1
  1177 1582 1584 1
  1178 1582 1583 1
  1179 1583 1588 1
  1180 1584 1586 1
  1181 1584 1585 1
  1182 1586 1587 1
  1183 1586 1588 1
  1184 1588 1589 1
  1185 1589 1590 am
  1186 1589 1596 1
  1187 1590 1591 2
  1188 1590 1592 1
  1189 1592 1593 2
  1190 1593 1595 2
  1191 1593 1594 2
  1192 1595 1596 2
  1193 1555 1577 1
  1194 1608 1611 1
  1195 1608 1610 1
  1196 1608 1609 1
  1197 1611 1612 1
  1198 1612 1613 1
  1199 1613 1615 1
  1200 1613 1614 1
  1201 1614 1619 1
  1202 1615 1617 1
  1203 1615 1616 1
  1204 1617 1618 1
  1205 1617 1619 1
  1206 1619 1620 1
  1207 1620 1621 am
  1208 1620 1627 1
  1209 1621 1622 2
  1210 1621 1623 1
  1211 1623 1624 2
  1212 1624 1626 2
  1213 1624 1625 2
  1214 1626 1627 2
  1215 1585 1608 1
  1216 1639 1641 1
  1217 1639 1640 1
  1218 1639 1642 1
  1219 1642 1643 1
  1220 1643 1644 1
  1221 1644 1646 1
  1222 1644 1645 1
  1223 1645 1650 1
  1224 1646 1648 1
  1225 1646 1647 1
  1226 1648 1649 1
  1227 1648 1650 1
  1228 1650 1651 1
  1229 1651 1652 ar
  1230 1651 1660 ar
  1231 1652 1653 ar
  1232 1653 1654 ar
  1233 1654 1660 ar
  1234 1654 1655 ar
  1235 1655 1656 1
  1236 1655 1657 ar
  1237 1657 1658 ar
  1238 1658 1659 ar
  1239 1659 1660 ar
  1240 1616 1639 1
  1241 1675 1676 1
  1242 1676 1677 1
  1243 1677 1679 1
  1244 1677 1678 1
  1245 1678 1683 1
  1246 1679 1681 1
  1247 1679 1680 1
  1248 1681 1682 1
  1249 1681 1683 1
  1250 1683 1684 1
  1251 1684 1691 1
  1252 1684 1685 am
  1253 1685 1687 am
  1254 1685 1686 2
  1255 1687 1688 am
  1256 1688 1690 1
  1257 1688 1689 2
  1258 1690 1691 2
  1259 1672 1673 1
  1260 1672 1674 1
  1261 1672 1675 1
  1262 1647 1672 1
  1263 1703 1704 1
  1264 1704 1705 1
  1265 1705 1707 1
  1266 1705 1706 1
  1267 1706 1711 1
  1268 1707 1709 1
  1269 1707 1708 1
  1270 1709 1711 1
  1271 1709 1710 1
  1272 1711 1712 1
  1273 1712 1722 ar
  1274 1712 1713 ar
  1275 1713 1714 ar
  1276 1714 1715 ar
  1277 1715 1722 ar
  1278 1715 1716 1
  1279 1716 1717 2
  1280 1716 1718 am
  1281 1718 1719 1
  1282 1719 1720 2
  1283 1719 1721 2
  1284 1721 1722 1
  1285 1735 1737 1
  1286 1735 1736 1
  1287 1735 1738 1
  1288 1738 1739 1
  1289 1739 1740 1
  1290 1740 1742 1
  1291 1740 1741 1
  1292 1741 1746 1
  1293 1742 1744 1
  1294 1742 1743 1
  1295 1744 1745 1
  1296 1744 1746 1
  1297 1746 1747 1
  1298 1747 1748 ar
  1299 1747 1756 ar
  1300 1748 1749 ar
  1301 1749 1750 ar
  1302 1750 1756 ar
  1303 1750 1751 ar
  1304 1751 1752 1
  1305 1751 1753 ar
  1306 1753 1754 ar
  1307 1754 1755 ar
  1308 1755 1756 ar
  1309 1735 1708 1
  1310 1768 1771 1
  1311 1768 1770 1
  1312 1768 1769 1
  1313 1771 1772 1
  1314 1772 1773 1
  1315 1773 1775 1
  1316 1773 1774 1
  1317 1774 1779 1
  1318 1775 1777 1
  1319 1775 1776 1
  1320 1777 1778 1
  1321 1777 1779 1
  1322 1779 1780 1
  1323 1780 1787 1
  1324 1780 1781 am
  1325 1781 1783 am
  1326 1781 1782 2
  1327 1783 1784 am
  1328 1784 1786 1
  1329 1784 1785 2
  1330 1786 1787 2
  1331 1743 1768 1
  1332 1798 1801 1
  1333 1798 1800 1
  1334 1798 1799 1
  1335 1801 1802 1
  1336 1802 1803 1
  1337 1803 1805 1
  1338 1803 1804 1
  1339 1804 1809 1
  1340 1805 1807 1
  1341 1805 1806 1
  1342 1807 1808 1
  1343 1807 1809 1
  1344 1809 1810 1
  1345 1810 1817 1
  1346 1810 1811 am
  1347 1811 1813 am
  1348 1811 1812 2
  1349 1813 1814 am
  1350 1814 1816 1
  1351 1814 1815 2
  1352 1816 1817 2
  1353 1776 1798 1
  1354 1828 1829 1
  1355 1828 1830 1
  1356 1828 1831 1
  1357 1831 1832 1
  1358 1832 1833 1
  1359 1833 1835 1
  1360 1833 1834 1
  1361 1834 1839 1
  1362 1835 1837 1
  1363 1835 1836 1
  1364 1837 1839 1
  1365 1837 1838 1
  1366 1839 1840 1
  1367 1840 1850 ar
  1368 1840 1841 ar
  1369 1841 1842 ar
  1370 1842 1843 ar
  1371 1843 1850 ar
  1372 1843 1844 1
  1373 1844 1845 2
  1374 1844 1846 am
  1375 1846 1847 1
  1376 1847 1848 2
  1377 1847 1849 2
  1378 1849 1850 1
  1379 1806 1828 1
  1380 1862 1864 1
  1381 1862 1863 1
  1382 1862 1865 1
  1383 1865 1866 1
  1384 1866 1867 1
  1385 1867 1869 1
  1386 1867 1868 1
  1387 1868 1873 1
  1388 1869 1871 1
  1389 1869 1870 1
  1390 1871 1872 1
  1391 1871 1873 1
  1392 1873 1874 1
  1393 1874 1875 ar
  1394 1874 1883 ar
  1395 1875 1876 ar
  1396 1876 1877 ar
  1397 1877 1883 ar
  1398 1877 1878 ar
  1399 1878 1879 1
  1400 1878 1880 ar
  1401 1880 1881 ar
  1402 1881 1882 ar
  1403 1882 1883 ar
  1404 1836 1862 1
  1405 1895 1898 1
  1406 1895 1897 1
  1407 1895 1896 1
  1408 1898 1899 1
  1409 1899 1900 1
  1410 1900 1902 1
  1411 1900 1901 1
  1412 1901 1906 1
  1413 1902 1904 1
  1414 1902 1903 1
  1415 1904 1905 1
  1416 1904 1906 1
  1417 1906 1907 1
  1418 1907 1914 1
  1419 1907 1908 am
  1420 1908 1910 am
  1421 1908 1909 2
  1422 1910 1911 am
  1423 1911 1913 1
  1424 1911 1912 2
  1425 1913 1914 2
  1426 1870 1895 1
  1427 1925 1928 1
  1428 1925 1927 1
  1429 1925 1926 1
  1430 1928 1929 1
  1431 1929 1930 1
  1432 1930 1932 1
  1433 1930 1931 1
  1434 1931 1936 1
  1435 1932 1934 1
  1436 1932 1933 1
  1437 1934 1935 1
  1438 1934 1936 1
  1439 1936 1937 1
  1440 1937 1944 1
  1441 1937 1938 am
  1442 1938 1940 am
  1443 1938 1939 2
  1444 1940 1941 am
  1445 1941 1943 1
  1446 1941 1942 2
  1447 1943 1944 2
  1448 1903 1925 1
  1449 1955 1958 1
  1450 1955 1957 1
  1451 1955 1956 1
  1452 1958 1959 1
  1453 1959 1960 1
  1454 1960 1962 1
  1455 1960 1961 1
  1456 1961 1966 1
  1457 1962 1964 1
  1458 1962 1963 1
  1459 1964 1965 1
  1460 1964 1966 1
  1461 1966 1967 1
  1462 1967 1974 1
  1463 1967 1968 am
  1464 1968 1970 am
  1465 1968 1969 2
  1466 1970 1971 am
  1467 1971 1973 1
  1468 1971 1972 2
  1469 1973 1974 2
  1470 1933 1955 1
  1471 1985 1986 1
  1472 1985 1987 1
  1473 1985 1988 1
  1474 1988 1989 1
  1475 1989 1990 1
  1476 1990 1992 1
  1477 1990 1991 1
  1478 1991 1996 1
  1479 1992 1994 1
  1480 1992 1993 1
  1481 1994 1996 1
  1482 1994 1995 1
  1483 1996 1997 1
  1484 1997 2007 ar
  1485 1997 1998 ar
  1486 1998 1999 ar
  1487 1999 2000 ar
  1488 2000 2007 ar
  1489 2000 2001 1
  1490 2001 2002 2
  1491 2001 2003 am
  1492 2003 2004 1
  1493 2004 2005 2
  1494 2004 2006 2
  1495 2006 2007 1
  1496 1963 1985 1
  1497 2019 2020 1
  1498 2019 2021 1
  1499 2019 2022 1
  1500 2022 2023 1
  1501 2023 2024 1
  1502 2024 2026 1
  1503 2024 2025 1
  1504 2025 2030 1
  1505 2026 2028 1
  1506 2026 2027 1
  1507 2028 2030 1
  1508 2028 2029 1
  1509 2030 2031 1
  1510 2031 2041 ar
  1511 2031 2032 ar
  1512 2032 2033 ar
  1513 2033 2034 ar
  1514 2034 2041 ar
  1515 2034 2035 1
  1516 2035 2036 2
  1517 2035 2037 am
  1518 2037 2038 1
  1519 2038 2039 2
  1520 2038 2040 2
  1521 2040 2041 1
  1522 1993 2019 1
  1523 2053 2056 1
  1524 2053 2055 1
  1525 2053 2054 1
  1526 2056 2057 1
  1527 2057 2058 1
  1528 2058 2060 1
  1529 2058 2059 1
  1530 2059 2064 1
  1531 2060 2062 1
  1532 2060 2061 1
  1533 2062 2063 1
  1534 2062 2064 1
  1535 2064 2065 1
  1536 2065 2072 1
  1537 2065 2066 am
  1538 2066 2068 am
  1539 2066 2067 2
  1540 2068 2069 am
  1541 2069 2071 1
  1542 2069 2070 2
  1543 2071 2072 2
  1544 2027 2053 1
  1545 2083 2084 1
  1546 2083 2085 1
  1547 2083 2086 1
  1548 2086 2087 1
  1549 2087 2088 1
  1550 2088 2090 1
  1551 2088 2089 1
  1552 2089 2094 1
  1553 2090 2092 1
  1554 2090 2091 1
  1555 2092 2094 1
  1556 2092 2093 1
  1557 2094 2095 1
  1558 2095 2105 ar
  1559 2095 2096 ar
  1560 2096 2097 ar
  1561 2097 2098 ar
  1562 2098 2105 ar
  1563 2098 2099 1
  1564 2099 2100 2
  1565 2099 2101 am
  1566 2101 2102 1
  1567 2102 2103 2
  1568 2102 2104 2
  1569 2104 2105 1
  1570 2061 2083 1
  1571 2117 2119 1
  1572 2117 2118 1
  1573 2117 2120 1
  1574 2120 2121 1
  1575 2121 2122 1
  1576 2122 2124 1
  1577 2122 2123 1
  1578 2123 2128 1
  1579 2124 2126 1
  1580 2124 2125 1
  1581 2126 2127 1
  1582 2126 2128 1
  1583 2128 2129 1
  1584 2129 2130 ar
  1585 2129 2138 ar
  1586 2130 2131 ar
  1587 2131 2132 ar
  1588 2132 2138 ar
  1589 2132 2133 ar
  1590 2133 2134 1
  1591 2133 2135 ar
  1592 2135 2136 ar
  1593 2136 2137 ar
  1594 2137 2138 ar
  1595 2091 2117 1
  1596 2150 2152 1
  1597 2150 2151 1
  1598 2150 2153 1
  1599 2153 2154 1
  1600 2154 2155 1
  1601 2155 2157 1
  1602 2155 2156 1
  1603 2156 2161 1
  1604 2157 2159 1
  1605 2157 2158 1
  1606 2159 2160 1
  1607 2159 2161 1
  1608 2161 2162 1
  1609 2162 2163 ar
  1610 2162 2171 ar
  1611 2163 2164 ar
  1612 2164 2165 ar
  1613 2165 2171 ar
  1614 2165 2166 ar
  1615 2166 2167 1
  1616 2166 2168 ar
  1617 2168 2169 ar
  1618 2169 2170 ar
  1619 2170 2171 ar
  1620 2125 2150 1
  1621 2183 2185 1
  1622 2183 2184 1
  1623 2183 2186 1
  1624 2186 2187 1
  1625 2187 2188 1
  1626 2188 2190 1
  1627 2188 2189 1
  1628 2189 2194 1
  1629 2190 2192 1
  1630 2190 2191 1
  1631 2192 2193 1
  1632 2192 2194 1
  1633 2194 2195 1
  1634 2195 2196 ar
  1635 2195 2204 ar
  1636 2196 2197 ar
  1637 2197 2198 ar
  1638 2198 2204 ar
  1639 2198 2199 ar
  1640 2199 2200 1
  1641 2199 2201 ar
  1642 2201 2202 ar
  1643 2202 2203 ar
  1644 2203 2204 ar
  1645 2158 2183 1
  1646 2216 2219 1
  1647 2216 2218 1
  1648 2216 2217 1
  1649 2219 2220 1
  1650 2220 2221 1
  1651 2221 2223 1
  1652 2221 2222 1
  1653 2222 2227 1
  1654 2223 2225 1
  1655 2223 2224 1
  1656 2225 2226 1
  1657 2225 2227 1
  1658 2227 2228 1
  1659 2228 2235 1
  1660 2228 2229 am
  1661 2229 2231 am
  1662 2229 2230 2
  1663 2231 2232 am
  1664 2232 2234 1
  1665 2232 2233 2
  1666 2234 2235 2
  1667 2191 2216 1
  1668 2246 2249 1
  1669 2246 2248 1
  1670 2246 2247 1
  1671 2249 2250 1
  1672 2250 2251 1
  1673 2251 2253 1
  1674 2251 2252 1
  1675 2252 2257 1
  1676 2253 2255 1
  1677 2253 2254 1
  1678 2255 2256 1
  1679 2255 2257 1
  1680 2257 2258 1
  1681 2258 2265 1
  1682 2258 2259 am
  1683 2259 2261 am
  1684 2259 2260 2
  1685 2261 2262 am
  1686 2262 2264 1
  1687 2262 2263 2
  1688 2264 2265 2
  1689 2224 2246 1
  1690 2276 2279 1
  1691 2276 2278 1
  1692 2276 2277 1
  1693 2279 2280 1
  1694 2280 2281 1
  1695 2281 2283 1
  1696 2281 2282 1
  1697 2282 2287 1
  1698 2283 2285 1
  1699 2283 2284 1
  1700 2285 2286 1
  1701 2285 2287 1
  1702 2287 2288 1
  1703 2288 2289 am
  1704 2288 2295 1
  1705 2289 2290 2
  1706 2289 2291 1
  1707 2291 2292 2
  1708 2292 2294 2
  1709 2292 2293 2
  1710 2294 2295 2
  1711 2254 2276 1
  1712 2307 2310 1
  1713 2307 2309 1
  1714 2307 2308 1
  1715 2310 2311 1
  1716 2311 2312 1
  1717 2312 2314 1
  1718 2312 2313 1
  1719 2313 2318 1
  1720 2314 2316 1
  1721 2314 2315 1
  1722 2316 2317 1
  1723 2316 2318 1
  1724 2318 2319 1
  1725 2319 2320 am
  1726 2319 2326 1
  1727 2320 2321 2
  1728 2320 2322 1
  1729 2322 2323 2
  1730 2323 2325 2
  1731 2323 2324 2
  1732 2325 2326 2
  1733 2284 2307 1
  1734 2338 2340 1
  1735 2338 2339 1
  1736 2338 2341 1
  1737 2341 2342 1
  1738 2342 2343 1
  1739 2343 2345 1
  1740 2343 2344 1
  1741 2344 2349 1
  1742 2345 2347 1
  1743 2345 2346 1
  1744 2347 2348 1
  1745 2347 2349 1
  1746 2349 2350 1
  1747 2350 2351 ar
  1748 2350 2359 ar
  1749 2351 2352 ar
  1750 2352 2353 ar
  1751 2353 2359 ar
  1752 2353 2354 ar
  1753 2354 2355 1
  1754 2354 2356 ar
  1755 2356 2357 ar
  1756 2357 2358 ar
  1757 2358 2359 ar
  1758 2315 2338 1
  1759 2371 2373 1
  1760 2371 2372 1
  1761 2371 2374 1
  1762 2374 2375 1
  1763 2375 2376 1
  1764 2376 2378 1
  1765 2376 2377 1
  1766 2377 2382 1
  1767 2378 2380 1
  1768 2378 2379 1
  1769 2380 2381 1
  1770 2380 2382 1
  1771 2382 2383 1
  1772 2383 2384 ar
  1773 2383 2392 ar
  1774 2384 2385 ar
  1775 2385 2386 ar
  1776 2386 2392 ar
  1777 2386 2387 ar
  1778 2387 2388 1
  1779 2387 2389 ar
  1780 2389 2390 ar
  1781 2390 2391 ar
  1782 2391 2392 ar
  1783 2346 2371 1
  1784 2404 2406 1
  1785 2404 2405 1
  1786 2404 2407 1
  1787 2407 2408 1
  1788 2408 2409 1
  1789 2409 2411 1
  1790 2409 2410 1
  1791 2410 2415 1
  1792 2411 2413 1
  1793 2411 2412 1
  1794 2413 2414 1
  1795 2413 2415 1
  1796 2415 2416 1
  1797 2416 2417 ar
  1798 2416 2425 ar
  1799 2417 2418 ar
  1800 2418 2419 ar
  1801 2419 2425 ar
  1802 2419 2420 ar
  1803 2420 2421 1
  1804 2420 2422 ar
  1805 2422 2423 ar
  1806 2423 2424 ar
  1807 2424 2425 ar
  1808 2379 2404 1
  1809 2437 2439 1
  1810 2437 2438 1
  1811 2437 2440 1
  1812 2440 2441 1
  1813 2441 2442 1
  1814 2442 2444 1
  1815 2442 2443 1
  1816 2443 2448 1
  1817 2444 2446 1
  1818 2444 2445 1
  1819 2446 2447 1
  1820 2446 2448 1
  1821 2448 2449 1
  1822 2449 2450 ar
  1823 2449 2458 ar
  1824 2450 2451 ar
  1825 2451 2452 ar
  1826 2452 2458 ar
  1827 2452 2453 ar
  1828 2453 2454 1
  1829 2453 2455 ar
  1830 2455 2456 ar
  1831 2456 2457 ar
  1832 2457 2458 ar
  1833 2412 2437 1
  1834 2470 2473 1
  1835 2470 2472 1
  1836 2470 2471 1
  1837 2473 2474 1
  1838 2474 2475 1
  1839 2475 2477 1
  1840 2475 2476 1
  1841 2476 2481 1
  1842 2477 2479 1
  1843 2477 2478 1
  1844 2479 2480 1
  1845 2479 2481 1
  1846 2481 2482 1
  1847 2482 2483 am
  1848 2482 2489 1
  1849 2483 2484 2
  1850 2483 2485 1
  1851 2485 2486 2
  1852 2486 2488 2
  1853 2486 2487 2
  1854 2488 2489 2
  1855 2445 2470 1
  1856 2501 2504 1
  1857 2501 2503 1
  1858 2501 2502 1
  1859 2504 2505 1
  1860 2505 2506 1
  1861 2506 2508 1
  1862 2506 2507 1
  1863 2507 2512 1
  1864 2508 2510 1
  1865 2508 2509 1
  1866 2510 2511 1
  1867 2510 2512 1
  1868 2512 2513 1
  1869 2513 2514 am
  1870 2513 2520 1
  1871 2514 2515 2
  1872 2514 2516 1
  1873 2516 2517 2
  1874 2517 2519 2
  1875 2517 2518 2
  1876 2519 2520 2
  1877 2478 2501 1
  1878 2532 2533 1
  1879 2532 2534 1
  1880 2532 2535 1
  1881 2535 2536 1
  1882 2536 2537 1
  1883 2537 2539 1
  1884 2537 2538 1
  1885 2538 2543 1
  1886 2539 2541 1
  1887 2539 2540 1
  1888 2541 2543 1
  1889 2541 2542 1
  1890 2543 2544 1
  1891 2544 2554 ar
  1892 2544 2545 ar
  1893 2545 2546 ar
  1894 2546 2547 ar
  1895 2547 2554 ar
  1896 2547 2548 1
  1897 2548 2549 2
  1898 2548 2550 am
  1899 2550 2551 1
  1900 2551 2552 2
  1901 2551 2553 2
  1902 2553 2554 1
  1903 2509 2532 1
  1904 2566 2568 1
  1905 2566 2567 1
  1906 2566 2569 1
  1907 2569 2570 1
  1908 2570 2571 1
  1909 2571 2573 1
  1910 2571 2572 1
  1911 2572 2577 1
  1912 2573 2575 1
  1913 2573 2574 1
  1914 2575 2576 1
  1915 2575 2577 1
  1916 2577 2578 1
  1917 2578 2579 ar
  1918 2578 2587 ar
  1919 2579 2580 ar
  1920 2580 2581 ar
  1921 2581 2587 ar
  1922 2581 2582 ar
  1923 2582 2583 1
  1924 2582 2584 ar
  1925 2584 2585 ar
  1926 2585 2586 ar
  1927 2586 2587 ar
  1928 2540 2566 1
  1929 2599 2602 1
  1930 2599 2601 1
  1931 2599 2600 1
  1932 2602 2603 1
  1933 2603 2604 1
  1934 2604 2606 1
  1935 2604 2605 1
  1936 2605 2610 1
  1937 2606 2608 1
  1938 2606 2607 1
  1939 2608 2609 1
  1940 2608 2610 1
  1941 2610 2611 1
  1942 2611 2612 am
  1943 2611 2618 1
  1944 2612 2613 2
  1945 2612 2614 1
  1946 2614 2615 2
  1947 2615 2617 2
  1948 2615 2616 2
  1949 2617 2618 2
  1950 2574 2599 1
  1951 2630 2632 1
  1952 2630 2631 1
  1953 2630 2633 1
  1954 2633 2634 1
  1955 2634 2635 1
  1956 2635 2637 1
  1957 2635 2636 1
  1958 2636 2641 1
  1959 2637 2639 1
  1960 2637 2638 1
  1961 2639 2640 1
  1962 2639 2641 1
  1963 2641 2642 1
  1964 2642 2643 ar
  1965 2642 2651 ar
  1966 2643 2644 ar
  1967 2644 2645 ar
  1968 2645 2651 ar
  1969 2645 2646 ar
  1970 2646 2647 1
  1971 2646 2648 ar
  1972 2648 2649 ar
  1973 2649 2650 ar
  1974 2650 2651 ar
  1975 2607 2630 1
  1976 2663 2664 1
  1977 2663 2665 1
  1978 2663 2666 1
  1979 2666 2667 1
  1980 2667 2668 1
  1981 2668 2670 1
  1982 2668 2669 1
  1983 2669 2674 1
  1984 2670 2672 1
  1985 2670 2671 1
  1986 2672 2674 1
  1987 2672 2673 1
  1988 2674 2675 1
  1989 2675 2685 ar
  1990 2675 2676 ar
  1991 2676 2677 ar
  1992 2677 2678 ar
  1993 2678 2685 ar
  1994 2678 2679 1
  1995 2679 2680 2
  1996 2679 2681 am
  1997 2681 2682 1
  1998 2682 2683 2
  1999 2682 2684 2
  2000 2684 2685 1
  2001 2638 2663 1
  2002 2697 2700 1
  2003 2697 2699 1
  2004 2697 2698 1
  2005 2700 2701 1
  2006 2701 2702 1
  2007 2702 2704 1
  2008 2702 2703 1
  2009 2703 2708 1
  2010 2704 2706 1
  2011 2704 2705 1
  2012 2706 2707 1
  2013 2706 2708 1
  2014 2708 2709 1
  2015 2709 2716 1
  2016 2709 2710 am
  2017 2710 2712 am
  2018 2710 2711 2
  2019 2712 2713 am
  2020 2713 2715 1
  2021 2713 2714 2
  2022 2715 2716 2
  2023 2671 2697 1
  2024 2727 2729 1
  2025 2727 2728 1
  2026 2727 2730 1
  2027 2730 2731 1
  2028 2731 2732 1
  2029 2732 2734 1
  2030 2732 2733 1
  2031 2733 2738 1
  2032 2734 2736 1
  2033 2734 2735 1
  2034 2736 2737 1
  2035 2736 2738 1
  2036 2738 2739 1
  2037 2739 2740 ar
  2038 2739 2748 ar
  2039 2740 2741 ar
  2040 2741 2742 ar
  2041 2742 2748 ar
  2042 2742 2743 ar
  2043 2743 2744 1
  2044 2743 2745 ar
  2045 2745 2746 ar
  2046 2746 2747 ar
  2047 2747 2748 ar
  2048 2705 2727 1
  2049 2760 2761 1
  2050 2760 2762 1
  2051 2760 2763 1
  2052 2763 2764 1
  2053 2764 2765 1
  2054 2765 2767 1
  2055 2765 2766 1
  2056 2766 2771 1
  2057 2767 2769 1
  2058 2767 2768 1
  2059 2769 2771 1
  2060 2769 2770 1
  2061 2771 2772 1
  2062 2772 2782 ar
  2063 2772 2773 ar
  2064 2773 2774 ar
  2065 2774 2775 ar
  2066 2775 2782 ar
  2067 2775 2776 1
  2068 2776 2777 2
  2069 2776 2778 am
  2070 2778 2779 1
  2071 2779 2780 2
  2072 2779 2781 2
  2073 2781 2782 1
  2074 2735 2760 1
  2075 2794 2796 1
  2076 2794 2795 1
  2077 2794 2797 1
  2078 2797 2798 1
  2079 2798 2799 1
  2080 2799 2801 1
  2081 2799 2800 1
  2082 2800 2805 1
  2083 2801 2803 1
  2084 2801 2802 1
  2085 2803 2804 1
  2086 2803 2805 1
  2087 2805 2806 1
  2088 2806 2807 ar
  2089 2806 2815 ar
  2090 2807 2808 ar
  2091 2808 2809 ar
  2092 2809 2815 ar
  2093 2809 2810 ar
  2094 2810 2811 1
  2095 2810 2812 ar
  2096 2812 2813 ar
  2097 2813 2814 ar
  2098 2814 2815 ar
  2099 2768 2794 1
  2100 2827 2828 1
  2101 2827 2829 1
  2102 2827 2830 1
  2103 2830 2831 1
  2104 2831 2832 1
  2105 2832 2834 1
  2106 2832 2833 1
  2107 2833 2838 1
  2108 2834 2836 1
  2109 2834 2835 1
  2110 2836 2838 1
  2111 2836 2837 1
  2112 2838 2839 1
  2113 2839 2849 ar
  2114 2839 2840 ar
  2115 2840 2841 ar
  2116 2841 2842 ar
  2117 2842 2849 ar
  2118 2842 2843 1
  2119 2843 2844 2
  2120 2843 2845 am
  2121 2845 2846 1
  2122 2846 2847 2
  2123 2846 2848 2
  2124 2848 2849 1
  2125 2802 2827 1
  2126 2861 2864 1
  2127 2861 2863 1
  2128 2861 2862 1
  2129 2864 2865 1
  2130 2865 2866 1
  2131 2866 2868 1
  2132 2866 2867 1
  2133 2867 2872 1
  2134 2868 2870 1
  2135 2868 2869 1
  2136 2870 2871 1
  2137 2870 2872 1
  2138 2872 2873 1
  2139 2873 2880 1
  2140 2873 2874 am
  2141 2874 2876 am
  2142 2874 2875 2
  2143 2876 2877 am
  2144 2877 2879 1
  2145 2877 2878 2
  2146 2879 2880 2
  2147 2835 2861 1
  2148 2891 2894 1
  2149 2891 2893 1
  2150 2891 2892 1
  2151 2894 2895 1
  2152 2895 2896 1
  2153 2896 2898 1
  2154 2896 2897 1
  2155 2897 2902 1
  2156 2898 2900 1
  2157 2898 2899 1
  2158 2900 2901 1
  2159 2900 2902 1
  2160 2902 2903 1
  2161 2903 2904 am
  2162 2903 2910 1
  2163 2904 2905 2
  2164 2904 2906 1
  2165 2906 2907 2
  2166 2907 2909 2
  2167 2907 2908 2
  2168 2909 2910 2
  2169 2869 2891 1
  2170 2922 2925 1
  2171 2922 2924 1
  2172 2922 2923 1
  2173 2925 2926 1
  2174 2926 2927 1
  2175 2927 2929 1
  2176 2927 2928 1
  2177 2928 2933 1
  2178 2929 2931 1
  2179 2929 2930 1
  2180 2931 2932 1
  2181 2931 2933 1
  2182 2933 2934 1
  2183 2934 2941 1
  2184 2934 2935 am
  2185 2935 2937 am
  2186 2935 2936 2
  2187 2937 2938 am
  2188 2938 2940 1
  2189 2938 2939 2
  2190 2940 2941 2
  2191 2899 2922 1
  2192 2952 2953 1
  2193 2952 2954 1
  2194 2952 2955 1
  2195 2955 2956 1
  2196 2956 2957 1
  2197 2957 2959 1
  2198 2957 2958 1
  2199 2958 2963 1
  2200 2959 2961 1
  2201 2959 2960 1
  2202 2961 2963 1
  2203 2961 2962 1
  2204 2963 2964 1
  2205 2964 2974 ar
  2206 2964 2965 ar
  2207 2965 2966 ar
  2208 2966 2967 ar
  2209 2967 2974 ar
  2210 2967 2968 1
  2211 2968 2969 2
  2212 2968 2970 am
  2213 2970 2971 1
  2214 2971 2972 2
  2215 2971 2973 2
  2216 2973 2974 1
  2217 2930 2952 1
  2218 2986 2987 1
  2219 2986 2988 1
  2220 2986 2989 1
  2221 2989 2990 1
  2222 2990 2991 1
  2223 2991 2993 1
  2224 2991 2992 1
  2225 2992 2997 1
  2226 2993 2995 1
  2227 2993 2994 1
  2228 2995 2997 1
  2229 2995 2996 1
  2230 2997 2998 1
  2231 2998 3008 ar
  2232 2998 2999 ar
  2233 2999 3000 ar
  2234 3000 3001 ar
  2235 3001 3008 ar
  2236 3001 3002 1
  2237 3002 3003 2
  2238 3002 3004 am
  2239 3004 3005 1
  2240 3005 3006 2
  2241 3005 3007 2
  2242 3007 3008 1
  2243 2960 2986 1
  2244 3020 3022 1
  2245 3020 3021 1
  2246 3020 3023 1
  2247 3023 3024 1
  2248 3024 3025 1
  2249 3025 3027 1
  2250 3025 3026 1
  2251 3026 3031 1
  2252 3027 3029 1
  2253 3027 3028 1
  2254 3029 3030 1
  2255 3029 3031 1
  2256 3031 3032 1
  2257 3032 3033 ar
  2258 3032 3041 ar
  2259 3033 3034 ar
  2260 3034 3035 ar
  2261 3035 3041 ar
  2262 3035 3036 ar
  2263 3036 3037 1
  2264 3036 3038 ar
  2265 3038 3039 ar
  2266 3039 3040 ar
  2267 3040 3041 ar
  2268 2994 3020 1
  2269 3053 3056 1
  2270 3053 3055 1
  2271 3053 3054 1
  2272 3056 3057 1
  2273 3057 3058 1
  2274 3058 3060 1
  2275 3058 3059 1
  2276 3059 3064 1
  2277 3060 3062 1
  2278 3060 3061 1
  2279 3062 3063 1
  2280 3062 3064 1
  2281 3064 3065 1
  2282 3065 3072 1
  2283 3065 3066 am
  2284 3066 3068 am
  2285 3066 3067 2
  2286 3068 3069 am
  2287 3069 3071 1
  2288 3069 3070 2
  2289 3071 3072 2
  2290 3028 3053 1
  2291 3083 3084 1
  2292 3083 3085 1
  2293 3083 3086 1
  2294 3086 3087 1
  2295 3087 3088 1
  2296 3088 3090 1
  2297 3088 3089 1
  2298 3089 3094 1
  2299 3090 3092 1
  2300 3090 3091 1
  2301 3092 3094 1
  2302 3092 3093 1
  2303 3094 3095 1
  2304 3095 3105 ar
  2305 3095 3096 ar
  2306 3096 3097 ar
  2307 3097 3098 ar
  2308 3098 3105 ar
  2309 3098 3099 1
  2310 3099 3100 2
  2311 3099 3101 am
  2312 3101 3102 1
  2313 3102 3103 2
  2314 3102 3104 2
  2315 3104 3105 1
  2316 3061 3083 1
  2317 3117 3119 1
  2318 3117 3118 1
  2319 3117 3120 1
  2320 3120 3121 1
  2321 3121 3122 1
  2322 3122 3124 1
  2323 3122 3123 1
  2324 3123 3128 1
  2325 3124 3126 1
  2326 3124 3125 1
  2327 3126 3127 1
  2328 3126 3128 1
  2329 3128 3129 1
  2330 3129 3130 ar
  2331 3129 3138 ar
  2332 3130 3131 ar
  2333 3131 3132 ar
  2334 3132 3138 ar
  2335 3132 3133 ar
  2336 3133 3134 1
  2337 3133 3135 ar
  2338 3135 3136 ar
  2339 3136 3137 ar
  2340 3137 3138 ar
  2341 3091 3117 1
  2342 3150 3151 1
  2343 3150 3152 1
  2344 3150 3153 1
  2345 3153 3154 1
  2346 3154 3155 1
  2347 3155 3157 1
  2348 3155 3156 1
  2349 3156 3161 1
  2350 3157 3159 1
  2351 3157 3158 1
  2352 3159 3161 1
  2353 3159 3160 1
  2354 3161 3162 1
  2355 3162 3172 ar
  2356 3162 3163 ar
  2357 3163 3164 ar
  2358 3164 3165 ar
  2359 3165 3172 ar
  2360 3165 3166 1
  2361 3166 3167 2
  2362 3166 3168 am
  2363 3168 3169 1
  2364 3169 3170 2
  2365 3169 3171 2
  2366 3171 3172 1
  2367 3125 3150 1
  2368 3184 3186 1
  2369 3184 3185 1
  2370 3184 3187 1
  2371 3187 3188 1
  2372 3188 3189 1
  2373 3189 3191 1
  2374 3189 3190 1
  2375 3190 3195 1
  2376 3191 3193 1
  2377 3191 3192 1
  2378 3193 3194 1
  2379 3193 3195 1
  2380 3195 3196 1
  2381 3196 3197 ar
  2382 3196 3205 ar
  2383 3197 3198 ar
  2384 3198 3199 ar
  2385 3199 3205 ar
  2386 3199 3200 ar
  2387 3200 3201 1
  2388 3200 3202 ar
  2389 3202 3203 ar
  2390 3203 3204 ar
  2391 3204 3205 ar
  2392 3158 3184 1
  2393 3217 3218 1
  2394 3217 3219 1
  2395 3217 3220 1
  2396 3220 3221 1
  2397 3221 3222 1
  2398 3222 3224 1
  2399 3222 3223 1
  2400 3223 3228 1
  2401 3224 3226 1
  2402 3224 3225 1
  2403 3226 3228 1
  2404 3226 3227 1
  2405 3228 3229 1
  2406 3229 3239 ar
  2407 3229 3230 ar
  2408 3230 3231 ar
  2409 3231 3232 ar
  2410 3232 3239 ar
  2411 3232 3233 1
  2412 3233 3234 2
  2413 3233 3235 am
  2414 3235 3236 1
  2415 3236 3237 2
  2416 3236 3238 2
  2417 3238 3239 1
  2418 3192 3217 1
  2419 3251 3253 1
  2420 3251 3252 1
  2421 3251 3254 1
  2422 3254 3255 1
  2423 3255 3256 1
  2424 3256 3258 1
  2425 3256 3257 1
  2426 3257 3262 1
  2427 3258 3260 1
  2428 3258 3259 1
  2429 3260 3261 1
  2430 3260 3262 1
  2431 3262 3263 1
  2432 3263 3264 ar
  2433 3263 3272 ar
  2434 3264 3265 ar
  2435 3265 3266 ar
  2436 3266 3272 ar
  2437 3266 3267 ar
  2438 3267 3268 1
  2439 3267 3269 ar
  2440 3269 3270 ar
  2441 3270 3271 ar
  2442 3271 3272 ar
  2443 3225 3251 1
  2444 3284 3286 1
  2445 3284 3285 1
  2446 3284 3287 1
  2447 3287 3288 1
  2448 3288 3289 1
  2449 3289 3291 1
  2450 3289 3290 1
  2451 3290 3295 1
  2452 3291 3293 1
  2453 3291 3292 1
  2454 3293 3294 1
  2455 3293 3295 1
  2456 3295 3296 1
  2457 3296 3297 ar
  2458 3296 3305 ar
  2459 3297 3298 ar
  2460 3298 3299 ar
  2461 3299 3305 ar
  2462 3299 3300 ar
  2463 3300 3301 1
  2464 3300 3302 ar
  2465 3302 3303 ar
  2466 3303 3304 ar
  2467 3304 3305 ar
  2468 3259 3284 1
  2469 3317 3318 1
  2470 3317 3319 1
  2471 3317 3320 1
  2472 3320 3321 1
  2473 3321 3322 1
  2474 3322 3324 1
  2475 3322 3323 1
  2476 3323 3328 1
  2477 3324 3326 1
  2478 3324 3325 1
  2479 3326 3328 1
  2480 3326 3327 1
  2481 3328 3329 1
  2482 3329 3339 ar
  2483 3329 3330 ar
  2484 3330 3331 ar
  2485 3331 3332 ar
  2486 3332 3339 ar
  2487 3332 3333 1
  2488 3333 3334 2
  2489 3333 3335 am
  2490 3335 3336 1
  2491 3336 3337 2
  2492 3336 3338 2
  2493 3338 3339 1
  2494 3292 3317 1
  2495 3351 3353 1
  2496 3351 3352 1
  2497 3351 3354 1
  2498 3354 3355 1
  2499 3355 3356 1
  2500 3356 3358 1
  2501 3356 3357 1
  2502 3357 3362 1
  2503 3358 3360 1
  2504 3358 3359 1
  2505 3360 3361 1
  2506 3360 3362 1
  2507 3362 3363 1
  2508 3363 3364 ar
  2509 3363 3372 ar
  2510 3364 3365 ar
  2511 3365 3366 ar
  2512 3366 3372 ar
  2513 3366 3367 ar
  2514 3367 3368 1
  2515 3367 3369 ar
  2516 3369 3370 ar
  2517 3370 3371 ar
  2518 3371 3372 ar
  2519 3325 3351 1
  2520 3384 3387 1
  2521 3384 3386 1
  2522 3384 3385 1
  2523 3387 3388 1
  2524 3388 3389 1
  2525 3389 3391 1
  2526 3389 3390 1
  2527 3390 3395 1
  2528 3391 3393 1
  2529 3391 3392 1
  2530 3393 3394 1
  2531 3393 3395 1
  2532 3395 3396 1
  2533 3396 3403 1
  2534 3396 3397 am
  2535 3397 3399 am
  2536 3397 3398 2
  2537 3399 3400 am
  2538 3400 3402 1
  2539 3400 3401 2
  2540 3402 3403 2
  2541 3359 3384 1
  2542 3414 3417 1
  2543 3414 3416 1
  2544 3414 3415 1
  2545 3417 3418 1
  2546 3418 3419 1
  2547 3419 3421 1
  2548 3419 3420 1
  2549 3420 3425 1
  2550 3421 3423 1
  2551 3421 3422 1
  2552 3423 3424 1
  2553 3423 3425 1
  2554 3425 3426 1
  2555 3426 3433 1
  2556 3426 3427 am
  2557 3427 3429 am
  2558 3427 3428 2
  2559 3429 3430 am
  2560 3430 3432 1
  2561 3430 3431 2
  2562 3432 3433 2
  2563 3392 3414 1
  2564 3444 3447 1
  2565 3444 3446 1
  2566 3444 3445 1
  2567 3447 3448 1
  2568 3448 3449 1
  2569 3449 3451 1
  2570 3449 3450 1
  2571 3450 3455 1
  2572 3451 3453 1
  2573 3451 3452 1
  2574 3453 3454 1
  2575 3453 3455 1
  2576 3455 3456 1
  2577 3456 3457 am
  2578 3456 3463 1
  2579 3457 3458 2
  2580 3457 3459 1
  2581 3459 3460 2
  2582 3460 3462 2
  2583 3460 3461 2
  2584 3462 3463 2
  2585 3422 3444 1
  2586 3478 3479 1
  2587 3479 3480 1
  2588 3480 3482 1
  2589 3480 3481 1
  2590 3481 3486 1
  2591 3482 3484 1
  2592 3482 3483 1
  2593 3484 3486 1
  2594 3484 3485 1
  2595 3486 3487 1
  2596 3487 3497 ar
  2597 3487 3488 ar
  2598 3488 3489 ar
  2599 3489 3490 ar
  2600 3490 3497 ar
  2601 3490 3491 1
  2602 3491 3492 2
  2603 3491 3493 am
  2604 3493 3494 1
  2605 3494 3496 2
  2606 3494 3495 2
  2607 3496 3497 1
  2608 3475 3476 1
  2609 3475 3477 1
  2610 3475 3478 1
  2611 3452 3475 1
  2612   21    2 1
  2613   22    2 1
  2614   23    3 1
  2615   24    5 1
  2616   25    7 1
  2617   26    9 1
  2618   27   11 1
  2619   28   16 1
  2620   55   37 1
  2621   56   37 1
  2622   57   38 1
  2623   58   40 1
  2624   59   42 1
  2625   60   44 1
  2626   61   46 1
  2627   62   52 1
  2628   86   70 1
  2629   87   70 1
  2630   88   71 1
  2631   89   73 1
  2632   90   75 1
  2633   91   77 1
  2634   92   81 1
  2635   93   84 1
  2636   94   85 1
  2637  116  100 1
  2638  117  100 1
  2639  118  101 1
  2640  119  103 1
  2641  120  105 1
  2642  121  107 1
  2643  122  114 1
  2644  123  115 1
  2645  147  131 1
  2646  148  131 1
  2647  149  132 1
  2648  150  134 1
  2649  151  136 1
  2650  152  138 1
  2651  153  142 1
  2652  154  145 1
  2653  155  146 1
  2654  177  161 1
  2655  178  161 1
  2656  179  162 1
  2657  180  164 1
  2658  181  166 1
  2659  182  168 1
  2660  183  172 1
  2661  184  175 1
  2662  185  176 1
  2663  207  191 1
  2664  208  191 1
  2665  209  192 1
  2666  210  194 1
  2667  211  196 1
  2668  212  198 1
  2669  213  205 1
  2670  214  206 1
  2671  241  222 1
  2672  242  222 1
  2673  243  223 1
  2674  244  225 1
  2675  245  227 1
  2676  246  229 1
  2677  247  231 1
  2678  248  236 1
  2679  275  256 1
  2680  276  256 1
  2681  277  257 1
  2682  278  259 1
  2683  279  261 1
  2684  280  263 1
  2685  281  265 1
  2686  282  270 1
  2687  309  290 1
  2688  310  290 1
  2689  311  291 1
  2690  312  293 1
  2691  313  295 1
  2692  314  297 1
  2693  315  299 1
  2694  316  304 1
  2695  343  324 1
  2696  344  324 1
  2697  345  325 1
  2698  346  327 1
  2699  347  329 1
  2700  348  331 1
  2701  349  333 1
  2702  350  338 1
  2703  374  358 1
  2704  375  358 1
  2705  376  359 1
  2706  377  361 1
  2707  378  363 1
  2708  379  365 1
  2709  380  372 1
  2710  381  373 1
  2711  407  389 1
  2712  408  389 1
  2713  409  390 1
  2714  410  392 1
  2715  411  394 1
  2716  412  396 1
  2717  413  398 1
  2718  414  404 1
  2719  441  422 1
  2720  442  422 1
  2721  443  423 1
  2722  444  425 1
  2723  445  427 1
  2724  446  429 1
  2725  447  431 1
  2726  448  436 1
  2727  475  456 1
  2728  476  456 1
  2729  477  457 1
  2730  478  459 1
  2731  479  461 1
  2732  480  463 1
  2733  481  465 1
  2734  482  470 1
  2735  509  490 1
  2736  510  490 1
  2737  511  491 1
  2738  512  493 1
  2739  513  495 1
  2740  514  497 1
  2741  515  499 1
  2742  516  504 1
  2743  540  524 1
  2744  541  524 1
  2745  542  525 1
  2746  543  527 1
  2747  544  529 1
  2748  545  531 1
  2749  546  535 1
  2750  547  538 1
  2751  548  539 1
  2752  573  554 1
  2753  574  554 1
  2754  575  555 1
  2755  576  557 1
  2756  577  559 1
  2757  578  561 1
  2758  579  563 1
  2759  580  568 1
  2760  606  588 1
  2761  607  588 1
  2762  608  589 1
  2763  609  591 1
  2764  610  593 1
  2765  611  595 1
  2766  612  597 1
  2767  613  603 1
  2768  639  621 1
  2769  640  621 1
  2770  641  622 1
  2771  642  624 1
  2772  643  626 1
  2773  644  628 1
  2774  645  630 1
  2775  646  636 1
  2776  672  654 1
  2777  673  654 1
  2778  674  655 1
  2779  675  657 1
  2780  676  659 1
  2781  677  661 1
  2782  678  663 1
  2783  679  669 1
  2784  703  687 1
  2785  704  687 1
  2786  705  688 1
  2787  706  690 1
  2788  707  692 1
  2789  708  694 1
  2790  709  698 1
  2791  710  701 1
  2792  711  702 1
  2793  733  717 1
  2794  734  717 1
  2795  735  718 1
  2796  736  720 1
  2797  737  722 1
  2798  738  724 1
  2799  739  728 1
  2800  740  731 1
  2801  741  732 1
  2802  763  747 1
  2803  764  747 1
  2804  765  748 1
  2805  766  750 1
  2806  767  752 1
  2807  768  754 1
  2808  769  761 1
  2809  770  762 1
  2810  794  778 1
  2811  795  778 1
  2812  796  779 1
  2813  797  781 1
  2814  798  783 1
  2815  799  785 1
  2816  800  792 1
  2817  801  793 1
  2818  825  809 1
  2819  826  809 1
  2820  827  810 1
  2821  828  812 1
  2822  829  814 1
  2823  830  816 1
  2824  831  823 1
  2825  832  824 1
  2826  859  840 1
  2827  860  840 1
  2828  861  841 1
  2829  862  843 1
  2830  863  845 1
  2831  864  847 1
  2832  865  849 1
  2833  866  854 1
  2834  892  874 1
  2835  893  874 1
  2836  894  875 1
  2837  895  877 1
  2838  896  879 1
  2839  897  881 1
  2840  898  883 1
  2841  899  889 1
  2842  923  907 1
  2843  924  907 1
  2844  925  908 1
  2845  926  910 1
  2846  927  912 1
  2847  928  914 1
  2848  929  921 1
  2849  930  922 1
  2850  954  938 1
  2851  955  938 1
  2852  956  939 1
  2853  957  941 1
  2854  958  943 1
  2855  959  945 1
  2856  960  952 1
  2857  961  953 1
  2858  988  969 1
  2859  989  969 1
  2860  990  970 1
  2861  991  972 1
  2862  992  974 1
  2863  993  976 1
  2864  994  978 1
  2865  995  983 1
  2866 1022 1003 1
  2867 1023 1003 1
  2868 1024 1004 1
  2869 1025 1006 1
  2870 1026 1008 1
  2871 1027 1010 1
  2872 1028 1012 1
  2873 1029 1017 1
  2874 1053 1037 1
  2875 1054 1037 1
  2876 1055 1038 1
  2877 1056 1040 1
  2878 1057 1042 1
  2879 1058 1044 1
  2880 1059 1048 1
  2881 1060 1051 1
  2882 1061 1052 1
  2883 1086 1067 1
  2884 1087 1067 1
  2885 1088 1068 1
  2886 1089 1070 1
  2887 1090 1072 1
  2888 1091 1074 1
  2889 1092 1076 1
  2890 1093 1081 1
  2891 1120 1101 1
  2892 1121 1101 1
  2893 1122 1102 1
  2894 1123 1104 1
  2895 1124 1106 1
  2896 1125 1108 1
  2897 1126 1110 1
  2898 1127 1115 1
  2899 1151 1135 1
  2900 1152 1135 1
  2901 1153 1136 1
  2902 1154 1138 1
  2903 1155 1140 1
  2904 1156 1142 1
  2905 1157 1146 1
  2906 1158 1149 1
  2907 1159 1150 1
  2908 1183 1165 1
  2909 1184 1165 1
  2910 1185 1166 1
  2911 1186 1168 1
  2912 1187 1170 1
  2913 1188 1172 1
  2914 1189 1174 1
  2915 1190 1180 1
  2916 1214 1198 1
  2917 1215 1198 1
  2918 1216 1199 1
  2919 1217 1201 1
  2920 1218 1203 1
  2921 1219 1205 1
  2922 1220 1209 1
  2923 1221 1212 1
  2924 1222 1213 1
  2925 1246 1228 1
  2926 1247 1228 1
  2927 1248 1229 1
  2928 1249 1231 1
  2929 1250 1233 1
  2930 1251 1235 1
  2931 1252 1237 1
  2932 1253 1243 1
  2933 1280 1261 1
  2934 1281 1261 1
  2935 1282 1262 1
  2936 1283 1264 1
  2937 1284 1266 1
  2938 1285 1268 1
  2939 1286 1270 1
  2940 1287 1275 1
  2941 1311 1295 1
  2942 1312 1295 1
  2943 1313 1296 1
  2944 1314 1298 1
  2945 1315 1300 1
  2946 1316 1302 1
  2947 1317 1306 1
  2948 1318 1309 1
  2949 1319 1310 1
  2950 1341 1325 1
  2951 1342 1325 1
  2952 1343 1326 1
  2953 1344 1328 1
  2954 1345 1330 1
  2955 1346 1332 1
  2956 1347 1339 1
  2957 1348 1340 1
  2958 1372 1356 1
  2959 1373 1356 1
  2960 1374 1357 1
  2961 1375 1359 1
  2962 1376 1361 1
  2963 1377 1363 1
  2964 1378 1370 1
  2965 1379 1371 1
  2966 1405 1387 1
  2967 1406 1387 1
  2968 1407 1388 1
  2969 1408 1390 1
  2970 1409 1392 1
  2971 1410 1394 1
  2972 1411 1396 1
  2973 1412 1402 1
  2974 1436 1420 1
  2975 1437 1420 1
  2976 1438 1421 1
  2977 1439 1423 1
  2978 1440 1425 1
  2979 1441 1427 1
  2980 1442 1434 1
  2981 1443 1435 1
  2982 1470 1451 1
  2983 1471 1451 1
  2984 1472 1452 1
  2985 1473 1454 1
  2986 1474 1456 1
  2987 1475 1458 1
  2988 1476 1460 1
  2989 1477 1465 1
  2990 1503 1485 1
  2991 1504 1485 1
  2992 1505 1486 1
  2993 1506 1488 1
  2994 1507 1490 1
  2995 1508 1492 1
  2996 1509 1494 1
  2997 1510 1500 1
  2998 1536 1518 1
  2999 1537 1518 1
  3000 1538 1519 1
  3001 1539 1521 1
  3002 1540 1523 1
  3003 1541 1525 1
  3004 1542 1527 1
  3005 1543 1533 1
  3006 1567 1551 1
  3007 1568 1551 1
  3008 1569 1552 1
  3009 1570 1554 1
  3010 1571 1556 1
  3011 1572 1558 1
  3012 1573 1562 1
  3013 1574 1565 1
  3014 1575 1566 1
  3015 1597 1581 1
  3016 1598 1581 1
  3017 1599 1582 1
  3018 1600 1584 1
  3019 1601 1586 1
  3020 1602 1588 1
  3021 1603 1595 1
  3022 1604 1596 1
  3023 1628 1612 1
  3024 1629 1612 1
  3025 1630 1613 1
  3026 1631 1615 1
  3027 1632 1617 1
  3028 1633 1619 1
  3029 1634 1626 1
  3030 1635 1627 1
  3031 1661 1643 1
  3032 1662 1643 1
  3033 1663 1644 1
  3034 1664 1646 1
  3035 1665 1648 1
  3036 1666 1650 1
  3037 1667 1652 1
  3038 1668 1658 1
  3039 1692 1676 1
  3040 1693 1676 1
  3041 1694 1677 1
  3042 1695 1679 1
  3043 1696 1681 1
  3044 1697 1683 1
  3045 1698 1687 1
  3046 1699 1690 1
  3047 1700 1691 1
  3048 1723 1704 1
  3049 1724 1704 1
  3050 1725 1705 1
  3051 1726 1707 1
  3052 1727 1709 1
  3053 1728 1711 1
  3054 1729 1713 1
  3055 1730 1718 1
  3056 1757 1739 1
  3057 1758 1739 1
  3058 1759 1740 1
  3059 1760 1742 1
  3060 1761 1744 1
  3061 1762 1746 1
  3062 1763 1748 1
  3063 1764 1754 1
  3064 1788 1772 1
  3065 1789 1772 1
  3066 1790 1773 1
  3067 1791 1775 1
  3068 1792 1777 1
  3069 1793 1779 1
  3070 1794 1783 1
  3071 1795 1786 1
  3072 1796 1787 1
  3073 1818 1802 1
  3074 1819 1802 1
  3075 1820 1803 1
  3076 1821 1805 1
  3077 1822 1807 1
  3078 1823 1809 1
  3079 1824 1813 1
  3080 1825 1816 1
  3081 1826 1817 1
  3082 1851 1832 1
  3083 1852 1832 1
  3084 1853 1833 1
  3085 1854 1835 1
  3086 1855 1837 1
  3087 1856 1839 1
  3088 1857 1841 1
  3089 1858 1846 1
  3090 1884 1866 1
  3091 1885 1866 1
  3092 1886 1867 1
  3093 1887 1869 1
  3094 1888 1871 1
  3095 1889 1873 1
  3096 1890 1875 1
  3097 1891 1881 1
  3098 1915 1899 1
  3099 1916 1899 1
  3100 1917 1900 1
  3101 1918 1902 1
  3102 1919 1904 1
  3103 1920 1906 1
  3104 1921 1910 1
  3105 1922 1913 1
  3106 1923 1914 1
  3107 1945 1929 1
  3108 1946 1929 1
  3109 1947 1930 1
  3110 1948 1932 1
  3111 1949 1934 1
  3112 1950 1936 1
  3113 1951 1940 1
  3114 1952 1943 1
  3115 1953 1944 1
  3116 1975 1959 1
  3117 1976 1959 1
  3118 1977 1960 1
  3119 1978 1962 1
  3120 1979 1964 1
  3121 1980 1966 1
  3122 1981 1970 1
  3123 1982 1973 1
  3124 1983 1974 1
  3125 2008 1989 1
  3126 2009 1989 1
  3127 2010 1990 1
  3128 2011 1992 1
  3129 2012 1994 1
  3130 2013 1996 1
  3131 2014 1998 1
  3132 2015 2003 1
  3133 2042 2023 1
  3134 2043 2023 1
  3135 2044 2024 1
  3136 2045 2026 1
  3137 2046 2028 1
  3138 2047 2030 1
  3139 2048 2032 1
  3140 2049 2037 1
  3141 2073 2057 1
  3142 2074 2057 1
  3143 2075 2058 1
  3144 2076 2060 1
  3145 2077 2062 1
  3146 2078 2064 1
  3147 2079 2068 1
  3148 2080 2071 1
  3149 2081 2072 1
  3150 2106 2087 1
  3151 2107 2087 1
  3152 2108 2088 1
  3153 2109 2090 1
  3154 2110 2092 1
  3155 2111 2094 1
  3156 2112 2096 1
  3157 2113 2101 1
  3158 2139 2121 1
  3159 2140 2121 1
  3160 2141 2122 1
  3161 2142 2124 1
  3162 2143 2126 1
  3163 2144 2128 1
  3164 2145 2130 1
  3165 2146 2136 1
  3166 2172 2154 1
  3167 2173 2154 1
  3168 2174 2155 1
  3169 2175 2157 1
  3170 2176 2159 1
  3171 2177 2161 1
  3172 2178 2163 1
  3173 2179 2169 1
  3174 2205 2187 1
  3175 2206 2187 1
  3176 2207 2188 1
  3177 2208 2190 1
  3178 2209 2192 1
  3179 2210 2194 1
  3180 2211 2196 1
  3181 2212 2202 1
  3182 2236 2220 1
  3183 2237 2220 1
  3184 2238 2221 1
  3185 2239 2223 1
  3186 2240 2225 1
  3187 2241 2227 1
  3188 2242 2231 1
  3189 2243 2234 1
  3190 2244 2235 1
  3191 2266 2250 1
  3192 2267 2250 1
  3193 2268 2251 1
  3194 2269 2253 1
  3195 2270 2255 1
  3196 2271 2257 1
  3197 2272 2261 1
  3198 2273 2264 1
  3199 2274 2265 1
  3200 2296 2280 1
  3201 2297 2280 1
  3202 2298 2281 1
  3203 2299 2283 1
  3204 2300 2285 1
  3205 2301 2287 1
  3206 2302 2294 1
  3207 2303 2295 1
  3208 2327 2311 1
  3209 2328 2311 1
  3210 2329 2312 1
  3211 2330 2314 1
  3212 2331 2316 1
  3213 2332 2318 1
  3214 2333 2325 1
  3215 2334 2326 1
  3216 2360 2342 1
  3217 2361 2342 1
  3218 2362 2343 1
  3219 2363 2345 1
  3220 2364 2347 1
  3221 2365 2349 1
  3222 2366 2351 1
  3223 2367 2357 1
  3224 2393 2375 1
  3225 2394 2375 1
  3226 2395 2376 1
  3227 2396 2378 1
  3228 2397 2380 1
  3229 2398 2382 1
  3230 2399 2384 1
  3231 2400 2390 1
  3232 2426 2408 1
  3233 2427 2408 1
  3234 2428 2409 1
  3235 2429 2411 1
  3236 2430 2413 1
  3237 2431 2415 1
  3238 2432 2417 1
  3239 2433 2423 1
  3240 2459 2441 1
  3241 2460 2441 1
  3242 2461 2442 1
  3243 2462 2444 1
  3244 2463 2446 1
  3245 2464 2448 1
  3246 2465 2450 1
  3247 2466 2456 1
  3248 2490 2474 1
  3249 2491 2474 1
  3250 2492 2475 1
  3251 2493 2477 1
  3252 2494 2479 1
  3253 2495 2481 1
  3254 2496 2488 1
  3255 2497 2489 1
  3256 2521 2505 1
  3257 2522 2505 1
  3258 2523 2506 1
  3259 2524 2508 1
  3260 2525 2510 1
  3261 2526 2512 1
  3262 2527 2519 1
  3263 2528 2520 1
  3264 2555 2536 1
  3265 2556 2536 1
  3266 2557 2537 1
  3267 2558 2539 1
  3268 2559 2541 1
  3269 2560 2543 1
  3270 2561 2545 1
  3271 2562 2550 1
  3272 2588 2570 1
  3273 2589 2570 1
  3274 2590 2571 1
  3275 2591 2573 1
  3276 2592 2575 1
  3277 2593 2577 1
  3278 2594 2579 1
  3279 2595 2585 1
  3280 2619 2603 1
  3281 2620 2603 1
  3282 2621 2604 1
  3283 2622 2606 1
  3284 2623 2608 1
  3285 2624 2610 1
  3286 2625 2617 1
  3287 2626 2618 1
  3288 2652 2634 1
  3289 2653 2634 1
  3290 2654 2635 1
  3291 2655 2637 1
  3292 2656 2639 1
  3293 2657 2641 1
  3294 2658 2643 1
  3295 2659 2649 1
  3296 2686 2667 1
  3297 2687 2667 1
  3298 2688 2668 1
  3299 2689 2670 1
  3300 2690 2672 1
  3301 2691 2674 1
  3302 2692 2676 1
  3303 2693 2681 1
  3304 2717 2701 1
  3305 2718 2701 1
  3306 2719 2702 1
  3307 2720 2704 1
  3308 2721 2706 1
  3309 2722 2708 1
  3310 2723 2712 1
  3311 2724 2715 1
  3312 2725 2716 1
  3313 2749 2731 1
  3314 2750 2731 1
  3315 2751 2732 1
  3316 2752 2734 1
  3317 2753 2736 1
  3318 2754 2738 1
  3319 2755 2740 1
  3320 2756 2746 1
  3321 2783 2764 1
  3322 2784 2764 1
  3323 2785 2765 1
  3324 2786 2767 1
  3325 2787 2769 1
  3326 2788 2771 1
  3327 2789 2773 1
  3328 2790 2778 1
  3329 2816 2798 1
  3330 2817 2798 1
  3331 2818 2799 1
  3332 2819 2801 1
  3333 2820 2803 1
  3334 2821 2805 1
  3335 2822 2807 1
  3336 2823 2813 1
  3337 2850 2831 1
  3338 2851 2831 1
  3339 2852 2832 1
  3340 2853 2834 1
  3341 2854 2836 1
  3342 2855 2838 1
  3343 2856 2840 1
  3344 2857 2845 1
  3345 2881 2865 1
  3346 2882 2865 1
  3347 2883 2866 1
  3348 2884 2868 1
  3349 2885 2870 1
  3350 2886 2872 1
  3351 2887 2876 1
  3352 2888 2879 1
  3353 2889 2880 1
  3354 2911 2895 1
  3355 2912 2895 1
  3356 2913 2896 1
  3357 2914 2898 1
  3358 2915 2900 1
  3359 2916 2902 1
  3360 2917 2909 1
  3361 2918 2910 1
  3362 2942 2926 1
  3363 2943 2926 1
  3364 2944 2927 1
  3365 2945 2929 1
  3366 2946 2931 1
  3367 2947 2933 1
  3368 2948 2937 1
  3369 2949 2940 1
  3370 2950 2941 1
  3371 2975 2956 1
  3372 2976 2956 1
  3373 2977 2957 1
  3374 2978 2959 1
  3375 2979 2961 1
  3376 2980 2963 1
  3377 2981 2965 1
  3378 2982 2970 1
  3379 3009 2990 1
  3380 3010 2990 1
  3381 3011 2991 1
  3382 3012 2993 1
  3383 3013 2995 1
  3384 3014 2997 1
  3385 3015 2999 1
  3386 3016 3004 1
  3387 3042 3024 1
  3388 3043 3024 1
  3389 3044 3025 1
  3390 3045 3027 1
  3391 3046 3029 1
  3392 3047 3031 1
  3393 3048 3033 1
  3394 3049 3039 1
  3395 3073 3057 1
  3396 3074 3057 1
  3397 3075 3058 1
  3398 3076 3060 1
  3399 3077 3062 1
  3400 3078 3064 1
  3401 3079 3068 1
  3402 3080 3071 1
  3403 3081 3072 1
  3404 3106 3087 1
  3405 3107 3087 1
  3406 3108 3088 1
  3407 3109 3090 1
  3408 3110 3092 1
  3409 3111 3094 1
  3410 3112 3096 1
  3411 3113 3101 1
  3412 3139 3121 1
  3413 3140 3121 1
  3414 3141 3122 1
  3415 3142 3124 1
  3416 3143 3126 1
  3417 3144 3128 1
  3418 3145 3130 1
  3419 3146 3136 1
  3420 3173 3154 1
  3421 3174 3154 1
  3422 3175 3155 1
  3423 3176 3157 1
  3424 3177 3159 1
  3425 3178 3161 1
  3426 3179 3163 1
  3427 3180 3168 1
  3428 3206 3188 1
  3429 3207 3188 1
  3430 3208 3189 1
  3431 3209 3191 1
  3432 3210 3193 1
  3433 3211 3195 1
  3434 3212 3197 1
  3435 3213 3203 1
  3436 3240 3221 1
  3437 3241 3221 1
  3438 3242 3222 1
  3439 3243 3224 1
  3440 3244 3226 1
  3441 3245 3228 1
  3442 3246 3230 1
  3443 3247 3235 1
  3444 3273 3255 1
  3445 3274 3255 1
  3446 3275 3256 1
  3447 3276 3258 1
  3448 3277 3260 1
  3449 3278 3262 1
  3450 3279 3264 1
  3451 3280 3270 1
  3452 3306 3288 1
  3453 3307 3288 1
  3454 3308 3289 1
  3455 3309 3291 1
  3456 3310 3293 1
  3457 3311 3295 1
  3458 3312 3297 1
  3459 3313 3303 1
  3460 3340 3321 1
  3461 3341 3321 1
  3462 3342 3322 1
  3463 3343 3324 1
  3464 3344 3326 1
  3465 3345 3328 1
  3466 3346 3330 1
  3467 3347 3335 1
  3468 3373 3355 1
  3469 3374 3355 1
  3470 3375 3356 1
  3471 3376 3358 1
  3472 3377 3360 1
  3473 3378 3362 1
  3474 3379 3364 1
  3475 3380 3370 1
  3476 3404 3388 1
  3477 3405 3388 1
  3478 3406 3389 1
  3479 3407 3391 1
  3480 3408 3393 1
  3481 3409 3395 1
  3482 3410 3399 1
  3483 3411 3402 1
  3484 3412 3403 1
  3485 3434 3418 1
  3486 3435 3418 1
  3487 3436 3419 1
  3488 3437 3421 1
  3489 3438 3423 1
  3490 3439 3425 1
  3491 3440 3429 1
  3492 3441 3432 1
  3493 3442 3433 1
  3494 3464 3448 1
  3495 3465 3448 1
  3496 3466 3449 1
  3497 3467 3451 1
  3498 3468 3453 1
  3499 3469 3455 1
  3500 3470 3462 1
  3501 3471 3463 1
  3502 3498 3479 1
  3503 3499 3479 1
  3504 3500 3480 1
  3505 3501 3482 1
  3506 3502 3484 1
  3507 3503 3486 1
  3508 3504 3488 1
  3509 3505 3493 1
  3510   29   18 1
  3511   30   18 1
  3512  124  113 1
  3513  125  113 1
  3514  215  204 1
  3515  216  204 1
  3516  249  238 1
  3517  250  238 1
  3518  283  272 1
  3519  284  272 1
  3520  317  306 1
  3521  318  306 1
  3522  351  340 1
  3523  352  340 1
  3524  382  371 1
  3525  383  371 1
  3526  449  438 1
  3527  450  438 1
  3528  483  472 1
  3529  484  472 1
  3530  517  506 1
  3531  518  506 1
  3532  581  570 1
  3533  582  570 1
  3534  771  760 1
  3535  772  760 1
  3536  802  791 1
  3537  803  791 1
  3538  833  822 1
  3539  834  822 1
  3540  867  856 1
  3541  868  856 1
  3542  931  920 1
  3543  932  920 1
  3544  962  951 1
  3545  963  951 1
  3546  996  985 1
  3547  997  985 1
  3548 1030 1019 1
  3549 1031 1019 1
  3550 1094 1083 1
  3551 1095 1083 1
  3552 1128 1117 1
  3553 1129 1117 1
  3554 1288 1277 1
  3555 1289 1277 1
  3556 1349 1338 1
  3557 1350 1338 1
  3558 1380 1369 1
  3559 1381 1369 1
  3560 1444 1433 1
  3561 1445 1433 1
  3562 1478 1467 1
  3563 1479 1467 1
  3564 1605 1594 1
  3565 1606 1594 1
  3566 1636 1625 1
  3567 1637 1625 1
  3568 1731 1720 1
  3569 1732 1720 1
  3570 1859 1848 1
  3571 1860 1848 1
  3572 2016 2005 1
  3573 2017 2005 1
  3574 2050 2039 1
  3575 2051 2039 1
  3576 2114 2103 1
  3577 2115 2103 1
  3578 2304 2293 1
  3579 2305 2293 1
  3580 2335 2324 1
  3581 2336 2324 1
  3582 2498 2487 1
  3583 2499 2487 1
  3584 2529 2518 1
  3585 2530 2518 1
  3586 2563 2552 1
  3587 2564 2552 1
  3588 2627 2616 1
  3589 2628 2616 1
  3590 2694 2683 1
  3591 2695 2683 1
  3592 2791 2780 1
  3593 2792 2780 1
  3594 2858 2847 1
  3595 2859 2847 1
  3596 2919 2908 1
  3597 2920 2908 1
  3598 2983 2972 1
  3599 2984 2972 1
  3600 3017 3006 1
  3601 3018 3006 1
  3602 3114 3103 1
  3603 3115 3103 1
  3604 3181 3170 1
  3605 3182 3170 1
  3606 3248 3237 1
  3607 3249 3237 1
  3608 3348 3337 1
  3609 3349 3337 1
  3610 3472 3461 1
  3611 3473 3461 1
  3612 3506 3495 1
  3613 3507 3495 1
  3614 3050 3030 1
  3615 2213 2193 1
  3616 1290 1267 1
  3617  964  944 1
  3618  583  560 1
  3619 2824 2804 1
  3620  353  330 1
  3621  933  913 1
  3622 2531 2511 1
  3623 1861 1838 1
  3624 1254 1234 1
  3625 1032 1009 1
  3626 3183 3160 1
  3627 1480 1457 1
  3628 2116 2093 1
  3629 1892 1872 1
  3630 2500 2480 1
  3631  319  296 1
  3632  835  815 1
  3633 2401 2381 1
  3634  900  880 1
  3635  126  106 1
  3636 3413 3394 1
  3637 3350 3327 1
  3638 1544 1524 1
  3639 1924 1905 1
  3640  680  660 1
  3641 2726 2707 1
  3642 2985 2962 1
  3643   63   43 1
  3644 1765 1745 1
  3645 1446 1426 1
  3646 3214 3194 1
  3647 1638 1618 1
  3648 3116 3093 1
  3649  285  262 1
  3650 2147 2127 1
  3651  156  137 1
  3652  998  975 1
  3653 3474 3454 1
  3654 1984 1965 1
  3655 2696 2673 1
  3656 3281 3261 1
  3657 1160 1141 1
  3658 2793 2770 1
  3659 3250 3227 1
  3660 2275 2256 1
  3661 1669 1656 1
  3662 1670 1656 1
  3663  681  667 1
  3664  682  667 1
  3665 2660 2647 1
  3666 2661 2647 1
  3667   64   50 1
  3668   65   50 1
  3669 2434 2421 1
  3670 2435 2421 1
  3671  614  601 1
  3672  615  601 1
  3673 2214 2200 1
  3674 2215 2200 1
  3675 2368 2355 1
  3676 2369 2355 1
  3677 2596 2583 1
  3678 2597 2583 1
  3679 1766 1752 1
  3680 1767 1752 1
  3681 2757 2744 1
  3682 2758 2744 1
  3683 3282 3268 1
  3684 3283 3268 1
  3685 2148 2134 1
  3686 2149 2134 1
  3687 1545 1531 1
  3688 1546 1531 1
  3689 3215 3201 1
  3690 3216 3201 1
  3691 3314 3301 1
  3692 3315 3301 1
  3693  415  402 1
  3694  416  402 1
  3695 3147 3134 1
  3696 3148 3134 1
  3697 3051 3037 1
  3698 3052 3037 1
  3699 2467 2454 1
  3700 2468 2454 1
  3701 1255 1241 1
  3702 1256 1241 1
  3703  647  634 1
  3704  648  634 1
  3705 3381 3368 1
  3706 3382 3368 1
  3707 2825 2811 1
  3708 2826 2811 1
  3709 1413 1400 1
  3710 1414 1400 1
  3711 2402 2388 1
  3712 2403 2388 1
  3713 1191 1178 1
  3714 1192 1178 1
  3715 2180 2167 1
  3716 2181 2167 1
  3717  901  887 1
  3718  902  887 1
  3719 1511 1498 1
  3720 1512 1498 1
  3721 1893 1879 1
  3722 1894 1879 1
  3723 1223 1204 1
  3724  384  364 1
  3725  251  228 1
  3726  869  846 1
  3727 1062 1043 1
  3728  742  723 1
  3729  186  167 1
  3730 2598 2576 1
  3731  773  753 1
  3732 2759 2737 1
  3733  616  594 1
  3734  485  462 1
  3735 1701 1682 1
  3736 2306 2286 1
  3737  519  496 1
  3738 1320 1301 1
  3739 2018 1995 1
  3740 3383 3361 1
  3741  804  784 1
  3742 2629 2609 1
  3743   95   76 1
  3744 1576 1557 1
  3745 1733 1710 1
  3746 2337 2317 1
  3747 1130 1107 1
  3748  217  197 1
  3749 2951 2932 1
  3750 2052 2029 1
  3751 2662 2640 1
  3752 1607 1587 1
  3753  549  530 1
  3754  712  693 1
  3755  417  395 1
  3756 3149 3127 1
  3757 2860 2837 1
  3758 1797 1778 1
  3759 1193 1171 1
  3760 1702 1680 1
  3761 1954 1935 1
  3762 1351 1331 1
  3763  451  428 1
  3764 1382 1362 1
  3765 2565 2542 1
  3766 1671 1649 1
  3767 1096 1073 1
  3768 2436 2414 1
  3769 2890 2871 1
  3770 3508 3483 1
  3771 3509 3485 1
  3772 2921 2901 1
  3773 2469 2447 1
  3774 1415 1393 1
  3775 2370 2348 1
  3776  649  627 1
  3777 2082 2063 1
  3778   31    8 1
  3779 3082 3063 1
  3780 2245 2226 1
  3781 3316 3294 1
  3782 3019 2996 1
  3783 1513 1491 1
  3784 1827 1808 1
  3785 3443 3424 1
  3786 2182 2160 1
  3787   32    1 1
  3788 1734 1703 1
@<TRIPOS>SUBSTRUCTURE
     1   G2        3 RESIDUE           4 X       G     1 ROOT
     2   A3       38 RESIDUE           4 X       A     2
     3   U4       71 RESIDUE           4 X       U     2
     4   C5      101 RESIDUE           4 X       C     2
     5   U6      132 RESIDUE           4 X       U     2
     6   U7      162 RESIDUE           4 X       U     2
     7   C8      192 RESIDUE           4 X       C     2
     8   G9      223 RESIDUE           4 X       G     2
     9   G10     257 RESIDUE           4 X       G     2
    10   G11     291 RESIDUE           4 X       G     2
    11   G12     325 RESIDUE           4 X       G     2
    12   C13     359 RESIDUE           4 X       C     2
    13   A14     390 RESIDUE           4 X       A     2
    14   G15     423 RESIDUE           4 X       G     2
    15   G16     457 RESIDUE           4 X       G     2
    16   G17     491 RESIDUE           4 X       G     2
    17   U18     525 RESIDUE           4 X       U     2
    18   G19     555 RESIDUE           4 X       G     2
    19   A20     589 RESIDUE           4 X       A     2
    20   A21     622 RESIDUE           4 X       A     2
    21   A22     655 RESIDUE           4 X       A     2
    22   U23     688 RESIDUE           4 X       U     2
    23   U24     718 RESIDUE           4 X       U     2
    24   C25     748 RESIDUE           4 X       C     2
    25   C26     779 RESIDUE           4 X       C     2
    26   C27     810 RESIDUE           4 X       C     2
    27   G28     841 RESIDUE           4 X       G     2
    28   A29     875 RESIDUE           4 X       A     2
    29   C30     908 RESIDUE           4 X       C     2
    30   C31     939 RESIDUE           4 X       C     2
    31   G32     970 RESIDUE           4 X       G     2
    32   G33    1004 RESIDUE           4 X       G     2
    33   U34    1038 RESIDUE           4 X       U     2
    34   G35    1068 RESIDUE           4 X       G     2
    35   G36    1102 RESIDUE           4 X       G     2
    36   U37    1136 RESIDUE           4 X       U     2
    37   A38    1166 RESIDUE           4 X       A     2
    38   U39    1199 RESIDUE           4 X       U     2
    39   A40    1229 RESIDUE           4 X       A     2
    40   G41    1262 RESIDUE           4 X       G     2
    41   U42    1296 RESIDUE           4 X       U     2
    42   C43    1326 RESIDUE           4 X       C     2
    43   C44    1357 RESIDUE           4 X       C     2
    44   A45    1388 RESIDUE           4 X       A     2
    45   C46    1421 RESIDUE           4 X       C     2
    46   G47    1452 RESIDUE           4 X       G     2
    47   A48    1486 RESIDUE           4 X       A     2
    48   A49    1519 RESIDUE           4 X       A     2
    49   U50    1552 RESIDUE           4 X       U     2
    50   C51    1582 RESIDUE           4 X       C     2
    51   C52    1613 RESIDUE           4 X       C     2
    52   A53    1644 RESIDUE           4 X       A     2
    53   U54    1677 RESIDUE           4 X       U     1
    54   G58    1705 RESIDUE           4 Z       G     1 ROOT
    55   A59    1740 RESIDUE           4 Z       A     2
    56   U60    1773 RESIDUE           4 Z       U     2
    57   U61    1803 RESIDUE           4 Z       U     2
    58   G62    1833 RESIDUE           4 Z       G     2
    59   A63    1867 RESIDUE           4 Z       A     2
    60   U64    1900 RESIDUE           4 Z       U     2
    61   U65    1930 RESIDUE           4 Z       U     2
    62   U66    1960 RESIDUE           4 Z       U     2
    63   G67    1990 RESIDUE           4 Z       G     2
    64   G68    2024 RESIDUE           4 Z       G     2
    65   U69    2058 RESIDUE           4 Z       U     2
    66   G70    2088 RESIDUE           4 Z       G     2
    67   A71    2122 RESIDUE           4 Z       A     2
    68   A72    2155 RESIDUE           4 Z       A     2
    69   A73    2188 RESIDUE           4 Z       A     2
    70   U74    2221 RESIDUE           4 Z       U     2
    71   U75    2251 RESIDUE           4 Z       U     2
    72   C76    2281 RESIDUE           4 Z       C     2
    73   C77    2312 RESIDUE           4 Z       C     2
    74   A78    2343 RESIDUE           4 Z       A     2
    75   A79    2376 RESIDUE           4 Z       A     2
    76   A80    2409 RESIDUE           4 Z       A     2
    77   A81    2442 RESIDUE           4 Z       A     2
    78   C82    2475 RESIDUE           4 Z       C     2
    79   C83    2506 RESIDUE           4 Z       C     2
    80   G84    2537 RESIDUE           4 Z       G     2
    81   A85    2571 RESIDUE           4 Z       A     2
    82   C86    2604 RESIDUE           4 Z       C     2
    83   A87    2635 RESIDUE           4 Z       A     2
    84   G88    2668 RESIDUE           4 Z       G     2
    85   U89    2702 RESIDUE           4 Z       U     2
    86   A90    2732 RESIDUE           4 Z       A     2
    87   G91    2765 RESIDUE           4 Z       G     2
    88   A92    2799 RESIDUE           4 Z       A     2
    89   G93    2832 RESIDUE           4 Z       G     2
    90   U94    2866 RESIDUE           4 Z       U     2
    91   C95    2896 RESIDUE           4 Z       C     2
    92   U96    2927 RESIDUE           4 Z       U     2
    93   G97    2957 RESIDUE           4 Z       G     2
    94   G98    2991 RESIDUE           4 Z       G     2
    95   A99    3025 RESIDUE           4 Z       A     2
    96   U100   3058 RESIDUE           4 Z       U     2
    97   G101   3088 RESIDUE           4 Z       G     2
    98   A102   3122 RESIDUE           4 Z       A     2
    99   G103   3155 RESIDUE           4 Z       G     2
   100   A104   3189 RESIDUE           4 Z       A     2
   101   G105   3222 RESIDUE           4 Z       G     2
   102   A106   3256 RESIDUE           4 Z       A     2
   103   A107   3289 RESIDUE           4 Z       A     2
   104   G108   3322 RESIDUE           4 Z       G     2
   105   A109   3356 RESIDUE           4 Z       A     2
   106   U110   3389 RESIDUE           4 Z       U     2
   107   U111   3419 RESIDUE           4 Z       U     2
   108   C112   3449 RESIDUE           4 Z       C     2
   109   G113   3480 RESIDUE           4 Z       G     1
